
     RDKit          3D

 66 71  0  0  1  0  0  0  0  0999 V2000
  141.8220   69.5370  220.0700 O   0  0  0  0  0  0  0  0  0  0  0  0
  142.8290   70.1670  219.6600 C   0  0  0  0  0  0  0  0  0  0  0  0
  142.9770   71.5060  220.1100 N   0  0  0  0  0  0  0  0  0  0  0  0
  142.0560   72.1450  220.9860 C   0  0  0  0  0  0  0  0  0  0  0  0
  141.5050   71.4700  222.0110 N   0  0  0  0  0  0  0  0  0  0  0  0
  140.6250   72.1190  222.8290 C   0  0  0  0  0  0  0  0  0  0  0  0
  140.0350   71.4240  223.9130 N   0  0  0  0  0  0  0  0  0  0  0  0
  138.8390   70.6350  223.6870 C   0  0  0  0  0  0  0  0  0  0  0  0
  139.1690   69.2050  224.0950 C   0  0  0  0  0  0  0  0  0  0  0  0
  139.5640   69.2760  225.5350 C   0  0  0  0  0  0  0  0  0  0  0  0
  139.2110   68.1930  226.3440 C   0  0  0  0  0  0  0  0  0  0  0  0
  139.5740   68.2530  227.6720 C   0  0  0  0  0  0  0  0  0  0  0  0
  140.2550   69.3250  228.2050 C   0  0  0  0  0  0  0  0  0  0  0  0
  140.6060   70.4010  227.4020 C   0  0  0  0  0  0  0  0  0  0  0  0
  140.2460   70.3490  226.0650 C   0  0  0  0  0  0  0  0  0  0  0  0
  140.6300   71.5100  225.2240 C   0  0  0  0  0  0  0  0  0  0  0  0
  140.3260   73.4180  222.5950 N   0  0  0  0  0  0  0  0  0  0  0  0
  140.8710   74.1010  221.5720 C   0  0  0  0  0  0  0  0  0  0  0  0
  140.5000   75.4640  221.4010 N   0  0  0  0  0  0  0  0  0  0  0  0
  139.0900   75.8080  221.4170 C   0  0  0  0  0  0  0  0  0  0  0  0
  138.9080   76.6380  222.6910 C   0  0  0  0  0  0  0  0  0  0  0  0
  139.7450   77.8660  222.4860 C   0  0  0  0  0  0  0  0  0  0  0  0
  139.2700   79.0460  223.0210 C   0  0  0  0  0  0  0  0  0  0  0  0
  140.0450   80.1930  222.8340 C   0  0  0  0  0  0  0  0  0  0  0  0
  141.2460   80.1440  222.1350 C   0  0  0  0  0  0  0  0  0  0  0  0
  141.7050   78.9510  221.6060 C   0  0  0  0  0  0  0  0  0  0  0  0
  140.9370   77.8210  221.7930 C   0  0  0  0  0  0  0  0  0  0  0  0
  141.4520   76.5310  221.2100 C   0  0  0  0  0  0  0  0  0  0  0  0
  141.7260   73.4550  220.7850 N   0  0  0  0  0  0  0  0  0  0  0  0
  143.8430   69.5800  218.7430 C   0  0  2  0  0  0  0  0  0  0  0  0
  143.4950   68.1570  218.3670 C   0  0  0  0  0  0  0  0  0  0  0  0
  144.7140   67.5580  217.6960 C   0  0  0  0  0  0  0  0  0  0  0  0
  145.7550   67.3470  218.7870 C   0  0  0  0  0  0  0  0  0  0  0  0
  145.7900   68.4240  219.7340 N   0  0  0  0  0  0  0  0  0  0  0  0
  145.2430   69.6600  219.2520 C   0  0  0  0  0  0  0  0  0  0  0  0
  143.7950   72.0820  219.8040 H   0  0  0  0  0  0  0  0  0  0  0  0
  138.0100   71.0211  224.2983 H   0  0  0  0  0  0  0  0  0  0  0  0
  138.5294   70.6822  222.6325 H   0  0  0  0  0  0  0  0  0  0  0  0
  138.2884   68.5577  223.9703 H   0  0  0  0  0  0  0  0  0  0  0  0
  139.9719   68.7808  223.4743 H   0  0  0  0  0  0  0  0  0  0  0  0
  138.6659   67.3283  225.9377 H   0  0  0  0  0  0  0  0  0  0  0  0
  139.3099   67.4130  228.3313 H   0  0  0  0  0  0  0  0  0  0  0  0
  140.5219   69.3283  229.2721 H   0  0  0  0  0  0  0  0  0  0  0  0
  141.1505   71.2643  227.8122 H   0  0  0  0  0  0  0  0  0  0  0  0
  140.2897   72.4350  225.7125 H   0  0  0  0  0  0  0  0  0  0  0  0
  141.7241   71.5111  225.1105 H   0  0  0  0  0  0  0  0  0  0  0  0
  138.8245   76.3986  220.5278 H   0  0  0  0  0  0  0  0  0  0  0  0
  138.4438   74.9179  221.4038 H   0  0  0  0  0  0  0  0  0  0  0  0
  137.8508   76.9103  222.8258 H   0  0  0  0  0  0  0  0  0  0  0  0
  139.2102   76.0810  223.5901 H   0  0  0  0  0  0  0  0  0  0  0  0
  138.3190   79.0819  223.5727 H   0  0  0  0  0  0  0  0  0  0  0  0
  139.6990   81.1520  223.2470 H   0  0  0  0  0  0  0  0  0  0  0  0
  141.8366   81.0623  222.0014 H   0  0  0  0  0  0  0  0  0  0  0  0
  142.6545   78.9051  221.0526 H   0  0  0  0  0  0  0  0  0  0  0  0
  141.6287   76.6676  220.1329 H   0  0  0  0  0  0  0  0  0  0  0  0
  142.3881   76.2628  221.7217 H   0  0  0  0  0  0  0  0  0  0  0  0
  143.8088   70.2075  217.8402 H   0  0  0  0  0  0  0  0  0  0  0  0
  143.2403   67.5808  219.2688 H   0  0  0  0  0  0  0  0  0  0  0  0
  142.6273   68.1336  217.6913 H   0  0  0  0  0  0  0  0  0  0  0  0
  144.4551   66.5967  217.2281 H   0  0  0  0  0  0  0  0  0  0  0  0
  145.0971   68.2215  216.9067 H   0  0  0  0  0  0  0  0  0  0  0  0
  145.5200   66.4152  219.3222 H   0  0  0  0  0  0  0  0  0  0  0  0
  146.7408   67.2993  218.3012 H   0  0  0  0  0  0  0  0  0  0  0  0
  145.3900   68.1950  220.6550 H   0  0  0  0  0  0  0  0  0  0  0  0
  145.2637   70.3862  220.0779 H   0  0  0  0  0  0  0  0  0  0  0  0
  145.8637   69.9537  218.3926 H   0  0  0  0  0  0  0  0  0  0  0  0
  1  2  2  0
  2  3  1  0
  3  4  1  0
  4  5  2  0
  5  6  1  0
  6  7  1  0
  7  8  1  0
  8  9  1  0
  9 10  1  0
 10 11  2  0
 11 12  1  0
 12 13  2  0
 13 14  1  0
 14 15  2  0
 15 16  1  0
  6 17  2  0
 17 18  1  0
 18 19  1  0
 19 20  1  0
 20 21  1  0
 21 22  1  0
 22 23  2  0
 23 24  1  0
 24 25  2  0
 25 26  1  0
 26 27  2  0
 27 28  1  0
 18 29  2  0
  2 30  1  0
 30 31  1  0
 31 32  1  0
 32 33  1  0
 33 34  1  0
 34 35  1  0
 29  4  1  0
 35 30  1  0
 16  7  1  0
 28 19  1  0
 15 10  1  0
 27 22  1  0
  3 36  1  0
  8 37  1  0
  8 38  1  0
  9 39  1  0
  9 40  1  0
 11 41  1  0
 12 42  1  0
 13 43  1  0
 14 44  1  0
 16 45  1  0
 16 46  1  0
 20 47  1  0
 20 48  1  0
 21 49  1  0
 21 50  1  0
 23 51  1  0
 24 52  1  0
 25 53  1  0
 26 54  1  0
 28 55  1  0
 28 56  1  0
 30 57  1  6
 31 58  1  0
 31 59  1  0
 32 60  1  0
 32 61  1  0
 33 62  1  0
 33 63  1  0
 34 64  1  0
 35 65  1  0
 35 66  1  0
M  END
>  <smiles>  (1) 
O=C(Nc1nc(N2CCc3ccccc3C2)nc(N2CCc3ccccc3C2)n1)C1CCCNC1

>  <score_type>  (1) 
oracle

>  <origin>  (1) 
autodockgpu

>  <m_score__min__energy>  (1) 
-10.140000000000001

>  <m_primary>  (1) 
energy

>  <rmsd>  (1) 
8.901125199140154

>  <m_score__min__rmsd>  (1) 
8.901125199140154

>  <meeko>  (1) 
{"free_energy": -9.9, "intermolecular_energy": -11.1, "internal_energy": -0.84, "cluster_size": 12, "cluster_id": 2, "rank_in_cluster": 7}

>  <energy>  (1) 
-10.14

>  <cluster_rmsd>  (1) 
0.0

>  <cluster>  (1) 
1

$$$$

     RDKit          3D

 66 71  0  0  1  0  0  0  0  0999 V2000
  139.1600   75.5720  222.3620 O   0  0  0  0  0  0  0  0  0  0  0  0
  140.1500   76.2020  221.9140 C   0  0  0  0  0  0  0  0  0  0  0  0
  141.2780   75.4350  221.5210 N   0  0  0  0  0  0  0  0  0  0  0  0
  141.3300   74.0160  221.6110 C   0  0  0  0  0  0  0  0  0  0  0  0
  140.7130   73.3700  222.6170 N   0  0  0  0  0  0  0  0  0  0  0  0
  140.7860   72.0080  222.6680 C   0  0  0  0  0  0  0  0  0  0  0  0
  140.1430   71.3110  223.7200 N   0  0  0  0  0  0  0  0  0  0  0  0
  138.9900   70.4810  223.4240 C   0  0  0  0  0  0  0  0  0  0  0  0
  139.3350   69.0680  223.8780 C   0  0  0  0  0  0  0  0  0  0  0  0
  139.6250   69.1730  225.3410 C   0  0  0  0  0  0  0  0  0  0  0  0
  139.2500   68.0920  226.1410 C   0  0  0  0  0  0  0  0  0  0  0  0
  139.5160   68.1820  227.4900 C   0  0  0  0  0  0  0  0  0  0  0  0
  140.1250   69.2830  228.0520 C   0  0  0  0  0  0  0  0  0  0  0  0
  140.4980   70.3580  227.2570 C   0  0  0  0  0  0  0  0  0  0  0  0
  140.2350   70.2750  225.8990 C   0  0  0  0  0  0  0  0  0  0  0  0
  140.6410   71.4350  225.0680 C   0  0  0  0  0  0  0  0  0  0  0  0
  141.4720   71.3370  221.7130 N   0  0  0  0  0  0  0  0  0  0  0  0
  142.0930   71.9740  220.7030 C   0  0  0  0  0  0  0  0  0  0  0  0
  142.7910   71.1900  219.7430 N   0  0  0  0  0  0  0  0  0  0  0  0
  143.7290   71.8510  218.8540 C   0  0  0  0  0  0  0  0  0  0  0  0
  145.1010   71.3130  219.2700 C   0  0  0  0  0  0  0  0  0  0  0  0
  145.0530   69.8420  218.9810 C   0  0  0  0  0  0  0  0  0  0  0  0
  146.2240   69.2480  218.5530 C   0  0  0  0  0  0  0  0  0  0  0  0
  146.1860   67.8780  218.2830 C   0  0  0  0  0  0  0  0  0  0  0  0
  145.0140   67.1460  218.4380 C   0  0  0  0  0  0  0  0  0  0  0  0
  143.8520   67.7600  218.8680 C   0  0  0  0  0  0  0  0  0  0  0  0
  143.8930   69.1120  219.1340 C   0  0  0  0  0  0  0  0  0  0  0  0
  142.6170   69.7640  219.5990 C   0  0  0  0  0  0  0  0  0  0  0  0
  142.0120   73.3020  220.6680 N   0  0  0  0  0  0  0  0  0  0  0  0
  140.1850   77.6850  221.7850 C   0  0  2  0  0  0  0  0  0  0  0  0
  141.0450   78.1220  220.6200 C   0  0  0  0  0  0  0  0  0  0  0  0
  141.2600   79.6150  220.7560 C   0  0  0  0  0  0  0  0  0  0  0  0
  142.2040   79.8160  221.9340 C   0  0  0  0  0  0  0  0  0  0  0  0
  141.9240   78.9290  223.0250 N   0  0  0  0  0  0  0  0  0  0  0  0
  140.5920   78.3950  223.0320 C   0  0  0  0  0  0  0  0  0  0  0  0
  142.1340   75.9020  221.1410 H   0  0  0  0  0  0  0  0  0  0  0  0
  138.1086   70.8492  223.9695 H   0  0  0  0  0  0  0  0  0  0  0  0
  138.7536   70.5033  222.3499 H   0  0  0  0  0  0  0  0  0  0  0  0
  138.4861   68.3908  223.7029 H   0  0  0  0  0  0  0  0  0  0  0  0
  140.1925   68.6608  223.3222 H   0  0  0  0  0  0  0  0  0  0  0  0
  138.7620   67.2045  225.7118 H   0  0  0  0  0  0  0  0  0  0  0  0
  139.2316   67.3435  228.1428 H   0  0  0  0  0  0  0  0  0  0  0  0
  140.3163   69.3101  229.1349 H   0  0  0  0  0  0  0  0  0  0  0  0
  140.9851   71.2443  227.6896 H   0  0  0  0  0  0  0  0  0  0  0  0
  140.2385   72.3556  225.5159 H   0  0  0  0  0  0  0  0  0  0  0  0
  141.7399   71.4696  225.0315 H   0  0  0  0  0  0  0  0  0  0  0  0
  143.5144   71.5977  217.8053 H   0  0  0  0  0  0  0  0  0  0  0  0
  143.6712   72.9470  218.9272 H   0  0  0  0  0  0  0  0  0  0  0  0
  145.8977   71.7950  218.6844 H   0  0  0  0  0  0  0  0  0  0  0  0
  145.3175   71.5162  220.3292 H   0  0  0  0  0  0  0  0  0  0  0  0
  147.1492   69.8301  218.4297 H   0  0  0  0  0  0  0  0  0  0  0  0
  147.0996   67.3692  217.9417 H   0  0  0  0  0  0  0  0  0  0  0  0
  145.0112   66.0685  218.2165 H   0  0  0  0  0  0  0  0  0  0  0  0
  142.9220   67.1863  218.9941 H   0  0  0  0  0  0  0  0  0  0  0  0
  141.8240   69.5704  218.8617 H   0  0  0  0  0  0  0  0  0  0  0  0
  142.3426   69.3424  220.5773 H   0  0  0  0  0  0  0  0  0  0  0  0
  139.1430   77.9793  221.5908 H   0  0  0  0  0  0  0  0  0  0  0  0
  142.0118   77.5981  220.6481 H   0  0  0  0  0  0  0  0  0  0  0  0
  140.5565   77.8838  219.6636 H   0  0  0  0  0  0  0  0  0  0  0  0
  141.7097   80.0185  219.8368 H   0  0  0  0  0  0  0  0  0  0  0  0
  140.3065   80.1387  220.9194 H   0  0  0  0  0  0  0  0  0  0  0  0
  143.2348   79.6399  221.5929 H   0  0  0  0  0  0  0  0  0  0  0  0
  142.0662   80.8447  222.2984 H   0  0  0  0  0  0  0  0  0  0  0  0
  142.6110   78.1710  223.1450 H   0  0  0  0  0  0  0  0  0  0  0  0
  140.5147   77.6848  223.8684 H   0  0  0  0  0  0  0  0  0  0  0  0
  139.9176   79.2591  223.1248 H   0  0  0  0  0  0  0  0  0  0  0  0
  1  2  2  0
  2  3  1  0
  3  4  1  0
  4  5  2  0
  5  6  1  0
  6  7  1  0
  7  8  1  0
  8  9  1  0
  9 10  1  0
 10 11  2  0
 11 12  1  0
 12 13  2  0
 13 14  1  0
 14 15  2  0
 15 16  1  0
  6 17  2  0
 17 18  1  0
 18 19  1  0
 19 20  1  0
 20 21  1  0
 21 22  1  0
 22 23  2  0
 23 24  1  0
 24 25  2  0
 25 26  1  0
 26 27  2  0
 27 28  1  0
 18 29  2  0
  2 30  1  0
 30 31  1  0
 31 32  1  0
 32 33  1  0
 33 34  1  0
 34 35  1  0
 29  4  1  0
 35 30  1  0
 16  7  1  0
 28 19  1  0
 15 10  1  0
 27 22  1  0
  3 36  1  0
  8 37  1  0
  8 38  1  0
  9 39  1  0
  9 40  1  0
 11 41  1  0
 12 42  1  0
 13 43  1  0
 14 44  1  0
 16 45  1  0
 16 46  1  0
 20 47  1  0
 20 48  1  0
 21 49  1  0
 21 50  1  0
 23 51  1  0
 24 52  1  0
 25 53  1  0
 26 54  1  0
 28 55  1  0
 28 56  1  0
 30 57  1  6
 31 58  1  0
 31 59  1  0
 32 60  1  0
 32 61  1  0
 33 62  1  0
 33 63  1  0
 34 64  1  0
 35 65  1  0
 35 66  1  0
M  END
>  <smiles>  (2) 
O=C(Nc1nc(N2CCc3ccccc3C2)nc(N2CCc3ccccc3C2)n1)C1CCCNC1

>  <score_type>  (2) 
oracle

>  <origin>  (2) 
autodockgpu

>  <m_score__min__energy>  (2) 
-10.140000000000001

>  <m_primary>  (2) 
energy

>  <rmsd>  (2) 
4.534293251168638

>  <m_score__min__rmsd>  (2) 
4.534293251168638

>  <meeko>  (2) 
{"free_energy": -10.09, "intermolecular_energy": -11.28, "internal_energy": -0.86, "cluster_size": 37, "cluster_id": 1, "rank_in_cluster": 12}

>  <energy>  (2) 
-10.14

>  <cluster_rmsd>  (2) 
0.18

>  <cluster>  (2) 
1

$$$$

     RDKit          3D

 66 71  0  0  1  0  0  0  0  0999 V2000
  139.5300   75.7520  222.6180 O   0  0  0  0  0  0  0  0  0  0  0  0
  140.3670   76.3640  221.9090 C   0  0  0  0  0  0  0  0  0  0  0  0
  141.3540   75.5790  221.2560 N   0  0  0  0  0  0  0  0  0  0  0  0
  141.4280   74.1630  221.3690 C   0  0  0  0  0  0  0  0  0  0  0  0
  142.1800   73.4460  220.5140 N   0  0  0  0  0  0  0  0  0  0  0  0
  142.2260   72.0890  220.6560 C   0  0  0  0  0  0  0  0  0  0  0  0
  143.0130   71.3180  219.7650 N   0  0  0  0  0  0  0  0  0  0  0  0
  144.0220   71.9750  218.9570 C   0  0  0  0  0  0  0  0  0  0  0  0
  145.3560   71.3270  219.3030 C   0  0  0  0  0  0  0  0  0  0  0  0
  145.1970   69.8760  218.9820 C   0  0  0  0  0  0  0  0  0  0  0  0
  146.3200   69.2070  218.4900 C   0  0  0  0  0  0  0  0  0  0  0  0
  146.1790   67.8690  218.1930 C   0  0  0  0  0  0  0  0  0  0  0  0
  144.9900   67.1950  218.3630 C   0  0  0  0  0  0  0  0  0  0  0  0
  143.8730   67.8590  218.8520 C   0  0  0  0  0  0  0  0  0  0  0  0
  144.0070   69.2050  219.1540 C   0  0  0  0  0  0  0  0  0  0  0  0
  142.8000   69.8950  219.6750 C   0  0  0  0  0  0  0  0  0  0  0  0
  141.5190   71.4940  221.6450 N   0  0  0  0  0  0  0  0  0  0  0  0
  140.7630   72.2020  222.5050 C   0  0  0  0  0  0  0  0  0  0  0  0
  140.0540   71.4950  223.5150 N   0  0  0  0  0  0  0  0  0  0  0  0
  138.8930   70.7120  223.1320 C   0  0  0  0  0  0  0  0  0  0  0  0
  139.3080   69.2590  223.3760 C   0  0  0  0  0  0  0  0  0  0  0  0
  139.5430   69.1580  224.8540 C   0  0  0  0  0  0  0  0  0  0  0  0
  139.2130   67.9630  225.4610 C   0  0  0  0  0  0  0  0  0  0  0  0
  139.4300   67.8620  226.8380 C   0  0  0  0  0  0  0  0  0  0  0  0
  139.9570   68.9260  227.5630 C   0  0  0  0  0  0  0  0  0  0  0  0
  140.2810   70.1140  226.9350 C   0  0  0  0  0  0  0  0  0  0  0  0
  140.0660   70.2100  225.5770 C   0  0  0  0  0  0  0  0  0  0  0  0
  140.4240   71.5120  224.9100 C   0  0  0  0  0  0  0  0  0  0  0  0
  140.7300   73.5230  222.3530 N   0  0  0  0  0  0  0  0  0  0  0  0
  140.3650   77.8420  221.7340 C   0  0  2  0  0  0  0  0  0  0  0  0
  141.2790   78.2700  220.6080 C   0  0  0  0  0  0  0  0  0  0  0  0
  141.4420   79.7730  220.7070 C   0  0  0  0  0  0  0  0  0  0  0  0
  142.3080   80.0400  221.9310 C   0  0  0  0  0  0  0  0  0  0  0  0
  141.9900   79.1780  223.0320 N   0  0  0  0  0  0  0  0  0  0  0  0
  140.6760   78.6030  222.9790 C   0  0  0  0  0  0  0  0  0  0  0  0
  142.0780   76.0300  220.6520 H   0  0  0  0  0  0  0  0  0  0  0  0
  143.8001   71.8368  217.8885 H   0  0  0  0  0  0  0  0  0  0  0  0
  144.0453   73.0562  219.1583 H   0  0  0  0  0  0  0  0  0  0  0  0
  146.1638   71.7669  218.6997 H   0  0  0  0  0  0  0  0  0  0  0  0
  145.6205   71.4822  220.3594 H   0  0  0  0  0  0  0  0  0  0  0  0
  147.2783   69.7273  218.3455 H   0  0  0  0  0  0  0  0  0  0  0  0
  147.0488   67.3183  217.8055 H   0  0  0  0  0  0  0  0  0  0  0  0
  144.9251   66.1264  218.1104 H   0  0  0  0  0  0  0  0  0  0  0  0
  142.9161   67.3356  218.9946 H   0  0  0  0  0  0  0  0  0  0  0  0
  141.9549   69.7005  218.9982 H   0  0  0  0  0  0  0  0  0  0  0  0
  142.5854   69.5098  220.6827 H   0  0  0  0  0  0  0  0  0  0  0  0
  138.0243   70.9769  223.7526 H   0  0  0  0  0  0  0  0  0  0  0  0
  138.5958   70.8907  222.0881 H   0  0  0  0  0  0  0  0  0  0  0  0
  138.5070   68.5721  223.0653 H   0  0  0  0  0  0  0  0  0  0  0  0
  140.2034   68.9855  222.7985 H   0  0  0  0  0  0  0  0  0  0  0  0
  138.7961   67.1242  224.8843 H   0  0  0  0  0  0  0  0  0  0  0  0
  139.1798   66.9252  227.3574 H   0  0  0  0  0  0  0  0  0  0  0  0
  140.1174   68.8209  228.6462 H   0  0  0  0  0  0  0  0  0  0  0  0
  140.6985   70.9586  227.5028 H   0  0  0  0  0  0  0  0  0  0  0  0
  139.8923   72.3328  225.4136 H   0  0  0  0  0  0  0  0  0  0  0  0
  141.5120   71.6568  224.9833 H   0  0  0  0  0  0  0  0  0  0  0  0
  139.3280   78.0966  221.4698 H   0  0  0  0  0  0  0  0  0  0  0  0
  142.2574   77.7777  220.7095 H   0  0  0  0  0  0  0  0  0  0  0  0
  140.8548   77.9875  219.6332 H   0  0  0  0  0  0  0  0  0  0  0  0
  141.9336   80.1613  219.8028 H   0  0  0  0  0  0  0  0  0  0  0  0
  140.4656   80.2716  220.7969 H   0  0  0  0  0  0  0  0  0  0  0  0
  143.3621   79.8864  221.6567 H   0  0  0  0  0  0  0  0  0  0  0  0
  142.1184   81.0745  222.2532 H   0  0  0  0  0  0  0  0  0  0  0  0
  142.6900   78.4460  223.2170 H   0  0  0  0  0  0  0  0  0  0  0  0
  140.5701   77.9171  223.8324 H   0  0  0  0  0  0  0  0  0  0  0  0
  139.9720   79.4479  223.0041 H   0  0  0  0  0  0  0  0  0  0  0  0
  1  2  2  0
  2  3  1  0
  3  4  1  0
  4  5  2  0
  5  6  1  0
  6  7  1  0
  7  8  1  0
  8  9  1  0
  9 10  1  0
 10 11  2  0
 11 12  1  0
 12 13  2  0
 13 14  1  0
 14 15  2  0
 15 16  1  0
  6 17  2  0
 17 18  1  0
 18 19  1  0
 19 20  1  0
 20 21  1  0
 21 22  1  0
 22 23  2  0
 23 24  1  0
 24 25  2  0
 25 26  1  0
 26 27  2  0
 27 28  1  0
 18 29  2  0
  2 30  1  0
 30 31  1  0
 31 32  1  0
 32 33  1  0
 33 34  1  0
 34 35  1  0
 29  4  1  0
 35 30  1  0
 16  7  1  0
 28 19  1  0
 15 10  1  0
 27 22  1  0
  3 36  1  0
  8 37  1  0
  8 38  1  0
  9 39  1  0
  9 40  1  0
 11 41  1  0
 12 42  1  0
 13 43  1  0
 14 44  1  0
 16 45  1  0
 16 46  1  0
 20 47  1  0
 20 48  1  0
 21 49  1  0
 21 50  1  0
 23 51  1  0
 24 52  1  0
 25 53  1  0
 26 54  1  0
 28 55  1  0
 28 56  1  0
 30 57  1  6
 31 58  1  0
 31 59  1  0
 32 60  1  0
 32 61  1  0
 33 62  1  0
 33 63  1  0
 34 64  1  0
 35 65  1  0
 35 66  1  0
M  END
>  <smiles>  (3) 
O=C(Nc1nc(N2CCc3ccccc3C2)nc(N2CCc3ccccc3C2)n1)C1CCCNC1

>  <score_type>  (3) 
oracle

>  <origin>  (3) 
autodockgpu

>  <m_score__min__energy>  (3) 
-10.140000000000001

>  <m_primary>  (3) 
energy

>  <rmsd>  (3) 
4.625576681136137

>  <m_score__min__rmsd>  (3) 
4.625576681136137

>  <meeko>  (3) 
{"free_energy": -10.07, "intermolecular_energy": -11.26, "internal_energy": -0.77, "cluster_size": 37, "cluster_id": 1, "rank_in_cluster": 16}

>  <energy>  (3) 
-10.13

>  <cluster_rmsd>  (3) 
0.26

>  <cluster>  (3) 
1

$$$$

     RDKit          3D

 66 71  0  0  1  0  0  0  0  0999 V2000
  139.1760   75.5660  222.4630 O   0  0  0  0  0  0  0  0  0  0  0  0
  140.1460   76.1970  221.9730 C   0  0  0  0  0  0  0  0  0  0  0  0
  141.2640   75.4310  221.5500 N   0  0  0  0  0  0  0  0  0  0  0  0
  141.3270   74.0140  221.6540 C   0  0  0  0  0  0  0  0  0  0  0  0
  140.7150   73.3740  222.6670 N   0  0  0  0  0  0  0  0  0  0  0  0
  140.7990   72.0130  222.7310 C   0  0  0  0  0  0  0  0  0  0  0  0
  140.1610   71.3220  223.7900 N   0  0  0  0  0  0  0  0  0  0  0  0
  139.0160   70.4790  223.5020 C   0  0  0  0  0  0  0  0  0  0  0  0
  139.3720   69.0740  223.9710 C   0  0  0  0  0  0  0  0  0  0  0  0
  139.6600   69.1960  225.4320 C   0  0  0  0  0  0  0  0  0  0  0  0
  139.2940   68.1200  226.2440 C   0  0  0  0  0  0  0  0  0  0  0  0
  139.5580   68.2260  227.5920 C   0  0  0  0  0  0  0  0  0  0  0  0
  140.1570   69.3380  228.1420 C   0  0  0  0  0  0  0  0  0  0  0  0
  140.5220   70.4080  227.3370 C   0  0  0  0  0  0  0  0  0  0  0  0
  140.2610   70.3080  225.9790 C   0  0  0  0  0  0  0  0  0  0  0  0
  140.6580   71.4630  225.1370 C   0  0  0  0  0  0  0  0  0  0  0  0
  141.4920   71.3380  221.7830 N   0  0  0  0  0  0  0  0  0  0  0  0
  142.1080   71.9690  220.7680 C   0  0  0  0  0  0  0  0  0  0  0  0
  142.8130   71.1820  219.8160 N   0  0  0  0  0  0  0  0  0  0  0  0
  143.7440   71.8410  218.9190 C   0  0  0  0  0  0  0  0  0  0  0  0
  145.1210   71.3230  219.3400 C   0  0  0  0  0  0  0  0  0  0  0  0
  145.0880   69.8480  219.0670 C   0  0  0  0  0  0  0  0  0  0  0  0
  146.2640   69.2610  218.6460 C   0  0  0  0  0  0  0  0  0  0  0  0
  146.2410   67.8870  218.3910 C   0  0  0  0  0  0  0  0  0  0  0  0
  145.0760   67.1450  218.5560 C   0  0  0  0  0  0  0  0  0  0  0  0
  143.9080   67.7520  218.9790 C   0  0  0  0  0  0  0  0  0  0  0  0
  143.9350   69.1070  219.2300 C   0  0  0  0  0  0  0  0  0  0  0  0
  142.6540   69.7520  219.6890 C   0  0  0  0  0  0  0  0  0  0  0  0
  142.0160   73.2960  220.7180 N   0  0  0  0  0  0  0  0  0  0  0  0
  140.1670   77.6790  221.8260 C   0  0  2  0  0  0  0  0  0  0  0  0
  141.0370   78.1100  220.6660 C   0  0  0  0  0  0  0  0  0  0  0  0
  141.2350   79.6070  220.7850 C   0  0  0  0  0  0  0  0  0  0  0  0
  142.1620   79.8330  221.9720 C   0  0  0  0  0  0  0  0  0  0  0  0
  141.8770   78.9560  223.0720 N   0  0  0  0  0  0  0  0  0  0  0  0
  140.5510   78.4080  223.0680 C   0  0  0  0  0  0  0  0  0  0  0  0
  142.1020   75.8990  221.1340 H   0  0  0  0  0  0  0  0  0  0  0  0
  138.1309   70.8454  224.0427 H   0  0  0  0  0  0  0  0  0  0  0  0
  138.7809   70.4877  222.4274 H   0  0  0  0  0  0  0  0  0  0  0  0
  138.5286   68.3882  223.8023 H   0  0  0  0  0  0  0  0  0  0  0  0
  140.2333   68.6682  223.4200 H   0  0  0  0  0  0  0  0  0  0  0  0
  138.8141   67.2238  225.8239 H   0  0  0  0  0  0  0  0  0  0  0  0
  139.2803   67.3921  228.2534 H   0  0  0  0  0  0  0  0  0  0  0  0
  140.3470   69.3780  229.2247 H   0  0  0  0  0  0  0  0  0  0  0  0
  141.0010   71.3029  227.7610 H   0  0  0  0  0  0  0  0  0  0  0  0
  140.2483   72.3847  225.5760 H   0  0  0  0  0  0  0  0  0  0  0  0
  141.7566   71.5059  225.1002 H   0  0  0  0  0  0  0  0  0  0  0  0
  143.5315   71.5727  217.8736 H   0  0  0  0  0  0  0  0  0  0  0  0
  143.6752   72.9372  218.9794 H   0  0  0  0  0  0  0  0  0  0  0  0
  145.9123   71.8069  218.7487 H   0  0  0  0  0  0  0  0  0  0  0  0
  145.3361   71.5404  220.3966 H   0  0  0  0  0  0  0  0  0  0  0  0
  147.1831   69.8512  218.5163 H   0  0  0  0  0  0  0  0  0  0  0  0
  147.1594   67.3840  218.0542 H   0  0  0  0  0  0  0  0  0  0  0  0
  145.0841   66.0649  218.3479 H   0  0  0  0  0  0  0  0  0  0  0  0
  142.9838   67.1703  219.1114 H   0  0  0  0  0  0  0  0  0  0  0  0
  141.8619   69.5416  218.9553 H   0  0  0  0  0  0  0  0  0  0  0  0
  142.3861   69.3397  220.6730 H   0  0  0  0  0  0  0  0  0  0  0  0
  139.1246   77.9604  221.6157 H   0  0  0  0  0  0  0  0  0  0  0  0
  142.0087   77.5966  220.7129 H   0  0  0  0  0  0  0  0  0  0  0  0
  140.5629   77.8544  219.7069 H   0  0  0  0  0  0  0  0  0  0  0  0
  141.6921   80.0031  219.8662 H   0  0  0  0  0  0  0  0  0  0  0  0
  140.2743   80.1229  220.9295 H   0  0  0  0  0  0  0  0  0  0  0  0
  143.1988   79.6634  221.6461 H   0  0  0  0  0  0  0  0  0  0  0  0
  142.0092   80.8648  222.3213 H   0  0  0  0  0  0  0  0  0  0  0  0
  142.5700   78.2070  223.2090 H   0  0  0  0  0  0  0  0  0  0  0  0
  140.4703   77.7073  223.9121 H   0  0  0  0  0  0  0  0  0  0  0  0
  139.8669   79.2663  223.1408 H   0  0  0  0  0  0  0  0  0  0  0  0
  1  2  2  0
  2  3  1  0
  3  4  1  0
  4  5  2  0
  5  6  1  0
  6  7  1  0
  7  8  1  0
  8  9  1  0
  9 10  1  0
 10 11  2  0
 11 12  1  0
 12 13  2  0
 13 14  1  0
 14 15  2  0
 15 16  1  0
  6 17  2  0
 17 18  1  0
 18 19  1  0
 19 20  1  0
 20 21  1  0
 21 22  1  0
 22 23  2  0
 23 24  1  0
 24 25  2  0
 25 26  1  0
 26 27  2  0
 27 28  1  0
 18 29  2  0
  2 30  1  0
 30 31  1  0
 31 32  1  0
 32 33  1  0
 33 34  1  0
 34 35  1  0
 29  4  1  0
 35 30  1  0
 16  7  1  0
 28 19  1  0
 15 10  1  0
 27 22  1  0
  3 36  1  0
  8 37  1  0
  8 38  1  0
  9 39  1  0
  9 40  1  0
 11 41  1  0
 12 42  1  0
 13 43  1  0
 14 44  1  0
 16 45  1  0
 16 46  1  0
 20 47  1  0
 20 48  1  0
 21 49  1  0
 21 50  1  0
 23 51  1  0
 24 52  1  0
 25 53  1  0
 26 54  1  0
 28 55  1  0
 28 56  1  0
 30 57  1  6
 31 58  1  0
 31 59  1  0
 32 60  1  0
 32 61  1  0
 33 62  1  0
 33 63  1  0
 34 64  1  0
 35 65  1  0
 35 66  1  0
M  END
>  <smiles>  (4) 
O=C(Nc1nc(N2CCc3ccccc3C2)nc(N2CCc3ccccc3C2)n1)C1CCCNC1

>  <score_type>  (4) 
oracle

>  <origin>  (4) 
autodockgpu

>  <m_score__min__energy>  (4) 
-10.140000000000001

>  <m_primary>  (4) 
energy

>  <rmsd>  (4) 
4.5496745602201765

>  <m_score__min__rmsd>  (4) 
4.5496745602201765

>  <meeko>  (4) 
{"free_energy": -10.11, "intermolecular_energy": -11.3, "internal_energy": -0.85, "cluster_size": 37, "cluster_id": 1, "rank_in_cluster": 8}

>  <energy>  (4) 
-10.12

>  <cluster_rmsd>  (4) 
0.2

>  <cluster>  (4) 
1

$$$$

     RDKit          3D

 66 71  0  0  1  0  0  0  0  0999 V2000
  138.8130   75.4440  221.4230 O   0  0  0  0  0  0  0  0  0  0  0  0
  139.8590   76.1400  221.4450 C   0  0  0  0  0  0  0  0  0  0  0  0
  141.0900   75.4460  221.5840 N   0  0  0  0  0  0  0  0  0  0  0  0
  141.1830   74.0320  221.6950 C   0  0  0  0  0  0  0  0  0  0  0  0
  140.5960   73.3840  222.7170 N   0  0  0  0  0  0  0  0  0  0  0  0
  140.7080   72.0250  222.7880 C   0  0  0  0  0  0  0  0  0  0  0  0
  140.0960   71.3270  223.8570 N   0  0  0  0  0  0  0  0  0  0  0  0
  138.9480   70.4810  223.5900 C   0  0  0  0  0  0  0  0  0  0  0  0
  139.3190   69.0750  224.0440 C   0  0  0  0  0  0  0  0  0  0  0  0
  139.6390   69.1910  225.4990 C   0  0  0  0  0  0  0  0  0  0  0  0
  139.2940   68.1100  226.3130 C   0  0  0  0  0  0  0  0  0  0  0  0
  139.5870   68.2110  227.6560 C   0  0  0  0  0  0  0  0  0  0  0  0
  140.1940   69.3220  228.1980 C   0  0  0  0  0  0  0  0  0  0  0  0
  140.5380   70.3970  227.3900 C   0  0  0  0  0  0  0  0  0  0  0  0
  140.2470   70.3030  226.0380 C   0  0  0  0  0  0  0  0  0  0  0  0
  140.6210   71.4640  225.1930 C   0  0  0  0  0  0  0  0  0  0  0  0
  141.4040   71.3600  221.8360 N   0  0  0  0  0  0  0  0  0  0  0  0
  141.9970   71.9980  220.8100 C   0  0  0  0  0  0  0  0  0  0  0  0
  142.7080   71.2200  219.8550 N   0  0  0  0  0  0  0  0  0  0  0  0
  143.6430   71.8900  218.9700 C   0  0  0  0  0  0  0  0  0  0  0  0
  145.0180   71.3680  219.3930 C   0  0  0  0  0  0  0  0  0  0  0  0
  144.9880   69.8960  219.1070 C   0  0  0  0  0  0  0  0  0  0  0  0
  146.1670   69.3140  218.6860 C   0  0  0  0  0  0  0  0  0  0  0  0
  146.1470   67.9430  218.4190 C   0  0  0  0  0  0  0  0  0  0  0  0
  144.9820   67.1980  218.5700 C   0  0  0  0  0  0  0  0  0  0  0  0
  143.8110   67.8000  218.9920 C   0  0  0  0  0  0  0  0  0  0  0  0
  143.8350   69.1530  219.2560 C   0  0  0  0  0  0  0  0  0  0  0  0
  142.5510   69.7920  219.7140 C   0  0  0  0  0  0  0  0  0  0  0  0
  141.8770   73.3230  220.7560 N   0  0  0  0  0  0  0  0  0  0  0  0
  139.8550   77.6250  221.3360 C   0  0  2  0  0  0  0  0  0  0  0  0
  140.5470   78.0910  220.0750 C   0  0  0  0  0  0  0  0  0  0  0  0
  140.7580   79.5850  220.2040 C   0  0  0  0  0  0  0  0  0  0  0  0
  141.8470   79.7850  221.2500 C   0  0  0  0  0  0  0  0  0  0  0  0
  141.7260   78.8790  222.3550 N   0  0  0  0  0  0  0  0  0  0  0  0
  140.4140   78.3230  222.5290 C   0  0  0  0  0  0  0  0  0  0  0  0
  141.9950   75.9700  221.6090 H   0  0  0  0  0  0  0  0  0  0  0  0
  138.0737   70.8415  224.1518 H   0  0  0  0  0  0  0  0  0  0  0  0
  138.6896   70.4941  222.5209 H   0  0  0  0  0  0  0  0  0  0  0  0
  138.4744   68.3871  223.8907 H   0  0  0  0  0  0  0  0  0  0  0  0
  140.1691   68.6748  223.4720 H   0  0  0  0  0  0  0  0  0  0  0  0
  138.8081   67.2141  225.8991 H   0  0  0  0  0  0  0  0  0  0  0  0
  139.3264   67.3732  228.3195 H   0  0  0  0  0  0  0  0  0  0  0  0
  140.4073   69.3577  229.2765 H   0  0  0  0  0  0  0  0  0  0  0  0
  141.0240   71.2912  227.8075 H   0  0  0  0  0  0  0  0  0  0  0  0
  140.2169   72.3818  225.6450 H   0  0  0  0  0  0  0  0  0  0  0  0
  141.7183   71.5120  225.1329 H   0  0  0  0  0  0  0  0  0  0  0  0
  143.4363   71.6331  217.9206 H   0  0  0  0  0  0  0  0  0  0  0  0
  143.5729   72.9854  219.0417 H   0  0  0  0  0  0  0  0  0  0  0  0
  145.8120   71.8576  218.8100 H   0  0  0  0  0  0  0  0  0  0  0  0
  145.2270   71.5755  220.4528 H   0  0  0  0  0  0  0  0  0  0  0  0
  147.0859   69.9065  218.5656 H   0  0  0  0  0  0  0  0  0  0  0  0
  147.0682   67.4440  218.0836 H   0  0  0  0  0  0  0  0  0  0  0  0
  144.9925   66.1199  218.3517 H   0  0  0  0  0  0  0  0  0  0  0  0
  142.8867   67.2162  219.1136 H   0  0  0  0  0  0  0  0  0  0  0  0
  141.7631   69.5876  218.9741 H   0  0  0  0  0  0  0  0  0  0  0  0
  142.2780   69.3701  220.6925 H   0  0  0  0  0  0  0  0  0  0  0  0
  138.7927   77.9060  221.2859 H   0  0  0  0  0  0  0  0  0  0  0  0
  141.5160   77.5818  219.9670 H   0  0  0  0  0  0  0  0  0  0  0  0
  139.9393   77.8583  219.1881 H   0  0  0  0  0  0  0  0  0  0  0  0
  141.0766   80.0075  219.2396 H   0  0  0  0  0  0  0  0  0  0  0  0
  139.8276   80.0917  220.4999 H   0  0  0  0  0  0  0  0  0  0  0  0
  142.8259   79.6295  220.7730 H   0  0  0  0  0  0  0  0  0  0  0  0
  141.7447   80.8065  221.6451 H   0  0  0  0  0  0  0  0  0  0  0  0
  142.4330   78.1300  222.3700 H   0  0  0  0  0  0  0  0  0  0  0  0
  140.4584   77.5995  223.3564 H   0  0  0  0  0  0  0  0  0  0  0  0
  139.7459   79.1748  222.7242 H   0  0  0  0  0  0  0  0  0  0  0  0
  1  2  2  0
  2  3  1  0
  3  4  1  0
  4  5  2  0
  5  6  1  0
  6  7  1  0
  7  8  1  0
  8  9  1  0
  9 10  1  0
 10 11  2  0
 11 12  1  0
 12 13  2  0
 13 14  1  0
 14 15  2  0
 15 16  1  0
  6 17  2  0
 17 18  1  0
 18 19  1  0
 19 20  1  0
 20 21  1  0
 21 22  1  0
 22 23  2  0
 23 24  1  0
 24 25  2  0
 25 26  1  0
 26 27  2  0
 27 28  1  0
 18 29  2  0
  2 30  1  0
 30 31  1  0
 31 32  1  0
 32 33  1  0
 33 34  1  0
 34 35  1  0
 29  4  1  0
 35 30  1  0
 16  7  1  0
 28 19  1  0
 15 10  1  0
 27 22  1  0
  3 36  1  0
  8 37  1  0
  8 38  1  0
  9 39  1  0
  9 40  1  0
 11 41  1  0
 12 42  1  0
 13 43  1  0
 14 44  1  0
 16 45  1  0
 16 46  1  0
 20 47  1  0
 20 48  1  0
 21 49  1  0
 21 50  1  0
 23 51  1  0
 24 52  1  0
 25 53  1  0
 26 54  1  0
 28 55  1  0
 28 56  1  0
 30 57  1  6
 31 58  1  0
 31 59  1  0
 32 60  1  0
 32 61  1  0
 33 62  1  0
 33 63  1  0
 34 64  1  0
 35 65  1  0
 35 66  1  0
M  END
>  <smiles>  (5) 
O=C(Nc1nc(N2CCc3ccccc3C2)nc(N2CCc3ccccc3C2)n1)C1CCCNC1

>  <score_type>  (5) 
oracle

>  <origin>  (5) 
autodockgpu

>  <m_score__min__energy>  (5) 
-10.140000000000001

>  <m_primary>  (5) 
energy

>  <rmsd>  (5) 
4.225601669300694

>  <m_score__min__rmsd>  (5) 
4.225601669300694

>  <meeko>  (5) 
{"free_energy": -9.82, "intermolecular_energy": -11.01, "internal_energy": -0.94, "cluster_size": 37, "cluster_id": 1, "rank_in_cluster": 34}

>  <energy>  (5) 
-10.12

>  <cluster_rmsd>  (5) 
0.2

>  <cluster>  (5) 
1

$$$$

     RDKit          3D

 66 71  0  0  1  0  0  0  0  0999 V2000
  139.0800   75.5700  222.1210 O   0  0  0  0  0  0  0  0  0  0  0  0
  140.1080   76.2070  221.7810 C   0  0  0  0  0  0  0  0  0  0  0  0
  141.2770   75.4460  221.5170 N   0  0  0  0  0  0  0  0  0  0  0  0
  141.3290   74.0280  221.6170 C   0  0  0  0  0  0  0  0  0  0  0  0
  140.7270   73.3910  222.6370 N   0  0  0  0  0  0  0  0  0  0  0  0
  140.8000   72.0290  222.6970 C   0  0  0  0  0  0  0  0  0  0  0  0
  140.1720   71.3410  223.7640 N   0  0  0  0  0  0  0  0  0  0  0  0
  139.0140   70.5100  223.4920 C   0  0  0  0  0  0  0  0  0  0  0  0
  139.3640   69.1010  223.9520 C   0  0  0  0  0  0  0  0  0  0  0  0
  139.6760   69.2160  225.4090 C   0  0  0  0  0  0  0  0  0  0  0  0
  139.3120   68.1420  226.2230 C   0  0  0  0  0  0  0  0  0  0  0  0
  139.5990   68.2420  227.5670 C   0  0  0  0  0  0  0  0  0  0  0  0
  140.2170   69.3460  228.1110 C   0  0  0  0  0  0  0  0  0  0  0  0
  140.5800   70.4150  227.3020 C   0  0  0  0  0  0  0  0  0  0  0  0
  140.2960   70.3210  225.9490 C   0  0  0  0  0  0  0  0  0  0  0  0
  140.6910   71.4750  225.1030 C   0  0  0  0  0  0  0  0  0  0  0  0
  141.4710   71.3510  221.7370 N   0  0  0  0  0  0  0  0  0  0  0  0
  142.0770   71.9780  220.7130 C   0  0  0  0  0  0  0  0  0  0  0  0
  142.7590   71.1870  219.7490 N   0  0  0  0  0  0  0  0  0  0  0  0
  143.7070   71.8350  218.8610 C   0  0  0  0  0  0  0  0  0  0  0  0
  145.0700   71.2730  219.2720 C   0  0  0  0  0  0  0  0  0  0  0  0
  144.9980   69.8040  218.9770 C   0  0  0  0  0  0  0  0  0  0  0  0
  146.1570   69.1920  218.5460 C   0  0  0  0  0  0  0  0  0  0  0  0
  146.0960   67.8240  218.2700 C   0  0  0  0  0  0  0  0  0  0  0  0
  144.9120   67.1100  218.4250 C   0  0  0  0  0  0  0  0  0  0  0  0
  143.7610   67.7420  218.8590 C   0  0  0  0  0  0  0  0  0  0  0  0
  143.8250   69.0920  219.1300 C   0  0  0  0  0  0  0  0  0  0  0  0
  142.5620   69.7640  219.6010 C   0  0  0  0  0  0  0  0  0  0  0  0
  141.9970   73.3060  220.6690 N   0  0  0  0  0  0  0  0  0  0  0  0
  140.1450   77.6890  221.6520 C   0  0  2  0  0  0  0  0  0  0  0  0
  141.0250   78.1240  220.5010 C   0  0  0  0  0  0  0  0  0  0  0  0
  141.2390   79.6180  220.6380 C   0  0  0  0  0  0  0  0  0  0  0  0
  142.1630   79.8200  221.8320 C   0  0  0  0  0  0  0  0  0  0  0  0
  141.8640   78.9330  222.9200 N   0  0  0  0  0  0  0  0  0  0  0  0
  140.5320   78.4000  222.9040 C   0  0  0  0  0  0  0  0  0  0  0  0
  142.1650   75.9190  221.2300 H   0  0  0  0  0  0  0  0  0  0  0  0
  138.1412   70.8836  224.0475 H   0  0  0  0  0  0  0  0  0  0  0  0
  138.7617   70.5238  222.4214 H   0  0  0  0  0  0  0  0  0  0  0  0
  138.5117   68.4236  223.7948 H   0  0  0  0  0  0  0  0  0  0  0  0
  140.2129   68.6889  223.3867 H   0  0  0  0  0  0  0  0  0  0  0  0
  138.8162   67.2519  225.8084 H   0  0  0  0  0  0  0  0  0  0  0  0
  139.3242   67.4087  228.2304 H   0  0  0  0  0  0  0  0  0  0  0  0
  140.4240   69.3813  229.1908 H   0  0  0  0  0  0  0  0  0  0  0  0
  141.0749   71.3039  227.7201 H   0  0  0  0  0  0  0  0  0  0  0  0
  140.2965   72.3994  225.5500 H   0  0  0  0  0  0  0  0  0  0  0  0
  141.7892   71.5084  225.0495 H   0  0  0  0  0  0  0  0  0  0  0  0
  143.4863   71.5892  217.8118 H   0  0  0  0  0  0  0  0  0  0  0  0
  143.6680   72.9316  218.9388 H   0  0  0  0  0  0  0  0  0  0  0  0
  145.8734   71.7445  218.6870 H   0  0  0  0  0  0  0  0  0  0  0  0
  145.2913   71.4680  220.3317 H   0  0  0  0  0  0  0  0  0  0  0  0
  147.0919   69.7588  218.4246 H   0  0  0  0  0  0  0  0  0  0  0  0
  147.0002   67.3019  217.9239 H   0  0  0  0  0  0  0  0  0  0  0  0
  144.8912   66.0334  218.2004 H   0  0  0  0  0  0  0  0  0  0  0  0
  142.8216   67.1835  218.9843 H   0  0  0  0  0  0  0  0  0  0  0  0
  141.7635   69.5856  218.8657 H   0  0  0  0  0  0  0  0  0  0  0  0
  142.2847   69.3443  220.5792 H   0  0  0  0  0  0  0  0  0  0  0  0
  139.1063   77.9835  221.4413 H   0  0  0  0  0  0  0  0  0  0  0  0
  141.9908   77.5995  220.5463 H   0  0  0  0  0  0  0  0  0  0  0  0
  140.5524   77.8847  219.5370 H   0  0  0  0  0  0  0  0  0  0  0  0
  141.7048   80.0195  219.7259 H   0  0  0  0  0  0  0  0  0  0  0  0
  140.2834   80.1429  220.7839 H   0  0  0  0  0  0  0  0  0  0  0  0
  143.1995   79.6435  221.5087 H   0  0  0  0  0  0  0  0  0  0  0  0
  142.0192   80.8490  222.1931 H   0  0  0  0  0  0  0  0  0  0  0  0
  142.5480   78.1750  223.0510 H   0  0  0  0  0  0  0  0  0  0  0  0
  140.4397   77.6909  223.7399 H   0  0  0  0  0  0  0  0  0  0  0  0
  139.8573   79.2652  222.9833 H   0  0  0  0  0  0  0  0  0  0  0  0
  1  2  2  0
  2  3  1  0
  3  4  1  0
  4  5  2  0
  5  6  1  0
  6  7  1  0
  7  8  1  0
  8  9  1  0
  9 10  1  0
 10 11  2  0
 11 12  1  0
 12 13  2  0
 13 14  1  0
 14 15  2  0
 15 16  1  0
  6 17  2  0
 17 18  1  0
 18 19  1  0
 19 20  1  0
 20 21  1  0
 21 22  1  0
 22 23  2  0
 23 24  1  0
 24 25  2  0
 25 26  1  0
 26 27  2  0
 27 28  1  0
 18 29  2  0
  2 30  1  0
 30 31  1  0
 31 32  1  0
 32 33  1  0
 33 34  1  0
 34 35  1  0
 29  4  1  0
 35 30  1  0
 16  7  1  0
 28 19  1  0
 15 10  1  0
 27 22  1  0
  3 36  1  0
  8 37  1  0
  8 38  1  0
  9 39  1  0
  9 40  1  0
 11 41  1  0
 12 42  1  0
 13 43  1  0
 14 44  1  0
 16 45  1  0
 16 46  1  0
 20 47  1  0
 20 48  1  0
 21 49  1  0
 21 50  1  0
 23 51  1  0
 24 52  1  0
 25 53  1  0
 26 54  1  0
 28 55  1  0
 28 56  1  0
 30 57  1  6
 31 58  1  0
 31 59  1  0
 32 60  1  0
 32 61  1  0
 33 62  1  0
 33 63  1  0
 34 64  1  0
 35 65  1  0
 35 66  1  0
M  END
>  <smiles>  (6) 
O=C(Nc1nc(N2CCc3ccccc3C2)nc(N2CCc3ccccc3C2)n1)C1CCCNC1

>  <score_type>  (6) 
oracle

>  <origin>  (6) 
autodockgpu

>  <m_score__min__energy>  (6) 
-10.140000000000001

>  <m_primary>  (6) 
energy

>  <rmsd>  (6) 
4.477459756498684

>  <m_score__min__rmsd>  (6) 
4.477459756498684

>  <meeko>  (6) 
{"free_energy": -10.06, "intermolecular_energy": -11.25, "internal_energy": -0.88, "cluster_size": 37, "cluster_id": 1, "rank_in_cluster": 17}

>  <energy>  (6) 
-10.12

>  <cluster_rmsd>  (6) 
0.19

>  <cluster>  (6) 
1

$$$$

     RDKit          3D

 66 71  0  0  1  0  0  0  0  0999 V2000
  139.2590   75.5890  222.4800 O   0  0  0  0  0  0  0  0  0  0  0  0
  140.2180   76.2120  221.9590 C   0  0  0  0  0  0  0  0  0  0  0  0
  141.3150   75.4360  221.5000 N   0  0  0  0  0  0  0  0  0  0  0  0
  141.3690   74.0180  221.6020 C   0  0  0  0  0  0  0  0  0  0  0  0
  140.7490   73.3800  222.6110 N   0  0  0  0  0  0  0  0  0  0  0  0
  140.8240   72.0180  222.6740 C   0  0  0  0  0  0  0  0  0  0  0  0
  140.1770   71.3300  223.7280 N   0  0  0  0  0  0  0  0  0  0  0  0
  139.0310   70.4910  223.4330 C   0  0  0  0  0  0  0  0  0  0  0  0
  139.3790   69.0850  223.9040 C   0  0  0  0  0  0  0  0  0  0  0  0
  139.6590   69.2060  225.3680 C   0  0  0  0  0  0  0  0  0  0  0  0
  139.2830   68.1310  226.1770 C   0  0  0  0  0  0  0  0  0  0  0  0
  139.5400   68.2370  227.5260 C   0  0  0  0  0  0  0  0  0  0  0  0
  140.1390   69.3470  228.0810 C   0  0  0  0  0  0  0  0  0  0  0  0
  140.5130   70.4150  227.2770 C   0  0  0  0  0  0  0  0  0  0  0  0
  140.2590   70.3160  225.9180 C   0  0  0  0  0  0  0  0  0  0  0  0
  140.6660   71.4700  225.0780 C   0  0  0  0  0  0  0  0  0  0  0  0
  141.5170   71.3410  221.7280 N   0  0  0  0  0  0  0  0  0  0  0  0
  142.1410   71.9700  220.7160 C   0  0  0  0  0  0  0  0  0  0  0  0
  142.8460   71.1790  219.7660 N   0  0  0  0  0  0  0  0  0  0  0  0
  143.7880   71.8340  218.8770 C   0  0  0  0  0  0  0  0  0  0  0  0
  145.1580   71.3030  219.3050 C   0  0  0  0  0  0  0  0  0  0  0  0
  145.1150   69.8290  219.0280 C   0  0  0  0  0  0  0  0  0  0  0  0
  146.2890   69.2340  218.6120 C   0  0  0  0  0  0  0  0  0  0  0  0
  146.2550   67.8610  218.3530 C   0  0  0  0  0  0  0  0  0  0  0  0
  145.0830   67.1280  218.5070 C   0  0  0  0  0  0  0  0  0  0  0  0
  143.9170   67.7440  218.9250 C   0  0  0  0  0  0  0  0  0  0  0  0
  143.9540   69.0980  219.1800 C   0  0  0  0  0  0  0  0  0  0  0  0
  142.6760   69.7520  219.6330 C   0  0  0  0  0  0  0  0  0  0  0  0
  142.0580   73.2970  220.6680 N   0  0  0  0  0  0  0  0  0  0  0  0
  140.2470   77.6930  221.8110 C   0  0  2  0  0  0  0  0  0  0  0  0
  141.2100   78.1240  220.7270 C   0  0  0  0  0  0  0  0  0  0  0  0
  141.3940   79.6220  220.8590 C   0  0  0  0  0  0  0  0  0  0  0  0
  142.2180   79.8530  222.1190 C   0  0  0  0  0  0  0  0  0  0  0  0
  141.8440   78.9770  223.1930 N   0  0  0  0  0  0  0  0  0  0  0  0
  140.5240   78.4260  223.0800 C   0  0  0  0  0  0  0  0  0  0  0  0
  142.1440   75.8960  221.0570 H   0  0  0  0  0  0  0  0  0  0  0  0
  138.1439   70.8605  223.9683 H   0  0  0  0  0  0  0  0  0  0  0  0
  138.8027   70.5005  222.3570 H   0  0  0  0  0  0  0  0  0  0  0  0
  138.5342   68.4023  223.7303 H   0  0  0  0  0  0  0  0  0  0  0  0
  140.2421   68.6761  223.3582 H   0  0  0  0  0  0  0  0  0  0  0  0
  138.8016   67.2369  225.7542 H   0  0  0  0  0  0  0  0  0  0  0  0
  139.2562   67.4037  228.1856 H   0  0  0  0  0  0  0  0  0  0  0  0
  140.3215   69.3869  229.1650 H   0  0  0  0  0  0  0  0  0  0  0  0
  140.9937   71.3079  227.7031 H   0  0  0  0  0  0  0  0  0  0  0  0
  140.2568   72.3933  225.5140 H   0  0  0  0  0  0  0  0  0  0  0  0
  141.7649   71.5092  225.0484 H   0  0  0  0  0  0  0  0  0  0  0  0
  143.5799   71.5712  217.8293 H   0  0  0  0  0  0  0  0  0  0  0  0
  143.7277   72.9305  218.9407 H   0  0  0  0  0  0  0  0  0  0  0  0
  145.9569   71.7819  218.7199 H   0  0  0  0  0  0  0  0  0  0  0  0
  145.3680   71.5156  220.3636 H   0  0  0  0  0  0  0  0  0  0  0  0
  147.2138   69.8168  218.4893 H   0  0  0  0  0  0  0  0  0  0  0  0
  147.1715   67.3510  218.0214 H   0  0  0  0  0  0  0  0  0  0  0  0
  145.0833   66.0487  218.2945 H   0  0  0  0  0  0  0  0  0  0  0  0
  142.9872   67.1698  219.0503 H   0  0  0  0  0  0  0  0  0  0  0  0
  141.8869   69.5508  218.8935 H   0  0  0  0  0  0  0  0  0  0  0  0
  142.3984   69.3385  220.6138 H   0  0  0  0  0  0  0  0  0  0  0  0
  139.2251   77.9710  221.5136 H   0  0  0  0  0  0  0  0  0  0  0  0
  142.1756   77.6131  220.8561 H   0  0  0  0  0  0  0  0  0  0  0  0
  140.8184   77.8654  219.7321 H   0  0  0  0  0  0  0  0  0  0  0  0
  141.9254   80.0174  219.9808 H   0  0  0  0  0  0  0  0  0  0  0  0
  140.4233   80.1356  220.9216 H   0  0  0  0  0  0  0  0  0  0  0  0
  143.2789   79.6857  221.8814 H   0  0  0  0  0  0  0  0  0  0  0  0
  142.0340   80.8851  222.4522 H   0  0  0  0  0  0  0  0  0  0  0  0
  142.5250   78.2300  223.3900 H   0  0  0  0  0  0  0  0  0  0  0  0
  140.3746   77.7269  223.9161 H   0  0  0  0  0  0  0  0  0  0  0  0
  139.8341   79.2826  223.0939 H   0  0  0  0  0  0  0  0  0  0  0  0
  1  2  2  0
  2  3  1  0
  3  4  1  0
  4  5  2  0
  5  6  1  0
  6  7  1  0
  7  8  1  0
  8  9  1  0
  9 10  1  0
 10 11  2  0
 11 12  1  0
 12 13  2  0
 13 14  1  0
 14 15  2  0
 15 16  1  0
  6 17  2  0
 17 18  1  0
 18 19  1  0
 19 20  1  0
 20 21  1  0
 21 22  1  0
 22 23  2  0
 23 24  1  0
 24 25  2  0
 25 26  1  0
 26 27  2  0
 27 28  1  0
 18 29  2  0
  2 30  1  0
 30 31  1  0
 31 32  1  0
 32 33  1  0
 33 34  1  0
 34 35  1  0
 29  4  1  0
 35 30  1  0
 16  7  1  0
 28 19  1  0
 15 10  1  0
 27 22  1  0
  3 36  1  0
  8 37  1  0
  8 38  1  0
  9 39  1  0
  9 40  1  0
 11 41  1  0
 12 42  1  0
 13 43  1  0
 14 44  1  0
 16 45  1  0
 16 46  1  0
 20 47  1  0
 20 48  1  0
 21 49  1  0
 21 50  1  0
 23 51  1  0
 24 52  1  0
 25 53  1  0
 26 54  1  0
 28 55  1  0
 28 56  1  0
 30 57  1  6
 31 58  1  0
 31 59  1  0
 32 60  1  0
 32 61  1  0
 33 62  1  0
 33 63  1  0
 34 64  1  0
 35 65  1  0
 35 66  1  0
M  END
>  <smiles>  (7) 
O=C(Nc1nc(N2CCc3ccccc3C2)nc(N2CCc3ccccc3C2)n1)C1CCCNC1

>  <score_type>  (7) 
oracle

>  <origin>  (7) 
autodockgpu

>  <m_score__min__energy>  (7) 
-10.140000000000001

>  <m_primary>  (7) 
energy

>  <rmsd>  (7) 
4.609977596488352

>  <m_score__min__rmsd>  (7) 
4.609977596488352

>  <meeko>  (7) 
{"free_energy": -10.1, "intermolecular_energy": -11.3, "internal_energy": -0.84, "cluster_size": 37, "cluster_id": 1, "rank_in_cluster": 11}

>  <energy>  (7) 
-10.11

>  <cluster_rmsd>  (7) 
0.2

>  <cluster>  (7) 
1

$$$$

     RDKit          3D

 66 71  0  0  1  0  0  0  0  0999 V2000
  144.2030   71.8210  220.4440 O   0  0  0  0  0  0  0  0  0  0  0  0
  143.5340   71.1600  219.6110 C   0  0  0  0  0  0  0  0  0  0  0  0
  142.1220   71.1850  219.7540 N   0  0  0  0  0  0  0  0  0  0  0  0
  141.4510   71.9110  220.7770 C   0  0  0  0  0  0  0  0  0  0  0  0
  141.0370   71.2920  221.8980 N   0  0  0  0  0  0  0  0  0  0  0  0
  140.3970   72.0230  222.8560 C   0  0  0  0  0  0  0  0  0  0  0  0
  139.9550   71.3890  224.0420 N   0  0  0  0  0  0  0  0  0  0  0  0
  138.7230   70.6230  224.0230 C   0  0  0  0  0  0  0  0  0  0  0  0
  139.0790   69.2020  224.4410 C   0  0  0  0  0  0  0  0  0  0  0  0
  139.6770   69.3200  225.8060 C   0  0  0  0  0  0  0  0  0  0  0  0
  139.4230   68.2800  226.7020 C   0  0  0  0  0  0  0  0  0  0  0  0
  139.9730   68.3830  227.9610 C   0  0  0  0  0  0  0  0  0  0  0  0
  140.7450   69.4570  228.3460 C   0  0  0  0  0  0  0  0  0  0  0  0
  140.9990   70.4900  227.4550 C   0  0  0  0  0  0  0  0  0  0  0  0
  140.4500   70.3940  226.1860 C   0  0  0  0  0  0  0  0  0  0  0  0
  140.7330   71.5110  225.2500 C   0  0  0  0  0  0  0  0  0  0  0  0
  140.1920   73.3470  222.6630 N   0  0  0  0  0  0  0  0  0  0  0  0
  140.6010   73.9760  221.5460 C   0  0  0  0  0  0  0  0  0  0  0  0
  140.3440   75.3700  221.4260 N   0  0  0  0  0  0  0  0  0  0  0  0
  138.9660   75.8240  221.4080 C   0  0  0  0  0  0  0  0  0  0  0  0
  138.7990   76.6080  222.7130 C   0  0  0  0  0  0  0  0  0  0  0  0
  139.7360   77.7730  222.5960 C   0  0  0  0  0  0  0  0  0  0  0  0
  139.3330   78.9620  223.1700 C   0  0  0  0  0  0  0  0  0  0  0  0
  140.2020   80.0510  223.0660 C   0  0  0  0  0  0  0  0  0  0  0  0
  141.4220   79.9390  222.4080 C   0  0  0  0  0  0  0  0  0  0  0  0
  141.8080   78.7380  221.8400 C   0  0  0  0  0  0  0  0  0  0  0  0
  140.9480   77.6650  221.9450 C   0  0  0  0  0  0  0  0  0  0  0  0
  141.3830   76.3660  221.3200 C   0  0  0  0  0  0  0  0  0  0  0  0
  141.2240   73.2490  220.6210 N   0  0  0  0  0  0  0  0  0  0  0  0
  144.1510   70.3720  218.5090 C   0  0  2  0  0  0  0  0  0  0  0  0
  143.9410   68.8870  218.7030 C   0  0  0  0  0  0  0  0  0  0  0  0
  144.8450   68.1730  217.7200 C   0  0  0  0  0  0  0  0  0  0  0  0
  146.2710   68.3550  218.2240 C   0  0  0  0  0  0  0  0  0  0  0  0
  146.5090   69.6700  218.7470 N   0  0  0  0  0  0  0  0  0  0  0  0
  145.5940   70.6720  218.2800 C   0  0  0  0  0  0  0  0  0  0  0  0
  141.5100   70.6550  219.0910 H   0  0  0  0  0  0  0  0  0  0  0  0
  137.9983   71.0546  224.7290 H   0  0  0  0  0  0  0  0  0  0  0  0
  138.2665   70.6364  223.0223 H   0  0  0  0  0  0  0  0  0  0  0  0
  138.1768   68.5734  224.4705 H   0  0  0  0  0  0  0  0  0  0  0  0
  139.7762   68.7325  223.7314 H   0  0  0  0  0  0  0  0  0  0  0  0
  138.8089   67.4138  226.4146 H   0  0  0  0  0  0  0  0  0  0  0  0
  139.7887   67.5769  228.6864 H   0  0  0  0  0  0  0  0  0  0  0  0
  141.1616   69.4959  229.3633 H   0  0  0  0  0  0  0  0  0  0  0  0
  141.6142   71.3544  227.7455 H   0  0  0  0  0  0  0  0  0  0  0  0
  140.4848   72.4630  225.7420 H   0  0  0  0  0  0  0  0  0  0  0  0
  141.7994   71.4793  224.9822 H   0  0  0  0  0  0  0  0  0  0  0  0
  138.7826   76.4731  220.5391 H   0  0  0  0  0  0  0  0  0  0  0  0
  138.2535   74.9897  221.3292 H   0  0  0  0  0  0  0  0  0  0  0  0
  137.7617   76.9571  222.8229 H   0  0  0  0  0  0  0  0  0  0  0  0
  139.0212   75.9893  223.5950 H   0  0  0  0  0  0  0  0  0  0  0  0
  138.3667   79.0485  223.6884 H   0  0  0  0  0  0  0  0  0  0  0  0
  139.9159   81.0146  223.5127 H   0  0  0  0  0  0  0  0  0  0  0  0
  142.0861   80.8132  222.3385 H   0  0  0  0  0  0  0  0  0  0  0  0
  142.7725   78.6418  221.3199 H   0  0  0  0  0  0  0  0  0  0  0  0
  141.6116   76.5363  220.2576 H   0  0  0  0  0  0  0  0  0  0  0  0
  142.2746   76.0016  221.8513 H   0  0  0  0  0  0  0  0  0  0  0  0
  143.6236   70.6923  217.5984 H   0  0  0  0  0  0  0  0  0  0  0  0
  144.2033   68.6009  219.7322 H   0  0  0  0  0  0  0  0  0  0  0  0
  142.8886   68.6166  218.5320 H   0  0  0  0  0  0  0  0  0  0  0  0
  144.5910   67.1035  217.6794 H   0  0  0  0  0  0  0  0  0  0  0  0
  144.7286   68.5830  216.7059 H   0  0  0  0  0  0  0  0  0  0  0  0
  146.4595   67.6199  219.0203 H   0  0  0  0  0  0  0  0  0  0  0  0
  146.9472   68.2098  217.3686 H   0  0  0  0  0  0  0  0  0  0  0  0
  146.5870   69.7120  219.7730 H   0  0  0  0  0  0  0  0  0  0  0  0
  145.8310   71.6151  218.7941 H   0  0  0  0  0  0  0  0  0  0  0  0
  145.7258   70.7204  217.1890 H   0  0  0  0  0  0  0  0  0  0  0  0
  1  2  2  0
  2  3  1  0
  3  4  1  0
  4  5  2  0
  5  6  1  0
  6  7  1  0
  7  8  1  0
  8  9  1  0
  9 10  1  0
 10 11  2  0
 11 12  1  0
 12 13  2  0
 13 14  1  0
 14 15  2  0
 15 16  1  0
  6 17  2  0
 17 18  1  0
 18 19  1  0
 19 20  1  0
 20 21  1  0
 21 22  1  0
 22 23  2  0
 23 24  1  0
 24 25  2  0
 25 26  1  0
 26 27  2  0
 27 28  1  0
 18 29  2  0
  2 30  1  0
 30 31  1  0
 31 32  1  0
 32 33  1  0
 33 34  1  0
 34 35  1  0
 29  4  1  0
 35 30  1  0
 16  7  1  0
 28 19  1  0
 15 10  1  0
 27 22  1  0
  3 36  1  0
  8 37  1  0
  8 38  1  0
  9 39  1  0
  9 40  1  0
 11 41  1  0
 12 42  1  0
 13 43  1  0
 14 44  1  0
 16 45  1  0
 16 46  1  0
 20 47  1  0
 20 48  1  0
 21 49  1  0
 21 50  1  0
 23 51  1  0
 24 52  1  0
 25 53  1  0
 26 54  1  0
 28 55  1  0
 28 56  1  0
 30 57  1  6
 31 58  1  0
 31 59  1  0
 32 60  1  0
 32 61  1  0
 33 62  1  0
 33 63  1  0
 34 64  1  0
 35 65  1  0
 35 66  1  0
M  END
>  <smiles>  (8) 
O=C(Nc1nc(N2CCc3ccccc3C2)nc(N2CCc3ccccc3C2)n1)C1CCCNC1

>  <score_type>  (8) 
oracle

>  <origin>  (8) 
autodockgpu

>  <m_score__min__energy>  (8) 
-10.140000000000001

>  <m_primary>  (8) 
energy

>  <rmsd>  (8) 
8.620569551118798

>  <m_score__min__rmsd>  (8) 
8.620569551118798

>  <meeko>  (8) 
{"free_energy": -9.66, "intermolecular_energy": -10.85, "internal_energy": -0.87, "cluster_size": 12, "cluster_id": 2, "rank_in_cluster": 12}

>  <energy>  (8) 
-10.11

>  <cluster_rmsd>  (8) 
0.21

>  <cluster>  (8) 
1

$$$$

     RDKit          3D

 66 71  0  0  1  0  0  0  0  0999 V2000
  144.4110   72.6470  220.2580 O   0  0  0  0  0  0  0  0  0  0  0  0
  143.9270   71.6710  219.6340 C   0  0  0  0  0  0  0  0  0  0  0  0
  142.5850   71.3160  219.9350 N   0  0  0  0  0  0  0  0  0  0  0  0
  141.7880   72.0060  220.8890 C   0  0  0  0  0  0  0  0  0  0  0  0
  141.3100   71.3680  221.9720 N   0  0  0  0  0  0  0  0  0  0  0  0
  140.5490   72.0660  222.8660 C   0  0  0  0  0  0  0  0  0  0  0  0
  140.0370   71.4100  224.0120 N   0  0  0  0  0  0  0  0  0  0  0  0
  138.8360   70.6040  223.8940 C   0  0  0  0  0  0  0  0  0  0  0  0
  139.2060   69.1930  224.3340 C   0  0  0  0  0  0  0  0  0  0  0  0
  139.6930   69.3230  225.7420 C   0  0  0  0  0  0  0  0  0  0  0  0
  139.4040   68.2700  226.6130 C   0  0  0  0  0  0  0  0  0  0  0  0
  139.8510   68.3840  227.9110 C   0  0  0  0  0  0  0  0  0  0  0  0
  140.5550   69.4810  228.3580 C   0  0  0  0  0  0  0  0  0  0  0  0
  140.8420   70.5270  227.4930 C   0  0  0  0  0  0  0  0  0  0  0  0
  140.3970   70.4200  226.1840 C   0  0  0  0  0  0  0  0  0  0  0  0
  140.7150   71.5510  225.2770 C   0  0  0  0  0  0  0  0  0  0  0  0
  140.2910   73.3760  222.6460 N   0  0  0  0  0  0  0  0  0  0  0  0
  140.7630   74.0240  221.5660 C   0  0  0  0  0  0  0  0  0  0  0  0
  140.4440   75.4010  221.4150 N   0  0  0  0  0  0  0  0  0  0  0  0
  139.0470   75.7980  221.4340 C   0  0  0  0  0  0  0  0  0  0  0  0
  138.8940   76.6140  222.7200 C   0  0  0  0  0  0  0  0  0  0  0  0
  139.7760   77.8130  222.5350 C   0  0  0  0  0  0  0  0  0  0  0  0
  139.3440   79.0010  223.0880 C   0  0  0  0  0  0  0  0  0  0  0  0
  140.1610   80.1220  222.9200 C   0  0  0  0  0  0  0  0  0  0  0  0
  141.3620   80.0390  222.2220 C   0  0  0  0  0  0  0  0  0  0  0  0
  141.7770   78.8380  221.6760 C   0  0  0  0  0  0  0  0  0  0  0  0
  140.9680   77.7350  221.8440 C   0  0  0  0  0  0  0  0  0  0  0  0
  141.4350   76.4360  221.2410 C   0  0  0  0  0  0  0  0  0  0  0  0
  141.5040   73.3300  220.7050 N   0  0  0  0  0  0  0  0  0  0  0  0
  144.6870   70.8900  218.6190 C   0  0  2  0  0  0  0  0  0  0  0  0
  143.8250   69.8280  217.9740 C   0  0  0  0  0  0  0  0  0  0  0  0
  144.7470   68.9100  217.1990 C   0  0  0  0  0  0  0  0  0  0  0  0
  145.5240   68.1000  218.2270 C   0  0  0  0  0  0  0  0  0  0  0  0
  145.9160   68.8810  219.3660 N   0  0  0  0  0  0  0  0  0  0  0  0
  145.9540   70.2960  219.1330 C   0  0  0  0  0  0  0  0  0  0  0  0
  142.1260   70.5120  219.4480 H   0  0  0  0  0  0  0  0  0  0  0  0
  138.0444   71.0073  224.5426 H   0  0  0  0  0  0  0  0  0  0  0  0
  138.4584   70.6083  222.8608 H   0  0  0  0  0  0  0  0  0  0  0  0
  138.3256   68.5348  224.2919 H   0  0  0  0  0  0  0  0  0  0  0  0
  139.9711   68.7509  223.6789 H   0  0  0  0  0  0  0  0  0  0  0  0
  138.8426   67.3860  226.2763 H   0  0  0  0  0  0  0  0  0  0  0  0
  139.6378   67.5683  228.6175 H   0  0  0  0  0  0  0  0  0  0  0  0
  140.8906   69.5275  229.4045 H   0  0  0  0  0  0  0  0  0  0  0  0
  141.4027   71.4100  227.8335 H   0  0  0  0  0  0  0  0  0  0  0  0
  140.3982   72.4916  225.7513 H   0  0  0  0  0  0  0  0  0  0  0  0
  141.7995   71.5562  225.0929 H   0  0  0  0  0  0  0  0  0  0  0  0
  138.8059   76.4120  220.5537 H   0  0  0  0  0  0  0  0  0  0  0  0
  138.3676   74.9334  221.4057 H   0  0  0  0  0  0  0  0  0  0  0  0
  137.8474   76.9231  222.8580 H   0  0  0  0  0  0  0  0  0  0  0  0
  139.1740   76.0323  223.6106 H   0  0  0  0  0  0  0  0  0  0  0  0
  138.3941   79.0631  223.6392 H   0  0  0  0  0  0  0  0  0  0  0  0
  139.8495   81.0868  223.3468 H   0  0  0  0  0  0  0  0  0  0  0  0
  141.9868   80.9365  222.1035 H   0  0  0  0  0  0  0  0  0  0  0  0
  142.7254   78.7652  221.1236 H   0  0  0  0  0  0  0  0  0  0  0  0
  141.6172   76.5829  220.1662 H   0  0  0  0  0  0  0  0  0  0  0  0
  142.3600   76.1255  221.7489 H   0  0  0  0  0  0  0  0  0  0  0  0
  144.9807   71.6244  217.8546 H   0  0  0  0  0  0  0  0  0  0  0  0
  143.2885   69.2579  218.7468 H   0  0  0  0  0  0  0  0  0  0  0  0
  143.0784   70.2840  217.3072 H   0  0  0  0  0  0  0  0  0  0  0  0
  144.1599   68.2400  216.5537 H   0  0  0  0  0  0  0  0  0  0  0  0
  145.4266   69.4854  216.5533 H   0  0  0  0  0  0  0  0  0  0  0  0
  144.8913   67.2686  218.5712 H   0  0  0  0  0  0  0  0  0  0  0  0
  146.4417   67.7382  217.7403 H   0  0  0  0  0  0  0  0  0  0  0  0
  145.3860   68.6770  220.2240 H   0  0  0  0  0  0  0  0  0  0  0  0
  146.2003   70.7908  220.0841 H   0  0  0  0  0  0  0  0  0  0  0  0
  146.7063   70.4552  218.3464 H   0  0  0  0  0  0  0  0  0  0  0  0
  1  2  2  0
  2  3  1  0
  3  4  1  0
  4  5  2  0
  5  6  1  0
  6  7  1  0
  7  8  1  0
  8  9  1  0
  9 10  1  0
 10 11  2  0
 11 12  1  0
 12 13  2  0
 13 14  1  0
 14 15  2  0
 15 16  1  0
  6 17  2  0
 17 18  1  0
 18 19  1  0
 19 20  1  0
 20 21  1  0
 21 22  1  0
 22 23  2  0
 23 24  1  0
 24 25  2  0
 25 26  1  0
 26 27  2  0
 27 28  1  0
 18 29  2  0
  2 30  1  0
 30 31  1  0
 31 32  1  0
 32 33  1  0
 33 34  1  0
 34 35  1  0
 29  4  1  0
 35 30  1  0
 16  7  1  0
 28 19  1  0
 15 10  1  0
 27 22  1  0
  3 36  1  0
  8 37  1  0
  8 38  1  0
  9 39  1  0
  9 40  1  0
 11 41  1  0
 12 42  1  0
 13 43  1  0
 14 44  1  0
 16 45  1  0
 16 46  1  0
 20 47  1  0
 20 48  1  0
 21 49  1  0
 21 50  1  0
 23 51  1  0
 24 52  1  0
 25 53  1  0
 26 54  1  0
 28 55  1  0
 28 56  1  0
 30 57  1  6
 31 58  1  0
 31 59  1  0
 32 60  1  0
 32 61  1  0
 33 62  1  0
 33 63  1  0
 34 64  1  0
 35 65  1  0
 35 66  1  0
M  END
>  <smiles>  (9) 
O=C(Nc1nc(N2CCc3ccccc3C2)nc(N2CCc3ccccc3C2)n1)C1CCCNC1

>  <score_type>  (9) 
oracle

>  <origin>  (9) 
autodockgpu

>  <m_score__min__energy>  (9) 
-10.140000000000001

>  <m_primary>  (9) 
energy

>  <rmsd>  (9) 
8.146089813974013

>  <m_score__min__rmsd>  (9) 
8.146089813974013

>  <meeko>  (9) 
{"free_energy": -9.73, "intermolecular_energy": -10.92, "internal_energy": -0.86, "cluster_size": 12, "cluster_id": 2, "rank_in_cluster": 11}

>  <energy>  (9) 
-10.11

>  <cluster_rmsd>  (9) 
0.18

>  <cluster>  (9) 
1

$$$$

     RDKit          3D

 66 71  0  0  1  0  0  0  0  0999 V2000
  139.3950   75.6360  222.7110 O   0  0  0  0  0  0  0  0  0  0  0  0
  140.2700   76.2410  222.0410 C   0  0  0  0  0  0  0  0  0  0  0  0
  141.2850   75.4480  221.4440 N   0  0  0  0  0  0  0  0  0  0  0  0
  141.3480   74.0320  221.5690 C   0  0  0  0  0  0  0  0  0  0  0  0
  140.7340   73.4060  222.5900 N   0  0  0  0  0  0  0  0  0  0  0  0
  140.8180   72.0460  222.6740 C   0  0  0  0  0  0  0  0  0  0  0  0
  140.1780   71.3700  223.7410 N   0  0  0  0  0  0  0  0  0  0  0  0
  139.0110   70.5530  223.4690 C   0  0  0  0  0  0  0  0  0  0  0  0
  139.3420   69.1410  223.9350 C   0  0  0  0  0  0  0  0  0  0  0  0
  139.6510   69.2580  225.3920 C   0  0  0  0  0  0  0  0  0  0  0  0
  139.2710   68.1910  226.2100 C   0  0  0  0  0  0  0  0  0  0  0  0
  139.5540   68.2930  227.5540 C   0  0  0  0  0  0  0  0  0  0  0  0
  140.1850   69.3910  228.0960 C   0  0  0  0  0  0  0  0  0  0  0  0
  140.5630   70.4520  227.2840 C   0  0  0  0  0  0  0  0  0  0  0  0
  140.2820   70.3570  225.9300 C   0  0  0  0  0  0  0  0  0  0  0  0
  140.6950   71.5020  225.0820 C   0  0  0  0  0  0  0  0  0  0  0  0
  141.5120   71.3580  221.7370 N   0  0  0  0  0  0  0  0  0  0  0  0
  142.1300   71.9750  220.7140 C   0  0  0  0  0  0  0  0  0  0  0  0
  142.8370   71.1730  219.7750 N   0  0  0  0  0  0  0  0  0  0  0  0
  143.7830   71.8180  218.8820 C   0  0  0  0  0  0  0  0  0  0  0  0
  145.1510   71.2890  219.3200 C   0  0  0  0  0  0  0  0  0  0  0  0
  145.1070   69.8120  219.0580 C   0  0  0  0  0  0  0  0  0  0  0  0
  146.2810   69.2110  218.6530 C   0  0  0  0  0  0  0  0  0  0  0  0
  146.2470   67.8360  218.4080 C   0  0  0  0  0  0  0  0  0  0  0  0
  145.0730   67.1060  218.5660 C   0  0  0  0  0  0  0  0  0  0  0  0
  143.9070   67.7280  218.9730 C   0  0  0  0  0  0  0  0  0  0  0  0
  143.9450   69.0840  219.2140 C   0  0  0  0  0  0  0  0  0  0  0  0
  142.6650   69.7450  219.6560 C   0  0  0  0  0  0  0  0  0  0  0  0
  142.0390   73.3000  220.6450 N   0  0  0  0  0  0  0  0  0  0  0  0
  140.2830   77.7180  221.8580 C   0  0  2  0  0  0  0  0  0  0  0  0
  141.1810   78.1280  220.7130 C   0  0  0  0  0  0  0  0  0  0  0  0
  141.3640   79.6290  220.7990 C   0  0  0  0  0  0  0  0  0  0  0  0
  142.2550   79.8930  222.0060 C   0  0  0  0  0  0  0  0  0  0  0  0
  141.9470   79.0410  223.1180 N   0  0  0  0  0  0  0  0  0  0  0  0
  140.6260   78.4810  223.0920 C   0  0  0  0  0  0  0  0  0  0  0  0
  142.0410   75.8930  220.8750 H   0  0  0  0  0  0  0  0  0  0  0  0
  138.1415   70.9395  224.0208 H   0  0  0  0  0  0  0  0  0  0  0  0
  138.7618   70.5661  222.3977 H   0  0  0  0  0  0  0  0  0  0  0  0
  138.4818   68.4737  223.7778 H   0  0  0  0  0  0  0  0  0  0  0  0
  140.1871   68.7159  223.3737 H   0  0  0  0  0  0  0  0  0  0  0  0
  138.7661   67.3052  225.7972 H   0  0  0  0  0  0  0  0  0  0  0  0
  139.2652   67.4664  228.2198 H   0  0  0  0  0  0  0  0  0  0  0  0
  140.3902   69.4274  229.1761 H   0  0  0  0  0  0  0  0  0  0  0  0
  141.0675   71.3364  227.7004 H   0  0  0  0  0  0  0  0  0  0  0  0
  140.3116   72.4332  225.5246 H   0  0  0  0  0  0  0  0  0  0  0  0
  141.7937   71.5207  225.0320 H   0  0  0  0  0  0  0  0  0  0  0  0
  143.5779   71.5450  217.8363 H   0  0  0  0  0  0  0  0  0  0  0  0
  143.7241   72.9152  218.9343 H   0  0  0  0  0  0  0  0  0  0  0  0
  145.9526   71.7608  218.7327 H   0  0  0  0  0  0  0  0  0  0  0  0
  145.3575   71.5119  220.3772 H   0  0  0  0  0  0  0  0  0  0  0  0
  147.2070   69.7914  218.5280 H   0  0  0  0  0  0  0  0  0  0  0  0
  147.1640   67.3217  218.0847 H   0  0  0  0  0  0  0  0  0  0  0  0
  145.0724   66.0245  218.3653 H   0  0  0  0  0  0  0  0  0  0  0  0
  142.9758   67.1566  219.1007 H   0  0  0  0  0  0  0  0  0  0  0  0
  141.8783   69.5375  218.9157 H   0  0  0  0  0  0  0  0  0  0  0  0
  142.3829   69.3419  220.6398 H   0  0  0  0  0  0  0  0  0  0  0  0
  139.2446   77.9847  221.6118 H   0  0  0  0  0  0  0  0  0  0  0  0
  142.1551   77.6245  220.7997 H   0  0  0  0  0  0  0  0  0  0  0  0
  140.7354   77.8448  219.7480 H   0  0  0  0  0  0  0  0  0  0  0  0
  141.8442   80.0054  219.8837 H   0  0  0  0  0  0  0  0  0  0  0  0
  140.3956   80.1403  220.9027 H   0  0  0  0  0  0  0  0  0  0  0  0
  143.3022   79.7256  221.7138 H   0  0  0  0  0  0  0  0  0  0  0  0
  142.0830   80.9315  222.3253 H   0  0  0  0  0  0  0  0  0  0  0  0
  142.6420   78.3020  223.2940 H   0  0  0  0  0  0  0  0  0  0  0  0
  140.5281   77.8006  223.9508 H   0  0  0  0  0  0  0  0  0  0  0  0
  139.9326   79.3343  223.1253 H   0  0  0  0  0  0  0  0  0  0  0  0
  1  2  2  0
  2  3  1  0
  3  4  1  0
  4  5  2  0
  5  6  1  0
  6  7  1  0
  7  8  1  0
  8  9  1  0
  9 10  1  0
 10 11  2  0
 11 12  1  0
 12 13  2  0
 13 14  1  0
 14 15  2  0
 15 16  1  0
  6 17  2  0
 17 18  1  0
 18 19  1  0
 19 20  1  0
 20 21  1  0
 21 22  1  0
 22 23  2  0
 23 24  1  0
 24 25  2  0
 25 26  1  0
 26 27  2  0
 27 28  1  0
 18 29  2  0
  2 30  1  0
 30 31  1  0
 31 32  1  0
 32 33  1  0
 33 34  1  0
 34 35  1  0
 29  4  1  0
 35 30  1  0
 16  7  1  0
 28 19  1  0
 15 10  1  0
 27 22  1  0
  3 36  1  0
  8 37  1  0
  8 38  1  0
  9 39  1  0
  9 40  1  0
 11 41  1  0
 12 42  1  0
 13 43  1  0
 14 44  1  0
 16 45  1  0
 16 46  1  0
 20 47  1  0
 20 48  1  0
 21 49  1  0
 21 50  1  0
 23 51  1  0
 24 52  1  0
 25 53  1  0
 26 54  1  0
 28 55  1  0
 28 56  1  0
 30 57  1  6
 31 58  1  0
 31 59  1  0
 32 60  1  0
 32 61  1  0
 33 62  1  0
 33 63  1  0
 34 64  1  0
 35 65  1  0
 35 66  1  0
M  END
>  <smiles>  (10) 
O=C(Nc1nc(N2CCc3ccccc3C2)nc(N2CCc3ccccc3C2)n1)C1CCCNC1

>  <score_type>  (10) 
oracle

>  <origin>  (10) 
autodockgpu

>  <m_score__min__energy>  (10) 
-10.140000000000001

>  <m_primary>  (10) 
energy

>  <rmsd>  (10) 
4.606875868667272

>  <m_score__min__rmsd>  (10) 
4.606875868667272

>  <meeko>  (10) 
{"free_energy": -10.11, "intermolecular_energy": -11.3, "internal_energy": -0.8, "cluster_size": 37, "cluster_id": 1, "rank_in_cluster": 7}

>  <energy>  (10) 
-10.1

>  <cluster_rmsd>  (10) 
0.19

>  <cluster>  (10) 
1

$$$$

     RDKit          3D

 66 71  0  0  1  0  0  0  0  0999 V2000
  139.2180   75.5710  222.3440 O   0  0  0  0  0  0  0  0  0  0  0  0
  140.2090   76.2200  221.9230 C   0  0  0  0  0  0  0  0  0  0  0  0
  141.3470   75.4690  221.5240 N   0  0  0  0  0  0  0  0  0  0  0  0
  141.4060   74.0490  221.5780 C   0  0  0  0  0  0  0  0  0  0  0  0
  142.1480   73.3610  220.6910 N   0  0  0  0  0  0  0  0  0  0  0  0
  142.1790   71.9990  220.7770 C   0  0  0  0  0  0  0  0  0  0  0  0
  142.9540   71.2570  219.8520 N   0  0  0  0  0  0  0  0  0  0  0  0
  143.9510   71.9400  219.0490 C   0  0  0  0  0  0  0  0  0  0  0  0
  145.2910   71.2840  219.3570 C   0  0  0  0  0  0  0  0  0  0  0  0
  145.1290   69.8440  218.9930 C   0  0  0  0  0  0  0  0  0  0  0  0
  146.2470   69.1930  218.4650 C   0  0  0  0  0  0  0  0  0  0  0  0
  146.1030   67.8640  218.1290 C   0  0  0  0  0  0  0  0  0  0  0  0
  144.9180   67.1830  218.2960 C   0  0  0  0  0  0  0  0  0  0  0  0
  143.8070   67.8290  218.8210 C   0  0  0  0  0  0  0  0  0  0  0  0
  143.9430   69.1650  219.1620 C   0  0  0  0  0  0  0  0  0  0  0  0
  142.7430   69.8360  219.7210 C   0  0  0  0  0  0  0  0  0  0  0  0
  141.4690   71.3710  221.7430 N   0  0  0  0  0  0  0  0  0  0  0  0
  140.7240   72.0500  222.6340 C   0  0  0  0  0  0  0  0  0  0  0  0
  140.0110   71.3100  223.6170 N   0  0  0  0  0  0  0  0  0  0  0  0
  138.8700   70.5160  223.1980 C   0  0  0  0  0  0  0  0  0  0  0  0
  139.3050   69.0660  223.4170 C   0  0  0  0  0  0  0  0  0  0  0  0
  139.5180   68.9350  224.8960 C   0  0  0  0  0  0  0  0  0  0  0  0
  139.1990   67.7220  225.4720 C   0  0  0  0  0  0  0  0  0  0  0  0
  139.3960   67.5950  226.8490 C   0  0  0  0  0  0  0  0  0  0  0  0
  139.8930   68.6500  227.6070 C   0  0  0  0  0  0  0  0  0  0  0  0
  140.2080   69.8580  227.0100 C   0  0  0  0  0  0  0  0  0  0  0  0
  140.0120   69.9800  225.6510 C   0  0  0  0  0  0  0  0  0  0  0  0
  140.3590   71.3020  225.0180 C   0  0  0  0  0  0  0  0  0  0  0  0
  140.7050   73.3770  222.5380 N   0  0  0  0  0  0  0  0  0  0  0  0
  140.2360   77.7050  221.8330 C   0  0  2  0  0  0  0  0  0  0  0  0
  141.0880   78.1770  220.6760 C   0  0  0  0  0  0  0  0  0  0  0  0
  141.2960   79.6670  220.8490 C   0  0  0  0  0  0  0  0  0  0  0  0
  142.2440   79.8430  222.0280 C   0  0  0  0  0  0  0  0  0  0  0  0
  141.9730   78.9260  223.0970 N   0  0  0  0  0  0  0  0  0  0  0  0
  140.6450   78.3840  223.0960 C   0  0  0  0  0  0  0  0  0  0  0  0
  142.2030   75.9520  221.1650 H   0  0  0  0  0  0  0  0  0  0  0  0
  143.7141   71.8331  217.9801 H   0  0  0  0  0  0  0  0  0  0  0  0
  143.9756   73.0148  219.2816 H   0  0  0  0  0  0  0  0  0  0  0  0
  146.0901   71.7438  218.7570 H   0  0  0  0  0  0  0  0  0  0  0  0
  145.5699   71.4068  220.4139 H   0  0  0  0  0  0  0  0  0  0  0  0
  147.2025   69.7193  218.3234 H   0  0  0  0  0  0  0  0  0  0  0  0
  146.9676   67.3271  217.7116 H   0  0  0  0  0  0  0  0  0  0  0  0
  144.8513   66.1223  218.0122 H   0  0  0  0  0  0  0  0  0  0  0  0
  142.8532   67.2993  218.9612 H   0  0  0  0  0  0  0  0  0  0  0  0
  141.8887   69.6603  219.0507 H   0  0  0  0  0  0  0  0  0  0  0  0
  142.5443   69.4196  220.7196 H   0  0  0  0  0  0  0  0  0  0  0  0
  137.9869   70.7527  223.8097 H   0  0  0  0  0  0  0  0  0  0  0  0
  138.5871   70.7125  222.1533 H   0  0  0  0  0  0  0  0  0  0  0  0
  138.5207   68.3732  223.0780 H   0  0  0  0  0  0  0  0  0  0  0  0
  140.2143   68.8206  222.8487 H   0  0  0  0  0  0  0  0  0  0  0  0
  138.8055   66.8890  224.8710 H   0  0  0  0  0  0  0  0  0  0  0  0
  139.1535   66.6427  227.3433 H   0  0  0  0  0  0  0  0  0  0  0  0
  140.0369   68.5230  228.6901 H   0  0  0  0  0  0  0  0  0  0  0  0
  140.6032   70.6963  227.6025 H   0  0  0  0  0  0  0  0  0  0  0  0
  139.8062   72.1029  225.5309 H   0  0  0  0  0  0  0  0  0  0  0  0
  141.4432   71.4624  225.1115 H   0  0  0  0  0  0  0  0  0  0  0  0
  139.1916   77.9988  221.6514 H   0  0  0  0  0  0  0  0  0  0  0  0
  142.0577   77.6578  220.6861 H   0  0  0  0  0  0  0  0  0  0  0  0
  140.5959   77.9611  219.7162 H   0  0  0  0  0  0  0  0  0  0  0  0
  141.7398   80.0960  219.9385 H   0  0  0  0  0  0  0  0  0  0  0  0
  140.3406   80.1814  221.0295 H   0  0  0  0  0  0  0  0  0  0  0  0
  143.2744   79.6815  221.6784 H   0  0  0  0  0  0  0  0  0  0  0  0
  142.1025   80.8612  222.4194 H   0  0  0  0  0  0  0  0  0  0  0  0
  142.6650   78.1690  223.1940 H   0  0  0  0  0  0  0  0  0  0  0  0
  140.5761   77.6514  223.9136 H   0  0  0  0  0  0  0  0  0  0  0  0
  139.9660   79.2412  223.2147 H   0  0  0  0  0  0  0  0  0  0  0  0
  1  2  2  0
  2  3  1  0
  3  4  1  0
  4  5  2  0
  5  6  1  0
  6  7  1  0
  7  8  1  0
  8  9  1  0
  9 10  1  0
 10 11  2  0
 11 12  1  0
 12 13  2  0
 13 14  1  0
 14 15  2  0
 15 16  1  0
  6 17  2  0
 17 18  1  0
 18 19  1  0
 19 20  1  0
 20 21  1  0
 21 22  1  0
 22 23  2  0
 23 24  1  0
 24 25  2  0
 25 26  1  0
 26 27  2  0
 27 28  1  0
 18 29  2  0
  2 30  1  0
 30 31  1  0
 31 32  1  0
 32 33  1  0
 33 34  1  0
 34 35  1  0
 29  4  1  0
 35 30  1  0
 16  7  1  0
 28 19  1  0
 15 10  1  0
 27 22  1  0
  3 36  1  0
  8 37  1  0
  8 38  1  0
  9 39  1  0
  9 40  1  0
 11 41  1  0
 12 42  1  0
 13 43  1  0
 14 44  1  0
 16 45  1  0
 16 46  1  0
 20 47  1  0
 20 48  1  0
 21 49  1  0
 21 50  1  0
 23 51  1  0
 24 52  1  0
 25 53  1  0
 26 54  1  0
 28 55  1  0
 28 56  1  0
 30 57  1  6
 31 58  1  0
 31 59  1  0
 32 60  1  0
 32 61  1  0
 33 62  1  0
 33 63  1  0
 34 64  1  0
 35 65  1  0
 35 66  1  0
M  END
>  <smiles>  (11) 
O=C(Nc1nc(N2CCc3ccccc3C2)nc(N2CCc3ccccc3C2)n1)C1CCCNC1

>  <score_type>  (11) 
oracle

>  <origin>  (11) 
autodockgpu

>  <m_score__min__energy>  (11) 
-10.140000000000001

>  <m_primary>  (11) 
energy

>  <rmsd>  (11) 
4.582142175261848

>  <m_score__min__rmsd>  (11) 
4.582142175261848

>  <meeko>  (11) 
{"free_energy": -10.02, "intermolecular_energy": -11.21, "internal_energy": -0.87, "cluster_size": 37, "cluster_id": 1, "rank_in_cluster": 21}

>  <energy>  (11) 
-10.1

>  <cluster_rmsd>  (11) 
0.24

>  <cluster>  (11) 
1

$$$$

     RDKit          3D

 66 71  0  0  1  0  0  0  0  0999 V2000
  138.9810   75.4850  221.5930 O   0  0  0  0  0  0  0  0  0  0  0  0
  140.0490   76.1410  221.5160 C   0  0  0  0  0  0  0  0  0  0  0  0
  141.2610   75.4010  221.5340 N   0  0  0  0  0  0  0  0  0  0  0  0
  141.3110   73.9820  221.6310 C   0  0  0  0  0  0  0  0  0  0  0  0
  140.7080   73.3440  222.6510 N   0  0  0  0  0  0  0  0  0  0  0  0
  140.7780   71.9820  222.7080 C   0  0  0  0  0  0  0  0  0  0  0  0
  140.1500   71.2920  223.7740 N   0  0  0  0  0  0  0  0  0  0  0  0
  138.9990   70.4530  223.4980 C   0  0  0  0  0  0  0  0  0  0  0  0
  139.3560   69.0470  223.9630 C   0  0  0  0  0  0  0  0  0  0  0  0
  139.6600   69.1690  225.4220 C   0  0  0  0  0  0  0  0  0  0  0  0
  139.2990   68.0940  226.2370 C   0  0  0  0  0  0  0  0  0  0  0  0
  139.5790   68.2000  227.5820 C   0  0  0  0  0  0  0  0  0  0  0  0
  140.1870   69.3100  228.1260 C   0  0  0  0  0  0  0  0  0  0  0  0
  140.5460   70.3780  227.3160 C   0  0  0  0  0  0  0  0  0  0  0  0
  140.2700   70.2790  225.9620 C   0  0  0  0  0  0  0  0  0  0  0  0
  140.6610   71.4330  225.1150 C   0  0  0  0  0  0  0  0  0  0  0  0
  141.4490   71.3040  221.7460 N   0  0  0  0  0  0  0  0  0  0  0  0
  142.0550   71.9330  220.7240 C   0  0  0  0  0  0  0  0  0  0  0  0
  142.7370   71.1420  219.7580 N   0  0  0  0  0  0  0  0  0  0  0  0
  143.7140   71.7840  218.8970 C   0  0  0  0  0  0  0  0  0  0  0  0
  145.0570   71.1850  219.3210 C   0  0  0  0  0  0  0  0  0  0  0  0
  144.9570   69.7220  219.0000 C   0  0  0  0  0  0  0  0  0  0  0  0
  146.1100   69.0920  218.5780 C   0  0  0  0  0  0  0  0  0  0  0  0
  146.0230   67.7300  218.2780 C   0  0  0  0  0  0  0  0  0  0  0  0
  144.8210   67.0410  218.4010 C   0  0  0  0  0  0  0  0  0  0  0  0
  143.6770   67.6920  218.8260 C   0  0  0  0  0  0  0  0  0  0  0  0
  143.7660   69.0350  219.1210 C   0  0  0  0  0  0  0  0  0  0  0  0
  142.5100   69.7280  219.5820 C   0  0  0  0  0  0  0  0  0  0  0  0
  141.9770   73.2610  220.6820 N   0  0  0  0  0  0  0  0  0  0  0  0
  140.0930   77.6250  221.4120 C   0  0  2  0  0  0  0  0  0  0  0  0
  140.9540   78.0770  220.2540 C   0  0  0  0  0  0  0  0  0  0  0  0
  141.1780   79.5660  220.4140 C   0  0  0  0  0  0  0  0  0  0  0  0
  142.1240   79.7420  221.5940 C   0  0  0  0  0  0  0  0  0  0  0  0
  141.8400   78.8380  222.6710 N   0  0  0  0  0  0  0  0  0  0  0  0
  140.5050   78.3110  222.6700 C   0  0  0  0  0  0  0  0  0  0  0  0
  142.1840   75.8890  221.4740 H   0  0  0  0  0  0  0  0  0  0  0  0
  138.1210   70.8221  224.0483 H   0  0  0  0  0  0  0  0  0  0  0  0
  138.7520   70.4629  222.4261 H   0  0  0  0  0  0  0  0  0  0  0  0
  138.5090   68.3635  223.8034 H   0  0  0  0  0  0  0  0  0  0  0  0
  140.2100   68.6384  223.4029 H   0  0  0  0  0  0  0  0  0  0  0  0
  138.8112   67.1995  225.8223 H   0  0  0  0  0  0  0  0  0  0  0  0
  139.3067   67.3667  228.2465 H   0  0  0  0  0  0  0  0  0  0  0  0
  140.3887   69.3499  229.2066 H   0  0  0  0  0  0  0  0  0  0  0  0
  141.0325   71.2716  227.7342 H   0  0  0  0  0  0  0  0  0  0  0  0
  140.2578   72.3558  225.5575 H   0  0  0  0  0  0  0  0  0  0  0  0
  141.7592   71.4737  225.0669 H   0  0  0  0  0  0  0  0  0  0  0  0
  143.5059   71.5610  217.8401 H   0  0  0  0  0  0  0  0  0  0  0  0
  143.6977   72.8797  218.9929 H   0  0  0  0  0  0  0  0  0  0  0  0
  145.8805   71.6478  218.7573 H   0  0  0  0  0  0  0  0  0  0  0  0
  145.2648   71.3577  220.3873 H   0  0  0  0  0  0  0  0  0  0  0  0
  147.0590   69.6398  218.4817 H   0  0  0  0  0  0  0  0  0  0  0  0
  146.9211   67.1932  217.9385 H   0  0  0  0  0  0  0  0  0  0  0  0
  144.7798   65.9689  218.1581 H   0  0  0  0  0  0  0  0  0  0  0  0
  142.7233   67.1529  218.9257 H   0  0  0  0  0  0  0  0  0  0  0  0
  141.7208   69.5808  218.8300 H   0  0  0  0  0  0  0  0  0  0  0  0
  142.2056   69.2981  220.5477 H   0  0  0  0  0  0  0  0  0  0  0  0
  139.0526   77.9285  221.2235 H   0  0  0  0  0  0  0  0  0  0  0  0
  141.9178   77.5472  220.2722 H   0  0  0  0  0  0  0  0  0  0  0  0
  140.4627   77.8579  219.2945 H   0  0  0  0  0  0  0  0  0  0  0  0
  141.6293   79.9817  219.5010 H   0  0  0  0  0  0  0  0  0  0  0  0
  140.2278   80.0927  220.5867 H   0  0  0  0  0  0  0  0  0  0  0  0
  143.1535   79.5659  221.2489 H   0  0  0  0  0  0  0  0  0  0  0  0
  141.9922   80.7652  221.9756 H   0  0  0  0  0  0  0  0  0  0  0  0
  142.5220   78.0740  222.7770 H   0  0  0  0  0  0  0  0  0  0  0  0
  140.4246   77.5869  223.4942 H   0  0  0  0  0  0  0  0  0  0  0  0
  139.8355   79.1770  222.7781 H   0  0  0  0  0  0  0  0  0  0  0  0
  1  2  2  0
  2  3  1  0
  3  4  1  0
  4  5  2  0
  5  6  1  0
  6  7  1  0
  7  8  1  0
  8  9  1  0
  9 10  1  0
 10 11  2  0
 11 12  1  0
 12 13  2  0
 13 14  1  0
 14 15  2  0
 15 16  1  0
  6 17  2  0
 17 18  1  0
 18 19  1  0
 19 20  1  0
 20 21  1  0
 21 22  1  0
 22 23  2  0
 23 24  1  0
 24 25  2  0
 25 26  1  0
 26 27  2  0
 27 28  1  0
 18 29  2  0
  2 30  1  0
 30 31  1  0
 31 32  1  0
 32 33  1  0
 33 34  1  0
 34 35  1  0
 29  4  1  0
 35 30  1  0
 16  7  1  0
 28 19  1  0
 15 10  1  0
 27 22  1  0
  3 36  1  0
  8 37  1  0
  8 38  1  0
  9 39  1  0
  9 40  1  0
 11 41  1  0
 12 42  1  0
 13 43  1  0
 14 44  1  0
 16 45  1  0
 16 46  1  0
 20 47  1  0
 20 48  1  0
 21 49  1  0
 21 50  1  0
 23 51  1  0
 24 52  1  0
 25 53  1  0
 26 54  1  0
 28 55  1  0
 28 56  1  0
 30 57  1  6
 31 58  1  0
 31 59  1  0
 32 60  1  0
 32 61  1  0
 33 62  1  0
 33 63  1  0
 34 64  1  0
 35 65  1  0
 35 66  1  0
M  END
>  <smiles>  (12) 
O=C(Nc1nc(N2CCc3ccccc3C2)nc(N2CCc3ccccc3C2)n1)C1CCCNC1

>  <score_type>  (12) 
oracle

>  <origin>  (12) 
autodockgpu

>  <m_score__min__energy>  (12) 
-10.140000000000001

>  <m_primary>  (12) 
energy

>  <rmsd>  (12) 
4.349282803885361

>  <m_score__min__rmsd>  (12) 
4.349282803885361

>  <meeko>  (12) 
{"free_energy": -9.89, "intermolecular_energy": -11.08, "internal_energy": -0.92, "cluster_size": 37, "cluster_id": 1, "rank_in_cluster": 33}

>  <energy>  (12) 
-10.09

>  <cluster_rmsd>  (12) 
0.23

>  <cluster>  (12) 
1

$$$$

     RDKit          3D

 66 71  0  0  1  0  0  0  0  0999 V2000
  139.1080   75.5760  222.0350 O   0  0  0  0  0  0  0  0  0  0  0  0
  140.1350   76.2300  221.7230 C   0  0  0  0  0  0  0  0  0  0  0  0
  141.3160   75.4870  221.4600 N   0  0  0  0  0  0  0  0  0  0  0  0
  141.3810   74.0680  221.5330 C   0  0  0  0  0  0  0  0  0  0  0  0
  142.1110   73.3690  220.6450 N   0  0  0  0  0  0  0  0  0  0  0  0
  142.1480   72.0080  220.7480 C   0  0  0  0  0  0  0  0  0  0  0  0
  142.9110   71.2560  219.8220 N   0  0  0  0  0  0  0  0  0  0  0  0
  143.9050   71.9280  219.0070 C   0  0  0  0  0  0  0  0  0  0  0  0
  145.2440   71.2670  219.3080 C   0  0  0  0  0  0  0  0  0  0  0  0
  145.0710   69.8250  218.9560 C   0  0  0  0  0  0  0  0  0  0  0  0
  146.1810   69.1640  218.4240 C   0  0  0  0  0  0  0  0  0  0  0  0
  146.0280   67.8340  218.0980 C   0  0  0  0  0  0  0  0  0  0  0  0
  144.8400   67.1600  218.2790 C   0  0  0  0  0  0  0  0  0  0  0  0
  143.7370   67.8160  218.8080 C   0  0  0  0  0  0  0  0  0  0  0  0
  143.8830   69.1540  219.1400 C   0  0  0  0  0  0  0  0  0  0  0  0
  142.6910   69.8360  219.7030 C   0  0  0  0  0  0  0  0  0  0  0  0
  141.4540   71.3920  221.7340 N   0  0  0  0  0  0  0  0  0  0  0  0
  140.7200   72.0810  222.6260 C   0  0  0  0  0  0  0  0  0  0  0  0
  140.0240   71.3530  223.6300 N   0  0  0  0  0  0  0  0  0  0  0  0
  138.8730   70.5580  223.2410 C   0  0  0  0  0  0  0  0  0  0  0  0
  139.3090   69.1090  223.4660 C   0  0  0  0  0  0  0  0  0  0  0  0
  139.5490   68.9930  224.9420 C   0  0  0  0  0  0  0  0  0  0  0  0
  139.2380   67.7860  225.5360 C   0  0  0  0  0  0  0  0  0  0  0  0
  139.4600   67.6720  226.9100 C   0  0  0  0  0  0  0  0  0  0  0  0
  139.9740   68.7330  227.6470 C   0  0  0  0  0  0  0  0  0  0  0  0
  140.2810   69.9340  227.0330 C   0  0  0  0  0  0  0  0  0  0  0  0
  140.0600   70.0430  225.6760 C   0  0  0  0  0  0  0  0  0  0  0  0
  140.3980   71.3580  225.0240 C   0  0  0  0  0  0  0  0  0  0  0  0
  140.6950   73.4070  222.5120 N   0  0  0  0  0  0  0  0  0  0  0  0
  140.1590   77.7150  221.6230 C   0  0  2  0  0  0  0  0  0  0  0  0
  141.0280   78.1810  220.4760 C   0  0  0  0  0  0  0  0  0  0  0  0
  141.2300   79.6730  220.6430 C   0  0  0  0  0  0  0  0  0  0  0  0
  142.1600   79.8580  221.8340 C   0  0  0  0  0  0  0  0  0  0  0  0
  141.8750   78.9470  222.9050 N   0  0  0  0  0  0  0  0  0  0  0  0
  140.5480   78.4030  222.8880 C   0  0  0  0  0  0  0  0  0  0  0  0
  142.2030   75.9740  221.1960 H   0  0  0  0  0  0  0  0  0  0  0  0
  143.6588   71.8156  217.9408 H   0  0  0  0  0  0  0  0  0  0  0  0
  143.9374   73.0041  219.2329 H   0  0  0  0  0  0  0  0  0  0  0  0
  146.0402   71.7180  218.6976 H   0  0  0  0  0  0  0  0  0  0  0  0
  145.5329   71.3960  220.3615 H   0  0  0  0  0  0  0  0  0  0  0  0
  147.1382   69.6842  218.2716 H   0  0  0  0  0  0  0  0  0  0  0  0
  146.8865   67.2899  217.6775 H   0  0  0  0  0  0  0  0  0  0  0  0
  144.7653   66.0978  218.0032 H   0  0  0  0  0  0  0  0  0  0  0  0
  142.7811   67.2928  218.9584 H   0  0  0  0  0  0  0  0  0  0  0  0
  141.8307   69.6604  219.0404 H   0  0  0  0  0  0  0  0  0  0  0  0
  142.4973   69.4280  220.7060 H   0  0  0  0  0  0  0  0  0  0  0  0
  138.0026   70.8030  223.8673 H   0  0  0  0  0  0  0  0  0  0  0  0
  138.5702   70.7450  222.2002 H   0  0  0  0  0  0  0  0  0  0  0  0
  138.5172   68.4146  223.1486 H   0  0  0  0  0  0  0  0  0  0  0  0
  140.2068   68.8555  222.8832 H   0  0  0  0  0  0  0  0  0  0  0  0
  138.8318   66.9480  224.9506 H   0  0  0  0  0  0  0  0  0  0  0  0
  139.2239   66.7256  227.4185 H   0  0  0  0  0  0  0  0  0  0  0  0
  140.1381   68.6163  228.7284 H   0  0  0  0  0  0  0  0  0  0  0  0
  140.6892   70.7769  227.6099 H   0  0  0  0  0  0  0  0  0  0  0  0
  139.8566   72.1651  225.5392 H   0  0  0  0  0  0  0  0  0  0  0  0
  141.4841   71.5170  225.0959 H   0  0  0  0  0  0  0  0  0  0  0  0
  139.1170   78.0054  221.4233 H   0  0  0  0  0  0  0  0  0  0  0  0
  141.9985   77.6640  220.5045 H   0  0  0  0  0  0  0  0  0  0  0  0
  140.5516   77.9576  219.5100 H   0  0  0  0  0  0  0  0  0  0  0  0
  141.6859   80.0976  219.7365 H   0  0  0  0  0  0  0  0  0  0  0  0
  140.2709   80.1862  220.8065 H   0  0  0  0  0  0  0  0  0  0  0  0
  143.1956   79.6962  221.5004 H   0  0  0  0  0  0  0  0  0  0  0  0
  142.0110   80.8784  222.2169 H   0  0  0  0  0  0  0  0  0  0  0  0
  142.5670   78.1930  223.0180 H   0  0  0  0  0  0  0  0  0  0  0  0
  140.4680   77.6756  223.7093 H   0  0  0  0  0  0  0  0  0  0  0  0
  139.8659   79.2598  222.9913 H   0  0  0  0  0  0  0  0  0  0  0  0
  1  2  2  0
  2  3  1  0
  3  4  1  0
  4  5  2  0
  5  6  1  0
  6  7  1  0
  7  8  1  0
  8  9  1  0
  9 10  1  0
 10 11  2  0
 11 12  1  0
 12 13  2  0
 13 14  1  0
 14 15  2  0
 15 16  1  0
  6 17  2  0
 17 18  1  0
 18 19  1  0
 19 20  1  0
 20 21  1  0
 21 22  1  0
 22 23  2  0
 23 24  1  0
 24 25  2  0
 25 26  1  0
 26 27  2  0
 27 28  1  0
 18 29  2  0
  2 30  1  0
 30 31  1  0
 31 32  1  0
 32 33  1  0
 33 34  1  0
 34 35  1  0
 29  4  1  0
 35 30  1  0
 16  7  1  0
 28 19  1  0
 15 10  1  0
 27 22  1  0
  3 36  1  0
  8 37  1  0
  8 38  1  0
  9 39  1  0
  9 40  1  0
 11 41  1  0
 12 42  1  0
 13 43  1  0
 14 44  1  0
 16 45  1  0
 16 46  1  0
 20 47  1  0
 20 48  1  0
 21 49  1  0
 21 50  1  0
 23 51  1  0
 24 52  1  0
 25 53  1  0
 26 54  1  0
 28 55  1  0
 28 56  1  0
 30 57  1  6
 31 58  1  0
 31 59  1  0
 32 60  1  0
 32 61  1  0
 33 62  1  0
 33 63  1  0
 34 64  1  0
 35 65  1  0
 35 66  1  0
M  END
>  <smiles>  (13) 
O=C(Nc1nc(N2CCc3ccccc3C2)nc(N2CCc3ccccc3C2)n1)C1CCCNC1

>  <score_type>  (13) 
oracle

>  <origin>  (13) 
autodockgpu

>  <m_score__min__energy>  (13) 
-10.140000000000001

>  <m_primary>  (13) 
energy

>  <rmsd>  (13) 
4.483945464012527

>  <m_score__min__rmsd>  (13) 
4.483945464012527

>  <meeko>  (13) 
{"free_energy": -9.94, "intermolecular_energy": -11.13, "internal_energy": -0.9, "cluster_size": 37, "cluster_id": 1, "rank_in_cluster": 30}

>  <energy>  (13) 
-10.09

>  <cluster_rmsd>  (13) 
0.22

>  <cluster>  (13) 
1

$$$$

     RDKit          3D

 66 71  0  0  1  0  0  0  0  0999 V2000
  139.1630   75.5950  222.2220 O   0  0  0  0  0  0  0  0  0  0  0  0
  140.1760   76.2400  221.8520 C   0  0  0  0  0  0  0  0  0  0  0  0
  141.3300   75.4850  221.5130 N   0  0  0  0  0  0  0  0  0  0  0  0
  141.3820   74.0650  221.5740 C   0  0  0  0  0  0  0  0  0  0  0  0
  142.1140   73.3680  220.6860 N   0  0  0  0  0  0  0  0  0  0  0  0
  142.1390   72.0060  220.7780 C   0  0  0  0  0  0  0  0  0  0  0  0
  142.9040   71.2560  219.8510 N   0  0  0  0  0  0  0  0  0  0  0  0
  143.8850   71.9330  219.0250 C   0  0  0  0  0  0  0  0  0  0  0  0
  145.2330   71.2890  219.3210 C   0  0  0  0  0  0  0  0  0  0  0  0
  145.0740   69.8420  218.9790 C   0  0  0  0  0  0  0  0  0  0  0  0
  146.1860   69.1900  218.4440 C   0  0  0  0  0  0  0  0  0  0  0  0
  146.0460   67.8560  218.1280 C   0  0  0  0  0  0  0  0  0  0  0  0
  144.8660   67.1710  218.3220 C   0  0  0  0  0  0  0  0  0  0  0  0
  143.7600   67.8180  218.8550 C   0  0  0  0  0  0  0  0  0  0  0  0
  143.8940   69.1600  219.1760 C   0  0  0  0  0  0  0  0  0  0  0  0
  142.6990   69.8320  219.7430 C   0  0  0  0  0  0  0  0  0  0  0  0
  141.4330   71.3870  221.7520 N   0  0  0  0  0  0  0  0  0  0  0  0
  140.6970   72.0750  222.6450 C   0  0  0  0  0  0  0  0  0  0  0  0
  139.9860   71.3430  223.6360 N   0  0  0  0  0  0  0  0  0  0  0  0
  138.8490   70.5390  223.2260 C   0  0  0  0  0  0  0  0  0  0  0  0
  139.2910   69.0930  223.4630 C   0  0  0  0  0  0  0  0  0  0  0  0
  139.5040   68.9820  224.9440 C   0  0  0  0  0  0  0  0  0  0  0  0
  139.1890   67.7750  225.5340 C   0  0  0  0  0  0  0  0  0  0  0  0
  139.3860   67.6650  226.9130 C   0  0  0  0  0  0  0  0  0  0  0  0
  139.8770   68.7320  227.6570 C   0  0  0  0  0  0  0  0  0  0  0  0
  140.1870   69.9330  227.0460 C   0  0  0  0  0  0  0  0  0  0  0  0
  139.9920   70.0380  225.6860 C   0  0  0  0  0  0  0  0  0  0  0  0
  140.3330   71.3540  225.0370 C   0  0  0  0  0  0  0  0  0  0  0  0
  140.6840   73.4010  222.5420 N   0  0  0  0  0  0  0  0  0  0  0  0
  140.2110   77.7250  221.7590 C   0  0  2  0  0  0  0  0  0  0  0  0
  141.1040   78.1900  220.6310 C   0  0  0  0  0  0  0  0  0  0  0  0
  141.3120   79.6800  220.8080 C   0  0  0  0  0  0  0  0  0  0  0  0
  142.2210   79.8550  222.0180 C   0  0  0  0  0  0  0  0  0  0  0  0
  141.9100   78.9410  223.0800 N   0  0  0  0  0  0  0  0  0  0  0  0
  140.5790   78.4050  223.0340 C   0  0  0  0  0  0  0  0  0  0  0  0
  142.2050   75.9640  221.1980 H   0  0  0  0  0  0  0  0  0  0  0  0
  143.6328   71.8107  217.9613 H   0  0  0  0  0  0  0  0  0  0  0  0
  143.9072   73.0108  219.2437 H   0  0  0  0  0  0  0  0  0  0  0  0
  146.0200   71.7451  218.7024 H   0  0  0  0  0  0  0  0  0  0  0  0
  145.5273   71.4279  220.3718 H   0  0  0  0  0  0  0  0  0  0  0  0
  147.1362   69.7198  218.2811 H   0  0  0  0  0  0  0  0  0  0  0  0
  146.9076   67.3183  217.7055 H   0  0  0  0  0  0  0  0  0  0  0  0
  144.8005   66.1064  218.0531 H   0  0  0  0  0  0  0  0  0  0  0  0
  142.8113   67.2853  219.0169 H   0  0  0  0  0  0  0  0  0  0  0  0
  141.8359   69.6423  219.0879 H   0  0  0  0  0  0  0  0  0  0  0  0
  142.5173   69.4286  220.7501 H   0  0  0  0  0  0  0  0  0  0  0  0
  137.9645   70.7790  223.8343 H   0  0  0  0  0  0  0  0  0  0  0  0
  138.5657   70.7216  222.1789 H   0  0  0  0  0  0  0  0  0  0  0  0
  138.5102   68.3923  223.1324 H   0  0  0  0  0  0  0  0  0  0  0  0
  140.2015   68.8445  222.8979 H   0  0  0  0  0  0  0  0  0  0  0  0
  138.7986   66.9336  224.9427 H   0  0  0  0  0  0  0  0  0  0  0  0
  139.1484   66.7175  227.4188 H   0  0  0  0  0  0  0  0  0  0  0  0
  140.0202   68.6197  228.7418 H   0  0  0  0  0  0  0  0  0  0  0  0
  140.5780   70.7801  227.6287 H   0  0  0  0  0  0  0  0  0  0  0  0
  139.7759   72.1584  225.5396 H   0  0  0  0  0  0  0  0  0  0  0  0
  141.4163   71.5209  225.1293 H   0  0  0  0  0  0  0  0  0  0  0  0
  139.1749   78.0231  221.5407 H   0  0  0  0  0  0  0  0  0  0  0  0
  142.0706   77.6668  220.6756 H   0  0  0  0  0  0  0  0  0  0  0  0
  140.6446   77.9735  219.6553 H   0  0  0  0  0  0  0  0  0  0  0  0
  141.7876   80.1054  219.9120 H   0  0  0  0  0  0  0  0  0  0  0  0
  140.3531   80.1984  220.9555 H   0  0  0  0  0  0  0  0  0  0  0  0
  143.2618   79.6884  221.7035 H   0  0  0  0  0  0  0  0  0  0  0  0
  142.0710   80.8748  222.4021 H   0  0  0  0  0  0  0  0  0  0  0  0
  142.5940   78.1820  223.2020 H   0  0  0  0  0  0  0  0  0  0  0  0
  140.4781   77.6747  223.8504 H   0  0  0  0  0  0  0  0  0  0  0  0
  139.9004   79.2657  223.1272 H   0  0  0  0  0  0  0  0  0  0  0  0
  1  2  2  0
  2  3  1  0
  3  4  1  0
  4  5  2  0
  5  6  1  0
  6  7  1  0
  7  8  1  0
  8  9  1  0
  9 10  1  0
 10 11  2  0
 11 12  1  0
 12 13  2  0
 13 14  1  0
 14 15  2  0
 15 16  1  0
  6 17  2  0
 17 18  1  0
 18 19  1  0
 19 20  1  0
 20 21  1  0
 21 22  1  0
 22 23  2  0
 23 24  1  0
 24 25  2  0
 25 26  1  0
 26 27  2  0
 27 28  1  0
 18 29  2  0
  2 30  1  0
 30 31  1  0
 31 32  1  0
 32 33  1  0
 33 34  1  0
 34 35  1  0
 29  4  1  0
 35 30  1  0
 16  7  1  0
 28 19  1  0
 15 10  1  0
 27 22  1  0
  3 36  1  0
  8 37  1  0
  8 38  1  0
  9 39  1  0
  9 40  1  0
 11 41  1  0
 12 42  1  0
 13 43  1  0
 14 44  1  0
 16 45  1  0
 16 46  1  0
 20 47  1  0
 20 48  1  0
 21 49  1  0
 21 50  1  0
 23 51  1  0
 24 52  1  0
 25 53  1  0
 26 54  1  0
 28 55  1  0
 28 56  1  0
 30 57  1  6
 31 58  1  0
 31 59  1  0
 32 60  1  0
 32 61  1  0
 33 62  1  0
 33 63  1  0
 34 64  1  0
 35 65  1  0
 35 66  1  0
M  END
>  <smiles>  (14) 
O=C(Nc1nc(N2CCc3ccccc3C2)nc(N2CCc3ccccc3C2)n1)C1CCCNC1

>  <score_type>  (14) 
oracle

>  <origin>  (14) 
autodockgpu

>  <m_score__min__energy>  (14) 
-10.140000000000001

>  <m_primary>  (14) 
energy

>  <rmsd>  (14) 
4.566910329239572

>  <m_score__min__rmsd>  (14) 
4.566910329239572

>  <meeko>  (14) 
{"free_energy": -10.0, "intermolecular_energy": -11.19, "internal_energy": -0.88, "cluster_size": 37, "cluster_id": 1, "rank_in_cluster": 24}

>  <energy>  (14) 
-10.08

>  <cluster_rmsd>  (14) 
0.19

>  <cluster>  (14) 
1

$$$$

     RDKit          3D

 66 71  0  0  1  0  0  0  0  0999 V2000
  139.1400   75.6060  222.2380 O   0  0  0  0  0  0  0  0  0  0  0  0
  140.1440   76.2610  221.8610 C   0  0  0  0  0  0  0  0  0  0  0  0
  141.3030   75.5180  221.5140 N   0  0  0  0  0  0  0  0  0  0  0  0
  141.3700   74.0980  221.5720 C   0  0  0  0  0  0  0  0  0  0  0  0
  142.1060   73.4100  220.6810 N   0  0  0  0  0  0  0  0  0  0  0  0
  142.1450   72.0490  220.7700 C   0  0  0  0  0  0  0  0  0  0  0  0
  142.9150   71.3080  219.8400 N   0  0  0  0  0  0  0  0  0  0  0  0
  143.8930   71.9950  219.0180 C   0  0  0  0  0  0  0  0  0  0  0  0
  145.2440   71.3570  219.3110 C   0  0  0  0  0  0  0  0  0  0  0  0
  145.0940   69.9110  218.9620 C   0  0  0  0  0  0  0  0  0  0  0  0
  146.2100   69.2690  218.4240 C   0  0  0  0  0  0  0  0  0  0  0  0
  146.0780   67.9360  218.1020 C   0  0  0  0  0  0  0  0  0  0  0  0
  144.9030   67.2420  218.2920 C   0  0  0  0  0  0  0  0  0  0  0  0
  143.7920   67.8800  218.8270 C   0  0  0  0  0  0  0  0  0  0  0  0
  143.9180   69.2210  219.1550 C   0  0  0  0  0  0  0  0  0  0  0  0
  142.7190   69.8840  219.7250 C   0  0  0  0  0  0  0  0  0  0  0  0
  141.4480   71.4210  221.7460 N   0  0  0  0  0  0  0  0  0  0  0  0
  140.7080   72.0990  222.6410 C   0  0  0  0  0  0  0  0  0  0  0  0
  140.0070   71.3590  223.6330 N   0  0  0  0  0  0  0  0  0  0  0  0
  138.8660   70.5590  223.2280 C   0  0  0  0  0  0  0  0  0  0  0  0
  139.3100   69.1110  223.4470 C   0  0  0  0  0  0  0  0  0  0  0  0
  139.5380   68.9860  224.9250 C   0  0  0  0  0  0  0  0  0  0  0  0
  139.2300   67.7740  225.5080 C   0  0  0  0  0  0  0  0  0  0  0  0
  139.4400   67.6520  226.8830 C   0  0  0  0  0  0  0  0  0  0  0  0
  139.9400   68.7120  227.6320 C   0  0  0  0  0  0  0  0  0  0  0  0
  140.2430   69.9190  227.0290 C   0  0  0  0  0  0  0  0  0  0  0  0
  140.0340   70.0360  225.6710 C   0  0  0  0  0  0  0  0  0  0  0  0
  140.3680   71.3580  225.0310 C   0  0  0  0  0  0  0  0  0  0  0  0
  140.6810   73.4260  222.5410 N   0  0  0  0  0  0  0  0  0  0  0  0
  140.1640   77.7460  221.7710 C   0  0  2  0  0  0  0  0  0  0  0  0
  141.0120   78.2210  220.6130 C   0  0  0  0  0  0  0  0  0  0  0  0
  141.2150   79.7130  220.7850 C   0  0  0  0  0  0  0  0  0  0  0  0
  142.1640   79.8920  221.9630 C   0  0  0  0  0  0  0  0  0  0  0  0
  141.8980   78.9740  223.0330 N   0  0  0  0  0  0  0  0  0  0  0  0
  140.5720   78.4270  223.0330 C   0  0  0  0  0  0  0  0  0  0  0  0
  142.1710   76.0060  221.1930 H   0  0  0  0  0  0  0  0  0  0  0  0
  143.6420   71.8772  217.9535 H   0  0  0  0  0  0  0  0  0  0  0  0
  143.9092   73.0717  219.2427 H   0  0  0  0  0  0  0  0  0  0  0  0
  146.0286   71.8206  218.6950 H   0  0  0  0  0  0  0  0  0  0  0  0
  145.5367   71.4921  220.3627 H   0  0  0  0  0  0  0  0  0  0  0  0
  147.1568   69.8055  218.2635 H   0  0  0  0  0  0  0  0  0  0  0  0
  146.9432   67.4058  217.6773 H   0  0  0  0  0  0  0  0  0  0  0  0
  144.8449   66.1781  218.0187 H   0  0  0  0  0  0  0  0  0  0  0  0
  142.8462   67.3410  218.9849 H   0  0  0  0  0  0  0  0  0  0  0  0
  141.8572   69.6924  219.0689 H   0  0  0  0  0  0  0  0  0  0  0  0
  142.5400   69.4750  220.7303 H   0  0  0  0  0  0  0  0  0  0  0  0
  137.9881   70.7936  223.8478 H   0  0  0  0  0  0  0  0  0  0  0  0
  138.5717   70.7511  222.1856 H   0  0  0  0  0  0  0  0  0  0  0  0
  138.5257   68.4135  223.1178 H   0  0  0  0  0  0  0  0  0  0  0  0
  140.2147   68.8678  222.8705 H   0  0  0  0  0  0  0  0  0  0  0  0
  138.8348   66.9373  224.9133 H   0  0  0  0  0  0  0  0  0  0  0  0
  139.2058   66.7005  227.3828 H   0  0  0  0  0  0  0  0  0  0  0  0
  140.0958   68.5891  228.7139 H   0  0  0  0  0  0  0  0  0  0  0  0
  140.6391   70.7611  227.6154 H   0  0  0  0  0  0  0  0  0  0  0  0
  139.8155   72.1575  225.5463 H   0  0  0  0  0  0  0  0  0  0  0  0
  141.4520   71.5251  225.1144 H   0  0  0  0  0  0  0  0  0  0  0  0
  139.1180   78.0353  221.5914 H   0  0  0  0  0  0  0  0  0  0  0  0
  141.9837   77.7055  220.6217 H   0  0  0  0  0  0  0  0  0  0  0  0
  140.5188   78.0031  219.6542 H   0  0  0  0  0  0  0  0  0  0  0  0
  141.6562   80.1432  219.8738 H   0  0  0  0  0  0  0  0  0  0  0  0
  140.2581   80.2245  220.9661 H   0  0  0  0  0  0  0  0  0  0  0  0
  143.1944   79.7341  221.6119 H   0  0  0  0  0  0  0  0  0  0  0  0
  142.0190   80.9096  222.3547 H   0  0  0  0  0  0  0  0  0  0  0  0
  142.5930   78.2200  223.1290 H   0  0  0  0  0  0  0  0  0  0  0  0
  140.5065   77.6945  223.8510 H   0  0  0  0  0  0  0  0  0  0  0  0
  139.8901   79.2820  223.1516 H   0  0  0  0  0  0  0  0  0  0  0  0
  1  2  2  0
  2  3  1  0
  3  4  1  0
  4  5  2  0
  5  6  1  0
  6  7  1  0
  7  8  1  0
  8  9  1  0
  9 10  1  0
 10 11  2  0
 11 12  1  0
 12 13  2  0
 13 14  1  0
 14 15  2  0
 15 16  1  0
  6 17  2  0
 17 18  1  0
 18 19  1  0
 19 20  1  0
 20 21  1  0
 21 22  1  0
 22 23  2  0
 23 24  1  0
 24 25  2  0
 25 26  1  0
 26 27  2  0
 27 28  1  0
 18 29  2  0
  2 30  1  0
 30 31  1  0
 31 32  1  0
 32 33  1  0
 33 34  1  0
 34 35  1  0
 29  4  1  0
 35 30  1  0
 16  7  1  0
 28 19  1  0
 15 10  1  0
 27 22  1  0
  3 36  1  0
  8 37  1  0
  8 38  1  0
  9 39  1  0
  9 40  1  0
 11 41  1  0
 12 42  1  0
 13 43  1  0
 14 44  1  0
 16 45  1  0
 16 46  1  0
 20 47  1  0
 20 48  1  0
 21 49  1  0
 21 50  1  0
 23 51  1  0
 24 52  1  0
 25 53  1  0
 26 54  1  0
 28 55  1  0
 28 56  1  0
 30 57  1  6
 31 58  1  0
 31 59  1  0
 32 60  1  0
 32 61  1  0
 33 62  1  0
 33 63  1  0
 34 64  1  0
 35 65  1  0
 35 66  1  0
M  END
>  <smiles>  (15) 
O=C(Nc1nc(N2CCc3ccccc3C2)nc(N2CCc3ccccc3C2)n1)C1CCCNC1

>  <score_type>  (15) 
oracle

>  <origin>  (15) 
autodockgpu

>  <m_score__min__energy>  (15) 
-10.140000000000001

>  <m_primary>  (15) 
energy

>  <rmsd>  (15) 
4.55269799448803

>  <m_score__min__rmsd>  (15) 
4.55269799448803

>  <meeko>  (15) 
{"free_energy": -9.98, "intermolecular_energy": -11.18, "internal_energy": -0.88, "cluster_size": 37, "cluster_id": 1, "rank_in_cluster": 27}

>  <energy>  (15) 
-10.08

>  <cluster_rmsd>  (15) 
0.23

>  <cluster>  (15) 
1

$$$$

     RDKit          3D

 66 71  0  0  1  0  0  0  0  0999 V2000
  139.5100   75.7730  222.5230 O   0  0  0  0  0  0  0  0  0  0  0  0
  140.4100   76.3850  221.8960 C   0  0  0  0  0  0  0  0  0  0  0  0
  141.4300   75.5960  221.3010 N   0  0  0  0  0  0  0  0  0  0  0  0
  141.4700   74.1760  221.3840 C   0  0  0  0  0  0  0  0  0  0  0  0
  142.2080   73.4610  220.5160 N   0  0  0  0  0  0  0  0  0  0  0  0
  142.2210   72.1000  220.6290 C   0  0  0  0  0  0  0  0  0  0  0  0
  142.9930   71.3300  219.7250 N   0  0  0  0  0  0  0  0  0  0  0  0
  143.9220   71.9990  218.8340 C   0  0  0  0  0  0  0  0  0  0  0  0
  145.3040   71.4280  219.1270 C   0  0  0  0  0  0  0  0  0  0  0  0
  145.1970   69.9590  218.8730 C   0  0  0  0  0  0  0  0  0  0  0  0
  146.3230   69.3230  218.3430 C   0  0  0  0  0  0  0  0  0  0  0  0
  146.2310   67.9690  218.1080 C   0  0  0  0  0  0  0  0  0  0  0  0
  145.0870   67.2480  218.3740 C   0  0  0  0  0  0  0  0  0  0  0  0
  143.9690   67.8790  218.9000 C   0  0  0  0  0  0  0  0  0  0  0  0
  144.0530   69.2410  219.1410 C   0  0  0  0  0  0  0  0  0  0  0  0
  142.8460   69.8950  219.7030 C   0  0  0  0  0  0  0  0  0  0  0  0
  141.4960   71.5010  221.6030 N   0  0  0  0  0  0  0  0  0  0  0  0
  140.7530   72.2080  222.4740 C   0  0  0  0  0  0  0  0  0  0  0  0
  140.0220   71.4970  223.4660 N   0  0  0  0  0  0  0  0  0  0  0  0
  138.8860   70.6940  223.0510 C   0  0  0  0  0  0  0  0  0  0  0  0
  139.3150   69.2490  223.3180 C   0  0  0  0  0  0  0  0  0  0  0  0
  139.5040   69.1610  224.8040 C   0  0  0  0  0  0  0  0  0  0  0  0
  139.1730   67.9650  225.4090 C   0  0  0  0  0  0  0  0  0  0  0  0
  139.3470   67.8760  226.7920 C   0  0  0  0  0  0  0  0  0  0  0  0
  139.8350   68.9520  227.5270 C   0  0  0  0  0  0  0  0  0  0  0  0
  140.1610   70.1420  226.9010 C   0  0  0  0  0  0  0  0  0  0  0  0
  139.9880   70.2250  225.5360 C   0  0  0  0  0  0  0  0  0  0  0  0
  140.3470   71.5290  224.8720 C   0  0  0  0  0  0  0  0  0  0  0  0
  140.7520   73.5330  222.3510 N   0  0  0  0  0  0  0  0  0  0  0  0
  140.4480   77.8670  221.7590 C   0  0  2  0  0  0  0  0  0  0  0  0
  141.3560   78.2970  220.6280 C   0  0  0  0  0  0  0  0  0  0  0  0
  141.5630   79.7920  220.7620 C   0  0  0  0  0  0  0  0  0  0  0  0
  142.4570   80.0020  221.9770 C   0  0  0  0  0  0  0  0  0  0  0  0
  142.1320   79.1210  223.0620 N   0  0  0  0  0  0  0  0  0  0  0  0
  140.8020   78.5850  223.0170 C   0  0  0  0  0  0  0  0  0  0  0  0
  142.2070   76.0470  220.7660 H   0  0  0  0  0  0  0  0  0  0  0  0
  143.6472   71.8061  217.7865 H   0  0  0  0  0  0  0  0  0  0  0  0
  143.9040   73.0876  218.9909 H   0  0  0  0  0  0  0  0  0  0  0  0
  146.0543   71.8787  218.4608 H   0  0  0  0  0  0  0  0  0  0  0  0
  145.6201   71.6395  220.1591 H   0  0  0  0  0  0  0  0  0  0  0  0
  147.2450   69.8810  218.1226 H   0  0  0  0  0  0  0  0  0  0  0  0
  147.1034   67.4434  217.6924 H   0  0  0  0  0  0  0  0  0  0  0  0
  145.0602   66.1677  218.1684 H   0  0  0  0  0  0  0  0  0  0  0  0
  143.0483   67.3179  219.1180 H   0  0  0  0  0  0  0  0  0  0  0  0
  141.9750   69.6329  219.0845 H   0  0  0  0  0  0  0  0  0  0  0  0
  142.7080   69.5430  220.7360 H   0  0  0  0  0  0  0  0  0  0  0  0
  137.9937   70.9494  223.6415 H   0  0  0  0  0  0  0  0  0  0  0  0
  138.6200   70.8617  221.9969 H   0  0  0  0  0  0  0  0  0  0  0  0
  138.5349   68.5478  222.9865 H   0  0  0  0  0  0  0  0  0  0  0  0
  140.2325   68.9856  222.7713 H   0  0  0  0  0  0  0  0  0  0  0  0
  138.7877   67.1161  224.8252 H   0  0  0  0  0  0  0  0  0  0  0  0
  139.0938   66.9388  227.3092 H   0  0  0  0  0  0  0  0  0  0  0  0
  139.9627   68.8557  228.6153 H   0  0  0  0  0  0  0  0  0  0  0  0
  140.5469   70.9968  227.4758 H   0  0  0  0  0  0  0  0  0  0  0  0
  139.7866   72.3444  225.3528 H   0  0  0  0  0  0  0  0  0  0  0  0
  141.4296   71.6919  224.9791 H   0  0  0  0  0  0  0  0  0  0  0  0
  139.4148   78.1592  221.5198 H   0  0  0  0  0  0  0  0  0  0  0  0
  142.3215   77.7750  220.7008 H   0  0  0  0  0  0  0  0  0  0  0  0
  140.9088   78.0509  219.6536 H   0  0  0  0  0  0  0  0  0  0  0  0
  142.0500   80.1898  219.8595 H   0  0  0  0  0  0  0  0  0  0  0  0
  140.6030   80.3156  220.8814 H   0  0  0  0  0  0  0  0  0  0  0  0
  143.5013   79.8248  221.6804 H   0  0  0  0  0  0  0  0  0  0  0  0
  142.3035   81.0330  222.3285 H   0  0  0  0  0  0  0  0  0  0  0  0
  142.8140   78.3650  223.2160 H   0  0  0  0  0  0  0  0  0  0  0  0
  140.6911   77.8798  223.8539 H   0  0  0  0  0  0  0  0  0  0  0  0
  140.1232   79.4485  223.0764 H   0  0  0  0  0  0  0  0  0  0  0  0
  1  2  2  0
  2  3  1  0
  3  4  1  0
  4  5  2  0
  5  6  1  0
  6  7  1  0
  7  8  1  0
  8  9  1  0
  9 10  1  0
 10 11  2  0
 11 12  1  0
 12 13  2  0
 13 14  1  0
 14 15  2  0
 15 16  1  0
  6 17  2  0
 17 18  1  0
 18 19  1  0
 19 20  1  0
 20 21  1  0
 21 22  1  0
 22 23  2  0
 23 24  1  0
 24 25  2  0
 25 26  1  0
 26 27  2  0
 27 28  1  0
 18 29  2  0
  2 30  1  0
 30 31  1  0
 31 32  1  0
 32 33  1  0
 33 34  1  0
 34 35  1  0
 29  4  1  0
 35 30  1  0
 16  7  1  0
 28 19  1  0
 15 10  1  0
 27 22  1  0
  3 36  1  0
  8 37  1  0
  8 38  1  0
  9 39  1  0
  9 40  1  0
 11 41  1  0
 12 42  1  0
 13 43  1  0
 14 44  1  0
 16 45  1  0
 16 46  1  0
 20 47  1  0
 20 48  1  0
 21 49  1  0
 21 50  1  0
 23 51  1  0
 24 52  1  0
 25 53  1  0
 26 54  1  0
 28 55  1  0
 28 56  1  0
 30 57  1  6
 31 58  1  0
 31 59  1  0
 32 60  1  0
 32 61  1  0
 33 62  1  0
 33 63  1  0
 34 64  1  0
 35 65  1  0
 35 66  1  0
M  END
>  <smiles>  (16) 
O=C(Nc1nc(N2CCc3ccccc3C2)nc(N2CCc3ccccc3C2)n1)C1CCCNC1

>  <score_type>  (16) 
oracle

>  <origin>  (16) 
autodockgpu

>  <m_score__min__energy>  (16) 
-10.140000000000001

>  <m_primary>  (16) 
energy

>  <rmsd>  (16) 
4.657292321934398

>  <m_score__min__rmsd>  (16) 
4.657292321934398

>  <meeko>  (16) 
{"free_energy": -10.04, "intermolecular_energy": -11.23, "internal_energy": -0.8, "cluster_size": 37, "cluster_id": 1, "rank_in_cluster": 20}

>  <energy>  (16) 
-10.07

>  <cluster_rmsd>  (16) 
0.45

>  <cluster>  (16) 
1

$$$$

     RDKit          3D

 66 71  0  0  1  0  0  0  0  0999 V2000
  144.3890   71.8830  220.6320 O   0  0  0  0  0  0  0  0  0  0  0  0
  143.7690   71.2380  219.7500 C   0  0  0  0  0  0  0  0  0  0  0  0
  142.3500   71.2640  219.8110 N   0  0  0  0  0  0  0  0  0  0  0  0
  141.6220   71.9760  220.8040 C   0  0  0  0  0  0  0  0  0  0  0  0
  141.1790   71.3490  221.9090 N   0  0  0  0  0  0  0  0  0  0  0  0
  140.4840   72.0680  222.8390 C   0  0  0  0  0  0  0  0  0  0  0  0
  140.0090   71.4250  224.0090 N   0  0  0  0  0  0  0  0  0  0  0  0
  138.7950   70.6340  223.9430 C   0  0  0  0  0  0  0  0  0  0  0  0
  139.1640   69.2210  224.3770 C   0  0  0  0  0  0  0  0  0  0  0  0
  139.7070   69.3520  225.7640 C   0  0  0  0  0  0  0  0  0  0  0  0
  139.4390   68.3080  226.6520 C   0  0  0  0  0  0  0  0  0  0  0  0
  139.9380   68.4240  227.9310 C   0  0  0  0  0  0  0  0  0  0  0  0
  140.6730   69.5140  228.3430 C   0  0  0  0  0  0  0  0  0  0  0  0
  140.9400   70.5520  227.4610 C   0  0  0  0  0  0  0  0  0  0  0  0
  140.4420   70.4430  226.1710 C   0  0  0  0  0  0  0  0  0  0  0  0
  140.7380   71.5640  225.2450 C   0  0  0  0  0  0  0  0  0  0  0  0
  140.2560   73.3860  222.6340 N   0  0  0  0  0  0  0  0  0  0  0  0
  140.6940   74.0220  221.5320 C   0  0  0  0  0  0  0  0  0  0  0  0
  140.4090   75.4090  221.3980 N   0  0  0  0  0  0  0  0  0  0  0  0
  139.0230   75.8390  221.4120 C   0  0  0  0  0  0  0  0  0  0  0  0
  138.8790   76.6410  222.7090 C   0  0  0  0  0  0  0  0  0  0  0  0
  139.7920   77.8200  222.5480 C   0  0  0  0  0  0  0  0  0  0  0  0
  139.3850   79.0110  223.1140 C   0  0  0  0  0  0  0  0  0  0  0  0
  140.2310   80.1130  222.9690 C   0  0  0  0  0  0  0  0  0  0  0  0
  141.4340   80.0110  222.2790 C   0  0  0  0  0  0  0  0  0  0  0  0
  141.8240   78.8080  221.7190 C   0  0  0  0  0  0  0  0  0  0  0  0
  140.9870   77.7230  221.8650 C   0  0  0  0  0  0  0  0  0  0  0  0
  141.4280   76.4210  221.2480 C   0  0  0  0  0  0  0  0  0  0  0  0
  141.3700   73.3080  220.6360 N   0  0  0  0  0  0  0  0  0  0  0  0
  144.4480   70.4640  218.6740 C   0  0  2  0  0  0  0  0  0  0  0  0
  143.6440   69.2480  218.2730 C   0  0  0  0  0  0  0  0  0  0  0  0
  144.5400   68.3810  217.4120 C   0  0  0  0  0  0  0  0  0  0  0  0
  145.5840   67.7740  218.3400 C   0  0  0  0  0  0  0  0  0  0  0  0
  146.0500   68.7010  219.3300 N   0  0  0  0  0  0  0  0  0  0  0  0
  145.8530   70.0820  218.9930 C   0  0  0  0  0  0  0  0  0  0  0  0
  141.7780   70.7460  219.1050 H   0  0  0  0  0  0  0  0  0  0  0  0
  138.0344   71.0511  224.6194 H   0  0  0  0  0  0  0  0  0  0  0  0
  138.3776   70.6372  222.9253 H   0  0  0  0  0  0  0  0  0  0  0  0
  138.2744   68.5740  224.3730 H   0  0  0  0  0  0  0  0  0  0  0  0
  139.8975   68.7657  223.6954 H   0  0  0  0  0  0  0  0  0  0  0  0
  138.8537   67.4294  226.3431 H   0  0  0  0  0  0  0  0  0  0  0  0
  139.7421   67.6155  228.6506 H   0  0  0  0  0  0  0  0  0  0  0  0
  141.0499   69.5619  229.3753 H   0  0  0  0  0  0  0  0  0  0  0  0
  141.5253   71.4293  227.7737 H   0  0  0  0  0  0  0  0  0  0  0  0
  140.4524   72.5114  225.7255 H   0  0  0  0  0  0  0  0  0  0  0  0
  141.8143   71.5535  225.0179 H   0  0  0  0  0  0  0  0  0  0  0  0
  138.8038   76.4708  220.5386 H   0  0  0  0  0  0  0  0  0  0  0  0
  138.3233   74.9914  221.3664 H   0  0  0  0  0  0  0  0  0  0  0  0
  137.8392   76.9742  222.8427 H   0  0  0  0  0  0  0  0  0  0  0  0
  139.1367   76.0402  223.5937 H   0  0  0  0  0  0  0  0  0  0  0  0
  138.4320   79.0894  223.6578 H   0  0  0  0  0  0  0  0  0  0  0  0
  139.9404   81.0787  223.4084 H   0  0  0  0  0  0  0  0  0  0  0  0
  142.0811   80.8948  222.1777 H   0  0  0  0  0  0  0  0  0  0  0  0
  142.7748   78.7198  221.1729 H   0  0  0  0  0  0  0  0  0  0  0  0
  141.6247   76.5782  220.1772 H   0  0  0  0  0  0  0  0  0  0  0  0
  142.3400   76.0803  221.7600 H   0  0  0  0  0  0  0  0  0  0  0  0
  144.5055   71.1532  217.8186 H   0  0  0  0  0  0  0  0  0  0  0  0
  143.3298   68.6921  219.1687 H   0  0  0  0  0  0  0  0  0  0  0  0
  142.7395   69.5432  217.7209 H   0  0  0  0  0  0  0  0  0  0  0  0
  143.9507   67.5856  216.9325 H   0  0  0  0  0  0  0  0  0  0  0  0
  145.0148   68.9717  216.6147 H   0  0  0  0  0  0  0  0  0  0  0  0
  145.1393   66.9073  218.8510 H   0  0  0  0  0  0  0  0  0  0  0  0
  146.4477   67.4837  217.7238 H   0  0  0  0  0  0  0  0  0  0  0  0
  145.7060   68.5160  220.2830 H   0  0  0  0  0  0  0  0  0  0  0  0
  146.1857   70.6912  219.8463 H   0  0  0  0  0  0  0  0  0  0  0  0
  146.4327   70.2575  218.0747 H   0  0  0  0  0  0  0  0  0  0  0  0
  1  2  2  0
  2  3  1  0
  3  4  1  0
  4  5  2  0
  5  6  1  0
  6  7  1  0
  7  8  1  0
  8  9  1  0
  9 10  1  0
 10 11  2  0
 11 12  1  0
 12 13  2  0
 13 14  1  0
 14 15  2  0
 15 16  1  0
  6 17  2  0
 17 18  1  0
 18 19  1  0
 19 20  1  0
 20 21  1  0
 21 22  1  0
 22 23  2  0
 23 24  1  0
 24 25  2  0
 25 26  1  0
 26 27  2  0
 27 28  1  0
 18 29  2  0
  2 30  1  0
 30 31  1  0
 31 32  1  0
 32 33  1  0
 33 34  1  0
 34 35  1  0
 29  4  1  0
 35 30  1  0
 16  7  1  0
 28 19  1  0
 15 10  1  0
 27 22  1  0
  3 36  1  0
  8 37  1  0
  8 38  1  0
  9 39  1  0
  9 40  1  0
 11 41  1  0
 12 42  1  0
 13 43  1  0
 14 44  1  0
 16 45  1  0
 16 46  1  0
 20 47  1  0
 20 48  1  0
 21 49  1  0
 21 50  1  0
 23 51  1  0
 24 52  1  0
 25 53  1  0
 26 54  1  0
 28 55  1  0
 28 56  1  0
 30 57  1  6
 31 58  1  0
 31 59  1  0
 32 60  1  0
 32 61  1  0
 33 62  1  0
 33 63  1  0
 34 64  1  0
 35 65  1  0
 35 66  1  0
M  END
>  <smiles>  (17) 
O=C(Nc1nc(N2CCc3ccccc3C2)nc(N2CCc3ccccc3C2)n1)C1CCCNC1

>  <score_type>  (17) 
oracle

>  <origin>  (17) 
autodockgpu

>  <m_score__min__energy>  (17) 
-10.140000000000001

>  <m_primary>  (17) 
energy

>  <rmsd>  (17) 
8.432994865692791

>  <m_score__min__rmsd>  (17) 
8.432994865692791

>  <meeko>  (17) 
{"free_energy": -9.95, "intermolecular_energy": -11.14, "internal_energy": -0.86, "cluster_size": 12, "cluster_id": 2, "rank_in_cluster": 1}

>  <energy>  (17) 
-10.06

>  <cluster_rmsd>  (17) 
0.21

>  <cluster>  (17) 
1

$$$$

     RDKit          3D

 66 71  0  0  1  0  0  0  0  0999 V2000
  139.0560   75.5930  221.8390 O   0  0  0  0  0  0  0  0  0  0  0  0
  140.0980   76.2520  221.5960 C   0  0  0  0  0  0  0  0  0  0  0  0
  141.2980   75.5140  221.4190 N   0  0  0  0  0  0  0  0  0  0  0  0
  141.3650   74.0960  221.5020 C   0  0  0  0  0  0  0  0  0  0  0  0
  142.1030   73.3930  220.6230 N   0  0  0  0  0  0  0  0  0  0  0  0
  142.1420   72.0330  220.7360 C   0  0  0  0  0  0  0  0  0  0  0  0
  142.9140   71.2760  219.8210 N   0  0  0  0  0  0  0  0  0  0  0  0
  143.9100   71.9460  219.0060 C   0  0  0  0  0  0  0  0  0  0  0  0
  145.2500   71.2920  219.3210 C   0  0  0  0  0  0  0  0  0  0  0  0
  145.0850   69.8470  218.9790 C   0  0  0  0  0  0  0  0  0  0  0  0
  146.2000   69.1860  218.4580 C   0  0  0  0  0  0  0  0  0  0  0  0
  146.0540   67.8530  218.1420 C   0  0  0  0  0  0  0  0  0  0  0  0
  144.8670   67.1760  218.3220 C   0  0  0  0  0  0  0  0  0  0  0  0
  143.7590   67.8320  218.8390 C   0  0  0  0  0  0  0  0  0  0  0  0
  143.8980   69.1730  219.1610 C   0  0  0  0  0  0  0  0  0  0  0  0
  142.7000   69.8540  219.7110 C   0  0  0  0  0  0  0  0  0  0  0  0
  141.4430   71.4220  221.7210 N   0  0  0  0  0  0  0  0  0  0  0  0
  140.7010   72.1150  222.6030 C   0  0  0  0  0  0  0  0  0  0  0  0
  139.9980   71.3920  223.6060 N   0  0  0  0  0  0  0  0  0  0  0  0
  138.8540   70.5900  223.2130 C   0  0  0  0  0  0  0  0  0  0  0  0
  139.2930   69.1440  223.4530 C   0  0  0  0  0  0  0  0  0  0  0  0
  139.5220   69.0400  224.9330 C   0  0  0  0  0  0  0  0  0  0  0  0
  139.2090   67.8370  225.5330 C   0  0  0  0  0  0  0  0  0  0  0  0
  139.4200   67.7340  226.9100 C   0  0  0  0  0  0  0  0  0  0  0  0
  139.9240   68.8030  227.6430 C   0  0  0  0  0  0  0  0  0  0  0  0
  140.2310   70.0000  227.0220 C   0  0  0  0  0  0  0  0  0  0  0  0
  140.0220   70.0980  225.6630 C   0  0  0  0  0  0  0  0  0  0  0  0
  140.3600   71.4090  225.0040 C   0  0  0  0  0  0  0  0  0  0  0  0
  140.6740   73.4400  222.4800 N   0  0  0  0  0  0  0  0  0  0  0  0
  140.1210   77.7370  221.4930 C   0  0  2  0  0  0  0  0  0  0  0  0
  140.9620   78.1990  220.3240 C   0  0  0  0  0  0  0  0  0  0  0  0
  141.1690   79.6920  220.4830 C   0  0  0  0  0  0  0  0  0  0  0  0
  142.1290   79.8790  221.6510 C   0  0  0  0  0  0  0  0  0  0  0  0
  141.8690   78.9700  222.7310 N   0  0  0  0  0  0  0  0  0  0  0  0
  140.5410   78.4270  222.7460 C   0  0  0  0  0  0  0  0  0  0  0  0
  142.1990   76.0060  221.2150 H   0  0  0  0  0  0  0  0  0  0  0  0
  143.6707   71.8240  217.9393 H   0  0  0  0  0  0  0  0  0  0  0  0
  143.9367   73.0241  219.2227 H   0  0  0  0  0  0  0  0  0  0  0  0
  146.0486   71.7414  218.7124 H   0  0  0  0  0  0  0  0  0  0  0  0
  145.5312   71.4301  220.3754 H   0  0  0  0  0  0  0  0  0  0  0  0
  147.1559   69.7087  218.3062 H   0  0  0  0  0  0  0  0  0  0  0  0
  146.9169   67.3087  217.7307 H   0  0  0  0  0  0  0  0  0  0  0  0
  144.7978   66.1112  218.0547 H   0  0  0  0  0  0  0  0  0  0  0  0
  142.8042   67.3065  218.9880 H   0  0  0  0  0  0  0  0  0  0  0  0
  141.8447   69.6702  219.0441 H   0  0  0  0  0  0  0  0  0  0  0  0
  142.5011   69.4525  220.7156 H   0  0  0  0  0  0  0  0  0  0  0  0
  137.9771   70.8366  223.8296 H   0  0  0  0  0  0  0  0  0  0  0  0
  138.5601   70.7679  222.1680 H   0  0  0  0  0  0  0  0  0  0  0  0
  138.5059   68.4445  223.1348 H   0  0  0  0  0  0  0  0  0  0  0  0
  140.1963   68.8891  222.8793 H   0  0  0  0  0  0  0  0  0  0  0  0
  138.8096   66.9937  224.9505 H   0  0  0  0  0  0  0  0  0  0  0  0
  139.1833   66.7906  227.4237 H   0  0  0  0  0  0  0  0  0  0  0  0
  140.0799   68.6955  228.7266 H   0  0  0  0  0  0  0  0  0  0  0  0
  140.6304   70.8492  227.5959 H   0  0  0  0  0  0  0  0  0  0  0  0
  139.8108   72.2177  225.5084 H   0  0  0  0  0  0  0  0  0  0  0  0
  141.4448   71.5730  225.0840 H   0  0  0  0  0  0  0  0  0  0  0  0
  139.0747   78.0286  221.3191 H   0  0  0  0  0  0  0  0  0  0  0  0
  141.9325   77.6812  220.3300 H   0  0  0  0  0  0  0  0  0  0  0  0
  140.4624   77.9735  219.3703 H   0  0  0  0  0  0  0  0  0  0  0  0
  141.6026   80.1145  219.5646 H   0  0  0  0  0  0  0  0  0  0  0  0
  140.2145   80.2061  220.6692 H   0  0  0  0  0  0  0  0  0  0  0  0
  143.1560   79.7154  221.2925 H   0  0  0  0  0  0  0  0  0  0  0  0
  141.9909   80.9005  222.0351 H   0  0  0  0  0  0  0  0  0  0  0  0
  142.5620   78.2150  222.8270 H   0  0  0  0  0  0  0  0  0  0  0  0
  140.4798   77.7014  223.5705 H   0  0  0  0  0  0  0  0  0  0  0  0
  139.8627   79.2850  222.8629 H   0  0  0  0  0  0  0  0  0  0  0  0
  1  2  2  0
  2  3  1  0
  3  4  1  0
  4  5  2  0
  5  6  1  0
  6  7  1  0
  7  8  1  0
  8  9  1  0
  9 10  1  0
 10 11  2  0
 11 12  1  0
 12 13  2  0
 13 14  1  0
 14 15  2  0
 15 16  1  0
  6 17  2  0
 17 18  1  0
 18 19  1  0
 19 20  1  0
 20 21  1  0
 21 22  1  0
 22 23  2  0
 23 24  1  0
 24 25  2  0
 25 26  1  0
 26 27  2  0
 27 28  1  0
 18 29  2  0
  2 30  1  0
 30 31  1  0
 31 32  1  0
 32 33  1  0
 33 34  1  0
 34 35  1  0
 29  4  1  0
 35 30  1  0
 16  7  1  0
 28 19  1  0
 15 10  1  0
 27 22  1  0
  3 36  1  0
  8 37  1  0
  8 38  1  0
  9 39  1  0
  9 40  1  0
 11 41  1  0
 12 42  1  0
 13 43  1  0
 14 44  1  0
 16 45  1  0
 16 46  1  0
 20 47  1  0
 20 48  1  0
 21 49  1  0
 21 50  1  0
 23 51  1  0
 24 52  1  0
 25 53  1  0
 26 54  1  0
 28 55  1  0
 28 56  1  0
 30 57  1  6
 31 58  1  0
 31 59  1  0
 32 60  1  0
 32 61  1  0
 33 62  1  0
 33 63  1  0
 34 64  1  0
 35 65  1  0
 35 66  1  0
M  END
>  <smiles>  (18) 
O=C(Nc1nc(N2CCc3ccccc3C2)nc(N2CCc3ccccc3C2)n1)C1CCCNC1

>  <score_type>  (18) 
oracle

>  <origin>  (18) 
autodockgpu

>  <m_score__min__energy>  (18) 
-10.140000000000001

>  <m_primary>  (18) 
energy

>  <rmsd>  (18) 
4.416702615031322

>  <m_score__min__rmsd>  (18) 
4.416702615031322

>  <meeko>  (18) 
{"free_energy": -9.9, "intermolecular_energy": -11.09, "internal_energy": -0.91, "cluster_size": 37, "cluster_id": 1, "rank_in_cluster": 32}

>  <energy>  (18) 
-10.06

>  <cluster_rmsd>  (18) 
0.46

>  <cluster>  (18) 
1

$$$$

     RDKit          3D

 66 71  0  0  1  0  0  0  0  0999 V2000
  139.4920   75.7470  222.6570 O   0  0  0  0  0  0  0  0  0  0  0  0
  140.3010   76.3650  221.9210 C   0  0  0  0  0  0  0  0  0  0  0  0
  141.2850   75.5880  221.2530 N   0  0  0  0  0  0  0  0  0  0  0  0
  141.3860   74.1750  221.3790 C   0  0  0  0  0  0  0  0  0  0  0  0
  142.1510   73.4650  220.5310 N   0  0  0  0  0  0  0  0  0  0  0  0
  142.2220   72.1100  220.6860 C   0  0  0  0  0  0  0  0  0  0  0  0
  143.0230   71.3460  219.8020 N   0  0  0  0  0  0  0  0  0  0  0  0
  144.0240   72.0130  218.9920 C   0  0  0  0  0  0  0  0  0  0  0  0
  145.3670   71.3870  219.3460 C   0  0  0  0  0  0  0  0  0  0  0  0
  145.2310   69.9320  219.0330 C   0  0  0  0  0  0  0  0  0  0  0  0
  146.3650   69.2770  218.5480 C   0  0  0  0  0  0  0  0  0  0  0  0
  146.2450   67.9350  218.2600 C   0  0  0  0  0  0  0  0  0  0  0  0
  145.0660   67.2440  218.4310 C   0  0  0  0  0  0  0  0  0  0  0  0
  143.9380   67.8940  218.9130 C   0  0  0  0  0  0  0  0  0  0  0  0
  144.0510   69.2440  219.2070 C   0  0  0  0  0  0  0  0  0  0  0  0
  142.8330   69.9190  219.7200 C   0  0  0  0  0  0  0  0  0  0  0  0
  141.5270   71.5120  221.6810 N   0  0  0  0  0  0  0  0  0  0  0  0
  140.7580   72.2130  222.5340 C   0  0  0  0  0  0  0  0  0  0  0  0
  140.0630   71.5030  223.5510 N   0  0  0  0  0  0  0  0  0  0  0  0
  138.8810   70.7430  223.1860 C   0  0  0  0  0  0  0  0  0  0  0  0
  139.2790   69.2810  223.3990 C   0  0  0  0  0  0  0  0  0  0  0  0
  139.5490   69.1550  224.8700 C   0  0  0  0  0  0  0  0  0  0  0  0
  139.2150   67.9570  225.4690 C   0  0  0  0  0  0  0  0  0  0  0  0
  139.4640   67.8330  226.8380 C   0  0  0  0  0  0  0  0  0  0  0  0
  140.0240   68.8780  227.5650 C   0  0  0  0  0  0  0  0  0  0  0  0
  140.3520   70.0700  226.9460 C   0  0  0  0  0  0  0  0  0  0  0  0
  140.1050   70.1890  225.5950 C   0  0  0  0  0  0  0  0  0  0  0  0
  140.4670   71.4950  224.9370 C   0  0  0  0  0  0  0  0  0  0  0  0
  140.7000   73.5330  222.3700 N   0  0  0  0  0  0  0  0  0  0  0  0
  140.2700   77.8410  221.7300 C   0  0  2  0  0  0  0  0  0  0  0  0
  140.9580   78.2500  220.4470 C   0  0  0  0  0  0  0  0  0  0  0  0
  141.1400   79.7530  220.4940 C   0  0  0  0  0  0  0  0  0  0  0  0
  142.2200   80.0310  221.5310 C   0  0  0  0  0  0  0  0  0  0  0  0
  142.1120   79.1850  222.6840 N   0  0  0  0  0  0  0  0  0  0  0  0
  140.8110   78.6150  222.8850 C   0  0  0  0  0  0  0  0  0  0  0  0
  141.9870   76.0450  220.6260 H   0  0  0  0  0  0  0  0  0  0  0  0
  143.8070   71.8645  217.9239 H   0  0  0  0  0  0  0  0  0  0  0  0
  144.0305   73.0958  219.1859 H   0  0  0  0  0  0  0  0  0  0  0  0
  146.1700   71.8355  218.7426 H   0  0  0  0  0  0  0  0  0  0  0  0
  145.6257   71.5522  220.4023 H   0  0  0  0  0  0  0  0  0  0  0  0
  147.3156   69.8109  218.4018 H   0  0  0  0  0  0  0  0  0  0  0  0
  147.1243   67.3949  217.8790 H   0  0  0  0  0  0  0  0  0  0  0  0
  145.0179   66.1730  218.1847 H   0  0  0  0  0  0  0  0  0  0  0  0
  142.9887   67.3571  219.0565 H   0  0  0  0  0  0  0  0  0  0  0  0
  141.9930   69.7072  219.0421 H   0  0  0  0  0  0  0  0  0  0  0  0
  142.6223   69.5371  220.7298 H   0  0  0  0  0  0  0  0  0  0  0  0
  138.0320   71.0120  223.8316 H   0  0  0  0  0  0  0  0  0  0  0  0
  138.5612   70.9412  222.1524 H   0  0  0  0  0  0  0  0  0  0  0  0
  138.4600   68.6109  223.0987 H   0  0  0  0  0  0  0  0  0  0  0  0
  140.1554   69.0022  222.7956 H   0  0  0  0  0  0  0  0  0  0  0  0
  138.7706   67.1330  224.8915 H   0  0  0  0  0  0  0  0  0  0  0  0
  139.2127   66.8924  227.3499 H   0  0  0  0  0  0  0  0  0  0  0  0
  140.2077   68.7550  228.6426 H   0  0  0  0  0  0  0  0  0  0  0  0
  140.7972   70.8994  227.5151 H   0  0  0  0  0  0  0  0  0  0  0  0
  139.9604   72.3166  225.4645 H   0  0  0  0  0  0  0  0  0  0  0  0
  141.5585   71.6223  224.9856 H   0  0  0  0  0  0  0  0  0  0  0  0
  139.2028   78.0985  221.6612 H   0  0  0  0  0  0  0  0  0  0  0  0
  141.9370   77.7543  220.3701 H   0  0  0  0  0  0  0  0  0  0  0  0
  140.3583   77.9571  219.5726 H   0  0  0  0  0  0  0  0  0  0  0  0
  141.4549   80.1277  219.5089 H   0  0  0  0  0  0  0  0  0  0  0  0
  140.1988   80.2574  220.7581 H   0  0  0  0  0  0  0  0  0  0  0  0
  143.2038   79.8687  221.0665 H   0  0  0  0  0  0  0  0  0  0  0  0
  142.0959   81.0704  221.8691 H   0  0  0  0  0  0  0  0  0  0  0  0
  142.8330   78.4520  222.7430 H   0  0  0  0  0  0  0  0  0  0  0  0
  140.8659   77.9394  223.7513 H   0  0  0  0  0  0  0  0  0  0  0  0
  140.1260   79.4632  223.0311 H   0  0  0  0  0  0  0  0  0  0  0  0
  1  2  2  0
  2  3  1  0
  3  4  1  0
  4  5  2  0
  5  6  1  0
  6  7  1  0
  7  8  1  0
  8  9  1  0
  9 10  1  0
 10 11  2  0
 11 12  1  0
 12 13  2  0
 13 14  1  0
 14 15  2  0
 15 16  1  0
  6 17  2  0
 17 18  1  0
 18 19  1  0
 19 20  1  0
 20 21  1  0
 21 22  1  0
 22 23  2  0
 23 24  1  0
 24 25  2  0
 25 26  1  0
 26 27  2  0
 27 28  1  0
 18 29  2  0
  2 30  1  0
 30 31  1  0
 31 32  1  0
 32 33  1  0
 33 34  1  0
 34 35  1  0
 29  4  1  0
 35 30  1  0
 16  7  1  0
 28 19  1  0
 15 10  1  0
 27 22  1  0
  3 36  1  0
  8 37  1  0
  8 38  1  0
  9 39  1  0
  9 40  1  0
 11 41  1  0
 12 42  1  0
 13 43  1  0
 14 44  1  0
 16 45  1  0
 16 46  1  0
 20 47  1  0
 20 48  1  0
 21 49  1  0
 21 50  1  0
 23 51  1  0
 24 52  1  0
 25 53  1  0
 26 54  1  0
 28 55  1  0
 28 56  1  0
 30 57  1  6
 31 58  1  0
 31 59  1  0
 32 60  1  0
 32 61  1  0
 33 62  1  0
 33 63  1  0
 34 64  1  0
 35 65  1  0
 35 66  1  0
M  END
>  <smiles>  (19) 
O=C(Nc1nc(N2CCc3ccccc3C2)nc(N2CCc3ccccc3C2)n1)C1CCCNC1

>  <score_type>  (19) 
oracle

>  <origin>  (19) 
autodockgpu

>  <m_score__min__energy>  (19) 
-10.140000000000001

>  <m_primary>  (19) 
energy

>  <rmsd>  (19) 
4.4964676946074995

>  <m_score__min__rmsd>  (19) 
4.4964676946074995

>  <meeko>  (19) 
{"free_energy": -10.06, "intermolecular_energy": -11.25, "internal_energy": -0.78, "cluster_size": 37, "cluster_id": 1, "rank_in_cluster": 18}

>  <energy>  (19) 
-10.04

>  <cluster_rmsd>  (19) 
0.49

>  <cluster>  (19) 
1

$$$$

     RDKit          3D

 66 71  0  0  1  0  0  0  0  0999 V2000
  139.3030   75.6210  222.6930 O   0  0  0  0  0  0  0  0  0  0  0  0
  140.1900   76.2100  222.0270 C   0  0  0  0  0  0  0  0  0  0  0  0
  141.2100   75.4020  221.4580 N   0  0  0  0  0  0  0  0  0  0  0  0
  141.2630   73.9880  221.6050 C   0  0  0  0  0  0  0  0  0  0  0  0
  140.6750   73.3870  222.6550 N   0  0  0  0  0  0  0  0  0  0  0  0
  140.7480   72.0270  222.7610 C   0  0  0  0  0  0  0  0  0  0  0  0
  140.1350   71.3770  223.8590 N   0  0  0  0  0  0  0  0  0  0  0  0
  138.9740   70.5370  223.6310 C   0  0  0  0  0  0  0  0  0  0  0  0
  139.3300   69.1440  224.1340 C   0  0  0  0  0  0  0  0  0  0  0  0
  139.6620   69.3090  225.5820 C   0  0  0  0  0  0  0  0  0  0  0  0
  139.3090   68.2640  226.4380 C   0  0  0  0  0  0  0  0  0  0  0  0
  139.6130   68.4100  227.7740 C   0  0  0  0  0  0  0  0  0  0  0  0
  140.2380   69.5320  228.2710 C   0  0  0  0  0  0  0  0  0  0  0  0
  140.5900   70.5720  227.4210 C   0  0  0  0  0  0  0  0  0  0  0  0
  140.2880   70.4320  226.0760 C   0  0  0  0  0  0  0  0  0  0  0  0
  140.6720   71.5560  225.1860 C   0  0  0  0  0  0  0  0  0  0  0  0
  141.4070   71.3160  221.8160 N   0  0  0  0  0  0  0  0  0  0  0  0
  141.9990   71.9080  220.7630 C   0  0  0  0  0  0  0  0  0  0  0  0
  142.6700   71.0840  219.8180 N   0  0  0  0  0  0  0  0  0  0  0  0
  143.6290   71.6960  218.9160 C   0  0  0  0  0  0  0  0  0  0  0  0
  144.9820   71.1210  219.3420 C   0  0  0  0  0  0  0  0  0  0  0  0
  144.8850   69.6470  219.0800 C   0  0  0  0  0  0  0  0  0  0  0  0
  146.0340   69.0060  218.6640 C   0  0  0  0  0  0  0  0  0  0  0  0
  145.9510   67.6330  218.4190 C   0  0  0  0  0  0  0  0  0  0  0  0
  144.7550   66.9430  218.5880 C   0  0  0  0  0  0  0  0  0  0  0  0
  143.6140   67.6040  219.0070 C   0  0  0  0  0  0  0  0  0  0  0  0
  143.7010   68.9590  219.2470 C   0  0  0  0  0  0  0  0  0  0  0  0
  142.4480   69.6620  219.7010 C   0  0  0  0  0  0  0  0  0  0  0  0
  141.9180   73.2340  220.6740 N   0  0  0  0  0  0  0  0  0  0  0  0
  140.2140   77.6840  221.8210 C   0  0  2  0  0  0  0  0  0  0  0  0
  141.0450   78.0630  220.6150 C   0  0  0  0  0  0  0  0  0  0  0  0
  141.2550   79.5620  220.6670 C   0  0  0  0  0  0  0  0  0  0  0  0
  142.2250   79.8280  221.8110 C   0  0  0  0  0  0  0  0  0  0  0  0
  141.9750   78.9970  222.9530 N   0  0  0  0  0  0  0  0  0  0  0  0
  140.6470   78.4590  223.0190 C   0  0  0  0  0  0  0  0  0  0  0  0
  141.9770   75.8340  220.8920 H   0  0  0  0  0  0  0  0  0  0  0  0
  138.1085   70.9295  224.1850 H   0  0  0  0  0  0  0  0  0  0  0  0
  138.7080   70.5142  222.5639 H   0  0  0  0  0  0  0  0  0  0  0  0
  138.4755   68.4622  224.0118 H   0  0  0  0  0  0  0  0  0  0  0  0
  140.1708   68.7120  223.5715 H   0  0  0  0  0  0  0  0  0  0  0  0
  138.8082   67.3602  226.0609 H   0  0  0  0  0  0  0  0  0  0  0  0
  139.3466   67.6004  228.4693 H   0  0  0  0  0  0  0  0  0  0  0  0
  140.4593   69.6046  229.3460 H   0  0  0  0  0  0  0  0  0  0  0  0
  141.0906   71.4745  227.8017 H   0  0  0  0  0  0  0  0  0  0  0  0
  140.2839   72.4955  225.6065 H   0  0  0  0  0  0  0  0  0  0  0  0
  141.7694   71.5865  225.1167 H   0  0  0  0  0  0  0  0  0  0  0  0
  143.4052   71.4297  217.8725 H   0  0  0  0  0  0  0  0  0  0  0  0
  143.6079   72.7946  218.9679 H   0  0  0  0  0  0  0  0  0  0  0  0
  145.7940   71.5655  218.7478 H   0  0  0  0  0  0  0  0  0  0  0  0
  145.2056   71.3365  220.3973 H   0  0  0  0  0  0  0  0  0  0  0  0
  146.9781   69.5544  218.5305 H   0  0  0  0  0  0  0  0  0  0  0  0
  146.8470   67.0882  218.0867 H   0  0  0  0  0  0  0  0  0  0  0  0
  144.7160   65.8623  218.3867 H   0  0  0  0  0  0  0  0  0  0  0  0
  142.6654   67.0644  219.1446 H   0  0  0  0  0  0  0  0  0  0  0  0
  141.6477   69.4813  218.9683 H   0  0  0  0  0  0  0  0  0  0  0  0
  142.1612   69.2682  220.6872 H   0  0  0  0  0  0  0  0  0  0  0  0
  139.1662   77.9638  221.6370 H   0  0  0  0  0  0  0  0  0  0  0  0
  142.0151   77.5454  220.6484 H   0  0  0  0  0  0  0  0  0  0  0  0
  140.5360   77.7728  219.6841 H   0  0  0  0  0  0  0  0  0  0  0  0
  141.6814   79.9183  219.7177 H   0  0  0  0  0  0  0  0  0  0  0  0
  140.3029   80.0900  220.8243 H   0  0  0  0  0  0  0  0  0  0  0  0
  143.2487   79.6390  221.4556 H   0  0  0  0  0  0  0  0  0  0  0  0
  142.0900   80.8736  222.1249 H   0  0  0  0  0  0  0  0  0  0  0  0
  142.6680   78.2500  223.0960 H   0  0  0  0  0  0  0  0  0  0  0  0
  140.5931   77.7928  223.8926 H   0  0  0  0  0  0  0  0  0  0  0  0
  139.9707   79.3242  223.0827 H   0  0  0  0  0  0  0  0  0  0  0  0
  1  2  2  0
  2  3  1  0
  3  4  1  0
  4  5  2  0
  5  6  1  0
  6  7  1  0
  7  8  1  0
  8  9  1  0
  9 10  1  0
 10 11  2  0
 11 12  1  0
 12 13  2  0
 13 14  1  0
 14 15  2  0
 15 16  1  0
  6 17  2  0
 17 18  1  0
 18 19  1  0
 19 20  1  0
 20 21  1  0
 21 22  1  0
 22 23  2  0
 23 24  1  0
 24 25  2  0
 25 26  1  0
 26 27  2  0
 27 28  1  0
 18 29  2  0
  2 30  1  0
 30 31  1  0
 31 32  1  0
 32 33  1  0
 33 34  1  0
 34 35  1  0
 29  4  1  0
 35 30  1  0
 16  7  1  0
 28 19  1  0
 15 10  1  0
 27 22  1  0
  3 36  1  0
  8 37  1  0
  8 38  1  0
  9 39  1  0
  9 40  1  0
 11 41  1  0
 12 42  1  0
 13 43  1  0
 14 44  1  0
 16 45  1  0
 16 46  1  0
 20 47  1  0
 20 48  1  0
 21 49  1  0
 21 50  1  0
 23 51  1  0
 24 52  1  0
 25 53  1  0
 26 54  1  0
 28 55  1  0
 28 56  1  0
 30 57  1  6
 31 58  1  0
 31 59  1  0
 32 60  1  0
 32 61  1  0
 33 62  1  0
 33 63  1  0
 34 64  1  0
 35 65  1  0
 35 66  1  0
M  END
>  <smiles>  (20) 
O=C(Nc1nc(N2CCc3ccccc3C2)nc(N2CCc3ccccc3C2)n1)C1CCCNC1

>  <score_type>  (20) 
oracle

>  <origin>  (20) 
autodockgpu

>  <m_score__min__energy>  (20) 
-10.140000000000001

>  <m_primary>  (20) 
energy

>  <rmsd>  (20) 
4.521275200433184

>  <m_score__min__rmsd>  (20) 
4.521275200433184

>  <meeko>  (20) 
{"free_energy": -10.14, "intermolecular_energy": -11.34, "internal_energy": -0.82, "cluster_size": 37, "cluster_id": 1, "rank_in_cluster": 1}

>  <energy>  (20) 
-10.04

>  <cluster_rmsd>  (20) 
0.5

>  <cluster>  (20) 
1

$$$$

     RDKit          3D

 66 71  0  0  1  0  0  0  0  0999 V2000
  138.9430   75.5280  221.8110 O   0  0  0  0  0  0  0  0  0  0  0  0
  140.0000   76.1760  221.6150 C   0  0  0  0  0  0  0  0  0  0  0  0
  141.2040   75.4290  221.5130 N   0  0  0  0  0  0  0  0  0  0  0  0
  141.2570   74.0120  221.6200 C   0  0  0  0  0  0  0  0  0  0  0  0
  140.6580   73.3790  222.6450 N   0  0  0  0  0  0  0  0  0  0  0  0
  140.7320   72.0170  222.7120 C   0  0  0  0  0  0  0  0  0  0  0  0
  140.1070   71.3340  223.7840 N   0  0  0  0  0  0  0  0  0  0  0  0
  138.9510   70.4990  223.5180 C   0  0  0  0  0  0  0  0  0  0  0  0
  139.3050   69.0930  223.9850 C   0  0  0  0  0  0  0  0  0  0  0  0
  139.6190   69.2180  225.4420 C   0  0  0  0  0  0  0  0  0  0  0  0
  139.2590   68.1470  226.2630 C   0  0  0  0  0  0  0  0  0  0  0  0
  139.5470   68.2560  227.6060 C   0  0  0  0  0  0  0  0  0  0  0  0
  140.1630   69.3650  228.1420 C   0  0  0  0  0  0  0  0  0  0  0  0
  140.5210   70.4300  227.3270 C   0  0  0  0  0  0  0  0  0  0  0  0
  140.2360   70.3280  225.9740 C   0  0  0  0  0  0  0  0  0  0  0  0
  140.6270   71.4770  225.1210 C   0  0  0  0  0  0  0  0  0  0  0  0
  141.4010   71.3350  221.7540 N   0  0  0  0  0  0  0  0  0  0  0  0
  142.0050   71.9580  220.7250 C   0  0  0  0  0  0  0  0  0  0  0  0
  142.6860   71.1620  219.7630 N   0  0  0  0  0  0  0  0  0  0  0  0
  143.6480   71.8030  218.8850 C   0  0  0  0  0  0  0  0  0  0  0  0
  145.0010   71.2240  219.3050 C   0  0  0  0  0  0  0  0  0  0  0  0
  144.9140   69.7570  219.0040 C   0  0  0  0  0  0  0  0  0  0  0  0
  146.0700   69.1330  218.5790 C   0  0  0  0  0  0  0  0  0  0  0  0
  145.9960   67.7670  218.2980 C   0  0  0  0  0  0  0  0  0  0  0  0
  144.8020   67.0660  218.4410 C   0  0  0  0  0  0  0  0  0  0  0  0
  143.6550   67.7100  218.8680 C   0  0  0  0  0  0  0  0  0  0  0  0
  143.7320   69.0580  219.1450 C   0  0  0  0  0  0  0  0  0  0  0  0
  142.4730   69.7430  219.6080 C   0  0  0  0  0  0  0  0  0  0  0  0
  141.9230   73.2850  220.6740 N   0  0  0  0  0  0  0  0  0  0  0  0
  140.0390   77.6590  221.4910 C   0  0  2  0  0  0  0  0  0  0  0  0
  140.9050   78.0970  220.3310 C   0  0  0  0  0  0  0  0  0  0  0  0
  141.1230   79.5900  220.4720 C   0  0  0  0  0  0  0  0  0  0  0  0
  142.0630   79.7860  221.6550 C   0  0  0  0  0  0  0  0  0  0  0  0
  141.7750   78.8950  222.7430 N   0  0  0  0  0  0  0  0  0  0  0  0
  140.4420   78.3640  222.7410 C   0  0  0  0  0  0  0  0  0  0  0  0
  142.1170   75.9120  221.3500 H   0  0  0  0  0  0  0  0  0  0  0  0
  138.0780   70.8734  224.0727 H   0  0  0  0  0  0  0  0  0  0  0  0
  138.6973   70.5066  222.4477 H   0  0  0  0  0  0  0  0  0  0  0  0
  138.4541   68.4127  223.8330 H   0  0  0  0  0  0  0  0  0  0  0  0
  140.1537   68.6792  223.4206 H   0  0  0  0  0  0  0  0  0  0  0  0
  138.7657   67.2529  225.8541 H   0  0  0  0  0  0  0  0  0  0  0  0
  139.2748   67.4263  228.2750 H   0  0  0  0  0  0  0  0  0  0  0  0
  140.3723   69.4070  229.2211 H   0  0  0  0  0  0  0  0  0  0  0  0
  141.0132   71.3229  227.7398 H   0  0  0  0  0  0  0  0  0  0  0  0
  140.2310   72.4032  225.5629 H   0  0  0  0  0  0  0  0  0  0  0  0
  141.7250   71.5124  225.0659 H   0  0  0  0  0  0  0  0  0  0  0  0
  143.4331   71.5638  217.8331 H   0  0  0  0  0  0  0  0  0  0  0  0
  143.6205   72.8996  218.9664 H   0  0  0  0  0  0  0  0  0  0  0  0
  145.8146   71.6881  218.7282 H   0  0  0  0  0  0  0  0  0  0  0  0
  145.2162   71.4128  220.3671 H   0  0  0  0  0  0  0  0  0  0  0  0
  147.0120   69.6897  218.4662 H   0  0  0  0  0  0  0  0  0  0  0  0
  146.8971   67.2357  217.9577 H   0  0  0  0  0  0  0  0  0  0  0  0
  144.7704   65.9905  218.2124 H   0  0  0  0  0  0  0  0  0  0  0  0
  142.7082   67.1620  218.9833 H   0  0  0  0  0  0  0  0  0  0  0  0
  141.6787   69.5770  218.8653 H   0  0  0  0  0  0  0  0  0  0  0  0
  142.1821   69.3228  220.5821 H   0  0  0  0  0  0  0  0  0  0  0  0
  138.9986   77.9566  221.2937 H   0  0  0  0  0  0  0  0  0  0  0  0
  141.8705   77.5707  220.3619 H   0  0  0  0  0  0  0  0  0  0  0  0
  140.4202   77.8624  219.3719 H   0  0  0  0  0  0  0  0  0  0  0  0
  141.5774   79.9949  219.5557 H   0  0  0  0  0  0  0  0  0  0  0  0
  140.1700   80.1153  220.6329 H   0  0  0  0  0  0  0  0  0  0  0  0
  143.0950   79.6084  221.3181 H   0  0  0  0  0  0  0  0  0  0  0  0
  141.9269   80.8141  222.0216 H   0  0  0  0  0  0  0  0  0  0  0  0
  142.4590   78.1350  222.8630 H   0  0  0  0  0  0  0  0  0  0  0  0
  140.3588   77.6515  223.5749 H   0  0  0  0  0  0  0  0  0  0  0  0
  139.7696   79.2298  222.8322 H   0  0  0  0  0  0  0  0  0  0  0  0
  1  2  2  0
  2  3  1  0
  3  4  1  0
  4  5  2  0
  5  6  1  0
  6  7  1  0
  7  8  1  0
  8  9  1  0
  9 10  1  0
 10 11  2  0
 11 12  1  0
 12 13  2  0
 13 14  1  0
 14 15  2  0
 15 16  1  0
  6 17  2  0
 17 18  1  0
 18 19  1  0
 19 20  1  0
 20 21  1  0
 21 22  1  0
 22 23  2  0
 23 24  1  0
 24 25  2  0
 25 26  1  0
 26 27  2  0
 27 28  1  0
 18 29  2  0
  2 30  1  0
 30 31  1  0
 31 32  1  0
 32 33  1  0
 33 34  1  0
 34 35  1  0
 29  4  1  0
 35 30  1  0
 16  7  1  0
 28 19  1  0
 15 10  1  0
 27 22  1  0
  3 36  1  0
  8 37  1  0
  8 38  1  0
  9 39  1  0
  9 40  1  0
 11 41  1  0
 12 42  1  0
 13 43  1  0
 14 44  1  0
 16 45  1  0
 16 46  1  0
 20 47  1  0
 20 48  1  0
 21 49  1  0
 21 50  1  0
 23 51  1  0
 24 52  1  0
 25 53  1  0
 26 54  1  0
 28 55  1  0
 28 56  1  0
 30 57  1  6
 31 58  1  0
 31 59  1  0
 32 60  1  0
 32 61  1  0
 33 62  1  0
 33 63  1  0
 34 64  1  0
 35 65  1  0
 35 66  1  0
M  END
>  <smiles>  (21) 
O=C(Nc1nc(N2CCc3ccccc3C2)nc(N2CCc3ccccc3C2)n1)C1CCCNC1

>  <score_type>  (21) 
oracle

>  <origin>  (21) 
autodockgpu

>  <m_score__min__energy>  (21) 
-10.140000000000001

>  <m_primary>  (21) 
energy

>  <rmsd>  (21) 
4.378630206727503

>  <m_score__min__rmsd>  (21) 
4.378630206727503

>  <meeko>  (21) 
{"free_energy": -9.95, "intermolecular_energy": -11.15, "internal_energy": -0.91, "cluster_size": 37, "cluster_id": 1, "rank_in_cluster": 29}

>  <energy>  (21) 
-10.02

>  <cluster_rmsd>  (21) 
0.43

>  <cluster>  (21) 
1

$$$$

     RDKit          3D

 66 71  0  0  1  0  0  0  0  0999 V2000
  142.3910   75.9270  220.4400 O   0  0  0  0  0  0  0  0  0  0  0  0
  141.2840   76.3770  220.8260 C   0  0  0  0  0  0  0  0  0  0  0  0
  140.3940   75.4560  221.4400 N   0  0  0  0  0  0  0  0  0  0  0  0
  140.7000   74.0810  221.6320 C   0  0  0  0  0  0  0  0  0  0  0  0
  140.2250   73.4160  222.7000 N   0  0  0  0  0  0  0  0  0  0  0  0
  140.5410   72.0960  222.8490 C   0  0  0  0  0  0  0  0  0  0  0  0
  140.0500   71.3800  223.9680 N   0  0  0  0  0  0  0  0  0  0  0  0
  138.8990   70.5110  223.8070 C   0  0  0  0  0  0  0  0  0  0  0  0
  139.3410   69.1120  224.2150 C   0  0  0  0  0  0  0  0  0  0  0  0
  139.7980   69.2290  225.6330 C   0  0  0  0  0  0  0  0  0  0  0  0
  139.5560   68.1370  226.4700 C   0  0  0  0  0  0  0  0  0  0  0  0
  139.9760   68.2390  227.7780 C   0  0  0  0  0  0  0  0  0  0  0  0
  140.6090   69.3600  228.2670 C   0  0  0  0  0  0  0  0  0  0  0  0
  140.8500   70.4460  227.4360 C   0  0  0  0  0  0  0  0  0  0  0  0
  140.4320   70.3510  226.1180 C   0  0  0  0  0  0  0  0  0  0  0  0
  140.6990   71.5230  225.2470 C   0  0  0  0  0  0  0  0  0  0  0  0
  141.3200   71.4860  221.9250 N   0  0  0  0  0  0  0  0  0  0  0  0
  141.8010   72.1420  220.8540 C   0  0  0  0  0  0  0  0  0  0  0  0
  142.6120   71.4220  219.9330 N   0  0  0  0  0  0  0  0  0  0  0  0
  143.5900   72.1530  219.1480 C   0  0  0  0  0  0  0  0  0  0  0  0
  144.9450   71.6620  219.6630 C   0  0  0  0  0  0  0  0  0  0  0  0
  144.9910   70.2010  219.3270 C   0  0  0  0  0  0  0  0  0  0  0  0
  146.2190   69.6740  218.9830 C   0  0  0  0  0  0  0  0  0  0  0  0
  146.2680   68.3130  218.6700 C   0  0  0  0  0  0  0  0  0  0  0  0
  145.1220   67.5250  218.7020 C   0  0  0  0  0  0  0  0  0  0  0  0
  143.9010   68.0730  219.0500 C   0  0  0  0  0  0  0  0  0  0  0  0
  143.8570   69.4150  219.3580 C   0  0  0  0  0  0  0  0  0  0  0  0
  142.5180   69.9950  219.7330 C   0  0  0  0  0  0  0  0  0  0  0  0
  141.4840   73.4270  220.7230 N   0  0  0  0  0  0  0  0  0  0  0  0
  140.8790   77.8010  220.6660 C   0  0  2  0  0  0  0  0  0  0  0  0
  141.5610   78.4420  219.4780 C   0  0  0  0  0  0  0  0  0  0  0  0
  141.3280   79.9350  219.5780 C   0  0  0  0  0  0  0  0  0  0  0  0
  142.1820   80.4350  220.7360 C   0  0  0  0  0  0  0  0  0  0  0  0
  142.1860   79.5310  221.8510 N   0  0  0  0  0  0  0  0  0  0  0  0
  141.0710   78.6290  221.8900 C   0  0  0  0  0  0  0  0  0  0  0  0
  139.4560   75.7700  221.7820 H   0  0  0  0  0  0  0  0  0  0  0  0
  138.0753   70.8507  224.4521 H   0  0  0  0  0  0  0  0  0  0  0  0
  138.5388   70.5229  222.7677 H   0  0  0  0  0  0  0  0  0  0  0  0
  138.4999   68.4071  224.1402 H   0  0  0  0  0  0  0  0  0  0  0  0
  140.1400   68.7322  223.5613 H   0  0  0  0  0  0  0  0  0  0  0  0
  139.0508   67.2328  226.0998 H   0  0  0  0  0  0  0  0  0  0  0  0
  139.7990   67.3926  228.4579 H   0  0  0  0  0  0  0  0  0  0  0  0
  140.9249   69.3952  229.3201 H   0  0  0  0  0  0  0  0  0  0  0  0
  141.3544   71.3491  227.8102 H   0  0  0  0  0  0  0  0  0  0  0  0
  140.3222   72.4306  225.7412 H   0  0  0  0  0  0  0  0  0  0  0  0
  141.7841   71.5940  225.0812 H   0  0  0  0  0  0  0  0  0  0  0  0
  143.4763   71.9264  218.0776 H   0  0  0  0  0  0  0  0  0  0  0  0
  143.4756   73.2423  219.2493 H   0  0  0  0  0  0  0  0  0  0  0  0
  145.7647   72.1983  219.1625 H   0  0  0  0  0  0  0  0  0  0  0  0
  145.0615   71.8382  220.7425 H   0  0  0  0  0  0  0  0  0  0  0  0
  147.1230   70.3001  218.9562 H   0  0  0  0  0  0  0  0  0  0  0  0
  147.2299   67.8566  218.3934 H   0  0  0  0  0  0  0  0  0  0  0  0
  145.1877   66.4567  218.4483 H   0  0  0  0  0  0  0  0  0  0  0  0
  142.9913   67.4553  219.0800 H   0  0  0  0  0  0  0  0  0  0  0  0
  141.7986   69.7911  218.9263 H   0  0  0  0  0  0  0  0  0  0  0  0
  142.1843   69.5298  220.6723 H   0  0  0  0  0  0  0  0  0  0  0  0
  139.7946   77.7715  220.4835 H   0  0  0  0  0  0  0  0  0  0  0  0
  142.6395   78.2267  219.5015 H   0  0  0  0  0  0  0  0  0  0  0  0
  141.1553   78.0463  218.5352 H   0  0  0  0  0  0  0  0  0  0  0  0
  141.6304   80.4293  218.6430 H   0  0  0  0  0  0  0  0  0  0  0  0
  140.2642   80.1590  219.7456 H   0  0  0  0  0  0  0  0  0  0  0  0
  143.2157   80.5619  220.3820 H   0  0  0  0  0  0  0  0  0  0  0  0
  141.7508   81.3864  221.0807 H   0  0  0  0  0  0  0  0  0  0  0  0
  143.0660   79.0120  221.9750 H   0  0  0  0  0  0  0  0  0  0  0  0
  141.2143   77.9481  222.7419 H   0  0  0  0  0  0  0  0  0  0  0  0
  140.1731   79.2586  221.9754 H   0  0  0  0  0  0  0  0  0  0  0  0
  1  2  2  0
  2  3  1  0
  3  4  1  0
  4  5  2  0
  5  6  1  0
  6  7  1  0
  7  8  1  0
  8  9  1  0
  9 10  1  0
 10 11  2  0
 11 12  1  0
 12 13  2  0
 13 14  1  0
 14 15  2  0
 15 16  1  0
  6 17  2  0
 17 18  1  0
 18 19  1  0
 19 20  1  0
 20 21  1  0
 21 22  1  0
 22 23  2  0
 23 24  1  0
 24 25  2  0
 25 26  1  0
 26 27  2  0
 27 28  1  0
 18 29  2  0
  2 30  1  0
 30 31  1  0
 31 32  1  0
 32 33  1  0
 33 34  1  0
 34 35  1  0
 29  4  1  0
 35 30  1  0
 16  7  1  0
 28 19  1  0
 15 10  1  0
 27 22  1  0
  3 36  1  0
  8 37  1  0
  8 38  1  0
  9 39  1  0
  9 40  1  0
 11 41  1  0
 12 42  1  0
 13 43  1  0
 14 44  1  0
 16 45  1  0
 16 46  1  0
 20 47  1  0
 20 48  1  0
 21 49  1  0
 21 50  1  0
 23 51  1  0
 24 52  1  0
 25 53  1  0
 26 54  1  0
 28 55  1  0
 28 56  1  0
 30 57  1  6
 31 58  1  0
 31 59  1  0
 32 60  1  0
 32 61  1  0
 33 62  1  0
 33 63  1  0
 34 64  1  0
 35 65  1  0
 35 66  1  0
M  END
>  <smiles>  (22) 
O=C(Nc1nc(N2CCc3ccccc3C2)nc(N2CCc3ccccc3C2)n1)C1CCCNC1

>  <score_type>  (22) 
oracle

>  <origin>  (22) 
autodockgpu

>  <m_score__min__energy>  (22) 
-10.140000000000001

>  <m_primary>  (22) 
energy

>  <rmsd>  (22) 
4.499714832566422

>  <m_score__min__rmsd>  (22) 
4.499714832566422

>  <meeko>  (22) 
{"free_energy": -9.91, "intermolecular_energy": -11.1, "internal_energy": -0.85, "cluster_size": 37, "cluster_id": 1, "rank_in_cluster": 31}

>  <energy>  (22) 
-10.01

>  <cluster_rmsd>  (22) 
0.41

>  <cluster>  (22) 
1

$$$$

     RDKit          3D

 66 71  0  0  1  0  0  0  0  0999 V2000
  144.0440   71.1630  221.0240 O   0  0  0  0  0  0  0  0  0  0  0  0
  143.4790   70.9290  219.9270 C   0  0  0  0  0  0  0  0  0  0  0  0
  142.1360   71.3670  219.7890 N   0  0  0  0  0  0  0  0  0  0  0  0
  141.4230   72.0450  220.8170 C   0  0  0  0  0  0  0  0  0  0  0  0
  141.0280   71.3900  221.9230 N   0  0  0  0  0  0  0  0  0  0  0  0
  140.3480   72.0760  222.8870 C   0  0  0  0  0  0  0  0  0  0  0  0
  139.9240   71.4030  224.0590 N   0  0  0  0  0  0  0  0  0  0  0  0
  138.7340   70.5740  224.0130 C   0  0  0  0  0  0  0  0  0  0  0  0
  139.1580   69.1680  224.4170 C   0  0  0  0  0  0  0  0  0  0  0  0
  139.7320   69.2980  225.7910 C   0  0  0  0  0  0  0  0  0  0  0  0
  139.5210   68.2340  226.6700 C   0  0  0  0  0  0  0  0  0  0  0  0
  140.0490   68.3470  227.9380 C   0  0  0  0  0  0  0  0  0  0  0  0
  140.7590   69.4540  228.3460 C   0  0  0  0  0  0  0  0  0  0  0  0
  140.9700   70.5120  227.4730 C   0  0  0  0  0  0  0  0  0  0  0  0
  140.4430   70.4060  226.1960 C   0  0  0  0  0  0  0  0  0  0  0  0
  140.6800   71.5480  225.2790 C   0  0  0  0  0  0  0  0  0  0  0  0
  140.0840   73.3930  222.7130 N   0  0  0  0  0  0  0  0  0  0  0  0
  140.4740   74.0570  221.6100 C   0  0  0  0  0  0  0  0  0  0  0  0
  140.1550   75.4390  221.5100 N   0  0  0  0  0  0  0  0  0  0  0  0
  138.7590   75.8260  221.4040 C   0  0  0  0  0  0  0  0  0  0  0  0
  138.4600   76.5590  222.7140 C   0  0  0  0  0  0  0  0  0  0  0  0
  139.3420   77.7730  222.6980 C   0  0  0  0  0  0  0  0  0  0  0  0
  138.8380   78.9220  223.2730 C   0  0  0  0  0  0  0  0  0  0  0  0
  139.6550   80.0560  223.2620 C   0  0  0  0  0  0  0  0  0  0  0  0
  140.9230   80.0230  222.6920 C   0  0  0  0  0  0  0  0  0  0  0  0
  141.4090   78.8610  222.1210 C   0  0  0  0  0  0  0  0  0  0  0  0
  140.6010   77.7450  222.1340 C   0  0  0  0  0  0  0  0  0  0  0  0
  141.1460   76.4890  221.5070 C   0  0  0  0  0  0  0  0  0  0  0  0
  141.1370   73.3740  220.6800 N   0  0  0  0  0  0  0  0  0  0  0  0
  144.1460   70.2260  218.7970 C   0  0  2  0  0  0  0  0  0  0  0  0
  143.4490   68.9270  218.4620 C   0  0  0  0  0  0  0  0  0  0  0  0
  144.3590   68.1560  217.5280 C   0  0  0  0  0  0  0  0  0  0  0  0
  145.5360   67.6720  218.3650 C   0  0  0  0  0  0  0  0  0  0  0  0
  145.9790   68.6510  219.3150 N   0  0  0  0  0  0  0  0  0  0  0  0
  145.6060   70.0000  218.9980 C   0  0  0  0  0  0  0  0  0  0  0  0
  141.6110   71.2020  218.8990 H   0  0  0  0  0  0  0  0  0  0  0  0
  137.9785   70.9575  224.7146 H   0  0  0  0  0  0  0  0  0  0  0  0
  138.2906   70.5774  223.0063 H   0  0  0  0  0  0  0  0  0  0  0  0
  138.2893   68.4932  224.4265 H   0  0  0  0  0  0  0  0  0  0  0  0
  139.8874   68.7451  223.7105 H   0  0  0  0  0  0  0  0  0  0  0  0
  138.9561   67.3415  226.3629 H   0  0  0  0  0  0  0  0  0  0  0  0
  139.8977   67.5226  228.6503 H   0  0  0  0  0  0  0  0  0  0  0  0
  141.1609   69.5000  229.3689 H   0  0  0  0  0  0  0  0  0  0  0  0
  141.5354   71.4029  227.7838 H   0  0  0  0  0  0  0  0  0  0  0  0
  140.3774   72.4793  225.7801 H   0  0  0  0  0  0  0  0  0  0  0  0
  141.7499   71.5743  225.0248 H   0  0  0  0  0  0  0  0  0  0  0  0
  138.6053   76.4924  220.5425 H   0  0  0  0  0  0  0  0  0  0  0  0
  138.0972   74.9609  221.2501 H   0  0  0  0  0  0  0  0  0  0  0  0
  137.4009   76.8527  222.7582 H   0  0  0  0  0  0  0  0  0  0  0  0
  138.6511   75.9245  223.5921 H   0  0  0  0  0  0  0  0  0  0  0  0
  137.8340   78.9444  223.7218 H   0  0  0  0  0  0  0  0  0  0  0  0
  139.2887   80.9906  223.7119 H   0  0  0  0  0  0  0  0  0  0  0  0
  141.5455   80.9299  222.6953 H   0  0  0  0  0  0  0  0  0  0  0  0
  142.4116   78.8286  221.6695 H   0  0  0  0  0  0  0  0  0  0  0  0
  141.4404   76.7033  220.4690 H   0  0  0  0  0  0  0  0  0  0  0  0
  142.0151   76.1532  222.0917 H   0  0  0  0  0  0  0  0  0  0  0  0
  144.0568   70.9115  217.9413 H   0  0  0  0  0  0  0  0  0  0  0  0
  143.2726   68.3468  219.3797 H   0  0  0  0  0  0  0  0  0  0  0  0
  142.4753   69.1184  217.9874 H   0  0  0  0  0  0  0  0  0  0  0  0
  143.8216   67.2981  217.0976 H   0  0  0  0  0  0  0  0  0  0  0  0
  144.6993   68.7888  216.6951 H   0  0  0  0  0  0  0  0  0  0  0  0
  145.2318   66.7658  218.9093 H   0  0  0  0  0  0  0  0  0  0  0  0
  146.3722   67.4726  217.6787 H   0  0  0  0  0  0  0  0  0  0  0  0
  145.7370   68.4370  220.2930 H   0  0  0  0  0  0  0  0  0  0  0  0
  145.9400   70.6477  219.8220 H   0  0  0  0  0  0  0  0  0  0  0  0
  146.0852   70.2302  218.0350 H   0  0  0  0  0  0  0  0  0  0  0  0
  1  2  2  0
  2  3  1  0
  3  4  1  0
  4  5  2  0
  5  6  1  0
  6  7  1  0
  7  8  1  0
  8  9  1  0
  9 10  1  0
 10 11  2  0
 11 12  1  0
 12 13  2  0
 13 14  1  0
 14 15  2  0
 15 16  1  0
  6 17  2  0
 17 18  1  0
 18 19  1  0
 19 20  1  0
 20 21  1  0
 21 22  1  0
 22 23  2  0
 23 24  1  0
 24 25  2  0
 25 26  1  0
 26 27  2  0
 27 28  1  0
 18 29  2  0
  2 30  1  0
 30 31  1  0
 31 32  1  0
 32 33  1  0
 33 34  1  0
 34 35  1  0
 29  4  1  0
 35 30  1  0
 16  7  1  0
 28 19  1  0
 15 10  1  0
 27 22  1  0
  3 36  1  0
  8 37  1  0
  8 38  1  0
  9 39  1  0
  9 40  1  0
 11 41  1  0
 12 42  1  0
 13 43  1  0
 14 44  1  0
 16 45  1  0
 16 46  1  0
 20 47  1  0
 20 48  1  0
 21 49  1  0
 21 50  1  0
 23 51  1  0
 24 52  1  0
 25 53  1  0
 26 54  1  0
 28 55  1  0
 28 56  1  0
 30 57  1  6
 31 58  1  0
 31 59  1  0
 32 60  1  0
 32 61  1  0
 33 62  1  0
 33 63  1  0
 34 64  1  0
 35 65  1  0
 35 66  1  0
M  END
>  <smiles>  (23) 
O=C(Nc1nc(N2CCc3ccccc3C2)nc(N2CCc3ccccc3C2)n1)C1CCCNC1

>  <score_type>  (23) 
oracle

>  <origin>  (23) 
autodockgpu

>  <m_score__min__energy>  (23) 
-10.140000000000001

>  <m_primary>  (23) 
energy

>  <rmsd>  (23) 
8.510357810697702

>  <m_score__min__rmsd>  (23) 
8.510357810697702

>  <meeko>  (23) 
{"free_energy": -9.91, "intermolecular_energy": -11.1, "internal_energy": -0.87, "cluster_size": 12, "cluster_id": 2, "rank_in_cluster": 5}

>  <energy>  (23) 
-10.01

>  <cluster_rmsd>  (23) 
0.27

>  <cluster>  (23) 
1

$$$$

     RDKit          3D

 66 71  0  0  1  0  0  0  0  0999 V2000
  144.4420   72.1740  220.5410 O   0  0  0  0  0  0  0  0  0  0  0  0
  143.8590   71.4080  219.7340 C   0  0  0  0  0  0  0  0  0  0  0  0
  142.4490   71.2930  219.8600 N   0  0  0  0  0  0  0  0  0  0  0  0
  141.6900   71.9950  220.8360 C   0  0  0  0  0  0  0  0  0  0  0  0
  141.2290   71.3620  221.9300 N   0  0  0  0  0  0  0  0  0  0  0  0
  140.5040   72.0720  222.8450 C   0  0  0  0  0  0  0  0  0  0  0  0
  140.0100   71.4220  224.0020 N   0  0  0  0  0  0  0  0  0  0  0  0
  138.8080   70.6160  223.9070 C   0  0  0  0  0  0  0  0  0  0  0  0
  139.1850   69.2070  224.3490 C   0  0  0  0  0  0  0  0  0  0  0  0
  139.6930   69.3450  225.7490 C   0  0  0  0  0  0  0  0  0  0  0  0
  139.4170   68.2970  226.6300 C   0  0  0  0  0  0  0  0  0  0  0  0
  139.8840   68.4170  227.9200 C   0  0  0  0  0  0  0  0  0  0  0  0
  140.5950   69.5160  228.3500 C   0  0  0  0  0  0  0  0  0  0  0  0
  140.8690   70.5580  227.4750 C   0  0  0  0  0  0  0  0  0  0  0  0
  140.4040   70.4440  226.1740 C   0  0  0  0  0  0  0  0  0  0  0  0
  140.7080   71.5700  225.2560 C   0  0  0  0  0  0  0  0  0  0  0  0
  140.2660   73.3870  222.6350 N   0  0  0  0  0  0  0  0  0  0  0  0
  140.7220   74.0290  221.5440 C   0  0  0  0  0  0  0  0  0  0  0  0
  140.4250   75.4130  221.4050 N   0  0  0  0  0  0  0  0  0  0  0  0
  139.0350   75.8320  221.4250 C   0  0  0  0  0  0  0  0  0  0  0  0
  138.8920   76.6380  222.7180 C   0  0  0  0  0  0  0  0  0  0  0  0
  139.7930   77.8250  222.5460 C   0  0  0  0  0  0  0  0  0  0  0  0
  139.3790   79.0150  223.1090 C   0  0  0  0  0  0  0  0  0  0  0  0
  140.2140   80.1240  222.9530 C   0  0  0  0  0  0  0  0  0  0  0  0
  141.4140   80.0280  222.2560 C   0  0  0  0  0  0  0  0  0  0  0  0
  141.8120   78.8260  221.7000 C   0  0  0  0  0  0  0  0  0  0  0  0
  140.9850   77.7340  221.8570 C   0  0  0  0  0  0  0  0  0  0  0  0
  141.4330   76.4330  221.2430 C   0  0  0  0  0  0  0  0  0  0  0  0
  141.4270   73.3240  220.6630 N   0  0  0  0  0  0  0  0  0  0  0  0
  144.5720   70.6340  218.6810 C   0  0  2  0  0  0  0  0  0  0  0  0
  143.7190   69.5050  218.1480 C   0  0  0  0  0  0  0  0  0  0  0  0
  144.6220   68.6100  217.3230 C   0  0  0  0  0  0  0  0  0  0  0  0
  145.5290   67.8800  218.3040 C   0  0  0  0  0  0  0  0  0  0  0  0
  145.9730   68.7210  219.3780 N   0  0  0  0  0  0  0  0  0  0  0  0
  145.9100   70.1270  219.1000 C   0  0  0  0  0  0  0  0  0  0  0  0
  141.9070   70.6700  219.2170 H   0  0  0  0  0  0  0  0  0  0  0  0
  138.0265   71.0228  224.5656 H   0  0  0  0  0  0  0  0  0  0  0  0
  138.4144   70.6148  222.8798 H   0  0  0  0  0  0  0  0  0  0  0  0
  138.3043   68.5484  224.3236 H   0  0  0  0  0  0  0  0  0  0  0  0
  139.9402   68.7613  223.6849 H   0  0  0  0  0  0  0  0  0  0  0  0
  138.8497   67.4118  226.3067 H   0  0  0  0  0  0  0  0  0  0  0  0
  139.6818   67.6049  228.6339 H   0  0  0  0  0  0  0  0  0  0  0  0
  140.9469   69.5678  229.3909 H   0  0  0  0  0  0  0  0  0  0  0  0
  141.4349   71.4427  227.8022 H   0  0  0  0  0  0  0  0  0  0  0  0
  140.3987   72.5132  225.7300 H   0  0  0  0  0  0  0  0  0  0  0  0
  141.7895   71.5742  225.0550 H   0  0  0  0  0  0  0  0  0  0  0  0
  138.8057   76.4580  220.5501 H   0  0  0  0  0  0  0  0  0  0  0  0
  138.3420   74.9786  221.3872 H   0  0  0  0  0  0  0  0  0  0  0  0
  137.8500   76.9621  222.8568 H   0  0  0  0  0  0  0  0  0  0  0  0
  139.1611   76.0437  223.6037 H   0  0  0  0  0  0  0  0  0  0  0  0
  138.4290   79.0874  223.6588 H   0  0  0  0  0  0  0  0  0  0  0  0
  139.9176   81.0895  223.3887 H   0  0  0  0  0  0  0  0  0  0  0  0
  142.0526   80.9169  222.1460 H   0  0  0  0  0  0  0  0  0  0  0  0
  142.7603   78.7435  221.1488 H   0  0  0  0  0  0  0  0  0  0  0  0
  141.6205   76.5868  220.1701 H   0  0  0  0  0  0  0  0  0  0  0  0
  142.3516   76.1030  221.7501 H   0  0  0  0  0  0  0  0  0  0  0  0
  144.7574   71.3555  217.8716 H   0  0  0  0  0  0  0  0  0  0  0  0
  143.2843   68.9351  218.9824 H   0  0  0  0  0  0  0  0  0  0  0  0
  142.8929   69.8960  217.5359 H   0  0  0  0  0  0  0  0  0  0  0  0
  144.0205   67.8869  216.7527 H   0  0  0  0  0  0  0  0  0  0  0  0
  145.2100   69.1974  216.6024 H   0  0  0  0  0  0  0  0  0  0  0  0
  144.9758   67.0293  218.7287 H   0  0  0  0  0  0  0  0  0  0  0  0
  146.4202   67.5498  217.7502 H   0  0  0  0  0  0  0  0  0  0  0  0
  145.5310   68.5190  220.2860 H   0  0  0  0  0  0  0  0  0  0  0  0
  146.2083   70.6672  220.0106 H   0  0  0  0  0  0  0  0  0  0  0  0
  146.5816   70.2987  218.2459 H   0  0  0  0  0  0  0  0  0  0  0  0
  1  2  2  0
  2  3  1  0
  3  4  1  0
  4  5  2  0
  5  6  1  0
  6  7  1  0
  7  8  1  0
  8  9  1  0
  9 10  1  0
 10 11  2  0
 11 12  1  0
 12 13  2  0
 13 14  1  0
 14 15  2  0
 15 16  1  0
  6 17  2  0
 17 18  1  0
 18 19  1  0
 19 20  1  0
 20 21  1  0
 21 22  1  0
 22 23  2  0
 23 24  1  0
 24 25  2  0
 25 26  1  0
 26 27  2  0
 27 28  1  0
 18 29  2  0
  2 30  1  0
 30 31  1  0
 31 32  1  0
 32 33  1  0
 33 34  1  0
 34 35  1  0
 29  4  1  0
 35 30  1  0
 16  7  1  0
 28 19  1  0
 15 10  1  0
 27 22  1  0
  3 36  1  0
  8 37  1  0
  8 38  1  0
  9 39  1  0
  9 40  1  0
 11 41  1  0
 12 42  1  0
 13 43  1  0
 14 44  1  0
 16 45  1  0
 16 46  1  0
 20 47  1  0
 20 48  1  0
 21 49  1  0
 21 50  1  0
 23 51  1  0
 24 52  1  0
 25 53  1  0
 26 54  1  0
 28 55  1  0
 28 56  1  0
 30 57  1  6
 31 58  1  0
 31 59  1  0
 32 60  1  0
 32 61  1  0
 33 62  1  0
 33 63  1  0
 34 64  1  0
 35 65  1  0
 35 66  1  0
M  END
>  <smiles>  (24) 
O=C(Nc1nc(N2CCc3ccccc3C2)nc(N2CCc3ccccc3C2)n1)C1CCCNC1

>  <score_type>  (24) 
oracle

>  <origin>  (24) 
autodockgpu

>  <m_score__min__energy>  (24) 
-10.140000000000001

>  <m_primary>  (24) 
energy

>  <rmsd>  (24) 
8.308756881995546

>  <m_score__min__rmsd>  (24) 
8.308756881995546

>  <meeko>  (24) 
{"free_energy": -9.9, "intermolecular_energy": -11.09, "internal_energy": -0.86, "cluster_size": 12, "cluster_id": 2, "rank_in_cluster": 8}

>  <energy>  (24) 
-10.0

>  <cluster_rmsd>  (24) 
0.41

>  <cluster>  (24) 
1

$$$$

     RDKit          3D

 66 71  0  0  1  0  0  0  0  0999 V2000
  138.9950   75.5430  221.9280 O   0  0  0  0  0  0  0  0  0  0  0  0
  140.0370   76.1870  221.6480 C   0  0  0  0  0  0  0  0  0  0  0  0
  141.2270   75.4360  221.4620 N   0  0  0  0  0  0  0  0  0  0  0  0
  141.2860   74.0200  221.5750 C   0  0  0  0  0  0  0  0  0  0  0  0
  140.6790   73.3880  222.5960 N   0  0  0  0  0  0  0  0  0  0  0  0
  140.7580   72.0270  222.6680 C   0  0  0  0  0  0  0  0  0  0  0  0
  140.1260   71.3450  223.7370 N   0  0  0  0  0  0  0  0  0  0  0  0
  138.9660   70.5170  223.4650 C   0  0  0  0  0  0  0  0  0  0  0  0
  139.3100   69.1080  223.9310 C   0  0  0  0  0  0  0  0  0  0  0  0
  139.6200   69.2280  225.3880 C   0  0  0  0  0  0  0  0  0  0  0  0
  139.2510   68.1570  226.2060 C   0  0  0  0  0  0  0  0  0  0  0  0
  139.5350   68.2620  227.5500 C   0  0  0  0  0  0  0  0  0  0  0  0
  140.1560   69.3660  228.0910 C   0  0  0  0  0  0  0  0  0  0  0  0
  140.5240   70.4300  227.2790 C   0  0  0  0  0  0  0  0  0  0  0  0
  140.2420   70.3330  225.9250 C   0  0  0  0  0  0  0  0  0  0  0  0
  140.6430   71.4820  225.0760 C   0  0  0  0  0  0  0  0  0  0  0  0
  141.4400   71.3440  221.7190 N   0  0  0  0  0  0  0  0  0  0  0  0
  142.0500   71.9660  220.6950 C   0  0  0  0  0  0  0  0  0  0  0  0
  142.7440   71.1690  219.7420 N   0  0  0  0  0  0  0  0  0  0  0  0
  143.6730   71.8190  218.8350 C   0  0  0  0  0  0  0  0  0  0  0  0
  145.0500   71.2950  219.2490 C   0  0  0  0  0  0  0  0  0  0  0  0
  145.0070   69.8190  218.9850 C   0  0  0  0  0  0  0  0  0  0  0  0
  146.1770   69.2240  218.5580 C   0  0  0  0  0  0  0  0  0  0  0  0
  146.1440   67.8490  218.3110 C   0  0  0  0  0  0  0  0  0  0  0  0
  144.9760   67.1140  218.4870 C   0  0  0  0  0  0  0  0  0  0  0  0
  143.8140   67.7300  218.9160 C   0  0  0  0  0  0  0  0  0  0  0  0
  143.8510   69.0860  219.1590 C   0  0  0  0  0  0  0  0  0  0  0  0
  142.5760   69.7410  219.6240 C   0  0  0  0  0  0  0  0  0  0  0  0
  141.9640   73.2930  220.6380 N   0  0  0  0  0  0  0  0  0  0  0  0
  140.0690   77.6690  221.5110 C   0  0  2  0  0  0  0  0  0  0  0  0
  140.9100   78.1000  220.3310 C   0  0  0  0  0  0  0  0  0  0  0  0
  141.1270   79.5940  220.4550 C   0  0  0  0  0  0  0  0  0  0  0  0
  142.0900   79.8020  221.6170 C   0  0  0  0  0  0  0  0  0  0  0  0
  141.8260   78.9200  222.7170 N   0  0  0  0  0  0  0  0  0  0  0  0
  140.4950   78.3850  222.7470 C   0  0  0  0  0  0  0  0  0  0  0  0
  142.1270   75.9160  221.2280 H   0  0  0  0  0  0  0  0  0  0  0  0
  138.0930   70.8956  224.0169 H   0  0  0  0  0  0  0  0  0  0  0  0
  138.7166   70.5278  222.3937 H   0  0  0  0  0  0  0  0  0  0  0  0
  138.4554   68.4332  223.7751 H   0  0  0  0  0  0  0  0  0  0  0  0
  140.1581   68.6903  223.3687 H   0  0  0  0  0  0  0  0  0  0  0  0
  138.7541   67.2664  225.7937 H   0  0  0  0  0  0  0  0  0  0  0  0
  139.2552   67.4327  228.2163 H   0  0  0  0  0  0  0  0  0  0  0  0
  140.3612   69.4047  229.1710 H   0  0  0  0  0  0  0  0  0  0  0  0
  141.0216   71.3185  227.6950 H   0  0  0  0  0  0  0  0  0  0  0  0
  140.2513   72.4096  225.5189 H   0  0  0  0  0  0  0  0  0  0  0  0
  141.7414   71.5111  225.0245 H   0  0  0  0  0  0  0  0  0  0  0  0
  143.4518   71.5471  217.7924 H   0  0  0  0  0  0  0  0  0  0  0  0
  143.6108   72.9158  218.8907 H   0  0  0  0  0  0  0  0  0  0  0  0
  145.8398   71.7709  218.6492 H   0  0  0  0  0  0  0  0  0  0  0  0
  145.2737   71.5170  220.3029 H   0  0  0  0  0  0  0  0  0  0  0  0
  147.0982   69.8086  218.4178 H   0  0  0  0  0  0  0  0  0  0  0  0
  147.0575   67.3389  217.9715 H   0  0  0  0  0  0  0  0  0  0  0  0
  144.9764   66.0331  218.2832 H   0  0  0  0  0  0  0  0  0  0  0  0
  142.8876   67.1543  219.0590 H   0  0  0  0  0  0  0  0  0  0  0  0
  141.7775   69.5312  218.8971 H   0  0  0  0  0  0  0  0  0  0  0  0
  142.3126   69.3353  220.6120 H   0  0  0  0  0  0  0  0  0  0  0  0
  139.0240   77.9620  221.3318 H   0  0  0  0  0  0  0  0  0  0  0  0
  141.8773   77.5764  220.3468 H   0  0  0  0  0  0  0  0  0  0  0  0
  140.4063   77.8567  219.3839 H   0  0  0  0  0  0  0  0  0  0  0  0
  141.5619   79.9922  219.5264 H   0  0  0  0  0  0  0  0  0  0  0  0
  140.1762   80.1185  220.6306 H   0  0  0  0  0  0  0  0  0  0  0  0
  143.1154   79.6239  221.2609 H   0  0  0  0  0  0  0  0  0  0  0  0
  141.9590   80.8329  221.9778 H   0  0  0  0  0  0  0  0  0  0  0  0
  142.5150   78.1630  222.8300 H   0  0  0  0  0  0  0  0  0  0  0  0
  140.4313   77.6789  223.5880 H   0  0  0  0  0  0  0  0  0  0  0  0
  139.8216   79.2492  222.8457 H   0  0  0  0  0  0  0  0  0  0  0  0
  1  2  2  0
  2  3  1  0
  3  4  1  0
  4  5  2  0
  5  6  1  0
  6  7  1  0
  7  8  1  0
  8  9  1  0
  9 10  1  0
 10 11  2  0
 11 12  1  0
 12 13  2  0
 13 14  1  0
 14 15  2  0
 15 16  1  0
  6 17  2  0
 17 18  1  0
 18 19  1  0
 19 20  1  0
 20 21  1  0
 21 22  1  0
 22 23  2  0
 23 24  1  0
 24 25  2  0
 25 26  1  0
 26 27  2  0
 27 28  1  0
 18 29  2  0
  2 30  1  0
 30 31  1  0
 31 32  1  0
 32 33  1  0
 33 34  1  0
 34 35  1  0
 29  4  1  0
 35 30  1  0
 16  7  1  0
 28 19  1  0
 15 10  1  0
 27 22  1  0
  3 36  1  0
  8 37  1  0
  8 38  1  0
  9 39  1  0
  9 40  1  0
 11 41  1  0
 12 42  1  0
 13 43  1  0
 14 44  1  0
 16 45  1  0
 16 46  1  0
 20 47  1  0
 20 48  1  0
 21 49  1  0
 21 50  1  0
 23 51  1  0
 24 52  1  0
 25 53  1  0
 26 54  1  0
 28 55  1  0
 28 56  1  0
 30 57  1  6
 31 58  1  0
 31 59  1  0
 32 60  1  0
 32 61  1  0
 33 62  1  0
 33 63  1  0
 34 64  1  0
 35 65  1  0
 35 66  1  0
M  END
>  <smiles>  (25) 
O=C(Nc1nc(N2CCc3ccccc3C2)nc(N2CCc3ccccc3C2)n1)C1CCCNC1

>  <score_type>  (25) 
oracle

>  <origin>  (25) 
autodockgpu

>  <m_score__min__energy>  (25) 
-10.140000000000001

>  <m_primary>  (25) 
energy

>  <rmsd>  (25) 
4.381090225079492

>  <m_score__min__rmsd>  (25) 
4.381090225079492

>  <meeko>  (25) 
{"free_energy": -10.01, "intermolecular_energy": -11.2, "internal_energy": -0.9, "cluster_size": 37, "cluster_id": 1, "rank_in_cluster": 23}

>  <energy>  (25) 
-9.99

>  <cluster_rmsd>  (25) 
0.27

>  <cluster>  (25) 
1

$$$$

     RDKit          3D

 66 71  0  0  1  0  0  0  0  0999 V2000
  139.1720   75.5840  222.2880 O   0  0  0  0  0  0  0  0  0  0  0  0
  140.1710   76.2310  221.8850 C   0  0  0  0  0  0  0  0  0  0  0  0
  141.3160   75.4790  221.5110 N   0  0  0  0  0  0  0  0  0  0  0  0
  141.3750   74.0600  221.5710 C   0  0  0  0  0  0  0  0  0  0  0  0
  142.1100   73.3660  220.6830 N   0  0  0  0  0  0  0  0  0  0  0  0
  142.1410   72.0040  220.7750 C   0  0  0  0  0  0  0  0  0  0  0  0
  142.9100   71.2580  219.8490 N   0  0  0  0  0  0  0  0  0  0  0  0
  143.8870   71.9410  219.0210 C   0  0  0  0  0  0  0  0  0  0  0  0
  145.2390   71.3040  219.3180 C   0  0  0  0  0  0  0  0  0  0  0  0
  145.0880   69.8560  218.9780 C   0  0  0  0  0  0  0  0  0  0  0  0
  146.2050   69.2100  218.4430 C   0  0  0  0  0  0  0  0  0  0  0  0
  146.0720   67.8750  218.1290 C   0  0  0  0  0  0  0  0  0  0  0  0
  144.8970   67.1830  218.3240 C   0  0  0  0  0  0  0  0  0  0  0  0
  143.7870   67.8240  218.8560 C   0  0  0  0  0  0  0  0  0  0  0  0
  143.9130   69.1670  219.1760 C   0  0  0  0  0  0  0  0  0  0  0  0
  142.7140   69.8330  219.7420 C   0  0  0  0  0  0  0  0  0  0  0  0
  141.4360   71.3820  221.7480 N   0  0  0  0  0  0  0  0  0  0  0  0
  140.6960   72.0660  222.6400 C   0  0  0  0  0  0  0  0  0  0  0  0
  139.9880   71.3310  223.6300 N   0  0  0  0  0  0  0  0  0  0  0  0
  138.8550   70.5210  223.2180 C   0  0  0  0  0  0  0  0  0  0  0  0
  139.3040   69.0780  223.4560 C   0  0  0  0  0  0  0  0  0  0  0  0
  139.5150   68.9680  224.9370 C   0  0  0  0  0  0  0  0  0  0  0  0
  139.2050   67.7590  225.5270 C   0  0  0  0  0  0  0  0  0  0  0  0
  139.4000   67.6500  226.9060 C   0  0  0  0  0  0  0  0  0  0  0  0
  139.8850   68.7200  227.6520 C   0  0  0  0  0  0  0  0  0  0  0  0
  140.1890   69.9230  227.0410 C   0  0  0  0  0  0  0  0  0  0  0  0
  139.9960   70.0260  225.6800 C   0  0  0  0  0  0  0  0  0  0  0  0
  140.3320   71.3440  225.0320 C   0  0  0  0  0  0  0  0  0  0  0  0
  140.6770   73.3930  222.5380 N   0  0  0  0  0  0  0  0  0  0  0  0
  140.1990   77.7170  221.7900 C   0  0  2  0  0  0  0  0  0  0  0  0
  141.0820   78.1840  220.6550 C   0  0  0  0  0  0  0  0  0  0  0  0
  141.2850   79.6750  220.8290 C   0  0  0  0  0  0  0  0  0  0  0  0
  142.2000   79.8560  222.0320 C   0  0  0  0  0  0  0  0  0  0  0  0
  141.9000   78.9430  223.0970 N   0  0  0  0  0  0  0  0  0  0  0  0
  140.5720   78.4000  223.0610 C   0  0  0  0  0  0  0  0  0  0  0  0
  142.1790   75.9610  221.1670 H   0  0  0  0  0  0  0  0  0  0  0  0
  143.6352   71.8163  217.9575 H   0  0  0  0  0  0  0  0  0  0  0  0
  143.9029   73.0193  219.2378 H   0  0  0  0  0  0  0  0  0  0  0  0
  146.0236   71.7634  218.6989 H   0  0  0  0  0  0  0  0  0  0  0  0
  145.5323   71.4457  220.3687 H   0  0  0  0  0  0  0  0  0  0  0  0
  147.1520   69.7451  218.2791 H   0  0  0  0  0  0  0  0  0  0  0  0
  146.9365   67.3418  217.7068 H   0  0  0  0  0  0  0  0  0  0  0  0
  144.8383   66.1176  218.0569 H   0  0  0  0  0  0  0  0  0  0  0  0
  142.8414   67.2859  219.0179 H   0  0  0  0  0  0  0  0  0  0  0  0
  141.8523   69.6376  219.0868 H   0  0  0  0  0  0  0  0  0  0  0  0
  142.5348   69.4296  220.7496 H   0  0  0  0  0  0  0  0  0  0  0  0
  137.9683   70.7567  223.8248 H   0  0  0  0  0  0  0  0  0  0  0  0
  138.5722   70.7021  222.1705 H   0  0  0  0  0  0  0  0  0  0  0  0
  138.5274   68.3732  223.1241 H   0  0  0  0  0  0  0  0  0  0  0  0
  140.2168   68.8344  222.8926 H   0  0  0  0  0  0  0  0  0  0  0  0
  138.8200   66.9155  224.9351 H   0  0  0  0  0  0  0  0  0  0  0  0
  139.1660   66.7014  227.4113 H   0  0  0  0  0  0  0  0  0  0  0  0
  140.0278   68.6080  228.7369 H   0  0  0  0  0  0  0  0  0  0  0  0
  140.5736   70.7728  227.6241 H   0  0  0  0  0  0  0  0  0  0  0  0
  139.7698   72.1456  225.5334 H   0  0  0  0  0  0  0  0  0  0  0  0
  141.4142   71.5166  225.1269 H   0  0  0  0  0  0  0  0  0  0  0  0
  139.1602   78.0108  221.5786 H   0  0  0  0  0  0  0  0  0  0  0  0
  142.0510   77.6648  220.6933 H   0  0  0  0  0  0  0  0  0  0  0  0
  140.6167   77.9643  219.6828 H   0  0  0  0  0  0  0  0  0  0  0  0
  141.7532   80.1011  219.9294 H   0  0  0  0  0  0  0  0  0  0  0  0
  140.3247   80.1892  220.9821 H   0  0  0  0  0  0  0  0  0  0  0  0
  143.2396   79.6935  221.7113 H   0  0  0  0  0  0  0  0  0  0  0  0
  142.0477   80.8758  222.4153 H   0  0  0  0  0  0  0  0  0  0  0  0
  142.5890   78.1860  223.2160 H   0  0  0  0  0  0  0  0  0  0  0  0
  140.4807   77.6701  223.8788 H   0  0  0  0  0  0  0  0  0  0  0  0
  139.8895   79.2571  223.1581 H   0  0  0  0  0  0  0  0  0  0  0  0
  1  2  2  0
  2  3  1  0
  3  4  1  0
  4  5  2  0
  5  6  1  0
  6  7  1  0
  7  8  1  0
  8  9  1  0
  9 10  1  0
 10 11  2  0
 11 12  1  0
 12 13  2  0
 13 14  1  0
 14 15  2  0
 15 16  1  0
  6 17  2  0
 17 18  1  0
 18 19  1  0
 19 20  1  0
 20 21  1  0
 21 22  1  0
 22 23  2  0
 23 24  1  0
 24 25  2  0
 25 26  1  0
 26 27  2  0
 27 28  1  0
 18 29  2  0
  2 30  1  0
 30 31  1  0
 31 32  1  0
 32 33  1  0
 33 34  1  0
 34 35  1  0
 29  4  1  0
 35 30  1  0
 16  7  1  0
 28 19  1  0
 15 10  1  0
 27 22  1  0
  3 36  1  0
  8 37  1  0
  8 38  1  0
  9 39  1  0
  9 40  1  0
 11 41  1  0
 12 42  1  0
 13 43  1  0
 14 44  1  0
 16 45  1  0
 16 46  1  0
 20 47  1  0
 20 48  1  0
 21 49  1  0
 21 50  1  0
 23 51  1  0
 24 52  1  0
 25 53  1  0
 26 54  1  0
 28 55  1  0
 28 56  1  0
 30 57  1  6
 31 58  1  0
 31 59  1  0
 32 60  1  0
 32 61  1  0
 33 62  1  0
 33 63  1  0
 34 64  1  0
 35 65  1  0
 35 66  1  0
M  END
>  <smiles>  (26) 
O=C(Nc1nc(N2CCc3ccccc3C2)nc(N2CCc3ccccc3C2)n1)C1CCCNC1

>  <score_type>  (26) 
oracle

>  <origin>  (26) 
autodockgpu

>  <m_score__min__energy>  (26) 
-10.140000000000001

>  <m_primary>  (26) 
energy

>  <rmsd>  (26) 
4.5726008641167795

>  <m_score__min__rmsd>  (26) 
4.5726008641167795

>  <meeko>  (26) 
{"free_energy": -10.01, "intermolecular_energy": -11.2, "internal_energy": -0.87, "cluster_size": 37, "cluster_id": 1, "rank_in_cluster": 22}

>  <energy>  (26) 
-9.99

>  <cluster_rmsd>  (26) 
0.38

>  <cluster>  (26) 
1

$$$$

     RDKit          3D

 66 71  0  0  1  0  0  0  0  0999 V2000
  139.1760   75.5920  222.3740 O   0  0  0  0  0  0  0  0  0  0  0  0
  140.1730   76.2250  221.9440 C   0  0  0  0  0  0  0  0  0  0  0  0
  141.3100   75.4600  221.5740 N   0  0  0  0  0  0  0  0  0  0  0  0
  141.3640   74.0420  221.6660 C   0  0  0  0  0  0  0  0  0  0  0  0
  140.7450   73.3960  222.6720 N   0  0  0  0  0  0  0  0  0  0  0  0
  140.8210   72.0340  222.7250 C   0  0  0  0  0  0  0  0  0  0  0  0
  140.1750   71.3380  223.7760 N   0  0  0  0  0  0  0  0  0  0  0  0
  139.0250   70.5060  223.4770 C   0  0  0  0  0  0  0  0  0  0  0  0
  139.3700   69.0950  223.9350 C   0  0  0  0  0  0  0  0  0  0  0  0
  139.6560   69.2020  225.3980 C   0  0  0  0  0  0  0  0  0  0  0  0
  139.2800   68.1210  226.1990 C   0  0  0  0  0  0  0  0  0  0  0  0
  139.5420   68.2140  227.5490 C   0  0  0  0  0  0  0  0  0  0  0  0
  140.1470   69.3170  228.1110 C   0  0  0  0  0  0  0  0  0  0  0  0
  140.5210   70.3910  227.3150 C   0  0  0  0  0  0  0  0  0  0  0  0
  140.2620   70.3050  225.9560 C   0  0  0  0  0  0  0  0  0  0  0  0
  140.6690   71.4650  225.1250 C   0  0  0  0  0  0  0  0  0  0  0  0
  141.5110   71.3640  221.7730 N   0  0  0  0  0  0  0  0  0  0  0  0
  142.1350   71.9990  220.7650 C   0  0  0  0  0  0  0  0  0  0  0  0
  142.8370   71.2150  219.8080 N   0  0  0  0  0  0  0  0  0  0  0  0
  143.7810   71.8760  218.9250 C   0  0  0  0  0  0  0  0  0  0  0  0
  145.1500   71.3380  219.3480 C   0  0  0  0  0  0  0  0  0  0  0  0
  145.1030   69.8660  219.0580 C   0  0  0  0  0  0  0  0  0  0  0  0
  146.2760   69.2720  218.6380 C   0  0  0  0  0  0  0  0  0  0  0  0
  146.2400   67.9020  218.3670 C   0  0  0  0  0  0  0  0  0  0  0  0
  145.0660   67.1700  218.5160 C   0  0  0  0  0  0  0  0  0  0  0  0
  143.9020   67.7850  218.9390 C   0  0  0  0  0  0  0  0  0  0  0  0
  143.9420   69.1370  219.2050 C   0  0  0  0  0  0  0  0  0  0  0  0
  142.6640   69.7890  219.6640 C   0  0  0  0  0  0  0  0  0  0  0  0
  142.0510   73.3270  220.7270 N   0  0  0  0  0  0  0  0  0  0  0  0
  140.2050   77.7070  221.8140 C   0  0  2  0  0  0  0  0  0  0  0  0
  141.0700   78.1450  220.6530 C   0  0  0  0  0  0  0  0  0  0  0  0
  141.2820   79.6390  220.7880 C   0  0  0  0  0  0  0  0  0  0  0  0
  142.2200   79.8430  221.9710 C   0  0  0  0  0  0  0  0  0  0  0  0
  141.9350   78.9550  223.0620 N   0  0  0  0  0  0  0  0  0  0  0  0
  140.6050   78.4190  223.0620 C   0  0  0  0  0  0  0  0  0  0  0  0
  142.1710   75.9300  221.2090 H   0  0  0  0  0  0  0  0  0  0  0  0
  138.1408   70.8739  224.0181 H   0  0  0  0  0  0  0  0  0  0  0  0
  138.7930   70.5258  222.4019 H   0  0  0  0  0  0  0  0  0  0  0  0
  138.5221   68.4167  223.7588 H   0  0  0  0  0  0  0  0  0  0  0  0
  140.2297   68.6881  223.3824 H   0  0  0  0  0  0  0  0  0  0  0  0
  138.7947   67.2320  225.7699 H   0  0  0  0  0  0  0  0  0  0  0  0
  139.2574   67.3761  228.2023 H   0  0  0  0  0  0  0  0  0  0  0  0
  140.3343   69.3466  229.1945 H   0  0  0  0  0  0  0  0  0  0  0  0
  141.0057   71.2788  227.7474 H   0  0  0  0  0  0  0  0  0  0  0  0
  140.2638   72.3855  225.5705 H   0  0  0  0  0  0  0  0  0  0  0  0
  141.7679   71.5018  225.0919 H   0  0  0  0  0  0  0  0  0  0  0  0
  143.5724   71.6234  217.8749 H   0  0  0  0  0  0  0  0  0  0  0  0
  143.7233   72.9720  218.9991 H   0  0  0  0  0  0  0  0  0  0  0  0
  145.9499   71.8200  218.7668 H   0  0  0  0  0  0  0  0  0  0  0  0
  145.3610   71.5409  220.4083 H   0  0  0  0  0  0  0  0  0  0  0  0
  147.2021   69.8540  218.5213 H   0  0  0  0  0  0  0  0  0  0  0  0
  147.1553   67.3933  218.0301 H   0  0  0  0  0  0  0  0  0  0  0  0
  145.0639   66.0924  218.2953 H   0  0  0  0  0  0  0  0  0  0  0  0
  142.9709   67.2119  219.0597 H   0  0  0  0  0  0  0  0  0  0  0  0
  141.8742   69.5948  218.9233 H   0  0  0  0  0  0  0  0  0  0  0  0
  142.3855   69.3679  220.6413 H   0  0  0  0  0  0  0  0  0  0  0  0
  139.1632   77.9985  221.6147 H   0  0  0  0  0  0  0  0  0  0  0  0
  142.0376   77.6229  220.6865 H   0  0  0  0  0  0  0  0  0  0  0  0
  140.5863   77.9052  219.6946 H   0  0  0  0  0  0  0  0  0  0  0  0
  141.7358   80.0419  219.8705 H   0  0  0  0  0  0  0  0  0  0  0  0
  140.3269   80.1615  220.9457 H   0  0  0  0  0  0  0  0  0  0  0  0
  143.2530   79.6685  221.6355 H   0  0  0  0  0  0  0  0  0  0  0  0
  142.0791   80.8718  222.3338 H   0  0  0  0  0  0  0  0  0  0  0  0
  142.6230   78.1990  223.1860 H   0  0  0  0  0  0  0  0  0  0  0  0
  140.5245   77.7095  223.8987 H   0  0  0  0  0  0  0  0  0  0  0  0
  139.9290   79.2823  223.1497 H   0  0  0  0  0  0  0  0  0  0  0  0
  1  2  2  0
  2  3  1  0
  3  4  1  0
  4  5  2  0
  5  6  1  0
  6  7  1  0
  7  8  1  0
  8  9  1  0
  9 10  1  0
 10 11  2  0
 11 12  1  0
 12 13  2  0
 13 14  1  0
 14 15  2  0
 15 16  1  0
  6 17  2  0
 17 18  1  0
 18 19  1  0
 19 20  1  0
 20 21  1  0
 21 22  1  0
 22 23  2  0
 23 24  1  0
 24 25  2  0
 25 26  1  0
 26 27  2  0
 27 28  1  0
 18 29  2  0
  2 30  1  0
 30 31  1  0
 31 32  1  0
 32 33  1  0
 33 34  1  0
 34 35  1  0
 29  4  1  0
 35 30  1  0
 16  7  1  0
 28 19  1  0
 15 10  1  0
 27 22  1  0
  3 36  1  0
  8 37  1  0
  8 38  1  0
  9 39  1  0
  9 40  1  0
 11 41  1  0
 12 42  1  0
 13 43  1  0
 14 44  1  0
 16 45  1  0
 16 46  1  0
 20 47  1  0
 20 48  1  0
 21 49  1  0
 21 50  1  0
 23 51  1  0
 24 52  1  0
 25 53  1  0
 26 54  1  0
 28 55  1  0
 28 56  1  0
 30 57  1  6
 31 58  1  0
 31 59  1  0
 32 60  1  0
 32 61  1  0
 33 62  1  0
 33 63  1  0
 34 64  1  0
 35 65  1  0
 35 66  1  0
M  END
>  <smiles>  (27) 
O=C(Nc1nc(N2CCc3ccccc3C2)nc(N2CCc3ccccc3C2)n1)C1CCCNC1

>  <score_type>  (27) 
oracle

>  <origin>  (27) 
autodockgpu

>  <m_score__min__energy>  (27) 
-10.140000000000001

>  <m_primary>  (27) 
energy

>  <rmsd>  (27) 
4.558535969072856

>  <m_score__min__rmsd>  (27) 
4.558535969072856

>  <meeko>  (27) 
{"free_energy": -10.08, "intermolecular_energy": -11.27, "internal_energy": -0.86, "cluster_size": 37, "cluster_id": 1, "rank_in_cluster": 15}

>  <energy>  (27) 
-9.98

>  <cluster_rmsd>  (27) 
0.42

>  <cluster>  (27) 
1

$$$$

     RDKit          3D

 66 71  0  0  1  0  0  0  0  0999 V2000
  139.0580   75.5490  222.0420 O   0  0  0  0  0  0  0  0  0  0  0  0
  140.0790   76.2240  221.7570 C   0  0  0  0  0  0  0  0  0  0  0  0
  141.2780   75.5030  221.5130 N   0  0  0  0  0  0  0  0  0  0  0  0
  141.3660   74.0850  221.5740 C   0  0  0  0  0  0  0  0  0  0  0  0
  142.1180   73.4060  220.6880 N   0  0  0  0  0  0  0  0  0  0  0  0
  142.1770   72.0460  220.7810 C   0  0  0  0  0  0  0  0  0  0  0  0
  142.9630   71.3150  219.8570 N   0  0  0  0  0  0  0  0  0  0  0  0
  143.9420   72.0130  219.0470 C   0  0  0  0  0  0  0  0  0  0  0  0
  145.2970   71.3870  219.3530 C   0  0  0  0  0  0  0  0  0  0  0  0
  145.1630   69.9410  218.9980 C   0  0  0  0  0  0  0  0  0  0  0  0
  146.2910   69.3100  218.4700 C   0  0  0  0  0  0  0  0  0  0  0  0
  146.1740   67.9760  218.1420 C   0  0  0  0  0  0  0  0  0  0  0  0
  145.0030   67.2720  218.3180 C   0  0  0  0  0  0  0  0  0  0  0  0
  143.8820   67.8980  218.8440 C   0  0  0  0  0  0  0  0  0  0  0  0
  143.9920   69.2390  219.1770 C   0  0  0  0  0  0  0  0  0  0  0  0
  142.7810   69.8890  219.7360 C   0  0  0  0  0  0  0  0  0  0  0  0
  141.4830   71.4100  221.7540 N   0  0  0  0  0  0  0  0  0  0  0  0
  140.7280   72.0790  222.6440 C   0  0  0  0  0  0  0  0  0  0  0  0
  140.0330   71.3300  223.6330 N   0  0  0  0  0  0  0  0  0  0  0  0
  138.8860   70.5370  223.2280 C   0  0  0  0  0  0  0  0  0  0  0  0
  139.3270   69.0860  223.4290 C   0  0  0  0  0  0  0  0  0  0  0  0
  139.5660   68.9450  224.9030 C   0  0  0  0  0  0  0  0  0  0  0  0
  139.2590   67.7270  225.4760 C   0  0  0  0  0  0  0  0  0  0  0  0
  139.4800   67.5900  226.8480 C   0  0  0  0  0  0  0  0  0  0  0  0
  139.9880   68.6410  227.6040 C   0  0  0  0  0  0  0  0  0  0  0  0
  140.2900   69.8530  227.0110 C   0  0  0  0  0  0  0  0  0  0  0  0
  140.0710   69.9850  225.6570 C   0  0  0  0  0  0  0  0  0  0  0  0
  140.4040   71.3130  225.0280 C   0  0  0  0  0  0  0  0  0  0  0  0
  140.6810   73.4050  222.5400 N   0  0  0  0  0  0  0  0  0  0  0  0
  140.0800   77.7100  221.6710 C   0  0  2  0  0  0  0  0  0  0  0  0
  140.4220   78.1860  220.2770 C   0  0  0  0  0  0  0  0  0  0  0  0
  140.6920   79.6740  220.3640 C   0  0  0  0  0  0  0  0  0  0  0  0
  142.0230   79.8360  221.0850 C   0  0  0  0  0  0  0  0  0  0  0  0
  142.1800   78.9120  222.1710 N   0  0  0  0  0  0  0  0  0  0  0  0
  140.9500   78.3770  222.6810 C   0  0  0  0  0  0  0  0  0  0  0  0
  142.1620   76.0080  221.2710 H   0  0  0  0  0  0  0  0  0  0  0  0
  143.7032   71.8951  217.9797 H   0  0  0  0  0  0  0  0  0  0  0  0
  143.9453   73.0893  219.2739 H   0  0  0  0  0  0  0  0  0  0  0  0
  146.0837   71.8596  218.7466 H   0  0  0  0  0  0  0  0  0  0  0  0
  145.5781   71.5221  220.4078 H   0  0  0  0  0  0  0  0  0  0  0  0
  147.2349   69.8551  218.3217 H   0  0  0  0  0  0  0  0  0  0  0  0
  147.0479   67.4546  217.7244 H   0  0  0  0  0  0  0  0  0  0  0  0
  144.9565   66.2087  218.0402 H   0  0  0  0  0  0  0  0  0  0  0  0
  142.9398   67.3498  218.9914 H   0  0  0  0  0  0  0  0  0  0  0  0
  141.9280   69.6914  219.0702 H   0  0  0  0  0  0  0  0  0  0  0  0
  142.5948   69.4754  220.7381 H   0  0  0  0  0  0  0  0  0  0  0  0
  138.0133   70.7679  223.8566 H   0  0  0  0  0  0  0  0  0  0  0  0
  138.5848   70.7406  222.1898 H   0  0  0  0  0  0  0  0  0  0  0  0
  138.5380   68.3943  223.0988 H   0  0  0  0  0  0  0  0  0  0  0  0
  140.2265   68.8461  222.8431 H   0  0  0  0  0  0  0  0  0  0  0  0
  138.8565   66.8977  224.8758 H   0  0  0  0  0  0  0  0  0  0  0  0
  139.2481   66.6337  227.3396 H   0  0  0  0  0  0  0  0  0  0  0  0
  140.1510   68.5068  228.6835 H   0  0  0  0  0  0  0  0  0  0  0  0
  140.6934   70.6877  227.6030 H   0  0  0  0  0  0  0  0  0  0  0  0
  139.8575   72.1085  225.5557 H   0  0  0  0  0  0  0  0  0  0  0  0
  141.4891   71.4760  225.1050 H   0  0  0  0  0  0  0  0  0  0  0  0
  139.0490   78.0108  221.9086 H   0  0  0  0  0  0  0  0  0  0  0  0
  141.3163   77.6618  219.9088 H   0  0  0  0  0  0  0  0  0  0  0  0
  139.5957   77.9797  219.5808 H   0  0  0  0  0  0  0  0  0  0  0  0
  140.7522   80.1079  219.3550 H   0  0  0  0  0  0  0  0  0  0  0  0
  139.8847   80.1916  220.9028 H   0  0  0  0  0  0  0  0  0  0  0  0
  142.8366   79.6722  220.3631 H   0  0  0  0  0  0  0  0  0  0  0  0
  142.0515   80.8518  221.5061 H   0  0  0  0  0  0  0  0  0  0  0  0
  142.8490   78.1510  221.9890 H   0  0  0  0  0  0  0  0  0  0  0  0
  141.1966   77.6387  223.4582 H   0  0  0  0  0  0  0  0  0  0  0  0
  140.3763   79.2368  223.0573 H   0  0  0  0  0  0  0  0  0  0  0  0
  1  2  2  0
  2  3  1  0
  3  4  1  0
  4  5  2  0
  5  6  1  0
  6  7  1  0
  7  8  1  0
  8  9  1  0
  9 10  1  0
 10 11  2  0
 11 12  1  0
 12 13  2  0
 13 14  1  0
 14 15  2  0
 15 16  1  0
  6 17  2  0
 17 18  1  0
 18 19  1  0
 19 20  1  0
 20 21  1  0
 21 22  1  0
 22 23  2  0
 23 24  1  0
 24 25  2  0
 25 26  1  0
 26 27  2  0
 27 28  1  0
 18 29  2  0
  2 30  1  0
 30 31  1  0
 31 32  1  0
 32 33  1  0
 33 34  1  0
 34 35  1  0
 29  4  1  0
 35 30  1  0
 16  7  1  0
 28 19  1  0
 15 10  1  0
 27 22  1  0
  3 36  1  0
  8 37  1  0
  8 38  1  0
  9 39  1  0
  9 40  1  0
 11 41  1  0
 12 42  1  0
 13 43  1  0
 14 44  1  0
 16 45  1  0
 16 46  1  0
 20 47  1  0
 20 48  1  0
 21 49  1  0
 21 50  1  0
 23 51  1  0
 24 52  1  0
 25 53  1  0
 26 54  1  0
 28 55  1  0
 28 56  1  0
 30 57  1  1
 31 58  1  0
 31 59  1  0
 32 60  1  0
 32 61  1  0
 33 62  1  0
 33 63  1  0
 34 64  1  0
 35 65  1  0
 35 66  1  0
M  END
>  <smiles>  (28) 
O=C(Nc1nc(N2CCc3ccccc3C2)nc(N2CCc3ccccc3C2)n1)C1CCCNC1

>  <score_type>  (28) 
oracle

>  <origin>  (28) 
autodockgpu

>  <m_score__min__energy>  (28) 
-10.140000000000001

>  <m_primary>  (28) 
energy

>  <rmsd>  (28) 
4.2925676088303595

>  <m_score__min__rmsd>  (28) 
4.2925676088303595

>  <meeko>  (28) 
{"free_energy": -9.79, "intermolecular_energy": -10.98, "internal_energy": -0.93, "cluster_size": 37, "cluster_id": 1, "rank_in_cluster": 35}

>  <energy>  (28) 
-9.98

>  <cluster_rmsd>  (28) 
0.28

>  <cluster>  (28) 
1

$$$$

     RDKit          3D

 66 71  0  0  1  0  0  0  0  0999 V2000
  144.3730   71.8960  220.6140 O   0  0  0  0  0  0  0  0  0  0  0  0
  143.7500   71.2370  219.7440 C   0  0  0  0  0  0  0  0  0  0  0  0
  142.3320   71.2520  219.8190 N   0  0  0  0  0  0  0  0  0  0  0  0
  141.6080   71.9680  220.8130 C   0  0  0  0  0  0  0  0  0  0  0  0
  141.1640   71.3440  221.9190 N   0  0  0  0  0  0  0  0  0  0  0  0
  140.4730   72.0660  222.8490 C   0  0  0  0  0  0  0  0  0  0  0  0
  139.9970   71.4260  224.0200 N   0  0  0  0  0  0  0  0  0  0  0  0
  138.7720   70.6510  223.9600 C   0  0  0  0  0  0  0  0  0  0  0  0
  139.1250   69.2320  224.3870 C   0  0  0  0  0  0  0  0  0  0  0  0
  139.6780   69.3520  225.7700 C   0  0  0  0  0  0  0  0  0  0  0  0
  139.4020   68.3080  226.6570 C   0  0  0  0  0  0  0  0  0  0  0  0
  139.9110   68.4130  227.9330 C   0  0  0  0  0  0  0  0  0  0  0  0
  140.6630   69.4910  228.3430 C   0  0  0  0  0  0  0  0  0  0  0  0
  140.9380   70.5280  227.4630 C   0  0  0  0  0  0  0  0  0  0  0  0
  140.4310   70.4310  226.1770 C   0  0  0  0  0  0  0  0  0  0  0  0
  140.7360   71.5510  225.2520 C   0  0  0  0  0  0  0  0  0  0  0  0
  140.2500   73.3850  222.6440 N   0  0  0  0  0  0  0  0  0  0  0  0
  140.6890   74.0180  221.5410 C   0  0  0  0  0  0  0  0  0  0  0  0
  140.4100   75.4060  221.4060 N   0  0  0  0  0  0  0  0  0  0  0  0
  139.0250   75.8420  221.4180 C   0  0  0  0  0  0  0  0  0  0  0  0
  138.8820   76.6430  222.7140 C   0  0  0  0  0  0  0  0  0  0  0  0
  139.8000   77.8200  222.5550 C   0  0  0  0  0  0  0  0  0  0  0  0
  139.3960   79.0120  223.1200 C   0  0  0  0  0  0  0  0  0  0  0  0
  140.2460   80.1110  222.9760 C   0  0  0  0  0  0  0  0  0  0  0  0
  141.4500   80.0040  222.2880 C   0  0  0  0  0  0  0  0  0  0  0  0
  141.8370   78.8000  221.7290 C   0  0  0  0  0  0  0  0  0  0  0  0
  140.9950   77.7180  221.8730 C   0  0  0  0  0  0  0  0  0  0  0  0
  141.4320   76.4140  221.2570 C   0  0  0  0  0  0  0  0  0  0  0  0
  141.3610   73.3000  220.6440 N   0  0  0  0  0  0  0  0  0  0  0  0
  144.4240   70.4590  218.6690 C   0  0  2  0  0  0  0  0  0  0  0  0
  143.6190   69.2410  218.2760 C   0  0  0  0  0  0  0  0  0  0  0  0
  144.5120   68.3700  217.4160 C   0  0  0  0  0  0  0  0  0  0  0  0
  145.5590   67.7670  218.3420 C   0  0  0  0  0  0  0  0  0  0  0  0
  146.0300   68.6990  219.3260 N   0  0  0  0  0  0  0  0  0  0  0  0
  145.8310   70.0780  218.9840 C   0  0  0  0  0  0  0  0  0  0  0  0
  141.7570   70.7230  219.1240 H   0  0  0  0  0  0  0  0  0  0  0  0
  138.0217   71.0760  224.6429 H   0  0  0  0  0  0  0  0  0  0  0  0
  138.3478   70.6629  222.9452 H   0  0  0  0  0  0  0  0  0  0  0  0
  138.2270   68.5967  224.3867 H   0  0  0  0  0  0  0  0  0  0  0  0
  139.8479   68.7689  223.6993 H   0  0  0  0  0  0  0  0  0  0  0  0
  138.8030   67.4382  226.3491 H   0  0  0  0  0  0  0  0  0  0  0  0
  139.7089   67.6049  228.6514 H   0  0  0  0  0  0  0  0  0  0  0  0
  141.0475   69.5303  229.3729 H   0  0  0  0  0  0  0  0  0  0  0  0
  141.5371   71.3961  227.7751 H   0  0  0  0  0  0  0  0  0  0  0  0
  140.4665   72.5007  225.7373 H   0  0  0  0  0  0  0  0  0  0  0  0
  141.8105   71.5264  225.0176 H   0  0  0  0  0  0  0  0  0  0  0  0
  138.8100   76.4753  220.5447 H   0  0  0  0  0  0  0  0  0  0  0  0
  138.3220   74.9973  221.3707 H   0  0  0  0  0  0  0  0  0  0  0  0
  137.8432   76.9796  222.8464 H   0  0  0  0  0  0  0  0  0  0  0  0
  139.1364   76.0408  223.5987 H   0  0  0  0  0  0  0  0  0  0  0  0
  138.4425   79.0937  223.6623 H   0  0  0  0  0  0  0  0  0  0  0  0
  139.9581   81.0779  223.4144 H   0  0  0  0  0  0  0  0  0  0  0  0
  142.1004   80.8854  222.1876 H   0  0  0  0  0  0  0  0  0  0  0  0
  142.7888   78.7082  221.1853 H   0  0  0  0  0  0  0  0  0  0  0  0
  141.6305   76.5701  220.1864 H   0  0  0  0  0  0  0  0  0  0  0  0
  142.3421   76.0703  221.7704 H   0  0  0  0  0  0  0  0  0  0  0  0
  144.4773   71.1450  217.8107 H   0  0  0  0  0  0  0  0  0  0  0  0
  143.3078   68.6891  219.1752 H   0  0  0  0  0  0  0  0  0  0  0  0
  142.7129   69.5337  217.7253 H   0  0  0  0  0  0  0  0  0  0  0  0
  143.9208   67.5725  216.9421 H   0  0  0  0  0  0  0  0  0  0  0  0
  144.9841   68.9574  216.6147 H   0  0  0  0  0  0  0  0  0  0  0  0
  145.1159   66.9031  218.8591 H   0  0  0  0  0  0  0  0  0  0  0  0
  146.4199   67.4730  217.7236 H   0  0  0  0  0  0  0  0  0  0  0  0
  145.6890   68.5170  220.2810 H   0  0  0  0  0  0  0  0  0  0  0  0
  146.1672   70.6909  219.8333 H   0  0  0  0  0  0  0  0  0  0  0  0
  146.4065   70.2493  218.0624 H   0  0  0  0  0  0  0  0  0  0  0  0
  1  2  2  0
  2  3  1  0
  3  4  1  0
  4  5  2  0
  5  6  1  0
  6  7  1  0
  7  8  1  0
  8  9  1  0
  9 10  1  0
 10 11  2  0
 11 12  1  0
 12 13  2  0
 13 14  1  0
 14 15  2  0
 15 16  1  0
  6 17  2  0
 17 18  1  0
 18 19  1  0
 19 20  1  0
 20 21  1  0
 21 22  1  0
 22 23  2  0
 23 24  1  0
 24 25  2  0
 25 26  1  0
 26 27  2  0
 27 28  1  0
 18 29  2  0
  2 30  1  0
 30 31  1  0
 31 32  1  0
 32 33  1  0
 33 34  1  0
 34 35  1  0
 29  4  1  0
 35 30  1  0
 16  7  1  0
 28 19  1  0
 15 10  1  0
 27 22  1  0
  3 36  1  0
  8 37  1  0
  8 38  1  0
  9 39  1  0
  9 40  1  0
 11 41  1  0
 12 42  1  0
 13 43  1  0
 14 44  1  0
 16 45  1  0
 16 46  1  0
 20 47  1  0
 20 48  1  0
 21 49  1  0
 21 50  1  0
 23 51  1  0
 24 52  1  0
 25 53  1  0
 26 54  1  0
 28 55  1  0
 28 56  1  0
 30 57  1  6
 31 58  1  0
 31 59  1  0
 32 60  1  0
 32 61  1  0
 33 62  1  0
 33 63  1  0
 34 64  1  0
 35 65  1  0
 35 66  1  0
M  END
>  <smiles>  (29) 
O=C(Nc1nc(N2CCc3ccccc3C2)nc(N2CCc3ccccc3C2)n1)C1CCCNC1

>  <score_type>  (29) 
oracle

>  <origin>  (29) 
autodockgpu

>  <m_score__min__energy>  (29) 
-10.140000000000001

>  <m_primary>  (29) 
energy

>  <rmsd>  (29) 
8.428542469171726

>  <m_score__min__rmsd>  (29) 
8.428542469171726

>  <meeko>  (29) 
{"free_energy": -9.94, "intermolecular_energy": -11.14, "internal_energy": -0.86, "cluster_size": 12, "cluster_id": 2, "rank_in_cluster": 4}

>  <energy>  (29) 
-9.95

>  <cluster_rmsd>  (29) 
0.26

>  <cluster>  (29) 
1

$$$$

     RDKit          3D

 66 71  0  0  1  0  0  0  0  0999 V2000
  144.3470   71.8370  220.6570 O   0  0  0  0  0  0  0  0  0  0  0  0
  143.7210   71.2080  219.7680 C   0  0  0  0  0  0  0  0  0  0  0  0
  142.3030   71.2540  219.8230 N   0  0  0  0  0  0  0  0  0  0  0  0
  141.5810   71.9680  220.8190 C   0  0  0  0  0  0  0  0  0  0  0  0
  141.1410   71.3440  221.9260 N   0  0  0  0  0  0  0  0  0  0  0  0
  140.4520   72.0650  222.8590 C   0  0  0  0  0  0  0  0  0  0  0  0
  139.9800   71.4250  224.0310 N   0  0  0  0  0  0  0  0  0  0  0  0
  138.7580   70.6450  223.9730 C   0  0  0  0  0  0  0  0  0  0  0  0
  139.1170   69.2280  224.4020 C   0  0  0  0  0  0  0  0  0  0  0  0
  139.6720   69.3520  225.7840 C   0  0  0  0  0  0  0  0  0  0  0  0
  139.4020   68.3090  226.6720 C   0  0  0  0  0  0  0  0  0  0  0  0
  139.9120   68.4170  227.9480 C   0  0  0  0  0  0  0  0  0  0  0  0
  140.6600   69.4990  228.3560 C   0  0  0  0  0  0  0  0  0  0  0  0
  140.9290   70.5360  227.4740 C   0  0  0  0  0  0  0  0  0  0  0  0
  140.4210   70.4350  226.1880 C   0  0  0  0  0  0  0  0  0  0  0  0
  140.7200   71.5550  225.2620 C   0  0  0  0  0  0  0  0  0  0  0  0
  140.2260   73.3840  222.6530 N   0  0  0  0  0  0  0  0  0  0  0  0
  140.6620   74.0180  221.5490 C   0  0  0  0  0  0  0  0  0  0  0  0
  140.3810   75.4050  221.4150 N   0  0  0  0  0  0  0  0  0  0  0  0
  138.9950   75.8390  221.4230 C   0  0  0  0  0  0  0  0  0  0  0  0
  138.8470   76.6390  222.7200 C   0  0  0  0  0  0  0  0  0  0  0  0
  139.7630   77.8170  222.5640 C   0  0  0  0  0  0  0  0  0  0  0  0
  139.3550   79.0080  223.1300 C   0  0  0  0  0  0  0  0  0  0  0  0
  140.2040   80.1090  222.9900 C   0  0  0  0  0  0  0  0  0  0  0  0
  141.4100   80.0040  222.3050 C   0  0  0  0  0  0  0  0  0  0  0  0
  141.8010   78.8010  221.7460 C   0  0  0  0  0  0  0  0  0  0  0  0
  140.9610   77.7180  221.8870 C   0  0  0  0  0  0  0  0  0  0  0  0
  141.4010   76.4160  221.2700 C   0  0  0  0  0  0  0  0  0  0  0  0
  141.3320   73.3010  220.6500 N   0  0  0  0  0  0  0  0  0  0  0  0
  144.3930   70.4330  218.6880 C   0  0  2  0  0  0  0  0  0  0  0  0
  143.5970   69.2040  218.3080 C   0  0  0  0  0  0  0  0  0  0  0  0
  144.4910   68.3400  217.4420 C   0  0  0  0  0  0  0  0  0  0  0  0
  145.5540   67.7520  218.3600 C   0  0  0  0  0  0  0  0  0  0  0  0
  146.0240   68.6930  219.3360 N   0  0  0  0  0  0  0  0  0  0  0  0
  145.8070   70.0690  218.9910 C   0  0  0  0  0  0  0  0  0  0  0  0
  141.7260   70.7490  219.1110 H   0  0  0  0  0  0  0  0  0  0  0  0
  138.0064   71.0680  224.6558 H   0  0  0  0  0  0  0  0  0  0  0  0
  138.3331   70.6536  222.9584 H   0  0  0  0  0  0  0  0  0  0  0  0
  138.2213   68.5895  224.4043 H   0  0  0  0  0  0  0  0  0  0  0  0
  139.8406   68.7666  223.7139 H   0  0  0  0  0  0  0  0  0  0  0  0
  138.8064   67.4364  226.3657 H   0  0  0  0  0  0  0  0  0  0  0  0
  139.7142   67.6087  228.6674 H   0  0  0  0  0  0  0  0  0  0  0  0
  141.0458   69.5414  229.3853 H   0  0  0  0  0  0  0  0  0  0  0  0
  141.5243   71.4074  227.7843 H   0  0  0  0  0  0  0  0  0  0  0  0
  140.4467   72.5040  225.7465 H   0  0  0  0  0  0  0  0  0  0  0  0
  141.7943   71.5353  225.0266 H   0  0  0  0  0  0  0  0  0  0  0  0
  138.7817   76.4728  220.5496 H   0  0  0  0  0  0  0  0  0  0  0  0
  138.2933   74.9934  221.3727 H   0  0  0  0  0  0  0  0  0  0  0  0
  137.8073   76.9737  222.8499 H   0  0  0  0  0  0  0  0  0  0  0  0
  139.0999   76.0367  223.6050 H   0  0  0  0  0  0  0  0  0  0  0  0
  138.3998   79.0872  223.6697 H   0  0  0  0  0  0  0  0  0  0  0  0
  139.9137   81.0750  223.4289 H   0  0  0  0  0  0  0  0  0  0  0  0
  142.0592   80.8866  222.2069 H   0  0  0  0  0  0  0  0  0  0  0  0
  142.7545   78.7114  221.2048 H   0  0  0  0  0  0  0  0  0  0  0  0
  141.6013   76.5743  220.2000 H   0  0  0  0  0  0  0  0  0  0  0  0
  142.3104   76.0733  221.7853 H   0  0  0  0  0  0  0  0  0  0  0  0
  144.4301   71.1155  217.8262 H   0  0  0  0  0  0  0  0  0  0  0  0
  143.3014   68.6521  219.2125 H   0  0  0  0  0  0  0  0  0  0  0  0
  142.6818   69.4843  217.7660 H   0  0  0  0  0  0  0  0  0  0  0  0
  143.9041   67.5343  216.9768 H   0  0  0  0  0  0  0  0  0  0  0  0
  144.9485   68.9297  216.6339 H   0  0  0  0  0  0  0  0  0  0  0  0
  145.1258   66.8851  218.8845 H   0  0  0  0  0  0  0  0  0  0  0  0
  146.4121   67.4653  217.7343 H   0  0  0  0  0  0  0  0  0  0  0  0
  145.6950   68.5120  220.2950 H   0  0  0  0  0  0  0  0  0  0  0  0
  146.1444   70.6886  219.8350 H   0  0  0  0  0  0  0  0  0  0  0  0
  146.3722   70.2436  218.0636 H   0  0  0  0  0  0  0  0  0  0  0  0
  1  2  2  0
  2  3  1  0
  3  4  1  0
  4  5  2  0
  5  6  1  0
  6  7  1  0
  7  8  1  0
  8  9  1  0
  9 10  1  0
 10 11  2  0
 11 12  1  0
 12 13  2  0
 13 14  1  0
 14 15  2  0
 15 16  1  0
  6 17  2  0
 17 18  1  0
 18 19  1  0
 19 20  1  0
 20 21  1  0
 21 22  1  0
 22 23  2  0
 23 24  1  0
 24 25  2  0
 25 26  1  0
 26 27  2  0
 27 28  1  0
 18 29  2  0
  2 30  1  0
 30 31  1  0
 31 32  1  0
 32 33  1  0
 33 34  1  0
 34 35  1  0
 29  4  1  0
 35 30  1  0
 16  7  1  0
 28 19  1  0
 15 10  1  0
 27 22  1  0
  3 36  1  0
  8 37  1  0
  8 38  1  0
  9 39  1  0
  9 40  1  0
 11 41  1  0
 12 42  1  0
 13 43  1  0
 14 44  1  0
 16 45  1  0
 16 46  1  0
 20 47  1  0
 20 48  1  0
 21 49  1  0
 21 50  1  0
 23 51  1  0
 24 52  1  0
 25 53  1  0
 26 54  1  0
 28 55  1  0
 28 56  1  0
 30 57  1  6
 31 58  1  0
 31 59  1  0
 32 60  1  0
 32 61  1  0
 33 62  1  0
 33 63  1  0
 34 64  1  0
 35 65  1  0
 35 66  1  0
M  END
>  <smiles>  (30) 
O=C(Nc1nc(N2CCc3ccccc3C2)nc(N2CCc3ccccc3C2)n1)C1CCCNC1

>  <score_type>  (30) 
oracle

>  <origin>  (30) 
autodockgpu

>  <m_score__min__energy>  (30) 
-10.140000000000001

>  <m_primary>  (30) 
energy

>  <rmsd>  (30) 
8.439040470010259

>  <m_score__min__rmsd>  (30) 
8.439040470010259

>  <meeko>  (30) 
{"free_energy": -9.95, "intermolecular_energy": -11.14, "internal_energy": -0.86, "cluster_size": 12, "cluster_id": 2, "rank_in_cluster": 2}

>  <energy>  (30) 
-9.94

>  <cluster_rmsd>  (30) 
0.42

>  <cluster>  (30) 
1

$$$$

     RDKit          3D

 66 71  0  0  1  0  0  0  0  0999 V2000
  139.2500   75.5910  222.5670 O   0  0  0  0  0  0  0  0  0  0  0  0
  140.1750   76.2150  221.9900 C   0  0  0  0  0  0  0  0  0  0  0  0
  141.2530   75.4430  221.4820 N   0  0  0  0  0  0  0  0  0  0  0  0
  141.3240   74.0270  221.5970 C   0  0  0  0  0  0  0  0  0  0  0  0
  140.7270   73.3920  222.6210 N   0  0  0  0  0  0  0  0  0  0  0  0
  140.8190   72.0320  222.6950 C   0  0  0  0  0  0  0  0  0  0  0  0
  140.1970   71.3450  223.7660 N   0  0  0  0  0  0  0  0  0  0  0  0
  139.0370   70.5140  223.5020 C   0  0  0  0  0  0  0  0  0  0  0  0
  139.3900   69.1050  223.9620 C   0  0  0  0  0  0  0  0  0  0  0  0
  139.7100   69.2230  225.4180 C   0  0  0  0  0  0  0  0  0  0  0  0
  139.3510   68.1500  226.2360 C   0  0  0  0  0  0  0  0  0  0  0  0
  139.6450   68.2520  227.5780 C   0  0  0  0  0  0  0  0  0  0  0  0
  140.2660   69.3580  228.1160 C   0  0  0  0  0  0  0  0  0  0  0  0
  140.6240   70.4250  227.3040 C   0  0  0  0  0  0  0  0  0  0  0  0
  140.3330   70.3290  225.9520 C   0  0  0  0  0  0  0  0  0  0  0  0
  140.7230   71.4810  225.1020 C   0  0  0  0  0  0  0  0  0  0  0  0
  141.5030   71.3530  221.7440 N   0  0  0  0  0  0  0  0  0  0  0  0
  142.1030   71.9790  220.7160 C   0  0  0  0  0  0  0  0  0  0  0  0
  142.8010   71.1880  219.7620 N   0  0  0  0  0  0  0  0  0  0  0  0
  143.7370   71.8420  218.8660 C   0  0  0  0  0  0  0  0  0  0  0  0
  145.1090   71.3100  219.2840 C   0  0  0  0  0  0  0  0  0  0  0  0
  145.0630   69.8360  219.0080 C   0  0  0  0  0  0  0  0  0  0  0  0
  146.2340   69.2400  218.5840 C   0  0  0  0  0  0  0  0  0  0  0  0
  146.1980   67.8670  218.3260 C   0  0  0  0  0  0  0  0  0  0  0  0
  145.0270   67.1350  218.4900 C   0  0  0  0  0  0  0  0  0  0  0  0
  143.8640   67.7510  218.9160 C   0  0  0  0  0  0  0  0  0  0  0  0
  143.9040   69.1050  219.1690 C   0  0  0  0  0  0  0  0  0  0  0  0
  142.6290   69.7600  219.6310 C   0  0  0  0  0  0  0  0  0  0  0  0
  142.0050   73.3050  220.6580 N   0  0  0  0  0  0  0  0  0  0  0  0
  140.1840   77.6950  221.8250 C   0  0  2  0  0  0  0  0  0  0  0  0
  140.9560   78.1120  220.5940 C   0  0  0  0  0  0  0  0  0  0  0  0
  141.1630   79.6100  220.6800 C   0  0  0  0  0  0  0  0  0  0  0  0
  142.1850   79.8480  221.7840 C   0  0  0  0  0  0  0  0  0  0  0  0
  141.9910   78.9840  222.9120 N   0  0  0  0  0  0  0  0  0  0  0  0
  140.6690   78.4370  223.0240 C   0  0  0  0  0  0  0  0  0  0  0  0
  142.0530   75.9050  220.9920 H   0  0  0  0  0  0  0  0  0  0  0  0
  138.1676   70.8885  224.0623 H   0  0  0  0  0  0  0  0  0  0  0  0
  138.7779   70.5266  222.4330 H   0  0  0  0  0  0  0  0  0  0  0  0
  138.5371   68.4271  223.8105 H   0  0  0  0  0  0  0  0  0  0  0  0
  140.2357   68.6919  223.3926 H   0  0  0  0  0  0  0  0  0  0  0  0
  138.8534   67.2590  225.8254 H   0  0  0  0  0  0  0  0  0  0  0  0
  139.3740   67.4199  228.2445 H   0  0  0  0  0  0  0  0  0  0  0  0
  140.4791   69.3955  229.1945 H   0  0  0  0  0  0  0  0  0  0  0  0
  141.1207   71.3148  227.7182 H   0  0  0  0  0  0  0  0  0  0  0  0
  140.3309   72.4062  225.5496 H   0  0  0  0  0  0  0  0  0  0  0  0
  141.8209   71.5141  225.0424 H   0  0  0  0  0  0  0  0  0  0  0  0
  143.5211   71.5792  217.8199 H   0  0  0  0  0  0  0  0  0  0  0  0
  143.6781   72.9386  218.9299 H   0  0  0  0  0  0  0  0  0  0  0  0
  145.9040   71.7880  218.6929 H   0  0  0  0  0  0  0  0  0  0  0  0
  145.3266   71.5227  220.3411 H   0  0  0  0  0  0  0  0  0  0  0  0
  147.1581   69.8224  218.4545 H   0  0  0  0  0  0  0  0  0  0  0  0
  147.1116   67.3565  217.9874 H   0  0  0  0  0  0  0  0  0  0  0  0
  145.0256   66.0555  218.2789 H   0  0  0  0  0  0  0  0  0  0  0  0
  142.9350   67.1772  219.0488 H   0  0  0  0  0  0  0  0  0  0  0  0
  141.8345   69.5588  218.8973 H   0  0  0  0  0  0  0  0  0  0  0  0
  142.3581   69.3471  220.6139 H   0  0  0  0  0  0  0  0  0  0  0  0
  139.1281   77.9754  221.6970 H   0  0  0  0  0  0  0  0  0  0  0  0
  141.9283   77.5983  220.5671 H   0  0  0  0  0  0  0  0  0  0  0  0
  140.4053   77.8462  219.6796 H   0  0  0  0  0  0  0  0  0  0  0  0
  141.5426   79.9958  219.7224 H   0  0  0  0  0  0  0  0  0  0  0  0
  140.2175   80.1282  220.8977 H   0  0  0  0  0  0  0  0  0  0  0  0
  143.1914   79.6735  221.3758 H   0  0  0  0  0  0  0  0  0  0  0  0
  142.0623   80.8838  222.1333 H   0  0  0  0  0  0  0  0  0  0  0  0
  142.6920   78.2360  223.0010 H   0  0  0  0  0  0  0  0  0  0  0  0
  140.6585   77.7453  223.8792 H   0  0  0  0  0  0  0  0  0  0  0  0
  139.9929   79.2963  223.1447 H   0  0  0  0  0  0  0  0  0  0  0  0
  1  2  2  0
  2  3  1  0
  3  4  1  0
  4  5  2  0
  5  6  1  0
  6  7  1  0
  7  8  1  0
  8  9  1  0
  9 10  1  0
 10 11  2  0
 11 12  1  0
 12 13  2  0
 13 14  1  0
 14 15  2  0
 15 16  1  0
  6 17  2  0
 17 18  1  0
 18 19  1  0
 19 20  1  0
 20 21  1  0
 21 22  1  0
 22 23  2  0
 23 24  1  0
 24 25  2  0
 25 26  1  0
 26 27  2  0
 27 28  1  0
 18 29  2  0
  2 30  1  0
 30 31  1  0
 31 32  1  0
 32 33  1  0
 33 34  1  0
 34 35  1  0
 29  4  1  0
 35 30  1  0
 16  7  1  0
 28 19  1  0
 15 10  1  0
 27 22  1  0
  3 36  1  0
  8 37  1  0
  8 38  1  0
  9 39  1  0
  9 40  1  0
 11 41  1  0
 12 42  1  0
 13 43  1  0
 14 44  1  0
 16 45  1  0
 16 46  1  0
 20 47  1  0
 20 48  1  0
 21 49  1  0
 21 50  1  0
 23 51  1  0
 24 52  1  0
 25 53  1  0
 26 54  1  0
 28 55  1  0
 28 56  1  0
 30 57  1  6
 31 58  1  0
 31 59  1  0
 32 60  1  0
 32 61  1  0
 33 62  1  0
 33 63  1  0
 34 64  1  0
 35 65  1  0
 35 66  1  0
M  END
>  <smiles>  (31) 
O=C(Nc1nc(N2CCc3ccccc3C2)nc(N2CCc3ccccc3C2)n1)C1CCCNC1

>  <score_type>  (31) 
oracle

>  <origin>  (31) 
autodockgpu

>  <m_score__min__energy>  (31) 
-10.140000000000001

>  <m_primary>  (31) 
energy

>  <rmsd>  (31) 
4.50780503940785

>  <m_score__min__rmsd>  (31) 
4.50780503940785

>  <meeko>  (31) 
{"free_energy": -10.11, "intermolecular_energy": -11.3, "internal_energy": -0.84, "cluster_size": 37, "cluster_id": 1, "rank_in_cluster": 9}

>  <energy>  (31) 
-9.91

>  <cluster_rmsd>  (31) 
1.04

>  <cluster>  (31) 
1

$$$$

     RDKit          3D

 66 71  0  0  1  0  0  0  0  0999 V2000
  141.5270   71.0700  224.8040 O   0  0  0  0  0  0  0  0  0  0  0  0
  140.2760   70.9570  224.7790 C   0  0  0  0  0  0  0  0  0  0  0  0
  139.5880   71.6430  223.7420 N   0  0  0  0  0  0  0  0  0  0  0  0
  140.2440   72.4300  222.7560 C   0  0  0  0  0  0  0  0  0  0  0  0
  141.1500   71.8780  221.9290 N   0  0  0  0  0  0  0  0  0  0  0  0
  141.7570   72.6670  220.9950 C   0  0  0  0  0  0  0  0  0  0  0  0
  142.7130   72.1030  220.1160 N   0  0  0  0  0  0  0  0  0  0  0  0
  143.7930   72.9310  219.6130 C   0  0  0  0  0  0  0  0  0  0  0  0
  145.0950   72.2680  220.0450 C   0  0  0  0  0  0  0  0  0  0  0  0
  145.0720   70.9000  219.4420 C   0  0  0  0  0  0  0  0  0  0  0  0
  146.2950   70.3710  219.0230 C   0  0  0  0  0  0  0  0  0  0  0  0
  146.2800   69.1100  218.4680 C   0  0  0  0  0  0  0  0  0  0  0  0
  145.1200   68.3810  218.3200 C   0  0  0  0  0  0  0  0  0  0  0  0
  143.9050   68.9060  218.7370 C   0  0  0  0  0  0  0  0  0  0  0  0
  143.9120   70.1740  219.2970 C   0  0  0  0  0  0  0  0  0  0  0  0
  142.6020   70.7170  219.7350 C   0  0  0  0  0  0  0  0  0  0  0  0
  141.4380   73.9810  220.9190 N   0  0  0  0  0  0  0  0  0  0  0  0
  140.5340   74.5430  221.7420 C   0  0  0  0  0  0  0  0  0  0  0  0
  140.2600   75.9310  221.5910 N   0  0  0  0  0  0  0  0  0  0  0  0
  138.8810   76.3560  221.4410 C   0  0  0  0  0  0  0  0  0  0  0  0
  138.5750   77.1390  222.7190 C   0  0  0  0  0  0  0  0  0  0  0  0
  139.4930   78.3240  222.6860 C   0  0  0  0  0  0  0  0  0  0  0  0
  139.0130   79.5060  223.2130 C   0  0  0  0  0  0  0  0  0  0  0  0
  139.8640   80.6130  223.1860 C   0  0  0  0  0  0  0  0  0  0  0  0
  141.1440   80.5250  222.6480 C   0  0  0  0  0  0  0  0  0  0  0  0
  141.6060   79.3310  222.1250 C   0  0  0  0  0  0  0  0  0  0  0  0
  140.7640   78.2410  222.1540 C   0  0  0  0  0  0  0  0  0  0  0  0
  141.2840   76.9490  221.5790 C   0  0  0  0  0  0  0  0  0  0  0  0
  139.9520   73.7600  222.6460 N   0  0  0  0  0  0  0  0  0  0  0  0
  139.5070   70.1550  225.7700 C   0  0  2  0  0  0  0  0  0  0  0  0
  140.4020   69.6200  226.8650 C   0  0  0  0  0  0  0  0  0  0  0  0
  139.6020   68.5890  227.6350 C   0  0  0  0  0  0  0  0  0  0  0  0
  139.4620   67.3750  226.7260 C   0  0  0  0  0  0  0  0  0  0  0  0
  139.2290   67.7340  225.3560 N   0  0  0  0  0  0  0  0  0  0  0  0
  138.7000   69.0550  225.1680 C   0  0  0  0  0  0  0  0  0  0  0  0
  138.5460   71.5880  223.6680 H   0  0  0  0  0  0  0  0  0  0  0  0
  143.7446   72.9908  218.5157 H   0  0  0  0  0  0  0  0  0  0  0  0
  143.7218   73.9550  220.0084 H   0  0  0  0  0  0  0  0  0  0  0  0
  145.9582   72.8378  219.6705 H   0  0  0  0  0  0  0  0  0  0  0  0
  145.1859   72.2273  221.1405 H   0  0  0  0  0  0  0  0  0  0  0  0
  147.2315   70.9378  219.1316 H   0  0  0  0  0  0  0  0  0  0  0  0
  147.2294   68.6687  218.1305 H   0  0  0  0  0  0  0  0  0  0  0  0
  145.1573   67.3783  217.8692 H   0  0  0  0  0  0  0  0  0  0  0  0
  142.9703   68.3366  218.6271 H   0  0  0  0  0  0  0  0  0  0  0  0
  141.8824   70.6289  218.9077 H   0  0  0  0  0  0  0  0  0  0  0  0
  142.2612   70.1419  220.6086 H   0  0  0  0  0  0  0  0  0  0  0  0
  138.7673   76.9988  220.5556 H   0  0  0  0  0  0  0  0  0  0  0  0
  138.1967   75.5065  221.2993 H   0  0  0  0  0  0  0  0  0  0  0  0
  137.5246   77.4654  222.7287 H   0  0  0  0  0  0  0  0  0  0  0  0
  138.7265   76.5277  223.6208 H   0  0  0  0  0  0  0  0  0  0  0  0
  138.0004   79.5734  223.6374 H   0  0  0  0  0  0  0  0  0  0  0  0
  139.5159   81.5719  223.5976 H   0  0  0  0  0  0  0  0  0  0  0  0
  141.7939   81.4124  222.6385 H   0  0  0  0  0  0  0  0  0  0  0  0
  142.6168   79.2538  221.6981 H   0  0  0  0  0  0  0  0  0  0  0  0
  141.6087   77.1210  220.5422 H   0  0  0  0  0  0  0  0  0  0  0  0
  142.1288   76.6052  222.1940 H   0  0  0  0  0  0  0  0  0  0  0  0
  138.7848   70.8588  226.2094 H   0  0  0  0  0  0  0  0  0  0  0  0
  141.2958   69.1524  226.4262 H   0  0  0  0  0  0  0  0  0  0  0  0
  140.7339   70.4317  227.5290 H   0  0  0  0  0  0  0  0  0  0  0  0
  140.1307   68.3118  228.5589 H   0  0  0  0  0  0  0  0  0  0  0  0
  138.6163   68.9854  227.9200 H   0  0  0  0  0  0  0  0  0  0  0  0
  140.3881   66.7841  226.7825 H   0  0  0  0  0  0  0  0  0  0  0  0
  138.5909   66.7991  227.0718 H   0  0  0  0  0  0  0  0  0  0  0  0
  140.0350   67.5830  224.7340 H   0  0  0  0  0  0  0  0  0  0  0  0
  138.6254   69.2407  224.0864 H   0  0  0  0  0  0  0  0  0  0  0  0
  137.7293   69.0710  225.6852 H   0  0  0  0  0  0  0  0  0  0  0  0
  1  2  2  0
  2  3  1  0
  3  4  1  0
  4  5  2  0
  5  6  1  0
  6  7  1  0
  7  8  1  0
  8  9  1  0
  9 10  1  0
 10 11  2  0
 11 12  1  0
 12 13  2  0
 13 14  1  0
 14 15  2  0
 15 16  1  0
  6 17  2  0
 17 18  1  0
 18 19  1  0
 19 20  1  0
 20 21  1  0
 21 22  1  0
 22 23  2  0
 23 24  1  0
 24 25  2  0
 25 26  1  0
 26 27  2  0
 27 28  1  0
 18 29  2  0
  2 30  1  0
 30 31  1  0
 31 32  1  0
 32 33  1  0
 33 34  1  0
 34 35  1  0
 29  4  1  0
 35 30  1  0
 16  7  1  0
 28 19  1  0
 15 10  1  0
 27 22  1  0
  3 36  1  0
  8 37  1  0
  8 38  1  0
  9 39  1  0
  9 40  1  0
 11 41  1  0
 12 42  1  0
 13 43  1  0
 14 44  1  0
 16 45  1  0
 16 46  1  0
 20 47  1  0
 20 48  1  0
 21 49  1  0
 21 50  1  0
 23 51  1  0
 24 52  1  0
 25 53  1  0
 26 54  1  0
 28 55  1  0
 28 56  1  0
 30 57  1  1
 31 58  1  0
 31 59  1  0
 32 60  1  0
 32 61  1  0
 33 62  1  0
 33 63  1  0
 34 64  1  0
 35 65  1  0
 35 66  1  0
M  END
>  <smiles>  (32) 
O=C(Nc1nc(N2CCc3ccccc3C2)nc(N2CCc3ccccc3C2)n1)C1CCCNC1

>  <score_type>  (32) 
oracle

>  <origin>  (32) 
autodockgpu

>  <m_score__min__energy>  (32) 
-10.140000000000001

>  <m_primary>  (32) 
energy

>  <rmsd>  (32) 
10.103700723632228

>  <m_score__min__rmsd>  (32) 
10.103700723632228

>  <meeko>  (32) 
{"free_energy": -9.85, "intermolecular_energy": -11.04, "internal_energy": -0.84, "cluster_size": 1, "cluster_id": 3, "rank_in_cluster": 1}

>  <energy>  (32) 
-9.9

>  <cluster_rmsd>  (32) 
0.44

>  <cluster>  (32) 
1

$$$$

     RDKit          3D

 66 71  0  0  1  0  0  0  0  0999 V2000
  139.2080   75.5880  222.4480 O   0  0  0  0  0  0  0  0  0  0  0  0
  140.1850   76.2170  221.9690 C   0  0  0  0  0  0  0  0  0  0  0  0
  141.3040   75.4480  221.5520 N   0  0  0  0  0  0  0  0  0  0  0  0
  141.3600   74.0300  221.6510 C   0  0  0  0  0  0  0  0  0  0  0  0
  140.7380   73.3880  222.6560 N   0  0  0  0  0  0  0  0  0  0  0  0
  140.8150   72.0260  222.7150 C   0  0  0  0  0  0  0  0  0  0  0  0
  140.1670   71.3330  223.7660 N   0  0  0  0  0  0  0  0  0  0  0  0
  139.0110   70.5070  223.4670 C   0  0  0  0  0  0  0  0  0  0  0  0
  139.3490   69.0940  223.9230 C   0  0  0  0  0  0  0  0  0  0  0  0
  139.6360   69.1980  225.3870 C   0  0  0  0  0  0  0  0  0  0  0  0
  139.2540   68.1190  226.1870 C   0  0  0  0  0  0  0  0  0  0  0  0
  139.5180   68.2090  227.5360 C   0  0  0  0  0  0  0  0  0  0  0  0
  140.1290   69.3080  228.0990 C   0  0  0  0  0  0  0  0  0  0  0  0
  140.5090   70.3810  227.3040 C   0  0  0  0  0  0  0  0  0  0  0  0
  140.2490   70.2970  225.9450 C   0  0  0  0  0  0  0  0  0  0  0  0
  140.6620   71.4550  225.1140 C   0  0  0  0  0  0  0  0  0  0  0  0
  141.5110   71.3530  221.7690 N   0  0  0  0  0  0  0  0  0  0  0  0
  142.1380   71.9860  220.7600 C   0  0  0  0  0  0  0  0  0  0  0  0
  142.8460   71.1990  219.8100 N   0  0  0  0  0  0  0  0  0  0  0  0
  143.8030   71.8560  218.9380 C   0  0  0  0  0  0  0  0  0  0  0  0
  145.1640   71.3090  219.3750 C   0  0  0  0  0  0  0  0  0  0  0  0
  145.1120   69.8380  219.0820 C   0  0  0  0  0  0  0  0  0  0  0  0
  146.2850   69.2380  218.6730 C   0  0  0  0  0  0  0  0  0  0  0  0
  146.2440   67.8690  218.3990 C   0  0  0  0  0  0  0  0  0  0  0  0
  145.0650   67.1430  218.5340 C   0  0  0  0  0  0  0  0  0  0  0  0
  143.8990   67.7640  218.9460 C   0  0  0  0  0  0  0  0  0  0  0  0
  143.9440   69.1150  219.2150 C   0  0  0  0  0  0  0  0  0  0  0  0
  142.6660   69.7750  219.6610 C   0  0  0  0  0  0  0  0  0  0  0  0
  142.0520   73.3130  220.7170 N   0  0  0  0  0  0  0  0  0  0  0  0
  140.2140   77.6990  221.8290 C   0  0  2  0  0  0  0  0  0  0  0  0
  141.0450   78.1280  220.6410 C   0  0  0  0  0  0  0  0  0  0  0  0
  141.2600   79.6230  220.7610 C   0  0  0  0  0  0  0  0  0  0  0  0
  142.2320   79.8340  221.9150 C   0  0  0  0  0  0  0  0  0  0  0  0
  141.9790   78.9540  223.0190 N   0  0  0  0  0  0  0  0  0  0  0  0
  140.6490   78.4180  223.0610 C   0  0  0  0  0  0  0  0  0  0  0  0
  142.1470   75.9140  221.1460 H   0  0  0  0  0  0  0  0  0  0  0  0
  138.1294   70.8791  224.0095 H   0  0  0  0  0  0  0  0  0  0  0  0
  138.7778   70.5293  222.3922 H   0  0  0  0  0  0  0  0  0  0  0  0
  138.4977   68.4202  223.7461 H   0  0  0  0  0  0  0  0  0  0  0  0
  140.2065   68.6835  223.3697 H   0  0  0  0  0  0  0  0  0  0  0  0
  138.7625   67.2336  225.7576 H   0  0  0  0  0  0  0  0  0  0  0  0
  139.2300   67.3716  228.1885 H   0  0  0  0  0  0  0  0  0  0  0  0
  140.3165   69.3355  229.1826 H   0  0  0  0  0  0  0  0  0  0  0  0
  140.9987   71.2658  227.7369 H   0  0  0  0  0  0  0  0  0  0  0  0
  140.2627   72.3775  225.5606 H   0  0  0  0  0  0  0  0  0  0  0  0
  141.7611   71.4844  225.0798 H   0  0  0  0  0  0  0  0  0  0  0  0
  143.6041   71.6063  217.8853 H   0  0  0  0  0  0  0  0  0  0  0  0
  143.7509   72.9522  219.0129 H   0  0  0  0  0  0  0  0  0  0  0  0
  145.9731   71.7874  218.8035 H   0  0  0  0  0  0  0  0  0  0  0  0
  145.3642   71.5087  220.4380 H   0  0  0  0  0  0  0  0  0  0  0  0
  147.2156   69.8148  218.5669 H   0  0  0  0  0  0  0  0  0  0  0  0
  147.1600   67.3559  218.0707 H   0  0  0  0  0  0  0  0  0  0  0  0
  145.0596   66.0658  218.3113 H   0  0  0  0  0  0  0  0  0  0  0  0
  142.9634   67.1959  219.0556 H   0  0  0  0  0  0  0  0  0  0  0  0
  141.8833   69.5875  218.9112 H   0  0  0  0  0  0  0  0  0  0  0  0
  142.3745   69.3541  220.6346 H   0  0  0  0  0  0  0  0  0  0  0  0
  139.1674   77.9913  221.6578 H   0  0  0  0  0  0  0  0  0  0  0  0
  142.0132   77.6061  220.6502 H   0  0  0  0  0  0  0  0  0  0  0  0
  140.5349   77.8813  219.6982 H   0  0  0  0  0  0  0  0  0  0  0  0
  141.6866   80.0208  219.8284 H   0  0  0  0  0  0  0  0  0  0  0  0
  140.3097   80.1461  220.9433 H   0  0  0  0  0  0  0  0  0  0  0  0
  143.2547   79.6568  221.5507 H   0  0  0  0  0  0  0  0  0  0  0  0
  142.1018   80.8652  222.2751 H   0  0  0  0  0  0  0  0  0  0  0  0
  142.6700   78.1980  223.1280 H   0  0  0  0  0  0  0  0  0  0  0  0
  140.5927   77.7134  223.9038 H   0  0  0  0  0  0  0  0  0  0  0  0
  139.9754   79.2816  223.1639 H   0  0  0  0  0  0  0  0  0  0  0  0
  1  2  2  0
  2  3  1  0
  3  4  1  0
  4  5  2  0
  5  6  1  0
  6  7  1  0
  7  8  1  0
  8  9  1  0
  9 10  1  0
 10 11  2  0
 11 12  1  0
 12 13  2  0
 13 14  1  0
 14 15  2  0
 15 16  1  0
  6 17  2  0
 17 18  1  0
 18 19  1  0
 19 20  1  0
 20 21  1  0
 21 22  1  0
 22 23  2  0
 23 24  1  0
 24 25  2  0
 25 26  1  0
 26 27  2  0
 27 28  1  0
 18 29  2  0
  2 30  1  0
 30 31  1  0
 31 32  1  0
 32 33  1  0
 33 34  1  0
 34 35  1  0
 29  4  1  0
 35 30  1  0
 16  7  1  0
 28 19  1  0
 15 10  1  0
 27 22  1  0
  3 36  1  0
  8 37  1  0
  8 38  1  0
  9 39  1  0
  9 40  1  0
 11 41  1  0
 12 42  1  0
 13 43  1  0
 14 44  1  0
 16 45  1  0
 16 46  1  0
 20 47  1  0
 20 48  1  0
 21 49  1  0
 21 50  1  0
 23 51  1  0
 24 52  1  0
 25 53  1  0
 26 54  1  0
 28 55  1  0
 28 56  1  0
 30 57  1  6
 31 58  1  0
 31 59  1  0
 32 60  1  0
 32 61  1  0
 33 62  1  0
 33 63  1  0
 34 64  1  0
 35 65  1  0
 35 66  1  0
M  END
>  <smiles>  (33) 
O=C(Nc1nc(N2CCc3ccccc3C2)nc(N2CCc3ccccc3C2)n1)C1CCCNC1

>  <score_type>  (33) 
oracle

>  <origin>  (33) 
autodockgpu

>  <m_score__min__energy>  (33) 
-10.140000000000001

>  <m_primary>  (33) 
energy

>  <rmsd>  (33) 
4.545778430702747

>  <m_score__min__rmsd>  (33) 
4.545778430702747

>  <meeko>  (33) 
{"free_energy": -10.09, "intermolecular_energy": -11.28, "internal_energy": -0.86, "cluster_size": 37, "cluster_id": 1, "rank_in_cluster": 13}

>  <energy>  (33) 
-9.89

>  <cluster_rmsd>  (33) 
0.31

>  <cluster>  (33) 
1

$$$$

     RDKit          3D

 66 71  0  0  1  0  0  0  0  0999 V2000
  141.7390   69.5100  220.0760 O   0  0  0  0  0  0  0  0  0  0  0  0
  142.7540   70.1310  219.6700 C   0  0  0  0  0  0  0  0  0  0  0  0
  142.9200   71.4630  220.1310 N   0  0  0  0  0  0  0  0  0  0  0  0
  142.0090   72.1060  221.0140 C   0  0  0  0  0  0  0  0  0  0  0  0
  141.4720   71.4370  222.0500 N   0  0  0  0  0  0  0  0  0  0  0  0
  140.6020   72.0900  222.8750 C   0  0  0  0  0  0  0  0  0  0  0  0
  140.0260   71.4020  223.9710 N   0  0  0  0  0  0  0  0  0  0  0  0
  138.8310   70.6060  223.7640 C   0  0  0  0  0  0  0  0  0  0  0  0
  139.1720   69.1810  224.1790 C   0  0  0  0  0  0  0  0  0  0  0  0
  139.5820   69.2640  225.6140 C   0  0  0  0  0  0  0  0  0  0  0  0
  139.2430   68.1870  226.4350 C   0  0  0  0  0  0  0  0  0  0  0  0
  139.6190   68.2580  227.7590 C   0  0  0  0  0  0  0  0  0  0  0  0
  140.3010   69.3370  228.2770 C   0  0  0  0  0  0  0  0  0  0  0  0
  140.6390   70.4080  227.4610 C   0  0  0  0  0  0  0  0  0  0  0  0
  140.2650   70.3440  226.1280 C   0  0  0  0  0  0  0  0  0  0  0  0
  140.6350   71.5000  225.2750 C   0  0  0  0  0  0  0  0  0  0  0  0
  140.2980   73.3870  222.6370 N   0  0  0  0  0  0  0  0  0  0  0  0
  140.8290   74.0650  221.6030 C   0  0  0  0  0  0  0  0  0  0  0  0
  140.4540   75.4260  221.4280 N   0  0  0  0  0  0  0  0  0  0  0  0
  139.0430   75.7680  221.4530 C   0  0  0  0  0  0  0  0  0  0  0  0
  138.8700   76.6030  222.7240 C   0  0  0  0  0  0  0  0  0  0  0  0
  139.7030   77.8320  222.5060 C   0  0  0  0  0  0  0  0  0  0  0  0
  139.2290   79.0140  223.0390 C   0  0  0  0  0  0  0  0  0  0  0  0
  140.0010   80.1610  222.8410 C   0  0  0  0  0  0  0  0  0  0  0  0
  141.1970   80.1110  222.1320 C   0  0  0  0  0  0  0  0  0  0  0  0
  141.6540   78.9170  221.6060 C   0  0  0  0  0  0  0  0  0  0  0  0
  140.8900   77.7860  221.8050 C   0  0  0  0  0  0  0  0  0  0  0  0
  141.4030   76.4940  221.2240 C   0  0  0  0  0  0  0  0  0  0  0  0
  141.6760   73.4150  220.8090 N   0  0  0  0  0  0  0  0  0  0  0  0
  143.7590   69.5380  218.7450 C   0  0  2  0  0  0  0  0  0  0  0  0
  143.4270   68.1010  218.4110 C   0  0  0  0  0  0  0  0  0  0  0  0
  144.6410   67.5060  217.7280 C   0  0  0  0  0  0  0  0  0  0  0  0
  145.7090   67.3390  218.8010 C   0  0  0  0  0  0  0  0  0  0  0  0
  145.7450   68.4390  219.7220 N   0  0  0  0  0  0  0  0  0  0  0  0
  145.1670   69.6530  219.2220 C   0  0  0  0  0  0  0  0  0  0  0  0
  143.7450   72.0320  219.8280 H   0  0  0  0  0  0  0  0  0  0  0  0
  138.0070   70.9930  224.3814 H   0  0  0  0  0  0  0  0  0  0  0  0
  138.5096   70.6439  222.7127 H   0  0  0  0  0  0  0  0  0  0  0  0
  138.2932   68.5288  224.0685 H   0  0  0  0  0  0  0  0  0  0  0  0
  139.9704   68.7562  223.5529 H   0  0  0  0  0  0  0  0  0  0  0  0
  138.6977   67.3167  226.0410 H   0  0  0  0  0  0  0  0  0  0  0  0
  139.3650   67.4218  228.4271 H   0  0  0  0  0  0  0  0  0  0  0  0
  140.5788   69.3500  229.3413 H   0  0  0  0  0  0  0  0  0  0  0  0
  141.1844   71.2767  227.8583 H   0  0  0  0  0  0  0  0  0  0  0  0
  140.2963   72.4271  225.7605 H   0  0  0  0  0  0  0  0  0  0  0  0
  141.7278   71.5048  225.1496 H   0  0  0  0  0  0  0  0  0  0  0  0
  138.7698   76.3542  220.5632 H   0  0  0  0  0  0  0  0  0  0  0  0
  138.3979   74.8770  221.4485 H   0  0  0  0  0  0  0  0  0  0  0  0
  137.8134   76.8738  222.8664 H   0  0  0  0  0  0  0  0  0  0  0  0
  139.1807   76.0508  223.6232 H   0  0  0  0  0  0  0  0  0  0  0  0
  138.2818   79.0510  223.5970 H   0  0  0  0  0  0  0  0  0  0  0  0
  139.6572   81.1212  223.2531 H   0  0  0  0  0  0  0  0  0  0  0  0
  141.7844   81.0299  221.9887 H   0  0  0  0  0  0  0  0  0  0  0  0
  142.5992   78.8703  221.0452 H   0  0  0  0  0  0  0  0  0  0  0  0
  141.5708   76.6257  220.1449 H   0  0  0  0  0  0  0  0  0  0  0  0
  142.3438   76.2300  221.7292 H   0  0  0  0  0  0  0  0  0  0  0  0
  143.6956   70.1425  217.8282 H   0  0  0  0  0  0  0  0  0  0  0  0
  143.2016   67.5428  219.3317 H   0  0  0  0  0  0  0  0  0  0  0  0
  142.5454   68.0470  217.7554 H   0  0  0  0  0  0  0  0  0  0  0  0
  144.3885   66.5294  217.2892 H   0  0  0  0  0  0  0  0  0  0  0  0
  144.9956   68.1561  216.9146 H   0  0  0  0  0  0  0  0  0  0  0  0
  145.5022   66.4162  219.3628 H   0  0  0  0  0  0  0  0  0  0  0  0
  146.6848   67.2970  218.2950 H   0  0  0  0  0  0  0  0  0  0  0  0
  145.3690   68.2250  220.6560 H   0  0  0  0  0  0  0  0  0  0  0  0
  145.1925   70.3995  220.0295 H   0  0  0  0  0  0  0  0  0  0  0  0
  145.7645   69.9352  218.3426 H   0  0  0  0  0  0  0  0  0  0  0  0
  1  2  2  0
  2  3  1  0
  3  4  1  0
  4  5  2  0
  5  6  1  0
  6  7  1  0
  7  8  1  0
  8  9  1  0
  9 10  1  0
 10 11  2  0
 11 12  1  0
 12 13  2  0
 13 14  1  0
 14 15  2  0
 15 16  1  0
  6 17  2  0
 17 18  1  0
 18 19  1  0
 19 20  1  0
 20 21  1  0
 21 22  1  0
 22 23  2  0
 23 24  1  0
 24 25  2  0
 25 26  1  0
 26 27  2  0
 27 28  1  0
 18 29  2  0
  2 30  1  0
 30 31  1  0
 31 32  1  0
 32 33  1  0
 33 34  1  0
 34 35  1  0
 29  4  1  0
 35 30  1  0
 16  7  1  0
 28 19  1  0
 15 10  1  0
 27 22  1  0
  3 36  1  0
  8 37  1  0
  8 38  1  0
  9 39  1  0
  9 40  1  0
 11 41  1  0
 12 42  1  0
 13 43  1  0
 14 44  1  0
 16 45  1  0
 16 46  1  0
 20 47  1  0
 20 48  1  0
 21 49  1  0
 21 50  1  0
 23 51  1  0
 24 52  1  0
 25 53  1  0
 26 54  1  0
 28 55  1  0
 28 56  1  0
 30 57  1  6
 31 58  1  0
 31 59  1  0
 32 60  1  0
 32 61  1  0
 33 62  1  0
 33 63  1  0
 34 64  1  0
 35 65  1  0
 35 66  1  0
M  END
>  <smiles>  (34) 
O=C(Nc1nc(N2CCc3ccccc3C2)nc(N2CCc3ccccc3C2)n1)C1CCCNC1

>  <score_type>  (34) 
oracle

>  <origin>  (34) 
autodockgpu

>  <m_score__min__energy>  (34) 
-10.140000000000001

>  <m_primary>  (34) 
energy

>  <rmsd>  (34) 
8.9096873650221

>  <m_score__min__rmsd>  (34) 
8.9096873650221

>  <meeko>  (34) 
{"free_energy": -9.9, "intermolecular_energy": -11.1, "internal_energy": -0.84, "cluster_size": 12, "cluster_id": 2, "rank_in_cluster": 6}

>  <energy>  (34) 
-9.82

>  <cluster_rmsd>  (34) 
0.44

>  <cluster>  (34) 
1

$$$$

     RDKit          3D

 66 71  0  0  1  0  0  0  0  0999 V2000
  138.9990   75.5230  221.7970 O   0  0  0  0  0  0  0  0  0  0  0  0
  140.0540   76.1780  221.6050 C   0  0  0  0  0  0  0  0  0  0  0  0
  141.2630   75.4390  221.5130 N   0  0  0  0  0  0  0  0  0  0  0  0
  141.3240   74.0220  221.6250 C   0  0  0  0  0  0  0  0  0  0  0  0
  140.7220   73.3890  222.6480 N   0  0  0  0  0  0  0  0  0  0  0  0
  140.8040   72.0280  222.7190 C   0  0  0  0  0  0  0  0  0  0  0  0
  140.1750   71.3440  223.7890 N   0  0  0  0  0  0  0  0  0  0  0  0
  139.0230   70.5050  223.5180 C   0  0  0  0  0  0  0  0  0  0  0  0
  139.3790   69.1010  223.9890 C   0  0  0  0  0  0  0  0  0  0  0  0
  139.6850   69.2280  225.4460 C   0  0  0  0  0  0  0  0  0  0  0  0
  139.3230   68.1570  226.2670 C   0  0  0  0  0  0  0  0  0  0  0  0
  139.6040   68.2680  227.6110 C   0  0  0  0  0  0  0  0  0  0  0  0
  140.2140   69.3800  228.1490 C   0  0  0  0  0  0  0  0  0  0  0  0
  140.5740   70.4440  227.3350 C   0  0  0  0  0  0  0  0  0  0  0  0
  140.2960   70.3400  225.9810 C   0  0  0  0  0  0  0  0  0  0  0  0
  140.6880   71.4900  225.1290 C   0  0  0  0  0  0  0  0  0  0  0  0
  141.4850   71.3470  221.7690 N   0  0  0  0  0  0  0  0  0  0  0  0
  142.0920   71.9700  220.7430 C   0  0  0  0  0  0  0  0  0  0  0  0
  142.7860   71.1760  219.7890 N   0  0  0  0  0  0  0  0  0  0  0  0
  143.7230   71.8260  218.8910 C   0  0  0  0  0  0  0  0  0  0  0  0
  145.0950   71.2900  219.3080 C   0  0  0  0  0  0  0  0  0  0  0  0
  145.0440   69.8160  219.0340 C   0  0  0  0  0  0  0  0  0  0  0  0
  146.2120   69.2160  218.6100 C   0  0  0  0  0  0  0  0  0  0  0  0
  146.1720   67.8440  218.3530 C   0  0  0  0  0  0  0  0  0  0  0  0
  144.9990   67.1150  218.5190 C   0  0  0  0  0  0  0  0  0  0  0  0
  143.8390   67.7350  218.9450 C   0  0  0  0  0  0  0  0  0  0  0  0
  143.8830   69.0890  219.1980 C   0  0  0  0  0  0  0  0  0  0  0  0
  142.6100   69.7490  219.6600 C   0  0  0  0  0  0  0  0  0  0  0  0
  142.0020   73.2970  220.6870 N   0  0  0  0  0  0  0  0  0  0  0  0
  140.0840   77.6610  221.4760 C   0  0  2  0  0  0  0  0  0  0  0  0
  140.9360   78.1000  220.3070 C   0  0  0  0  0  0  0  0  0  0  0  0
  141.1480   79.5940  220.4410 C   0  0  0  0  0  0  0  0  0  0  0  0
  142.0980   79.7980  221.6140 C   0  0  0  0  0  0  0  0  0  0  0  0
  141.8250   78.9100  222.7070 N   0  0  0  0  0  0  0  0  0  0  0  0
  140.4950   78.3720  222.7200 C   0  0  0  0  0  0  0  0  0  0  0  0
  142.1740   75.9270  221.3540 H   0  0  0  0  0  0  0  0  0  0  0  0
  138.1459   70.8775  224.0675 H   0  0  0  0  0  0  0  0  0  0  0  0
  138.7749   70.5102  222.4464 H   0  0  0  0  0  0  0  0  0  0  0  0
  138.5310   68.4179  223.8334 H   0  0  0  0  0  0  0  0  0  0  0  0
  140.2321   68.6895  223.4296 H   0  0  0  0  0  0  0  0  0  0  0  0
  138.8334   67.2614  225.8568 H   0  0  0  0  0  0  0  0  0  0  0  0
  139.3313   67.4380  228.2794 H   0  0  0  0  0  0  0  0  0  0  0  0
  140.4166   69.4243  229.2293 H   0  0  0  0  0  0  0  0  0  0  0  0
  141.0626   71.3383  227.7492 H   0  0  0  0  0  0  0  0  0  0  0  0
  140.2868   72.4153  225.5681 H   0  0  0  0  0  0  0  0  0  0  0  0
  141.7862   71.5290  225.0796 H   0  0  0  0  0  0  0  0  0  0  0  0
  143.5049   71.5626  217.8455 H   0  0  0  0  0  0  0  0  0  0  0  0
  143.6676   72.9228  218.9538 H   0  0  0  0  0  0  0  0  0  0  0  0
  145.8906   71.7648  218.7151 H   0  0  0  0  0  0  0  0  0  0  0  0
  145.3149   71.5034  220.3645 H   0  0  0  0  0  0  0  0  0  0  0  0
  147.1379   69.7954  218.4796 H   0  0  0  0  0  0  0  0  0  0  0  0
  147.0838   67.3309  218.0134 H   0  0  0  0  0  0  0  0  0  0  0  0
  144.9943   66.0352  218.3094 H   0  0  0  0  0  0  0  0  0  0  0  0
  142.9082   67.1642  219.0781 H   0  0  0  0  0  0  0  0  0  0  0  0
  141.8144   69.5492  218.9271 H   0  0  0  0  0  0  0  0  0  0  0  0
  142.3387   69.3384  220.6438 H   0  0  0  0  0  0  0  0  0  0  0  0
  139.0402   77.9524  221.2876 H   0  0  0  0  0  0  0  0  0  0  0  0
  141.9044   77.5787  220.3301 H   0  0  0  0  0  0  0  0  0  0  0  0
  140.4427   77.8603  219.3535 H   0  0  0  0  0  0  0  0  0  0  0  0
  141.5917   79.9981  219.5191 H   0  0  0  0  0  0  0  0  0  0  0  0
  140.1941   80.1154  220.6092 H   0  0  0  0  0  0  0  0  0  0  0  0
  143.1275   79.6241  221.2677 H   0  0  0  0  0  0  0  0  0  0  0  0
  141.9604   80.8266  221.9786 H   0  0  0  0  0  0  0  0  0  0  0  0
  142.5150   78.1540  222.8230 H   0  0  0  0  0  0  0  0  0  0  0  0
  140.4238   77.6617  223.5569 H   0  0  0  0  0  0  0  0  0  0  0  0
  139.8187   79.2342  222.8155 H   0  0  0  0  0  0  0  0  0  0  0  0
  1  2  2  0
  2  3  1  0
  3  4  1  0
  4  5  2  0
  5  6  1  0
  6  7  1  0
  7  8  1  0
  8  9  1  0
  9 10  1  0
 10 11  2  0
 11 12  1  0
 12 13  2  0
 13 14  1  0
 14 15  2  0
 15 16  1  0
  6 17  2  0
 17 18  1  0
 18 19  1  0
 19 20  1  0
 20 21  1  0
 21 22  1  0
 22 23  2  0
 23 24  1  0
 24 25  2  0
 25 26  1  0
 26 27  2  0
 27 28  1  0
 18 29  2  0
  2 30  1  0
 30 31  1  0
 31 32  1  0
 32 33  1  0
 33 34  1  0
 34 35  1  0
 29  4  1  0
 35 30  1  0
 16  7  1  0
 28 19  1  0
 15 10  1  0
 27 22  1  0
  3 36  1  0
  8 37  1  0
  8 38  1  0
  9 39  1  0
  9 40  1  0
 11 41  1  0
 12 42  1  0
 13 43  1  0
 14 44  1  0
 16 45  1  0
 16 46  1  0
 20 47  1  0
 20 48  1  0
 21 49  1  0
 21 50  1  0
 23 51  1  0
 24 52  1  0
 25 53  1  0
 26 54  1  0
 28 55  1  0
 28 56  1  0
 30 57  1  6
 31 58  1  0
 31 59  1  0
 32 60  1  0
 32 61  1  0
 33 62  1  0
 33 63  1  0
 34 64  1  0
 35 65  1  0
 35 66  1  0
M  END
>  <smiles>  (35) 
O=C(Nc1nc(N2CCc3ccccc3C2)nc(N2CCc3ccccc3C2)n1)C1CCCNC1

>  <score_type>  (35) 
oracle

>  <origin>  (35) 
autodockgpu

>  <m_score__min__energy>  (35) 
-10.140000000000001

>  <m_primary>  (35) 
energy

>  <rmsd>  (35) 
4.373730214842264

>  <m_score__min__rmsd>  (35) 
4.373730214842264

>  <meeko>  (35) 
{"free_energy": -9.98, "intermolecular_energy": -11.17, "internal_energy": -0.91, "cluster_size": 37, "cluster_id": 1, "rank_in_cluster": 28}

>  <energy>  (35) 
-9.79

>  <cluster_rmsd>  (35) 
0.55

>  <cluster>  (35) 
1

$$$$

     RDKit          3D

 66 71  0  0  1  0  0  0  0  0999 V2000
  139.3190   75.5840  222.7060 O   0  0  0  0  0  0  0  0  0  0  0  0
  140.1760   76.1980  222.0230 C   0  0  0  0  0  0  0  0  0  0  0  0
  141.2020   75.4180  221.4260 N   0  0  0  0  0  0  0  0  0  0  0  0
  141.2930   74.0050  221.5660 C   0  0  0  0  0  0  0  0  0  0  0  0
  140.6970   73.3790  222.5960 N   0  0  0  0  0  0  0  0  0  0  0  0
  140.8080   72.0220  222.6940 C   0  0  0  0  0  0  0  0  0  0  0  0
  140.1860   71.3450  223.7720 N   0  0  0  0  0  0  0  0  0  0  0  0
  139.0120   70.5310  223.5190 C   0  0  0  0  0  0  0  0  0  0  0  0
  139.3490   69.1170  223.9760 C   0  0  0  0  0  0  0  0  0  0  0  0
  139.6850   69.2300  225.4280 C   0  0  0  0  0  0  0  0  0  0  0  0
  139.3180   68.1620  226.2500 C   0  0  0  0  0  0  0  0  0  0  0  0
  139.6270   68.2600  227.5890 C   0  0  0  0  0  0  0  0  0  0  0  0
  140.2690   69.3560  228.1210 C   0  0  0  0  0  0  0  0  0  0  0  0
  140.6350   70.4180  227.3050 C   0  0  0  0  0  0  0  0  0  0  0  0
  140.3290   70.3260  225.9560 C   0  0  0  0  0  0  0  0  0  0  0  0
  140.7280   71.4730  225.1030 C   0  0  0  0  0  0  0  0  0  0  0  0
  141.5110   71.3370  221.7620 N   0  0  0  0  0  0  0  0  0  0  0  0
  142.1120   71.9550  220.7280 C   0  0  0  0  0  0  0  0  0  0  0  0
  142.8300   71.1570  219.7950 N   0  0  0  0  0  0  0  0  0  0  0  0
  143.7760   71.8080  218.9060 C   0  0  0  0  0  0  0  0  0  0  0  0
  145.1450   71.2900  219.3530 C   0  0  0  0  0  0  0  0  0  0  0  0
  145.1140   69.8130  219.0930 C   0  0  0  0  0  0  0  0  0  0  0  0
  146.2950   69.2200  218.6950 C   0  0  0  0  0  0  0  0  0  0  0  0
  146.2730   67.8450  218.4520 C   0  0  0  0  0  0  0  0  0  0  0  0
  145.1040   67.1060  218.6050 C   0  0  0  0  0  0  0  0  0  0  0  0
  143.9310   67.7190  219.0050 C   0  0  0  0  0  0  0  0  0  0  0  0
  143.9570   69.0760  219.2440 C   0  0  0  0  0  0  0  0  0  0  0  0
  142.6700   69.7270  219.6780 C   0  0  0  0  0  0  0  0  0  0  0  0
  141.9940   73.2780  220.6460 N   0  0  0  0  0  0  0  0  0  0  0  0
  140.1590   77.6730  221.8230 C   0  0  2  0  0  0  0  0  0  0  0  0
  140.8550   78.0680  220.5410 C   0  0  0  0  0  0  0  0  0  0  0  0
  141.0500   79.5700  220.5790 C   0  0  0  0  0  0  0  0  0  0  0  0
  142.1290   79.8450  221.6180 C   0  0  0  0  0  0  0  0  0  0  0  0
  142.0090   79.0060  222.7760 N   0  0  0  0  0  0  0  0  0  0  0  0
  140.7020   78.4490  222.9750 C   0  0  0  0  0  0  0  0  0  0  0  0
  141.9450   75.8710  220.8460 H   0  0  0  0  0  0  0  0  0  0  0  0
  138.1534   70.9180  224.0873 H   0  0  0  0  0  0  0  0  0  0  0  0
  138.7432   70.5473  222.4525 H   0  0  0  0  0  0  0  0  0  0  0  0
  138.4848   68.4516  223.8331 H   0  0  0  0  0  0  0  0  0  0  0  0
  140.1830   68.6918  223.3984 H   0  0  0  0  0  0  0  0  0  0  0  0
  138.8031   67.2785  225.8447 H   0  0  0  0  0  0  0  0  0  0  0  0
  139.3506   67.4319  228.2582 H   0  0  0  0  0  0  0  0  0  0  0  0
  140.4929   69.3902  229.1974 H   0  0  0  0  0  0  0  0  0  0  0  0
  141.1491   71.3003  227.7140 H   0  0  0  0  0  0  0  0  0  0  0  0
  140.3543   72.4037  225.5549 H   0  0  0  0  0  0  0  0  0  0  0  0
  141.8256   71.4903  225.0326 H   0  0  0  0  0  0  0  0  0  0  0  0
  143.5790   71.5317  217.8596 H   0  0  0  0  0  0  0  0  0  0  0  0
  143.7084   72.9048  218.9557 H   0  0  0  0  0  0  0  0  0  0  0  0
  145.9465   71.7670  218.7699 H   0  0  0  0  0  0  0  0  0  0  0  0
  145.3433   71.5159  220.4111 H   0  0  0  0  0  0  0  0  0  0  0  0
  147.2172   69.8073  218.5740 H   0  0  0  0  0  0  0  0  0  0  0  0
  147.1957   67.3374  218.1342 H   0  0  0  0  0  0  0  0  0  0  0  0
  145.1131   66.0242  218.4059 H   0  0  0  0  0  0  0  0  0  0  0  0
  143.0038   67.1403  219.1289 H   0  0  0  0  0  0  0  0  0  0  0  0
  141.8888   69.5117  218.9342 H   0  0  0  0  0  0  0  0  0  0  0  0
  142.3861   69.3235  220.6611 H   0  0  0  0  0  0  0  0  0  0  0  0
  139.0943   77.9394  221.7485 H   0  0  0  0  0  0  0  0  0  0  0  0
  141.8299   77.5634  220.4710 H   0  0  0  0  0  0  0  0  0  0  0  0
  140.2560   77.7749  219.6662 H   0  0  0  0  0  0  0  0  0  0  0  0
  141.3715   79.9356  219.5926 H   0  0  0  0  0  0  0  0  0  0  0  0
  140.1124   80.0844  220.8365 H   0  0  0  0  0  0  0  0  0  0  0  0
  143.1130   79.6714  221.1580 H   0  0  0  0  0  0  0  0  0  0  0  0
  142.0133   80.8875  221.9494 H   0  0  0  0  0  0  0  0  0  0  0  0
  142.7230   78.2670  222.8420 H   0  0  0  0  0  0  0  0  0  0  0  0
  140.7471   77.7783  223.8457 H   0  0  0  0  0  0  0  0  0  0  0  0
  140.0241   79.3042  223.1129 H   0  0  0  0  0  0  0  0  0  0  0  0
  1  2  2  0
  2  3  1  0
  3  4  1  0
  4  5  2  0
  5  6  1  0
  6  7  1  0
  7  8  1  0
  8  9  1  0
  9 10  1  0
 10 11  2  0
 11 12  1  0
 12 13  2  0
 13 14  1  0
 14 15  2  0
 15 16  1  0
  6 17  2  0
 17 18  1  0
 18 19  1  0
 19 20  1  0
 20 21  1  0
 21 22  1  0
 22 23  2  0
 23 24  1  0
 24 25  2  0
 25 26  1  0
 26 27  2  0
 27 28  1  0
 18 29  2  0
  2 30  1  0
 30 31  1  0
 31 32  1  0
 32 33  1  0
 33 34  1  0
 34 35  1  0
 29  4  1  0
 35 30  1  0
 16  7  1  0
 28 19  1  0
 15 10  1  0
 27 22  1  0
  3 36  1  0
  8 37  1  0
  8 38  1  0
  9 39  1  0
  9 40  1  0
 11 41  1  0
 12 42  1  0
 13 43  1  0
 14 44  1  0
 16 45  1  0
 16 46  1  0
 20 47  1  0
 20 48  1  0
 21 49  1  0
 21 50  1  0
 23 51  1  0
 24 52  1  0
 25 53  1  0
 26 54  1  0
 28 55  1  0
 28 56  1  0
 30 57  1  6
 31 58  1  0
 31 59  1  0
 32 60  1  0
 32 61  1  0
 33 62  1  0
 33 63  1  0
 34 64  1  0
 35 65  1  0
 35 66  1  0
M  END
>  <smiles>  (36) 
O=C(Nc1nc(N2CCc3ccccc3C2)nc(N2CCc3ccccc3C2)n1)C1CCCNC1

>  <score_type>  (36) 
oracle

>  <origin>  (36) 
autodockgpu

>  <m_score__min__energy>  (36) 
-10.140000000000001

>  <m_primary>  (36) 
energy

>  <rmsd>  (36) 
4.457738994260952

>  <m_score__min__rmsd>  (36) 
4.457738994260952

>  <meeko>  (36) 
{"free_energy": -10.12, "intermolecular_energy": -11.32, "internal_energy": -0.81, "cluster_size": 37, "cluster_id": 1, "rank_in_cluster": 4}

>  <energy>  (36) 
-9.78

>  <cluster_rmsd>  (36) 
0.49

>  <cluster>  (36) 
1

$$$$

     RDKit          3D

 66 71  0  0  1  0  0  0  0  0999 V2000
  139.2120   75.5790  222.4950 O   0  0  0  0  0  0  0  0  0  0  0  0
  140.1620   76.2050  221.9630 C   0  0  0  0  0  0  0  0  0  0  0  0
  141.2620   75.4340  221.5030 N   0  0  0  0  0  0  0  0  0  0  0  0
  141.3280   74.0180  221.6160 C   0  0  0  0  0  0  0  0  0  0  0  0
  140.7210   73.3830  222.6340 N   0  0  0  0  0  0  0  0  0  0  0  0
  140.8070   72.0220  222.7070 C   0  0  0  0  0  0  0  0  0  0  0  0
  140.1730   71.3370  223.7720 N   0  0  0  0  0  0  0  0  0  0  0  0
  139.0060   70.5190  223.4990 C   0  0  0  0  0  0  0  0  0  0  0  0
  139.3410   69.1040  223.9520 C   0  0  0  0  0  0  0  0  0  0  0  0
  139.6580   69.2100  225.4090 C   0  0  0  0  0  0  0  0  0  0  0  0
  139.2840   68.1360  226.2190 C   0  0  0  0  0  0  0  0  0  0  0  0
  139.5740   68.2280  227.5630 C   0  0  0  0  0  0  0  0  0  0  0  0
  140.2050   69.3230  228.1100 C   0  0  0  0  0  0  0  0  0  0  0  0
  140.5780   70.3910  227.3060 C   0  0  0  0  0  0  0  0  0  0  0  0
  140.2900   70.3060  225.9520 C   0  0  0  0  0  0  0  0  0  0  0  0
  140.6960   71.4590  225.1110 C   0  0  0  0  0  0  0  0  0  0  0  0
  141.4970   71.3430  221.7610 N   0  0  0  0  0  0  0  0  0  0  0  0
  142.1090   71.9680  220.7390 C   0  0  0  0  0  0  0  0  0  0  0  0
  142.8120   71.1760  219.7900 N   0  0  0  0  0  0  0  0  0  0  0  0
  143.7680   71.8250  218.9120 C   0  0  0  0  0  0  0  0  0  0  0  0
  145.1290   71.2760  219.3480 C   0  0  0  0  0  0  0  0  0  0  0  0
  145.0710   69.8040  219.0610 C   0  0  0  0  0  0  0  0  0  0  0  0
  146.2410   69.1990  218.6500 C   0  0  0  0  0  0  0  0  0  0  0  0
  146.1940   67.8280  218.3820 C   0  0  0  0  0  0  0  0  0  0  0  0
  145.0130   67.1070  218.5230 C   0  0  0  0  0  0  0  0  0  0  0  0
  143.8510   67.7330  218.9360 C   0  0  0  0  0  0  0  0  0  0  0  0
  143.9020   69.0860  219.2000 C   0  0  0  0  0  0  0  0  0  0  0  0
  142.6260   69.7510  219.6470 C   0  0  0  0  0  0  0  0  0  0  0  0
  142.0150   73.2950  220.6820 N   0  0  0  0  0  0  0  0  0  0  0  0
  140.1790   77.6850  221.8040 C   0  0  2  0  0  0  0  0  0  0  0  0
  141.0070   78.1060  220.6100 C   0  0  0  0  0  0  0  0  0  0  0  0
  141.2110   79.6030  220.7100 C   0  0  0  0  0  0  0  0  0  0  0  0
  142.1800   79.8380  221.8610 C   0  0  0  0  0  0  0  0  0  0  0  0
  141.9340   78.9700  222.9770 N   0  0  0  0  0  0  0  0  0  0  0  0
  140.6090   78.4240  223.0260 C   0  0  0  0  0  0  0  0  0  0  0  0
  142.0840   75.8970  221.0510 H   0  0  0  0  0  0  0  0  0  0  0  0
  138.1383   70.8995  224.0579 H   0  0  0  0  0  0  0  0  0  0  0  0
  138.7525   70.5399  222.4288 H   0  0  0  0  0  0  0  0  0  0  0  0
  138.4806   68.4370  223.7942 H   0  0  0  0  0  0  0  0  0  0  0  0
  140.1835   68.6843  223.3827 H   0  0  0  0  0  0  0  0  0  0  0  0
  138.7786   67.2527  225.8014 H   0  0  0  0  0  0  0  0  0  0  0  0
  139.2908   67.3954  228.2238 H   0  0  0  0  0  0  0  0  0  0  0  0
  140.4144   69.3513  229.1895 H   0  0  0  0  0  0  0  0  0  0  0  0
  141.0835   71.2725  227.7272 H   0  0  0  0  0  0  0  0  0  0  0  0
  140.3126   72.3856  225.5630 H   0  0  0  0  0  0  0  0  0  0  0  0
  141.7944   71.4805  225.0556 H   0  0  0  0  0  0  0  0  0  0  0  0
  143.5652   71.5702  217.8613 H   0  0  0  0  0  0  0  0  0  0  0  0
  143.7195   72.9218  218.9811 H   0  0  0  0  0  0  0  0  0  0  0  0
  145.9381   71.7494  218.7724 H   0  0  0  0  0  0  0  0  0  0  0  0
  145.3331   71.4797  220.4095 H   0  0  0  0  0  0  0  0  0  0  0  0
  147.1730   69.7724  218.5378 H   0  0  0  0  0  0  0  0  0  0  0  0
  147.1072   67.3101  218.0538 H   0  0  0  0  0  0  0  0  0  0  0  0
  145.0031   66.0291  218.3040 H   0  0  0  0  0  0  0  0  0  0  0  0
  142.9138   67.1687  219.0506 H   0  0  0  0  0  0  0  0  0  0  0  0
  141.8408   69.5632  218.8999 H   0  0  0  0  0  0  0  0  0  0  0  0
  142.3347   69.3343  220.6225 H   0  0  0  0  0  0  0  0  0  0  0  0
  139.1298   77.9656  221.6297 H   0  0  0  0  0  0  0  0  0  0  0  0
  141.9792   77.5916  220.6257 H   0  0  0  0  0  0  0  0  0  0  0  0
  140.4981   77.8438  219.6707 H   0  0  0  0  0  0  0  0  0  0  0  0
  141.6354   79.9910  219.7723 H   0  0  0  0  0  0  0  0  0  0  0  0
  140.2565   80.1210  220.8850 H   0  0  0  0  0  0  0  0  0  0  0  0
  143.2045   79.6651  221.4996 H   0  0  0  0  0  0  0  0  0  0  0  0
  142.0404   80.8727  222.2073 H   0  0  0  0  0  0  0  0  0  0  0  0
  142.6310   78.2210  223.0950 H   0  0  0  0  0  0  0  0  0  0  0  0
  140.5585   77.7303  223.8782 H   0  0  0  0  0  0  0  0  0  0  0  0
  139.9288   79.2837  223.1169 H   0  0  0  0  0  0  0  0  0  0  0  0
  1  2  2  0
  2  3  1  0
  3  4  1  0
  4  5  2  0
  5  6  1  0
  6  7  1  0
  7  8  1  0
  8  9  1  0
  9 10  1  0
 10 11  2  0
 11 12  1  0
 12 13  2  0
 13 14  1  0
 14 15  2  0
 15 16  1  0
  6 17  2  0
 17 18  1  0
 18 19  1  0
 19 20  1  0
 20 21  1  0
 21 22  1  0
 22 23  2  0
 23 24  1  0
 24 25  2  0
 25 26  1  0
 26 27  2  0
 27 28  1  0
 18 29  2  0
  2 30  1  0
 30 31  1  0
 31 32  1  0
 32 33  1  0
 33 34  1  0
 34 35  1  0
 29  4  1  0
 35 30  1  0
 16  7  1  0
 28 19  1  0
 15 10  1  0
 27 22  1  0
  3 36  1  0
  8 37  1  0
  8 38  1  0
  9 39  1  0
  9 40  1  0
 11 41  1  0
 12 42  1  0
 13 43  1  0
 14 44  1  0
 16 45  1  0
 16 46  1  0
 20 47  1  0
 20 48  1  0
 21 49  1  0
 21 50  1  0
 23 51  1  0
 24 52  1  0
 25 53  1  0
 26 54  1  0
 28 55  1  0
 28 56  1  0
 30 57  1  6
 31 58  1  0
 31 59  1  0
 32 60  1  0
 32 61  1  0
 33 62  1  0
 33 63  1  0
 34 64  1  0
 35 65  1  0
 35 66  1  0
M  END
>  <smiles>  (37) 
O=C(Nc1nc(N2CCc3ccccc3C2)nc(N2CCc3ccccc3C2)n1)C1CCCNC1

>  <score_type>  (37) 
oracle

>  <origin>  (37) 
autodockgpu

>  <m_score__min__energy>  (37) 
-10.140000000000001

>  <m_primary>  (37) 
energy

>  <rmsd>  (37) 
4.5205052663073655

>  <m_score__min__rmsd>  (37) 
4.5205052663073655

>  <meeko>  (37) 
{"free_energy": -10.14, "intermolecular_energy": -11.34, "internal_energy": -0.85, "cluster_size": 37, "cluster_id": 1, "rank_in_cluster": 2}

>  <energy>  (37) 
-9.77

>  <cluster_rmsd>  (37) 
0.41

>  <cluster>  (37) 
1

$$$$

     RDKit          3D

 66 71  0  0  1  0  0  0  0  0999 V2000
  144.1920   71.5150  220.8090 O   0  0  0  0  0  0  0  0  0  0  0  0
  143.5610   70.9730  219.8680 C   0  0  0  0  0  0  0  0  0  0  0  0
  142.1520   71.1520  219.8510 N   0  0  0  0  0  0  0  0  0  0  0  0
  141.4470   71.9040  220.8310 C   0  0  0  0  0  0  0  0  0  0  0  0
  141.1980   73.2130  220.6420 N   0  0  0  0  0  0  0  0  0  0  0  0
  140.5170   73.9000  221.6060 C   0  0  0  0  0  0  0  0  0  0  0  0
  140.2460   75.2780  221.4240 N   0  0  0  0  0  0  0  0  0  0  0  0
  138.8690   75.7330  221.3830 C   0  0  0  0  0  0  0  0  0  0  0  0
  138.7060   76.7490  222.5060 C   0  0  0  0  0  0  0  0  0  0  0  0
  139.6940   77.8340  222.2170 C   0  0  0  0  0  0  0  0  0  0  0  0
  139.3220   79.1370  222.5520 C   0  0  0  0  0  0  0  0  0  0  0  0
  140.2280   80.1410  222.2890 C   0  0  0  0  0  0  0  0  0  0  0  0
  141.4580   79.8950  221.7180 C   0  0  0  0  0  0  0  0  0  0  0  0
  141.8290   78.6000  221.3850 C   0  0  0  0  0  0  0  0  0  0  0  0
  140.9230   77.5850  221.6480 C   0  0  0  0  0  0  0  0  0  0  0  0
  141.3390   76.2080  221.2830 C   0  0  0  0  0  0  0  0  0  0  0  0
  140.1090   73.2570  222.7250 N   0  0  0  0  0  0  0  0  0  0  0  0
  140.3540   71.9490  222.9240 C   0  0  0  0  0  0  0  0  0  0  0  0
  139.8880   71.3540  224.1290 N   0  0  0  0  0  0  0  0  0  0  0  0
  138.7150   70.5010  224.0760 C   0  0  0  0  0  0  0  0  0  0  0  0
  139.2390   69.1000  224.4000 C   0  0  0  0  0  0  0  0  0  0  0  0
  139.7600   69.1870  225.8040 C   0  0  0  0  0  0  0  0  0  0  0  0
  139.6120   68.0680  226.5980 C   0  0  0  0  0  0  0  0  0  0  0  0
  140.0960   68.1420  227.9070 C   0  0  0  0  0  0  0  0  0  0  0  0
  140.7010   69.3000  228.3860 C   0  0  0  0  0  0  0  0  0  0  0  0
  140.8400   70.4100  227.5730 C   0  0  0  0  0  0  0  0  0  0  0  0
  140.3610   70.3330  226.2830 C   0  0  0  0  0  0  0  0  0  0  0  0
  140.5200   71.5520  225.4120 C   0  0  0  0  0  0  0  0  0  0  0  0
  141.0180   71.2940  221.9750 N   0  0  0  0  0  0  0  0  0  0  0  0
  144.2160   70.1680  218.8010 C   0  0  2  0  0  0  0  0  0  0  0  0
  143.4710   68.8780  218.5410 C   0  0  0  0  0  0  0  0  0  0  0  0
  144.3630   68.0090  217.6790 C   0  0  0  0  0  0  0  0  0  0  0  0
  145.5060   67.5370  218.5680 C   0  0  0  0  0  0  0  0  0  0  0  0
  145.9740   68.5610  219.4570 N   0  0  0  0  0  0  0  0  0  0  0  0
  145.6620   69.8980  219.0430 C   0  0  0  0  0  0  0  0  0  0  0  0
  141.5710   70.7250  219.0940 H   0  0  0  0  0  0  0  0  0  0  0  0
  138.6549   76.2042  220.4124 H   0  0  0  0  0  0  0  0  0  0  0  0
  138.1720   74.8914  221.5088 H   0  0  0  0  0  0  0  0  0  0  0  0
  137.6830   77.1534  222.5118 H   0  0  0  0  0  0  0  0  0  0  0  0
  138.8791   76.2947  223.4927 H   0  0  0  0  0  0  0  0  0  0  0  0
  138.3446   79.3535  223.0078 H   0  0  0  0  0  0  0  0  0  0  0  0
  139.9599   81.1769  222.5441 H   0  0  0  0  0  0  0  0  0  0  0  0
  142.1488   80.7291  221.5254 H   0  0  0  0  0  0  0  0  0  0  0  0
  142.8069   78.3869  220.9287 H   0  0  0  0  0  0  0  0  0  0  0  0
  141.6825   76.2021  220.2380 H   0  0  0  0  0  0  0  0  0  0  0  0
  142.1492   75.8982  221.9595 H   0  0  0  0  0  0  0  0  0  0  0  0
  137.9704   70.8186  224.8208 H   0  0  0  0  0  0  0  0  0  0  0  0
  138.2141   70.5422  223.0975 H   0  0  0  0  0  0  0  0  0  0  0  0
  138.4272   68.3606  224.3354 H   0  0  0  0  0  0  0  0  0  0  0  0
  140.0182   68.7799  223.6926 H   0  0  0  0  0  0  0  0  0  0  0  0
  139.1325   67.1547  226.2160 H   0  0  0  0  0  0  0  0  0  0  0  0
  139.9970   67.2699  228.5700 H   0  0  0  0  0  0  0  0  0  0  0  0
  141.0722   69.3328  229.4210 H   0  0  0  0  0  0  0  0  0  0  0  0
  141.3189   71.3277  227.9451 H   0  0  0  0  0  0  0  0  0  0  0  0
  140.0568   72.4152  225.9124 H   0  0  0  0  0  0  0  0  0  0  0  0
  141.5932   71.7318  225.2513 H   0  0  0  0  0  0  0  0  0  0  0  0
  144.1685   70.7967  217.8997 H   0  0  0  0  0  0  0  0  0  0  0  0
  143.2555   68.3694  219.4923 H   0  0  0  0  0  0  0  0  0  0  0  0
  142.5141   69.0758  218.0359 H   0  0  0  0  0  0  0  0  0  0  0  0
  143.7976   67.1457  217.2983 H   0  0  0  0  0  0  0  0  0  0  0  0
  144.7420   68.5692  216.8115 H   0  0  0  0  0  0  0  0  0  0  0  0
  145.1565   66.6833  219.1672 H   0  0  0  0  0  0  0  0  0  0  0  0
  146.3438   67.2574  217.9123 H   0  0  0  0  0  0  0  0  0  0  0  0
  145.7080   68.4230  220.4420 H   0  0  0  0  0  0  0  0  0  0  0  0
  146.0099   70.5866  219.8271 H   0  0  0  0  0  0  0  0  0  0  0  0
  146.1649   70.0424  218.0754 H   0  0  0  0  0  0  0  0  0  0  0  0
  1  2  2  0
  2  3  1  0
  3  4  1  0
  4  5  2  0
  5  6  1  0
  6  7  1  0
  7  8  1  0
  8  9  1  0
  9 10  1  0
 10 11  2  0
 11 12  1  0
 12 13  2  0
 13 14  1  0
 14 15  2  0
 15 16  1  0
  6 17  2  0
 17 18  1  0
 18 19  1  0
 19 20  1  0
 20 21  1  0
 21 22  1  0
 22 23  2  0
 23 24  1  0
 24 25  2  0
 25 26  1  0
 26 27  2  0
 27 28  1  0
 18 29  2  0
  2 30  1  0
 30 31  1  0
 31 32  1  0
 32 33  1  0
 33 34  1  0
 34 35  1  0
 29  4  1  0
 35 30  1  0
 16  7  1  0
 28 19  1  0
 15 10  1  0
 27 22  1  0
  3 36  1  0
  8 37  1  0
  8 38  1  0
  9 39  1  0
  9 40  1  0
 11 41  1  0
 12 42  1  0
 13 43  1  0
 14 44  1  0
 16 45  1  0
 16 46  1  0
 20 47  1  0
 20 48  1  0
 21 49  1  0
 21 50  1  0
 23 51  1  0
 24 52  1  0
 25 53  1  0
 26 54  1  0
 28 55  1  0
 28 56  1  0
 30 57  1  6
 31 58  1  0
 31 59  1  0
 32 60  1  0
 32 61  1  0
 33 62  1  0
 33 63  1  0
 34 64  1  0
 35 65  1  0
 35 66  1  0
M  END
>  <smiles>  (38) 
O=C(Nc1nc(N2CCc3ccccc3C2)nc(N2CCc3ccccc3C2)n1)C1CCCNC1

>  <score_type>  (38) 
oracle

>  <origin>  (38) 
autodockgpu

>  <m_score__min__energy>  (38) 
-10.140000000000001

>  <m_primary>  (38) 
energy

>  <rmsd>  (38) 
8.595857092015436

>  <m_score__min__rmsd>  (38) 
8.595857092015436

>  <meeko>  (38) 
{"free_energy": -9.87, "intermolecular_energy": -11.06, "internal_energy": -0.85, "cluster_size": 12, "cluster_id": 2, "rank_in_cluster": 9}

>  <energy>  (38) 
-9.95

>  <cluster_rmsd>  (38) 
0.0

>  <cluster>  (38) 
2

$$$$

     RDKit          3D

 66 71  0  0  1  0  0  0  0  0999 V2000
  138.9120   75.4570  221.1500 O   0  0  0  0  0  0  0  0  0  0  0  0
  139.9600   76.1400  221.2700 C   0  0  0  0  0  0  0  0  0  0  0  0
  141.1640   75.4320  221.5230 N   0  0  0  0  0  0  0  0  0  0  0  0
  141.2300   74.0160  221.6410 C   0  0  0  0  0  0  0  0  0  0  0  0
  140.6410   73.3870  222.6740 N   0  0  0  0  0  0  0  0  0  0  0  0
  140.7260   72.0260  222.7520 C   0  0  0  0  0  0  0  0  0  0  0  0
  140.1120   71.3470  223.8320 N   0  0  0  0  0  0  0  0  0  0  0  0
  138.9740   70.4840  223.5750 C   0  0  0  0  0  0  0  0  0  0  0  0
  139.3550   69.0930  224.0660 C   0  0  0  0  0  0  0  0  0  0  0  0
  139.6610   69.2460  225.5210 C   0  0  0  0  0  0  0  0  0  0  0  0
  139.3200   68.1810  226.3570 C   0  0  0  0  0  0  0  0  0  0  0  0
  139.6010   68.3170  227.6990 C   0  0  0  0  0  0  0  0  0  0  0  0
  140.1920   69.4460  228.2200 C   0  0  0  0  0  0  0  0  0  0  0  0
  140.5320   70.5050  227.3900 C   0  0  0  0  0  0  0  0  0  0  0  0
  140.2540   70.3770  226.0380 C   0  0  0  0  0  0  0  0  0  0  0  0
  140.6240   71.5210  225.1690 C   0  0  0  0  0  0  0  0  0  0  0  0
  141.3970   71.3410  221.7970 N   0  0  0  0  0  0  0  0  0  0  0  0
  141.9910   71.9610  220.7610 C   0  0  0  0  0  0  0  0  0  0  0  0
  142.6750   71.1630  219.8020 N   0  0  0  0  0  0  0  0  0  0  0  0
  143.6360   71.8020  218.9230 C   0  0  0  0  0  0  0  0  0  0  0  0
  144.9910   71.2280  219.3460 C   0  0  0  0  0  0  0  0  0  0  0  0
  144.9070   69.7590  219.0510 C   0  0  0  0  0  0  0  0  0  0  0  0
  146.0650   69.1370  218.6300 C   0  0  0  0  0  0  0  0  0  0  0  0
  145.9940   67.7690  218.3540 C   0  0  0  0  0  0  0  0  0  0  0  0
  144.8020   67.0670  218.4980 C   0  0  0  0  0  0  0  0  0  0  0  0
  143.6530   67.7090  218.9220 C   0  0  0  0  0  0  0  0  0  0  0  0
  143.7270   69.0590  219.1930 C   0  0  0  0  0  0  0  0  0  0  0  0
  142.4660   69.7420  219.6530 C   0  0  0  0  0  0  0  0  0  0  0  0
  141.8980   73.2870  220.6990 N   0  0  0  0  0  0  0  0  0  0  0  0
  139.9850   77.6250  221.1610 C   0  0  2  0  0  0  0  0  0  0  0  0
  140.9310   78.0870  220.0760 C   0  0  0  0  0  0  0  0  0  0  0  0
  141.1140   79.5810  220.2450 C   0  0  0  0  0  0  0  0  0  0  0  0
  141.9560   79.7790  221.4980 C   0  0  0  0  0  0  0  0  0  0  0  0
  141.6000   78.8740  222.5530 N   0  0  0  0  0  0  0  0  0  0  0  0
  140.2800   78.3230  222.4450 C   0  0  0  0  0  0  0  0  0  0  0  0
  142.0700   75.9440  221.6320 H   0  0  0  0  0  0  0  0  0  0  0  0
  138.0913   70.8492  224.1203 H   0  0  0  0  0  0  0  0  0  0  0  0
  138.7245   70.4692  222.5038 H   0  0  0  0  0  0  0  0  0  0  0  0
  138.5187   68.3932  223.9217 H   0  0  0  0  0  0  0  0  0  0  0  0
  140.2144   68.6885  223.5113 H   0  0  0  0  0  0  0  0  0  0  0  0
  138.8465   67.2707  225.9605 H   0  0  0  0  0  0  0  0  0  0  0  0
  139.3434   67.4923  228.3799 H   0  0  0  0  0  0  0  0  0  0  0  0
  140.3957   69.5090  229.2991 H   0  0  0  0  0  0  0  0  0  0  0  0
  141.0052   71.4136  227.7907 H   0  0  0  0  0  0  0  0  0  0  0  0
  140.2069   72.4452  225.5955 H   0  0  0  0  0  0  0  0  0  0  0  0
  141.7213   71.5786  225.1172 H   0  0  0  0  0  0  0  0  0  0  0  0
  143.4224   71.5580  217.8719 H   0  0  0  0  0  0  0  0  0  0  0  0
  143.6060   72.8989  219.0006 H   0  0  0  0  0  0  0  0  0  0  0  0
  145.8036   71.6915  218.7674 H   0  0  0  0  0  0  0  0  0  0  0  0
  145.2058   71.4220  220.4072 H   0  0  0  0  0  0  0  0  0  0  0  0
  147.0058   69.6956  218.5164 H   0  0  0  0  0  0  0  0  0  0  0  0
  146.8965   67.2381  218.0170 H   0  0  0  0  0  0  0  0  0  0  0  0
  144.7730   65.9908  218.2724 H   0  0  0  0  0  0  0  0  0  0  0  0
  142.7077   67.1589  219.0396 H   0  0  0  0  0  0  0  0  0  0  0  0
  141.6722   69.5705  218.9110 H   0  0  0  0  0  0  0  0  0  0  0  0
  142.1762   69.3250  220.6288 H   0  0  0  0  0  0  0  0  0  0  0  0
  138.9587   77.9092  220.8853 H   0  0  0  0  0  0  0  0  0  0  0  0
  141.8993   77.5752  220.1777 H   0  0  0  0  0  0  0  0  0  0  0  0
  140.5255   77.8542  219.0803 H   0  0  0  0  0  0  0  0  0  0  0  0
  141.6316   80.0010  219.3700 H   0  0  0  0  0  0  0  0  0  0  0  0
  140.1436   80.0911  220.3354 H   0  0  0  0  0  0  0  0  0  0  0  0
  143.0135   79.6203  221.2401 H   0  0  0  0  0  0  0  0  0  0  0  0
  141.7750   80.8012  221.8619 H   0  0  0  0  0  0  0  0  0  0  0  0
  142.2850   78.1230  222.7200 H   0  0  0  0  0  0  0  0  0  0  0  0
  140.1451   77.6006  223.2635 H   0  0  0  0  0  0  0  0  0  0  0  0
  139.5885   79.1771  222.4932 H   0  0  0  0  0  0  0  0  0  0  0  0
  1  2  2  0
  2  3  1  0
  3  4  1  0
  4  5  2  0
  5  6  1  0
  6  7  1  0
  7  8  1  0
  8  9  1  0
  9 10  1  0
 10 11  2  0
 11 12  1  0
 12 13  2  0
 13 14  1  0
 14 15  2  0
 15 16  1  0
  6 17  2  0
 17 18  1  0
 18 19  1  0
 19 20  1  0
 20 21  1  0
 21 22  1  0
 22 23  2  0
 23 24  1  0
 24 25  2  0
 25 26  1  0
 26 27  2  0
 27 28  1  0
 18 29  2  0
  2 30  1  0
 30 31  1  0
 31 32  1  0
 32 33  1  0
 33 34  1  0
 34 35  1  0
 29  4  1  0
 35 30  1  0
 16  7  1  0
 28 19  1  0
 15 10  1  0
 27 22  1  0
  3 36  1  0
  8 37  1  0
  8 38  1  0
  9 39  1  0
  9 40  1  0
 11 41  1  0
 12 42  1  0
 13 43  1  0
 14 44  1  0
 16 45  1  0
 16 46  1  0
 20 47  1  0
 20 48  1  0
 21 49  1  0
 21 50  1  0
 23 51  1  0
 24 52  1  0
 25 53  1  0
 26 54  1  0
 28 55  1  0
 28 56  1  0
 30 57  1  6
 31 58  1  0
 31 59  1  0
 32 60  1  0
 32 61  1  0
 33 62  1  0
 33 63  1  0
 34 64  1  0
 35 65  1  0
 35 66  1  0
M  END
>  <smiles>  (39) 
O=C(Nc1nc(N2CCc3ccccc3C2)nc(N2CCc3ccccc3C2)n1)C1CCCNC1

>  <score_type>  (39) 
oracle

>  <origin>  (39) 
autodockgpu

>  <m_score__min__energy>  (39) 
-10.140000000000001

>  <m_primary>  (39) 
energy

>  <rmsd>  (39) 
4.278569244409452

>  <m_score__min__rmsd>  (39) 
4.278569244409452

>  <meeko>  (39) 
{"free_energy": -9.77, "intermolecular_energy": -10.96, "internal_energy": -0.93, "cluster_size": 37, "cluster_id": 1, "rank_in_cluster": 37}

>  <energy>  (39) 
-9.95

>  <cluster_rmsd>  (39) 
0.04

>  <cluster>  (39) 
2

$$$$

     RDKit          3D

 66 71  0  0  1  0  0  0  0  0999 V2000
  138.9850   75.5090  221.8070 O   0  0  0  0  0  0  0  0  0  0  0  0
  140.0390   76.1560  221.5870 C   0  0  0  0  0  0  0  0  0  0  0  0
  141.2410   75.4090  221.4700 N   0  0  0  0  0  0  0  0  0  0  0  0
  141.2960   73.9920  221.5850 C   0  0  0  0  0  0  0  0  0  0  0  0
  140.6950   73.3640  222.6110 N   0  0  0  0  0  0  0  0  0  0  0  0
  140.7710   72.0030  222.6860 C   0  0  0  0  0  0  0  0  0  0  0  0
  140.1440   71.3250  223.7590 N   0  0  0  0  0  0  0  0  0  0  0  0
  138.9890   70.4870  223.4940 C   0  0  0  0  0  0  0  0  0  0  0  0
  139.3430   69.0840  223.9700 C   0  0  0  0  0  0  0  0  0  0  0  0
  139.6530   69.2160  225.4260 C   0  0  0  0  0  0  0  0  0  0  0  0
  139.2910   68.1490  226.2520 C   0  0  0  0  0  0  0  0  0  0  0  0
  139.5750   68.2650  227.5950 C   0  0  0  0  0  0  0  0  0  0  0  0
  140.1890   69.3770  228.1270 C   0  0  0  0  0  0  0  0  0  0  0  0
  140.5500   70.4370  227.3080 C   0  0  0  0  0  0  0  0  0  0  0  0
  140.2680   70.3280  225.9550 C   0  0  0  0  0  0  0  0  0  0  0  0
  140.6610   71.4740  225.0970 C   0  0  0  0  0  0  0  0  0  0  0  0
  141.4450   71.3160  221.7340 N   0  0  0  0  0  0  0  0  0  0  0  0
  142.0510   71.9350  220.7040 C   0  0  0  0  0  0  0  0  0  0  0  0
  142.7370   71.1350  219.7490 N   0  0  0  0  0  0  0  0  0  0  0  0
  143.7090   71.7700  218.8780 C   0  0  0  0  0  0  0  0  0  0  0  0
  145.0560   71.1860  219.3100 C   0  0  0  0  0  0  0  0  0  0  0  0
  144.9660   69.7190  219.0110 C   0  0  0  0  0  0  0  0  0  0  0  0
  146.1220   69.0900  218.5960 C   0  0  0  0  0  0  0  0  0  0  0  0
  146.0450   67.7240  218.3160 C   0  0  0  0  0  0  0  0  0  0  0  0
  144.8470   67.0280  218.4500 C   0  0  0  0  0  0  0  0  0  0  0  0
  143.6990   67.6770  218.8660 C   0  0  0  0  0  0  0  0  0  0  0  0
  143.7800   69.0250  219.1420 C   0  0  0  0  0  0  0  0  0  0  0  0
  142.5200   69.7160  219.5930 C   0  0  0  0  0  0  0  0  0  0  0  0
  141.9670   73.2620  220.6450 N   0  0  0  0  0  0  0  0  0  0  0  0
  140.0750   77.6380  221.4530 C   0  0  2  0  0  0  0  0  0  0  0  0
  140.9530   78.0710  220.3000 C   0  0  0  0  0  0  0  0  0  0  0  0
  141.1650   79.5650  220.4320 C   0  0  0  0  0  0  0  0  0  0  0  0
  142.0910   79.7710  221.6240 C   0  0  0  0  0  0  0  0  0  0  0  0
  141.7940   78.8880  222.7150 N   0  0  0  0  0  0  0  0  0  0  0  0
  140.4630   78.3530  222.7030 C   0  0  0  0  0  0  0  0  0  0  0  0
  142.1510   75.8910  221.2870 H   0  0  0  0  0  0  0  0  0  0  0  0
  138.1140   70.8637  224.0439 H   0  0  0  0  0  0  0  0  0  0  0  0
  138.7385   70.4883  222.4229 H   0  0  0  0  0  0  0  0  0  0  0  0
  138.4930   68.4022  223.8193 H   0  0  0  0  0  0  0  0  0  0  0  0
  140.1939   68.6684  223.4102 H   0  0  0  0  0  0  0  0  0  0  0  0
  138.7991   67.2526  225.8464 H   0  0  0  0  0  0  0  0  0  0  0  0
  139.3012   67.4387  228.2675 H   0  0  0  0  0  0  0  0  0  0  0  0
  140.3942   69.4250  229.2066 H   0  0  0  0  0  0  0  0  0  0  0  0
  141.0422   71.3315  227.7173 H   0  0  0  0  0  0  0  0  0  0  0  0
  140.2638   72.4021  225.5339 H   0  0  0  0  0  0  0  0  0  0  0  0
  141.7592   71.5092  225.0442 H   0  0  0  0  0  0  0  0  0  0  0  0
  143.5017   71.5298  217.8248 H   0  0  0  0  0  0  0  0  0  0  0  0
  143.6857   72.8669  218.9574 H   0  0  0  0  0  0  0  0  0  0  0  0
  145.8761   71.6459  218.7391 H   0  0  0  0  0  0  0  0  0  0  0  0
  145.2629   71.3756  220.3736 H   0  0  0  0  0  0  0  0  0  0  0  0
  147.0670   69.6428  218.4899 H   0  0  0  0  0  0  0  0  0  0  0  0
  146.9467   67.1888  217.9838 H   0  0  0  0  0  0  0  0  0  0  0  0
  144.8132   65.9522  218.2230 H   0  0  0  0  0  0  0  0  0  0  0  0
  142.7488   67.1333  218.9735 H   0  0  0  0  0  0  0  0  0  0  0  0
  141.7318   69.5527  218.8433 H   0  0  0  0  0  0  0  0  0  0  0  0
  142.2191   69.2980  220.5650 H   0  0  0  0  0  0  0  0  0  0  0  0
  139.0359   77.9307  221.2419 H   0  0  0  0  0  0  0  0  0  0  0  0
  141.9197   77.5481  220.3459 H   0  0  0  0  0  0  0  0  0  0  0  0
  140.4795   77.8283  219.3372 H   0  0  0  0  0  0  0  0  0  0  0  0
  141.6287   79.9645  219.5180 H   0  0  0  0  0  0  0  0  0  0  0  0
  140.2091   80.0894  220.5778 H   0  0  0  0  0  0  0  0  0  0  0  0
  143.1270   79.5935  221.2996 H   0  0  0  0  0  0  0  0  0  0  0  0
  141.9476   80.8012  221.9819 H   0  0  0  0  0  0  0  0  0  0  0  0
  142.4790   78.1310  222.8480 H   0  0  0  0  0  0  0  0  0  0  0  0
  140.3734   77.6459  223.5408 H   0  0  0  0  0  0  0  0  0  0  0  0
  139.7870   79.2172  222.7816 H   0  0  0  0  0  0  0  0  0  0  0  0
  1  2  2  0
  2  3  1  0
  3  4  1  0
  4  5  2  0
  5  6  1  0
  6  7  1  0
  7  8  1  0
  8  9  1  0
  9 10  1  0
 10 11  2  0
 11 12  1  0
 12 13  2  0
 13 14  1  0
 14 15  2  0
 15 16  1  0
  6 17  2  0
 17 18  1  0
 18 19  1  0
 19 20  1  0
 20 21  1  0
 21 22  1  0
 22 23  2  0
 23 24  1  0
 24 25  2  0
 25 26  1  0
 26 27  2  0
 27 28  1  0
 18 29  2  0
  2 30  1  0
 30 31  1  0
 31 32  1  0
 32 33  1  0
 33 34  1  0
 34 35  1  0
 29  4  1  0
 35 30  1  0
 16  7  1  0
 28 19  1  0
 15 10  1  0
 27 22  1  0
  3 36  1  0
  8 37  1  0
  8 38  1  0
  9 39  1  0
  9 40  1  0
 11 41  1  0
 12 42  1  0
 13 43  1  0
 14 44  1  0
 16 45  1  0
 16 46  1  0
 20 47  1  0
 20 48  1  0
 21 49  1  0
 21 50  1  0
 23 51  1  0
 24 52  1  0
 25 53  1  0
 26 54  1  0
 28 55  1  0
 28 56  1  0
 30 57  1  6
 31 58  1  0
 31 59  1  0
 32 60  1  0
 32 61  1  0
 33 62  1  0
 33 63  1  0
 34 64  1  0
 35 65  1  0
 35 66  1  0
M  END
>  <smiles>  (40) 
O=C(Nc1nc(N2CCc3ccccc3C2)nc(N2CCc3ccccc3C2)n1)C1CCCNC1

>  <score_type>  (40) 
oracle

>  <origin>  (40) 
autodockgpu

>  <m_score__min__energy>  (40) 
-10.140000000000001

>  <m_primary>  (40) 
energy

>  <rmsd>  (40) 
4.366046932730222

>  <m_score__min__rmsd>  (40) 
4.366046932730222

>  <meeko>  (40) 
{"free_energy": -9.99, "intermolecular_energy": -11.19, "internal_energy": -0.9, "cluster_size": 37, "cluster_id": 1, "rank_in_cluster": 25}

>  <energy>  (40) 
-9.95

>  <cluster_rmsd>  (40) 
0.11

>  <cluster>  (40) 
2

$$$$

     RDKit          3D

 66 71  0  0  1  0  0  0  0  0999 V2000
  139.0650   75.5670  222.1320 O   0  0  0  0  0  0  0  0  0  0  0  0
  140.0780   76.2330  221.8020 C   0  0  0  0  0  0  0  0  0  0  0  0
  141.2610   75.5040  221.5140 N   0  0  0  0  0  0  0  0  0  0  0  0
  141.3430   74.0850  221.5800 C   0  0  0  0  0  0  0  0  0  0  0  0
  142.0860   73.3990  220.6930 N   0  0  0  0  0  0  0  0  0  0  0  0
  142.1390   72.0390  220.7910 C   0  0  0  0  0  0  0  0  0  0  0  0
  142.9160   71.3000  219.8650 N   0  0  0  0  0  0  0  0  0  0  0  0
  143.8760   71.9940  219.0280 C   0  0  0  0  0  0  0  0  0  0  0  0
  145.2410   71.3830  219.3210 C   0  0  0  0  0  0  0  0  0  0  0  0
  145.1130   69.9310  218.9910 C   0  0  0  0  0  0  0  0  0  0  0  0
  146.2380   69.3010  218.4530 C   0  0  0  0  0  0  0  0  0  0  0  0
  146.1260   67.9620  218.1480 C   0  0  0  0  0  0  0  0  0  0  0  0
  144.9640   67.2510  218.3530 C   0  0  0  0  0  0  0  0  0  0  0  0
  143.8460   67.8760  218.8880 C   0  0  0  0  0  0  0  0  0  0  0  0
  143.9510   69.2230  219.1990 C   0  0  0  0  0  0  0  0  0  0  0  0
  142.7430   69.8710  219.7680 C   0  0  0  0  0  0  0  0  0  0  0  0
  141.4480   71.4100  221.7710 N   0  0  0  0  0  0  0  0  0  0  0  0
  140.7020   72.0860  222.6620 C   0  0  0  0  0  0  0  0  0  0  0  0
  140.0090   71.3450  223.6590 N   0  0  0  0  0  0  0  0  0  0  0  0
  138.9400   70.4540  223.2470 C   0  0  0  0  0  0  0  0  0  0  0  0
  139.4680   69.0490  223.5500 C   0  0  0  0  0  0  0  0  0  0  0  0
  139.6400   69.0050  225.0400 C   0  0  0  0  0  0  0  0  0  0  0  0
  139.3870   67.8010  225.6660 C   0  0  0  0  0  0  0  0  0  0  0  0
  139.5460   67.7540  227.0530 C   0  0  0  0  0  0  0  0  0  0  0  0
  139.9440   68.8770  227.7710 C   0  0  0  0  0  0  0  0  0  0  0  0
  140.1940   70.0740  227.1240 C   0  0  0  0  0  0  0  0  0  0  0  0
  140.0350   70.1170  225.7560 C   0  0  0  0  0  0  0  0  0  0  0  0
  140.3100   71.4290  225.0680 C   0  0  0  0  0  0  0  0  0  0  0  0
  140.6610   73.4120  222.5540 N   0  0  0  0  0  0  0  0  0  0  0  0
  140.0840   77.7190  221.7070 C   0  0  2  0  0  0  0  0  0  0  0  0
  140.4700   78.1850  220.3210 C   0  0  0  0  0  0  0  0  0  0  0  0
  140.7400   79.6730  220.4070 C   0  0  0  0  0  0  0  0  0  0  0  0
  142.0490   79.8380  221.1680 C   0  0  0  0  0  0  0  0  0  0  0  0
  142.1700   78.9200  222.2650 N   0  0  0  0  0  0  0  0  0  0  0  0
  140.9230   78.3910  222.7390 C   0  0  0  0  0  0  0  0  0  0  0  0
  142.1380   76.0020  221.2330 H   0  0  0  0  0  0  0  0  0  0  0  0
  143.6206   71.8582  217.9667 H   0  0  0  0  0  0  0  0  0  0  0  0
  143.8743   73.0737  219.2384 H   0  0  0  0  0  0  0  0  0  0  0  0
  146.0138   71.8521  218.6943 H   0  0  0  0  0  0  0  0  0  0  0  0
  145.5383   71.5367  220.3689 H   0  0  0  0  0  0  0  0  0  0  0  0
  147.1746   69.8513  218.2800 H   0  0  0  0  0  0  0  0  0  0  0  0
  146.9975   67.4410  217.7248 H   0  0  0  0  0  0  0  0  0  0  0  0
  144.9219   66.1833  218.0916 H   0  0  0  0  0  0  0  0  0  0  0  0
  142.9108   67.3227  219.0590 H   0  0  0  0  0  0  0  0  0  0  0  0
  141.8812   69.6569  219.1188 H   0  0  0  0  0  0  0  0  0  0  0  0
  142.5754   69.4704  220.7786 H   0  0  0  0  0  0  0  0  0  0  0  0
  138.0235   70.6562  223.8206 H   0  0  0  0  0  0  0  0  0  0  0  0
  138.6776   70.5807  222.1863 H   0  0  0  0  0  0  0  0  0  0  0  0
  138.7457   68.2868  223.2226 H   0  0  0  0  0  0  0  0  0  0  0  0
  140.4102   68.8415  223.0215 H   0  0  0  0  0  0  0  0  0  0  0  0
  139.0729   66.9144  225.0957 H   0  0  0  0  0  0  0  0  0  0  0  0
  139.3530   66.8119  227.5871 H   0  0  0  0  0  0  0  0  0  0  0  0
  140.0610   68.8127  228.8629 H   0  0  0  0  0  0  0  0  0  0  0  0
  140.5105   70.9655  227.6853 H   0  0  0  0  0  0  0  0  0  0  0  0
  139.6861   72.2121  225.5234 H   0  0  0  0  0  0  0  0  0  0  0  0
  141.3767   71.6706  225.1856 H   0  0  0  0  0  0  0  0  0  0  0  0
  139.0468   78.0233  221.9110 H   0  0  0  0  0  0  0  0  0  0  0  0
  141.3742   77.6569  219.9842 H   0  0  0  0  0  0  0  0  0  0  0  0
  139.6655   77.9754  219.6007 H   0  0  0  0  0  0  0  0  0  0  0  0
  140.8320   80.1004  219.3976 H   0  0  0  0  0  0  0  0  0  0  0  0
  139.9174   80.1951  220.9176 H   0  0  0  0  0  0  0  0  0  0  0  0
  142.8844   79.6681  220.4728 H   0  0  0  0  0  0  0  0  0  0  0  0
  142.0667   80.8566  221.5828 H   0  0  0  0  0  0  0  0  0  0  0  0
  142.8430   78.1570  222.1090 H   0  0  0  0  0  0  0  0  0  0  0  0
  141.1430   77.6575  223.5287 H   0  0  0  0  0  0  0  0  0  0  0  0
  140.3397   79.2548  223.0906 H   0  0  0  0  0  0  0  0  0  0  0  0
  1  2  2  0
  2  3  1  0
  3  4  1  0
  4  5  2  0
  5  6  1  0
  6  7  1  0
  7  8  1  0
  8  9  1  0
  9 10  1  0
 10 11  2  0
 11 12  1  0
 12 13  2  0
 13 14  1  0
 14 15  2  0
 15 16  1  0
  6 17  2  0
 17 18  1  0
 18 19  1  0
 19 20  1  0
 20 21  1  0
 21 22  1  0
 22 23  2  0
 23 24  1  0
 24 25  2  0
 25 26  1  0
 26 27  2  0
 27 28  1  0
 18 29  2  0
  2 30  1  0
 30 31  1  0
 31 32  1  0
 32 33  1  0
 33 34  1  0
 34 35  1  0
 29  4  1  0
 35 30  1  0
 16  7  1  0
 28 19  1  0
 15 10  1  0
 27 22  1  0
  3 36  1  0
  8 37  1  0
  8 38  1  0
  9 39  1  0
  9 40  1  0
 11 41  1  0
 12 42  1  0
 13 43  1  0
 14 44  1  0
 16 45  1  0
 16 46  1  0
 20 47  1  0
 20 48  1  0
 21 49  1  0
 21 50  1  0
 23 51  1  0
 24 52  1  0
 25 53  1  0
 26 54  1  0
 28 55  1  0
 28 56  1  0
 30 57  1  1
 31 58  1  0
 31 59  1  0
 32 60  1  0
 32 61  1  0
 33 62  1  0
 33 63  1  0
 34 64  1  0
 35 65  1  0
 35 66  1  0
M  END
>  <smiles>  (41) 
O=C(Nc1nc(N2CCc3ccccc3C2)nc(N2CCc3ccccc3C2)n1)C1CCCNC1

>  <score_type>  (41) 
oracle

>  <origin>  (41) 
autodockgpu

>  <m_score__min__energy>  (41) 
-10.140000000000001

>  <m_primary>  (41) 
energy

>  <rmsd>  (41) 
4.31912838694215

>  <m_score__min__rmsd>  (41) 
4.31912838694215

>  <meeko>  (41) 
{"free_energy": -9.78, "intermolecular_energy": -10.98, "internal_energy": -0.92, "cluster_size": 37, "cluster_id": 1, "rank_in_cluster": 36}

>  <energy>  (41) 
-9.94

>  <cluster_rmsd>  (41) 
0.02

>  <cluster>  (41) 
2

$$$$

     RDKit          3D

 66 71  0  0  1  0  0  0  0  0999 V2000
  139.2130   75.5630  222.5010 O   0  0  0  0  0  0  0  0  0  0  0  0
  140.1760   76.1890  221.9910 C   0  0  0  0  0  0  0  0  0  0  0  0
  141.2820   75.4170  221.5470 N   0  0  0  0  0  0  0  0  0  0  0  0
  141.3400   73.9990  221.6510 C   0  0  0  0  0  0  0  0  0  0  0  0
  140.7300   73.3620  222.6660 N   0  0  0  0  0  0  0  0  0  0  0  0
  140.8080   72.0000  222.7300 C   0  0  0  0  0  0  0  0  0  0  0  0
  140.1720   71.3120  223.7920 N   0  0  0  0  0  0  0  0  0  0  0  0
  139.0150   70.4830  223.5100 C   0  0  0  0  0  0  0  0  0  0  0  0
  139.3600   69.0720  223.9700 C   0  0  0  0  0  0  0  0  0  0  0  0
  139.6610   69.1850  225.4300 C   0  0  0  0  0  0  0  0  0  0  0  0
  139.2900   68.1100  226.2400 C   0  0  0  0  0  0  0  0  0  0  0  0
  139.5670   68.2080  227.5860 C   0  0  0  0  0  0  0  0  0  0  0  0
  140.1830   69.3110  228.1360 C   0  0  0  0  0  0  0  0  0  0  0  0
  140.5520   70.3800  227.3320 C   0  0  0  0  0  0  0  0  0  0  0  0
  140.2780   70.2880  225.9760 C   0  0  0  0  0  0  0  0  0  0  0  0
  140.6810   71.4420  225.1350 C   0  0  0  0  0  0  0  0  0  0  0  0
  141.4940   71.3230  221.7800 N   0  0  0  0  0  0  0  0  0  0  0  0
  142.1090   71.9510  220.7620 C   0  0  0  0  0  0  0  0  0  0  0  0
  142.8070   71.1610  219.8070 N   0  0  0  0  0  0  0  0  0  0  0  0
  143.7450   71.8150  218.9130 C   0  0  0  0  0  0  0  0  0  0  0  0
  145.1170   71.2830  219.3330 C   0  0  0  0  0  0  0  0  0  0  0  0
  145.0710   69.8090  219.0550 C   0  0  0  0  0  0  0  0  0  0  0  0
  146.2420   69.2130  218.6320 C   0  0  0  0  0  0  0  0  0  0  0  0
  146.2060   67.8410  218.3720 C   0  0  0  0  0  0  0  0  0  0  0  0
  145.0340   67.1080  218.5330 C   0  0  0  0  0  0  0  0  0  0  0  0
  143.8710   67.7250  218.9590 C   0  0  0  0  0  0  0  0  0  0  0  0
  143.9110   69.0790  219.2140 C   0  0  0  0  0  0  0  0  0  0  0  0
  142.6350   69.7330  219.6750 C   0  0  0  0  0  0  0  0  0  0  0  0
  142.0230   73.2780  220.7130 N   0  0  0  0  0  0  0  0  0  0  0  0
  140.2020   77.6700  221.8420 C   0  0  2  0  0  0  0  0  0  0  0  0
  141.0610   78.0960  220.6730 C   0  0  0  0  0  0  0  0  0  0  0  0
  141.2670   79.5920  220.7890 C   0  0  0  0  0  0  0  0  0  0  0  0
  142.2070   79.8160  221.9660 C   0  0  0  0  0  0  0  0  0  0  0  0
  141.9300   78.9410  223.0690 N   0  0  0  0  0  0  0  0  0  0  0  0
  140.6020   78.3990  223.0800 C   0  0  0  0  0  0  0  0  0  0  0  0
  142.1140   75.8800  221.1140 H   0  0  0  0  0  0  0  0  0  0  0  0
  138.1386   70.8567  224.0599 H   0  0  0  0  0  0  0  0  0  0  0  0
  138.7705   70.4992  222.4376 H   0  0  0  0  0  0  0  0  0  0  0  0
  138.5082   68.3958  223.8052 H   0  0  0  0  0  0  0  0  0  0  0  0
  140.2124   68.6595  223.4104 H   0  0  0  0  0  0  0  0  0  0  0  0
  138.7965   67.2209  225.8205 H   0  0  0  0  0  0  0  0  0  0  0  0
  139.2859   67.3744  228.2464 H   0  0  0  0  0  0  0  0  0  0  0  0
  140.3831   69.3442  229.2171 H   0  0  0  0  0  0  0  0  0  0  0  0
  141.0441   71.2682  227.7551 H   0  0  0  0  0  0  0  0  0  0  0  0
  140.2850   72.3664  225.5808 H   0  0  0  0  0  0  0  0  0  0  0  0
  141.7796   71.4728  225.0895 H   0  0  0  0  0  0  0  0  0  0  0  0
  143.5309   71.5525  217.8665 H   0  0  0  0  0  0  0  0  0  0  0  0
  143.6861   72.9115  218.9775 H   0  0  0  0  0  0  0  0  0  0  0  0
  145.9130   71.7618  218.7438 H   0  0  0  0  0  0  0  0  0  0  0  0
  145.3333   71.4948  220.3905 H   0  0  0  0  0  0  0  0  0  0  0  0
  147.1666   69.7952  218.5048 H   0  0  0  0  0  0  0  0  0  0  0  0
  147.1201   67.3310  218.0340 H   0  0  0  0  0  0  0  0  0  0  0  0
  145.0322   66.0289  218.3198 H   0  0  0  0  0  0  0  0  0  0  0  0
  142.9415   67.1516  219.0903 H   0  0  0  0  0  0  0  0  0  0  0  0
  141.8414   69.5321  218.9403 H   0  0  0  0  0  0  0  0  0  0  0  0
  142.3626   69.3192  220.6571 H   0  0  0  0  0  0  0  0  0  0  0  0
  139.1587   77.9557  221.6419 H   0  0  0  0  0  0  0  0  0  0  0  0
  142.0308   77.5782  220.7098 H   0  0  0  0  0  0  0  0  0  0  0  0
  140.5755   77.8419  219.7192 H   0  0  0  0  0  0  0  0  0  0  0  0
  141.7163   79.9853  219.8652 H   0  0  0  0  0  0  0  0  0  0  0  0
  140.3099   80.1117  220.9434 H   0  0  0  0  0  0  0  0  0  0  0  0
  143.2399   79.6425  221.6297 H   0  0  0  0  0  0  0  0  0  0  0  0
  142.0617   80.8487  222.3159 H   0  0  0  0  0  0  0  0  0  0  0  0
  142.6210   78.1890  223.2000 H   0  0  0  0  0  0  0  0  0  0  0  0
  140.5272   77.6995  223.9257 H   0  0  0  0  0  0  0  0  0  0  0  0
  139.9222   79.2601  223.1596 H   0  0  0  0  0  0  0  0  0  0  0  0
  1  2  2  0
  2  3  1  0
  3  4  1  0
  4  5  2  0
  5  6  1  0
  6  7  1  0
  7  8  1  0
  8  9  1  0
  9 10  1  0
 10 11  2  0
 11 12  1  0
 12 13  2  0
 13 14  1  0
 14 15  2  0
 15 16  1  0
  6 17  2  0
 17 18  1  0
 18 19  1  0
 19 20  1  0
 20 21  1  0
 21 22  1  0
 22 23  2  0
 23 24  1  0
 24 25  2  0
 25 26  1  0
 26 27  2  0
 27 28  1  0
 18 29  2  0
  2 30  1  0
 30 31  1  0
 31 32  1  0
 32 33  1  0
 33 34  1  0
 34 35  1  0
 29  4  1  0
 35 30  1  0
 16  7  1  0
 28 19  1  0
 15 10  1  0
 27 22  1  0
  3 36  1  0
  8 37  1  0
  8 38  1  0
  9 39  1  0
  9 40  1  0
 11 41  1  0
 12 42  1  0
 13 43  1  0
 14 44  1  0
 16 45  1  0
 16 46  1  0
 20 47  1  0
 20 48  1  0
 21 49  1  0
 21 50  1  0
 23 51  1  0
 24 52  1  0
 25 53  1  0
 26 54  1  0
 28 55  1  0
 28 56  1  0
 30 57  1  6
 31 58  1  0
 31 59  1  0
 32 60  1  0
 32 61  1  0
 33 62  1  0
 33 63  1  0
 34 64  1  0
 35 65  1  0
 35 66  1  0
M  END
>  <smiles>  (42) 
O=C(Nc1nc(N2CCc3ccccc3C2)nc(N2CCc3ccccc3C2)n1)C1CCCNC1

>  <score_type>  (42) 
oracle

>  <origin>  (42) 
autodockgpu

>  <m_score__min__energy>  (42) 
-10.140000000000001

>  <m_primary>  (42) 
energy

>  <rmsd>  (42) 
4.554303255197683

>  <m_score__min__rmsd>  (42) 
4.554303255197683

>  <meeko>  (42) 
{"free_energy": -10.1, "intermolecular_energy": -11.3, "internal_energy": -0.85, "cluster_size": 37, "cluster_id": 1, "rank_in_cluster": 10}

>  <energy>  (42) 
-9.91

>  <cluster_rmsd>  (42) 
0.35

>  <cluster>  (42) 
2

$$$$

     RDKit          3D

 66 71  0  0  1  0  0  0  0  0999 V2000
  139.0910   75.5610  222.2160 O   0  0  0  0  0  0  0  0  0  0  0  0
  140.1070   76.1920  221.8310 C   0  0  0  0  0  0  0  0  0  0  0  0
  141.2620   75.4250  221.5240 N   0  0  0  0  0  0  0  0  0  0  0  0
  141.3120   74.0080  221.6300 C   0  0  0  0  0  0  0  0  0  0  0  0
  140.7030   73.3750  222.6490 N   0  0  0  0  0  0  0  0  0  0  0  0
  140.7740   72.0130  222.7140 C   0  0  0  0  0  0  0  0  0  0  0  0
  140.1390   71.3300  223.7800 N   0  0  0  0  0  0  0  0  0  0  0  0
  138.9820   70.4980  223.5030 C   0  0  0  0  0  0  0  0  0  0  0  0
  139.3290   69.0900  223.9710 C   0  0  0  0  0  0  0  0  0  0  0  0
  139.6310   69.2110  225.4300 C   0  0  0  0  0  0  0  0  0  0  0  0
  139.2620   68.1400  226.2460 C   0  0  0  0  0  0  0  0  0  0  0  0
  139.5390   68.2460  227.5910 C   0  0  0  0  0  0  0  0  0  0  0  0
  140.1540   69.3520  228.1350 C   0  0  0  0  0  0  0  0  0  0  0  0
  140.5220   70.4170  227.3240 C   0  0  0  0  0  0  0  0  0  0  0  0
  140.2470   70.3180  225.9690 C   0  0  0  0  0  0  0  0  0  0  0  0
  140.6490   71.4680  225.1220 C   0  0  0  0  0  0  0  0  0  0  0  0
  141.4510   71.3300  221.7610 N   0  0  0  0  0  0  0  0  0  0  0  0
  142.0640   71.9540  220.7390 C   0  0  0  0  0  0  0  0  0  0  0  0
  142.7520   71.1580  219.7820 N   0  0  0  0  0  0  0  0  0  0  0  0
  143.6890   71.8060  218.8820 C   0  0  0  0  0  0  0  0  0  0  0  0
  145.0600   71.2650  219.2950 C   0  0  0  0  0  0  0  0  0  0  0  0
  145.0030   69.7910  219.0190 C   0  0  0  0  0  0  0  0  0  0  0  0
  146.1680   69.1880  218.5910 C   0  0  0  0  0  0  0  0  0  0  0  0
  146.1220   67.8160  218.3330 C   0  0  0  0  0  0  0  0  0  0  0  0
  144.9470   67.0910  218.5010 C   0  0  0  0  0  0  0  0  0  0  0  0
  143.7910   67.7150  218.9320 C   0  0  0  0  0  0  0  0  0  0  0  0
  143.8400   69.0690  219.1850 C   0  0  0  0  0  0  0  0  0  0  0  0
  142.5710   69.7320  219.6520 C   0  0  0  0  0  0  0  0  0  0  0  0
  141.9850   73.2810  220.6890 N   0  0  0  0  0  0  0  0  0  0  0  0
  140.1450   77.6740  221.6920 C   0  0  2  0  0  0  0  0  0  0  0  0
  141.0070   78.1000  220.5250 C   0  0  0  0  0  0  0  0  0  0  0  0
  141.2260   79.5940  220.6490 C   0  0  0  0  0  0  0  0  0  0  0  0
  142.1700   79.8010  221.8260 C   0  0  0  0  0  0  0  0  0  0  0  0
  141.8870   78.9220  222.9240 N   0  0  0  0  0  0  0  0  0  0  0  0
  140.5540   78.3910  222.9340 C   0  0  0  0  0  0  0  0  0  0  0  0
  142.1400   75.8930  221.1990 H   0  0  0  0  0  0  0  0  0  0  0  0
  138.1055   70.8739  224.0512 H   0  0  0  0  0  0  0  0  0  0  0  0
  138.7367   70.5079  222.4307 H   0  0  0  0  0  0  0  0  0  0  0  0
  138.4778   68.4119  223.8106 H   0  0  0  0  0  0  0  0  0  0  0  0
  140.1817   68.6756  223.4131 H   0  0  0  0  0  0  0  0  0  0  0  0
  138.7700   67.2477  225.8316 H   0  0  0  0  0  0  0  0  0  0  0  0
  139.2585   67.4159  228.2560 H   0  0  0  0  0  0  0  0  0  0  0  0
  140.3543   69.3915  229.2159 H   0  0  0  0  0  0  0  0  0  0  0  0
  141.0142   71.3076  227.7418 H   0  0  0  0  0  0  0  0  0  0  0  0
  140.2527   72.3945  225.5631 H   0  0  0  0  0  0  0  0  0  0  0  0
  141.7476   71.4998  225.0759 H   0  0  0  0  0  0  0  0  0  0  0  0
  143.4673   71.5444  217.8368 H   0  0  0  0  0  0  0  0  0  0  0  0
  143.6374   72.9029  218.9459 H   0  0  0  0  0  0  0  0  0  0  0  0
  145.8558   71.7379  218.7008 H   0  0  0  0  0  0  0  0  0  0  0  0
  145.2833   71.4764  220.3511 H   0  0  0  0  0  0  0  0  0  0  0  0
  147.0954   69.7644  218.4584 H   0  0  0  0  0  0  0  0  0  0  0  0
  147.0311   67.2998  217.9909 H   0  0  0  0  0  0  0  0  0  0  0  0
  144.9374   66.0116  218.2891 H   0  0  0  0  0  0  0  0  0  0  0  0
  142.8589   67.1472  219.0691 H   0  0  0  0  0  0  0  0  0  0  0  0
  141.7723   69.5356  218.9216 H   0  0  0  0  0  0  0  0  0  0  0  0
  142.3016   69.3210  220.6361 H   0  0  0  0  0  0  0  0  0  0  0  0
  139.1039   77.9700  221.4957 H   0  0  0  0  0  0  0  0  0  0  0  0
  141.9725   77.5739  220.5582 H   0  0  0  0  0  0  0  0  0  0  0  0
  140.5185   77.8557  219.5702 H   0  0  0  0  0  0  0  0  0  0  0  0
  141.6773   79.9890  219.7269 H   0  0  0  0  0  0  0  0  0  0  0  0
  140.2740   80.1219  220.8073 H   0  0  0  0  0  0  0  0  0  0  0  0
  143.2005   79.6197  221.4867 H   0  0  0  0  0  0  0  0  0  0  0  0
  142.0348   80.8327  222.1829 H   0  0  0  0  0  0  0  0  0  0  0  0
  142.5710   78.1630  223.0500 H   0  0  0  0  0  0  0  0  0  0  0  0
  140.4751   77.6864  223.7750 H   0  0  0  0  0  0  0  0  0  0  0  0
  139.8818   79.2574  223.0208 H   0  0  0  0  0  0  0  0  0  0  0  0
  1  2  2  0
  2  3  1  0
  3  4  1  0
  4  5  2  0
  5  6  1  0
  6  7  1  0
  7  8  1  0
  8  9  1  0
  9 10  1  0
 10 11  2  0
 11 12  1  0
 12 13  2  0
 13 14  1  0
 14 15  2  0
 15 16  1  0
  6 17  2  0
 17 18  1  0
 18 19  1  0
 19 20  1  0
 20 21  1  0
 21 22  1  0
 22 23  2  0
 23 24  1  0
 24 25  2  0
 25 26  1  0
 26 27  2  0
 27 28  1  0
 18 29  2  0
  2 30  1  0
 30 31  1  0
 31 32  1  0
 32 33  1  0
 33 34  1  0
 34 35  1  0
 29  4  1  0
 35 30  1  0
 16  7  1  0
 28 19  1  0
 15 10  1  0
 27 22  1  0
  3 36  1  0
  8 37  1  0
  8 38  1  0
  9 39  1  0
  9 40  1  0
 11 41  1  0
 12 42  1  0
 13 43  1  0
 14 44  1  0
 16 45  1  0
 16 46  1  0
 20 47  1  0
 20 48  1  0
 21 49  1  0
 21 50  1  0
 23 51  1  0
 24 52  1  0
 25 53  1  0
 26 54  1  0
 28 55  1  0
 28 56  1  0
 30 57  1  6
 31 58  1  0
 31 59  1  0
 32 60  1  0
 32 61  1  0
 33 62  1  0
 33 63  1  0
 34 64  1  0
 35 65  1  0
 35 66  1  0
M  END
>  <smiles>  (43) 
O=C(Nc1nc(N2CCc3ccccc3C2)nc(N2CCc3ccccc3C2)n1)C1CCCNC1

>  <score_type>  (43) 
oracle

>  <origin>  (43) 
autodockgpu

>  <m_score__min__energy>  (43) 
-10.140000000000001

>  <m_primary>  (43) 
energy

>  <rmsd>  (43) 
4.478411693999078

>  <m_score__min__rmsd>  (43) 
4.478411693999078

>  <meeko>  (43) 
{"free_energy": -10.08, "intermolecular_energy": -11.28, "internal_energy": -0.88, "cluster_size": 37, "cluster_id": 1, "rank_in_cluster": 14}

>  <energy>  (43) 
-9.9

>  <cluster_rmsd>  (43) 
0.86

>  <cluster>  (43) 
2

$$$$

     RDKit          3D

 66 71  0  0  1  0  0  0  0  0999 V2000
  139.5130   75.7620  222.4810 O   0  0  0  0  0  0  0  0  0  0  0  0
  140.4170   76.3770  221.8610 C   0  0  0  0  0  0  0  0  0  0  0  0
  141.4490   75.5920  221.2840 N   0  0  0  0  0  0  0  0  0  0  0  0
  141.4990   74.1740  221.3750 C   0  0  0  0  0  0  0  0  0  0  0  0
  142.2440   73.4580  220.5130 N   0  0  0  0  0  0  0  0  0  0  0  0
  142.2650   72.0980  220.6340 C   0  0  0  0  0  0  0  0  0  0  0  0
  143.0440   71.3280  219.7360 N   0  0  0  0  0  0  0  0  0  0  0  0
  144.0420   71.9860  218.9140 C   0  0  0  0  0  0  0  0  0  0  0  0
  145.3820   71.3440  219.2460 C   0  0  0  0  0  0  0  0  0  0  0  0
  145.2250   69.8910  218.9300 C   0  0  0  0  0  0  0  0  0  0  0  0
  146.3440   69.2260  218.4270 C   0  0  0  0  0  0  0  0  0  0  0  0
  146.2050   67.8870  218.1360 C   0  0  0  0  0  0  0  0  0  0  0  0
  145.0210   67.2080  218.3220 C   0  0  0  0  0  0  0  0  0  0  0  0
  143.9070   67.8690  218.8220 C   0  0  0  0  0  0  0  0  0  0  0  0
  144.0390   69.2160  219.1190 C   0  0  0  0  0  0  0  0  0  0  0  0
  142.8370   69.9030  219.6520 C   0  0  0  0  0  0  0  0  0  0  0  0
  141.5420   71.5000  221.6100 N   0  0  0  0  0  0  0  0  0  0  0  0
  140.7930   72.2070  222.4750 C   0  0  0  0  0  0  0  0  0  0  0  0
  140.0650   71.4970  223.4700 N   0  0  0  0  0  0  0  0  0  0  0  0
  138.9200   70.7050  223.0610 C   0  0  0  0  0  0  0  0  0  0  0  0
  139.3390   69.2560  223.3180 C   0  0  0  0  0  0  0  0  0  0  0  0
  139.5400   69.1590  224.8010 C   0  0  0  0  0  0  0  0  0  0  0  0
  139.2050   67.9630  225.4030 C   0  0  0  0  0  0  0  0  0  0  0  0
  139.3900   67.8660  226.7850 C   0  0  0  0  0  0  0  0  0  0  0  0
  139.8920   68.9350  227.5200 C   0  0  0  0  0  0  0  0  0  0  0  0
  140.2220   70.1250  226.8980 C   0  0  0  0  0  0  0  0  0  0  0  0
  140.0380   70.2160  225.5350 C   0  0  0  0  0  0  0  0  0  0  0  0
  140.4020   71.5200  224.8730 C   0  0  0  0  0  0  0  0  0  0  0  0
  140.7830   73.5320  222.3450 N   0  0  0  0  0  0  0  0  0  0  0  0
  140.4460   77.8590  221.7160 C   0  0  2  0  0  0  0  0  0  0  0  0
  141.3760   78.2900  220.6050 C   0  0  0  0  0  0  0  0  0  0  0  0
  141.5680   79.7870  220.7350 C   0  0  0  0  0  0  0  0  0  0  0  0
  142.4310   80.0120  221.9700 C   0  0  0  0  0  0  0  0  0  0  0  0
  142.0870   79.1350  223.0520 N   0  0  0  0  0  0  0  0  0  0  0  0
  140.7630   78.5870  222.9780 C   0  0  0  0  0  0  0  0  0  0  0  0
  142.2300   76.0460  220.7550 H   0  0  0  0  0  0  0  0  0  0  0  0
  143.8081   71.8438  217.8486 H   0  0  0  0  0  0  0  0  0  0  0  0
  144.0640   73.0678  219.1120 H   0  0  0  0  0  0  0  0  0  0  0  0
  146.1811   71.7856  218.6325 H   0  0  0  0  0  0  0  0  0  0  0  0
  145.6579   71.5026  220.2990 H   0  0  0  0  0  0  0  0  0  0  0  0
  147.2983   69.7499  218.2693 H   0  0  0  0  0  0  0  0  0  0  0  0
  147.0726   67.3389  217.7399 H   0  0  0  0  0  0  0  0  0  0  0  0
  144.9578   66.1383  218.0735 H   0  0  0  0  0  0  0  0  0  0  0  0
  142.9538   67.3422  218.9768 H   0  0  0  0  0  0  0  0  0  0  0  0
  141.9847   69.7030  218.9859 H   0  0  0  0  0  0  0  0  0  0  0  0
  142.6373   69.5201  220.6637 H   0  0  0  0  0  0  0  0  0  0  0  0
  138.0346   70.9649  223.6598 H   0  0  0  0  0  0  0  0  0  0  0  0
  138.6472   70.8794  222.0097 H   0  0  0  0  0  0  0  0  0  0  0  0
  138.5503   68.5629  222.9900 H   0  0  0  0  0  0  0  0  0  0  0  0
  140.2497   68.9879  222.7624 H   0  0  0  0  0  0  0  0  0  0  0  0
  138.8083   67.1198  224.8185 H   0  0  0  0  0  0  0  0  0  0  0  0
  139.1343   66.9284  227.3002 H   0  0  0  0  0  0  0  0  0  0  0  0
  140.0278   68.8326  228.6068 H   0  0  0  0  0  0  0  0  0  0  0  0
  140.6195   70.9738  227.4738 H   0  0  0  0  0  0  0  0  0  0  0  0
  139.8525   72.3379  225.3620 H   0  0  0  0  0  0  0  0  0  0  0  0
  141.4868   71.6733  224.9714 H   0  0  0  0  0  0  0  0  0  0  0  0
  139.4166   78.1413  221.4501 H   0  0  0  0  0  0  0  0  0  0  0  0
  142.3437   77.7763  220.7033 H   0  0  0  0  0  0  0  0  0  0  0  0
  140.9535   78.0350  219.6219 H   0  0  0  0  0  0  0  0  0  0  0  0
  142.0734   80.1834  219.8420 H   0  0  0  0  0  0  0  0  0  0  0  0
  140.6012   80.3033  220.8285 H   0  0  0  0  0  0  0  0  0  0  0  0
  143.4836   79.8417  221.6998 H   0  0  0  0  0  0  0  0  0  0  0  0
  142.2609   81.0438  222.3112 H   0  0  0  0  0  0  0  0  0  0  0  0
  142.7720   78.3860  223.2260 H   0  0  0  0  0  0  0  0  0  0  0  0
  140.6379   77.8855  223.8160 H   0  0  0  0  0  0  0  0  0  0  0  0
  140.0754   79.4448  223.0161 H   0  0  0  0  0  0  0  0  0  0  0  0
  1  2  2  0
  2  3  1  0
  3  4  1  0
  4  5  2  0
  5  6  1  0
  6  7  1  0
  7  8  1  0
  8  9  1  0
  9 10  1  0
 10 11  2  0
 11 12  1  0
 12 13  2  0
 13 14  1  0
 14 15  2  0
 15 16  1  0
  6 17  2  0
 17 18  1  0
 18 19  1  0
 19 20  1  0
 20 21  1  0
 21 22  1  0
 22 23  2  0
 23 24  1  0
 24 25  2  0
 25 26  1  0
 26 27  2  0
 27 28  1  0
 18 29  2  0
  2 30  1  0
 30 31  1  0
 31 32  1  0
 32 33  1  0
 33 34  1  0
 34 35  1  0
 29  4  1  0
 35 30  1  0
 16  7  1  0
 28 19  1  0
 15 10  1  0
 27 22  1  0
  3 36  1  0
  8 37  1  0
  8 38  1  0
  9 39  1  0
  9 40  1  0
 11 41  1  0
 12 42  1  0
 13 43  1  0
 14 44  1  0
 16 45  1  0
 16 46  1  0
 20 47  1  0
 20 48  1  0
 21 49  1  0
 21 50  1  0
 23 51  1  0
 24 52  1  0
 25 53  1  0
 26 54  1  0
 28 55  1  0
 28 56  1  0
 30 57  1  6
 31 58  1  0
 31 59  1  0
 32 60  1  0
 32 61  1  0
 33 62  1  0
 33 63  1  0
 34 64  1  0
 35 65  1  0
 35 66  1  0
M  END
>  <smiles>  (44) 
O=C(Nc1nc(N2CCc3ccccc3C2)nc(N2CCc3ccccc3C2)n1)C1CCCNC1

>  <score_type>  (44) 
oracle

>  <origin>  (44) 
autodockgpu

>  <m_score__min__energy>  (44) 
-10.140000000000001

>  <m_primary>  (44) 
energy

>  <rmsd>  (44) 
4.647631687829745

>  <m_score__min__rmsd>  (44) 
4.647631687829745

>  <meeko>  (44) 
{"free_energy": -10.04, "intermolecular_energy": -11.24, "internal_energy": -0.8, "cluster_size": 37, "cluster_id": 1, "rank_in_cluster": 19}

>  <energy>  (44) 
-9.9

>  <cluster_rmsd>  (44) 
0.86

>  <cluster>  (44) 
2

$$$$

     RDKit          3D

 66 71  0  0  1  0  0  0  0  0999 V2000
  139.2900   75.6450  222.4870 O   0  0  0  0  0  0  0  0  0  0  0  0
  140.2380   76.2750  221.9570 C   0  0  0  0  0  0  0  0  0  0  0  0
  141.3270   75.5070  221.4670 N   0  0  0  0  0  0  0  0  0  0  0  0
  141.3840   74.0880  221.5480 C   0  0  0  0  0  0  0  0  0  0  0  0
  142.1170   73.3800  220.6700 N   0  0  0  0  0  0  0  0  0  0  0  0
  142.1460   72.0200  220.7820 C   0  0  0  0  0  0  0  0  0  0  0  0
  142.9120   71.2580  219.8660 N   0  0  0  0  0  0  0  0  0  0  0  0
  143.9070   71.9230  219.0460 C   0  0  0  0  0  0  0  0  0  0  0  0
  145.2470   71.2670  219.3580 C   0  0  0  0  0  0  0  0  0  0  0  0
  145.0770   69.8210  219.0220 C   0  0  0  0  0  0  0  0  0  0  0  0
  146.1890   69.1560  218.4990 C   0  0  0  0  0  0  0  0  0  0  0  0
  146.0390   67.8220  218.1890 C   0  0  0  0  0  0  0  0  0  0  0  0
  144.8520   67.1480  218.3750 C   0  0  0  0  0  0  0  0  0  0  0  0
  143.7460   67.8080  218.8950 C   0  0  0  0  0  0  0  0  0  0  0  0
  143.8890   69.1500  219.2100 C   0  0  0  0  0  0  0  0  0  0  0  0
  142.6950   69.8360  219.7630 C   0  0  0  0  0  0  0  0  0  0  0  0
  141.4410   71.4130  221.7660 N   0  0  0  0  0  0  0  0  0  0  0  0
  140.7040   72.1120  222.6480 C   0  0  0  0  0  0  0  0  0  0  0  0
  139.9960   71.3930  223.6500 N   0  0  0  0  0  0  0  0  0  0  0  0
  138.8610   70.5790  223.2520 C   0  0  0  0  0  0  0  0  0  0  0  0
  139.3080   69.1380  223.5110 C   0  0  0  0  0  0  0  0  0  0  0  0
  139.5210   69.0500  224.9930 C   0  0  0  0  0  0  0  0  0  0  0  0
  139.2100   67.8510  225.6020 C   0  0  0  0  0  0  0  0  0  0  0  0
  139.4070   67.7620  226.9820 C   0  0  0  0  0  0  0  0  0  0  0  0
  139.8950   68.8420  227.7110 C   0  0  0  0  0  0  0  0  0  0  0  0
  140.2000   70.0350  227.0820 C   0  0  0  0  0  0  0  0  0  0  0  0
  140.0050   70.1190  225.7200 C   0  0  0  0  0  0  0  0  0  0  0  0
  140.3420   71.4260  225.0510 C   0  0  0  0  0  0  0  0  0  0  0  0
  140.6870   73.4370  222.5260 N   0  0  0  0  0  0  0  0  0  0  0  0
  140.2640   77.7580  221.8300 C   0  0  2  0  0  0  0  0  0  0  0  0
  141.1710   78.2040  220.7040 C   0  0  0  0  0  0  0  0  0  0  0  0
  141.3650   79.6990  220.8490 C   0  0  0  0  0  0  0  0  0  0  0  0
  142.2540   79.9090  222.0670 C   0  0  0  0  0  0  0  0  0  0  0  0
  141.9340   79.0190  223.1460 N   0  0  0  0  0  0  0  0  0  0  0  0
  140.6090   78.4710  223.0930 C   0  0  0  0  0  0  0  0  0  0  0  0
  142.1470   75.9740  221.0150 H   0  0  0  0  0  0  0  0  0  0  0  0
  143.6638   71.7986  217.9805 H   0  0  0  0  0  0  0  0  0  0  0  0
  143.9370   73.0016  219.2600 H   0  0  0  0  0  0  0  0  0  0  0  0
  146.0441   71.7122  218.7445 H   0  0  0  0  0  0  0  0  0  0  0  0
  145.5330   71.4084  220.4107 H   0  0  0  0  0  0  0  0  0  0  0  0
  147.1452   69.6763  218.3412 H   0  0  0  0  0  0  0  0  0  0  0  0
  146.8996   67.2744  217.7774 H   0  0  0  0  0  0  0  0  0  0  0  0
  144.7798   66.0827  218.1106 H   0  0  0  0  0  0  0  0  0  0  0  0
  142.7912   67.2845  219.0511 H   0  0  0  0  0  0  0  0  0  0  0  0
  141.8362   69.6510  219.1011 H   0  0  0  0  0  0  0  0  0  0  0  0
  142.5005   69.4393  220.7704 H   0  0  0  0  0  0  0  0  0  0  0  0
  137.9757   70.8254  223.8566 H   0  0  0  0  0  0  0  0  0  0  0  0
  138.5769   70.7449  222.2023 H   0  0  0  0  0  0  0  0  0  0  0  0
  138.5296   68.4297  223.1909 H   0  0  0  0  0  0  0  0  0  0  0  0
  140.2195   68.8842  222.9499 H   0  0  0  0  0  0  0  0  0  0  0  0
  138.8224   66.9994  225.0236 H   0  0  0  0  0  0  0  0  0  0  0  0
  139.1721   66.8214  227.5017 H   0  0  0  0  0  0  0  0  0  0  0  0
  140.0394   68.7459  228.7972 H   0  0  0  0  0  0  0  0  0  0  0  0
  140.5871   70.8924  227.6521 H   0  0  0  0  0  0  0  0  0  0  0  0
  139.7820   72.2361  225.5411 H   0  0  0  0  0  0  0  0  0  0  0  0
  141.4248   71.5975  225.1412 H   0  0  0  0  0  0  0  0  0  0  0  0
  139.2287   78.0421  221.5903 H   0  0  0  0  0  0  0  0  0  0  0  0
  142.1407   77.6897  220.7753 H   0  0  0  0  0  0  0  0  0  0  0  0
  140.7279   77.9612  219.7269 H   0  0  0  0  0  0  0  0  0  0  0  0
  141.8507   80.1071  219.9504 H   0  0  0  0  0  0  0  0  0  0  0  0
  140.4001   80.2132  220.9702 H   0  0  0  0  0  0  0  0  0  0  0  0
  143.3005   79.7423  221.7719 H   0  0  0  0  0  0  0  0  0  0  0  0
  142.0909   80.9365  222.4243 H   0  0  0  0  0  0  0  0  0  0  0  0
  142.6220   78.2670  223.2960 H   0  0  0  0  0  0  0  0  0  0  0  0
  140.5021   77.7594  223.9250 H   0  0  0  0  0  0  0  0  0  0  0  0
  139.9227   79.3284  223.1552 H   0  0  0  0  0  0  0  0  0  0  0  0
  1  2  2  0
  2  3  1  0
  3  4  1  0
  4  5  2  0
  5  6  1  0
  6  7  1  0
  7  8  1  0
  8  9  1  0
  9 10  1  0
 10 11  2  0
 11 12  1  0
 12 13  2  0
 13 14  1  0
 14 15  2  0
 15 16  1  0
  6 17  2  0
 17 18  1  0
 18 19  1  0
 19 20  1  0
 20 21  1  0
 21 22  1  0
 22 23  2  0
 23 24  1  0
 24 25  2  0
 25 26  1  0
 26 27  2  0
 27 28  1  0
 18 29  2  0
  2 30  1  0
 30 31  1  0
 31 32  1  0
 32 33  1  0
 33 34  1  0
 34 35  1  0
 29  4  1  0
 35 30  1  0
 16  7  1  0
 28 19  1  0
 15 10  1  0
 27 22  1  0
  3 36  1  0
  8 37  1  0
  8 38  1  0
  9 39  1  0
  9 40  1  0
 11 41  1  0
 12 42  1  0
 13 43  1  0
 14 44  1  0
 16 45  1  0
 16 46  1  0
 20 47  1  0
 20 48  1  0
 21 49  1  0
 21 50  1  0
 23 51  1  0
 24 52  1  0
 25 53  1  0
 26 54  1  0
 28 55  1  0
 28 56  1  0
 30 57  1  6
 31 58  1  0
 31 59  1  0
 32 60  1  0
 32 61  1  0
 33 62  1  0
 33 63  1  0
 34 64  1  0
 35 65  1  0
 35 66  1  0
M  END
>  <smiles>  (45) 
O=C(Nc1nc(N2CCc3ccccc3C2)nc(N2CCc3ccccc3C2)n1)C1CCCNC1

>  <score_type>  (45) 
oracle

>  <origin>  (45) 
autodockgpu

>  <m_score__min__energy>  (45) 
-10.140000000000001

>  <m_primary>  (45) 
energy

>  <rmsd>  (45) 
4.61843889906234

>  <m_score__min__rmsd>  (45) 
4.61843889906234

>  <meeko>  (45) 
{"free_energy": -9.99, "intermolecular_energy": -11.18, "internal_energy": -0.83, "cluster_size": 37, "cluster_id": 1, "rank_in_cluster": 26}

>  <energy>  (45) 
-9.9

>  <cluster_rmsd>  (45) 
0.12

>  <cluster>  (45) 
2

$$$$

     RDKit          3D

 66 71  0  0  1  0  0  0  0  0999 V2000
  139.5600   75.6280  222.7120 O   0  0  0  0  0  0  0  0  0  0  0  0
  140.3000   76.1940  221.8690 C   0  0  0  0  0  0  0  0  0  0  0  0
  141.2020   75.3680  221.1470 N   0  0  0  0  0  0  0  0  0  0  0  0
  141.2960   73.9610  221.3340 C   0  0  0  0  0  0  0  0  0  0  0  0
  140.6930   73.3670  222.3790 N   0  0  0  0  0  0  0  0  0  0  0  0
  140.8070   72.0140  222.5240 C   0  0  0  0  0  0  0  0  0  0  0  0
  140.1790   71.3710  223.6180 N   0  0  0  0  0  0  0  0  0  0  0  0
  138.9870   70.5760  223.3890 C   0  0  0  0  0  0  0  0  0  0  0  0
  139.2970   69.1650  223.8720 C   0  0  0  0  0  0  0  0  0  0  0  0
  139.6450   69.3000  225.3190 C   0  0  0  0  0  0  0  0  0  0  0  0
  139.2620   68.2570  226.1640 C   0  0  0  0  0  0  0  0  0  0  0  0
  139.5810   68.3750  227.4990 C   0  0  0  0  0  0  0  0  0  0  0  0
  140.2490   69.4680  228.0060 C   0  0  0  0  0  0  0  0  0  0  0  0
  140.6310   70.5060  227.1670 C   0  0  0  0  0  0  0  0  0  0  0  0
  140.3150   70.3940  225.8220 C   0  0  0  0  0  0  0  0  0  0  0  0
  140.7310   71.5150  224.9430 C   0  0  0  0  0  0  0  0  0  0  0  0
  141.5190   71.3010  221.6200 N   0  0  0  0  0  0  0  0  0  0  0  0
  142.1260   71.8860  220.5710 C   0  0  0  0  0  0  0  0  0  0  0  0
  142.8540   71.0600  219.6700 N   0  0  0  0  0  0  0  0  0  0  0  0
  143.8610   71.6720  218.8230 C   0  0  0  0  0  0  0  0  0  0  0  0
  145.1890   71.1050  219.3280 C   0  0  0  0  0  0  0  0  0  0  0  0
  145.1140   69.6300  219.0680 C   0  0  0  0  0  0  0  0  0  0  0  0
  146.2890   68.9930  218.7220 C   0  0  0  0  0  0  0  0  0  0  0  0
  146.2260   67.6180  218.4800 C   0  0  0  0  0  0  0  0  0  0  0  0
  145.0250   66.9240  218.5830 C   0  0  0  0  0  0  0  0  0  0  0  0
  143.8590   67.5810  218.9310 C   0  0  0  0  0  0  0  0  0  0  0  0
  143.9250   68.9370  219.1700 C   0  0  0  0  0  0  0  0  0  0  0  0
  142.6460   69.6370  219.5470 C   0  0  0  0  0  0  0  0  0  0  0  0
  142.0060   73.2050  220.4440 N   0  0  0  0  0  0  0  0  0  0  0  0
  140.2700   77.6590  221.6070 C   0  0  2  0  0  0  0  0  0  0  0  0
  141.1450   78.0320  220.4310 C   0  0  0  0  0  0  0  0  0  0  0  0
  141.2860   79.5400  220.4360 C   0  0  0  0  0  0  0  0  0  0  0  0
  142.1840   79.8910  221.6160 C   0  0  0  0  0  0  0  0  0  0  0  0
  141.9110   79.0920  222.7760 N   0  0  0  0  0  0  0  0  0  0  0  0
  140.6060   78.4960  222.7950 C   0  0  0  0  0  0  0  0  0  0  0  0
  141.8440   75.7800  220.4310 H   0  0  0  0  0  0  0  0  0  0  0  0
  138.1403   70.9920  223.9547 H   0  0  0  0  0  0  0  0  0  0  0  0
  138.7121   70.5762  222.3239 H   0  0  0  0  0  0  0  0  0  0  0  0
  138.4180   68.5154  223.7480 H   0  0  0  0  0  0  0  0  0  0  0  0
  140.1178   68.7106  223.2978 H   0  0  0  0  0  0  0  0  0  0  0  0
  138.7269   67.3762  225.7794 H   0  0  0  0  0  0  0  0  0  0  0  0
  139.2915   67.5661  228.1859 H   0  0  0  0  0  0  0  0  0  0  0  0
  140.4807   69.5185  229.0801 H   0  0  0  0  0  0  0  0  0  0  0  0
  141.1652   71.3856  227.5555 H   0  0  0  0  0  0  0  0  0  0  0  0
  140.3783   72.4619  225.3777 H   0  0  0  0  0  0  0  0  0  0  0  0
  141.8283   71.5087  224.8660 H   0  0  0  0  0  0  0  0  0  0  0  0
  143.6989   71.4007  217.7694 H   0  0  0  0  0  0  0  0  0  0  0  0
  143.8326   72.7706  218.8696 H   0  0  0  0  0  0  0  0  0  0  0  0
  146.0318   71.5506  218.7792 H   0  0  0  0  0  0  0  0  0  0  0  0
  145.3505   71.3259  220.3934 H   0  0  0  0  0  0  0  0  0  0  0  0
  147.2367   69.5455  218.6401 H   0  0  0  0  0  0  0  0  0  0  0  0
  147.1419   67.0753  218.2033 H   0  0  0  0  0  0  0  0  0  0  0  0
  145.0025   65.8421  218.3857 H   0  0  0  0  0  0  0  0  0  0  0  0
  142.9064   67.0373  219.0147 H   0  0  0  0  0  0  0  0  0  0  0  0
  141.8903   69.4494  218.7699 H   0  0  0  0  0  0  0  0  0  0  0  0
  142.3049   69.2468  220.5172 H   0  0  0  0  0  0  0  0  0  0  0  0
  139.2221   77.8834  221.3590 H   0  0  0  0  0  0  0  0  0  0  0  0
  142.1338   77.5610  220.5330 H   0  0  0  0  0  0  0  0  0  0  0  0
  140.6983   77.6854  219.4874 H   0  0  0  0  0  0  0  0  0  0  0  0
  141.7442   79.8812  219.4960 H   0  0  0  0  0  0  0  0  0  0  0  0
  140.3049   80.0292  220.5257 H   0  0  0  0  0  0  0  0  0  0  0  0
  143.2318   79.7348  221.3196 H   0  0  0  0  0  0  0  0  0  0  0  0
  141.9888   80.9404  221.8817 H   0  0  0  0  0  0  0  0  0  0  0  0
  142.6280   78.3820  222.9810 H   0  0  0  0  0  0  0  0  0  0  0  0
  140.5360   77.8598  223.6896 H   0  0  0  0  0  0  0  0  0  0  0  0
  139.8902   79.3312  222.7908 H   0  0  0  0  0  0  0  0  0  0  0  0
  1  2  2  0
  2  3  1  0
  3  4  1  0
  4  5  2  0
  5  6  1  0
  6  7  1  0
  7  8  1  0
  8  9  1  0
  9 10  1  0
 10 11  2  0
 11 12  1  0
 12 13  2  0
 13 14  1  0
 14 15  2  0
 15 16  1  0
  6 17  2  0
 17 18  1  0
 18 19  1  0
 19 20  1  0
 20 21  1  0
 21 22  1  0
 22 23  2  0
 23 24  1  0
 24 25  2  0
 25 26  1  0
 26 27  2  0
 27 28  1  0
 18 29  2  0
  2 30  1  0
 30 31  1  0
 31 32  1  0
 32 33  1  0
 33 34  1  0
 34 35  1  0
 29  4  1  0
 35 30  1  0
 16  7  1  0
 28 19  1  0
 15 10  1  0
 27 22  1  0
  3 36  1  0
  8 37  1  0
  8 38  1  0
  9 39  1  0
  9 40  1  0
 11 41  1  0
 12 42  1  0
 13 43  1  0
 14 44  1  0
 16 45  1  0
 16 46  1  0
 20 47  1  0
 20 48  1  0
 21 49  1  0
 21 50  1  0
 23 51  1  0
 24 52  1  0
 25 53  1  0
 26 54  1  0
 28 55  1  0
 28 56  1  0
 30 57  1  6
 31 58  1  0
 31 59  1  0
 32 60  1  0
 32 61  1  0
 33 62  1  0
 33 63  1  0
 34 64  1  0
 35 65  1  0
 35 66  1  0
M  END
>  <smiles>  (46) 
O=C(Nc1nc(N2CCc3ccccc3C2)nc(N2CCc3ccccc3C2)n1)C1CCCNC1

>  <score_type>  (46) 
oracle

>  <origin>  (46) 
autodockgpu

>  <m_score__min__energy>  (46) 
-10.140000000000001

>  <m_primary>  (46) 
energy

>  <rmsd>  (46) 
4.463880455976467

>  <m_score__min__rmsd>  (46) 
4.463880455976467

>  <meeko>  (46) 
{"free_energy": -10.13, "intermolecular_energy": -11.32, "internal_energy": -0.76, "cluster_size": 37, "cluster_id": 1, "rank_in_cluster": 3}

>  <energy>  (46) 
-9.87

>  <cluster_rmsd>  (46) 
0.32

>  <cluster>  (46) 
2

$$$$

     RDKit          3D

 66 71  0  0  1  0  0  0  0  0999 V2000
  144.2860   71.7060  220.6840 O   0  0  0  0  0  0  0  0  0  0  0  0
  143.6480   71.1160  219.7770 C   0  0  0  0  0  0  0  0  0  0  0  0
  142.2320   71.2170  219.8160 N   0  0  0  0  0  0  0  0  0  0  0  0
  141.5260   71.9420  220.8140 C   0  0  0  0  0  0  0  0  0  0  0  0
  141.0870   71.3260  221.9270 N   0  0  0  0  0  0  0  0  0  0  0  0
  140.4130   72.0580  222.8620 C   0  0  0  0  0  0  0  0  0  0  0  0
  139.9430   71.4260  224.0400 N   0  0  0  0  0  0  0  0  0  0  0  0
  138.7030   70.6740  223.9970 C   0  0  0  0  0  0  0  0  0  0  0  0
  139.0370   69.2490  224.4200 C   0  0  0  0  0  0  0  0  0  0  0  0
  139.6130   69.3580  225.7950 C   0  0  0  0  0  0  0  0  0  0  0  0
  139.3310   68.3200  226.6850 C   0  0  0  0  0  0  0  0  0  0  0  0
  139.8610   68.4150  227.9540 C   0  0  0  0  0  0  0  0  0  0  0  0
  140.6370   69.4800  228.3530 C   0  0  0  0  0  0  0  0  0  0  0  0
  140.9180   70.5130  227.4690 C   0  0  0  0  0  0  0  0  0  0  0  0
  140.3900   70.4240  226.1900 C   0  0  0  0  0  0  0  0  0  0  0  0
  140.7020   71.5380  225.2610 C   0  0  0  0  0  0  0  0  0  0  0  0
  140.2000   73.3790  222.6540 N   0  0  0  0  0  0  0  0  0  0  0  0
  140.6350   74.0040  221.5450 C   0  0  0  0  0  0  0  0  0  0  0  0
  140.3680   75.3940  221.4090 N   0  0  0  0  0  0  0  0  0  0  0  0
  138.9870   75.8420  221.4200 C   0  0  0  0  0  0  0  0  0  0  0  0
  138.8520   76.6470  222.7150 C   0  0  0  0  0  0  0  0  0  0  0  0
  139.7790   77.8150  222.5540 C   0  0  0  0  0  0  0  0  0  0  0  0
  139.3860   79.0110  223.1180 C   0  0  0  0  0  0  0  0  0  0  0  0
  140.2460   80.1030  222.9720 C   0  0  0  0  0  0  0  0  0  0  0  0
  141.4490   79.9840  222.2840 C   0  0  0  0  0  0  0  0  0  0  0  0
  141.8250   78.7750  221.7260 C   0  0  0  0  0  0  0  0  0  0  0  0
  140.9740   77.7010  221.8720 C   0  0  0  0  0  0  0  0  0  0  0  0
  141.3980   76.3930  221.2580 C   0  0  0  0  0  0  0  0  0  0  0  0
  141.2900   73.2770  220.6430 N   0  0  0  0  0  0  0  0  0  0  0  0
  144.3040   70.3340  218.6930 C   0  0  2  0  0  0  0  0  0  0  0  0
  143.5220   69.0830  218.3600 C   0  0  0  0  0  0  0  0  0  0  0  0
  144.4070   68.2200  217.4840 C   0  0  0  0  0  0  0  0  0  0  0  0
  145.5090   67.6710  218.3810 C   0  0  0  0  0  0  0  0  0  0  0  0
  145.9880   68.6390  219.3250 N   0  0  0  0  0  0  0  0  0  0  0  0
  145.7330   70.0030  218.9600 C   0  0  0  0  0  0  0  0  0  0  0  0
  141.6460   70.7470  219.0880 H   0  0  0  0  0  0  0  0  0  0  0  0
  137.9700   71.1127  224.6900 H   0  0  0  0  0  0  0  0  0  0  0  0
  138.2645   70.6936  222.9884 H   0  0  0  0  0  0  0  0  0  0  0  0
  138.1277   68.6301  224.4333 H   0  0  0  0  0  0  0  0  0  0  0  0
  139.7417   68.7736  223.7219 H   0  0  0  0  0  0  0  0  0  0  0  0
  138.7114   67.4617  226.3859 H   0  0  0  0  0  0  0  0  0  0  0  0
  139.6563   67.6097  228.6749 H   0  0  0  0  0  0  0  0  0  0  0  0
  141.0364   69.5126  229.3774 H   0  0  0  0  0  0  0  0  0  0  0  0
  141.5367   71.3705  227.7721 H   0  0  0  0  0  0  0  0  0  0  0  0
  140.4567   72.4924  225.7498 H   0  0  0  0  0  0  0  0  0  0  0  0
  141.7724   71.4943  225.0113 H   0  0  0  0  0  0  0  0  0  0  0  0
  138.7773   76.4754  220.5455 H   0  0  0  0  0  0  0  0  0  0  0  0
  138.2763   75.0037  221.3742 H   0  0  0  0  0  0  0  0  0  0  0  0
  137.8162   76.9927  222.8475 H   0  0  0  0  0  0  0  0  0  0  0  0
  139.1022   76.0441  223.6004 H   0  0  0  0  0  0  0  0  0  0  0  0
  138.4337   79.1016  223.6610 H   0  0  0  0  0  0  0  0  0  0  0  0
  139.9667   81.0732  223.4087 H   0  0  0  0  0  0  0  0  0  0  0  0
  142.1076   80.8592  222.1826 H   0  0  0  0  0  0  0  0  0  0  0  0
  142.7755   78.6741  221.1817 H   0  0  0  0  0  0  0  0  0  0  0  0
  141.5968   76.5459  220.1870 H   0  0  0  0  0  0  0  0  0  0  0  0
  142.3052   76.0420  221.7716 H   0  0  0  0  0  0  0  0  0  0  0  0
  144.3030   71.0011  217.8184 H   0  0  0  0  0  0  0  0  0  0  0  0
  143.2643   68.5430  219.2830 H   0  0  0  0  0  0  0  0  0  0  0  0
  142.5858   69.3350  217.8404 H   0  0  0  0  0  0  0  0  0  0  0  0
  143.8230   67.3939  217.0521 H   0  0  0  0  0  0  0  0  0  0  0  0
  144.8281   68.8025  216.6513 H   0  0  0  0  0  0  0  0  0  0  0  0
  145.1144   66.8057  218.9338 H   0  0  0  0  0  0  0  0  0  0  0  0
  146.3541   67.3902  217.7352 H   0  0  0  0  0  0  0  0  0  0  0  0
  145.6910   68.4700  220.2960 H   0  0  0  0  0  0  0  0  0  0  0  0
  146.0831   70.6458  219.7811 H   0  0  0  0  0  0  0  0  0  0  0  0
  146.2662   70.1694  218.0124 H   0  0  0  0  0  0  0  0  0  0  0  0
  1  2  2  0
  2  3  1  0
  3  4  1  0
  4  5  2  0
  5  6  1  0
  6  7  1  0
  7  8  1  0
  8  9  1  0
  9 10  1  0
 10 11  2  0
 11 12  1  0
 12 13  2  0
 13 14  1  0
 14 15  2  0
 15 16  1  0
  6 17  2  0
 17 18  1  0
 18 19  1  0
 19 20  1  0
 20 21  1  0
 21 22  1  0
 22 23  2  0
 23 24  1  0
 24 25  2  0
 25 26  1  0
 26 27  2  0
 27 28  1  0
 18 29  2  0
  2 30  1  0
 30 31  1  0
 31 32  1  0
 32 33  1  0
 33 34  1  0
 34 35  1  0
 29  4  1  0
 35 30  1  0
 16  7  1  0
 28 19  1  0
 15 10  1  0
 27 22  1  0
  3 36  1  0
  8 37  1  0
  8 38  1  0
  9 39  1  0
  9 40  1  0
 11 41  1  0
 12 42  1  0
 13 43  1  0
 14 44  1  0
 16 45  1  0
 16 46  1  0
 20 47  1  0
 20 48  1  0
 21 49  1  0
 21 50  1  0
 23 51  1  0
 24 52  1  0
 25 53  1  0
 26 54  1  0
 28 55  1  0
 28 56  1  0
 30 57  1  6
 31 58  1  0
 31 59  1  0
 32 60  1  0
 32 61  1  0
 33 62  1  0
 33 63  1  0
 34 64  1  0
 35 65  1  0
 35 66  1  0
M  END
>  <smiles>  (47) 
O=C(Nc1nc(N2CCc3ccccc3C2)nc(N2CCc3ccccc3C2)n1)C1CCCNC1

>  <score_type>  (47) 
oracle

>  <origin>  (47) 
autodockgpu

>  <m_score__min__energy>  (47) 
-10.140000000000001

>  <m_primary>  (47) 
energy

>  <rmsd>  (47) 
8.488625745047331

>  <m_score__min__rmsd>  (47) 
8.488625745047331

>  <meeko>  (47) 
{"free_energy": -9.95, "intermolecular_energy": -11.14, "internal_energy": -0.86, "cluster_size": 12, "cluster_id": 2, "rank_in_cluster": 3}

>  <energy>  (47) 
-9.86

>  <cluster_rmsd>  (47) 
0.32

>  <cluster>  (47) 
2

$$$$

     RDKit          3D

 66 71  0  0  1  0  0  0  0  0999 V2000
  139.2210   75.5780  222.5110 O   0  0  0  0  0  0  0  0  0  0  0  0
  140.1740   76.2030  221.9830 C   0  0  0  0  0  0  0  0  0  0  0  0
  141.2730   75.4300  221.5220 N   0  0  0  0  0  0  0  0  0  0  0  0
  141.3330   74.0130  221.6290 C   0  0  0  0  0  0  0  0  0  0  0  0
  140.7230   73.3760  222.6450 N   0  0  0  0  0  0  0  0  0  0  0  0
  140.8040   72.0150  222.7130 C   0  0  0  0  0  0  0  0  0  0  0  0
  140.1680   71.3280  223.7750 N   0  0  0  0  0  0  0  0  0  0  0  0
  139.0110   70.4990  223.4950 C   0  0  0  0  0  0  0  0  0  0  0  0
  139.3550   69.0880  223.9560 C   0  0  0  0  0  0  0  0  0  0  0  0
  139.6580   69.2030  225.4160 C   0  0  0  0  0  0  0  0  0  0  0  0
  139.2870   68.1280  226.2270 C   0  0  0  0  0  0  0  0  0  0  0  0
  139.5640   68.2280  227.5730 C   0  0  0  0  0  0  0  0  0  0  0  0
  140.1810   69.3310  228.1210 C   0  0  0  0  0  0  0  0  0  0  0  0
  140.5510   70.3990  227.3160 C   0  0  0  0  0  0  0  0  0  0  0  0
  140.2760   70.3060  225.9600 C   0  0  0  0  0  0  0  0  0  0  0  0
  140.6780   71.4590  225.1180 C   0  0  0  0  0  0  0  0  0  0  0  0
  141.4920   71.3370  221.7650 N   0  0  0  0  0  0  0  0  0  0  0  0
  142.1070   71.9640  220.7450 C   0  0  0  0  0  0  0  0  0  0  0  0
  142.8070   71.1720  219.7930 N   0  0  0  0  0  0  0  0  0  0  0  0
  143.7500   71.8250  218.9040 C   0  0  0  0  0  0  0  0  0  0  0  0
  145.1190   71.2880  219.3290 C   0  0  0  0  0  0  0  0  0  0  0  0
  145.0700   69.8150  219.0490 C   0  0  0  0  0  0  0  0  0  0  0  0
  146.2410   69.2170  218.6310 C   0  0  0  0  0  0  0  0  0  0  0  0
  146.2030   67.8450  218.3700 C   0  0  0  0  0  0  0  0  0  0  0  0
  145.0290   67.1150  218.5250 C   0  0  0  0  0  0  0  0  0  0  0  0
  143.8660   67.7340  218.9460 C   0  0  0  0  0  0  0  0  0  0  0  0
  143.9080   69.0880  219.2030 C   0  0  0  0  0  0  0  0  0  0  0  0
  142.6320   69.7460  219.6590 C   0  0  0  0  0  0  0  0  0  0  0  0
  142.0180   73.2910  220.6930 N   0  0  0  0  0  0  0  0  0  0  0  0
  140.1970   77.6830  221.8290 C   0  0  2  0  0  0  0  0  0  0  0  0
  141.1010   78.1100  220.6950 C   0  0  0  0  0  0  0  0  0  0  0  0
  141.2920   79.6080  220.8120 C   0  0  0  0  0  0  0  0  0  0  0  0
  142.1820   79.8420  222.0260 C   0  0  0  0  0  0  0  0  0  0  0  0
  141.8660   78.9700  223.1200 N   0  0  0  0  0  0  0  0  0  0  0  0
  140.5420   78.4190  223.0790 C   0  0  0  0  0  0  0  0  0  0  0  0
  142.0970   75.8920  221.0740 H   0  0  0  0  0  0  0  0  0  0  0  0
  138.1352   70.8737  224.0452 H   0  0  0  0  0  0  0  0  0  0  0  0
  138.7663   70.5140  222.4227 H   0  0  0  0  0  0  0  0  0  0  0  0
  138.5022   68.4125  223.7931 H   0  0  0  0  0  0  0  0  0  0  0  0
  140.2060   68.6735  223.3957 H   0  0  0  0  0  0  0  0  0  0  0  0
  138.7940   67.2382  225.8084 H   0  0  0  0  0  0  0  0  0  0  0  0
  139.2819   67.3959  228.2348 H   0  0  0  0  0  0  0  0  0  0  0  0
  140.3814   69.3653  229.2021 H   0  0  0  0  0  0  0  0  0  0  0  0
  141.0444   71.2869  227.7381 H   0  0  0  0  0  0  0  0  0  0  0  0
  140.2822   72.3836  225.5634 H   0  0  0  0  0  0  0  0  0  0  0  0
  141.7766   71.4898  225.0716 H   0  0  0  0  0  0  0  0  0  0  0  0
  143.5394   71.5650  217.8561 H   0  0  0  0  0  0  0  0  0  0  0  0
  143.6939   72.9216  218.9700 H   0  0  0  0  0  0  0  0  0  0  0  0
  145.9188   71.7652  218.7437 H   0  0  0  0  0  0  0  0  0  0  0  0
  145.3314   71.4976  220.3877 H   0  0  0  0  0  0  0  0  0  0  0  0
  147.1674   69.7972  218.5081 H   0  0  0  0  0  0  0  0  0  0  0  0
  147.1175   67.3330  218.0361 H   0  0  0  0  0  0  0  0  0  0  0  0
  145.0256   66.0360  218.3109 H   0  0  0  0  0  0  0  0  0  0  0  0
  142.9345   67.1627  219.0721 H   0  0  0  0  0  0  0  0  0  0  0  0
  141.8410   69.5481  218.9206 H   0  0  0  0  0  0  0  0  0  0  0  0
  142.3545   69.3324  220.6398 H   0  0  0  0  0  0  0  0  0  0  0  0
  139.1611   77.9610  221.5850 H   0  0  0  0  0  0  0  0  0  0  0  0
  142.0720   77.5992  220.7747 H   0  0  0  0  0  0  0  0  0  0  0  0
  140.6572   77.8484  219.7231 H   0  0  0  0  0  0  0  0  0  0  0  0
  141.7762   80.0004  219.9056 H   0  0  0  0  0  0  0  0  0  0  0  0
  140.3263   80.1226  220.9241 H   0  0  0  0  0  0  0  0  0  0  0  0
  143.2287   79.6736  221.7327 H   0  0  0  0  0  0  0  0  0  0  0  0
  142.0160   80.8750  222.3657 H   0  0  0  0  0  0  0  0  0  0  0  0
  142.5560   78.2230  223.2830 H   0  0  0  0  0  0  0  0  0  0  0  0
  140.4376   77.7221  223.9236 H   0  0  0  0  0  0  0  0  0  0  0  0
  139.8541   79.2760  223.1273 H   0  0  0  0  0  0  0  0  0  0  0  0
  1  2  2  0
  2  3  1  0
  3  4  1  0
  4  5  2  0
  5  6  1  0
  6  7  1  0
  7  8  1  0
  8  9  1  0
  9 10  1  0
 10 11  2  0
 11 12  1  0
 12 13  2  0
 13 14  1  0
 14 15  2  0
 15 16  1  0
  6 17  2  0
 17 18  1  0
 18 19  1  0
 19 20  1  0
 20 21  1  0
 21 22  1  0
 22 23  2  0
 23 24  1  0
 24 25  2  0
 25 26  1  0
 26 27  2  0
 27 28  1  0
 18 29  2  0
  2 30  1  0
 30 31  1  0
 31 32  1  0
 32 33  1  0
 33 34  1  0
 34 35  1  0
 29  4  1  0
 35 30  1  0
 16  7  1  0
 28 19  1  0
 15 10  1  0
 27 22  1  0
  3 36  1  0
  8 37  1  0
  8 38  1  0
  9 39  1  0
  9 40  1  0
 11 41  1  0
 12 42  1  0
 13 43  1  0
 14 44  1  0
 16 45  1  0
 16 46  1  0
 20 47  1  0
 20 48  1  0
 21 49  1  0
 21 50  1  0
 23 51  1  0
 24 52  1  0
 25 53  1  0
 26 54  1  0
 28 55  1  0
 28 56  1  0
 30 57  1  6
 31 58  1  0
 31 59  1  0
 32 60  1  0
 32 61  1  0
 33 62  1  0
 33 63  1  0
 34 64  1  0
 35 65  1  0
 35 66  1  0
M  END
>  <smiles>  (48) 
O=C(Nc1nc(N2CCc3ccccc3C2)nc(N2CCc3ccccc3C2)n1)C1CCCNC1

>  <score_type>  (48) 
oracle

>  <origin>  (48) 
autodockgpu

>  <m_score__min__energy>  (48) 
-10.140000000000001

>  <m_primary>  (48) 
energy

>  <rmsd>  (48) 
4.573767857413008

>  <m_score__min__rmsd>  (48) 
4.573767857413008

>  <meeko>  (48) 
{"free_energy": -10.12, "intermolecular_energy": -11.31, "internal_energy": -0.84, "cluster_size": 37, "cluster_id": 1, "rank_in_cluster": 5}

>  <energy>  (48) 
-9.73

>  <cluster_rmsd>  (48) 
0.28

>  <cluster>  (48) 
2

$$$$

     RDKit          3D

 66 71  0  0  1  0  0  0  0  0999 V2000
  139.1640   75.5890  222.3680 O   0  0  0  0  0  0  0  0  0  0  0  0
  140.1430   76.2150  221.8900 C   0  0  0  0  0  0  0  0  0  0  0  0
  141.2640   75.4450  221.4840 N   0  0  0  0  0  0  0  0  0  0  0  0
  141.3210   74.0280  221.5930 C   0  0  0  0  0  0  0  0  0  0  0  0
  140.7160   73.3940  222.6140 N   0  0  0  0  0  0  0  0  0  0  0  0
  140.7940   72.0330  222.6830 C   0  0  0  0  0  0  0  0  0  0  0  0
  140.1630   71.3480  223.7500 N   0  0  0  0  0  0  0  0  0  0  0  0
  139.0100   70.5120  223.4770 C   0  0  0  0  0  0  0  0  0  0  0  0
  139.3620   69.1060  223.9460 C   0  0  0  0  0  0  0  0  0  0  0  0
  139.6660   69.2310  225.4040 C   0  0  0  0  0  0  0  0  0  0  0  0
  139.3020   68.1590  226.2230 C   0  0  0  0  0  0  0  0  0  0  0  0
  139.5820   68.2680  227.5670 C   0  0  0  0  0  0  0  0  0  0  0  0
  140.1930   69.3770  228.1080 C   0  0  0  0  0  0  0  0  0  0  0  0
  140.5560   70.4430  227.2960 C   0  0  0  0  0  0  0  0  0  0  0  0
  140.2800   70.3410  225.9410 C   0  0  0  0  0  0  0  0  0  0  0  0
  140.6750   71.4910  225.0910 C   0  0  0  0  0  0  0  0  0  0  0  0
  141.4740   71.3510  221.7310 N   0  0  0  0  0  0  0  0  0  0  0  0
  142.0830   71.9750  220.7070 C   0  0  0  0  0  0  0  0  0  0  0  0
  142.7740   71.1810  219.7510 N   0  0  0  0  0  0  0  0  0  0  0  0
  143.7070   71.8310  218.8480 C   0  0  0  0  0  0  0  0  0  0  0  0
  145.0810   71.2990  219.2610 C   0  0  0  0  0  0  0  0  0  0  0  0
  145.0320   69.8240  218.9890 C   0  0  0  0  0  0  0  0  0  0  0  0
  146.2000   69.2260  218.5610 C   0  0  0  0  0  0  0  0  0  0  0  0
  146.1610   67.8530  218.3070 C   0  0  0  0  0  0  0  0  0  0  0  0
  144.9890   67.1220  218.4780 C   0  0  0  0  0  0  0  0  0  0  0  0
  143.8300   67.7410  218.9080 C   0  0  0  0  0  0  0  0  0  0  0  0
  143.8720   69.0960  219.1580 C   0  0  0  0  0  0  0  0  0  0  0  0
  142.6000   69.7530  219.6250 C   0  0  0  0  0  0  0  0  0  0  0  0
  141.9970   73.3020  220.6530 N   0  0  0  0  0  0  0  0  0  0  0  0
  140.1710   77.6960  221.7390 C   0  0  2  0  0  0  0  0  0  0  0  0
  141.0580   78.1210  220.5910 C   0  0  0  0  0  0  0  0  0  0  0  0
  141.2600   79.6180  220.7090 C   0  0  0  0  0  0  0  0  0  0  0  0
  142.1710   79.8440  221.9080 C   0  0  0  0  0  0  0  0  0  0  0  0
  141.8670   78.9710  223.0060 N   0  0  0  0  0  0  0  0  0  0  0  0
  140.5390   78.4270  222.9850 C   0  0  0  0  0  0  0  0  0  0  0  0
  142.1100   75.9080  221.0790 H   0  0  0  0  0  0  0  0  0  0  0  0
  138.1333   70.8856  224.0263 H   0  0  0  0  0  0  0  0  0  0  0  0
  138.7632   70.5193  222.4051 H   0  0  0  0  0  0  0  0  0  0  0  0
  138.5127   68.4250  223.7882 H   0  0  0  0  0  0  0  0  0  0  0  0
  140.2147   68.6929  223.3872 H   0  0  0  0  0  0  0  0  0  0  0  0
  138.8118   67.2645  225.8111 H   0  0  0  0  0  0  0  0  0  0  0  0
  139.3070   67.4374  228.2337 H   0  0  0  0  0  0  0  0  0  0  0  0
  140.3944   69.4186  229.1886 H   0  0  0  0  0  0  0  0  0  0  0  0
  141.0448   71.3361  227.7125 H   0  0  0  0  0  0  0  0  0  0  0  0
  140.2753   72.4165  225.5310 H   0  0  0  0  0  0  0  0  0  0  0  0
  141.7733   71.5277  225.0427 H   0  0  0  0  0  0  0  0  0  0  0  0
  143.4857   71.5649  217.8039 H   0  0  0  0  0  0  0  0  0  0  0  0
  143.6497   72.9278  218.9087 H   0  0  0  0  0  0  0  0  0  0  0  0
  145.8736   71.7747  218.6648 H   0  0  0  0  0  0  0  0  0  0  0  0
  145.3042   71.5145  220.3164 H   0  0  0  0  0  0  0  0  0  0  0  0
  147.1241   69.8071  218.4254 H   0  0  0  0  0  0  0  0  0  0  0  0
  147.0726   67.3405  217.9659 H   0  0  0  0  0  0  0  0  0  0  0  0
  144.9849   66.0420  218.2691 H   0  0  0  0  0  0  0  0  0  0  0  0
  142.9009   67.1686  219.0467 H   0  0  0  0  0  0  0  0  0  0  0  0
  141.8014   69.5504  218.8962 H   0  0  0  0  0  0  0  0  0  0  0  0
  142.3338   69.3430  220.6104 H   0  0  0  0  0  0  0  0  0  0  0  0
  139.1328   77.9803  221.5124 H   0  0  0  0  0  0  0  0  0  0  0  0
  142.0271   77.6042  220.6526 H   0  0  0  0  0  0  0  0  0  0  0  0
  140.5961   77.8649  219.6261 H   0  0  0  0  0  0  0  0  0  0  0  0
  141.7313   80.0100  219.7957 H   0  0  0  0  0  0  0  0  0  0  0  0
  140.2992   80.1376  220.8389 H   0  0  0  0  0  0  0  0  0  0  0  0
  143.2117   79.6696  221.5973 H   0  0  0  0  0  0  0  0  0  0  0  0
  142.0174   80.8774  222.2523 H   0  0  0  0  0  0  0  0  0  0  0  0
  142.5560   78.2200  223.1550 H   0  0  0  0  0  0  0  0  0  0  0  0
  140.4442   77.7287  223.8296 H   0  0  0  0  0  0  0  0  0  0  0  0
  139.8563   79.2873  223.0466 H   0  0  0  0  0  0  0  0  0  0  0  0
  1  2  2  0
  2  3  1  0
  3  4  1  0
  4  5  2  0
  5  6  1  0
  6  7  1  0
  7  8  1  0
  8  9  1  0
  9 10  1  0
 10 11  2  0
 11 12  1  0
 12 13  2  0
 13 14  1  0
 14 15  2  0
 15 16  1  0
  6 17  2  0
 17 18  1  0
 18 19  1  0
 19 20  1  0
 20 21  1  0
 21 22  1  0
 22 23  2  0
 23 24  1  0
 24 25  2  0
 25 26  1  0
 26 27  2  0
 27 28  1  0
 18 29  2  0
  2 30  1  0
 30 31  1  0
 31 32  1  0
 32 33  1  0
 33 34  1  0
 34 35  1  0
 29  4  1  0
 35 30  1  0
 16  7  1  0
 28 19  1  0
 15 10  1  0
 27 22  1  0
  3 36  1  0
  8 37  1  0
  8 38  1  0
  9 39  1  0
  9 40  1  0
 11 41  1  0
 12 42  1  0
 13 43  1  0
 14 44  1  0
 16 45  1  0
 16 46  1  0
 20 47  1  0
 20 48  1  0
 21 49  1  0
 21 50  1  0
 23 51  1  0
 24 52  1  0
 25 53  1  0
 26 54  1  0
 28 55  1  0
 28 56  1  0
 30 57  1  6
 31 58  1  0
 31 59  1  0
 32 60  1  0
 32 61  1  0
 33 62  1  0
 33 63  1  0
 34 64  1  0
 35 65  1  0
 35 66  1  0
M  END
>  <smiles>  (49) 
O=C(Nc1nc(N2CCc3ccccc3C2)nc(N2CCc3ccccc3C2)n1)C1CCCNC1

>  <score_type>  (49) 
oracle

>  <origin>  (49) 
autodockgpu

>  <m_score__min__energy>  (49) 
-10.140000000000001

>  <m_primary>  (49) 
energy

>  <rmsd>  (49) 
4.523299164183658

>  <m_score__min__rmsd>  (49) 
4.523299164183658

>  <meeko>  (49) 
{"free_energy": -10.12, "intermolecular_energy": -11.31, "internal_energy": -0.86, "cluster_size": 37, "cluster_id": 1, "rank_in_cluster": 6}

>  <energy>  (49) 
-9.66

>  <cluster_rmsd>  (49) 
0.44

>  <cluster>  (49) 
2

$$$$

     RDKit          3D

 66 71  0  0  1  0  0  0  0  0999 V2000
  144.1650   71.4940  220.8250 O   0  0  0  0  0  0  0  0  0  0  0  0
  143.5370   70.9680  219.8720 C   0  0  0  0  0  0  0  0  0  0  0  0
  142.1300   71.1610  219.8450 N   0  0  0  0  0  0  0  0  0  0  0  0
  141.4230   71.9080  220.8270 C   0  0  0  0  0  0  0  0  0  0  0  0
  141.1810   73.2190  220.6480 N   0  0  0  0  0  0  0  0  0  0  0  0
  140.4980   73.9000  221.6140 C   0  0  0  0  0  0  0  0  0  0  0  0
  140.2340   75.2810  221.4420 N   0  0  0  0  0  0  0  0  0  0  0  0
  138.8590   75.7420  221.3890 C   0  0  0  0  0  0  0  0  0  0  0  0
  138.6870   76.7480  222.5200 C   0  0  0  0  0  0  0  0  0  0  0  0
  139.6820   77.8310  222.2540 C   0  0  0  0  0  0  0  0  0  0  0  0
  139.3100   79.1330  222.5980 C   0  0  0  0  0  0  0  0  0  0  0  0
  140.2240   80.1350  222.3560 C   0  0  0  0  0  0  0  0  0  0  0  0
  141.4590   79.8910  221.7980 C   0  0  0  0  0  0  0  0  0  0  0  0
  141.8300   78.5980  221.4560 C   0  0  0  0  0  0  0  0  0  0  0  0
  140.9160   77.5830  221.6980 C   0  0  0  0  0  0  0  0  0  0  0  0
  141.3320   76.2090  221.3240 C   0  0  0  0  0  0  0  0  0  0  0  0
  140.0800   73.2500  222.7250 N   0  0  0  0  0  0  0  0  0  0  0  0
  140.3180   71.9390  222.9140 C   0  0  0  0  0  0  0  0  0  0  0  0
  139.8420   71.3360  224.1110 N   0  0  0  0  0  0  0  0  0  0  0  0
  138.6690   70.4830  224.0420 C   0  0  0  0  0  0  0  0  0  0  0  0
  139.1910   69.0800  224.3600 C   0  0  0  0  0  0  0  0  0  0  0  0
  139.7010   69.1570  225.7690 C   0  0  0  0  0  0  0  0  0  0  0  0
  139.5460   68.0330  226.5550 C   0  0  0  0  0  0  0  0  0  0  0  0
  140.0190   68.0980  227.8680 C   0  0  0  0  0  0  0  0  0  0  0  0
  140.6200   69.2520  228.3600 C   0  0  0  0  0  0  0  0  0  0  0  0
  140.7650   70.3680  227.5560 C   0  0  0  0  0  0  0  0  0  0  0  0
  140.2980   70.3000  226.2610 C   0  0  0  0  0  0  0  0  0  0  0  0
  140.4630   71.5240  225.4000 C   0  0  0  0  0  0  0  0  0  0  0  0
  140.9840   71.2890  221.9630 N   0  0  0  0  0  0  0  0  0  0  0  0
  144.1940   70.1710  218.8010 C   0  0  2  0  0  0  0  0  0  0  0  0
  143.4490   68.8830  218.5300 C   0  0  0  0  0  0  0  0  0  0  0  0
  144.3430   68.0200  217.6640 C   0  0  0  0  0  0  0  0  0  0  0  0
  145.4820   67.5390  218.5540 C   0  0  0  0  0  0  0  0  0  0  0  0
  145.9490   68.5560  219.4520 N   0  0  0  0  0  0  0  0  0  0  0  0
  145.6400   69.8970  219.0460 C   0  0  0  0  0  0  0  0  0  0  0  0
  141.5520   70.7480  219.0770 H   0  0  0  0  0  0  0  0  0  0  0  0
  138.6582   76.2234  220.4205 H   0  0  0  0  0  0  0  0  0  0  0  0
  138.1571   74.9021  221.4983 H   0  0  0  0  0  0  0  0  0  0  0  0
  137.6657   77.1567  222.5176 H   0  0  0  0  0  0  0  0  0  0  0  0
  138.8468   76.2832  223.5041 H   0  0  0  0  0  0  0  0  0  0  0  0
  138.3278   79.3491  223.0437 H   0  0  0  0  0  0  0  0  0  0  0  0
  139.9571   81.1693  222.6185 H   0  0  0  0  0  0  0  0  0  0  0  0
  142.1548   80.7247  221.6225 H   0  0  0  0  0  0  0  0  0  0  0  0
  142.8127   78.3860  221.0095 H   0  0  0  0  0  0  0  0  0  0  0  0
  141.6883   76.2128  220.2833 H   0  0  0  0  0  0  0  0  0  0  0  0
  142.1328   75.8896  222.0071 H   0  0  0  0  0  0  0  0  0  0  0  0
  137.9182   70.7949  224.7830 H   0  0  0  0  0  0  0  0  0  0  0  0
  138.1759   70.5314  223.0599 H   0  0  0  0  0  0  0  0  0  0  0  0
  138.3800   68.3407  224.2837 H   0  0  0  0  0  0  0  0  0  0  0  0
  139.9759   68.7653  223.6565 H   0  0  0  0  0  0  0  0  0  0  0  0
  139.0691   67.1224  226.1633 H   0  0  0  0  0  0  0  0  0  0  0  0
  139.9143   67.2213  228.5241 H   0  0  0  0  0  0  0  0  0  0  0  0
  140.9832   69.2772  229.3980 H   0  0  0  0  0  0  0  0  0  0  0  0
  141.2394   71.2835  227.9391 H   0  0  0  0  0  0  0  0  0  0  0  0
  139.9955   72.3834  225.9028 H   0  0  0  0  0  0  0  0  0  0  0  0
  141.5375   71.7044  225.2488 H   0  0  0  0  0  0  0  0  0  0  0  0
  144.1494   70.8066  217.9043 H   0  0  0  0  0  0  0  0  0  0  0  0
  143.2310   68.3677  219.4771 H   0  0  0  0  0  0  0  0  0  0  0  0
  142.4933   69.0846  218.0240 H   0  0  0  0  0  0  0  0  0  0  0  0
  143.7779   67.1607  217.2738 H   0  0  0  0  0  0  0  0  0  0  0  0
  144.7261   68.5867  216.8026 H   0  0  0  0  0  0  0  0  0  0  0  0
  145.1285   66.6819  219.1459 H   0  0  0  0  0  0  0  0  0  0  0  0
  146.3215   67.2620  217.8994 H   0  0  0  0  0  0  0  0  0  0  0  0
  145.6790   68.4120  220.4350 H   0  0  0  0  0  0  0  0  0  0  0  0
  145.9863   70.5797  219.8359 H   0  0  0  0  0  0  0  0  0  0  0  0
  146.1462   70.0473  218.0810 H   0  0  0  0  0  0  0  0  0  0  0  0
  1  2  2  0
  2  3  1  0
  3  4  1  0
  4  5  2  0
  5  6  1  0
  6  7  1  0
  7  8  1  0
  8  9  1  0
  9 10  1  0
 10 11  2  0
 11 12  1  0
 12 13  2  0
 13 14  1  0
 14 15  2  0
 15 16  1  0
  6 17  2  0
 17 18  1  0
 18 19  1  0
 19 20  1  0
 20 21  1  0
 21 22  1  0
 22 23  2  0
 23 24  1  0
 24 25  2  0
 25 26  1  0
 26 27  2  0
 27 28  1  0
 18 29  2  0
  2 30  1  0
 30 31  1  0
 31 32  1  0
 32 33  1  0
 33 34  1  0
 34 35  1  0
 29  4  1  0
 35 30  1  0
 16  7  1  0
 28 19  1  0
 15 10  1  0
 27 22  1  0
  3 36  1  0
  8 37  1  0
  8 38  1  0
  9 39  1  0
  9 40  1  0
 11 41  1  0
 12 42  1  0
 13 43  1  0
 14 44  1  0
 16 45  1  0
 16 46  1  0
 20 47  1  0
 20 48  1  0
 21 49  1  0
 21 50  1  0
 23 51  1  0
 24 52  1  0
 25 53  1  0
 26 54  1  0
 28 55  1  0
 28 56  1  0
 30 57  1  6
 31 58  1  0
 31 59  1  0
 32 60  1  0
 32 61  1  0
 33 62  1  0
 33 63  1  0
 34 64  1  0
 35 65  1  0
 35 66  1  0
M  END
>  <smiles>  (50) 
O=C(Nc1nc(N2CCc3ccccc3C2)nc(N2CCc3ccccc3C2)n1)C1CCCNC1

>  <score_type>  (50) 
oracle

>  <origin>  (50) 
autodockgpu

>  <m_score__min__energy>  (50) 
-10.140000000000001

>  <m_primary>  (50) 
energy

>  <rmsd>  (50) 
8.582696472662704

>  <m_score__min__rmsd>  (50) 
8.582696472662704

>  <meeko>  (50) 
{"free_energy": -9.86, "intermolecular_energy": -11.05, "internal_energy": -0.85, "cluster_size": 12, "cluster_id": 2, "rank_in_cluster": 10}

>  <energy>  (50) 
-9.85

>  <cluster_rmsd>  (50) 
0.0

>  <cluster>  (50) 
3

$$$$

     RDKit          3D

 66 71  0  0  1  0  0  0  0  0999 V2000
  142.1390   74.7460  217.8540 O   0  0  0  0  0  0  0  0  0  0  0  0
  143.0780   73.9420  218.1190 C   0  0  0  0  0  0  0  0  0  0  0  0
  143.1270   73.3290  219.4020 N   0  0  0  0  0  0  0  0  0  0  0  0
  142.1620   73.5750  220.4190 C   0  0  0  0  0  0  0  0  0  0  0  0
  141.6790   74.8300  220.6100 N   0  0  0  0  0  0  0  0  0  0  0  0
  140.7690   75.0940  221.5580 C   0  0  0  0  0  0  0  0  0  0  0  0
  140.2870   76.4220  221.7280 N   0  0  0  0  0  0  0  0  0  0  0  0
  139.1550   76.6020  222.6150 C   0  0  0  0  0  0  0  0  0  0  0  0
  138.6860   78.0410  222.6320 C   0  0  0  0  0  0  0  0  0  0  0  0
  139.9110   78.8910  222.7960 C   0  0  0  0  0  0  0  0  0  0  0  0
  139.9460   79.9210  223.7260 C   0  0  0  0  0  0  0  0  0  0  0  0
  141.1050   80.6750  223.8360 C   0  0  0  0  0  0  0  0  0  0  0  0
  142.2010   80.4230  223.0510 C   0  0  0  0  0  0  0  0  0  0  0  0
  142.1850   79.4050  222.1200 C   0  0  0  0  0  0  0  0  0  0  0  0
  141.0340   78.6610  222.0170 C   0  0  0  0  0  0  0  0  0  0  0  0
  140.9150   77.5290  221.0350 C   0  0  0  0  0  0  0  0  0  0  0  0
  140.3350   74.0700  222.3350 N   0  0  0  0  0  0  0  0  0  0  0  0
  140.7860   72.8170  222.1810 C   0  0  0  0  0  0  0  0  0  0  0  0
  140.3110   71.7660  223.0120 N   0  0  0  0  0  0  0  0  0  0  0  0
  139.4760   70.7210  222.4530 C   0  0  0  0  0  0  0  0  0  0  0  0
  138.4240   70.4150  223.5280 C   0  0  0  0  0  0  0  0  0  0  0  0
  139.2080   69.7820  224.6260 C   0  0  0  0  0  0  0  0  0  0  0  0
  138.8020   68.5760  225.1570 C   0  0  0  0  0  0  0  0  0  0  0  0
  139.5600   68.0240  226.1740 C   0  0  0  0  0  0  0  0  0  0  0  0
  140.6810   68.6980  226.6150 C   0  0  0  0  0  0  0  0  0  0  0  0
  141.0800   69.9080  226.0780 C   0  0  0  0  0  0  0  0  0  0  0  0
  140.3270   70.4630  225.0600 C   0  0  0  0  0  0  0  0  0  0  0  0
  140.6720   71.7580  224.4160 C   0  0  0  0  0  0  0  0  0  0  0  0
  141.6950   72.5820  221.2240 N   0  0  0  0  0  0  0  0  0  0  0  0
  144.1480   73.5960  217.1530 C   0  0  1  0  0  0  0  0  0  0  0  0
  144.4800   74.7220  216.2250 C   0  0  0  0  0  0  0  0  0  0  0  0
  145.6040   74.2570  215.3230 C   0  0  0  0  0  0  0  0  0  0  0  0
  146.7470   73.7780  216.2160 C   0  0  0  0  0  0  0  0  0  0  0  0
  146.3360   72.6090  216.9890 N   0  0  0  0  0  0  0  0  0  0  0  0
  145.3330   73.0970  217.9330 C   0  0  0  0  0  0  0  0  0  0  0  0
  143.9150   72.6530  219.6280 H   0  0  0  0  0  0  0  0  0  0  0  0
  138.3286   75.9609  222.2743 H   0  0  0  0  0  0  0  0  0  0  0  0
  139.4683   76.3294  223.6336 H   0  0  0  0  0  0  0  0  0  0  0  0
  138.1784   78.2856  221.6873 H   0  0  0  0  0  0  0  0  0  0  0  0
  137.9711   78.2148  223.4498 H   0  0  0  0  0  0  0  0  0  0  0  0
  139.0740   80.1345  224.3616 H   0  0  0  0  0  0  0  0  0  0  0  0
  141.1460   81.4937  224.5695 H   0  0  0  0  0  0  0  0  0  0  0  0
  143.1042   81.0404  223.1651 H   0  0  0  0  0  0  0  0  0  0  0  0
  143.0589   79.1970  221.4852 H   0  0  0  0  0  0  0  0  0  0  0  0
  140.2966   77.8367  220.1789 H   0  0  0  0  0  0  0  0  0  0  0  0
  141.9050   77.2385  220.6535 H   0  0  0  0  0  0  0  0  0  0  0  0
  138.9911   71.0697  221.5293 H   0  0  0  0  0  0  0  0  0  0  0  0
  140.0621   69.8279  222.1908 H   0  0  0  0  0  0  0  0  0  0  0  0
  137.9392   71.3392  223.8756 H   0  0  0  0  0  0  0  0  0  0  0  0
  137.6142   69.7691  223.1577 H   0  0  0  0  0  0  0  0  0  0  0  0
  137.9013   68.0675  224.7827 H   0  0  0  0  0  0  0  0  0  0  0  0
  139.2737   67.0622  226.6246 H   0  0  0  0  0  0  0  0  0  0  0  0
  141.2798   68.2555  227.4247 H   0  0  0  0  0  0  0  0  0  0  0  0
  141.9789   70.4190  226.4534 H   0  0  0  0  0  0  0  0  0  0  0  0
  140.1315   72.5673  224.9287 H   0  0  0  0  0  0  0  0  0  0  0  0
  141.7596   71.9031  224.4935 H   0  0  0  0  0  0  0  0  0  0  0  0
  143.7966   72.7983  216.4820 H   0  0  0  0  0  0  0  0  0  0  0  0
  143.5982   74.9827  215.6213 H   0  0  0  0  0  0  0  0  0  0  0  0
  144.7847   75.6133  216.7932 H   0  0  0  0  0  0  0  0  0  0  0  0
  145.2555   73.4314  214.6851 H   0  0  0  0  0  0  0  0  0  0  0  0
  145.9408   75.0775  214.6724 H   0  0  0  0  0  0  0  0  0  0  0  0
  147.6100   73.5117  215.5880 H   0  0  0  0  0  0  0  0  0  0  0  0
  147.0189   74.5865  216.9106 H   0  0  0  0  0  0  0  0  0  0  0  0
  145.8300   71.9500  216.3470 H   0  0  0  0  0  0  0  0  0  0  0  0
  145.0212   72.2791  218.5992 H   0  0  0  0  0  0  0  0  0  0  0  0
  145.7530   73.9104  218.5428 H   0  0  0  0  0  0  0  0  0  0  0  0
  1  2  2  0
  2  3  1  0
  3  4  1  0
  4  5  2  0
  5  6  1  0
  6  7  1  0
  7  8  1  0
  8  9  1  0
  9 10  1  0
 10 11  2  0
 11 12  1  0
 12 13  2  0
 13 14  1  0
 14 15  2  0
 15 16  1  0
  6 17  2  0
 17 18  1  0
 18 19  1  0
 19 20  1  0
 20 21  1  0
 21 22  1  0
 22 23  2  0
 23 24  1  0
 24 25  2  0
 25 26  1  0
 26 27  2  0
 27 28  1  0
 18 29  2  0
  2 30  1  0
 30 31  1  0
 31 32  1  0
 32 33  1  0
 33 34  1  0
 34 35  1  0
 29  4  1  0
 35 30  1  0
 16  7  1  0
 28 19  1  0
 15 10  1  0
 27 22  1  0
  3 36  1  0
  8 37  1  0
  8 38  1  0
  9 39  1  0
  9 40  1  0
 11 41  1  0
 12 42  1  0
 13 43  1  0
 14 44  1  0
 16 45  1  0
 16 46  1  0
 20 47  1  0
 20 48  1  0
 21 49  1  0
 21 50  1  0
 23 51  1  0
 24 52  1  0
 25 53  1  0
 26 54  1  0
 28 55  1  0
 28 56  1  0
 30 57  1  6
 31 58  1  0
 31 59  1  0
 32 60  1  0
 32 61  1  0
 33 62  1  0
 33 63  1  0
 34 64  1  0
 35 65  1  0
 35 66  1  0
M  END
>  <smiles>  (51) 
O=C(Nc1nc(N2CCc3ccccc3C2)nc(N2CCc3ccccc3C2)n1)C1CCCNC1

>  <score_type>  (51) 
oracle

>  <origin>  (51) 
autodockgpu

>  <m_score__min__energy>  (51) 
-9.5399999999999991

>  <m_primary>  (51) 
energy

>  <rmsd>  (51) 
6.303181407932156

>  <m_score__min__rmsd>  (51) 
6.303181407932156

>  <meeko>  (51) 
{"free_energy": -9.16, "intermolecular_energy": -10.36, "internal_energy": -0.78, "cluster_size": 24, "cluster_id": 2, "rank_in_cluster": 19}

>  <energy>  (51) 
-9.54

>  <cluster_rmsd>  (51) 
0.0

>  <cluster>  (51) 
1

$$$$

     RDKit          3D

 66 71  0  0  1  0  0  0  0  0999 V2000
  139.4280   75.6550  222.7680 O   0  0  0  0  0  0  0  0  0  0  0  0
  140.3450   76.2680  222.1510 C   0  0  0  0  0  0  0  0  0  0  0  0
  141.3900   75.5210  221.5390 N   0  0  0  0  0  0  0  0  0  0  0  0
  141.4600   74.1010  221.5830 C   0  0  0  0  0  0  0  0  0  0  0  0
  140.7090   73.4100  222.4780 N   0  0  0  0  0  0  0  0  0  0  0  0
  140.7520   72.0720  222.5450 C   0  0  0  0  0  0  0  0  0  0  0  0
  139.9500   71.3830  223.4980 N   0  0  0  0  0  0  0  0  0  0  0  0
  138.9100   70.5170  222.9780 C   0  0  0  0  0  0  0  0  0  0  0  0
  138.0750   69.9220  224.0910 C   0  0  0  0  0  0  0  0  0  0  0  0
  139.0350   69.4070  225.1210 C   0  0  0  0  0  0  0  0  0  0  0  0
  138.8880   68.1370  225.6630 C   0  0  0  0  0  0  0  0  0  0  0  0
  139.8060   67.7110  226.6120 C   0  0  0  0  0  0  0  0  0  0  0  0
  140.8410   68.5130  227.0190 C   0  0  0  0  0  0  0  0  0  0  0  0
  141.0040   69.7790  226.4930 C   0  0  0  0  0  0  0  0  0  0  0  0
  140.0920   70.1940  225.5530 C   0  0  0  0  0  0  0  0  0  0  0  0
  140.1810   71.5540  224.9180 C   0  0  0  0  0  0  0  0  0  0  0  0
  141.5720   71.4120  221.6890 N   0  0  0  0  0  0  0  0  0  0  0  0
  142.3300   72.0550  220.7900 C   0  0  0  0  0  0  0  0  0  0  0  0
  143.1790   71.3330  219.9070 N   0  0  0  0  0  0  0  0  0  0  0  0
  144.2440   72.0200  219.2020 C   0  0  0  0  0  0  0  0  0  0  0  0
  144.2770   71.3980  217.7990 C   0  0  0  0  0  0  0  0  0  0  0  0
  144.7600   70.0080  218.0350 C   0  0  0  0  0  0  0  0  0  0  0  0
  145.8200   69.5130  217.3050 C   0  0  0  0  0  0  0  0  0  0  0  0
  146.2360   68.2180  217.5570 C   0  0  0  0  0  0  0  0  0  0  0  0
  145.5780   67.4780  218.5200 C   0  0  0  0  0  0  0  0  0  0  0  0
  144.5150   67.9830  219.2460 C   0  0  0  0  0  0  0  0  0  0  0  0
  144.0960   69.2770  218.9990 C   0  0  0  0  0  0  0  0  0  0  0  0
  142.9640   69.9110  219.7260 C   0  0  0  0  0  0  0  0  0  0  0  0
  142.2670   73.3930  220.7450 N   0  0  0  0  0  0  0  0  0  0  0  0
  140.3950   77.7450  222.0280 C   0  0  1  0  0  0  0  0  0  0  0  0
  139.0600   78.3900  222.2280 C   0  0  0  0  0  0  0  0  0  0  0  0
  139.2530   79.8880  222.1170 C   0  0  0  0  0  0  0  0  0  0  0  0
  140.3390   80.2920  223.1130 C   0  0  0  0  0  0  0  0  0  0  0  0
  141.6180   79.6880  222.7480 N   0  0  0  0  0  0  0  0  0  0  0  0
  141.4510   78.2530  222.9700 C   0  0  0  0  0  0  0  0  0  0  0  0
  142.1630   76.0340  221.0190 H   0  0  0  0  0  0  0  0  0  0  0  0
  138.2563   71.1022  222.3146 H   0  0  0  0  0  0  0  0  0  0  0  0
  139.3896   69.6935  222.4287 H   0  0  0  0  0  0  0  0  0  0  0  0
  137.4246   70.6926  224.5306 H   0  0  0  0  0  0  0  0  0  0  0  0
  137.4291   69.1155  223.7136 H   0  0  0  0  0  0  0  0  0  0  0  0
  138.0619   67.4831  225.3469 H   0  0  0  0  0  0  0  0  0  0  0  0
  139.7011   66.7066  227.0480 H   0  0  0  0  0  0  0  0  0  0  0  0
  141.5503   68.1431  227.7740 H   0  0  0  0  0  0  0  0  0  0  0  0
  141.8311   70.4295  226.8137 H   0  0  0  0  0  0  0  0  0  0  0  0
  139.4172   72.2199  225.3460 H   0  0  0  0  0  0  0  0  0  0  0  0
  141.1677   72.0048  225.1003 H   0  0  0  0  0  0  0  0  0  0  0  0
  144.0309   73.0974  219.1397 H   0  0  0  0  0  0  0  0  0  0  0  0
  145.2095   71.9129  219.7180 H   0  0  0  0  0  0  0  0  0  0  0  0
  143.2730   71.3925  217.3495 H   0  0  0  0  0  0  0  0  0  0  0  0
  144.9180   71.9574  217.1017 H   0  0  0  0  0  0  0  0  0  0  0  0
  146.3204   70.1301  216.5442 H   0  0  0  0  0  0  0  0  0  0  0  0
  147.0785   67.7839  216.9987 H   0  0  0  0  0  0  0  0  0  0  0  0
  145.9121   66.4486  218.7167 H   0  0  0  0  0  0  0  0  0  0  0  0
  144.0122   67.3666  220.0058 H   0  0  0  0  0  0  0  0  0  0  0  0
  142.0394   69.7598  219.1495 H   0  0  0  0  0  0  0  0  0  0  0  0
  142.8869   69.4444  220.7191 H   0  0  0  0  0  0  0  0  0  0  0  0
  140.6680   78.0220  220.9990 H   0  0  0  0  0  0  0  0  0  0  0  0
  138.3571   78.0443  221.4557 H   0  0  0  0  0  0  0  0  0  0  0  0
  138.6474   78.1259  223.2129 H   0  0  0  0  0  0  0  0  0  0  0  0
  139.5651   80.1508  221.0955 H   0  0  0  0  0  0  0  0  0  0  0  0
  138.3129   80.4148  222.3377 H   0  0  0  0  0  0  0  0  0  0  0  0
  140.4423   81.3871  223.1116 H   0  0  0  0  0  0  0  0  0  0  0  0
  140.0520   79.9396  224.1147 H   0  0  0  0  0  0  0  0  0  0  0  0
  141.7530   79.8040  221.7130 H   0  0  0  0  0  0  0  0  0  0  0  0
  142.4016   77.7344  222.7765 H   0  0  0  0  0  0  0  0  0  0  0  0
  141.1498   78.0649  224.0111 H   0  0  0  0  0  0  0  0  0  0  0  0
  1  2  2  0
  2  3  1  0
  3  4  1  0
  4  5  2  0
  5  6  1  0
  6  7  1  0
  7  8  1  0
  8  9  1  0
  9 10  1  0
 10 11  2  0
 11 12  1  0
 12 13  2  0
 13 14  1  0
 14 15  2  0
 15 16  1  0
  6 17  2  0
 17 18  1  0
 18 19  1  0
 19 20  1  0
 20 21  1  0
 21 22  1  0
 22 23  2  0
 23 24  1  0
 24 25  2  0
 25 26  1  0
 26 27  2  0
 27 28  1  0
 18 29  2  0
  2 30  1  0
 30 31  1  0
 31 32  1  0
 32 33  1  0
 33 34  1  0
 34 35  1  0
 29  4  1  0
 35 30  1  0
 16  7  1  0
 28 19  1  0
 15 10  1  0
 27 22  1  0
  3 36  1  0
  8 37  1  0
  8 38  1  0
  9 39  1  0
  9 40  1  0
 11 41  1  0
 12 42  1  0
 13 43  1  0
 14 44  1  0
 16 45  1  0
 16 46  1  0
 20 47  1  0
 20 48  1  0
 21 49  1  0
 21 50  1  0
 23 51  1  0
 24 52  1  0
 25 53  1  0
 26 54  1  0
 28 55  1  0
 28 56  1  0
 30 57  1  6
 31 58  1  0
 31 59  1  0
 32 60  1  0
 32 61  1  0
 33 62  1  0
 33 63  1  0
 34 64  1  0
 35 65  1  0
 35 66  1  0
M  END
>  <smiles>  (52) 
O=C(Nc1nc(N2CCc3ccccc3C2)nc(N2CCc3ccccc3C2)n1)C1CCCNC1

>  <score_type>  (52) 
oracle

>  <origin>  (52) 
autodockgpu

>  <m_score__min__energy>  (52) 
-9.5399999999999991

>  <m_primary>  (52) 
energy

>  <rmsd>  (52) 
5.095782137137343

>  <m_score__min__rmsd>  (52) 
5.095782137137343

>  <meeko>  (52) 
{"free_energy": -9.36, "intermolecular_energy": -10.56, "internal_energy": -0.74, "cluster_size": 23, "cluster_id": 1, "rank_in_cluster": 14}

>  <energy>  (52) 
-9.54

>  <cluster_rmsd>  (52) 
0.1

>  <cluster>  (52) 
1

$$$$

     RDKit          3D

 66 71  0  0  1  0  0  0  0  0999 V2000
  139.2500   75.5420  222.6750 O   0  0  0  0  0  0  0  0  0  0  0  0
  140.1840   76.2470  222.1970 C   0  0  0  0  0  0  0  0  0  0  0  0
  141.3160   75.6050  221.6230 N   0  0  0  0  0  0  0  0  0  0  0  0
  141.4560   74.1900  221.5550 C   0  0  0  0  0  0  0  0  0  0  0  0
  140.7030   73.3920  222.3550 N   0  0  0  0  0  0  0  0  0  0  0  0
  140.8110   72.0570  222.3150 C   0  0  0  0  0  0  0  0  0  0  0  0
  140.0040   71.2540  223.1690 N   0  0  0  0  0  0  0  0  0  0  0  0
  139.2340   70.1970  222.5430 C   0  0  0  0  0  0  0  0  0  0  0  0
  138.3520   69.4840  223.5450 C   0  0  0  0  0  0  0  0  0  0  0  0
  139.2110   69.1830  224.7370 C   0  0  0  0  0  0  0  0  0  0  0  0
  139.2100   67.9220  225.3180 C   0  0  0  0  0  0  0  0  0  0  0  0
  140.0240   67.6980  226.4180 C   0  0  0  0  0  0  0  0  0  0  0  0
  140.8190   68.6890  226.9350 C   0  0  0  0  0  0  0  0  0  0  0  0
  140.8330   69.9500  226.3730 C   0  0  0  0  0  0  0  0  0  0  0  0
  140.0240   70.1640  225.2820 C   0  0  0  0  0  0  0  0  0  0  0  0
  139.9680   71.5010  224.5970 C   0  0  0  0  0  0  0  0  0  0  0  0
  141.7010   71.5100  221.4500 N   0  0  0  0  0  0  0  0  0  0  0  0
  142.4650   72.2600  220.6440 C   0  0  0  0  0  0  0  0  0  0  0  0
  143.3890   71.6560  219.7480 N   0  0  0  0  0  0  0  0  0  0  0  0
  143.2610   70.2500  219.4160 C   0  0  0  0  0  0  0  0  0  0  0  0
  144.6970   69.7120  219.3440 C   0  0  0  0  0  0  0  0  0  0  0  0
  145.2680   70.3770  218.1390 C   0  0  0  0  0  0  0  0  0  0  0  0
  145.8890   69.6240  217.1650 C   0  0  0  0  0  0  0  0  0  0  0  0
  146.4050   70.2820  216.0630 C   0  0  0  0  0  0  0  0  0  0  0  0
  146.2810   71.6550  215.9830 C   0  0  0  0  0  0  0  0  0  0  0  0
  145.6570   72.4020  216.9660 C   0  0  0  0  0  0  0  0  0  0  0  0
  145.1380   71.7490  218.0690 C   0  0  0  0  0  0  0  0  0  0  0  0
  144.4500   72.4610  219.1780 C   0  0  0  0  0  0  0  0  0  0  0  0
  142.3350   73.5930  220.7040 N   0  0  0  0  0  0  0  0  0  0  0  0
  140.1660   77.7300  222.2020 C   0  0  1  0  0  0  0  0  0  0  0  0
  138.8800   78.2940  222.7160 C   0  0  0  0  0  0  0  0  0  0  0  0
  139.0040   79.8040  222.7060 C   0  0  0  0  0  0  0  0  0  0  0  0
  140.2540   80.1720  223.5040 C   0  0  0  0  0  0  0  0  0  0  0  0
  141.4510   79.6600  222.8430 N   0  0  0  0  0  0  0  0  0  0  0  0
  141.3730   78.2050  222.9620 C   0  0  0  0  0  0  0  0  0  0  0  0
  142.1030   76.1950  221.2200 H   0  0  0  0  0  0  0  0  0  0  0  0
  138.6007   70.6339  221.7569 H   0  0  0  0  0  0  0  0  0  0  0  0
  139.9360   69.4641  222.1187 H   0  0  0  0  0  0  0  0  0  0  0  0
  137.5110   70.1300  223.8371 H   0  0  0  0  0  0  0  0  0  0  0  0
  137.9317   68.5620  223.1169 H   0  0  0  0  0  0  0  0  0  0  0  0
  138.5771   67.1179  224.9144 H   0  0  0  0  0  0  0  0  0  0  0  0
  140.0324   66.7029  226.8867 H   0  0  0  0  0  0  0  0  0  0  0  0
  141.4533   68.4764  227.8082 H   0  0  0  0  0  0  0  0  0  0  0  0
  141.4660   70.7514  226.7817 H   0  0  0  0  0  0  0  0  0  0  0  0
  139.0379   72.0232  224.8656 H   0  0  0  0  0  0  0  0  0  0  0  0
  140.8141   72.1328  224.9050 H   0  0  0  0  0  0  0  0  0  0  0  0
  142.6913   69.7216  220.1947 H   0  0  0  0  0  0  0  0  0  0  0  0
  142.7224   70.1023  218.4683 H   0  0  0  0  0  0  0  0  0  0  0  0
  145.2630   69.9848  220.2469 H   0  0  0  0  0  0  0  0  0  0  0  0
  144.7365   68.6145  219.2820 H   0  0  0  0  0  0  0  0  0  0  0  0
  145.9717   68.5314  217.2615 H   0  0  0  0  0  0  0  0  0  0  0  0
  146.9069   69.7196  215.2619 H   0  0  0  0  0  0  0  0  0  0  0  0
  146.6937   72.1739  215.1052 H   0  0  0  0  0  0  0  0  0  0  0  0
  145.5752   73.4949  216.8720 H   0  0  0  0  0  0  0  0  0  0  0  0
  145.1841   72.6931  219.9636 H   0  0  0  0  0  0  0  0  0  0  0  0
  144.0052   73.3821  218.7734 H   0  0  0  0  0  0  0  0  0  0  0  0
  140.2209   78.1046  221.1692 H   0  0  0  0  0  0  0  0  0  0  0  0
  138.0481   77.9819  222.0676 H   0  0  0  0  0  0  0  0  0  0  0  0
  138.6790   77.9302  223.7344 H   0  0  0  0  0  0  0  0  0  0  0  0
  139.1000   80.1653  221.6715 H   0  0  0  0  0  0  0  0  0  0  0  0
  138.1115   80.2671  223.1521 H   0  0  0  0  0  0  0  0  0  0  0  0
  140.3241   81.2669  223.5827 H   0  0  0  0  0  0  0  0  0  0  0  0
  140.1814   79.7240  224.5060 H   0  0  0  0  0  0  0  0  0  0  0  0
  141.3760   79.8690  221.8160 H   0  0  0  0  0  0  0  0  0  0  0  0
  142.2807   77.7487  222.5402 H   0  0  0  0  0  0  0  0  0  0  0  0
  141.2905   77.9166  224.0203 H   0  0  0  0  0  0  0  0  0  0  0  0
  1  2  2  0
  2  3  1  0
  3  4  1  0
  4  5  2  0
  5  6  1  0
  6  7  1  0
  7  8  1  0
  8  9  1  0
  9 10  1  0
 10 11  2  0
 11 12  1  0
 12 13  2  0
 13 14  1  0
 14 15  2  0
 15 16  1  0
  6 17  2  0
 17 18  1  0
 18 19  1  0
 19 20  1  0
 20 21  1  0
 21 22  1  0
 22 23  2  0
 23 24  1  0
 24 25  2  0
 25 26  1  0
 26 27  2  0
 27 28  1  0
 18 29  2  0
  2 30  1  0
 30 31  1  0
 31 32  1  0
 32 33  1  0
 33 34  1  0
 34 35  1  0
 29  4  1  0
 35 30  1  0
 16  7  1  0
 28 19  1  0
 15 10  1  0
 27 22  1  0
  3 36  1  0
  8 37  1  0
  8 38  1  0
  9 39  1  0
  9 40  1  0
 11 41  1  0
 12 42  1  0
 13 43  1  0
 14 44  1  0
 16 45  1  0
 16 46  1  0
 20 47  1  0
 20 48  1  0
 21 49  1  0
 21 50  1  0
 23 51  1  0
 24 52  1  0
 25 53  1  0
 26 54  1  0
 28 55  1  0
 28 56  1  0
 30 57  1  6
 31 58  1  0
 31 59  1  0
 32 60  1  0
 32 61  1  0
 33 62  1  0
 33 63  1  0
 34 64  1  0
 35 65  1  0
 35 66  1  0
M  END
>  <smiles>  (53) 
O=C(Nc1nc(N2CCc3ccccc3C2)nc(N2CCc3ccccc3C2)n1)C1CCCNC1

>  <score_type>  (53) 
oracle

>  <origin>  (53) 
autodockgpu

>  <m_score__min__energy>  (53) 
-9.5399999999999991

>  <m_primary>  (53) 
energy

>  <rmsd>  (53) 
5.291648983200564

>  <m_score__min__rmsd>  (53) 
5.291648983200564

>  <meeko>  (53) 
{"free_energy": -9.16, "intermolecular_energy": -10.35, "internal_energy": -0.74, "cluster_size": 23, "cluster_id": 1, "rank_in_cluster": 16}

>  <energy>  (53) 
-9.52

>  <cluster_rmsd>  (53) 
0.14

>  <cluster>  (53) 
1

$$$$

     RDKit          3D

 66 71  0  0  1  0  0  0  0  0999 V2000
  139.2600   75.5710  222.6000 O   0  0  0  0  0  0  0  0  0  0  0  0
  140.2500   76.2250  222.1660 C   0  0  0  0  0  0  0  0  0  0  0  0
  141.3770   75.5220  221.6550 N   0  0  0  0  0  0  0  0  0  0  0  0
  141.4510   74.1020  221.6050 C   0  0  0  0  0  0  0  0  0  0  0  0
  140.7220   73.3510  222.4700 N   0  0  0  0  0  0  0  0  0  0  0  0
  140.7690   72.0120  222.4480 C   0  0  0  0  0  0  0  0  0  0  0  0
  139.9900   71.2600  223.3710 N   0  0  0  0  0  0  0  0  0  0  0  0
  139.1270   70.2340  222.8210 C   0  0  0  0  0  0  0  0  0  0  0  0
  138.2890   69.5770  223.8960 C   0  0  0  0  0  0  0  0  0  0  0  0
  139.2190   69.2480  225.0260 C   0  0  0  0  0  0  0  0  0  0  0  0
  139.2020   67.9960  225.6250 C   0  0  0  0  0  0  0  0  0  0  0  0
  140.0840   67.7460  226.6650 C   0  0  0  0  0  0  0  0  0  0  0  0
  140.9610   68.7040  227.1070 C   0  0  0  0  0  0  0  0  0  0  0  0
  140.9930   69.9550  226.5250 C   0  0  0  0  0  0  0  0  0  0  0  0
  140.1170   70.1950  225.4940 C   0  0  0  0  0  0  0  0  0  0  0  0
  140.0730   71.5250  224.7940 C   0  0  0  0  0  0  0  0  0  0  0  0
  141.5710   71.4120  221.5330 N   0  0  0  0  0  0  0  0  0  0  0  0
  142.3080   72.1150  220.6610 C   0  0  0  0  0  0  0  0  0  0  0  0
  143.1380   71.4560  219.7140 N   0  0  0  0  0  0  0  0  0  0  0  0
  143.9770   72.2310  218.8220 C   0  0  0  0  0  0  0  0  0  0  0  0
  143.9250   71.5040  217.4710 C   0  0  0  0  0  0  0  0  0  0  0  0
  144.6510   70.2270  217.7240 C   0  0  0  0  0  0  0  0  0  0  0  0
  145.6720   69.8350  216.8840 C   0  0  0  0  0  0  0  0  0  0  0  0
  146.3180   68.6430  217.1560 C   0  0  0  0  0  0  0  0  0  0  0  0
  145.9190   67.8990  218.2480 C   0  0  0  0  0  0  0  0  0  0  0  0
  144.8930   68.2990  219.0850 C   0  0  0  0  0  0  0  0  0  0  0  0
  144.2440   69.4900  218.8180 C   0  0  0  0  0  0  0  0  0  0  0  0
  143.1310   70.0070  219.6560 C   0  0  0  0  0  0  0  0  0  0  0  0
  142.2400   73.4530  220.7050 N   0  0  0  0  0  0  0  0  0  0  0  0
  140.3050   77.7060  222.1590 C   0  0  1  0  0  0  0  0  0  0  0  0
  139.0080   78.3380  222.5530 C   0  0  0  0  0  0  0  0  0  0  0  0
  139.2070   79.8400  222.5450 C   0  0  0  0  0  0  0  0  0  0  0  0
  140.3970   80.1550  223.4490 C   0  0  0  0  0  0  0  0  0  0  0  0
  141.6220   79.5790  222.9010 N   0  0  0  0  0  0  0  0  0  0  0  0
  141.4620   78.1310  223.0220 C   0  0  0  0  0  0  0  0  0  0  0  0
  142.2120   76.0690  221.2890 H   0  0  0  0  0  0  0  0  0  0  0  0
  138.4585   70.6910  222.0765 H   0  0  0  0  0  0  0  0  0  0  0  0
  139.7604   69.4627  222.3586 H   0  0  0  0  0  0  0  0  0  0  0  0
  137.5041   70.2669  224.2395 H   0  0  0  0  0  0  0  0  0  0  0  0
  137.7942   68.6718  223.5142 H   0  0  0  0  0  0  0  0  0  0  0  0
  138.5035   67.2186  225.2818 H   0  0  0  0  0  0  0  0  0  0  0  0
  140.0806   66.7571  227.1467 H   0  0  0  0  0  0  0  0  0  0  0  0
  141.6469   68.4722  227.9352 H   0  0  0  0  0  0  0  0  0  0  0  0
  141.6923   70.7295  226.8729 H   0  0  0  0  0  0  0  0  0  0  0  0
  139.1914   72.0947  225.1230 H   0  0  0  0  0  0  0  0  0  0  0  0
  140.9690   72.1185  225.0283 H   0  0  0  0  0  0  0  0  0  0  0  0
  143.5882   73.2551  218.7222 H   0  0  0  0  0  0  0  0  0  0  0  0
  145.0065   72.3134  219.2006 H   0  0  0  0  0  0  0  0  0  0  0  0
  142.8848   71.3101  217.1705 H   0  0  0  0  0  0  0  0  0  0  0  0
  144.3712   72.0916  216.6551 H   0  0  0  0  0  0  0  0  0  0  0  0
  145.9642   70.4529  216.0222 H   0  0  0  0  0  0  0  0  0  0  0  0
  147.1378   68.2928  216.5116 H   0  0  0  0  0  0  0  0  0  0  0  0
  146.4366   66.9520  218.4607 H   0  0  0  0  0  0  0  0  0  0  0  0
  144.5992   67.6813  219.9465 H   0  0  0  0  0  0  0  0  0  0  0  0
  142.1752   69.6711  219.2276 H   0  0  0  0  0  0  0  0  0  0  0  0
  143.2598   69.6201  220.6776 H   0  0  0  0  0  0  0  0  0  0  0  0
  140.4701   78.0649  221.1324 H   0  0  0  0  0  0  0  0  0  0  0  0
  138.2224   78.0602  221.8349 H   0  0  0  0  0  0  0  0  0  0  0  0
  138.6998   77.9952  223.5518 H   0  0  0  0  0  0  0  0  0  0  0  0
  139.4125   80.1853  221.5210 H   0  0  0  0  0  0  0  0  0  0  0  0
  138.3023   80.3506  222.9067 H   0  0  0  0  0  0  0  0  0  0  0  0
  140.5134   81.2460  223.5272 H   0  0  0  0  0  0  0  0  0  0  0  0
  140.2134   79.7211  224.4430 H   0  0  0  0  0  0  0  0  0  0  0  0
  141.6490   79.7800  221.8700 H   0  0  0  0  0  0  0  0  0  0  0  0
  142.3803   77.6267  222.6866 H   0  0  0  0  0  0  0  0  0  0  0  0
  141.2708   77.8587  224.0705 H   0  0  0  0  0  0  0  0  0  0  0  0
  1  2  2  0
  2  3  1  0
  3  4  1  0
  4  5  2  0
  5  6  1  0
  6  7  1  0
  7  8  1  0
  8  9  1  0
  9 10  1  0
 10 11  2  0
 11 12  1  0
 12 13  2  0
 13 14  1  0
 14 15  2  0
 15 16  1  0
  6 17  2  0
 17 18  1  0
 18 19  1  0
 19 20  1  0
 20 21  1  0
 21 22  1  0
 22 23  2  0
 23 24  1  0
 24 25  2  0
 25 26  1  0
 26 27  2  0
 27 28  1  0
 18 29  2  0
  2 30  1  0
 30 31  1  0
 31 32  1  0
 32 33  1  0
 33 34  1  0
 34 35  1  0
 29  4  1  0
 35 30  1  0
 16  7  1  0
 28 19  1  0
 15 10  1  0
 27 22  1  0
  3 36  1  0
  8 37  1  0
  8 38  1  0
  9 39  1  0
  9 40  1  0
 11 41  1  0
 12 42  1  0
 13 43  1  0
 14 44  1  0
 16 45  1  0
 16 46  1  0
 20 47  1  0
 20 48  1  0
 21 49  1  0
 21 50  1  0
 23 51  1  0
 24 52  1  0
 25 53  1  0
 26 54  1  0
 28 55  1  0
 28 56  1  0
 30 57  1  6
 31 58  1  0
 31 59  1  0
 32 60  1  0
 32 61  1  0
 33 62  1  0
 33 63  1  0
 34 64  1  0
 35 65  1  0
 35 66  1  0
M  END
>  <smiles>  (54) 
O=C(Nc1nc(N2CCc3ccccc3C2)nc(N2CCc3ccccc3C2)n1)C1CCCNC1

>  <score_type>  (54) 
oracle

>  <origin>  (54) 
autodockgpu

>  <m_score__min__energy>  (54) 
-9.5399999999999991

>  <m_primary>  (54) 
energy

>  <rmsd>  (54) 
5.230460108250568

>  <m_score__min__rmsd>  (54) 
5.230460108250568

>  <meeko>  (54) 
{"free_energy": -9.43, "intermolecular_energy": -10.62, "internal_energy": -0.77, "cluster_size": 23, "cluster_id": 1, "rank_in_cluster": 8}

>  <energy>  (54) 
-9.52

>  <cluster_rmsd>  (54) 
0.11

>  <cluster>  (54) 
1

$$$$

     RDKit          3D

 66 71  0  0  1  0  0  0  0  0999 V2000
  139.3880   75.6200  222.6480 O   0  0  0  0  0  0  0  0  0  0  0  0
  140.3490   76.2350  222.1050 C   0  0  0  0  0  0  0  0  0  0  0  0
  141.4260   75.4900  221.5480 N   0  0  0  0  0  0  0  0  0  0  0  0
  141.4810   74.0680  221.5690 C   0  0  0  0  0  0  0  0  0  0  0  0
  140.7050   73.3700  222.4380 N   0  0  0  0  0  0  0  0  0  0  0  0
  140.7330   72.0300  222.4820 C   0  0  0  0  0  0  0  0  0  0  0  0
  139.9050   71.3340  223.4070 N   0  0  0  0  0  0  0  0  0  0  0  0
  138.9520   70.3910  222.8550 C   0  0  0  0  0  0  0  0  0  0  0  0
  138.0750   69.7930  223.9340 C   0  0  0  0  0  0  0  0  0  0  0  0
  138.9890   69.3720  225.0470 C   0  0  0  0  0  0  0  0  0  0  0  0
  138.8730   68.1180  225.6300 C   0  0  0  0  0  0  0  0  0  0  0  0
  139.7440   67.7810  226.6560 C   0  0  0  0  0  0  0  0  0  0  0  0
  140.7040   68.6560  227.0970 C   0  0  0  0  0  0  0  0  0  0  0  0
  140.8340   69.9070  226.5300 C   0  0  0  0  0  0  0  0  0  0  0  0
  139.9680   70.2340  225.5150 C   0  0  0  0  0  0  0  0  0  0  0  0
  140.0280   71.5720  224.8310 C   0  0  0  0  0  0  0  0  0  0  0  0
  141.5630   71.3760  221.6310 N   0  0  0  0  0  0  0  0  0  0  0  0
  142.3460   72.0270  220.7590 C   0  0  0  0  0  0  0  0  0  0  0  0
  143.2050   71.3110  219.8810 N   0  0  0  0  0  0  0  0  0  0  0  0
  144.2630   72.0070  219.1760 C   0  0  0  0  0  0  0  0  0  0  0  0
  144.3070   71.3810  217.7750 C   0  0  0  0  0  0  0  0  0  0  0  0
  144.8050   69.9970  218.0180 C   0  0  0  0  0  0  0  0  0  0  0  0
  145.8730   69.5120  217.2920 C   0  0  0  0  0  0  0  0  0  0  0  0
  146.3030   68.2220  217.5500 C   0  0  0  0  0  0  0  0  0  0  0  0
  145.6510   67.4790  218.5140 C   0  0  0  0  0  0  0  0  0  0  0  0
  144.5800   67.9740  219.2360 C   0  0  0  0  0  0  0  0  0  0  0  0
  144.1470   69.2630  218.9830 C   0  0  0  0  0  0  0  0  0  0  0  0
  143.0070   69.8860  219.7040 C   0  0  0  0  0  0  0  0  0  0  0  0
  142.2970   73.3660  220.7360 N   0  0  0  0  0  0  0  0  0  0  0  0
  140.4190   77.7130  222.0130 C   0  0  1  0  0  0  0  0  0  0  0  0
  141.1430   78.3330  223.1660 C   0  0  0  0  0  0  0  0  0  0  0  0
  141.1790   79.8290  222.9340 C   0  0  0  0  0  0  0  0  0  0  0  0
  141.7960   80.0720  221.5590 C   0  0  0  0  0  0  0  0  0  0  0  0
  140.9430   79.5180  220.5110 N   0  0  0  0  0  0  0  0  0  0  0  0
  141.0110   78.0670  220.6770 C   0  0  0  0  0  0  0  0  0  0  0  0
  142.2360   76.0040  221.0900 H   0  0  0  0  0  0  0  0  0  0  0  0
  138.3153   70.9122  222.1249 H   0  0  0  0  0  0  0  0  0  0  0  0
  139.5122   69.5755  222.3742 H   0  0  0  0  0  0  0  0  0  0  0  0
  137.3558   70.5421  224.2967 H   0  0  0  0  0  0  0  0  0  0  0  0
  137.5003   68.9379  223.5486 H   0  0  0  0  0  0  0  0  0  0  0  0
  138.1074   67.4069  225.2862 H   0  0  0  0  0  0  0  0  0  0  0  0
  139.6629   66.7899  227.1264 H   0  0  0  0  0  0  0  0  0  0  0  0
  141.3784   68.3565  227.9127 H   0  0  0  0  0  0  0  0  0  0  0  0
  141.6011   70.6149  226.8771 H   0  0  0  0  0  0  0  0  0  0  0  0
  139.2021   72.2099  225.1787 H   0  0  0  0  0  0  0  0  0  0  0  0
  140.9742   72.0842  225.0599 H   0  0  0  0  0  0  0  0  0  0  0  0
  144.0377   73.0816  219.1095 H   0  0  0  0  0  0  0  0  0  0  0  0
  145.2284   71.9122  219.6946 H   0  0  0  0  0  0  0  0  0  0  0  0
  143.3045   71.3627  217.3225 H   0  0  0  0  0  0  0  0  0  0  0  0
  144.9434   71.9452  217.0773 H   0  0  0  0  0  0  0  0  0  0  0  0
  146.3683   70.1323  216.5305 H   0  0  0  0  0  0  0  0  0  0  0  0
  147.1515   67.7950  216.9953 H   0  0  0  0  0  0  0  0  0  0  0  0
  145.9965   66.4543  218.7155 H   0  0  0  0  0  0  0  0  0  0  0  0
  144.0823   67.3545  219.9966 H   0  0  0  0  0  0  0  0  0  0  0  0
  142.0859   69.7223  219.1255 H   0  0  0  0  0  0  0  0  0  0  0  0
  142.9327   69.4218  220.6985 H   0  0  0  0  0  0  0  0  0  0  0  0
  139.4060   78.1363  222.0810 H   0  0  0  0  0  0  0  0  0  0  0  0
  140.6131   78.1117  224.1042 H   0  0  0  0  0  0  0  0  0  0  0  0
  142.1635   77.9297  223.2429 H   0  0  0  0  0  0  0  0  0  0  0  0
  140.1580   80.2372  222.9637 H   0  0  0  0  0  0  0  0  0  0  0  0
  141.7731   80.3253  223.7155 H   0  0  0  0  0  0  0  0  0  0  0  0
  141.9093   81.1544  221.3992 H   0  0  0  0  0  0  0  0  0  0  0  0
  142.7779   79.5779  221.5171 H   0  0  0  0  0  0  0  0  0  0  0  0
  139.9490   79.7850  220.7200 H   0  0  0  0  0  0  0  0  0  0  0  0
  140.4405   77.5744  219.8758 H   0  0  0  0  0  0  0  0  0  0  0  0
  142.0568   77.7298  220.6261 H   0  0  0  0  0  0  0  0  0  0  0  0
  1  2  2  0
  2  3  1  0
  3  4  1  0
  4  5  2  0
  5  6  1  0
  6  7  1  0
  7  8  1  0
  8  9  1  0
  9 10  1  0
 10 11  2  0
 11 12  1  0
 12 13  2  0
 13 14  1  0
 14 15  2  0
 15 16  1  0
  6 17  2  0
 17 18  1  0
 18 19  1  0
 19 20  1  0
 20 21  1  0
 21 22  1  0
 22 23  2  0
 23 24  1  0
 24 25  2  0
 25 26  1  0
 26 27  2  0
 27 28  1  0
 18 29  2  0
  2 30  1  0
 30 31  1  0
 31 32  1  0
 32 33  1  0
 33 34  1  0
 34 35  1  0
 29  4  1  0
 35 30  1  0
 16  7  1  0
 28 19  1  0
 15 10  1  0
 27 22  1  0
  3 36  1  0
  8 37  1  0
  8 38  1  0
  9 39  1  0
  9 40  1  0
 11 41  1  0
 12 42  1  0
 13 43  1  0
 14 44  1  0
 16 45  1  0
 16 46  1  0
 20 47  1  0
 20 48  1  0
 21 49  1  0
 21 50  1  0
 23 51  1  0
 24 52  1  0
 25 53  1  0
 26 54  1  0
 28 55  1  0
 28 56  1  0
 30 57  1  6
 31 58  1  0
 31 59  1  0
 32 60  1  0
 32 61  1  0
 33 62  1  0
 33 63  1  0
 34 64  1  0
 35 65  1  0
 35 66  1  0
M  END
>  <smiles>  (55) 
O=C(Nc1nc(N2CCc3ccccc3C2)nc(N2CCc3ccccc3C2)n1)C1CCCNC1

>  <score_type>  (55) 
oracle

>  <origin>  (55) 
autodockgpu

>  <m_score__min__energy>  (55) 
-9.5399999999999991

>  <m_primary>  (55) 
energy

>  <rmsd>  (55) 
5.129402317495444

>  <m_score__min__rmsd>  (55) 
5.129402317495444

>  <meeko>  (55) 
{"free_energy": -9.54, "intermolecular_energy": -10.73, "internal_energy": -0.77, "cluster_size": 23, "cluster_id": 1, "rank_in_cluster": 2}

>  <energy>  (55) 
-9.49

>  <cluster_rmsd>  (55) 
0.16

>  <cluster>  (55) 
1

$$$$

     RDKit          3D

 66 71  0  0  1  0  0  0  0  0999 V2000
  139.4370   75.6370  222.6580 O   0  0  0  0  0  0  0  0  0  0  0  0
  140.3820   76.2490  222.0850 C   0  0  0  0  0  0  0  0  0  0  0  0
  141.4400   75.5000  221.4970 N   0  0  0  0  0  0  0  0  0  0  0  0
  141.4910   74.0780  221.5190 C   0  0  0  0  0  0  0  0  0  0  0  0
  140.7190   73.3820  222.3920 N   0  0  0  0  0  0  0  0  0  0  0  0
  140.7440   72.0430  222.4370 C   0  0  0  0  0  0  0  0  0  0  0  0
  139.9190   71.3490  223.3670 N   0  0  0  0  0  0  0  0  0  0  0  0
  138.9190   70.4540  222.8180 C   0  0  0  0  0  0  0  0  0  0  0  0
  138.0540   69.8560  223.9050 C   0  0  0  0  0  0  0  0  0  0  0  0
  138.9830   69.3750  224.9800 C   0  0  0  0  0  0  0  0  0  0  0  0
  138.8420   68.1090  225.5330 C   0  0  0  0  0  0  0  0  0  0  0  0
  139.7290   67.7150  226.5230 C   0  0  0  0  0  0  0  0  0  0  0  0
  140.7300   68.5450  226.9590 C   0  0  0  0  0  0  0  0  0  0  0  0
  140.8870   69.8070  226.4230 C   0  0  0  0  0  0  0  0  0  0  0  0
  140.0040   70.1900  225.4420 C   0  0  0  0  0  0  0  0  0  0  0  0
  140.0900   71.5440  224.7930 C   0  0  0  0  0  0  0  0  0  0  0  0
  141.5690   71.3870  221.5830 N   0  0  0  0  0  0  0  0  0  0  0  0
  142.3480   72.0340  220.7060 C   0  0  0  0  0  0  0  0  0  0  0  0
  143.2010   71.3160  219.8240 N   0  0  0  0  0  0  0  0  0  0  0  0
  144.2210   72.0190  219.0710 C   0  0  0  0  0  0  0  0  0  0  0  0
  144.2430   71.3540  217.6870 C   0  0  0  0  0  0  0  0  0  0  0  0
  144.7840   69.9910  217.9540 C   0  0  0  0  0  0  0  0  0  0  0  0
  145.8430   69.5120  217.2120 C   0  0  0  0  0  0  0  0  0  0  0  0
  146.3130   68.2420  217.4930 C   0  0  0  0  0  0  0  0  0  0  0  0
  145.7080   67.5100  218.4950 C   0  0  0  0  0  0  0  0  0  0  0  0
  144.6450   67.9980  219.2330 C   0  0  0  0  0  0  0  0  0  0  0  0
  144.1720   69.2680  218.9570 C   0  0  0  0  0  0  0  0  0  0  0  0
  143.0350   69.8820  219.6930 C   0  0  0  0  0  0  0  0  0  0  0  0
  142.3020   73.3740  220.6820 N   0  0  0  0  0  0  0  0  0  0  0  0
  140.4530   77.7270  221.9890 C   0  0  1  0  0  0  0  0  0  0  0  0
  141.1040   78.3560  223.1790 C   0  0  0  0  0  0  0  0  0  0  0  0
  141.1500   79.8510  222.9410 C   0  0  0  0  0  0  0  0  0  0  0  0
  141.8490   80.0870  221.6040 C   0  0  0  0  0  0  0  0  0  0  0  0
  141.0620   79.5250  220.5100 N   0  0  0  0  0  0  0  0  0  0  0  0
  141.1240   78.0750  220.6880 C   0  0  0  0  0  0  0  0  0  0  0  0
  142.2370   76.0120  221.0140 H   0  0  0  0  0  0  0  0  0  0  0  0
  138.2799   71.0163  222.1214 H   0  0  0  0  0  0  0  0  0  0  0  0
  139.4372   69.6342  222.2990 H   0  0  0  0  0  0  0  0  0  0  0  0
  137.3706   70.6181  224.3077 H   0  0  0  0  0  0  0  0  0  0  0  0
  137.4411   69.0307  223.5135 H   0  0  0  0  0  0  0  0  0  0  0  0
  138.0435   67.4332  225.1928 H   0  0  0  0  0  0  0  0  0  0  0  0
  139.6277   66.7144  226.9687 H   0  0  0  0  0  0  0  0  0  0  0  0
  141.4167   68.2003  227.7462 H   0  0  0  0  0  0  0  0  0  0  0  0
  141.6867   70.4793  226.7671 H   0  0  0  0  0  0  0  0  0  0  0  0
  139.2961   72.1989  225.1814 H   0  0  0  0  0  0  0  0  0  0  0  0
  141.0587   72.0187  225.0082 H   0  0  0  0  0  0  0  0  0  0  0  0
  143.9657   73.0852  218.9809 H   0  0  0  0  0  0  0  0  0  0  0  0
  145.2024   71.9644  219.5649 H   0  0  0  0  0  0  0  0  0  0  0  0
  143.2292   71.2969  217.2638 H   0  0  0  0  0  0  0  0  0  0  0  0
  144.8448   71.9141  216.9562 H   0  0  0  0  0  0  0  0  0  0  0  0
  146.3007   70.1223  216.4196 H   0  0  0  0  0  0  0  0  0  0  0  0
  147.1567   67.8212  216.9263 H   0  0  0  0  0  0  0  0  0  0  0  0
  146.0856   66.5005  218.7147 H   0  0  0  0  0  0  0  0  0  0  0  0
  144.1847   67.3879  220.0241 H   0  0  0  0  0  0  0  0  0  0  0  0
  142.1029   69.6784  219.1456 H   0  0  0  0  0  0  0  0  0  0  0  0
  142.9996   69.4445  220.7016 H   0  0  0  0  0  0  0  0  0  0  0  0
  139.4365   78.1475  221.9939 H   0  0  0  0  0  0  0  0  0  0  0  0
  140.5191   78.1385  224.0849 H   0  0  0  0  0  0  0  0  0  0  0  0
  142.1192   77.9564  223.3194 H   0  0  0  0  0  0  0  0  0  0  0  0
  140.1280   80.2564  222.9061 H   0  0  0  0  0  0  0  0  0  0  0  0
  141.6938   80.3540  223.7541 H   0  0  0  0  0  0  0  0  0  0  0  0
  141.9700   81.1686  221.4446 H   0  0  0  0  0  0  0  0  0  0  0  0
  142.8325   79.5947  221.6246 H   0  0  0  0  0  0  0  0  0  0  0  0
  140.0570   79.7890  220.6560 H   0  0  0  0  0  0  0  0  0  0  0  0
  140.6041   77.5761  219.8568 H   0  0  0  0  0  0  0  0  0  0  0  0
  142.1718   77.7404  220.7019 H   0  0  0  0  0  0  0  0  0  0  0  0
  1  2  2  0
  2  3  1  0
  3  4  1  0
  4  5  2  0
  5  6  1  0
  6  7  1  0
  7  8  1  0
  8  9  1  0
  9 10  1  0
 10 11  2  0
 11 12  1  0
 12 13  2  0
 13 14  1  0
 14 15  2  0
 15 16  1  0
  6 17  2  0
 17 18  1  0
 18 19  1  0
 19 20  1  0
 20 21  1  0
 21 22  1  0
 22 23  2  0
 23 24  1  0
 24 25  2  0
 25 26  1  0
 26 27  2  0
 27 28  1  0
 18 29  2  0
  2 30  1  0
 30 31  1  0
 31 32  1  0
 32 33  1  0
 33 34  1  0
 34 35  1  0
 29  4  1  0
 35 30  1  0
 16  7  1  0
 28 19  1  0
 15 10  1  0
 27 22  1  0
  3 36  1  0
  8 37  1  0
  8 38  1  0
  9 39  1  0
  9 40  1  0
 11 41  1  0
 12 42  1  0
 13 43  1  0
 14 44  1  0
 16 45  1  0
 16 46  1  0
 20 47  1  0
 20 48  1  0
 21 49  1  0
 21 50  1  0
 23 51  1  0
 24 52  1  0
 25 53  1  0
 26 54  1  0
 28 55  1  0
 28 56  1  0
 30 57  1  6
 31 58  1  0
 31 59  1  0
 32 60  1  0
 32 61  1  0
 33 62  1  0
 33 63  1  0
 34 64  1  0
 35 65  1  0
 35 66  1  0
M  END
>  <smiles>  (56) 
O=C(Nc1nc(N2CCc3ccccc3C2)nc(N2CCc3ccccc3C2)n1)C1CCCNC1

>  <score_type>  (56) 
oracle

>  <origin>  (56) 
autodockgpu

>  <m_score__min__energy>  (56) 
-9.5399999999999991

>  <m_primary>  (56) 
energy

>  <rmsd>  (56) 
5.146012562629088

>  <m_score__min__rmsd>  (56) 
5.146012562629088

>  <meeko>  (56) 
{"free_energy": -9.52, "intermolecular_energy": -10.71, "internal_energy": -0.75, "cluster_size": 23, "cluster_id": 1, "rank_in_cluster": 4}

>  <energy>  (56) 
-9.45

>  <cluster_rmsd>  (56) 
0.21

>  <cluster>  (56) 
1

$$$$

     RDKit          3D

 66 71  0  0  1  0  0  0  0  0999 V2000
  139.3200   75.6290  222.4450 O   0  0  0  0  0  0  0  0  0  0  0  0
  140.3270   76.2450  221.9950 C   0  0  0  0  0  0  0  0  0  0  0  0
  141.4470   75.5000  221.5290 N   0  0  0  0  0  0  0  0  0  0  0  0
  141.4940   74.0770  221.5420 C   0  0  0  0  0  0  0  0  0  0  0  0
  140.7190   73.3780  222.4110 N   0  0  0  0  0  0  0  0  0  0  0  0
  140.7410   72.0380  222.4480 C   0  0  0  0  0  0  0  0  0  0  0  0
  139.9150   71.3410  223.3730 N   0  0  0  0  0  0  0  0  0  0  0  0
  138.9550   70.4050  222.8220 C   0  0  0  0  0  0  0  0  0  0  0  0
  138.0810   69.8050  223.9010 C   0  0  0  0  0  0  0  0  0  0  0  0
  138.9980   69.3760  225.0090 C   0  0  0  0  0  0  0  0  0  0  0  0
  138.8800   68.1200  225.5870 C   0  0  0  0  0  0  0  0  0  0  0  0
  139.7540   67.7750  226.6080 C   0  0  0  0  0  0  0  0  0  0  0  0
  140.7190   68.6450  227.0480 C   0  0  0  0  0  0  0  0  0  0  0  0
  140.8520   69.8980  226.4870 C   0  0  0  0  0  0  0  0  0  0  0  0
  139.9820   70.2320  225.4760 C   0  0  0  0  0  0  0  0  0  0  0  0
  140.0440   71.5730  224.7980 C   0  0  0  0  0  0  0  0  0  0  0  0
  141.5630   71.3850  221.5890 N   0  0  0  0  0  0  0  0  0  0  0  0
  142.3450   72.0360  220.7160 C   0  0  0  0  0  0  0  0  0  0  0  0
  143.1950   71.3210  219.8290 N   0  0  0  0  0  0  0  0  0  0  0  0
  144.1840   72.0320  219.0430 C   0  0  0  0  0  0  0  0  0  0  0  0
  144.1920   71.3440  217.6710 C   0  0  0  0  0  0  0  0  0  0  0  0
  144.7680   69.9980  217.9500 C   0  0  0  0  0  0  0  0  0  0  0  0
  145.8230   69.5290  217.1950 C   0  0  0  0  0  0  0  0  0  0  0  0
  146.3260   68.2740  217.4880 C   0  0  0  0  0  0  0  0  0  0  0  0
  145.7580   67.5470  218.5150 C   0  0  0  0  0  0  0  0  0  0  0  0
  144.6990   68.0260  219.2660 C   0  0  0  0  0  0  0  0  0  0  0  0
  144.1930   69.2790  218.9780 C   0  0  0  0  0  0  0  0  0  0  0  0
  143.0580   69.8820  219.7260 C   0  0  0  0  0  0  0  0  0  0  0  0
  142.3020   73.3760  220.7010 N   0  0  0  0  0  0  0  0  0  0  0  0
  140.4110   77.7230  221.9240 C   0  0  1  0  0  0  0  0  0  0  0  0
  141.1030   78.3240  223.1060 C   0  0  0  0  0  0  0  0  0  0  0  0
  141.1570   79.8230  222.8930 C   0  0  0  0  0  0  0  0  0  0  0  0
  141.8180   80.0770  221.5400 C   0  0  0  0  0  0  0  0  0  0  0  0
  140.9940   79.5420  220.4600 N   0  0  0  0  0  0  0  0  0  0  0  0
  141.0460   78.0890  220.6110 C   0  0  0  0  0  0  0  0  0  0  0  0
  142.2960   76.0140  221.1500 H   0  0  0  0  0  0  0  0  0  0  0  0
  138.3169   70.9327  222.0979 H   0  0  0  0  0  0  0  0  0  0  0  0
  139.5097   69.5894  222.3350 H   0  0  0  0  0  0  0  0  0  0  0  0
  137.3654   70.5546  224.2698 H   0  0  0  0  0  0  0  0  0  0  0  0
  137.5024   68.9533  223.5138 H   0  0  0  0  0  0  0  0  0  0  0  0
  138.1104   67.4132  225.2433 H   0  0  0  0  0  0  0  0  0  0  0  0
  139.6712   66.7823  227.0747 H   0  0  0  0  0  0  0  0  0  0  0  0
  141.3960   68.3392  227.8593 H   0  0  0  0  0  0  0  0  0  0  0  0
  141.6229   70.6016  226.8343 H   0  0  0  0  0  0  0  0  0  0  0  0
  139.2214   72.2121  225.1515 H   0  0  0  0  0  0  0  0  0  0  0  0
  140.9924   72.0815  225.0258 H   0  0  0  0  0  0  0  0  0  0  0  0
  143.9041   73.0908  218.9401 H   0  0  0  0  0  0  0  0  0  0  0  0
  145.1762   72.0066  219.5172 H   0  0  0  0  0  0  0  0  0  0  0  0
  143.1713   71.2578  217.2702 H   0  0  0  0  0  0  0  0  0  0  0  0
  144.7662   71.9041  216.9183 H   0  0  0  0  0  0  0  0  0  0  0  0
  146.2519   70.1353  216.3835 H   0  0  0  0  0  0  0  0  0  0  0  0
  147.1666   67.8613  216.9109 H   0  0  0  0  0  0  0  0  0  0  0  0
  146.1622   66.5501  218.7448 H   0  0  0  0  0  0  0  0  0  0  0  0
  144.2681   67.4206  220.0771 H   0  0  0  0  0  0  0  0  0  0  0  0
  142.1198   69.6489  219.2011 H   0  0  0  0  0  0  0  0  0  0  0  0
  143.0525   69.4620  220.7427 H   0  0  0  0  0  0  0  0  0  0  0  0
  139.3994   78.1530  221.9668 H   0  0  0  0  0  0  0  0  0  0  0  0
  140.5426   78.0958  224.0246 H   0  0  0  0  0  0  0  0  0  0  0  0
  142.1177   77.9121  223.2098 H   0  0  0  0  0  0  0  0  0  0  0  0
  140.1386   80.2386  222.8962 H   0  0  0  0  0  0  0  0  0  0  0  0
  141.7303   80.3058  223.6982 H   0  0  0  0  0  0  0  0  0  0  0  0
  141.9442   81.1603  221.3964 H   0  0  0  0  0  0  0  0  0  0  0  0
  142.7969   79.5756  221.5225 H   0  0  0  0  0  0  0  0  0  0  0  0
  139.9960   79.8140  220.6410 H   0  0  0  0  0  0  0  0  0  0  0  0
  140.4967   77.6104  219.7869 H   0  0  0  0  0  0  0  0  0  0  0  0
  142.0905   77.7447  220.5884 H   0  0  0  0  0  0  0  0  0  0  0  0
  1  2  2  0
  2  3  1  0
  3  4  1  0
  4  5  2  0
  5  6  1  0
  6  7  1  0
  7  8  1  0
  8  9  1  0
  9 10  1  0
 10 11  2  0
 11 12  1  0
 12 13  2  0
 13 14  1  0
 14 15  2  0
 15 16  1  0
  6 17  2  0
 17 18  1  0
 18 19  1  0
 19 20  1  0
 20 21  1  0
 21 22  1  0
 22 23  2  0
 23 24  1  0
 24 25  2  0
 25 26  1  0
 26 27  2  0
 27 28  1  0
 18 29  2  0
  2 30  1  0
 30 31  1  0
 31 32  1  0
 32 33  1  0
 33 34  1  0
 34 35  1  0
 29  4  1  0
 35 30  1  0
 16  7  1  0
 28 19  1  0
 15 10  1  0
 27 22  1  0
  3 36  1  0
  8 37  1  0
  8 38  1  0
  9 39  1  0
  9 40  1  0
 11 41  1  0
 12 42  1  0
 13 43  1  0
 14 44  1  0
 16 45  1  0
 16 46  1  0
 20 47  1  0
 20 48  1  0
 21 49  1  0
 21 50  1  0
 23 51  1  0
 24 52  1  0
 25 53  1  0
 26 54  1  0
 28 55  1  0
 28 56  1  0
 30 57  1  6
 31 58  1  0
 31 59  1  0
 32 60  1  0
 32 61  1  0
 33 62  1  0
 33 63  1  0
 34 64  1  0
 35 65  1  0
 35 66  1  0
M  END
>  <smiles>  (57) 
O=C(Nc1nc(N2CCc3ccccc3C2)nc(N2CCc3ccccc3C2)n1)C1CCCNC1

>  <score_type>  (57) 
oracle

>  <origin>  (57) 
autodockgpu

>  <m_score__min__energy>  (57) 
-9.5399999999999991

>  <m_primary>  (57) 
energy

>  <rmsd>  (57) 
5.105381637833696

>  <m_score__min__rmsd>  (57) 
5.105381637833696

>  <meeko>  (57) 
{"free_energy": -9.52, "intermolecular_energy": -10.71, "internal_energy": -0.78, "cluster_size": 23, "cluster_id": 1, "rank_in_cluster": 3}

>  <energy>  (57) 
-9.43

>  <cluster_rmsd>  (57) 
0.29

>  <cluster>  (57) 
1

$$$$

     RDKit          3D

 66 71  0  0  1  0  0  0  0  0999 V2000
  139.3590   75.6420  222.7290 O   0  0  0  0  0  0  0  0  0  0  0  0
  140.3130   76.2720  222.1900 C   0  0  0  0  0  0  0  0  0  0  0  0
  141.3840   75.5420  221.6030 N   0  0  0  0  0  0  0  0  0  0  0  0
  141.4410   74.1200  221.5900 C   0  0  0  0  0  0  0  0  0  0  0  0
  140.7000   73.4010  222.4700 N   0  0  0  0  0  0  0  0  0  0  0  0
  140.7310   72.0600  222.4830 C   0  0  0  0  0  0  0  0  0  0  0  0
  139.9390   71.3420  223.4220 N   0  0  0  0  0  0  0  0  0  0  0  0
  138.9690   70.4070  222.8850 C   0  0  0  0  0  0  0  0  0  0  0  0
  138.1340   69.7830  223.9810 C   0  0  0  0  0  0  0  0  0  0  0  0
  139.0880   69.3430  225.0520 C   0  0  0  0  0  0  0  0  0  0  0  0
  138.9980   68.0760  225.6120 C   0  0  0  0  0  0  0  0  0  0  0  0
  139.9060   67.7210  226.5990 C   0  0  0  0  0  0  0  0  0  0  0  0
  140.8790   68.5890  227.0230 C   0  0  0  0  0  0  0  0  0  0  0  0
  140.9840   69.8530  226.4790 C   0  0  0  0  0  0  0  0  0  0  0  0
  140.0810   70.1980  225.5020 C   0  0  0  0  0  0  0  0  0  0  0  0
  140.1120   71.5500  224.8460 C   0  0  0  0  0  0  0  0  0  0  0  0
  141.5290   71.4280  221.5870 N   0  0  0  0  0  0  0  0  0  0  0  0
  142.2780   72.0990  220.7010 C   0  0  0  0  0  0  0  0  0  0  0  0
  143.1050   71.4060  219.7750 N   0  0  0  0  0  0  0  0  0  0  0  0
  143.9880   72.1470  218.8960 C   0  0  0  0  0  0  0  0  0  0  0  0
  143.9380   71.4130  217.5490 C   0  0  0  0  0  0  0  0  0  0  0  0
  144.6150   70.1140  217.8250 C   0  0  0  0  0  0  0  0  0  0  0  0
  145.6390   69.6820  217.0080 C   0  0  0  0  0  0  0  0  0  0  0  0
  146.2390   68.4710  217.3000 C   0  0  0  0  0  0  0  0  0  0  0  0
  145.7930   67.7470  218.3880 C   0  0  0  0  0  0  0  0  0  0  0  0
  144.7640   68.1880  219.2020 C   0  0  0  0  0  0  0  0  0  0  0  0
  144.1620   69.3980  218.9140 C   0  0  0  0  0  0  0  0  0  0  0  0
  143.0500   69.9580  219.7270 C   0  0  0  0  0  0  0  0  0  0  0  0
  142.2270   73.4390  220.7110 N   0  0  0  0  0  0  0  0  0  0  0  0
  140.3800   77.7520  222.1330 C   0  0  1  0  0  0  0  0  0  0  0  0
  139.0450   78.4020  222.3190 C   0  0  0  0  0  0  0  0  0  0  0  0
  139.2550   79.9010  222.2800 C   0  0  0  0  0  0  0  0  0  0  0  0
  140.3120   80.2490  223.3270 C   0  0  0  0  0  0  0  0  0  0  0  0
  141.5960   79.6490  222.9760 N   0  0  0  0  0  0  0  0  0  0  0  0
  141.4090   78.2070  223.1300 C   0  0  0  0  0  0  0  0  0  0  0  0
  142.1880   76.0680  221.1490 H   0  0  0  0  0  0  0  0  0  0  0  0
  138.3046   70.9412  222.1899 H   0  0  0  0  0  0  0  0  0  0  0  0
  139.5140   69.6040  222.3671 H   0  0  0  0  0  0  0  0  0  0  0  0
  137.4252   70.5211  224.3845 H   0  0  0  0  0  0  0  0  0  0  0  0
  137.5496   68.9334  223.5982 H   0  0  0  0  0  0  0  0  0  0  0  0
  138.2235   67.3688  225.2803 H   0  0  0  0  0  0  0  0  0  0  0  0
  139.8439   66.7204  227.0517 H   0  0  0  0  0  0  0  0  0  0  0  0
  141.5844   68.2741  227.8061 H   0  0  0  0  0  0  0  0  0  0  0  0
  141.7600   70.5568  226.8142 H   0  0  0  0  0  0  0  0  0  0  0  0
  139.2968   72.1768  225.2367 H   0  0  0  0  0  0  0  0  0  0  0  0
  141.0639   72.0612  225.0522 H   0  0  0  0  0  0  0  0  0  0  0  0
  143.6363   73.1830  218.7823 H   0  0  0  0  0  0  0  0  0  0  0  0
  145.0119   72.1976  219.2949 H   0  0  0  0  0  0  0  0  0  0  0  0
  142.8979   71.2523  217.2289 H   0  0  0  0  0  0  0  0  0  0  0  0
  144.4198   71.9794  216.7384 H   0  0  0  0  0  0  0  0  0  0  0  0
  145.9690   70.2839  216.1484 H   0  0  0  0  0  0  0  0  0  0  0  0
  147.0598   68.0898  216.6747 H   0  0  0  0  0  0  0  0  0  0  0  0
  146.2733   66.7841  218.6163 H   0  0  0  0  0  0  0  0  0  0  0  0
  144.4320   67.5870  220.0614 H   0  0  0  0  0  0  0  0  0  0  0  0
  142.0920   69.6511  219.2821 H   0  0  0  0  0  0  0  0  0  0  0  0
  143.1453   69.5744  220.7535 H   0  0  0  0  0  0  0  0  0  0  0  0
  140.6882   78.0704  221.1262 H   0  0  0  0  0  0  0  0  0  0  0  0
  138.3640   78.0977  221.5105 H   0  0  0  0  0  0  0  0  0  0  0  0
  138.5989   78.0997  223.2780 H   0  0  0  0  0  0  0  0  0  0  0  0
  139.6024   80.2048  221.2815 H   0  0  0  0  0  0  0  0  0  0  0  0
  138.3132   80.4278  222.4932 H   0  0  0  0  0  0  0  0  0  0  0  0
  140.4250   81.3420  223.3780 H   0  0  0  0  0  0  0  0  0  0  0  0
  139.9900   79.8553  224.3023 H   0  0  0  0  0  0  0  0  0  0  0  0
  141.7660   79.8090  221.9520 H   0  0  0  0  0  0  0  0  0  0  0  0
  142.3606   77.6873  222.9450 H   0  0  0  0  0  0  0  0  0  0  0  0
  141.0725   77.9769  224.1517 H   0  0  0  0  0  0  0  0  0  0  0  0
  1  2  2  0
  2  3  1  0
  3  4  1  0
  4  5  2  0
  5  6  1  0
  6  7  1  0
  7  8  1  0
  8  9  1  0
  9 10  1  0
 10 11  2  0
 11 12  1  0
 12 13  2  0
 13 14  1  0
 14 15  2  0
 15 16  1  0
  6 17  2  0
 17 18  1  0
 18 19  1  0
 19 20  1  0
 20 21  1  0
 21 22  1  0
 22 23  2  0
 23 24  1  0
 24 25  2  0
 25 26  1  0
 26 27  2  0
 27 28  1  0
 18 29  2  0
  2 30  1  0
 30 31  1  0
 31 32  1  0
 32 33  1  0
 33 34  1  0
 34 35  1  0
 29  4  1  0
 35 30  1  0
 16  7  1  0
 28 19  1  0
 15 10  1  0
 27 22  1  0
  3 36  1  0
  8 37  1  0
  8 38  1  0
  9 39  1  0
  9 40  1  0
 11 41  1  0
 12 42  1  0
 13 43  1  0
 14 44  1  0
 16 45  1  0
 16 46  1  0
 20 47  1  0
 20 48  1  0
 21 49  1  0
 21 50  1  0
 23 51  1  0
 24 52  1  0
 25 53  1  0
 26 54  1  0
 28 55  1  0
 28 56  1  0
 30 57  1  6
 31 58  1  0
 31 59  1  0
 32 60  1  0
 32 61  1  0
 33 62  1  0
 33 63  1  0
 34 64  1  0
 35 65  1  0
 35 66  1  0
M  END
>  <smiles>  (58) 
O=C(Nc1nc(N2CCc3ccccc3C2)nc(N2CCc3ccccc3C2)n1)C1CCCNC1

>  <score_type>  (58) 
oracle

>  <origin>  (58) 
autodockgpu

>  <m_score__min__energy>  (58) 
-9.5399999999999991

>  <m_primary>  (58) 
energy

>  <rmsd>  (58) 
5.163154200629475

>  <m_score__min__rmsd>  (58) 
5.163154200629475

>  <meeko>  (58) 
{"free_energy": -9.4, "intermolecular_energy": -10.59, "internal_energy": -0.75, "cluster_size": 23, "cluster_id": 1, "rank_in_cluster": 13}

>  <energy>  (58) 
-9.43

>  <cluster_rmsd>  (58) 
0.78

>  <cluster>  (58) 
1

$$$$

     RDKit          3D

 66 71  0  0  1  0  0  0  0  0999 V2000
  143.6860   75.0680  219.0920 O   0  0  0  0  0  0  0  0  0  0  0  0
  143.8220   73.8590  218.7510 C   0  0  0  0  0  0  0  0  0  0  0  0
  143.0430   72.8610  219.4010 N   0  0  0  0  0  0  0  0  0  0  0  0
  142.1050   73.1550  220.4310 C   0  0  0  0  0  0  0  0  0  0  0  0
  141.6280   74.4180  220.5770 N   0  0  0  0  0  0  0  0  0  0  0  0
  140.7450   74.7270  221.5360 C   0  0  0  0  0  0  0  0  0  0  0  0
  140.2680   76.0620  221.6580 N   0  0  0  0  0  0  0  0  0  0  0  0
  139.0620   76.2620  222.4380 C   0  0  0  0  0  0  0  0  0  0  0  0
  138.6150   77.7070  222.4090 C   0  0  0  0  0  0  0  0  0  0  0  0
  139.8310   78.5400  222.6810 C   0  0  0  0  0  0  0  0  0  0  0  0
  139.7970   79.5730  223.6080 C   0  0  0  0  0  0  0  0  0  0  0  0
  140.9510   80.3120  223.8210 C   0  0  0  0  0  0  0  0  0  0  0  0
  142.1110   80.0420  223.1390 C   0  0  0  0  0  0  0  0  0  0  0  0
  142.1650   79.0200  222.2130 C   0  0  0  0  0  0  0  0  0  0  0  0
  141.0170   78.2920  222.0080 C   0  0  0  0  0  0  0  0  0  0  0  0
  140.9720   77.1580  221.0220 C   0  0  0  0  0  0  0  0  0  0  0  0
  140.3300   73.7400  222.3700 N   0  0  0  0  0  0  0  0  0  0  0  0
  140.7760   72.4810  222.2610 C   0  0  0  0  0  0  0  0  0  0  0  0
  140.3220   71.4700  223.1520 N   0  0  0  0  0  0  0  0  0  0  0  0
  139.5380   70.3600  222.6480 C   0  0  0  0  0  0  0  0  0  0  0  0
  138.4750   70.0860  223.7220 C   0  0  0  0  0  0  0  0  0  0  0  0
  139.2590   69.5560  224.8740 C   0  0  0  0  0  0  0  0  0  0  0  0
  138.8860   68.3730  225.4760 C   0  0  0  0  0  0  0  0  0  0  0  0
  139.6420   67.9180  226.5410 C   0  0  0  0  0  0  0  0  0  0  0  0
  140.7290   68.6600  226.9570 C   0  0  0  0  0  0  0  0  0  0  0  0
  141.0950   69.8470  226.3470 C   0  0  0  0  0  0  0  0  0  0  0  0
  140.3440   70.3060  225.2810 C   0  0  0  0  0  0  0  0  0  0  0  0
  140.6550   71.5680  224.5590 C   0  0  0  0  0  0  0  0  0  0  0  0
  141.6590   72.2000  221.2930 N   0  0  0  0  0  0  0  0  0  0  0  0
  144.7610   73.4140  217.6940 C   0  0  1  0  0  0  0  0  0  0  0  0
  145.0240   71.9420  217.7310 C   0  0  0  0  0  0  0  0  0  0  0  0
  145.9590   71.6130  216.5860 C   0  0  0  0  0  0  0  0  0  0  0  0
  145.3230   72.1380  215.3010 C   0  0  0  0  0  0  0  0  0  0  0  0
  145.2220   73.5950  215.3390 N   0  0  0  0  0  0  0  0  0  0  0  0
  144.2300   73.8920  216.3710 C   0  0  0  0  0  0  0  0  0  0  0  0
  143.1550   71.8430  219.1170 H   0  0  0  0  0  0  0  0  0  0  0  0
  138.2607   75.6318  222.0248 H   0  0  0  0  0  0  0  0  0  0  0  0
  139.2771   75.9886  223.4815 H   0  0  0  0  0  0  0  0  0  0  0  0
  138.1987   77.9552  221.4215 H   0  0  0  0  0  0  0  0  0  0  0  0
  137.8319   77.8938  223.1585 H   0  0  0  0  0  0  0  0  0  0  0  0
  138.8742   79.8005  224.1618 H   0  0  0  0  0  0  0  0  0  0  0  0
  140.9363   81.1330  224.5530 H   0  0  0  0  0  0  0  0  0  0  0  0
  143.0086   80.6475  223.3328 H   0  0  0  0  0  0  0  0  0  0  0  0
  143.0899   78.7968  221.6609 H   0  0  0  0  0  0  0  0  0  0  0  0
  140.4384   77.4709  220.1124 H   0  0  0  0  0  0  0  0  0  0  0  0
  141.9884   76.8526  220.7328 H   0  0  0  0  0  0  0  0  0  0  0  0
  139.0603   70.6287  221.6943 H   0  0  0  0  0  0  0  0  0  0  0  0
  140.1615   69.4743  222.4563 H   0  0  0  0  0  0  0  0  0  0  0  0
  137.9501   71.0122  223.9987 H   0  0  0  0  0  0  0  0  0  0  0  0
  137.6968   69.3875  223.3807 H   0  0  0  0  0  0  0  0  0  0  0  0
  138.0124   67.8075  225.1196 H   0  0  0  0  0  0  0  0  0  0  0  0
  139.3807   66.9781  227.0493 H   0  0  0  0  0  0  0  0  0  0  0  0
  141.3266   68.2942  227.8050 H   0  0  0  0  0  0  0  0  0  0  0  0
  141.9671   70.4146  226.7036 H   0  0  0  0  0  0  0  0  0  0  0  0
  140.0755   72.3885  225.0073 H   0  0  0  0  0  0  0  0  0  0  0  0
  141.7349   71.7586  224.6460 H   0  0  0  0  0  0  0  0  0  0  0  0
  145.7511   73.8609  217.8674 H   0  0  0  0  0  0  0  0  0  0  0  0
  145.4928   71.6690  218.6879 H   0  0  0  0  0  0  0  0  0  0  0  0
  144.0835   71.3798  217.6344 H   0  0  0  0  0  0  0  0  0  0  0  0
  146.9332   72.0977  216.7469 H   0  0  0  0  0  0  0  0  0  0  0  0
  146.1198   70.5268  216.5201 H   0  0  0  0  0  0  0  0  0  0  0  0
  145.9427   71.8403  214.4423 H   0  0  0  0  0  0  0  0  0  0  0  0
  144.3128   71.7135  215.2045 H   0  0  0  0  0  0  0  0  0  0  0  0
  146.1320   73.9790  215.6960 H   0  0  0  0  0  0  0  0  0  0  0  0
  144.0512   74.9766  216.4128 H   0  0  0  0  0  0  0  0  0  0  0  0
  143.2817   73.3848  216.1397 H   0  0  0  0  0  0  0  0  0  0  0  0
  1  2  2  0
  2  3  1  0
  3  4  1  0
  4  5  2  0
  5  6  1  0
  6  7  1  0
  7  8  1  0
  8  9  1  0
  9 10  1  0
 10 11  2  0
 11 12  1  0
 12 13  2  0
 13 14  1  0
 14 15  2  0
 15 16  1  0
  6 17  2  0
 17 18  1  0
 18 19  1  0
 19 20  1  0
 20 21  1  0
 21 22  1  0
 22 23  2  0
 23 24  1  0
 24 25  2  0
 25 26  1  0
 26 27  2  0
 27 28  1  0
 18 29  2  0
  2 30  1  0
 30 31  1  0
 31 32  1  0
 32 33  1  0
 33 34  1  0
 34 35  1  0
 29  4  1  0
 35 30  1  0
 16  7  1  0
 28 19  1  0
 15 10  1  0
 27 22  1  0
  3 36  1  0
  8 37  1  0
  8 38  1  0
  9 39  1  0
  9 40  1  0
 11 41  1  0
 12 42  1  0
 13 43  1  0
 14 44  1  0
 16 45  1  0
 16 46  1  0
 20 47  1  0
 20 48  1  0
 21 49  1  0
 21 50  1  0
 23 51  1  0
 24 52  1  0
 25 53  1  0
 26 54  1  0
 28 55  1  0
 28 56  1  0
 30 57  1  1
 31 58  1  0
 31 59  1  0
 32 60  1  0
 32 61  1  0
 33 62  1  0
 33 63  1  0
 34 64  1  0
 35 65  1  0
 35 66  1  0
M  END
>  <smiles>  (59) 
O=C(Nc1nc(N2CCc3ccccc3C2)nc(N2CCc3ccccc3C2)n1)C1CCCNC1

>  <score_type>  (59) 
oracle

>  <origin>  (59) 
autodockgpu

>  <m_score__min__energy>  (59) 
-9.5399999999999991

>  <m_primary>  (59) 
energy

>  <rmsd>  (59) 
6.796994096433522

>  <m_score__min__rmsd>  (59) 
6.796994096433522

>  <meeko>  (59) 
{"free_energy": -8.94, "intermolecular_energy": -10.13, "internal_energy": -0.78, "cluster_size": 24, "cluster_id": 2, "rank_in_cluster": 24}

>  <energy>  (59) 
-9.43

>  <cluster_rmsd>  (59) 
0.67

>  <cluster>  (59) 
1

$$$$

     RDKit          3D

 66 71  0  0  1  0  0  0  0  0999 V2000
  144.8970   72.7260  220.8640 O   0  0  0  0  0  0  0  0  0  0  0  0
  144.4710   72.6320  219.6780 C   0  0  0  0  0  0  0  0  0  0  0  0
  143.0870   72.8390  219.4180 N   0  0  0  0  0  0  0  0  0  0  0  0
  142.1430   73.1510  220.4350 C   0  0  0  0  0  0  0  0  0  0  0  0
  141.6770   74.4200  220.5670 N   0  0  0  0  0  0  0  0  0  0  0  0
  140.7870   74.7460  221.5140 C   0  0  0  0  0  0  0  0  0  0  0  0
  140.3230   76.0860  221.6200 N   0  0  0  0  0  0  0  0  0  0  0  0
  139.0880   76.2990  222.3480 C   0  0  0  0  0  0  0  0  0  0  0  0
  138.6610   77.7500  222.3060 C   0  0  0  0  0  0  0  0  0  0  0  0
  139.8760   78.5670  222.6330 C   0  0  0  0  0  0  0  0  0  0  0  0
  139.8150   79.5970  223.5620 C   0  0  0  0  0  0  0  0  0  0  0  0
  140.9690   80.3200  223.8270 C   0  0  0  0  0  0  0  0  0  0  0  0
  142.1530   80.0360  223.1950 C   0  0  0  0  0  0  0  0  0  0  0  0
  142.2330   79.0170  222.2690 C   0  0  0  0  0  0  0  0  0  0  0  0
  141.0860   78.3050  222.0110 C   0  0  0  0  0  0  0  0  0  0  0  0
  141.0690   77.1750  221.0200 C   0  0  0  0  0  0  0  0  0  0  0  0
  140.3540   73.7700  222.3520 N   0  0  0  0  0  0  0  0  0  0  0  0
  140.7880   72.5050  222.2580 C   0  0  0  0  0  0  0  0  0  0  0  0
  140.3140   71.5060  223.1520 N   0  0  0  0  0  0  0  0  0  0  0  0
  139.4700   70.4350  222.6600 C   0  0  0  0  0  0  0  0  0  0  0  0
  138.4250   70.1970  223.7590 C   0  0  0  0  0  0  0  0  0  0  0  0
  139.2160   69.6230  224.8850 C   0  0  0  0  0  0  0  0  0  0  0  0
  138.8080   68.4520  225.4870 C   0  0  0  0  0  0  0  0  0  0  0  0
  139.5710   67.9550  226.5290 C   0  0  0  0  0  0  0  0  0  0  0  0
  140.7000   68.6470  226.9210 C   0  0  0  0  0  0  0  0  0  0  0  0
  141.1000   69.8220  226.3120 C   0  0  0  0  0  0  0  0  0  0  0  0
  140.3410   70.3220  225.2700 C   0  0  0  0  0  0  0  0  0  0  0  0
  140.6870   71.5770  224.5510 C   0  0  0  0  0  0  0  0  0  0  0  0
  141.6780   72.2080  221.3000 N   0  0  0  0  0  0  0  0  0  0  0  0
  145.3450   72.3140  218.5240 C   0  0  1  0  0  0  0  0  0  0  0  0
  145.0730   70.9620  217.9430 C   0  0  0  0  0  0  0  0  0  0  0  0
  145.9970   70.7770  216.7580 C   0  0  0  0  0  0  0  0  0  0  0  0
  145.7830   71.9580  215.8130 C   0  0  0  0  0  0  0  0  0  0  0  0
  146.1880   73.2060  216.4540 N   0  0  0  0  0  0  0  0  0  0  0  0
  145.2170   73.4300  217.5240 C   0  0  0  0  0  0  0  0  0  0  0  0
  142.7260   72.7600  218.4210 H   0  0  0  0  0  0  0  0  0  0  0  0
  138.2971   75.6808  221.8982 H   0  0  0  0  0  0  0  0  0  0  0  0
  139.2548   76.0193  223.3987 H   0  0  0  0  0  0  0  0  0  0  0  0
  138.2901   78.0071  221.3028 H   0  0  0  0  0  0  0  0  0  0  0  0
  137.8492   77.9443  223.0224 H   0  0  0  0  0  0  0  0  0  0  0  0
  138.8723   79.8346  224.0766 H   0  0  0  0  0  0  0  0  0  0  0  0
  140.9338   81.1392  224.5602 H   0  0  0  0  0  0  0  0  0  0  0  0
  143.0497   80.6283  223.4297 H   0  0  0  0  0  0  0  0  0  0  0  0
  143.1780   78.7832  221.7569 H   0  0  0  0  0  0  0  0  0  0  0  0
  140.5801   77.4981  220.0891 H   0  0  0  0  0  0  0  0  0  0  0  0
  142.0930   76.8568  220.7749 H   0  0  0  0  0  0  0  0  0  0  0  0
  138.9796   70.7326  221.7214 H   0  0  0  0  0  0  0  0  0  0  0  0
  140.0497   69.5253  222.4448 H   0  0  0  0  0  0  0  0  0  0  0  0
  137.9480   71.1423  224.0573 H   0  0  0  0  0  0  0  0  0  0  0  0
  137.6084   69.5361  223.4330 H   0  0  0  0  0  0  0  0  0  0  0  0
  137.9020   67.9277  225.1489 H   0  0  0  0  0  0  0  0  0  0  0  0
  139.2827   67.0230  227.0373 H   0  0  0  0  0  0  0  0  0  0  0  0
  141.3040   68.2482  227.7493 H   0  0  0  0  0  0  0  0  0  0  0  0
  142.0046   70.3489  226.6499 H   0  0  0  0  0  0  0  0  0  0  0  0
  140.1545   72.4170  225.0210 H   0  0  0  0  0  0  0  0  0  0  0  0
  141.7758   71.7215  224.6117 H   0  0  0  0  0  0  0  0  0  0  0  0
  146.3907   72.2491  218.8592 H   0  0  0  0  0  0  0  0  0  0  0  0
  145.2686   70.1842  218.6959 H   0  0  0  0  0  0  0  0  0  0  0  0
  144.0219   70.8816  217.6287 H   0  0  0  0  0  0  0  0  0  0  0  0
  147.0428   70.7543  217.0984 H   0  0  0  0  0  0  0  0  0  0  0  0
  145.7798   69.8287  216.2446 H   0  0  0  0  0  0  0  0  0  0  0  0
  146.3828   71.8070  214.9034 H   0  0  0  0  0  0  0  0  0  0  0  0
  144.7150   72.0198  215.5571 H   0  0  0  0  0  0  0  0  0  0  0  0
  147.1100   73.0470  216.9310 H   0  0  0  0  0  0  0  0  0  0  0  0
  145.4206   74.3933  218.0145 H   0  0  0  0  0  0  0  0  0  0  0  0
  144.1979   73.4513  217.1105 H   0  0  0  0  0  0  0  0  0  0  0  0
  1  2  2  0
  2  3  1  0
  3  4  1  0
  4  5  2  0
  5  6  1  0
  6  7  1  0
  7  8  1  0
  8  9  1  0
  9 10  1  0
 10 11  2  0
 11 12  1  0
 12 13  2  0
 13 14  1  0
 14 15  2  0
 15 16  1  0
  6 17  2  0
 17 18  1  0
 18 19  1  0
 19 20  1  0
 20 21  1  0
 21 22  1  0
 22 23  2  0
 23 24  1  0
 24 25  2  0
 25 26  1  0
 26 27  2  0
 27 28  1  0
 18 29  2  0
  2 30  1  0
 30 31  1  0
 31 32  1  0
 32 33  1  0
 33 34  1  0
 34 35  1  0
 29  4  1  0
 35 30  1  0
 16  7  1  0
 28 19  1  0
 15 10  1  0
 27 22  1  0
  3 36  1  0
  8 37  1  0
  8 38  1  0
  9 39  1  0
  9 40  1  0
 11 41  1  0
 12 42  1  0
 13 43  1  0
 14 44  1  0
 16 45  1  0
 16 46  1  0
 20 47  1  0
 20 48  1  0
 21 49  1  0
 21 50  1  0
 23 51  1  0
 24 52  1  0
 25 53  1  0
 26 54  1  0
 28 55  1  0
 28 56  1  0
 30 57  1  1
 31 58  1  0
 31 59  1  0
 32 60  1  0
 32 61  1  0
 33 62  1  0
 33 63  1  0
 34 64  1  0
 35 65  1  0
 35 66  1  0
M  END
>  <smiles>  (60) 
O=C(Nc1nc(N2CCc3ccccc3C2)nc(N2CCc3ccccc3C2)n1)C1CCCNC1

>  <score_type>  (60) 
oracle

>  <origin>  (60) 
autodockgpu

>  <m_score__min__energy>  (60) 
-9.5399999999999991

>  <m_primary>  (60) 
energy

>  <rmsd>  (60) 
7.311550353780185

>  <m_score__min__rmsd>  (60) 
7.311550353780185

>  <meeko>  (60) 
{"free_energy": -9.41, "intermolecular_energy": -10.6, "internal_energy": -0.84, "cluster_size": 24, "cluster_id": 2, "rank_in_cluster": 10}

>  <energy>  (60) 
-9.42

>  <cluster_rmsd>  (60) 
0.76

>  <cluster>  (60) 
1

$$$$

     RDKit          3D

 66 71  0  0  1  0  0  0  0  0999 V2000
  144.7560   73.4080  220.7970 O   0  0  0  0  0  0  0  0  0  0  0  0
  144.3480   72.7480  219.7990 C   0  0  0  0  0  0  0  0  0  0  0  0
  142.9750   72.3800  219.7240 N   0  0  0  0  0  0  0  0  0  0  0  0
  142.0230   72.7190  220.7260 C   0  0  0  0  0  0  0  0  0  0  0  0
  141.5060   73.9730  220.7760 N   0  0  0  0  0  0  0  0  0  0  0  0
  140.6070   74.3240  221.7070 C   0  0  0  0  0  0  0  0  0  0  0  0
  140.0880   75.6490  221.7280 N   0  0  0  0  0  0  0  0  0  0  0  0
  138.7920   75.8380  222.3500 C   0  0  0  0  0  0  0  0  0  0  0  0
  138.3180   77.2690  222.2210 C   0  0  0  0  0  0  0  0  0  0  0  0
  139.4730   78.1420  222.6130 C   0  0  0  0  0  0  0  0  0  0  0  0
  139.3020   79.2000  223.4960 C   0  0  0  0  0  0  0  0  0  0  0  0
  140.4050   79.9750  223.8240 C   0  0  0  0  0  0  0  0  0  0  0  0
  141.6440   79.7170  223.2960 C   0  0  0  0  0  0  0  0  0  0  0  0
  141.8350   78.6710  222.4160 C   0  0  0  0  0  0  0  0  0  0  0  0
  140.7380   77.9070  222.0970 C   0  0  0  0  0  0  0  0  0  0  0  0
  140.8390   76.7450  221.1480 C   0  0  0  0  0  0  0  0  0  0  0  0
  140.2190   73.3890  222.6100 N   0  0  0  0  0  0  0  0  0  0  0  0
  140.7040   72.1390  222.5960 C   0  0  0  0  0  0  0  0  0  0  0  0
  140.2760   71.1830  223.5570 N   0  0  0  0  0  0  0  0  0  0  0  0
  139.5290   70.0160  223.1330 C   0  0  0  0  0  0  0  0  0  0  0  0
  138.4690   69.7880  224.2210 C   0  0  0  0  0  0  0  0  0  0  0  0
  139.2630   69.3690  225.4110 C   0  0  0  0  0  0  0  0  0  0  0  0
  138.9230   68.2220  226.0970 C   0  0  0  0  0  0  0  0  0  0  0  0
  139.6870   67.8700  227.1950 C   0  0  0  0  0  0  0  0  0  0  0  0
  140.7480   68.6740  227.5590 C   0  0  0  0  0  0  0  0  0  0  0  0
  141.0810   69.8230  226.8650 C   0  0  0  0  0  0  0  0  0  0  0  0
  140.3220   70.1790  225.7660 C   0  0  0  0  0  0  0  0  0  0  0  0
  140.5980   71.3940  224.9540 C   0  0  0  0  0  0  0  0  0  0  0  0
  141.6010   71.8170  221.6540 N   0  0  0  0  0  0  0  0  0  0  0  0
  145.2320   72.3300  218.6850 C   0  0  1  0  0  0  0  0  0  0  0  0
  145.0010   70.9150  218.2590 C   0  0  0  0  0  0  0  0  0  0  0  0
  145.9300   70.6270  217.0990 C   0  0  0  0  0  0  0  0  0  0  0  0
  145.6810   71.6880  216.0300 C   0  0  0  0  0  0  0  0  0  0  0  0
  146.0480   73.0110  216.5270 N   0  0  0  0  0  0  0  0  0  0  0  0
  145.0710   73.3240  217.5680 C   0  0  0  0  0  0  0  0  0  0  0  0
  142.6290   71.8250  218.8860 H   0  0  0  0  0  0  0  0  0  0  0  0
  138.0619   75.1745  221.8635 H   0  0  0  0  0  0  0  0  0  0  0  0
  138.8850   75.6006  223.4200 H   0  0  0  0  0  0  0  0  0  0  0  0
  138.0202   77.4777  221.1828 H   0  0  0  0  0  0  0  0  0  0  0  0
  137.4445   77.4561  222.8629 H   0  0  0  0  0  0  0  0  0  0  0  0
  138.3135   79.4189  223.9261 H   0  0  0  0  0  0  0  0  0  0  0  0
  140.2829   80.8153  224.5233 H   0  0  0  0  0  0  0  0  0  0  0  0
  142.4969   80.3521  223.5775 H   0  0  0  0  0  0  0  0  0  0  0  0
  142.8253   78.4575  221.9873 H   0  0  0  0  0  0  0  0  0  0  0  0
  140.4128   77.0183  220.1714 H   0  0  0  0  0  0  0  0  0  0  0  0
  141.8897   76.4585  220.9931 H   0  0  0  0  0  0  0  0  0  0  0  0
  139.0483   70.1998  222.1608 H   0  0  0  0  0  0  0  0  0  0  0  0
  140.1803   69.1384  223.0083 H   0  0  0  0  0  0  0  0  0  0  0  0
  137.9139   70.7150  224.4272 H   0  0  0  0  0  0  0  0  0  0  0  0
  137.7148   69.0422  223.9296 H   0  0  0  0  0  0  0  0  0  0  0  0
  138.0692   67.6051  225.7802 H   0  0  0  0  0  0  0  0  0  0  0  0
  139.4522   66.9621  227.7700 H   0  0  0  0  0  0  0  0  0  0  0  0
  141.3514   68.3903  228.4339 H   0  0  0  0  0  0  0  0  0  0  0  0
  141.9336   70.4418  227.1816 H   0  0  0  0  0  0  0  0  0  0  0  0
  139.9911   72.2268  225.3390 H   0  0  0  0  0  0  0  0  0  0  0  0
  141.6710   71.6238  225.0301 H   0  0  0  0  0  0  0  0  0  0  0  0
  146.2791   72.3338  219.0219 H   0  0  0  0  0  0  0  0  0  0  0  0
  145.2200   70.2320  219.0930 H   0  0  0  0  0  0  0  0  0  0  0  0
  143.9528   70.7688  217.9591 H   0  0  0  0  0  0  0  0  0  0  0  0
  146.9760   70.6734  217.4363 H   0  0  0  0  0  0  0  0  0  0  0  0
  145.7412   69.6215  216.6949 H   0  0  0  0  0  0  0  0  0  0  0  0
  146.2854   71.4549  215.1410 H   0  0  0  0  0  0  0  0  0  0  0  0
  144.6116   71.6890  215.7722 H   0  0  0  0  0  0  0  0  0  0  0  0
  146.9740   72.9340  217.0160 H   0  0  0  0  0  0  0  0  0  0  0  0
  145.2461   74.3413  217.9480 H   0  0  0  0  0  0  0  0  0  0  0  0
  144.0517   73.2698  217.1580 H   0  0  0  0  0  0  0  0  0  0  0  0
  1  2  2  0
  2  3  1  0
  3  4  1  0
  4  5  2  0
  5  6  1  0
  6  7  1  0
  7  8  1  0
  8  9  1  0
  9 10  1  0
 10 11  2  0
 11 12  1  0
 12 13  2  0
 13 14  1  0
 14 15  2  0
 15 16  1  0
  6 17  2  0
 17 18  1  0
 18 19  1  0
 19 20  1  0
 20 21  1  0
 21 22  1  0
 22 23  2  0
 23 24  1  0
 24 25  2  0
 25 26  1  0
 26 27  2  0
 27 28  1  0
 18 29  2  0
  2 30  1  0
 30 31  1  0
 31 32  1  0
 32 33  1  0
 33 34  1  0
 34 35  1  0
 29  4  1  0
 35 30  1  0
 16  7  1  0
 28 19  1  0
 15 10  1  0
 27 22  1  0
  3 36  1  0
  8 37  1  0
  8 38  1  0
  9 39  1  0
  9 40  1  0
 11 41  1  0
 12 42  1  0
 13 43  1  0
 14 44  1  0
 16 45  1  0
 16 46  1  0
 20 47  1  0
 20 48  1  0
 21 49  1  0
 21 50  1  0
 23 51  1  0
 24 52  1  0
 25 53  1  0
 26 54  1  0
 28 55  1  0
 28 56  1  0
 30 57  1  1
 31 58  1  0
 31 59  1  0
 32 60  1  0
 32 61  1  0
 33 62  1  0
 33 63  1  0
 34 64  1  0
 35 65  1  0
 35 66  1  0
M  END
>  <smiles>  (61) 
O=C(Nc1nc(N2CCc3ccccc3C2)nc(N2CCc3ccccc3C2)n1)C1CCCNC1

>  <score_type>  (61) 
oracle

>  <origin>  (61) 
autodockgpu

>  <m_score__min__energy>  (61) 
-9.5399999999999991

>  <m_primary>  (61) 
energy

>  <rmsd>  (61) 
7.303250722585835

>  <m_score__min__rmsd>  (61) 
7.303250722585835

>  <meeko>  (61) 
{"free_energy": -9.47, "intermolecular_energy": -10.67, "internal_energy": -0.85, "cluster_size": 24, "cluster_id": 2, "rank_in_cluster": 1}

>  <energy>  (61) 
-9.42

>  <cluster_rmsd>  (61) 
0.75

>  <cluster>  (61) 
1

$$$$

     RDKit          3D

 66 71  0  0  1  0  0  0  0  0999 V2000
  142.6990   75.2970  218.3020 O   0  0  0  0  0  0  0  0  0  0  0  0
  143.2570   74.1640  218.2770 C   0  0  0  0  0  0  0  0  0  0  0  0
  142.9510   73.2150  219.2910 N   0  0  0  0  0  0  0  0  0  0  0  0
  142.0350   73.4750  220.3490 C   0  0  0  0  0  0  0  0  0  0  0  0
  141.5720   74.7350  220.5540 N   0  0  0  0  0  0  0  0  0  0  0  0
  140.7090   75.0130  221.5410 C   0  0  0  0  0  0  0  0  0  0  0  0
  140.2470   76.3460  221.7240 N   0  0  0  0  0  0  0  0  0  0  0  0
  139.1440   76.5390  222.6450 C   0  0  0  0  0  0  0  0  0  0  0  0
  138.6920   77.9830  222.6760 C   0  0  0  0  0  0  0  0  0  0  0  0
  139.9300   78.8190  222.8030 C   0  0  0  0  0  0  0  0  0  0  0  0
  140.0050   79.8490  223.7310 C   0  0  0  0  0  0  0  0  0  0  0  0
  141.1750   80.5900  223.8050 C   0  0  0  0  0  0  0  0  0  0  0  0
  142.2440   80.3260  222.9880 C   0  0  0  0  0  0  0  0  0  0  0  0
  142.1890   79.3080  222.0580 C   0  0  0  0  0  0  0  0  0  0  0  0
  141.0270   78.5770  221.9900 C   0  0  0  0  0  0  0  0  0  0  0  0
  140.8660   77.4460  221.0120 C   0  0  0  0  0  0  0  0  0  0  0  0
  140.3010   73.9970  222.3430 N   0  0  0  0  0  0  0  0  0  0  0  0
  140.7330   72.7390  222.1760 C   0  0  0  0  0  0  0  0  0  0  0  0
  140.2860   71.6980  223.0340 N   0  0  0  0  0  0  0  0  0  0  0  0
  139.4320   70.6480  222.5150 C   0  0  0  0  0  0  0  0  0  0  0  0
  138.4180   70.3540  223.6280 C   0  0  0  0  0  0  0  0  0  0  0  0
  139.2390   69.7310  224.7050 C   0  0  0  0  0  0  0  0  0  0  0  0
  138.8510   68.5310  225.2620 C   0  0  0  0  0  0  0  0  0  0  0  0
  139.6430   67.9890  226.2580 C   0  0  0  0  0  0  0  0  0  0  0  0
  140.7790   68.6650  226.6530 C   0  0  0  0  0  0  0  0  0  0  0  0
  141.1600   69.8700  226.0890 C   0  0  0  0  0  0  0  0  0  0  0  0
  140.3730   70.4150  225.0930 C   0  0  0  0  0  0  0  0  0  0  0  0
  140.6960   71.7040  224.4240 C   0  0  0  0  0  0  0  0  0  0  0  0
  141.5960   72.4910  221.1800 N   0  0  0  0  0  0  0  0  0  0  0  0
  144.2300   73.7610  217.2330 C   0  0  1  0  0  0  0  0  0  0  0  0
  144.5970   74.8850  216.3160 C   0  0  0  0  0  0  0  0  0  0  0  0
  145.6180   74.3580  215.3300 C   0  0  0  0  0  0  0  0  0  0  0  0
  146.7700   73.7550  216.1310 C   0  0  0  0  0  0  0  0  0  0  0  0
  146.3110   72.6000  216.8980 N   0  0  0  0  0  0  0  0  0  0  0  0
  145.4150   73.1400  217.9190 C   0  0  0  0  0  0  0  0  0  0  0  0
  143.4190   72.2600  219.2730 H   0  0  0  0  0  0  0  0  0  0  0  0
  138.3005   75.9073  222.3295 H   0  0  0  0  0  0  0  0  0  0  0  0
  139.4849   76.2629  223.6537 H   0  0  0  0  0  0  0  0  0  0  0  0
  138.1590   78.2335  221.7469 H   0  0  0  0  0  0  0  0  0  0  0  0
  138.0041   78.1645  223.5149 H   0  0  0  0  0  0  0  0  0  0  0  0
  139.1553   80.0724  224.3929 H   0  0  0  0  0  0  0  0  0  0  0  0
  141.2470   81.4086  224.5362 H   0  0  0  0  0  0  0  0  0  0  0  0
  143.1570   80.9333  223.0750 H   0  0  0  0  0  0  0  0  0  0  0  0
  143.0411   79.0902  221.3974 H   0  0  0  0  0  0  0  0  0  0  0  0
  140.2256   77.7605  220.1748 H   0  0  0  0  0  0  0  0  0  0  0  0
  141.8408   77.1447  220.6009 H   0  0  0  0  0  0  0  0  0  0  0  0
  138.9157   70.9875  221.6049 H   0  0  0  0  0  0  0  0  0  0  0  0
  140.0085   69.7518  222.2421 H   0  0  0  0  0  0  0  0  0  0  0  0
  137.9461   71.2821  223.9828 H   0  0  0  0  0  0  0  0  0  0  0  0
  137.5956   69.7052  223.2923 H   0  0  0  0  0  0  0  0  0  0  0  0
  137.9378   68.0193  224.9240 H   0  0  0  0  0  0  0  0  0  0  0  0
  139.3710   67.0326  226.7285 H   0  0  0  0  0  0  0  0  0  0  0  0
  141.4053   68.2300  227.4458 H   0  0  0  0  0  0  0  0  0  0  0  0
  142.0719   70.3839  226.4273 H   0  0  0  0  0  0  0  0  0  0  0  0
  140.1742   72.5189  224.9471 H   0  0  0  0  0  0  0  0  0  0  0  0
  141.7857   71.8491  224.4619 H   0  0  0  0  0  0  0  0  0  0  0  0
  143.7700   73.0174  216.5656 H   0  0  0  0  0  0  0  0  0  0  0  0
  143.7041   75.2374  215.7788 H   0  0  0  0  0  0  0  0  0  0  0  0
  145.0116   75.7290  216.8868 H   0  0  0  0  0  0  0  0  0  0  0  0
  145.1603   73.5865  214.6934 H   0  0  0  0  0  0  0  0  0  0  0  0
  145.9824   75.1693  214.6827 H   0  0  0  0  0  0  0  0  0  0  0  0
  147.5644   73.4377  215.4395 H   0  0  0  0  0  0  0  0  0  0  0  0
  147.1544   74.5145  216.8278 H   0  0  0  0  0  0  0  0  0  0  0  0
  145.7100   72.0080  216.2730 H   0  0  0  0  0  0  0  0  0  0  0  0
  145.0774   72.3301  218.5824 H   0  0  0  0  0  0  0  0  0  0  0  0
  145.9410   73.8957  218.5209 H   0  0  0  0  0  0  0  0  0  0  0  0
  1  2  2  0
  2  3  1  0
  3  4  1  0
  4  5  2  0
  5  6  1  0
  6  7  1  0
  7  8  1  0
  8  9  1  0
  9 10  1  0
 10 11  2  0
 11 12  1  0
 12 13  2  0
 13 14  1  0
 14 15  2  0
 15 16  1  0
  6 17  2  0
 17 18  1  0
 18 19  1  0
 19 20  1  0
 20 21  1  0
 21 22  1  0
 22 23  2  0
 23 24  1  0
 24 25  2  0
 25 26  1  0
 26 27  2  0
 27 28  1  0
 18 29  2  0
  2 30  1  0
 30 31  1  0
 31 32  1  0
 32 33  1  0
 33 34  1  0
 34 35  1  0
 29  4  1  0
 35 30  1  0
 16  7  1  0
 28 19  1  0
 15 10  1  0
 27 22  1  0
  3 36  1  0
  8 37  1  0
  8 38  1  0
  9 39  1  0
  9 40  1  0
 11 41  1  0
 12 42  1  0
 13 43  1  0
 14 44  1  0
 16 45  1  0
 16 46  1  0
 20 47  1  0
 20 48  1  0
 21 49  1  0
 21 50  1  0
 23 51  1  0
 24 52  1  0
 25 53  1  0
 26 54  1  0
 28 55  1  0
 28 56  1  0
 30 57  1  6
 31 58  1  0
 31 59  1  0
 32 60  1  0
 32 61  1  0
 33 62  1  0
 33 63  1  0
 34 64  1  0
 35 65  1  0
 35 66  1  0
M  END
>  <smiles>  (62) 
O=C(Nc1nc(N2CCc3ccccc3C2)nc(N2CCc3ccccc3C2)n1)C1CCCNC1

>  <score_type>  (62) 
oracle

>  <origin>  (62) 
autodockgpu

>  <m_score__min__energy>  (62) 
-9.5399999999999991

>  <m_primary>  (62) 
energy

>  <rmsd>  (62) 
6.312409582716085

>  <m_score__min__rmsd>  (62) 
6.312409582716085

>  <meeko>  (62) 
{"free_energy": -9.31, "intermolecular_energy": -10.5, "internal_energy": -0.76, "cluster_size": 24, "cluster_id": 2, "rank_in_cluster": 15}

>  <energy>  (62) 
-9.41

>  <cluster_rmsd>  (62) 
0.16

>  <cluster>  (62) 
1

$$$$

     RDKit          3D

 66 71  0  0  1  0  0  0  0  0999 V2000
  139.4400   75.6470  222.6880 O   0  0  0  0  0  0  0  0  0  0  0  0
  140.3730   76.2530  222.0880 C   0  0  0  0  0  0  0  0  0  0  0  0
  141.4270   75.4990  221.5000 N   0  0  0  0  0  0  0  0  0  0  0  0
  141.4890   74.0780  221.5520 C   0  0  0  0  0  0  0  0  0  0  0  0
  140.7150   73.3940  222.4340 N   0  0  0  0  0  0  0  0  0  0  0  0
  140.7500   72.0560  222.5070 C   0  0  0  0  0  0  0  0  0  0  0  0
  139.9240   71.3760  223.4450 N   0  0  0  0  0  0  0  0  0  0  0  0
  138.8970   70.5060  222.9070 C   0  0  0  0  0  0  0  0  0  0  0  0
  138.0340   69.9200  224.0040 C   0  0  0  0  0  0  0  0  0  0  0  0
  138.9690   69.4130  225.0610 C   0  0  0  0  0  0  0  0  0  0  0  0
  138.8080   68.1480  225.6090 C   0  0  0  0  0  0  0  0  0  0  0  0
  139.7010   67.7290  226.5840 C   0  0  0  0  0  0  0  0  0  0  0  0
  140.7270   68.5340  227.0090 C   0  0  0  0  0  0  0  0  0  0  0  0
  140.9030   69.7950  226.4780 C   0  0  0  0  0  0  0  0  0  0  0  0
  140.0150   70.2030  225.5120 C   0  0  0  0  0  0  0  0  0  0  0  0
  140.1200   71.5580  224.8690 C   0  0  0  0  0  0  0  0  0  0  0  0
  141.5850   71.3890  221.6710 N   0  0  0  0  0  0  0  0  0  0  0  0
  142.3650   72.0240  220.7860 C   0  0  0  0  0  0  0  0  0  0  0  0
  143.2290   71.2950  219.9240 N   0  0  0  0  0  0  0  0  0  0  0  0
  144.3400   71.9640  219.2760 C   0  0  0  0  0  0  0  0  0  0  0  0
  144.4130   71.3670  217.8640 C   0  0  0  0  0  0  0  0  0  0  0  0
  144.8480   69.9600  218.0930 C   0  0  0  0  0  0  0  0  0  0  0  0
  145.9230   69.4480  217.3970 C   0  0  0  0  0  0  0  0  0  0  0  0
  146.2920   68.1370  217.6400 C   0  0  0  0  0  0  0  0  0  0  0  0
  145.5750   67.3990  218.5610 C   0  0  0  0  0  0  0  0  0  0  0  0
  144.4980   67.9210  219.2540 C   0  0  0  0  0  0  0  0  0  0  0  0
  144.1250   69.2310  219.0150 C   0  0  0  0  0  0  0  0  0  0  0  0
  142.9830   69.8830  219.7070 C   0  0  0  0  0  0  0  0  0  0  0  0
  142.3090   73.3630  220.7350 N   0  0  0  0  0  0  0  0  0  0  0  0
  140.4330   77.7290  221.9600 C   0  0  1  0  0  0  0  0  0  0  0  0
  141.0370   78.3930  223.1570 C   0  0  0  0  0  0  0  0  0  0  0  0
  141.0760   79.8820  222.8850 C   0  0  0  0  0  0  0  0  0  0  0  0
  141.8170   80.0950  221.5670 C   0  0  0  0  0  0  0  0  0  0  0  0
  141.0730   79.4980  220.4600 N   0  0  0  0  0  0  0  0  0  0  0  0
  141.1430   78.0540  220.6750 C   0  0  0  0  0  0  0  0  0  0  0  0
  142.2130   76.0050  220.9950 H   0  0  0  0  0  0  0  0  0  0  0  0
  138.2601   71.0858  222.2228 H   0  0  0  0  0  0  0  0  0  0  0  0
  139.3900   69.6778  222.3769 H   0  0  0  0  0  0  0  0  0  0  0  0
  137.3734   70.6942  224.4214 H   0  0  0  0  0  0  0  0  0  0  0  0
  137.3967   69.1111  223.6174 H   0  0  0  0  0  0  0  0  0  0  0  0
  137.9898   67.4919  225.2772 H   0  0  0  0  0  0  0  0  0  0  0  0
  139.5838   66.7287  227.0263 H   0  0  0  0  0  0  0  0  0  0  0  0
  141.4183   68.1695  227.7831 H   0  0  0  0  0  0  0  0  0  0  0  0
  141.7217   70.4480  226.8145 H   0  0  0  0  0  0  0  0  0  0  0  0
  139.3461   72.2272  225.2729 H   0  0  0  0  0  0  0  0  0  0  0  0
  141.1020   72.0102  225.0721 H   0  0  0  0  0  0  0  0  0  0  0  0
  144.1594   73.0479  219.2259 H   0  0  0  0  0  0  0  0  0  0  0  0
  145.2804   71.8203  219.8283 H   0  0  0  0  0  0  0  0  0  0  0  0
  143.4284   71.3977  217.3745 H   0  0  0  0  0  0  0  0  0  0  0  0
  145.0966   71.9207  217.2036 H   0  0  0  0  0  0  0  0  0  0  0  0
  146.4713   70.0644  216.6695 H   0  0  0  0  0  0  0  0  0  0  0  0
  147.1439   67.6891  217.1075 H   0  0  0  0  0  0  0  0  0  0  0  0
  145.8716   66.3568  218.7506 H   0  0  0  0  0  0  0  0  0  0  0  0
  143.9484   67.3057  219.9816 H   0  0  0  0  0  0  0  0  0  0  0  0
  142.0791   69.7683  219.0908 H   0  0  0  0  0  0  0  0  0  0  0  0
  142.8527   69.4009  220.6871 H   0  0  0  0  0  0  0  0  0  0  0  0
  139.4129   78.1387  221.9212 H   0  0  0  0  0  0  0  0  0  0  0  0
  140.4237   78.1905  224.0474 H   0  0  0  0  0  0  0  0  0  0  0  0
  142.0507   78.0078  223.3414 H   0  0  0  0  0  0  0  0  0  0  0  0
  140.0517   80.2753  222.8065 H   0  0  0  0  0  0  0  0  0  0  0  0
  141.5875   80.4095  223.7036 H   0  0  0  0  0  0  0  0  0  0  0  0
  141.9314   81.1740  221.3862 H   0  0  0  0  0  0  0  0  0  0  0  0
  142.8046   79.6149  221.6322 H   0  0  0  0  0  0  0  0  0  0  0  0
  140.0610   79.7560  220.5670 H   0  0  0  0  0  0  0  0  0  0  0  0
  140.6562   77.5302  219.8391 H   0  0  0  0  0  0  0  0  0  0  0  0
  142.1931   77.7315  220.7321 H   0  0  0  0  0  0  0  0  0  0  0  0
  1  2  2  0
  2  3  1  0
  3  4  1  0
  4  5  2  0
  5  6  1  0
  6  7  1  0
  7  8  1  0
  8  9  1  0
  9 10  1  0
 10 11  2  0
 11 12  1  0
 12 13  2  0
 13 14  1  0
 14 15  2  0
 15 16  1  0
  6 17  2  0
 17 18  1  0
 18 19  1  0
 19 20  1  0
 20 21  1  0
 21 22  1  0
 22 23  2  0
 23 24  1  0
 24 25  2  0
 25 26  1  0
 26 27  2  0
 27 28  1  0
 18 29  2  0
  2 30  1  0
 30 31  1  0
 31 32  1  0
 32 33  1  0
 33 34  1  0
 34 35  1  0
 29  4  1  0
 35 30  1  0
 16  7  1  0
 28 19  1  0
 15 10  1  0
 27 22  1  0
  3 36  1  0
  8 37  1  0
  8 38  1  0
  9 39  1  0
  9 40  1  0
 11 41  1  0
 12 42  1  0
 13 43  1  0
 14 44  1  0
 16 45  1  0
 16 46  1  0
 20 47  1  0
 20 48  1  0
 21 49  1  0
 21 50  1  0
 23 51  1  0
 24 52  1  0
 25 53  1  0
 26 54  1  0
 28 55  1  0
 28 56  1  0
 30 57  1  6
 31 58  1  0
 31 59  1  0
 32 60  1  0
 32 61  1  0
 33 62  1  0
 33 63  1  0
 34 64  1  0
 35 65  1  0
 35 66  1  0
M  END
>  <smiles>  (63) 
O=C(Nc1nc(N2CCc3ccccc3C2)nc(N2CCc3ccccc3C2)n1)C1CCCNC1

>  <score_type>  (63) 
oracle

>  <origin>  (63) 
autodockgpu

>  <m_score__min__energy>  (63) 
-9.5399999999999991

>  <m_primary>  (63) 
energy

>  <rmsd>  (63) 
5.126878796294775

>  <m_score__min__rmsd>  (63) 
5.126878796294775

>  <meeko>  (63) 
{"free_energy": -9.54, "intermolecular_energy": -10.74, "internal_energy": -0.74, "cluster_size": 23, "cluster_id": 1, "rank_in_cluster": 1}

>  <energy>  (63) 
-9.4

>  <cluster_rmsd>  (63) 
0.75

>  <cluster>  (63) 
1

$$$$

     RDKit          3D

 66 71  0  0  1  0  0  0  0  0999 V2000
  144.7980   73.2010  220.9450 O   0  0  0  0  0  0  0  0  0  0  0  0
  144.3670   72.6720  219.8810 C   0  0  0  0  0  0  0  0  0  0  0  0
  142.9710   72.4360  219.7390 N   0  0  0  0  0  0  0  0  0  0  0  0
  142.0190   72.7670  220.7430 C   0  0  0  0  0  0  0  0  0  0  0  0
  141.4990   74.0200  220.8020 N   0  0  0  0  0  0  0  0  0  0  0  0
  140.6010   74.3640  221.7350 C   0  0  0  0  0  0  0  0  0  0  0  0
  140.0790   75.6870  221.7640 N   0  0  0  0  0  0  0  0  0  0  0  0
  138.7920   75.8730  222.4050 C   0  0  0  0  0  0  0  0  0  0  0  0
  138.3120   77.3030  222.2840 C   0  0  0  0  0  0  0  0  0  0  0  0
  139.4700   78.1790  222.6580 C   0  0  0  0  0  0  0  0  0  0  0  0
  139.3100   79.2360  223.5430 C   0  0  0  0  0  0  0  0  0  0  0  0
  140.4150   80.0140  223.8540 C   0  0  0  0  0  0  0  0  0  0  0  0
  141.6470   79.7590  223.3090 C   0  0  0  0  0  0  0  0  0  0  0  0
  141.8270   78.7140  222.4260 C   0  0  0  0  0  0  0  0  0  0  0  0
  140.7280   77.9470  222.1230 C   0  0  0  0  0  0  0  0  0  0  0  0
  140.8180   76.7850  221.1730 C   0  0  0  0  0  0  0  0  0  0  0  0
  140.2160   73.4230  222.6340 N   0  0  0  0  0  0  0  0  0  0  0  0
  140.7050   72.1750  222.6130 C   0  0  0  0  0  0  0  0  0  0  0  0
  140.2810   71.2120  223.5690 N   0  0  0  0  0  0  0  0  0  0  0  0
  139.5480   70.0380  223.1390 C   0  0  0  0  0  0  0  0  0  0  0  0
  138.4840   69.7980  224.2190 C   0  0  0  0  0  0  0  0  0  0  0  0
  139.2740   69.3840  225.4140 C   0  0  0  0  0  0  0  0  0  0  0  0
  138.9420   68.2330  226.0960 C   0  0  0  0  0  0  0  0  0  0  0  0
  139.7020   67.8870  227.1980 C   0  0  0  0  0  0  0  0  0  0  0  0
  140.7530   68.7010  227.5700 C   0  0  0  0  0  0  0  0  0  0  0  0
  141.0780   69.8550  226.8800 C   0  0  0  0  0  0  0  0  0  0  0  0
  140.3220   70.2050  225.7770 C   0  0  0  0  0  0  0  0  0  0  0  0
  140.5910   71.4240  224.9690 C   0  0  0  0  0  0  0  0  0  0  0  0
  141.6010   71.8590  221.6670 N   0  0  0  0  0  0  0  0  0  0  0  0
  145.2470   72.2780  218.7560 C   0  0  1  0  0  0  0  0  0  0  0  0
  145.0100   70.8750  218.2950 C   0  0  0  0  0  0  0  0  0  0  0  0
  145.9370   70.6130  217.1260 C   0  0  0  0  0  0  0  0  0  0  0  0
  145.6890   71.7010  216.0840 C   0  0  0  0  0  0  0  0  0  0  0  0
  146.0620   73.0100  216.6130 N   0  0  0  0  0  0  0  0  0  0  0  0
  145.0880   73.3000  217.6630 C   0  0  0  0  0  0  0  0  0  0  0  0
  142.6050   71.9910  218.8450 H   0  0  0  0  0  0  0  0  0  0  0  0
  138.0565   75.2079  221.9290 H   0  0  0  0  0  0  0  0  0  0  0  0
  138.9018   75.6357  223.4735 H   0  0  0  0  0  0  0  0  0  0  0  0
  137.9973   77.5112  221.2507 H   0  0  0  0  0  0  0  0  0  0  0  0
  137.4483   77.4874  222.9397 H   0  0  0  0  0  0  0  0  0  0  0  0
  138.3276   79.4520  223.9883 H   0  0  0  0  0  0  0  0  0  0  0  0
  140.3005   80.8549  224.5539 H   0  0  0  0  0  0  0  0  0  0  0  0
  142.5026   80.3954  223.5790 H   0  0  0  0  0  0  0  0  0  0  0  0
  142.8112   78.5034  221.9823 H   0  0  0  0  0  0  0  0  0  0  0  0
  140.3766   77.0569  220.2028 H   0  0  0  0  0  0  0  0  0  0  0  0
  141.8671   76.5015  221.0028 H   0  0  0  0  0  0  0  0  0  0  0  0
  139.0718   70.2183  222.1640 H   0  0  0  0  0  0  0  0  0  0  0  0
  140.2089   69.1670  223.0177 H   0  0  0  0  0  0  0  0  0  0  0  0
  137.9188   70.7193  224.4233 H   0  0  0  0  0  0  0  0  0  0  0  0
  137.7390   69.0455  223.9211 H   0  0  0  0  0  0  0  0  0  0  0  0
  138.0967   67.6077  225.7728 H   0  0  0  0  0  0  0  0  0  0  0  0
  139.4724   66.9760  227.7702 H   0  0  0  0  0  0  0  0  0  0  0  0
  141.3544   68.4216  228.4477 H   0  0  0  0  0  0  0  0  0  0  0  0
  141.9220   70.4822  227.2029 H   0  0  0  0  0  0  0  0  0  0  0  0
  139.9728   72.2497  225.3510 H   0  0  0  0  0  0  0  0  0  0  0  0
  141.6610   71.6648  225.0531 H   0  0  0  0  0  0  0  0  0  0  0  0
  146.2944   72.2694  219.0920 H   0  0  0  0  0  0  0  0  0  0  0  0
  145.2276   70.1704  219.1112 H   0  0  0  0  0  0  0  0  0  0  0  0
  143.9608   70.7401  217.9932 H   0  0  0  0  0  0  0  0  0  0  0  0
  146.9836   70.6482  217.4626 H   0  0  0  0  0  0  0  0  0  0  0  0
  145.7450   69.6182  216.6975 H   0  0  0  0  0  0  0  0  0  0  0  0
  146.2903   71.4879  215.1879 H   0  0  0  0  0  0  0  0  0  0  0  0
  144.6191   71.7120  215.8287 H   0  0  0  0  0  0  0  0  0  0  0  0
  146.9890   72.9180  217.0980 H   0  0  0  0  0  0  0  0  0  0  0  0
  145.2671   74.3071  218.0676 H   0  0  0  0  0  0  0  0  0  0  0  0
  144.0680   73.2586  217.2533 H   0  0  0  0  0  0  0  0  0  0  0  0
  1  2  2  0
  2  3  1  0
  3  4  1  0
  4  5  2  0
  5  6  1  0
  6  7  1  0
  7  8  1  0
  8  9  1  0
  9 10  1  0
 10 11  2  0
 11 12  1  0
 12 13  2  0
 13 14  1  0
 14 15  2  0
 15 16  1  0
  6 17  2  0
 17 18  1  0
 18 19  1  0
 19 20  1  0
 20 21  1  0
 21 22  1  0
 22 23  2  0
 23 24  1  0
 24 25  2  0
 25 26  1  0
 26 27  2  0
 27 28  1  0
 18 29  2  0
  2 30  1  0
 30 31  1  0
 31 32  1  0
 32 33  1  0
 33 34  1  0
 34 35  1  0
 29  4  1  0
 35 30  1  0
 16  7  1  0
 28 19  1  0
 15 10  1  0
 27 22  1  0
  3 36  1  0
  8 37  1  0
  8 38  1  0
  9 39  1  0
  9 40  1  0
 11 41  1  0
 12 42  1  0
 13 43  1  0
 14 44  1  0
 16 45  1  0
 16 46  1  0
 20 47  1  0
 20 48  1  0
 21 49  1  0
 21 50  1  0
 23 51  1  0
 24 52  1  0
 25 53  1  0
 26 54  1  0
 28 55  1  0
 28 56  1  0
 30 57  1  1
 31 58  1  0
 31 59  1  0
 32 60  1  0
 32 61  1  0
 33 62  1  0
 33 63  1  0
 34 64  1  0
 35 65  1  0
 35 66  1  0
M  END
>  <smiles>  (64) 
O=C(Nc1nc(N2CCc3ccccc3C2)nc(N2CCc3ccccc3C2)n1)C1CCCNC1

>  <score_type>  (64) 
oracle

>  <origin>  (64) 
autodockgpu

>  <m_score__min__energy>  (64) 
-9.5399999999999991

>  <m_primary>  (64) 
energy

>  <rmsd>  (64) 
7.308813280015245

>  <m_score__min__rmsd>  (64) 
7.308813280015245

>  <meeko>  (64) 
{"free_energy": -9.46, "intermolecular_energy": -10.65, "internal_energy": -0.85, "cluster_size": 24, "cluster_id": 2, "rank_in_cluster": 3}

>  <energy>  (64) 
-9.36

>  <cluster_rmsd>  (64) 
0.68

>  <cluster>  (64) 
1

$$$$

     RDKit          3D

 66 71  0  0  1  0  0  0  0  0999 V2000
  139.2460   75.5400  222.5680 O   0  0  0  0  0  0  0  0  0  0  0  0
  140.2320   76.1990  222.1330 C   0  0  0  0  0  0  0  0  0  0  0  0
  141.3680   75.5030  221.6320 N   0  0  0  0  0  0  0  0  0  0  0  0
  141.4540   74.0830  221.5920 C   0  0  0  0  0  0  0  0  0  0  0  0
  140.7170   73.3320  222.4500 N   0  0  0  0  0  0  0  0  0  0  0  0
  140.7760   71.9920  222.4370 C   0  0  0  0  0  0  0  0  0  0  0  0
  139.9890   71.2400  223.3530 N   0  0  0  0  0  0  0  0  0  0  0  0
  139.1430   70.2030  222.7950 C   0  0  0  0  0  0  0  0  0  0  0  0
  138.2940   69.5450  223.8610 C   0  0  0  0  0  0  0  0  0  0  0  0
  139.2080   69.2320  225.0080 C   0  0  0  0  0  0  0  0  0  0  0  0
  139.1920   67.9840  225.6140 C   0  0  0  0  0  0  0  0  0  0  0  0
  140.0590   67.7480  226.6710 C   0  0  0  0  0  0  0  0  0  0  0  0
  140.9210   68.7160  227.1200 C   0  0  0  0  0  0  0  0  0  0  0  0
  140.9520   69.9640  226.5310 C   0  0  0  0  0  0  0  0  0  0  0  0
  140.0900   70.1890  225.4840 C   0  0  0  0  0  0  0  0  0  0  0  0
  140.0460   71.5140  224.7750 C   0  0  0  0  0  0  0  0  0  0  0  0
  141.5970   71.3940  221.5380 N   0  0  0  0  0  0  0  0  0  0  0  0
  142.3420   72.0980  220.6740 C   0  0  0  0  0  0  0  0  0  0  0  0
  143.1930   71.4390  219.7450 N   0  0  0  0  0  0  0  0  0  0  0  0
  144.0810   72.2140  218.9010 C   0  0  0  0  0  0  0  0  0  0  0  0
  144.0640   71.5160  217.5340 C   0  0  0  0  0  0  0  0  0  0  0  0
  144.7520   70.2180  217.7870 C   0  0  0  0  0  0  0  0  0  0  0  0
  145.7950   69.8210  216.9760 C   0  0  0  0  0  0  0  0  0  0  0  0
  146.4050   68.6090  217.2470 C   0  0  0  0  0  0  0  0  0  0  0  0
  145.9490   67.8520  218.3070 C   0  0  0  0  0  0  0  0  0  0  0  0
  144.9020   68.2580  219.1140 C   0  0  0  0  0  0  0  0  0  0  0  0
  144.2890   69.4680  218.8480 C   0  0  0  0  0  0  0  0  0  0  0  0
  143.1560   69.9930  219.6560 C   0  0  0  0  0  0  0  0  0  0  0  0
  142.2630   73.4350  220.7090 N   0  0  0  0  0  0  0  0  0  0  0  0
  140.2750   77.6810  222.1170 C   0  0  1  0  0  0  0  0  0  0  0  0
  138.9860   78.3040  222.5490 C   0  0  0  0  0  0  0  0  0  0  0  0
  139.1720   79.8070  222.5260 C   0  0  0  0  0  0  0  0  0  0  0  0
  140.3880   80.1380  223.3890 C   0  0  0  0  0  0  0  0  0  0  0  0
  141.5990   79.5680  222.8050 N   0  0  0  0  0  0  0  0  0  0  0  0
  141.4550   78.1200  222.9390 C   0  0  0  0  0  0  0  0  0  0  0  0
  142.1990   76.0550  221.2660 H   0  0  0  0  0  0  0  0  0  0  0  0
  138.4823   70.6501  222.0376 H   0  0  0  0  0  0  0  0  0  0  0  0
  139.7899   69.4346  222.3466 H   0  0  0  0  0  0  0  0  0  0  0  0
  137.4972   70.2297  224.1872 H   0  0  0  0  0  0  0  0  0  0  0  0
  137.8143   68.6326  223.4772 H   0  0  0  0  0  0  0  0  0  0  0  0
  138.5064   67.1983  225.2638 H   0  0  0  0  0  0  0  0  0  0  0  0
  140.0551   66.7627  227.1600 H   0  0  0  0  0  0  0  0  0  0  0  0
  141.5960   68.4949  227.9599 H   0  0  0  0  0  0  0  0  0  0  0  0
  141.6387   70.7469  226.8851 H   0  0  0  0  0  0  0  0  0  0  0  0
  139.1541   72.0778  225.0858 H   0  0  0  0  0  0  0  0  0  0  0  0
  140.9329   72.1167  225.0203 H   0  0  0  0  0  0  0  0  0  0  0  0
  143.7177   73.2482  218.8087 H   0  0  0  0  0  0  0  0  0  0  0  0
  145.0972   72.2664  219.3189 H   0  0  0  0  0  0  0  0  0  0  0  0
  143.0318   71.3517  217.1910 H   0  0  0  0  0  0  0  0  0  0  0  0
  144.5532   72.1098  216.7478 H   0  0  0  0  0  0  0  0  0  0  0  0
  146.1318   70.4496  216.1385 H   0  0  0  0  0  0  0  0  0  0  0  0
  147.2412   68.2540  216.6266 H   0  0  0  0  0  0  0  0  0  0  0  0
  146.4370   66.8890  218.5180 H   0  0  0  0  0  0  0  0  0  0  0  0
  144.5635   67.6302  219.9514 H   0  0  0  0  0  0  0  0  0  0  0  0
  142.2097   69.6878  219.1855 H   0  0  0  0  0  0  0  0  0  0  0  0
  143.2376   69.5822  220.6731 H   0  0  0  0  0  0  0  0  0  0  0  0
  140.4046   78.0361  221.0840 H   0  0  0  0  0  0  0  0  0  0  0  0
  138.1801   78.0154  221.8582 H   0  0  0  0  0  0  0  0  0  0  0  0
  138.7128   77.9645  223.5590 H   0  0  0  0  0  0  0  0  0  0  0  0
  139.3412   80.1478  221.4939 H   0  0  0  0  0  0  0  0  0  0  0  0
  138.2752   80.3120  222.9142 H   0  0  0  0  0  0  0  0  0  0  0  0
  140.4979   81.2304  223.4562 H   0  0  0  0  0  0  0  0  0  0  0  0
  140.2404   79.7098  224.3914 H   0  0  0  0  0  0  0  0  0  0  0  0
  141.5910   79.7640  221.7730 H   0  0  0  0  0  0  0  0  0  0  0  0
  142.3660   77.6212  222.5767 H   0  0  0  0  0  0  0  0  0  0  0  0
  141.3002   77.8522  223.9946 H   0  0  0  0  0  0  0  0  0  0  0  0
  1  2  2  0
  2  3  1  0
  3  4  1  0
  4  5  2  0
  5  6  1  0
  6  7  1  0
  7  8  1  0
  8  9  1  0
  9 10  1  0
 10 11  2  0
 11 12  1  0
 12 13  2  0
 13 14  1  0
 14 15  2  0
 15 16  1  0
  6 17  2  0
 17 18  1  0
 18 19  1  0
 19 20  1  0
 20 21  1  0
 21 22  1  0
 22 23  2  0
 23 24  1  0
 24 25  2  0
 25 26  1  0
 26 27  2  0
 27 28  1  0
 18 29  2  0
  2 30  1  0
 30 31  1  0
 31 32  1  0
 32 33  1  0
 33 34  1  0
 34 35  1  0
 29  4  1  0
 35 30  1  0
 16  7  1  0
 28 19  1  0
 15 10  1  0
 27 22  1  0
  3 36  1  0
  8 37  1  0
  8 38  1  0
  9 39  1  0
  9 40  1  0
 11 41  1  0
 12 42  1  0
 13 43  1  0
 14 44  1  0
 16 45  1  0
 16 46  1  0
 20 47  1  0
 20 48  1  0
 21 49  1  0
 21 50  1  0
 23 51  1  0
 24 52  1  0
 25 53  1  0
 26 54  1  0
 28 55  1  0
 28 56  1  0
 30 57  1  6
 31 58  1  0
 31 59  1  0
 32 60  1  0
 32 61  1  0
 33 62  1  0
 33 63  1  0
 34 64  1  0
 35 65  1  0
 35 66  1  0
M  END
>  <smiles>  (65) 
O=C(Nc1nc(N2CCc3ccccc3C2)nc(N2CCc3ccccc3C2)n1)C1CCCNC1

>  <score_type>  (65) 
oracle

>  <origin>  (65) 
autodockgpu

>  <m_score__min__energy>  (65) 
-9.5399999999999991

>  <m_primary>  (65) 
energy

>  <rmsd>  (65) 
5.207787156758545

>  <m_score__min__rmsd>  (65) 
5.207787156758545

>  <meeko>  (65) 
{"free_energy": -9.42, "intermolecular_energy": -10.62, "internal_energy": -0.77, "cluster_size": 23, "cluster_id": 1, "rank_in_cluster": 11}

>  <energy>  (65) 
-9.36

>  <cluster_rmsd>  (65) 
0.17

>  <cluster>  (65) 
1

$$$$

     RDKit          3D

 66 71  0  0  1  0  0  0  0  0999 V2000
  139.2590   75.5750  222.6320 O   0  0  0  0  0  0  0  0  0  0  0  0
  140.2160   76.2820  222.2050 C   0  0  0  0  0  0  0  0  0  0  0  0
  141.3700   75.6420  221.6730 N   0  0  0  0  0  0  0  0  0  0  0  0
  141.5080   74.2280  221.5940 C   0  0  0  0  0  0  0  0  0  0  0  0
  140.7560   73.4240  222.3890 N   0  0  0  0  0  0  0  0  0  0  0  0
  140.8620   72.0890  222.3380 C   0  0  0  0  0  0  0  0  0  0  0  0
  140.0560   71.2810  223.1880 N   0  0  0  0  0  0  0  0  0  0  0  0
  139.3020   70.2140  222.5590 C   0  0  0  0  0  0  0  0  0  0  0  0
  138.4200   69.4950  223.5570 C   0  0  0  0  0  0  0  0  0  0  0  0
  139.2730   69.2060  224.7560 C   0  0  0  0  0  0  0  0  0  0  0  0
  139.2800   67.9460  225.3400 C   0  0  0  0  0  0  0  0  0  0  0  0
  140.0880   67.7330  226.4470 C   0  0  0  0  0  0  0  0  0  0  0  0
  140.8690   68.7340  226.9670 C   0  0  0  0  0  0  0  0  0  0  0  0
  140.8750   69.9920  226.4010 C   0  0  0  0  0  0  0  0  0  0  0  0
  140.0720   70.1960  225.3040 C   0  0  0  0  0  0  0  0  0  0  0  0
  140.0080   71.5310  224.6150 C   0  0  0  0  0  0  0  0  0  0  0  0
  141.7490   71.5480  221.4650 N   0  0  0  0  0  0  0  0  0  0  0  0
  142.5110   72.3040  220.6630 C   0  0  0  0  0  0  0  0  0  0  0  0
  143.4310   71.7050  219.7590 N   0  0  0  0  0  0  0  0  0  0  0  0
  143.3030   70.3020  219.4200 C   0  0  0  0  0  0  0  0  0  0  0  0
  144.7390   69.7660  219.3380 C   0  0  0  0  0  0  0  0  0  0  0  0
  145.3030   70.4380  218.1330 C   0  0  0  0  0  0  0  0  0  0  0  0
  145.9200   69.6910  217.1520 C   0  0  0  0  0  0  0  0  0  0  0  0
  146.4300   70.3560  216.0510 C   0  0  0  0  0  0  0  0  0  0  0  0
  146.3020   71.7280  215.9790 C   0  0  0  0  0  0  0  0  0  0  0  0
  145.6830   72.4700  216.9690 C   0  0  0  0  0  0  0  0  0  0  0  0
  145.1710   71.8100  218.0710 C   0  0  0  0  0  0  0  0  0  0  0  0
  144.4880   72.5150  219.1870 C   0  0  0  0  0  0  0  0  0  0  0  0
  142.3830   73.6370  220.7350 N   0  0  0  0  0  0  0  0  0  0  0  0
  140.2030   77.7640  222.2280 C   0  0  1  0  0  0  0  0  0  0  0  0
  138.9280   78.3270  222.7720 C   0  0  0  0  0  0  0  0  0  0  0  0
  139.0580   79.8350  222.7780 C   0  0  0  0  0  0  0  0  0  0  0  0
  140.3220   80.1900  223.5580 C   0  0  0  0  0  0  0  0  0  0  0  0
  141.5060   79.6820  222.8700 N   0  0  0  0  0  0  0  0  0  0  0  0
  141.4250   78.2260  222.9730 C   0  0  0  0  0  0  0  0  0  0  0  0
  142.1770   76.2340  221.3130 H   0  0  0  0  0  0  0  0  0  0  0  0
  138.6701   70.6418  221.7667 H   0  0  0  0  0  0  0  0  0  0  0  0
  140.0147   69.4873  222.1419 H   0  0  0  0  0  0  0  0  0  0  0  0
  137.5705   70.1334  223.8411 H   0  0  0  0  0  0  0  0  0  0  0  0
  138.0123   68.5675  223.1286 H   0  0  0  0  0  0  0  0  0  0  0  0
  138.6583   67.1347  224.9335 H   0  0  0  0  0  0  0  0  0  0  0  0
  140.1030   66.7393  226.9186 H   0  0  0  0  0  0  0  0  0  0  0  0
  141.4982   68.5309  227.8461 H   0  0  0  0  0  0  0  0  0  0  0  0
  141.4980   70.8003  226.8114 H   0  0  0  0  0  0  0  0  0  0  0  0
  139.0712   72.0450  224.8760 H   0  0  0  0  0  0  0  0  0  0  0  0
  140.8461   72.1715  224.9271 H   0  0  0  0  0  0  0  0  0  0  0  0
  142.7377   69.7687  220.1984 H   0  0  0  0  0  0  0  0  0  0  0  0
  142.7599   70.1591  218.4741 H   0  0  0  0  0  0  0  0  0  0  0  0
  145.3094   70.0349  220.2393 H   0  0  0  0  0  0  0  0  0  0  0  0
  144.7795   68.6688  219.2704 H   0  0  0  0  0  0  0  0  0  0  0  0
  146.0044   68.5979  217.2420 H   0  0  0  0  0  0  0  0  0  0  0  0
  146.9301   69.7991  215.2449 H   0  0  0  0  0  0  0  0  0  0  0  0
  146.7077   72.2518  215.1009 H   0  0  0  0  0  0  0  0  0  0  0  0
  145.5997   73.5633  216.8813 H   0  0  0  0  0  0  0  0  0  0  0  0
  145.2260   72.7444  219.9698 H   0  0  0  0  0  0  0  0  0  0  0  0
  144.0394   73.4373  218.7895 H   0  0  0  0  0  0  0  0  0  0  0  0
  140.2407   78.1501  221.1987 H   0  0  0  0  0  0  0  0  0  0  0  0
  138.0833   78.0261  222.1348 H   0  0  0  0  0  0  0  0  0  0  0  0
  138.7436   77.9516  223.7894 H   0  0  0  0  0  0  0  0  0  0  0  0
  139.1375   80.2081  221.7463 H   0  0  0  0  0  0  0  0  0  0  0  0
  138.1752   80.2955  223.2455 H   0  0  0  0  0  0  0  0  0  0  0  0
  140.3968   81.2838  223.6481 H   0  0  0  0  0  0  0  0  0  0  0  0
  140.2655   79.7308  224.5560 H   0  0  0  0  0  0  0  0  0  0  0  0
  141.4140   79.9040  221.8480 H   0  0  0  0  0  0  0  0  0  0  0  0
  142.3237   77.7718  222.5303 H   0  0  0  0  0  0  0  0  0  0  0  0
  141.3597   77.9251  224.0290 H   0  0  0  0  0  0  0  0  0  0  0  0
  1  2  2  0
  2  3  1  0
  3  4  1  0
  4  5  2  0
  5  6  1  0
  6  7  1  0
  7  8  1  0
  8  9  1  0
  9 10  1  0
 10 11  2  0
 11 12  1  0
 12 13  2  0
 13 14  1  0
 14 15  2  0
 15 16  1  0
  6 17  2  0
 17 18  1  0
 18 19  1  0
 19 20  1  0
 20 21  1  0
 21 22  1  0
 22 23  2  0
 23 24  1  0
 24 25  2  0
 25 26  1  0
 26 27  2  0
 27 28  1  0
 18 29  2  0
  2 30  1  0
 30 31  1  0
 31 32  1  0
 32 33  1  0
 33 34  1  0
 34 35  1  0
 29  4  1  0
 35 30  1  0
 16  7  1  0
 28 19  1  0
 15 10  1  0
 27 22  1  0
  3 36  1  0
  8 37  1  0
  8 38  1  0
  9 39  1  0
  9 40  1  0
 11 41  1  0
 12 42  1  0
 13 43  1  0
 14 44  1  0
 16 45  1  0
 16 46  1  0
 20 47  1  0
 20 48  1  0
 21 49  1  0
 21 50  1  0
 23 51  1  0
 24 52  1  0
 25 53  1  0
 26 54  1  0
 28 55  1  0
 28 56  1  0
 30 57  1  6
 31 58  1  0
 31 59  1  0
 32 60  1  0
 32 61  1  0
 33 62  1  0
 33 63  1  0
 34 64  1  0
 35 65  1  0
 35 66  1  0
M  END
>  <smiles>  (66) 
O=C(Nc1nc(N2CCc3ccccc3C2)nc(N2CCc3ccccc3C2)n1)C1CCCNC1

>  <score_type>  (66) 
oracle

>  <origin>  (66) 
autodockgpu

>  <m_score__min__energy>  (66) 
-9.5399999999999991

>  <m_primary>  (66) 
energy

>  <rmsd>  (66) 
5.324280001743436

>  <m_score__min__rmsd>  (66) 
5.324280001743436

>  <meeko>  (66) 
{"free_energy": -9.12, "intermolecular_energy": -10.31, "internal_energy": -0.75, "cluster_size": 23, "cluster_id": 1, "rank_in_cluster": 19}

>  <energy>  (66) 
-9.16

>  <cluster_rmsd>  (66) 
1.11

>  <cluster>  (66) 
1

$$$$

     RDKit          3D

 66 71  0  0  1  0  0  0  0  0999 V2000
  144.8540   72.7080  220.8710 O   0  0  0  0  0  0  0  0  0  0  0  0
  144.4300   72.6250  219.6840 C   0  0  0  0  0  0  0  0  0  0  0  0
  143.0480   72.8420  219.4220 N   0  0  0  0  0  0  0  0  0  0  0  0
  142.1030   73.1530  220.4400 C   0  0  0  0  0  0  0  0  0  0  0  0
  141.6330   74.4200  220.5690 N   0  0  0  0  0  0  0  0  0  0  0  0
  140.7430   74.7440  221.5170 C   0  0  0  0  0  0  0  0  0  0  0  0
  140.2740   76.0840  221.6210 N   0  0  0  0  0  0  0  0  0  0  0  0
  139.0390   76.2940  222.3500 C   0  0  0  0  0  0  0  0  0  0  0  0
  138.6060   77.7430  222.3050 C   0  0  0  0  0  0  0  0  0  0  0  0
  139.8180   78.5640  222.6290 C   0  0  0  0  0  0  0  0  0  0  0  0
  139.7550   79.5960  223.5560 C   0  0  0  0  0  0  0  0  0  0  0  0
  140.9060   80.3240  223.8180 C   0  0  0  0  0  0  0  0  0  0  0  0
  142.0900   80.0430  223.1850 C   0  0  0  0  0  0  0  0  0  0  0  0
  142.1740   79.0220  222.2610 C   0  0  0  0  0  0  0  0  0  0  0  0
  141.0290   78.3060  222.0060 C   0  0  0  0  0  0  0  0  0  0  0  0
  141.0150   77.1740  221.0170 C   0  0  0  0  0  0  0  0  0  0  0  0
  140.3140   73.7690  222.3570 N   0  0  0  0  0  0  0  0  0  0  0  0
  140.7530   72.5050  222.2640 C   0  0  0  0  0  0  0  0  0  0  0  0
  140.2830   71.5060  223.1600 N   0  0  0  0  0  0  0  0  0  0  0  0
  139.4310   70.4390  222.6740 C   0  0  0  0  0  0  0  0  0  0  0  0
  138.3950   70.2030  223.7820 C   0  0  0  0  0  0  0  0  0  0  0  0
  139.1930   69.6240  224.9000 C   0  0  0  0  0  0  0  0  0  0  0  0
  138.7870   68.4520  225.5030 C   0  0  0  0  0  0  0  0  0  0  0  0
  139.5580   67.9510  226.5370 C   0  0  0  0  0  0  0  0  0  0  0  0
  140.6920   68.6380  226.9210 C   0  0  0  0  0  0  0  0  0  0  0  0
  141.0910   69.8130  226.3100 C   0  0  0  0  0  0  0  0  0  0  0  0
  140.3250   70.3180  225.2760 C   0  0  0  0  0  0  0  0  0  0  0  0
  140.6690   71.5730  224.5560 C   0  0  0  0  0  0  0  0  0  0  0  0
  141.6430   72.2100  221.3070 N   0  0  0  0  0  0  0  0  0  0  0  0
  145.3050   72.3100  218.5290 C   0  0  1  0  0  0  0  0  0  0  0  0
  145.0390   70.9570  217.9500 C   0  0  0  0  0  0  0  0  0  0  0  0
  145.9620   70.7750  216.7640 C   0  0  0  0  0  0  0  0  0  0  0  0
  145.7420   71.9530  215.8180 C   0  0  0  0  0  0  0  0  0  0  0  0
  146.1410   73.2040  216.4580 N   0  0  0  0  0  0  0  0  0  0  0  0
  145.1710   73.4240  217.5280 C   0  0  0  0  0  0  0  0  0  0  0  0
  142.6880   72.7740  218.4240 H   0  0  0  0  0  0  0  0  0  0  0  0
  138.2501   75.6715  221.9028 H   0  0  0  0  0  0  0  0  0  0  0  0
  139.2084   76.0177  223.4012 H   0  0  0  0  0  0  0  0  0  0  0  0
  138.2333   77.9965  221.3016 H   0  0  0  0  0  0  0  0  0  0  0  0
  137.7937   77.9361  223.0212 H   0  0  0  0  0  0  0  0  0  0  0  0
  138.8122   79.8311  224.0716 H   0  0  0  0  0  0  0  0  0  0  0  0
  140.8686   81.1447  224.5494 H   0  0  0  0  0  0  0  0  0  0  0  0
  142.9844   80.6397  223.4172 H   0  0  0  0  0  0  0  0  0  0  0  0
  143.1195   78.7903  221.7489 H   0  0  0  0  0  0  0  0  0  0  0  0
  140.5234   77.4933  220.0862 H   0  0  0  0  0  0  0  0  0  0  0  0
  142.0397   76.8592  220.7704 H   0  0  0  0  0  0  0  0  0  0  0  0
  138.9333   70.7398  221.7403 H   0  0  0  0  0  0  0  0  0  0  0  0
  140.0055   69.5275  222.4522 H   0  0  0  0  0  0  0  0  0  0  0  0
  137.9244   71.1496  224.0861 H   0  0  0  0  0  0  0  0  0  0  0  0
  137.5732   69.5456  223.4619 H   0  0  0  0  0  0  0  0  0  0  0  0
  137.8768   67.9307  225.1716 H   0  0  0  0  0  0  0  0  0  0  0  0
  139.2714   67.0187  227.0456 H   0  0  0  0  0  0  0  0  0  0  0  0
  141.3013   68.2359  227.7439 H   0  0  0  0  0  0  0  0  0  0  0  0
  142.0007   70.3357  226.6406 H   0  0  0  0  0  0  0  0  0  0  0  0
  140.1439   72.4141  225.0323 H   0  0  0  0  0  0  0  0  0  0  0  0
  141.7588   71.7132  224.6070 H   0  0  0  0  0  0  0  0  0  0  0  0
  146.3512   72.2507  218.8635 H   0  0  0  0  0  0  0  0  0  0  0  0
  145.2394   70.1810  218.7034 H   0  0  0  0  0  0  0  0  0  0  0  0
  143.9879   70.8714  217.6372 H   0  0  0  0  0  0  0  0  0  0  0  0
  147.0083   70.7574  217.1031 H   0  0  0  0  0  0  0  0  0  0  0  0
  145.7480   69.8252  216.2521 H   0  0  0  0  0  0  0  0  0  0  0  0
  146.3425   71.8040  214.9085 H   0  0  0  0  0  0  0  0  0  0  0  0
  144.6737   72.0091  215.5619 H   0  0  0  0  0  0  0  0  0  0  0  0
  147.0650   73.0500  216.9340 H   0  0  0  0  0  0  0  0  0  0  0  0
  145.3706   74.3887  218.0174 H   0  0  0  0  0  0  0  0  0  0  0  0
  144.1514   73.4398  217.1154 H   0  0  0  0  0  0  0  0  0  0  0  0
  1  2  2  0
  2  3  1  0
  3  4  1  0
  4  5  2  0
  5  6  1  0
  6  7  1  0
  7  8  1  0
  8  9  1  0
  9 10  1  0
 10 11  2  0
 11 12  1  0
 12 13  2  0
 13 14  1  0
 14 15  2  0
 15 16  1  0
  6 17  2  0
 17 18  1  0
 18 19  1  0
 19 20  1  0
 20 21  1  0
 21 22  1  0
 22 23  2  0
 23 24  1  0
 24 25  2  0
 25 26  1  0
 26 27  2  0
 27 28  1  0
 18 29  2  0
  2 30  1  0
 30 31  1  0
 31 32  1  0
 32 33  1  0
 33 34  1  0
 34 35  1  0
 29  4  1  0
 35 30  1  0
 16  7  1  0
 28 19  1  0
 15 10  1  0
 27 22  1  0
  3 36  1  0
  8 37  1  0
  8 38  1  0
  9 39  1  0
  9 40  1  0
 11 41  1  0
 12 42  1  0
 13 43  1  0
 14 44  1  0
 16 45  1  0
 16 46  1  0
 20 47  1  0
 20 48  1  0
 21 49  1  0
 21 50  1  0
 23 51  1  0
 24 52  1  0
 25 53  1  0
 26 54  1  0
 28 55  1  0
 28 56  1  0
 30 57  1  1
 31 58  1  0
 31 59  1  0
 32 60  1  0
 32 61  1  0
 33 62  1  0
 33 63  1  0
 34 64  1  0
 35 65  1  0
 35 66  1  0
M  END
>  <smiles>  (67) 
O=C(Nc1nc(N2CCc3ccccc3C2)nc(N2CCc3ccccc3C2)n1)C1CCCNC1

>  <score_type>  (67) 
oracle

>  <origin>  (67) 
autodockgpu

>  <m_score__min__energy>  (67) 
-9.5399999999999991

>  <m_primary>  (67) 
energy

>  <rmsd>  (67) 
7.28761036763129

>  <m_score__min__rmsd>  (67) 
7.28761036763129

>  <meeko>  (67) 
{"free_energy": -9.41, "intermolecular_energy": -10.6, "internal_energy": -0.84, "cluster_size": 24, "cluster_id": 2, "rank_in_cluster": 9}

>  <energy>  (67) 
-9.13

>  <cluster_rmsd>  (67) 
1.1

>  <cluster>  (67) 
1

$$$$

     RDKit          3D

 66 71  0  0  1  0  0  0  0  0999 V2000
  144.4200   73.6020  220.7850 O   0  0  0  0  0  0  0  0  0  0  0  0
  144.1180   72.7060  219.9460 C   0  0  0  0  0  0  0  0  0  0  0  0
  142.8180   72.1280  219.9840 N   0  0  0  0  0  0  0  0  0  0  0  0
  141.8240   72.5090  220.9290 C   0  0  0  0  0  0  0  0  0  0  0  0
  141.2350   71.5700  221.7130 N   0  0  0  0  0  0  0  0  0  0  0  0
  140.2960   71.8970  222.6120 C   0  0  0  0  0  0  0  0  0  0  0  0
  139.7010   70.8840  223.4160 N   0  0  0  0  0  0  0  0  0  0  0  0
  139.5070   69.5860  222.8000 C   0  0  0  0  0  0  0  0  0  0  0  0
  138.7840   68.6340  223.7280 C   0  0  0  0  0  0  0  0  0  0  0  0
  139.4580   68.7380  225.0630 C   0  0  0  0  0  0  0  0  0  0  0  0
  139.8180   67.6010  225.7720 C   0  0  0  0  0  0  0  0  0  0  0  0
  140.4400   67.7550  227.0020 C   0  0  0  0  0  0  0  0  0  0  0  0
  140.7020   68.9970  227.5220 C   0  0  0  0  0  0  0  0  0  0  0  0
  140.3510   70.1400  226.8330 C   0  0  0  0  0  0  0  0  0  0  0  0
  139.7360   69.9790  225.6150 C   0  0  0  0  0  0  0  0  0  0  0  0
  139.3150   71.1610  224.7850 C   0  0  0  0  0  0  0  0  0  0  0  0
  139.9410   73.2010  222.7250 N   0  0  0  0  0  0  0  0  0  0  0  0
  140.4970   74.1600  221.9710 C   0  0  0  0  0  0  0  0  0  0  0  0
  140.1020   75.5180  222.1140 N   0  0  0  0  0  0  0  0  0  0  0  0
  138.7110   75.8460  222.3600 C   0  0  0  0  0  0  0  0  0  0  0  0
  138.4370   77.1160  221.5420 C   0  0  0  0  0  0  0  0  0  0  0  0
  139.2420   78.1650  222.2300 C   0  0  0  0  0  0  0  0  0  0  0  0
  138.6520   79.3540  222.6030 C   0  0  0  0  0  0  0  0  0  0  0  0
  139.4360   80.2990  223.2380 C   0  0  0  0  0  0  0  0  0  0  0  0
  140.7680   80.0180  223.4710 C   0  0  0  0  0  0  0  0  0  0  0  0
  141.3520   78.8230  223.0920 C   0  0  0  0  0  0  0  0  0  0  0  0
  140.5720   77.8740  222.4570 C   0  0  0  0  0  0  0  0  0  0  0  0
  141.1050   76.5590  222.0120 C   0  0  0  0  0  0  0  0  0  0  0  0
  141.4340   73.8040  221.0800 N   0  0  0  0  0  0  0  0  0  0  0  0
  145.0560   72.2160  218.9090 C   0  0  1  0  0  0  0  0  0  0  0  0
  144.9660   70.7380  218.6950 C   0  0  0  0  0  0  0  0  0  0  0  0
  145.9390   70.3740  217.5920 C   0  0  0  0  0  0  0  0  0  0  0  0
  145.6090   71.2390  216.3780 C   0  0  0  0  0  0  0  0  0  0  0  0
  145.8410   72.6490  216.6760 N   0  0  0  0  0  0  0  0  0  0  0  0
  144.8210   73.0150  217.6570 C   0  0  0  0  0  0  0  0  0  0  0  0
  142.5610   71.3740  219.2800 H   0  0  0  0  0  0  0  0  0  0  0  0
  138.9131   69.7109  221.8826 H   0  0  0  0  0  0  0  0  0  0  0  0
  140.4956   69.1612  222.5717 H   0  0  0  0  0  0  0  0  0  0  0  0
  137.7253   68.9199  223.8146 H   0  0  0  0  0  0  0  0  0  0  0  0
  138.8217   67.6035  223.3451 H   0  0  0  0  0  0  0  0  0  0  0  0
  139.6144   66.5987  225.3671 H   0  0  0  0  0  0  0  0  0  0  0  0
  140.7298   66.8609  227.5735 H   0  0  0  0  0  0  0  0  0  0  0  0
  141.1979   69.0829  228.5001 H   0  0  0  0  0  0  0  0  0  0  0  0
  140.5555   71.1402  227.2426 H   0  0  0  0  0  0  0  0  0  0  0  0
  138.2253   71.2972  224.8489 H   0  0  0  0  0  0  0  0  0  0  0  0
  139.7950   72.0823  225.1467 H   0  0  0  0  0  0  0  0  0  0  0  0
  138.0581   75.0259  222.0266 H   0  0  0  0  0  0  0  0  0  0  0  0
  138.5117   75.9999  223.4308 H   0  0  0  0  0  0  0  0  0  0  0  0
  138.7670   76.9896  220.5003 H   0  0  0  0  0  0  0  0  0  0  0  0
  137.3670   77.3664  221.4922 H   0  0  0  0  0  0  0  0  0  0  0  0
  137.5877   79.5452  222.4010 H   0  0  0  0  0  0  0  0  0  0  0  0
  139.0052   81.2608  223.5532 H   0  0  0  0  0  0  0  0  0  0  0  0
  141.3877   80.7730  223.9770 H   0  0  0  0  0  0  0  0  0  0  0  0
  142.4165   78.6311  223.2918 H   0  0  0  0  0  0  0  0  0  0  0  0
  141.4300   76.6409  220.9643 H   0  0  0  0  0  0  0  0  0  0  0  0
  141.9494   76.2901  222.6637 H   0  0  0  0  0  0  0  0  0  0  0  0
  146.0920   72.3695  219.2453 H   0  0  0  0  0  0  0  0  0  0  0  0
  145.2336   70.2081  219.6210 H   0  0  0  0  0  0  0  0  0  0  0  0
  143.9415   70.4499  218.4167 H   0  0  0  0  0  0  0  0  0  0  0  0
  146.9699   70.5694  217.9222 H   0  0  0  0  0  0  0  0  0  0  0  0
  145.8535   69.3068  217.3394 H   0  0  0  0  0  0  0  0  0  0  0  0
  146.2475   70.9375  215.5345 H   0  0  0  0  0  0  0  0  0  0  0  0
  144.5488   71.0999  216.1200 H   0  0  0  0  0  0  0  0  0  0  0  0
  146.7620   72.7330  217.1740 H   0  0  0  0  0  0  0  0  0  0  0  0
  144.8921   74.0891  217.8833 H   0  0  0  0  0  0  0  0  0  0  0  0
  143.8188   72.8026  217.2564 H   0  0  0  0  0  0  0  0  0  0  0  0
  1  2  2  0
  2  3  1  0
  3  4  1  0
  4  5  2  0
  5  6  1  0
  6  7  1  0
  7  8  1  0
  8  9  1  0
  9 10  1  0
 10 11  2  0
 11 12  1  0
 12 13  2  0
 13 14  1  0
 14 15  2  0
 15 16  1  0
  6 17  2  0
 17 18  1  0
 18 19  1  0
 19 20  1  0
 20 21  1  0
 21 22  1  0
 22 23  2  0
 23 24  1  0
 24 25  2  0
 25 26  1  0
 26 27  2  0
 27 28  1  0
 18 29  2  0
  2 30  1  0
 30 31  1  0
 31 32  1  0
 32 33  1  0
 33 34  1  0
 34 35  1  0
 29  4  1  0
 35 30  1  0
 16  7  1  0
 28 19  1  0
 15 10  1  0
 27 22  1  0
  3 36  1  0
  8 37  1  0
  8 38  1  0
  9 39  1  0
  9 40  1  0
 11 41  1  0
 12 42  1  0
 13 43  1  0
 14 44  1  0
 16 45  1  0
 16 46  1  0
 20 47  1  0
 20 48  1  0
 21 49  1  0
 21 50  1  0
 23 51  1  0
 24 52  1  0
 25 53  1  0
 26 54  1  0
 28 55  1  0
 28 56  1  0
 30 57  1  1
 31 58  1  0
 31 59  1  0
 32 60  1  0
 32 61  1  0
 33 62  1  0
 33 63  1  0
 34 64  1  0
 35 65  1  0
 35 66  1  0
M  END
>  <smiles>  (68) 
O=C(Nc1nc(N2CCc3ccccc3C2)nc(N2CCc3ccccc3C2)n1)C1CCCNC1

>  <score_type>  (68) 
oracle

>  <origin>  (68) 
autodockgpu

>  <m_score__min__energy>  (68) 
-9.5399999999999991

>  <m_primary>  (68) 
energy

>  <rmsd>  (68) 
7.33793622921994

>  <m_score__min__rmsd>  (68) 
7.33793622921994

>  <meeko>  (68) 
{"free_energy": -8.98, "intermolecular_energy": -10.18, "internal_energy": -0.84, "cluster_size": 24, "cluster_id": 2, "rank_in_cluster": 23}

>  <energy>  (68) 
-9.12

>  <cluster_rmsd>  (68) 
1.11

>  <cluster>  (68) 
1

$$$$

     RDKit          3D

 66 71  0  0  1  0  0  0  0  0999 V2000
  141.1030   72.2220  225.6040 O   0  0  0  0  0  0  0  0  0  0  0  0
  140.3720   71.2460  225.2690 C   0  0  0  0  0  0  0  0  0  0  0  0
  140.0610   71.0490  223.8950 N   0  0  0  0  0  0  0  0  0  0  0  0
  140.5340   71.9040  222.8600 C   0  0  0  0  0  0  0  0  0  0  0  0
  140.0600   73.1720  222.7550 N   0  0  0  0  0  0  0  0  0  0  0  0
  140.4860   74.0020  221.7920 C   0  0  0  0  0  0  0  0  0  0  0  0
  139.9660   75.3240  221.7150 N   0  0  0  0  0  0  0  0  0  0  0  0
  138.5710   75.5040  222.0680 C   0  0  0  0  0  0  0  0  0  0  0  0
  138.1240   76.9330  221.8540 C   0  0  0  0  0  0  0  0  0  0  0  0
  139.1730   77.8100  222.4690 C   0  0  0  0  0  0  0  0  0  0  0  0
  138.8250   78.8630  223.3050 C   0  0  0  0  0  0  0  0  0  0  0  0
  139.8360   79.6420  223.8470 C   0  0  0  0  0  0  0  0  0  0  0  0
  141.1570   79.3920  223.5740 C   0  0  0  0  0  0  0  0  0  0  0  0
  141.5240   78.3520  222.7460 C   0  0  0  0  0  0  0  0  0  0  0  0
  140.5160   77.5840  222.2130 C   0  0  0  0  0  0  0  0  0  0  0  0
  140.8100   76.4270  221.2990 C   0  0  0  0  0  0  0  0  0  0  0  0
  141.4110   73.5440  220.9120 N   0  0  0  0  0  0  0  0  0  0  0  0
  141.9050   72.2990  220.9790 C   0  0  0  0  0  0  0  0  0  0  0  0
  142.8730   71.8500  220.0410 N   0  0  0  0  0  0  0  0  0  0  0  0
  143.8070   72.7930  219.4560 C   0  0  0  0  0  0  0  0  0  0  0  0
  143.9590   72.3660  217.9900 C   0  0  0  0  0  0  0  0  0  0  0  0
  144.6760   71.0610  218.0700 C   0  0  0  0  0  0  0  0  0  0  0  0
  145.8120   70.8510  217.3170 C   0  0  0  0  0  0  0  0  0  0  0  0
  146.4460   69.6260  217.4230 C   0  0  0  0  0  0  0  0  0  0  0  0
  145.9200   68.6700  218.2680 C   0  0  0  0  0  0  0  0  0  0  0  0
  144.7790   68.8900  219.0190 C   0  0  0  0  0  0  0  0  0  0  0  0
  144.1420   70.1130  218.9180 C   0  0  0  0  0  0  0  0  0  0  0  0
  142.9120   70.4460  219.6830 C   0  0  0  0  0  0  0  0  0  0  0  0
  141.4610   71.4920  221.9530 N   0  0  0  0  0  0  0  0  0  0  0  0
  139.8130   70.2790  226.2440 C   0  0  1  0  0  0  0  0  0  0  0  0
  140.1910   68.8640  225.9420 C   0  0  0  0  0  0  0  0  0  0  0  0
  139.5950   67.9880  227.0240 C   0  0  0  0  0  0  0  0  0  0  0  0
  140.0720   68.5260  228.3720 C   0  0  0  0  0  0  0  0  0  0  0  0
  139.5470   69.8690  228.6000 N   0  0  0  0  0  0  0  0  0  0  0  0
  140.2190   70.7240  227.6220 C   0  0  0  0  0  0  0  0  0  0  0  0
  139.4460   70.2300  223.6100 H   0  0  0  0  0  0  0  0  0  0  0  0
  137.9558   74.8399  221.4431 H   0  0  0  0  0  0  0  0  0  0  0  0
  138.4511   75.2613  223.1342 H   0  0  0  0  0  0  0  0  0  0  0  0
  138.0355   77.1453  220.7783 H   0  0  0  0  0  0  0  0  0  0  0  0
  137.1403   77.1124  222.3124 H   0  0  0  0  0  0  0  0  0  0  0  0
  137.7697   79.0746  223.5323 H   0  0  0  0  0  0  0  0  0  0  0  0
  139.5730   80.4790  224.5106 H   0  0  0  0  0  0  0  0  0  0  0  0
  141.9337   80.0295  224.0215 H   0  0  0  0  0  0  0  0  0  0  0  0
  142.5807   78.1453  222.5211 H   0  0  0  0  0  0  0  0  0  0  0  0
  140.5838   76.7024  220.2583 H   0  0  0  0  0  0  0  0  0  0  0  0
  141.8723   76.1470  221.3543 H   0  0  0  0  0  0  0  0  0  0  0  0
  143.4093   73.8167  219.5187 H   0  0  0  0  0  0  0  0  0  0  0  0
  144.7724   72.7906  219.9833 H   0  0  0  0  0  0  0  0  0  0  0  0
  142.9750   72.2435  217.5139 H   0  0  0  0  0  0  0  0  0  0  0  0
  144.4977   73.1100  217.3848 H   0  0  0  0  0  0  0  0  0  0  0  0
  146.2027   71.6348  216.6514 H   0  0  0  0  0  0  0  0  0  0  0  0
  147.3564   69.4169  216.8421 H   0  0  0  0  0  0  0  0  0  0  0  0
  146.4267   67.6969  218.3474 H   0  0  0  0  0  0  0  0  0  0  0  0
  144.3861   68.1067  219.6839 H   0  0  0  0  0  0  0  0  0  0  0  0
  142.0324   70.2099  219.0661 H   0  0  0  0  0  0  0  0  0  0  0  0
  142.9108   69.8533  220.6097 H   0  0  0  0  0  0  0  0  0  0  0  0
  138.7152   70.2767  226.1748 H   0  0  0  0  0  0  0  0  0  0  0  0
  139.7914   68.5708  224.9600 H   0  0  0  0  0  0  0  0  0  0  0  0
  141.2852   68.7543  225.9163 H   0  0  0  0  0  0  0  0  0  0  0  0
  138.4968   68.0248  226.9733 H   0  0  0  0  0  0  0  0  0  0  0  0
  139.9122   66.9430  226.8921 H   0  0  0  0  0  0  0  0  0  0  0  0
  139.7207   67.8590  229.1730 H   0  0  0  0  0  0  0  0  0  0  0  0
  141.1712   68.5688  228.3697 H   0  0  0  0  0  0  0  0  0  0  0  0
  138.5300   69.8760  228.3370 H   0  0  0  0  0  0  0  0  0  0  0  0
  139.9207   71.7714  227.7771 H   0  0  0  0  0  0  0  0  0  0  0  0
  141.3100   70.6459  227.7382 H   0  0  0  0  0  0  0  0  0  0  0  0
  1  2  2  0
  2  3  1  0
  3  4  1  0
  4  5  2  0
  5  6  1  0
  6  7  1  0
  7  8  1  0
  8  9  1  0
  9 10  1  0
 10 11  2  0
 11 12  1  0
 12 13  2  0
 13 14  1  0
 14 15  2  0
 15 16  1  0
  6 17  2  0
 17 18  1  0
 18 19  1  0
 19 20  1  0
 20 21  1  0
 21 22  1  0
 22 23  2  0
 23 24  1  0
 24 25  2  0
 25 26  1  0
 26 27  2  0
 27 28  1  0
 18 29  2  0
  2 30  1  0
 30 31  1  0
 31 32  1  0
 32 33  1  0
 33 34  1  0
 34 35  1  0
 29  4  1  0
 35 30  1  0
 16  7  1  0
 28 19  1  0
 15 10  1  0
 27 22  1  0
  3 36  1  0
  8 37  1  0
  8 38  1  0
  9 39  1  0
  9 40  1  0
 11 41  1  0
 12 42  1  0
 13 43  1  0
 14 44  1  0
 16 45  1  0
 16 46  1  0
 20 47  1  0
 20 48  1  0
 21 49  1  0
 21 50  1  0
 23 51  1  0
 24 52  1  0
 25 53  1  0
 26 54  1  0
 28 55  1  0
 28 56  1  0
 30 57  1  1
 31 58  1  0
 31 59  1  0
 32 60  1  0
 32 61  1  0
 33 62  1  0
 33 63  1  0
 34 64  1  0
 35 65  1  0
 35 66  1  0
M  END
>  <smiles>  (69) 
O=C(Nc1nc(N2CCc3ccccc3C2)nc(N2CCc3ccccc3C2)n1)C1CCCNC1

>  <score_type>  (69) 
oracle

>  <origin>  (69) 
autodockgpu

>  <m_score__min__energy>  (69) 
-9.5399999999999991

>  <m_primary>  (69) 
energy

>  <rmsd>  (69) 
10.266128309673224

>  <m_score__min__rmsd>  (69) 
10.266128309673224

>  <meeko>  (69) 
{"free_energy": -8.95, "intermolecular_energy": -10.14, "internal_energy": -0.82, "cluster_size": 3, "cluster_id": 3, "rank_in_cluster": 3}

>  <energy>  (69) 
-9.12

>  <cluster_rmsd>  (69) 
1.14

>  <cluster>  (69) 
1

$$$$

     RDKit          3D

 66 71  0  0  1  0  0  0  0  0999 V2000
  139.2300   75.5460  222.5470 O   0  0  0  0  0  0  0  0  0  0  0  0
  140.2060   76.2490  222.1590 C   0  0  0  0  0  0  0  0  0  0  0  0
  141.3760   75.6030  221.6710 N   0  0  0  0  0  0  0  0  0  0  0  0
  141.5100   74.1880  221.5940 C   0  0  0  0  0  0  0  0  0  0  0  0
  140.7580   73.3890  222.3940 N   0  0  0  0  0  0  0  0  0  0  0  0
  140.8600   72.0530  222.3460 C   0  0  0  0  0  0  0  0  0  0  0  0
  140.0550   71.2500  223.2010 N   0  0  0  0  0  0  0  0  0  0  0  0
  139.3310   70.1550  222.5850 C   0  0  0  0  0  0  0  0  0  0  0  0
  138.4450   69.4430  223.5830 C   0  0  0  0  0  0  0  0  0  0  0  0
  139.2830   69.1970  224.8030 C   0  0  0  0  0  0  0  0  0  0  0  0
  139.3040   67.9520  225.4160 C   0  0  0  0  0  0  0  0  0  0  0  0
  140.0960   67.7790  226.5410 C   0  0  0  0  0  0  0  0  0  0  0  0
  140.8500   68.8060  227.0510 C   0  0  0  0  0  0  0  0  0  0  0  0
  140.8420   70.0510  226.4560 C   0  0  0  0  0  0  0  0  0  0  0  0
  140.0540   70.2140  225.3420 C   0  0  0  0  0  0  0  0  0  0  0  0
  139.9770   71.5310  224.6210 C   0  0  0  0  0  0  0  0  0  0  0  0
  141.7410   71.5080  221.4710 N   0  0  0  0  0  0  0  0  0  0  0  0
  142.5030   72.2590  220.6630 C   0  0  0  0  0  0  0  0  0  0  0  0
  143.4170   71.6550  219.7570 N   0  0  0  0  0  0  0  0  0  0  0  0
  143.2840   70.2510  219.4230 C   0  0  0  0  0  0  0  0  0  0  0  0
  144.7180   69.7110  219.3370 C   0  0  0  0  0  0  0  0  0  0  0  0
  145.2790   70.3780  218.1270 C   0  0  0  0  0  0  0  0  0  0  0  0
  145.8900   69.6270  217.1450 C   0  0  0  0  0  0  0  0  0  0  0  0
  146.3960   70.2870  216.0400 C   0  0  0  0  0  0  0  0  0  0  0  0
  146.2720   71.6600  215.9650 C   0  0  0  0  0  0  0  0  0  0  0  0
  145.6590   72.4060  216.9550 C   0  0  0  0  0  0  0  0  0  0  0  0
  145.1500   71.7500  218.0620 C   0  0  0  0  0  0  0  0  0  0  0  0
  144.4730   72.4610  219.1790 C   0  0  0  0  0  0  0  0  0  0  0  0
  142.3790   73.5920  220.7330 N   0  0  0  0  0  0  0  0  0  0  0  0
  140.2010   77.7310  222.1840 C   0  0  1  0  0  0  0  0  0  0  0  0
  138.9440   78.2980  222.7630 C   0  0  0  0  0  0  0  0  0  0  0  0
  139.0800   79.8070  222.7680 C   0  0  0  0  0  0  0  0  0  0  0  0
  140.3670   80.1540  223.5140 C   0  0  0  0  0  0  0  0  0  0  0  0
  141.5300   79.6420  222.7940 N   0  0  0  0  0  0  0  0  0  0  0  0
  141.4440   78.1860  222.8970 C   0  0  0  0  0  0  0  0  0  0  0  0
  142.2000   76.1910  221.3430 H   0  0  0  0  0  0  0  0  0  0  0  0
  138.7055   70.5528  221.7723 H   0  0  0  0  0  0  0  0  0  0  0  0
  140.0641   69.4319  222.1980 H   0  0  0  0  0  0  0  0  0  0  0  0
  137.5793   70.0719  223.8380 H   0  0  0  0  0  0  0  0  0  0  0  0
  138.0611   68.4989  223.1691 H   0  0  0  0  0  0  0  0  0  0  0  0
  138.7049   67.1199  225.0177 H   0  0  0  0  0  0  0  0  0  0  0  0
  140.1204   66.7968  227.0356 H   0  0  0  0  0  0  0  0  0  0  0  0
  141.4681   68.6347  227.9447 H   0  0  0  0  0  0  0  0  0  0  0  0
  141.4427   70.8804  226.8576 H   0  0  0  0  0  0  0  0  0  0  0  0
  139.0261   72.0326  224.8538 H   0  0  0  0  0  0  0  0  0  0  0  0
  140.7975   72.1942  224.9325 H   0  0  0  0  0  0  0  0  0  0  0  0
  142.7204   69.7217  220.2054 H   0  0  0  0  0  0  0  0  0  0  0  0
  142.7368   70.1065  218.4798 H   0  0  0  0  0  0  0  0  0  0  0  0
  145.2928   69.9813  220.2351 H   0  0  0  0  0  0  0  0  0  0  0  0
  144.7555   68.6135  219.2729 H   0  0  0  0  0  0  0  0  0  0  0  0
  145.9726   68.5340  217.2379 H   0  0  0  0  0  0  0  0  0  0  0  0
  146.8900   69.7263  215.2328 H   0  0  0  0  0  0  0  0  0  0  0  0
  146.6762   72.1804  215.0842 H   0  0  0  0  0  0  0  0  0  0  0  0
  145.5776   73.4992  216.8643 H   0  0  0  0  0  0  0  0  0  0  0  0
  145.2146   72.6912  219.9582 H   0  0  0  0  0  0  0  0  0  0  0  0
  144.0253   73.3835  218.7808 H   0  0  0  0  0  0  0  0  0  0  0  0
  140.2136   78.1187  221.1547 H   0  0  0  0  0  0  0  0  0  0  0  0
  138.0812   78.0015  222.1484 H   0  0  0  0  0  0  0  0  0  0  0  0
  138.7859   77.9216  223.7844 H   0  0  0  0  0  0  0  0  0  0  0  0
  139.1327   80.1820  221.7352 H   0  0  0  0  0  0  0  0  0  0  0  0
  138.2122   80.2707  223.2598 H   0  0  0  0  0  0  0  0  0  0  0  0
  140.4496   81.2472  223.6041 H   0  0  0  0  0  0  0  0  0  0  0  0
  140.3350   79.6924  224.5119 H   0  0  0  0  0  0  0  0  0  0  0  0
  141.4110   79.8650  221.7750 H   0  0  0  0  0  0  0  0  0  0  0  0
  142.3285   77.7279  222.4302 H   0  0  0  0  0  0  0  0  0  0  0  0
  141.4046   77.8841  223.9540 H   0  0  0  0  0  0  0  0  0  0  0  0
  1  2  2  0
  2  3  1  0
  3  4  1  0
  4  5  2  0
  5  6  1  0
  6  7  1  0
  7  8  1  0
  8  9  1  0
  9 10  1  0
 10 11  2  0
 11 12  1  0
 12 13  2  0
 13 14  1  0
 14 15  2  0
 15 16  1  0
  6 17  2  0
 17 18  1  0
 18 19  1  0
 19 20  1  0
 20 21  1  0
 21 22  1  0
 22 23  2  0
 23 24  1  0
 24 25  2  0
 25 26  1  0
 26 27  2  0
 27 28  1  0
 18 29  2  0
  2 30  1  0
 30 31  1  0
 31 32  1  0
 32 33  1  0
 33 34  1  0
 34 35  1  0
 29  4  1  0
 35 30  1  0
 16  7  1  0
 28 19  1  0
 15 10  1  0
 27 22  1  0
  3 36  1  0
  8 37  1  0
  8 38  1  0
  9 39  1  0
  9 40  1  0
 11 41  1  0
 12 42  1  0
 13 43  1  0
 14 44  1  0
 16 45  1  0
 16 46  1  0
 20 47  1  0
 20 48  1  0
 21 49  1  0
 21 50  1  0
 23 51  1  0
 24 52  1  0
 25 53  1  0
 26 54  1  0
 28 55  1  0
 28 56  1  0
 30 57  1  6
 31 58  1  0
 31 59  1  0
 32 60  1  0
 32 61  1  0
 33 62  1  0
 33 63  1  0
 34 64  1  0
 35 65  1  0
 35 66  1  0
M  END
>  <smiles>  (70) 
O=C(Nc1nc(N2CCc3ccccc3C2)nc(N2CCc3ccccc3C2)n1)C1CCCNC1

>  <score_type>  (70) 
oracle

>  <origin>  (70) 
autodockgpu

>  <m_score__min__energy>  (70) 
-9.5399999999999991

>  <m_primary>  (70) 
energy

>  <rmsd>  (70) 
5.300018460549629

>  <m_score__min__rmsd>  (70) 
5.300018460549629

>  <meeko>  (70) 
{"free_energy": -9.12, "intermolecular_energy": -10.32, "internal_energy": -0.76, "cluster_size": 23, "cluster_id": 1, "rank_in_cluster": 18}

>  <energy>  (70) 
-9.03

>  <cluster_rmsd>  (70) 
1.57

>  <cluster>  (70) 
1

$$$$

     RDKit          3D

 66 71  0  0  1  0  0  0  0  0999 V2000
  144.6610   72.0980  220.8640 O   0  0  0  0  0  0  0  0  0  0  0  0
  144.3440   72.3670  219.6710 C   0  0  0  0  0  0  0  0  0  0  0  0
  143.0720   72.9480  219.4040 N   0  0  0  0  0  0  0  0  0  0  0  0
  142.1250   73.2470  220.4230 C   0  0  0  0  0  0  0  0  0  0  0  0
  141.6530   74.5120  220.5630 N   0  0  0  0  0  0  0  0  0  0  0  0
  140.7600   74.8260  221.5130 C   0  0  0  0  0  0  0  0  0  0  0  0
  140.2890   76.1640  221.6280 N   0  0  0  0  0  0  0  0  0  0  0  0
  139.0660   76.3680  222.3790 C   0  0  0  0  0  0  0  0  0  0  0  0
  138.6280   77.8160  222.3460 C   0  0  0  0  0  0  0  0  0  0  0  0
  139.8430   78.6400  222.6520 C   0  0  0  0  0  0  0  0  0  0  0  0
  139.7930   79.6700  223.5820 C   0  0  0  0  0  0  0  0  0  0  0  0
  140.9460   80.4000  223.8270 C   0  0  0  0  0  0  0  0  0  0  0  0
  142.1200   80.1250  223.1730 C   0  0  0  0  0  0  0  0  0  0  0  0
  142.1910   79.1070  222.2440 C   0  0  0  0  0  0  0  0  0  0  0  0
  141.0440   78.3870  222.0070 C   0  0  0  0  0  0  0  0  0  0  0  0
  141.0160   77.2580  221.0150 C   0  0  0  0  0  0  0  0  0  0  0  0
  140.3310   73.8420  222.3420 N   0  0  0  0  0  0  0  0  0  0  0  0
  140.7720   72.5800  222.2390 C   0  0  0  0  0  0  0  0  0  0  0  0
  140.3020   71.5720  223.1240 N   0  0  0  0  0  0  0  0  0  0  0  0
  139.4800   70.4900  222.6200 C   0  0  0  0  0  0  0  0  0  0  0  0
  138.4250   70.2340  223.7050 C   0  0  0  0  0  0  0  0  0  0  0  0
  139.2100   69.6690  224.8390 C   0  0  0  0  0  0  0  0  0  0  0  0
  138.8130   68.4900  225.4340 C   0  0  0  0  0  0  0  0  0  0  0  0
  139.5710   68.0020  226.4830 C   0  0  0  0  0  0  0  0  0  0  0  0
  140.6840   68.7090  226.8910 C   0  0  0  0  0  0  0  0  0  0  0  0
  141.0740   69.8920  226.2900 C   0  0  0  0  0  0  0  0  0  0  0  0
  140.3210   70.3830  225.2400 C   0  0  0  0  0  0  0  0  0  0  0  0
  140.6570   71.6450  224.5280 C   0  0  0  0  0  0  0  0  0  0  0  0
  141.6640   72.2950  221.2800 N   0  0  0  0  0  0  0  0  0  0  0  0
  145.2350   72.1080  218.5150 C   0  0  1  0  0  0  0  0  0  0  0  0
  144.9800   70.7830  217.8690 C   0  0  0  0  0  0  0  0  0  0  0  0
  145.9200   70.6580  216.6880 C   0  0  0  0  0  0  0  0  0  0  0  0
  145.7090   71.8800  215.7960 C   0  0  0  0  0  0  0  0  0  0  0  0
  146.0970   73.1000  216.4990 N   0  0  0  0  0  0  0  0  0  0  0  0
  145.1110   73.2680  217.5650 C   0  0  0  0  0  0  0  0  0  0  0  0
  142.8020   73.1760  218.4020 H   0  0  0  0  0  0  0  0  0  0  0  0
  138.2713   75.7445  221.9435 H   0  0  0  0  0  0  0  0  0  0  0  0
  139.2543   76.0889  223.4262 H   0  0  0  0  0  0  0  0  0  0  0  0
  138.2375   78.0715  221.3499 H   0  0  0  0  0  0  0  0  0  0  0  0
  137.8275   78.0043  223.0766 H   0  0  0  0  0  0  0  0  0  0  0  0
  138.8581   79.9019  224.1133 H   0  0  0  0  0  0  0  0  0  0  0  0
  140.9187   81.2178  224.5621 H   0  0  0  0  0  0  0  0  0  0  0  0
  143.0165   80.7237  223.3919 H   0  0  0  0  0  0  0  0  0  0  0  0
  143.1280   78.8806  221.7142 H   0  0  0  0  0  0  0  0  0  0  0  0
  140.5074   77.5787  220.0939 H   0  0  0  0  0  0  0  0  0  0  0  0
  142.0372   76.9470  220.7498 H   0  0  0  0  0  0  0  0  0  0  0  0
  138.9969   70.7823  221.6759 H   0  0  0  0  0  0  0  0  0  0  0  0
  140.0758   69.5893  222.4107 H   0  0  0  0  0  0  0  0  0  0  0  0
  137.9305   71.1714  223.9995 H   0  0  0  0  0  0  0  0  0  0  0  0
  137.6222   69.5621  223.3672 H   0  0  0  0  0  0  0  0  0  0  0  0
  137.9190   67.9529  225.0843 H   0  0  0  0  0  0  0  0  0  0  0  0
  139.2909   67.0641  226.9848 H   0  0  0  0  0  0  0  0  0  0  0  0
  141.2835   68.3167  227.7257 H   0  0  0  0  0  0  0  0  0  0  0  0
  141.9661   70.4316  226.6407 H   0  0  0  0  0  0  0  0  0  0  0  0
  140.1064   72.4758  224.9935 H   0  0  0  0  0  0  0  0  0  0  0  0
  141.7427   71.8054  224.6023 H   0  0  0  0  0  0  0  0  0  0  0  0
  146.2767   72.0348  218.8607 H   0  0  0  0  0  0  0  0  0  0  0  0
  145.1717   69.9727  218.5878 H   0  0  0  0  0  0  0  0  0  0  0  0
  143.9335   70.7109  217.5378 H   0  0  0  0  0  0  0  0  0  0  0  0
  146.9617   70.6262  217.0399 H   0  0  0  0  0  0  0  0  0  0  0  0
  145.7160   69.7328  216.1291 H   0  0  0  0  0  0  0  0  0  0  0  0
  146.3210   71.7753  214.8880 H   0  0  0  0  0  0  0  0  0  0  0  0
  144.6437   71.9464  215.5300 H   0  0  0  0  0  0  0  0  0  0  0  0
  147.0140   72.9260  216.9800 H   0  0  0  0  0  0  0  0  0  0  0  0
  145.3009   74.2093  218.1015 H   0  0  0  0  0  0  0  0  0  0  0  0
  144.0971   73.3010  217.1397 H   0  0  0  0  0  0  0  0  0  0  0  0
  1  2  2  0
  2  3  1  0
  3  4  1  0
  4  5  2  0
  5  6  1  0
  6  7  1  0
  7  8  1  0
  8  9  1  0
  9 10  1  0
 10 11  2  0
 11 12  1  0
 12 13  2  0
 13 14  1  0
 14 15  2  0
 15 16  1  0
  6 17  2  0
 17 18  1  0
 18 19  1  0
 19 20  1  0
 20 21  1  0
 21 22  1  0
 22 23  2  0
 23 24  1  0
 24 25  2  0
 25 26  1  0
 26 27  2  0
 27 28  1  0
 18 29  2  0
  2 30  1  0
 30 31  1  0
 31 32  1  0
 32 33  1  0
 33 34  1  0
 34 35  1  0
 29  4  1  0
 35 30  1  0
 16  7  1  0
 28 19  1  0
 15 10  1  0
 27 22  1  0
  3 36  1  0
  8 37  1  0
  8 38  1  0
  9 39  1  0
  9 40  1  0
 11 41  1  0
 12 42  1  0
 13 43  1  0
 14 44  1  0
 16 45  1  0
 16 46  1  0
 20 47  1  0
 20 48  1  0
 21 49  1  0
 21 50  1  0
 23 51  1  0
 24 52  1  0
 25 53  1  0
 26 54  1  0
 28 55  1  0
 28 56  1  0
 30 57  1  1
 31 58  1  0
 31 59  1  0
 32 60  1  0
 32 61  1  0
 33 62  1  0
 33 63  1  0
 34 64  1  0
 35 65  1  0
 35 66  1  0
M  END
>  <smiles>  (71) 
O=C(Nc1nc(N2CCc3ccccc3C2)nc(N2CCc3ccccc3C2)n1)C1CCCNC1

>  <score_type>  (71) 
oracle

>  <origin>  (71) 
autodockgpu

>  <m_score__min__energy>  (71) 
-9.5399999999999991

>  <m_primary>  (71) 
energy

>  <rmsd>  (71) 
7.327264902228052

>  <m_score__min__rmsd>  (71) 
7.327264902228052

>  <meeko>  (71) 
{"free_energy": -9.27, "intermolecular_energy": -10.47, "internal_energy": -0.82, "cluster_size": 24, "cluster_id": 2, "rank_in_cluster": 18}

>  <energy>  (71) 
-9.02

>  <cluster_rmsd>  (71) 
1.56

>  <cluster>  (71) 
1

$$$$

     RDKit          3D

 66 71  0  0  1  0  0  0  0  0999 V2000
  139.1620   75.5990  222.0790 O   0  0  0  0  0  0  0  0  0  0  0  0
  140.2310   76.2210  221.8220 C   0  0  0  0  0  0  0  0  0  0  0  0
  141.4220   75.4830  221.5730 N   0  0  0  0  0  0  0  0  0  0  0  0
  141.4750   74.0610  221.5960 C   0  0  0  0  0  0  0  0  0  0  0  0
  140.6990   73.3650  222.4660 N   0  0  0  0  0  0  0  0  0  0  0  0
  140.7260   72.0260  222.5120 C   0  0  0  0  0  0  0  0  0  0  0  0
  139.8960   71.3320  223.4380 N   0  0  0  0  0  0  0  0  0  0  0  0
  138.9400   70.3920  222.8870 C   0  0  0  0  0  0  0  0  0  0  0  0
  138.0630   69.7960  223.9660 C   0  0  0  0  0  0  0  0  0  0  0  0
  138.9750   69.3730  225.0780 C   0  0  0  0  0  0  0  0  0  0  0  0
  138.8570   68.1190  225.6620 C   0  0  0  0  0  0  0  0  0  0  0  0
  139.7280   67.7800  226.6870 C   0  0  0  0  0  0  0  0  0  0  0  0
  140.6900   68.6530  227.1280 C   0  0  0  0  0  0  0  0  0  0  0  0
  140.8230   69.9040  226.5610 C   0  0  0  0  0  0  0  0  0  0  0  0
  139.9580   70.2320  225.5450 C   0  0  0  0  0  0  0  0  0  0  0  0
  140.0200   71.5700  224.8620 C   0  0  0  0  0  0  0  0  0  0  0  0
  141.5560   71.3700  221.6630 N   0  0  0  0  0  0  0  0  0  0  0  0
  142.3400   72.0180  220.7900 C   0  0  0  0  0  0  0  0  0  0  0  0
  143.1990   71.3010  219.9140 N   0  0  0  0  0  0  0  0  0  0  0  0
  144.2540   71.9960  219.2040 C   0  0  0  0  0  0  0  0  0  0  0  0
  144.2960   71.3630  217.8060 C   0  0  0  0  0  0  0  0  0  0  0  0
  144.7990   69.9810  218.0540 C   0  0  0  0  0  0  0  0  0  0  0  0
  145.8660   69.4950  217.3290 C   0  0  0  0  0  0  0  0  0  0  0  0
  146.2990   68.2070  217.5920 C   0  0  0  0  0  0  0  0  0  0  0  0
  145.6500   67.4670  218.5610 C   0  0  0  0  0  0  0  0  0  0  0  0
  144.5800   67.9640  219.2820 C   0  0  0  0  0  0  0  0  0  0  0  0
  144.1440   69.2500  219.0240 C   0  0  0  0  0  0  0  0  0  0  0  0
  143.0030   69.8740  219.7450 C   0  0  0  0  0  0  0  0  0  0  0  0
  142.2920   73.3580  220.7650 N   0  0  0  0  0  0  0  0  0  0  0  0
  140.3170   77.7000  221.7660 C   0  0  1  0  0  0  0  0  0  0  0  0
  140.8760   78.2990  223.0170 C   0  0  0  0  0  0  0  0  0  0  0  0
  140.9470   79.7980  222.8170 C   0  0  0  0  0  0  0  0  0  0  0  0
  141.7490   80.0590  221.5440 C   0  0  0  0  0  0  0  0  0  0  0  0
  141.0470   79.5260  220.3790 N   0  0  0  0  0  0  0  0  0  0  0  0
  141.0880   78.0730  220.5300 C   0  0  0  0  0  0  0  0  0  0  0  0
  142.3240   76.0040  221.3570 H   0  0  0  0  0  0  0  0  0  0  0  0
  138.3039   70.9152  222.1579 H   0  0  0  0  0  0  0  0  0  0  0  0
  139.4976   69.5752  222.4054 H   0  0  0  0  0  0  0  0  0  0  0  0
  137.3456   70.5467  224.3290 H   0  0  0  0  0  0  0  0  0  0  0  0
  137.4868   68.9420  223.5805 H   0  0  0  0  0  0  0  0  0  0  0  0
  138.0894   67.4096  225.3193 H   0  0  0  0  0  0  0  0  0  0  0  0
  139.6455   66.7888  227.1568 H   0  0  0  0  0  0  0  0  0  0  0  0
  141.3637   68.3520  227.9438 H   0  0  0  0  0  0  0  0  0  0  0  0
  141.5910   70.6106  226.9086 H   0  0  0  0  0  0  0  0  0  0  0  0
  139.1953   72.2092  225.2102 H   0  0  0  0  0  0  0  0  0  0  0  0
  140.9668   72.0810  225.0908 H   0  0  0  0  0  0  0  0  0  0  0  0
  144.0263   73.0698  219.1328 H   0  0  0  0  0  0  0  0  0  0  0  0
  145.2207   71.9062  219.7211 H   0  0  0  0  0  0  0  0  0  0  0  0
  143.2923   71.3396  217.3565 H   0  0  0  0  0  0  0  0  0  0  0  0
  144.9290   71.9256  217.1040 H   0  0  0  0  0  0  0  0  0  0  0  0
  146.3589   70.1128  216.5638 H   0  0  0  0  0  0  0  0  0  0  0  0
  147.1473   67.7791  217.0376 H   0  0  0  0  0  0  0  0  0  0  0  0
  145.9974   66.4438  218.7669 H   0  0  0  0  0  0  0  0  0  0  0  0
  144.0849   67.3474  220.0467 H   0  0  0  0  0  0  0  0  0  0  0  0
  142.0809   69.7053  219.1694 H   0  0  0  0  0  0  0  0  0  0  0  0
  142.9312   69.4145  220.7419 H   0  0  0  0  0  0  0  0  0  0  0  0
  139.3050   78.1263  221.7020 H   0  0  0  0  0  0  0  0  0  0  0  0
  140.2213   78.0653  223.8695 H   0  0  0  0  0  0  0  0  0  0  0  0
  141.8755   77.8903  223.2269 H   0  0  0  0  0  0  0  0  0  0  0  0
  139.9327   80.2104  222.7119 H   0  0  0  0  0  0  0  0  0  0  0  0
  141.4281   80.2796  223.6810 H   0  0  0  0  0  0  0  0  0  0  0  0
  141.8869   81.1431  221.4189 H   0  0  0  0  0  0  0  0  0  0  0  0
  142.7255   79.5601  221.6301 H   0  0  0  0  0  0  0  0  0  0  0  0
  140.0350   79.7940  220.4530 H   0  0  0  0  0  0  0  0  0  0  0  0
  140.6322   77.5955  219.6501 H   0  0  0  0  0  0  0  0  0  0  0  0
  142.1302   77.7325  220.6187 H   0  0  0  0  0  0  0  0  0  0  0  0
  1  2  2  0
  2  3  1  0
  3  4  1  0
  4  5  2  0
  5  6  1  0
  6  7  1  0
  7  8  1  0
  8  9  1  0
  9 10  1  0
 10 11  2  0
 11 12  1  0
 12 13  2  0
 13 14  1  0
 14 15  2  0
 15 16  1  0
  6 17  2  0
 17 18  1  0
 18 19  1  0
 19 20  1  0
 20 21  1  0
 21 22  1  0
 22 23  2  0
 23 24  1  0
 24 25  2  0
 25 26  1  0
 26 27  2  0
 27 28  1  0
 18 29  2  0
  2 30  1  0
 30 31  1  0
 31 32  1  0
 32 33  1  0
 33 34  1  0
 34 35  1  0
 29  4  1  0
 35 30  1  0
 16  7  1  0
 28 19  1  0
 15 10  1  0
 27 22  1  0
  3 36  1  0
  8 37  1  0
  8 38  1  0
  9 39  1  0
  9 40  1  0
 11 41  1  0
 12 42  1  0
 13 43  1  0
 14 44  1  0
 16 45  1  0
 16 46  1  0
 20 47  1  0
 20 48  1  0
 21 49  1  0
 21 50  1  0
 23 51  1  0
 24 52  1  0
 25 53  1  0
 26 54  1  0
 28 55  1  0
 28 56  1  0
 30 57  1  6
 31 58  1  0
 31 59  1  0
 32 60  1  0
 32 61  1  0
 33 62  1  0
 33 63  1  0
 34 64  1  0
 35 65  1  0
 35 66  1  0
M  END
>  <smiles>  (72) 
O=C(Nc1nc(N2CCc3ccccc3C2)nc(N2CCc3ccccc3C2)n1)C1CCCNC1

>  <score_type>  (72) 
oracle

>  <origin>  (72) 
autodockgpu

>  <m_score__min__energy>  (72) 
-9.5399999999999991

>  <m_primary>  (72) 
energy

>  <rmsd>  (72) 
5.0486959344903735

>  <m_score__min__rmsd>  (72) 
5.0486959344903735

>  <meeko>  (72) 
{"free_energy": -9.36, "intermolecular_energy": -10.56, "internal_energy": -0.81, "cluster_size": 23, "cluster_id": 1, "rank_in_cluster": 15}

>  <energy>  (72) 
-9.01

>  <cluster_rmsd>  (72) 
0.86

>  <cluster>  (72) 
1

$$$$

     RDKit          3D

 66 71  0  0  1  0  0  0  0  0999 V2000
  144.8350   72.9320  220.9290 O   0  0  0  0  0  0  0  0  0  0  0  0
  144.3760   72.3750  219.8910 C   0  0  0  0  0  0  0  0  0  0  0  0
  142.9720   72.1820  219.7690 N   0  0  0  0  0  0  0  0  0  0  0  0
  142.0410   72.5870  220.7660 C   0  0  0  0  0  0  0  0  0  0  0  0
  141.5430   73.8500  220.7600 N   0  0  0  0  0  0  0  0  0  0  0  0
  140.6650   74.2630  221.6850 C   0  0  0  0  0  0  0  0  0  0  0  0
  140.1660   75.5940  221.6450 N   0  0  0  0  0  0  0  0  0  0  0  0
  138.7940   75.7960  222.0680 C   0  0  0  0  0  0  0  0  0  0  0  0
  138.3630   77.2350  221.8890 C   0  0  0  0  0  0  0  0  0  0  0  0
  139.4570   78.0870  222.4590 C   0  0  0  0  0  0  0  0  0  0  0  0
  139.1700   79.1370  223.3200 C   0  0  0  0  0  0  0  0  0  0  0  0
  140.2200   79.8930  223.8180 C   0  0  0  0  0  0  0  0  0  0  0  0
  141.5220   79.6230  223.4790 C   0  0  0  0  0  0  0  0  0  0  0  0
  141.8280   78.5830  222.6240 C   0  0  0  0  0  0  0  0  0  0  0  0
  140.7820   77.8390  222.1350 C   0  0  0  0  0  0  0  0  0  0  0  0
  141.0090   76.6850  221.1980 C   0  0  0  0  0  0  0  0  0  0  0  0
  140.2790   73.3820  222.6420 N   0  0  0  0  0  0  0  0  0  0  0  0
  140.7460   72.1260  222.6850 C   0  0  0  0  0  0  0  0  0  0  0  0
  140.3210   71.2270  223.7010 N   0  0  0  0  0  0  0  0  0  0  0  0
  139.5950   70.0240  223.3470 C   0  0  0  0  0  0  0  0  0  0  0  0
  138.5260   69.8520  224.4360 C   0  0  0  0  0  0  0  0  0  0  0  0
  139.3110   69.5220  225.6590 C   0  0  0  0  0  0  0  0  0  0  0  0
  138.9800   68.4170  226.4140 C   0  0  0  0  0  0  0  0  0  0  0  0
  139.7360   68.1480  227.5410 C   0  0  0  0  0  0  0  0  0  0  0  0
  140.7820   68.9900  227.8630 C   0  0  0  0  0  0  0  0  0  0  0  0
  141.1060   70.0970  227.0990 C   0  0  0  0  0  0  0  0  0  0  0  0
  140.3550   70.3690  225.9710 C   0  0  0  0  0  0  0  0  0  0  0  0
  140.6230   71.5330  225.0860 C   0  0  0  0  0  0  0  0  0  0  0  0
  141.6230   71.7410  221.7470 N   0  0  0  0  0  0  0  0  0  0  0  0
  145.2330   71.9050  218.7760 C   0  0  1  0  0  0  0  0  0  0  0  0
  145.2880   70.4140  218.6740 C   0  0  0  0  0  0  0  0  0  0  0  0
  146.1550   70.0670  217.4820 C   0  0  0  0  0  0  0  0  0  0  0  0
  145.5840   70.7920  216.2650 C   0  0  0  0  0  0  0  0  0  0  0  0
  145.6870   72.2380  216.4360 N   0  0  0  0  0  0  0  0  0  0  0  0
  144.7580   72.5720  217.5140 C   0  0  0  0  0  0  0  0  0  0  0  0
  142.5830   71.7140  218.8970 H   0  0  0  0  0  0  0  0  0  0  0  0
  138.1366   75.1491  221.4686 H   0  0  0  0  0  0  0  0  0  0  0  0
  138.7227   75.5455  223.1367 H   0  0  0  0  0  0  0  0  0  0  0  0
  138.2253   77.4594  220.8210 H   0  0  0  0  0  0  0  0  0  0  0  0
  137.4065   77.4274  222.3970 H   0  0  0  0  0  0  0  0  0  0  0  0
  138.1312   79.3646  223.6014 H   0  0  0  0  0  0  0  0  0  0  0  0
  140.0045   80.7284  224.5004 H   0  0  0  0  0  0  0  0  0  0  0  0
  142.3313   80.2423  223.8932 H   0  0  0  0  0  0  0  0  0  0  0  0
  142.8683   78.3591  222.3454 H   0  0  0  0  0  0  0  0  0  0  0  0
  140.7376   76.9743  220.1720 H   0  0  0  0  0  0  0  0  0  0  0  0
  142.0673   76.3849  221.1993 H   0  0  0  0  0  0  0  0  0  0  0  0
  139.1230   70.1367  222.3598 H   0  0  0  0  0  0  0  0  0  0  0  0
  140.2599   69.1497  223.2873 H   0  0  0  0  0  0  0  0  0  0  0  0
  137.9563   70.7825  224.5758 H   0  0  0  0  0  0  0  0  0  0  0  0
  137.7854   69.0782  224.1854 H   0  0  0  0  0  0  0  0  0  0  0  0
  138.1390   67.7679  226.1286 H   0  0  0  0  0  0  0  0  0  0  0  0
  139.5072   67.2761  228.1714 H   0  0  0  0  0  0  0  0  0  0  0  0
  141.3799   68.7725  228.7603 H   0  0  0  0  0  0  0  0  0  0  0  0
  141.9454   70.7483  227.3839 H   0  0  0  0  0  0  0  0  0  0  0  0
  139.9992   72.3793  225.4095 H   0  0  0  0  0  0  0  0  0  0  0  0
  141.6914   71.7841  225.1594 H   0  0  0  0  0  0  0  0  0  0  0  0
  146.2775   72.1934  218.9651 H   0  0  0  0  0  0  0  0  0  0  0  0
  145.7247   69.9914  219.5909 H   0  0  0  0  0  0  0  0  0  0  0  0
  144.2772   69.9983  218.5499 H   0  0  0  0  0  0  0  0  0  0  0  0
  147.1891   70.3957  217.6627 H   0  0  0  0  0  0  0  0  0  0  0  0
  146.1619   68.9799  217.3143 H   0  0  0  0  0  0  0  0  0  0  0  0
  146.1466   70.4926  215.3685 H   0  0  0  0  0  0  0  0  0  0  0  0
  144.5234   70.5216  216.1553 H   0  0  0  0  0  0  0  0  0  0  0  0
  146.6450   72.4590  216.8040 H   0  0  0  0  0  0  0  0  0  0  0  0
  144.7323   73.6623  217.6574 H   0  0  0  0  0  0  0  0  0  0  0  0
  143.7457   72.2237  217.2612 H   0  0  0  0  0  0  0  0  0  0  0  0
  1  2  2  0
  2  3  1  0
  3  4  1  0
  4  5  2  0
  5  6  1  0
  6  7  1  0
  7  8  1  0
  8  9  1  0
  9 10  1  0
 10 11  2  0
 11 12  1  0
 12 13  2  0
 13 14  1  0
 14 15  2  0
 15 16  1  0
  6 17  2  0
 17 18  1  0
 18 19  1  0
 19 20  1  0
 20 21  1  0
 21 22  1  0
 22 23  2  0
 23 24  1  0
 24 25  2  0
 25 26  1  0
 26 27  2  0
 27 28  1  0
 18 29  2  0
  2 30  1  0
 30 31  1  0
 31 32  1  0
 32 33  1  0
 33 34  1  0
 34 35  1  0
 29  4  1  0
 35 30  1  0
 16  7  1  0
 28 19  1  0
 15 10  1  0
 27 22  1  0
  3 36  1  0
  8 37  1  0
  8 38  1  0
  9 39  1  0
  9 40  1  0
 11 41  1  0
 12 42  1  0
 13 43  1  0
 14 44  1  0
 16 45  1  0
 16 46  1  0
 20 47  1  0
 20 48  1  0
 21 49  1  0
 21 50  1  0
 23 51  1  0
 24 52  1  0
 25 53  1  0
 26 54  1  0
 28 55  1  0
 28 56  1  0
 30 57  1  1
 31 58  1  0
 31 59  1  0
 32 60  1  0
 32 61  1  0
 33 62  1  0
 33 63  1  0
 34 64  1  0
 35 65  1  0
 35 66  1  0
M  END
>  <smiles>  (73) 
O=C(Nc1nc(N2CCc3ccccc3C2)nc(N2CCc3ccccc3C2)n1)C1CCCNC1

>  <score_type>  (73) 
oracle

>  <origin>  (73) 
autodockgpu

>  <m_score__min__energy>  (73) 
-9.5399999999999991

>  <m_primary>  (73) 
energy

>  <rmsd>  (73) 
7.616687467588668

>  <m_score__min__rmsd>  (73) 
7.616687467588668

>  <meeko>  (73) 
{"free_energy": -9.32, "intermolecular_energy": -10.51, "internal_energy": -0.84, "cluster_size": 24, "cluster_id": 2, "rank_in_cluster": 14}

>  <energy>  (73) 
-8.85

>  <cluster_rmsd>  (73) 
1.59

>  <cluster>  (73) 
1

$$$$

     RDKit          3D

 66 71  0  0  1  0  0  0  0  0999 V2000
  139.2910   75.6230  222.3750 O   0  0  0  0  0  0  0  0  0  0  0  0
  140.3150   76.2390  221.9640 C   0  0  0  0  0  0  0  0  0  0  0  0
  141.4500   75.4940  221.5380 N   0  0  0  0  0  0  0  0  0  0  0  0
  141.4970   74.0720  221.5500 C   0  0  0  0  0  0  0  0  0  0  0  0
  140.7280   73.3730  222.4250 N   0  0  0  0  0  0  0  0  0  0  0  0
  140.7490   72.0330  222.4610 C   0  0  0  0  0  0  0  0  0  0  0  0
  139.9290   71.3360  223.3920 N   0  0  0  0  0  0  0  0  0  0  0  0
  138.9680   70.3970  222.8480 C   0  0  0  0  0  0  0  0  0  0  0  0
  138.1010   69.7980  223.9340 C   0  0  0  0  0  0  0  0  0  0  0  0
  139.0250   69.3730  225.0370 C   0  0  0  0  0  0  0  0  0  0  0  0
  138.9130   68.1170  225.6180 C   0  0  0  0  0  0  0  0  0  0  0  0
  139.7930   67.7760  226.6340 C   0  0  0  0  0  0  0  0  0  0  0  0
  140.7590   68.6470  227.0670 C   0  0  0  0  0  0  0  0  0  0  0  0
  140.8860   69.9000  226.5030 C   0  0  0  0  0  0  0  0  0  0  0  0
  140.0110   70.2310  225.4970 C   0  0  0  0  0  0  0  0  0  0  0  0
  140.0660   71.5710  224.8160 C   0  0  0  0  0  0  0  0  0  0  0  0
  141.5640   71.3800  221.5960 N   0  0  0  0  0  0  0  0  0  0  0  0
  142.3400   72.0300  220.7170 C   0  0  0  0  0  0  0  0  0  0  0  0
  143.1830   71.3150  219.8240 N   0  0  0  0  0  0  0  0  0  0  0  0
  144.1420   72.0290  219.0040 C   0  0  0  0  0  0  0  0  0  0  0  0
  144.1320   71.3180  217.6440 C   0  0  0  0  0  0  0  0  0  0  0  0
  144.7370   69.9870  217.9320 C   0  0  0  0  0  0  0  0  0  0  0  0
  145.7830   69.5230  217.1620 C   0  0  0  0  0  0  0  0  0  0  0  0
  146.3140   68.2820  217.4650 C   0  0  0  0  0  0  0  0  0  0  0  0
  145.7800   67.5630  218.5150 C   0  0  0  0  0  0  0  0  0  0  0  0
  144.7300   68.0360  219.2820 C   0  0  0  0  0  0  0  0  0  0  0  0
  144.1960   69.2760  218.9840 C   0  0  0  0  0  0  0  0  0  0  0  0
  143.0680   69.8720  219.7470 C   0  0  0  0  0  0  0  0  0  0  0  0
  142.2980   73.3700  220.7030 N   0  0  0  0  0  0  0  0  0  0  0  0
  140.4010   77.7170  221.8980 C   0  0  1  0  0  0  0  0  0  0  0  0
  141.0820   78.3130  223.0900 C   0  0  0  0  0  0  0  0  0  0  0  0
  141.1410   79.8120  222.8830 C   0  0  0  0  0  0  0  0  0  0  0  0
  141.8160   80.0700  221.5380 C   0  0  0  0  0  0  0  0  0  0  0  0
  141.0030   79.5400  220.4470 N   0  0  0  0  0  0  0  0  0  0  0  0
  141.0510   78.0860  220.5930 C   0  0  0  0  0  0  0  0  0  0  0  0
  142.3140   76.0090  221.1920 H   0  0  0  0  0  0  0  0  0  0  0  0
  138.3249   70.9218  222.1262 H   0  0  0  0  0  0  0  0  0  0  0  0
  139.5213   69.5815  222.3594 H   0  0  0  0  0  0  0  0  0  0  0  0
  137.3866   70.5474  224.3054 H   0  0  0  0  0  0  0  0  0  0  0  0
  137.5213   68.9447  223.5522 H   0  0  0  0  0  0  0  0  0  0  0  0
  138.1431   67.4079  225.2798 H   0  0  0  0  0  0  0  0  0  0  0  0
  139.7141   66.7842  227.1031 H   0  0  0  0  0  0  0  0  0  0  0  0
  141.4416   68.3432  227.8743 H   0  0  0  0  0  0  0  0  0  0  0  0
  141.6572   70.6057  226.8453 H   0  0  0  0  0  0  0  0  0  0  0  0
  139.2441   72.2089  225.1732 H   0  0  0  0  0  0  0  0  0  0  0  0
  141.0147   72.0820  225.0372 H   0  0  0  0  0  0  0  0  0  0  0  0
  143.8415   73.0810  218.8896 H   0  0  0  0  0  0  0  0  0  0  0  0
  145.1447   72.0284  219.4563 H   0  0  0  0  0  0  0  0  0  0  0  0
  143.1044   71.2077  217.2674 H   0  0  0  0  0  0  0  0  0  0  0  0
  144.6800   71.8749  216.8697 H   0  0  0  0  0  0  0  0  0  0  0  0
  146.1834   70.1223  216.3311 H   0  0  0  0  0  0  0  0  0  0  0  0
  147.1498   67.8742  216.8775 H   0  0  0  0  0  0  0  0  0  0  0  0
  146.2053   66.5764  218.7511 H   0  0  0  0  0  0  0  0  0  0  0  0
  144.3280   67.4372  220.1126 H   0  0  0  0  0  0  0  0  0  0  0  0
  142.1226   69.6149  219.2468 H   0  0  0  0  0  0  0  0  0  0  0  0
  143.0918   69.4686  220.7701 H   0  0  0  0  0  0  0  0  0  0  0  0
  139.3897   78.1484  221.9306 H   0  0  0  0  0  0  0  0  0  0  0  0
  140.5115   78.0826  224.0018 H   0  0  0  0  0  0  0  0  0  0  0  0
  142.0948   77.8989  223.2029 H   0  0  0  0  0  0  0  0  0  0  0  0
  140.1233   80.2295  222.8774 H   0  0  0  0  0  0  0  0  0  0  0  0
  141.7072   80.2906  223.6957 H   0  0  0  0  0  0  0  0  0  0  0  0
  141.9449   81.1536  221.3998 H   0  0  0  0  0  0  0  0  0  0  0  0
  142.7943   79.5671  221.5290 H   0  0  0  0  0  0  0  0  0  0  0  0
  140.0030   79.8130  220.6180 H   0  0  0  0  0  0  0  0  0  0  0  0
  140.5097   77.6113  219.7613 H   0  0  0  0  0  0  0  0  0  0  0  0
  142.0950   77.7396  220.5801 H   0  0  0  0  0  0  0  0  0  0  0  0
  1  2  2  0
  2  3  1  0
  3  4  1  0
  4  5  2  0
  5  6  1  0
  6  7  1  0
  7  8  1  0
  8  9  1  0
  9 10  1  0
 10 11  2  0
 11 12  1  0
 12 13  2  0
 13 14  1  0
 14 15  2  0
 15 16  1  0
  6 17  2  0
 17 18  1  0
 18 19  1  0
 19 20  1  0
 20 21  1  0
 21 22  1  0
 22 23  2  0
 23 24  1  0
 24 25  2  0
 25 26  1  0
 26 27  2  0
 27 28  1  0
 18 29  2  0
  2 30  1  0
 30 31  1  0
 31 32  1  0
 32 33  1  0
 33 34  1  0
 34 35  1  0
 29  4  1  0
 35 30  1  0
 16  7  1  0
 28 19  1  0
 15 10  1  0
 27 22  1  0
  3 36  1  0
  8 37  1  0
  8 38  1  0
  9 39  1  0
  9 40  1  0
 11 41  1  0
 12 42  1  0
 13 43  1  0
 14 44  1  0
 16 45  1  0
 16 46  1  0
 20 47  1  0
 20 48  1  0
 21 49  1  0
 21 50  1  0
 23 51  1  0
 24 52  1  0
 25 53  1  0
 26 54  1  0
 28 55  1  0
 28 56  1  0
 30 57  1  6
 31 58  1  0
 31 59  1  0
 32 60  1  0
 32 61  1  0
 33 62  1  0
 33 63  1  0
 34 64  1  0
 35 65  1  0
 35 66  1  0
M  END
>  <smiles>  (74) 
O=C(Nc1nc(N2CCc3ccccc3C2)nc(N2CCc3ccccc3C2)n1)C1CCCNC1

>  <score_type>  (74) 
oracle

>  <origin>  (74) 
autodockgpu

>  <m_score__min__energy>  (74) 
-9.5399999999999991

>  <m_primary>  (74) 
energy

>  <rmsd>  (74) 
5.095624802024843

>  <m_score__min__rmsd>  (74) 
5.095624802024843

>  <meeko>  (74) 
{"free_energy": -9.49, "intermolecular_energy": -10.69, "internal_energy": -0.79, "cluster_size": 23, "cluster_id": 1, "rank_in_cluster": 5}

>  <energy>  (74) 
-9.47

>  <cluster_rmsd>  (74) 
0.0

>  <cluster>  (74) 
2

$$$$

     RDKit          3D

 66 71  0  0  1  0  0  0  0  0999 V2000
  141.4620   71.8530  225.4720 O   0  0  0  0  0  0  0  0  0  0  0  0
  140.4770   71.1090  225.2000 C   0  0  0  0  0  0  0  0  0  0  0  0
  139.9240   71.1390  223.8900 N   0  0  0  0  0  0  0  0  0  0  0  0
  140.4260   71.9730  222.8520 C   0  0  0  0  0  0  0  0  0  0  0  0
  139.9720   73.2460  222.7230 N   0  0  0  0  0  0  0  0  0  0  0  0
  140.4250   74.0580  221.7560 C   0  0  0  0  0  0  0  0  0  0  0  0
  139.9240   75.3860  221.6530 N   0  0  0  0  0  0  0  0  0  0  0  0
  138.5180   75.5830  221.9440 C   0  0  0  0  0  0  0  0  0  0  0  0
  138.0970   77.0170  221.7070 C   0  0  0  0  0  0  0  0  0  0  0  0
  139.1290   77.8830  222.3670 C   0  0  0  0  0  0  0  0  0  0  0  0
  138.7560   78.9410  223.1840 C   0  0  0  0  0  0  0  0  0  0  0  0
  139.7510   79.7100  223.7700 C   0  0  0  0  0  0  0  0  0  0  0  0
  141.0800   79.4440  223.5570 C   0  0  0  0  0  0  0  0  0  0  0  0
  141.4710   78.3970  222.7470 C   0  0  0  0  0  0  0  0  0  0  0  0
  140.4790   77.6400  222.1710 C   0  0  0  0  0  0  0  0  0  0  0  0
  140.8000   76.4770  221.2740 C   0  0  0  0  0  0  0  0  0  0  0  0
  141.3580   73.5750  220.8980 N   0  0  0  0  0  0  0  0  0  0  0  0
  141.8320   72.3250  220.9890 C   0  0  0  0  0  0  0  0  0  0  0  0
  142.8100   71.8500  220.0730 N   0  0  0  0  0  0  0  0  0  0  0  0
  143.7860   72.7660  219.5160 C   0  0  0  0  0  0  0  0  0  0  0  0
  143.9610   72.3400  218.0520 C   0  0  0  0  0  0  0  0  0  0  0  0
  144.6370   71.0150  218.1440 C   0  0  0  0  0  0  0  0  0  0  0  0
  145.7840   70.7730  217.4180 C   0  0  0  0  0  0  0  0  0  0  0  0
  146.3780   69.5290  217.5330 C   0  0  0  0  0  0  0  0  0  0  0  0
  145.8020   68.5860  218.3610 C   0  0  0  0  0  0  0  0  0  0  0  0
  144.6500   68.8370  219.0850 C   0  0  0  0  0  0  0  0  0  0  0  0
  144.0530   70.0800  218.9740 C   0  0  0  0  0  0  0  0  0  0  0  0
  142.8150   70.4470  219.7090 C   0  0  0  0  0  0  0  0  0  0  0  0
  141.3620   71.5360  221.9660 N   0  0  0  0  0  0  0  0  0  0  0  0
  139.8560   70.1920  226.1860 C   0  0  1  0  0  0  0  0  0  0  0  0
  140.2450   68.7630  225.9760 C   0  0  0  0  0  0  0  0  0  0  0  0
  139.5820   67.9420  227.0620 C   0  0  0  0  0  0  0  0  0  0  0  0
  139.9800   68.5440  228.4070 C   0  0  0  0  0  0  0  0  0  0  0  0
  139.4490   69.8980  228.5390 N   0  0  0  0  0  0  0  0  0  0  0  0
  140.1820   70.7020  227.5620 C   0  0  0  0  0  0  0  0  0  0  0  0
  139.0950   70.5140  223.6580 H   0  0  0  0  0  0  0  0  0  0  0  0
  137.9231   74.9241  221.2945 H   0  0  0  0  0  0  0  0  0  0  0  0
  138.3490   75.3450  223.0046 H   0  0  0  0  0  0  0  0  0  0  0  0
  138.0589   77.2277  220.6280 H   0  0  0  0  0  0  0  0  0  0  0  0
  137.0958   77.2092  222.1201 H   0  0  0  0  0  0  0  0  0  0  0  0
  137.6941   79.1651  223.3631 H   0  0  0  0  0  0  0  0  0  0  0  0
  139.4682   80.5514  224.4196 H   0  0  0  0  0  0  0  0  0  0  0  0
  141.8436   80.0731  224.0378 H   0  0  0  0  0  0  0  0  0  0  0  0
  142.5341   78.1773  222.5696 H   0  0  0  0  0  0  0  0  0  0  0  0
  140.6254   76.7524  220.2234 H   0  0  0  0  0  0  0  0  0  0  0  0
  141.8550   76.1838  221.3787 H   0  0  0  0  0  0  0  0  0  0  0  0
  143.4182   73.8011  219.5737 H   0  0  0  0  0  0  0  0  0  0  0  0
  144.7375   72.7323  220.0669 H   0  0  0  0  0  0  0  0  0  0  0  0
  142.9857   72.2481  217.5516 H   0  0  0  0  0  0  0  0  0  0  0  0
  144.5356   73.0700  217.4630 H   0  0  0  0  0  0  0  0  0  0  0  0
  146.2145   71.5472  216.7659 H   0  0  0  0  0  0  0  0  0  0  0  0
  147.2954   69.2945  216.9732 H   0  0  0  0  0  0  0  0  0  0  0  0
  146.2770   67.5977  218.4483 H   0  0  0  0  0  0  0  0  0  0  0  0
  144.2172   68.0633  219.7362 H   0  0  0  0  0  0  0  0  0  0  0  0
  141.9446   70.2406  219.0688 H   0  0  0  0  0  0  0  0  0  0  0  0
  142.7719   69.8506  220.6323 H   0  0  0  0  0  0  0  0  0  0  0  0
  138.7642   70.1891  226.0519 H   0  0  0  0  0  0  0  0  0  0  0  0
  139.9029   68.4228  224.9874 H   0  0  0  0  0  0  0  0  0  0  0  0
  141.3383   68.6504  226.0206 H   0  0  0  0  0  0  0  0  0  0  0  0
  138.4889   67.9779  226.9442 H   0  0  0  0  0  0  0  0  0  0  0  0
  139.9019   66.8914  227.0003 H   0  0  0  0  0  0  0  0  0  0  0  0
  139.5786   67.9173  229.2170 H   0  0  0  0  0  0  0  0  0  0  0  0
  141.0776   68.5850  228.4674 H   0  0  0  0  0  0  0  0  0  0  0  0
  138.4500   69.8930  228.2160 H   0  0  0  0  0  0  0  0  0  0  0  0
  139.8809   71.7565  227.6481 H   0  0  0  0  0  0  0  0  0  0  0  0
  141.2638   70.6262  227.7462 H   0  0  0  0  0  0  0  0  0  0  0  0
  1  2  2  0
  2  3  1  0
  3  4  1  0
  4  5  2  0
  5  6  1  0
  6  7  1  0
  7  8  1  0
  8  9  1  0
  9 10  1  0
 10 11  2  0
 11 12  1  0
 12 13  2  0
 13 14  1  0
 14 15  2  0
 15 16  1  0
  6 17  2  0
 17 18  1  0
 18 19  1  0
 19 20  1  0
 20 21  1  0
 21 22  1  0
 22 23  2  0
 23 24  1  0
 24 25  2  0
 25 26  1  0
 26 27  2  0
 27 28  1  0
 18 29  2  0
  2 30  1  0
 30 31  1  0
 31 32  1  0
 32 33  1  0
 33 34  1  0
 34 35  1  0
 29  4  1  0
 35 30  1  0
 16  7  1  0
 28 19  1  0
 15 10  1  0
 27 22  1  0
  3 36  1  0
  8 37  1  0
  8 38  1  0
  9 39  1  0
  9 40  1  0
 11 41  1  0
 12 42  1  0
 13 43  1  0
 14 44  1  0
 16 45  1  0
 16 46  1  0
 20 47  1  0
 20 48  1  0
 21 49  1  0
 21 50  1  0
 23 51  1  0
 24 52  1  0
 25 53  1  0
 26 54  1  0
 28 55  1  0
 28 56  1  0
 30 57  1  6
 31 58  1  0
 31 59  1  0
 32 60  1  0
 32 61  1  0
 33 62  1  0
 33 63  1  0
 34 64  1  0
 35 65  1  0
 35 66  1  0
M  END
>  <smiles>  (75) 
O=C(Nc1nc(N2CCc3ccccc3C2)nc(N2CCc3ccccc3C2)n1)C1CCCNC1

>  <score_type>  (75) 
oracle

>  <origin>  (75) 
autodockgpu

>  <m_score__min__energy>  (75) 
-9.5399999999999991

>  <m_primary>  (75) 
energy

>  <rmsd>  (75) 
10.299012800532656

>  <m_score__min__rmsd>  (75) 
10.299012800532656

>  <meeko>  (75) 
{"free_energy": -9.13, "intermolecular_energy": -10.32, "internal_energy": -0.81, "cluster_size": 3, "cluster_id": 3, "rank_in_cluster": 1}

>  <energy>  (75) 
-9.46

>  <cluster_rmsd>  (75) 
0.05

>  <cluster>  (75) 
2

$$$$

     RDKit          3D

 66 71  0  0  1  0  0  0  0  0999 V2000
  144.8560   73.6370  220.5470 O   0  0  0  0  0  0  0  0  0  0  0  0
  144.4080   73.0940  219.4970 C   0  0  0  0  0  0  0  0  0  0  0  0
  143.0140   72.8300  219.3920 N   0  0  0  0  0  0  0  0  0  0  0  0
  142.0820   73.1490  220.4190 C   0  0  0  0  0  0  0  0  0  0  0  0
  141.6180   74.4190  220.5470 N   0  0  0  0  0  0  0  0  0  0  0  0
  140.7390   74.7510  221.5030 C   0  0  0  0  0  0  0  0  0  0  0  0
  140.2760   76.0930  221.6050 N   0  0  0  0  0  0  0  0  0  0  0  0
  139.0370   76.3080  222.3260 C   0  0  0  0  0  0  0  0  0  0  0  0
  138.6120   77.7590  222.2800 C   0  0  0  0  0  0  0  0  0  0  0  0
  139.8260   78.5750  222.6140 C   0  0  0  0  0  0  0  0  0  0  0  0
  139.7610   79.6060  223.5410 C   0  0  0  0  0  0  0  0  0  0  0  0
  140.9140   80.3280  223.8120 C   0  0  0  0  0  0  0  0  0  0  0  0
  142.1010   80.0420  223.1870 C   0  0  0  0  0  0  0  0  0  0  0  0
  142.1860   79.0220  222.2620 C   0  0  0  0  0  0  0  0  0  0  0  0
  141.0390   78.3110  221.9990 C   0  0  0  0  0  0  0  0  0  0  0  0
  141.0260   77.1800  221.0080 C   0  0  0  0  0  0  0  0  0  0  0  0
  140.3180   73.7820  222.3530 N   0  0  0  0  0  0  0  0  0  0  0  0
  140.7510   72.5160  222.2630 C   0  0  0  0  0  0  0  0  0  0  0  0
  140.2890   71.5240  223.1700 N   0  0  0  0  0  0  0  0  0  0  0  0
  139.4240   70.4590  222.7000 C   0  0  0  0  0  0  0  0  0  0  0  0
  138.4030   70.2330  223.8230 C   0  0  0  0  0  0  0  0  0  0  0  0
  139.2130   69.6550  224.9330 C   0  0  0  0  0  0  0  0  0  0  0  0
  138.8100   68.4880  225.5470 C   0  0  0  0  0  0  0  0  0  0  0  0
  139.5920   67.9880  226.5720 C   0  0  0  0  0  0  0  0  0  0  0  0
  140.7350   68.6700  226.9370 C   0  0  0  0  0  0  0  0  0  0  0  0
  141.1320   69.8410  226.3160 C   0  0  0  0  0  0  0  0  0  0  0  0
  140.3540   70.3450  225.2900 C   0  0  0  0  0  0  0  0  0  0  0  0
  140.6940   71.5950  224.5600 C   0  0  0  0  0  0  0  0  0  0  0  0
  141.6280   72.2130  221.2960 N   0  0  0  0  0  0  0  0  0  0  0  0
  145.2670   72.7110  218.3510 C   0  0  1  0  0  0  0  0  0  0  0  0
  145.0550   71.2970  217.9130 C   0  0  0  0  0  0  0  0  0  0  0  0
  145.9550   71.0450  216.7210 C   0  0  0  0  0  0  0  0  0  0  0  0
  145.6490   72.1140  215.6750 C   0  0  0  0  0  0  0  0  0  0  0  0
  146.0010   73.4390  216.1790 N   0  0  0  0  0  0  0  0  0  0  0  0
  145.0490   73.7150  217.2530 C   0  0  0  0  0  0  0  0  0  0  0  0
  142.6340   72.3740  218.5100 H   0  0  0  0  0  0  0  0  0  0  0  0
  138.2480   75.6901  221.8725 H   0  0  0  0  0  0  0  0  0  0  0  0
  139.1976   76.0291  223.3779 H   0  0  0  0  0  0  0  0  0  0  0  0
  138.2478   78.0156  221.2743 H   0  0  0  0  0  0  0  0  0  0  0  0
  137.7959   77.9548  222.9911 H   0  0  0  0  0  0  0  0  0  0  0  0
  138.8156   79.8454  224.0498 H   0  0  0  0  0  0  0  0  0  0  0  0
  140.8756   81.1480  224.5442 H   0  0  0  0  0  0  0  0  0  0  0  0
  142.9969   80.6337  223.4264 H   0  0  0  0  0  0  0  0  0  0  0  0
  143.1336   78.7870  221.7551 H   0  0  0  0  0  0  0  0  0  0  0  0
  140.5422   77.5030  220.0744 H   0  0  0  0  0  0  0  0  0  0  0  0
  142.0508   76.8605  220.7680 H   0  0  0  0  0  0  0  0  0  0  0  0
  138.9147   70.7588  221.7722 H   0  0  0  0  0  0  0  0  0  0  0  0
  139.9904   69.5436  222.4737 H   0  0  0  0  0  0  0  0  0  0  0  0
  137.9412   71.1833  224.1292 H   0  0  0  0  0  0  0  0  0  0  0  0
  137.5740   69.5779  223.5171 H   0  0  0  0  0  0  0  0  0  0  0  0
  137.8928   67.9697  225.2305 H   0  0  0  0  0  0  0  0  0  0  0  0
  139.3071   67.0599  227.0891 H   0  0  0  0  0  0  0  0  0  0  0  0
  141.3538   68.2674  227.7525 H   0  0  0  0  0  0  0  0  0  0  0  0
  142.0484   70.3607  226.6323 H   0  0  0  0  0  0  0  0  0  0  0  0
  140.1794   72.4406  225.0397 H   0  0  0  0  0  0  0  0  0  0  0  0
  141.7851   71.7302  224.5956 H   0  0  0  0  0  0  0  0  0  0  0  0
  146.3236   72.7348  218.6561 H   0  0  0  0  0  0  0  0  0  0  0  0
  145.3145   70.6085  218.7307 H   0  0  0  0  0  0  0  0  0  0  0  0
  144.0017   71.1309  217.6428 H   0  0  0  0  0  0  0  0  0  0  0  0
  147.0095   71.1111  217.0270 H   0  0  0  0  0  0  0  0  0  0  0  0
  145.7772   70.0406  216.3092 H   0  0  0  0  0  0  0  0  0  0  0  0
  146.2308   71.9067  214.7647 H   0  0  0  0  0  0  0  0  0  0  0  0
  144.5724   72.0936  215.4501 H   0  0  0  0  0  0  0  0  0  0  0  0
  146.9430   73.3770  216.6390 H   0  0  0  0  0  0  0  0  0  0  0  0
  145.2116   74.7312  217.6414 H   0  0  0  0  0  0  0  0  0  0  0  0
  144.0193   73.6416  216.8731 H   0  0  0  0  0  0  0  0  0  0  0  0
  1  2  2  0
  2  3  1  0
  3  4  1  0
  4  5  2  0
  5  6  1  0
  6  7  1  0
  7  8  1  0
  8  9  1  0
  9 10  1  0
 10 11  2  0
 11 12  1  0
 12 13  2  0
 13 14  1  0
 14 15  2  0
 15 16  1  0
  6 17  2  0
 17 18  1  0
 18 19  1  0
 19 20  1  0
 20 21  1  0
 21 22  1  0
 22 23  2  0
 23 24  1  0
 24 25  2  0
 25 26  1  0
 26 27  2  0
 27 28  1  0
 18 29  2  0
  2 30  1  0
 30 31  1  0
 31 32  1  0
 32 33  1  0
 33 34  1  0
 34 35  1  0
 29  4  1  0
 35 30  1  0
 16  7  1  0
 28 19  1  0
 15 10  1  0
 27 22  1  0
  3 36  1  0
  8 37  1  0
  8 38  1  0
  9 39  1  0
  9 40  1  0
 11 41  1  0
 12 42  1  0
 13 43  1  0
 14 44  1  0
 16 45  1  0
 16 46  1  0
 20 47  1  0
 20 48  1  0
 21 49  1  0
 21 50  1  0
 23 51  1  0
 24 52  1  0
 25 53  1  0
 26 54  1  0
 28 55  1  0
 28 56  1  0
 30 57  1  1
 31 58  1  0
 31 59  1  0
 32 60  1  0
 32 61  1  0
 33 62  1  0
 33 63  1  0
 34 64  1  0
 35 65  1  0
 35 66  1  0
M  END
>  <smiles>  (76) 
O=C(Nc1nc(N2CCc3ccccc3C2)nc(N2CCc3ccccc3C2)n1)C1CCCNC1

>  <score_type>  (76) 
oracle

>  <origin>  (76) 
autodockgpu

>  <m_score__min__energy>  (76) 
-9.5399999999999991

>  <m_primary>  (76) 
energy

>  <rmsd>  (76) 
7.134076319033689

>  <m_score__min__rmsd>  (76) 
7.134076319033689

>  <meeko>  (76) 
{"free_energy": -9.41, "intermolecular_energy": -10.6, "internal_energy": -0.85, "cluster_size": 24, "cluster_id": 2, "rank_in_cluster": 11}

>  <energy>  (76) 
-9.46

>  <cluster_rmsd>  (76) 
0.07

>  <cluster>  (76) 
2

$$$$

     RDKit          3D

 66 71  0  0  1  0  0  0  0  0999 V2000
  141.8950   74.3080  217.7190 O   0  0  0  0  0  0  0  0  0  0  0  0
  142.9480   73.6930  218.0530 C   0  0  0  0  0  0  0  0  0  0  0  0
  143.1170   73.2860  219.4050 N   0  0  0  0  0  0  0  0  0  0  0  0
  142.1500   73.5360  220.4190 C   0  0  0  0  0  0  0  0  0  0  0  0
  141.6700   74.7920  220.6070 N   0  0  0  0  0  0  0  0  0  0  0  0
  140.7580   75.0600  221.5530 C   0  0  0  0  0  0  0  0  0  0  0  0
  140.2790   76.3890  221.7190 N   0  0  0  0  0  0  0  0  0  0  0  0
  139.1450   76.5740  222.6030 C   0  0  0  0  0  0  0  0  0  0  0  0
  138.6800   78.0140  222.6170 C   0  0  0  0  0  0  0  0  0  0  0  0
  139.9060   78.8610  222.7820 C   0  0  0  0  0  0  0  0  0  0  0  0
  139.9420   79.8930  223.7100 C   0  0  0  0  0  0  0  0  0  0  0  0
  141.1020   80.6440  223.8220 C   0  0  0  0  0  0  0  0  0  0  0  0
  142.2000   80.3890  223.0400 C   0  0  0  0  0  0  0  0  0  0  0  0
  142.1840   79.3680  222.1110 C   0  0  0  0  0  0  0  0  0  0  0  0
  141.0310   78.6270  222.0060 C   0  0  0  0  0  0  0  0  0  0  0  0
  140.9120   77.4940  221.0260 C   0  0  0  0  0  0  0  0  0  0  0  0
  140.3200   74.0390  222.3300 N   0  0  0  0  0  0  0  0  0  0  0  0
  140.7680   72.7840  222.1800 C   0  0  0  0  0  0  0  0  0  0  0  0
  140.2880   71.7360  223.0120 N   0  0  0  0  0  0  0  0  0  0  0  0
  139.4060   70.7240  222.4650 C   0  0  0  0  0  0  0  0  0  0  0  0
  138.3790   70.4340  223.5690 C   0  0  0  0  0  0  0  0  0  0  0  0
  139.1780   69.7620  224.6330 C   0  0  0  0  0  0  0  0  0  0  0  0
  138.7540   68.5610  225.1600 C   0  0  0  0  0  0  0  0  0  0  0  0
  139.5260   67.9730  226.1450 C   0  0  0  0  0  0  0  0  0  0  0  0
  140.6810   68.6060  226.5590 C   0  0  0  0  0  0  0  0  0  0  0  0
  141.0980   69.8120  226.0250 C   0  0  0  0  0  0  0  0  0  0  0  0
  140.3300   70.4040  225.0400 C   0  0  0  0  0  0  0  0  0  0  0  0
  140.6930   71.6970  224.4030 C   0  0  0  0  0  0  0  0  0  0  0  0
  141.6790   72.5450  221.2250 N   0  0  0  0  0  0  0  0  0  0  0  0
  144.0350   73.3680  217.0980 C   0  0  1  0  0  0  0  0  0  0  0  0
  144.2100   74.4090  216.0390 C   0  0  0  0  0  0  0  0  0  0  0  0
  145.3660   73.9800  215.1600 C   0  0  0  0  0  0  0  0  0  0  0  0
  146.5750   73.7480  216.0640 C   0  0  0  0  0  0  0  0  0  0  0  0
  146.3240   72.6370  216.9770 N   0  0  0  0  0  0  0  0  0  0  0  0
  145.2860   73.1080  217.8920 C   0  0  0  0  0  0  0  0  0  0  0  0
  144.0020   72.7690  219.6890 H   0  0  0  0  0  0  0  0  0  0  0  0
  138.3176   75.9348  222.2611 H   0  0  0  0  0  0  0  0  0  0  0  0
  139.4552   76.3022  223.6228 H   0  0  0  0  0  0  0  0  0  0  0  0
  138.1748   78.2585  221.6709 H   0  0  0  0  0  0  0  0  0  0  0  0
  137.9642   78.1907  223.4333 H   0  0  0  0  0  0  0  0  0  0  0  0
  139.0689   80.1102  224.3429 H   0  0  0  0  0  0  0  0  0  0  0  0
  141.1429   81.4633  224.5549 H   0  0  0  0  0  0  0  0  0  0  0  0
  143.1038   81.0054  223.1546 H   0  0  0  0  0  0  0  0  0  0  0  0
  143.0594   79.1558  221.4797 H   0  0  0  0  0  0  0  0  0  0  0  0
  140.2969   77.8019  220.1676 H   0  0  0  0  0  0  0  0  0  0  0  0
  141.9025   77.2005  220.6481 H   0  0  0  0  0  0  0  0  0  0  0  0
  138.9034   71.0998  221.5616 H   0  0  0  0  0  0  0  0  0  0  0  0
  139.9568   69.8180  222.1721 H   0  0  0  0  0  0  0  0  0  0  0  0
  137.9336   71.3671  223.9443 H   0  0  0  0  0  0  0  0  0  0  0  0
  137.5387   69.8180  223.2161 H   0  0  0  0  0  0  0  0  0  0  0  0
  137.8278   68.0839  224.8070 H   0  0  0  0  0  0  0  0  0  0  0  0
  139.2242   67.0145  226.5924 H   0  0  0  0  0  0  0  0  0  0  0  0
  141.2921   68.1339  227.3424 H   0  0  0  0  0  0  0  0  0  0  0  0
  142.0234   70.2909  226.3776 H   0  0  0  0  0  0  0  0  0  0  0  0
  140.1936   72.5145  224.9437 H   0  0  0  0  0  0  0  0  0  0  0  0
  141.7864   71.8086  224.4474 H   0  0  0  0  0  0  0  0  0  0  0  0
  143.7719   72.4620  216.5324 H   0  0  0  0  0  0  0  0  0  0  0  0
  143.2923   74.4904  215.4381 H   0  0  0  0  0  0  0  0  0  0  0  0
  144.4137   75.3902  216.4925 H   0  0  0  0  0  0  0  0  0  0  0  0
  145.1096   73.0502  214.6311 H   0  0  0  0  0  0  0  0  0  0  0  0
  145.5881   74.7538  214.4104 H   0  0  0  0  0  0  0  0  0  0  0  0
  147.4523   73.5150  215.4427 H   0  0  0  0  0  0  0  0  0  0  0  0
  146.7590   74.6585  216.6532 H   0  0  0  0  0  0  0  0  0  0  0  0
  145.8910   71.8520  216.4310 H   0  0  0  0  0  0  0  0  0  0  0  0
  145.0885   72.3415  218.6559 H   0  0  0  0  0  0  0  0  0  0  0  0
  145.6142   74.0307  218.3929 H   0  0  0  0  0  0  0  0  0  0  0  0
  1  2  2  0
  2  3  1  0
  3  4  1  0
  4  5  2  0
  5  6  1  0
  6  7  1  0
  7  8  1  0
  8  9  1  0
  9 10  1  0
 10 11  2  0
 11 12  1  0
 12 13  2  0
 13 14  1  0
 14 15  2  0
 15 16  1  0
  6 17  2  0
 17 18  1  0
 18 19  1  0
 19 20  1  0
 20 21  1  0
 21 22  1  0
 22 23  2  0
 23 24  1  0
 24 25  2  0
 25 26  1  0
 26 27  2  0
 27 28  1  0
 18 29  2  0
  2 30  1  0
 30 31  1  0
 31 32  1  0
 32 33  1  0
 33 34  1  0
 34 35  1  0
 29  4  1  0
 35 30  1  0
 16  7  1  0
 28 19  1  0
 15 10  1  0
 27 22  1  0
  3 36  1  0
  8 37  1  0
  8 38  1  0
  9 39  1  0
  9 40  1  0
 11 41  1  0
 12 42  1  0
 13 43  1  0
 14 44  1  0
 16 45  1  0
 16 46  1  0
 20 47  1  0
 20 48  1  0
 21 49  1  0
 21 50  1  0
 23 51  1  0
 24 52  1  0
 25 53  1  0
 26 54  1  0
 28 55  1  0
 28 56  1  0
 30 57  1  6
 31 58  1  0
 31 59  1  0
 32 60  1  0
 32 61  1  0
 33 62  1  0
 33 63  1  0
 34 64  1  0
 35 65  1  0
 35 66  1  0
M  END
>  <smiles>  (77) 
O=C(Nc1nc(N2CCc3ccccc3C2)nc(N2CCc3ccccc3C2)n1)C1CCCNC1

>  <score_type>  (77) 
oracle

>  <origin>  (77) 
autodockgpu

>  <m_score__min__energy>  (77) 
-9.5399999999999991

>  <m_primary>  (77) 
energy

>  <rmsd>  (77) 
6.308255941630694

>  <m_score__min__rmsd>  (77) 
6.308255941630694

>  <meeko>  (77) 
{"free_energy": -9.07, "intermolecular_energy": -10.26, "internal_energy": -0.78, "cluster_size": 24, "cluster_id": 2, "rank_in_cluster": 20}

>  <energy>  (77) 
-9.46

>  <cluster_rmsd>  (77) 
0.17

>  <cluster>  (77) 
2

$$$$

     RDKit          3D

 66 71  0  0  1  0  0  0  0  0999 V2000
  144.7800   73.0890  220.9900 O   0  0  0  0  0  0  0  0  0  0  0  0
  144.3460   72.6000  219.9090 C   0  0  0  0  0  0  0  0  0  0  0  0
  142.9450   72.4120  219.7450 N   0  0  0  0  0  0  0  0  0  0  0  0
  141.9920   72.7490  220.7460 C   0  0  0  0  0  0  0  0  0  0  0  0
  141.4770   74.0040  220.8000 N   0  0  0  0  0  0  0  0  0  0  0  0
  140.5770   74.3540  221.7300 C   0  0  0  0  0  0  0  0  0  0  0  0
  140.0610   75.6790  221.7540 N   0  0  0  0  0  0  0  0  0  0  0  0
  138.7810   75.8750  222.4070 C   0  0  0  0  0  0  0  0  0  0  0  0
  138.3050   77.3050  222.2800 C   0  0  0  0  0  0  0  0  0  0  0  0
  139.4710   78.1800  222.6350 C   0  0  0  0  0  0  0  0  0  0  0  0
  139.3240   79.2450  223.5140 C   0  0  0  0  0  0  0  0  0  0  0  0
  140.4350   80.0210  223.8070 C   0  0  0  0  0  0  0  0  0  0  0  0
  141.6600   79.7570  223.2500 C   0  0  0  0  0  0  0  0  0  0  0  0
  141.8270   78.7040  222.3740 C   0  0  0  0  0  0  0  0  0  0  0  0
  140.7210   77.9400  222.0880 C   0  0  0  0  0  0  0  0  0  0  0  0
  140.7980   76.7700  221.1470 C   0  0  0  0  0  0  0  0  0  0  0  0
  140.1870   73.4170  222.6300 N   0  0  0  0  0  0  0  0  0  0  0  0
  140.6700   72.1660  222.6130 C   0  0  0  0  0  0  0  0  0  0  0  0
  140.2400   71.2080  223.5700 N   0  0  0  0  0  0  0  0  0  0  0  0
  139.4980   70.0390  223.1420 C   0  0  0  0  0  0  0  0  0  0  0  0
  138.4330   69.8080  224.2230 C   0  0  0  0  0  0  0  0  0  0  0  0
  139.2210   69.3890  225.4170 C   0  0  0  0  0  0  0  0  0  0  0  0
  138.8810   68.2410  226.1010 C   0  0  0  0  0  0  0  0  0  0  0  0
  139.6390   67.8900  227.2030 C   0  0  0  0  0  0  0  0  0  0  0  0
  140.6960   68.6970  227.5730 C   0  0  0  0  0  0  0  0  0  0  0  0
  141.0300   69.8480  226.8820 C   0  0  0  0  0  0  0  0  0  0  0  0
  140.2750   70.2030  225.7790 C   0  0  0  0  0  0  0  0  0  0  0  0
  140.5530   71.4190  224.9700 C   0  0  0  0  0  0  0  0  0  0  0  0
  141.5680   71.8450  221.6710 N   0  0  0  0  0  0  0  0  0  0  0  0
  145.2280   72.2050  218.7850 C   0  0  1  0  0  0  0  0  0  0  0  0
  145.0160   70.7900  218.3490 C   0  0  0  0  0  0  0  0  0  0  0  0
  145.9410   70.5260  217.1790 C   0  0  0  0  0  0  0  0  0  0  0  0
  145.6650   71.5920  216.1200 C   0  0  0  0  0  0  0  0  0  0  0  0
  146.0150   72.9170  216.6250 N   0  0  0  0  0  0  0  0  0  0  0  0
  145.0410   73.2050  217.6770 C   0  0  0  0  0  0  0  0  0  0  0  0
  142.5770   72.0000  218.8360 H   0  0  0  0  0  0  0  0  0  0  0  0
  138.0382   75.2089  221.9438 H   0  0  0  0  0  0  0  0  0  0  0  0
  138.9012   75.6458  223.4761 H   0  0  0  0  0  0  0  0  0  0  0  0
  137.9800   77.5063  221.2486 H   0  0  0  0  0  0  0  0  0  0  0  0
  137.4489   77.4977  222.9433 H   0  0  0  0  0  0  0  0  0  0  0  0
  138.3472   79.4681  223.9680 H   0  0  0  0  0  0  0  0  0  0  0  0
  140.3315   80.8674  224.5019 H   0  0  0  0  0  0  0  0  0  0  0  0
  142.5206   80.3929  223.5048 H   0  0  0  0  0  0  0  0  0  0  0  0
  142.8060   78.4849  221.9227 H   0  0  0  0  0  0  0  0  0  0  0  0
  140.3482   77.0354  220.1789 H   0  0  0  0  0  0  0  0  0  0  0  0
  141.8445   76.4815  220.9693 H   0  0  0  0  0  0  0  0  0  0  0  0
  139.0224   70.2217  222.1671 H   0  0  0  0  0  0  0  0  0  0  0  0
  140.1523   69.1631  223.0213 H   0  0  0  0  0  0  0  0  0  0  0  0
  137.8751   70.7337  224.4272 H   0  0  0  0  0  0  0  0  0  0  0  0
  137.6818   69.0612  223.9264 H   0  0  0  0  0  0  0  0  0  0  0  0
  138.0307   67.6218  225.7791 H   0  0  0  0  0  0  0  0  0  0  0  0
  139.4032   66.9813  227.7762 H   0  0  0  0  0  0  0  0  0  0  0  0
  141.2956   68.4141  228.4507 H   0  0  0  0  0  0  0  0  0  0  0  0
  141.8794   70.4686  227.2035 H   0  0  0  0  0  0  0  0  0  0  0  0
  139.9416   72.2500  225.3518 H   0  0  0  0  0  0  0  0  0  0  0  0
  141.6249   71.6516  225.0531 H   0  0  0  0  0  0  0  0  0  0  0  0
  146.2775   72.2230  219.1139 H   0  0  0  0  0  0  0  0  0  0  0  0
  145.2521   70.1038  219.1756 H   0  0  0  0  0  0  0  0  0  0  0  0
  143.9680   70.6298  218.0558 H   0  0  0  0  0  0  0  0  0  0  0  0
  146.9887   70.5873  217.5083 H   0  0  0  0  0  0  0  0  0  0  0  0
  145.7663   69.5205  216.7686 H   0  0  0  0  0  0  0  0  0  0  0  0
  146.2651   71.3760  215.2238 H   0  0  0  0  0  0  0  0  0  0  0  0
  144.5936   71.5775  215.8713 H   0  0  0  0  0  0  0  0  0  0  0  0
  146.9460   72.8510  217.1060 H   0  0  0  0  0  0  0  0  0  0  0  0
  145.2019   74.2221  218.0637 H   0  0  0  0  0  0  0  0  0  0  0  0
  144.0194   73.1364  217.2749 H   0  0  0  0  0  0  0  0  0  0  0  0
  1  2  2  0
  2  3  1  0
  3  4  1  0
  4  5  2  0
  5  6  1  0
  6  7  1  0
  7  8  1  0
  8  9  1  0
  9 10  1  0
 10 11  2  0
 11 12  1  0
 12 13  2  0
 13 14  1  0
 14 15  2  0
 15 16  1  0
  6 17  2  0
 17 18  1  0
 18 19  1  0
 19 20  1  0
 20 21  1  0
 21 22  1  0
 22 23  2  0
 23 24  1  0
 24 25  2  0
 25 26  1  0
 26 27  2  0
 27 28  1  0
 18 29  2  0
  2 30  1  0
 30 31  1  0
 31 32  1  0
 32 33  1  0
 33 34  1  0
 34 35  1  0
 29  4  1  0
 35 30  1  0
 16  7  1  0
 28 19  1  0
 15 10  1  0
 27 22  1  0
  3 36  1  0
  8 37  1  0
  8 38  1  0
  9 39  1  0
  9 40  1  0
 11 41  1  0
 12 42  1  0
 13 43  1  0
 14 44  1  0
 16 45  1  0
 16 46  1  0
 20 47  1  0
 20 48  1  0
 21 49  1  0
 21 50  1  0
 23 51  1  0
 24 52  1  0
 25 53  1  0
 26 54  1  0
 28 55  1  0
 28 56  1  0
 30 57  1  1
 31 58  1  0
 31 59  1  0
 32 60  1  0
 32 61  1  0
 33 62  1  0
 33 63  1  0
 34 64  1  0
 35 65  1  0
 35 66  1  0
M  END
>  <smiles>  (78) 
O=C(Nc1nc(N2CCc3ccccc3C2)nc(N2CCc3ccccc3C2)n1)C1CCCNC1

>  <score_type>  (78) 
oracle

>  <origin>  (78) 
autodockgpu

>  <m_score__min__energy>  (78) 
-9.5399999999999991

>  <m_primary>  (78) 
energy

>  <rmsd>  (78) 
7.340972875640722

>  <m_score__min__rmsd>  (78) 
7.340972875640722

>  <meeko>  (78) 
{"free_energy": -9.45, "intermolecular_energy": -10.64, "internal_energy": -0.84, "cluster_size": 24, "cluster_id": 2, "rank_in_cluster": 6}

>  <energy>  (78) 
-9.46

>  <cluster_rmsd>  (78) 
0.14

>  <cluster>  (78) 
2

$$$$

     RDKit          3D

 66 71  0  0  1  0  0  0  0  0999 V2000
  144.7670   72.9990  221.0080 O   0  0  0  0  0  0  0  0  0  0  0  0
  144.3270   72.5360  219.9180 C   0  0  0  0  0  0  0  0  0  0  0  0
  142.9230   72.3780  219.7450 N   0  0  0  0  0  0  0  0  0  0  0  0
  141.9730   72.7170  220.7490 C   0  0  0  0  0  0  0  0  0  0  0  0
  141.4600   73.9730  220.8050 N   0  0  0  0  0  0  0  0  0  0  0  0
  140.5640   74.3240  221.7370 C   0  0  0  0  0  0  0  0  0  0  0  0
  140.0500   75.6510  221.7630 N   0  0  0  0  0  0  0  0  0  0  0  0
  138.7620   75.8450  222.4010 C   0  0  0  0  0  0  0  0  0  0  0  0
  138.2910   77.2770  222.2770 C   0  0  0  0  0  0  0  0  0  0  0  0
  139.4530   78.1470  222.6520 C   0  0  0  0  0  0  0  0  0  0  0  0
  139.2970   79.2070  223.5350 C   0  0  0  0  0  0  0  0  0  0  0  0
  140.4060   79.9790  223.8470 C   0  0  0  0  0  0  0  0  0  0  0  0
  141.6380   79.7160  223.3040 C   0  0  0  0  0  0  0  0  0  0  0  0
  141.8140   78.6680  222.4240 C   0  0  0  0  0  0  0  0  0  0  0  0
  140.7100   77.9070  222.1190 C   0  0  0  0  0  0  0  0  0  0  0  0
  140.7960   76.7430  221.1720 C   0  0  0  0  0  0  0  0  0  0  0  0
  140.1740   73.3880  222.6380 N   0  0  0  0  0  0  0  0  0  0  0  0
  140.6550   72.1370  222.6200 C   0  0  0  0  0  0  0  0  0  0  0  0
  140.2260   71.1790  223.5790 N   0  0  0  0  0  0  0  0  0  0  0  0
  139.4730   70.0150  223.1530 C   0  0  0  0  0  0  0  0  0  0  0  0
  138.4150   69.7890  224.2420 C   0  0  0  0  0  0  0  0  0  0  0  0
  139.2090   69.3620  225.4290 C   0  0  0  0  0  0  0  0  0  0  0  0
  138.8670   68.2150  226.1120 C   0  0  0  0  0  0  0  0  0  0  0  0
  139.6310   67.8570  227.2080 C   0  0  0  0  0  0  0  0  0  0  0  0
  140.6960   68.6560  227.5720 C   0  0  0  0  0  0  0  0  0  0  0  0
  141.0320   69.8060  226.8810 C   0  0  0  0  0  0  0  0  0  0  0  0
  140.2720   70.1680  225.7840 C   0  0  0  0  0  0  0  0  0  0  0  0
  140.5510   71.3840  224.9760 C   0  0  0  0  0  0  0  0  0  0  0  0
  141.5500   71.8140  221.6750 N   0  0  0  0  0  0  0  0  0  0  0  0
  145.2040   72.1430  218.7890 C   0  0  1  0  0  0  0  0  0  0  0  0
  145.0220   70.7160  218.3800 C   0  0  0  0  0  0  0  0  0  0  0  0
  145.9390   70.4550  217.2030 C   0  0  0  0  0  0  0  0  0  0  0  0
  145.6250   71.4950  216.1300 C   0  0  0  0  0  0  0  0  0  0  0  0
  145.9490   72.8370  216.6090 N   0  0  0  0  0  0  0  0  0  0  0  0
  144.9810   73.1190  217.6670 C   0  0  0  0  0  0  0  0  0  0  0  0
  142.5500   71.9890  218.8290 H   0  0  0  0  0  0  0  0  0  0  0  0
  138.0238   75.1835  221.9240 H   0  0  0  0  0  0  0  0  0  0  0  0
  138.8677   75.6082  223.4700 H   0  0  0  0  0  0  0  0  0  0  0  0
  137.9797   77.4854  221.2428 H   0  0  0  0  0  0  0  0  0  0  0  0
  137.4271   77.4673  222.9309 H   0  0  0  0  0  0  0  0  0  0  0  0
  138.3149   79.4297  223.9776 H   0  0  0  0  0  0  0  0  0  0  0  0
  140.2953   80.8213  224.5457 H   0  0  0  0  0  0  0  0  0  0  0  0
  142.4965   80.3487  223.5736 H   0  0  0  0  0  0  0  0  0  0  0  0
  142.7982   78.4499  221.9839 H   0  0  0  0  0  0  0  0  0  0  0  0
  140.3585   77.0152  220.2001 H   0  0  0  0  0  0  0  0  0  0  0  0
  141.8440   76.4534  221.0050 H   0  0  0  0  0  0  0  0  0  0  0  0
  138.9912   70.2031  222.1822 H   0  0  0  0  0  0  0  0  0  0  0  0
  140.1205   69.1351  223.0246 H   0  0  0  0  0  0  0  0  0  0  0  0
  137.8651   70.7182  224.4525 H   0  0  0  0  0  0  0  0  0  0  0  0
  137.6565   69.0479  223.9497 H   0  0  0  0  0  0  0  0  0  0  0  0
  138.0108   67.6016  225.7946 H   0  0  0  0  0  0  0  0  0  0  0  0
  139.3933   66.9487  227.7812 H   0  0  0  0  0  0  0  0  0  0  0  0
  141.3003   68.3672  228.4446 H   0  0  0  0  0  0  0  0  0  0  0  0
  141.8873   70.4208  227.1980 H   0  0  0  0  0  0  0  0  0  0  0  0
  139.9478   72.2177  225.3648 H   0  0  0  0  0  0  0  0  0  0  0  0
  141.6250   71.6095  225.0511 H   0  0  0  0  0  0  0  0  0  0  0  0
  146.2567   72.1919  219.1044 H   0  0  0  0  0  0  0  0  0  0  0  0
  145.2852   70.0502  219.2151 H   0  0  0  0  0  0  0  0  0  0  0  0
  143.9748   70.5247  218.1030 H   0  0  0  0  0  0  0  0  0  0  0  0
  146.9888   70.5473  217.5183 H   0  0  0  0  0  0  0  0  0  0  0  0
  145.7836   69.4388  216.8116 H   0  0  0  0  0  0  0  0  0  0  0  0
  146.2197   71.2781  215.2304 H   0  0  0  0  0  0  0  0  0  0  0  0
  144.5515   71.4505  215.8942 H   0  0  0  0  0  0  0  0  0  0  0  0
  146.8870   72.8010  217.0790 H   0  0  0  0  0  0  0  0  0  0  0  0
  145.1219   74.1460  218.0349 H   0  0  0  0  0  0  0  0  0  0  0  0
  143.9570   73.0190  217.2779 H   0  0  0  0  0  0  0  0  0  0  0  0
  1  2  2  0
  2  3  1  0
  3  4  1  0
  4  5  2  0
  5  6  1  0
  6  7  1  0
  7  8  1  0
  8  9  1  0
  9 10  1  0
 10 11  2  0
 11 12  1  0
 12 13  2  0
 13 14  1  0
 14 15  2  0
 15 16  1  0
  6 17  2  0
 17 18  1  0
 18 19  1  0
 19 20  1  0
 20 21  1  0
 21 22  1  0
 22 23  2  0
 23 24  1  0
 24 25  2  0
 25 26  1  0
 26 27  2  0
 27 28  1  0
 18 29  2  0
  2 30  1  0
 30 31  1  0
 31 32  1  0
 32 33  1  0
 33 34  1  0
 34 35  1  0
 29  4  1  0
 35 30  1  0
 16  7  1  0
 28 19  1  0
 15 10  1  0
 27 22  1  0
  3 36  1  0
  8 37  1  0
  8 38  1  0
  9 39  1  0
  9 40  1  0
 11 41  1  0
 12 42  1  0
 13 43  1  0
 14 44  1  0
 16 45  1  0
 16 46  1  0
 20 47  1  0
 20 48  1  0
 21 49  1  0
 21 50  1  0
 23 51  1  0
 24 52  1  0
 25 53  1  0
 26 54  1  0
 28 55  1  0
 28 56  1  0
 30 57  1  1
 31 58  1  0
 31 59  1  0
 32 60  1  0
 32 61  1  0
 33 62  1  0
 33 63  1  0
 34 64  1  0
 35 65  1  0
 35 66  1  0
M  END
>  <smiles>  (79) 
O=C(Nc1nc(N2CCc3ccccc3C2)nc(N2CCc3ccccc3C2)n1)C1CCCNC1

>  <score_type>  (79) 
oracle

>  <origin>  (79) 
autodockgpu

>  <m_score__min__energy>  (79) 
-9.5399999999999991

>  <m_primary>  (79) 
energy

>  <rmsd>  (79) 
7.368997212889324

>  <m_score__min__rmsd>  (79) 
7.368997212889324

>  <meeko>  (79) 
{"free_energy": -9.46, "intermolecular_energy": -10.65, "internal_energy": -0.84, "cluster_size": 24, "cluster_id": 2, "rank_in_cluster": 5}

>  <energy>  (79) 
-9.45

>  <cluster_rmsd>  (79) 
0.11

>  <cluster>  (79) 
2

$$$$

     RDKit          3D

 66 71  0  0  1  0  0  0  0  0999 V2000
  139.2160   76.2180  222.2290 O   0  0  0  0  0  0  0  0  0  0  0  0
  140.3370   76.7650  222.0260 C   0  0  0  0  0  0  0  0  0  0  0  0
  141.4580   75.9510  221.7010 N   0  0  0  0  0  0  0  0  0  0  0  0
  141.3860   74.5340  221.5920 C   0  0  0  0  0  0  0  0  0  0  0  0
  142.2880   73.8640  220.8300 N   0  0  0  0  0  0  0  0  0  0  0  0
  142.2470   72.5290  220.7060 C   0  0  0  0  0  0  0  0  0  0  0  0
  143.2100   71.8620  219.8990 N   0  0  0  0  0  0  0  0  0  0  0  0
  144.5540   72.4060  219.8940 C   0  0  0  0  0  0  0  0  0  0  0  0
  145.4500   71.6630  218.9270 C   0  0  0  0  0  0  0  0  0  0  0  0
  145.2330   70.2000  219.1760 C   0  0  0  0  0  0  0  0  0  0  0  0
  146.3070   69.3300  219.3070 C   0  0  0  0  0  0  0  0  0  0  0  0
  146.0480   67.9870  219.5360 C   0  0  0  0  0  0  0  0  0  0  0  0
  144.7650   67.5110  219.6330 C   0  0  0  0  0  0  0  0  0  0  0  0
  143.6840   68.3590  219.5050 C   0  0  0  0  0  0  0  0  0  0  0  0
  143.9490   69.6880  219.2780 C   0  0  0  0  0  0  0  0  0  0  0  0
  142.8420   70.6940  219.1240 C   0  0  0  0  0  0  0  0  0  0  0  0
  141.2730   71.8530  221.3650 N   0  0  0  0  0  0  0  0  0  0  0  0
  140.3630   72.4760  222.1270 C   0  0  0  0  0  0  0  0  0  0  0  0
  139.3550   71.7370  222.8050 N   0  0  0  0  0  0  0  0  0  0  0  0
  139.7220   70.8000  223.8480 C   0  0  0  0  0  0  0  0  0  0  0  0
  138.7820   69.5990  223.6720 C   0  0  0  0  0  0  0  0  0  0  0  0
  137.4420   70.1360  224.0440 C   0  0  0  0  0  0  0  0  0  0  0  0
  136.6640   69.4710  224.9690 C   0  0  0  0  0  0  0  0  0  0  0  0
  135.4280   70.0050  225.2840 C   0  0  0  0  0  0  0  0  0  0  0  0
  135.0240   71.1710  224.6650 C   0  0  0  0  0  0  0  0  0  0  0  0
  135.8110   71.8310  223.7380 C   0  0  0  0  0  0  0  0  0  0  0  0
  137.0480   71.3020  223.4200 C   0  0  0  0  0  0  0  0  0  0  0  0
  137.9670   71.9350  222.4380 C   0  0  0  0  0  0  0  0  0  0  0  0
  140.4280   73.8100  222.2330 N   0  0  0  0  0  0  0  0  0  0  0  0
  140.5530   78.2290  222.1070 C   0  0  1  0  0  0  0  0  0  0  0  0
  141.1570   78.6570  223.4070 C   0  0  0  0  0  0  0  0  0  0  0  0
  141.3610   80.1560  223.3470 C   0  0  0  0  0  0  0  0  0  0  0  0
  142.1890   80.4630  222.1010 C   0  0  0  0  0  0  0  0  0  0  0  0
  141.4480   80.1050  220.8940 N   0  0  0  0  0  0  0  0  0  0  0  0
  141.3590   78.6460  220.9080 C   0  0  0  0  0  0  0  0  0  0  0  0
  142.4030   76.4080  221.5300 H   0  0  0  0  0  0  0  0  0  0  0  0
  144.5099   73.4647  219.5988 H   0  0  0  0  0  0  0  0  0  0  0  0
  144.9735   72.2983  220.9052 H   0  0  0  0  0  0  0  0  0  0  0  0
  145.1810   71.9152  217.8906 H   0  0  0  0  0  0  0  0  0  0  0  0
  146.5050   71.9373  219.0744 H   0  0  0  0  0  0  0  0  0  0  0  0
  147.3408   69.6980  219.2308 H   0  0  0  0  0  0  0  0  0  0  0  0
  146.8903   67.2876  219.6423 H   0  0  0  0  0  0  0  0  0  0  0  0
  144.5958   66.4395  219.8152 H   0  0  0  0  0  0  0  0  0  0  0  0
  142.6520   67.9862  219.5816 H   0  0  0  0  0  0  0  0  0  0  0  0
  142.7257   70.9665  218.0646 H   0  0  0  0  0  0  0  0  0  0  0  0
  141.8864   70.2783  219.4761 H   0  0  0  0  0  0  0  0  0  0  0  0
  140.7703   70.4875  223.7323 H   0  0  0  0  0  0  0  0  0  0  0  0
  139.6288   71.2472  224.8487 H   0  0  0  0  0  0  0  0  0  0  0  0
  138.7872   69.2472  222.6298 H   0  0  0  0  0  0  0  0  0  0  0  0
  139.0781   68.7348  224.2847 H   0  0  0  0  0  0  0  0  0  0  0  0
  137.0167   68.5428  225.4423 H   0  0  0  0  0  0  0  0  0  0  0  0
  134.7760   69.5079  226.0173 H   0  0  0  0  0  0  0  0  0  0  0  0
  134.0394   71.5911  224.9183 H   0  0  0  0  0  0  0  0  0  0  0  0
  135.4592   72.7588  223.2632 H   0  0  0  0  0  0  0  0  0  0  0  0
  137.7924   71.4905  221.4471 H   0  0  0  0  0  0  0  0  0  0  0  0
  137.7648   73.0162  222.4234 H   0  0  0  0  0  0  0  0  0  0  0  0
  139.5830   78.7474  222.0863 H   0  0  0  0  0  0  0  0  0  0  0  0
  140.4801   78.4037  224.2363 H   0  0  0  0  0  0  0  0  0  0  0  0
  142.1153   78.1437  223.5747 H   0  0  0  0  0  0  0  0  0  0  0  0
  140.3875   80.6643  223.2844 H   0  0  0  0  0  0  0  0  0  0  0  0
  141.8788   80.5106  224.2504 H   0  0  0  0  0  0  0  0  0  0  0  0
  142.4225   81.5377  222.0771 H   0  0  0  0  0  0  0  0  0  0  0  0
  143.1174   79.8742  222.1365 H   0  0  0  0  0  0  0  0  0  0  0  0
  140.4620   80.4530  220.9970 H   0  0  0  0  0  0  0  0  0  0  0  0
  140.8660   78.2954  219.9893 H   0  0  0  0  0  0  0  0  0  0  0  0
  142.3664   78.2073  220.9598 H   0  0  0  0  0  0  0  0  0  0  0  0
  1  2  2  0
  2  3  1  0
  3  4  1  0
  4  5  2  0
  5  6  1  0
  6  7  1  0
  7  8  1  0
  8  9  1  0
  9 10  1  0
 10 11  2  0
 11 12  1  0
 12 13  2  0
 13 14  1  0
 14 15  2  0
 15 16  1  0
  6 17  2  0
 17 18  1  0
 18 19  1  0
 19 20  1  0
 20 21  1  0
 21 22  1  0
 22 23  2  0
 23 24  1  0
 24 25  2  0
 25 26  1  0
 26 27  2  0
 27 28  1  0
 18 29  2  0
  2 30  1  0
 30 31  1  0
 31 32  1  0
 32 33  1  0
 33 34  1  0
 34 35  1  0
 29  4  1  0
 35 30  1  0
 16  7  1  0
 28 19  1  0
 15 10  1  0
 27 22  1  0
  3 36  1  0
  8 37  1  0
  8 38  1  0
  9 39  1  0
  9 40  1  0
 11 41  1  0
 12 42  1  0
 13 43  1  0
 14 44  1  0
 16 45  1  0
 16 46  1  0
 20 47  1  0
 20 48  1  0
 21 49  1  0
 21 50  1  0
 23 51  1  0
 24 52  1  0
 25 53  1  0
 26 54  1  0
 28 55  1  0
 28 56  1  0
 30 57  1  6
 31 58  1  0
 31 59  1  0
 32 60  1  0
 32 61  1  0
 33 62  1  0
 33 63  1  0
 34 64  1  0
 35 65  1  0
 35 66  1  0
M  END
>  <smiles>  (80) 
O=C(Nc1nc(N2CCc3ccccc3C2)nc(N2CCc3ccccc3C2)n1)C1CCCNC1

>  <score_type>  (80) 
oracle

>  <origin>  (80) 
autodockgpu

>  <m_score__min__energy>  (80) 
-9.5399999999999991

>  <m_primary>  (80) 
energy

>  <rmsd>  (80) 
5.459784425836088

>  <m_score__min__rmsd>  (80) 
5.459784425836088

>  <meeko>  (80) 
{"free_energy": -8.85, "intermolecular_energy": -10.05, "internal_energy": -0.82, "cluster_size": 23, "cluster_id": 1, "rank_in_cluster": 23}

>  <energy>  (80) 
-9.45

>  <cluster_rmsd>  (80) 
0.05

>  <cluster>  (80) 
2

$$$$

     RDKit          3D

 66 71  0  0  1  0  0  0  0  0999 V2000
  144.7840   72.8840  221.0370 O   0  0  0  0  0  0  0  0  0  0  0  0
  144.3450   72.4730  219.9260 C   0  0  0  0  0  0  0  0  0  0  0  0
  142.9390   72.3700  219.7280 N   0  0  0  0  0  0  0  0  0  0  0  0
  141.9860   72.7110  220.7290 C   0  0  0  0  0  0  0  0  0  0  0  0
  141.4730   73.9670  220.7800 N   0  0  0  0  0  0  0  0  0  0  0  0
  140.5740   74.3200  221.7100 C   0  0  0  0  0  0  0  0  0  0  0  0
  140.0590   75.6460  221.7310 N   0  0  0  0  0  0  0  0  0  0  0  0
  138.7600   75.8380  222.3460 C   0  0  0  0  0  0  0  0  0  0  0  0
  138.2910   77.2710  222.2190 C   0  0  0  0  0  0  0  0  0  0  0  0
  139.4470   78.1390  222.6190 C   0  0  0  0  0  0  0  0  0  0  0  0
  139.2740   79.1950  223.5030 C   0  0  0  0  0  0  0  0  0  0  0  0
  140.3770   79.9660  223.8390 C   0  0  0  0  0  0  0  0  0  0  0  0
  141.6190   79.7050  223.3180 C   0  0  0  0  0  0  0  0  0  0  0  0
  141.8110   78.6610  222.4370 C   0  0  0  0  0  0  0  0  0  0  0  0
  140.7130   77.9020  222.1090 C   0  0  0  0  0  0  0  0  0  0  0  0
  140.8170   76.7410  221.1580 C   0  0  0  0  0  0  0  0  0  0  0  0
  140.1820   73.3850  222.6110 N   0  0  0  0  0  0  0  0  0  0  0  0
  140.6630   72.1340  222.5970 C   0  0  0  0  0  0  0  0  0  0  0  0
  140.2310   71.1780  223.5560 N   0  0  0  0  0  0  0  0  0  0  0  0
  139.4940   70.0060  223.1290 C   0  0  0  0  0  0  0  0  0  0  0  0
  138.4250   69.7760  224.2070 C   0  0  0  0  0  0  0  0  0  0  0  0
  139.2100   69.3640  225.4060 C   0  0  0  0  0  0  0  0  0  0  0  0
  138.8690   68.2170  226.0920 C   0  0  0  0  0  0  0  0  0  0  0  0
  139.6240   67.8720  227.1990 C   0  0  0  0  0  0  0  0  0  0  0  0
  140.6780   68.6830  227.5700 C   0  0  0  0  0  0  0  0  0  0  0  0
  141.0110   69.8320  226.8760 C   0  0  0  0  0  0  0  0  0  0  0  0
  140.2610   70.1810  225.7680 C   0  0  0  0  0  0  0  0  0  0  0  0
  140.5380   71.3950  224.9560 C   0  0  0  0  0  0  0  0  0  0  0  0
  141.5610   71.8100  221.6560 N   0  0  0  0  0  0  0  0  0  0  0  0
  145.2250   72.0850  218.7980 C   0  0  1  0  0  0  0  0  0  0  0  0
  145.0620   70.6520  218.3990 C   0  0  0  0  0  0  0  0  0  0  0  0
  145.9790   70.3960  217.2220 C   0  0  0  0  0  0  0  0  0  0  0  0
  145.6490   71.4250  216.1420 C   0  0  0  0  0  0  0  0  0  0  0  0
  145.9550   72.7740  216.6110 N   0  0  0  0  0  0  0  0  0  0  0  0
  144.9860   73.0500  217.6700 C   0  0  0  0  0  0  0  0  0  0  0  0
  142.5660   72.0240  218.7950 H   0  0  0  0  0  0  0  0  0  0  0  0
  138.0305   75.1785  221.8532 H   0  0  0  0  0  0  0  0  0  0  0  0
  138.8464   75.5974  223.4159 H   0  0  0  0  0  0  0  0  0  0  0  0
  137.9987   77.4837  221.1801 H   0  0  0  0  0  0  0  0  0  0  0  0
  137.4151   77.4591  222.8573 H   0  0  0  0  0  0  0  0  0  0  0  0
  138.2837   79.4157  223.9279 H   0  0  0  0  0  0  0  0  0  0  0  0
  140.2531   80.8055  224.5389 H   0  0  0  0  0  0  0  0  0  0  0  0
  142.4725   80.3362  223.6064 H   0  0  0  0  0  0  0  0  0  0  0  0
  142.8031   78.4446  222.0139 H   0  0  0  0  0  0  0  0  0  0  0  0
  140.3981   77.0173  220.1792 H   0  0  0  0  0  0  0  0  0  0  0  0
  141.8679   76.4518  221.0095 H   0  0  0  0  0  0  0  0  0  0  0  0
  139.0218   70.1842  222.1516 H   0  0  0  0  0  0  0  0  0  0  0  0
  140.1510   69.1313  223.0137 H   0  0  0  0  0  0  0  0  0  0  0  0
  137.8635   70.7009  224.4053 H   0  0  0  0  0  0  0  0  0  0  0  0
  137.6771   69.0259  223.9105 H   0  0  0  0  0  0  0  0  0  0  0  0
  138.0216   67.5947  225.7685 H   0  0  0  0  0  0  0  0  0  0  0  0
  139.3880   66.9650  227.7750 H   0  0  0  0  0  0  0  0  0  0  0  0
  141.2754   68.4048  228.4508 H   0  0  0  0  0  0  0  0  0  0  0  0
  141.8567   70.4566  227.1994 H   0  0  0  0  0  0  0  0  0  0  0  0
  139.9225   72.2252  225.3326 H   0  0  0  0  0  0  0  0  0  0  0  0
  141.6088   71.6316  225.0423 H   0  0  0  0  0  0  0  0  0  0  0  0
  146.2776   72.1511  219.1106 H   0  0  0  0  0  0  0  0  0  0  0  0
  145.3368   69.9957  219.2379 H   0  0  0  0  0  0  0  0  0  0  0  0
  144.0169   70.4440  218.1261 H   0  0  0  0  0  0  0  0  0  0  0  0
  147.0282   70.5043  217.5343 H   0  0  0  0  0  0  0  0  0  0  0  0
  145.8358   69.3754  216.8376 H   0  0  0  0  0  0  0  0  0  0  0  0
  146.2453   71.2102  215.2429 H   0  0  0  0  0  0  0  0  0  0  0  0
  144.5758   71.3642  215.9083 H   0  0  0  0  0  0  0  0  0  0  0  0
  146.8950   72.7550  217.0800 H   0  0  0  0  0  0  0  0  0  0  0  0
  145.1139   74.0814  218.0305 H   0  0  0  0  0  0  0  0  0  0  0  0
  143.9624   72.9333  217.2844 H   0  0  0  0  0  0  0  0  0  0  0  0
  1  2  2  0
  2  3  1  0
  3  4  1  0
  4  5  2  0
  5  6  1  0
  6  7  1  0
  7  8  1  0
  8  9  1  0
  9 10  1  0
 10 11  2  0
 11 12  1  0
 12 13  2  0
 13 14  1  0
 14 15  2  0
 15 16  1  0
  6 17  2  0
 17 18  1  0
 18 19  1  0
 19 20  1  0
 20 21  1  0
 21 22  1  0
 22 23  2  0
 23 24  1  0
 24 25  2  0
 25 26  1  0
 26 27  2  0
 27 28  1  0
 18 29  2  0
  2 30  1  0
 30 31  1  0
 31 32  1  0
 32 33  1  0
 33 34  1  0
 34 35  1  0
 29  4  1  0
 35 30  1  0
 16  7  1  0
 28 19  1  0
 15 10  1  0
 27 22  1  0
  3 36  1  0
  8 37  1  0
  8 38  1  0
  9 39  1  0
  9 40  1  0
 11 41  1  0
 12 42  1  0
 13 43  1  0
 14 44  1  0
 16 45  1  0
 16 46  1  0
 20 47  1  0
 20 48  1  0
 21 49  1  0
 21 50  1  0
 23 51  1  0
 24 52  1  0
 25 53  1  0
 26 54  1  0
 28 55  1  0
 28 56  1  0
 30 57  1  1
 31 58  1  0
 31 59  1  0
 32 60  1  0
 32 61  1  0
 33 62  1  0
 33 63  1  0
 34 64  1  0
 35 65  1  0
 35 66  1  0
M  END
>  <smiles>  (81) 
O=C(Nc1nc(N2CCc3ccccc3C2)nc(N2CCc3ccccc3C2)n1)C1CCCNC1

>  <score_type>  (81) 
oracle

>  <origin>  (81) 
autodockgpu

>  <m_score__min__energy>  (81) 
-9.5399999999999991

>  <m_primary>  (81) 
energy

>  <rmsd>  (81) 
7.417902051575745

>  <m_score__min__rmsd>  (81) 
7.417902051575745

>  <meeko>  (81) 
{"free_energy": -9.46, "intermolecular_energy": -10.65, "internal_energy": -0.84, "cluster_size": 24, "cluster_id": 2, "rank_in_cluster": 4}

>  <energy>  (81) 
-9.44

>  <cluster_rmsd>  (81) 
0.07

>  <cluster>  (81) 
2

$$$$

     RDKit          3D

 66 71  0  0  1  0  0  0  0  0999 V2000
  139.2360   75.5560  222.6300 O   0  0  0  0  0  0  0  0  0  0  0  0
  140.2230   76.2130  222.1920 C   0  0  0  0  0  0  0  0  0  0  0  0
  141.3520   75.5140  221.6830 N   0  0  0  0  0  0  0  0  0  0  0  0
  141.4330   74.0930  221.6390 C   0  0  0  0  0  0  0  0  0  0  0  0
  140.6980   73.3430  222.4990 N   0  0  0  0  0  0  0  0  0  0  0  0
  140.7520   72.0030  222.4830 C   0  0  0  0  0  0  0  0  0  0  0  0
  139.9670   71.2510  223.4000 N   0  0  0  0  0  0  0  0  0  0  0  0
  139.1110   70.2210  222.8440 C   0  0  0  0  0  0  0  0  0  0  0  0
  138.2660   69.5640  223.9130 C   0  0  0  0  0  0  0  0  0  0  0  0
  139.1860   69.2410  225.0520 C   0  0  0  0  0  0  0  0  0  0  0  0
  139.1670   67.9900  225.6530 C   0  0  0  0  0  0  0  0  0  0  0  0
  140.0400   67.7440  226.7020 C   0  0  0  0  0  0  0  0  0  0  0  0
  140.9110   68.7050  227.1490 C   0  0  0  0  0  0  0  0  0  0  0  0
  140.9450   69.9550  226.5660 C   0  0  0  0  0  0  0  0  0  0  0  0
  140.0770   70.1910  225.5260 C   0  0  0  0  0  0  0  0  0  0  0  0
  140.0360   71.5190  224.8230 C   0  0  0  0  0  0  0  0  0  0  0  0
  141.5660   71.4040  221.5780 N   0  0  0  0  0  0  0  0  0  0  0  0
  142.3080   72.1070  220.7110 C   0  0  0  0  0  0  0  0  0  0  0  0
  143.1520   71.4480  219.7750 N   0  0  0  0  0  0  0  0  0  0  0  0
  144.0240   72.2230  218.9150 C   0  0  0  0  0  0  0  0  0  0  0  0
  143.9940   71.5150  217.5530 C   0  0  0  0  0  0  0  0  0  0  0  0
  144.6940   70.2240  217.8060 C   0  0  0  0  0  0  0  0  0  0  0  0
  145.7290   69.8280  216.9850 C   0  0  0  0  0  0  0  0  0  0  0  0
  146.3510   68.6220  217.2560 C   0  0  0  0  0  0  0  0  0  0  0  0
  145.9140   67.8690  218.3270 C   0  0  0  0  0  0  0  0  0  0  0  0
  144.8740   68.2740  219.1440 C   0  0  0  0  0  0  0  0  0  0  0  0
  144.2500   69.4780  218.8780 C   0  0  0  0  0  0  0  0  0  0  0  0
  143.1240   70.0010  219.6970 C   0  0  0  0  0  0  0  0  0  0  0  0
  142.2350   73.4450  220.7500 N   0  0  0  0  0  0  0  0  0  0  0  0
  140.2700   77.6950  222.1790 C   0  0  1  0  0  0  0  0  0  0  0  0
  138.9760   78.3220  222.5890 C   0  0  0  0  0  0  0  0  0  0  0  0
  139.1680   79.8240  222.5730 C   0  0  0  0  0  0  0  0  0  0  0  0
  140.3690   80.1480  223.4580 C   0  0  0  0  0  0  0  0  0  0  0  0
  141.5890   79.5760  222.8950 N   0  0  0  0  0  0  0  0  0  0  0  0
  141.4370   78.1280  223.0240 C   0  0  0  0  0  0  0  0  0  0  0  0
  142.1850   76.0630  221.3140 H   0  0  0  0  0  0  0  0  0  0  0  0
  138.4476   70.6748  222.0930 H   0  0  0  0  0  0  0  0  0  0  0  0
  139.7503   69.4506  222.3882 H   0  0  0  0  0  0  0  0  0  0  0  0
  137.4757   70.2521  224.2475 H   0  0  0  0  0  0  0  0  0  0  0  0
  137.7781   68.6560  223.5290 H   0  0  0  0  0  0  0  0  0  0  0  0
  138.4740   67.2101  225.3045 H   0  0  0  0  0  0  0  0  0  0  0  0
  140.0339   66.7564  227.1864 H   0  0  0  0  0  0  0  0  0  0  0  0
  141.5909   68.4761  227.9828 H   0  0  0  0  0  0  0  0  0  0  0  0
  141.6390   70.7320  226.9191 H   0  0  0  0  0  0  0  0  0  0  0  0
  139.1498   72.0870  225.1426 H   0  0  0  0  0  0  0  0  0  0  0  0
  140.9283   72.1153  225.0644 H   0  0  0  0  0  0  0  0  0  0  0  0
  143.6527   73.2541  218.8203 H   0  0  0  0  0  0  0  0  0  0  0  0
  145.0450   72.2853  219.3195 H   0  0  0  0  0  0  0  0  0  0  0  0
  142.9586   71.3412  217.2247 H   0  0  0  0  0  0  0  0  0  0  0  0
  144.4688   72.1065  216.7563 H   0  0  0  0  0  0  0  0  0  0  0  0
  146.0509   70.4530  216.1390 H   0  0  0  0  0  0  0  0  0  0  0  0
  147.1815   68.2686  216.6271 H   0  0  0  0  0  0  0  0  0  0  0  0
  146.4114   66.9110  218.5387 H   0  0  0  0  0  0  0  0  0  0  0  0
  144.5497   67.6495  219.9895 H   0  0  0  0  0  0  0  0  0  0  0  0
  142.1738   69.6858  219.2412 H   0  0  0  0  0  0  0  0  0  0  0  0
  143.2218   69.5982  220.7159 H   0  0  0  0  0  0  0  0  0  0  0  0
  140.4181   78.0515  221.1490 H   0  0  0  0  0  0  0  0  0  0  0  0
  138.1816   78.0381  221.8830 H   0  0  0  0  0  0  0  0  0  0  0  0
  138.6833   77.9812  223.5931 H   0  0  0  0  0  0  0  0  0  0  0  0
  139.3570   80.1666  221.5449 H   0  0  0  0  0  0  0  0  0  0  0  0
  138.2663   80.3316  222.9463 H   0  0  0  0  0  0  0  0  0  0  0  0
  140.4811   81.2399  223.5303 H   0  0  0  0  0  0  0  0  0  0  0  0
  140.2018   79.7167  224.4560 H   0  0  0  0  0  0  0  0  0  0  0  0
  141.6000   79.7730  221.8640 H   0  0  0  0  0  0  0  0  0  0  0  0
  142.3526   77.6262  222.6778 H   0  0  0  0  0  0  0  0  0  0  0  0
  141.2618   77.8590  224.0761 H   0  0  0  0  0  0  0  0  0  0  0  0
  1  2  2  0
  2  3  1  0
  3  4  1  0
  4  5  2  0
  5  6  1  0
  6  7  1  0
  7  8  1  0
  8  9  1  0
  9 10  1  0
 10 11  2  0
 11 12  1  0
 12 13  2  0
 13 14  1  0
 14 15  2  0
 15 16  1  0
  6 17  2  0
 17 18  1  0
 18 19  1  0
 19 20  1  0
 20 21  1  0
 21 22  1  0
 22 23  2  0
 23 24  1  0
 24 25  2  0
 25 26  1  0
 26 27  2  0
 27 28  1  0
 18 29  2  0
  2 30  1  0
 30 31  1  0
 31 32  1  0
 32 33  1  0
 33 34  1  0
 34 35  1  0
 29  4  1  0
 35 30  1  0
 16  7  1  0
 28 19  1  0
 15 10  1  0
 27 22  1  0
  3 36  1  0
  8 37  1  0
  8 38  1  0
  9 39  1  0
  9 40  1  0
 11 41  1  0
 12 42  1  0
 13 43  1  0
 14 44  1  0
 16 45  1  0
 16 46  1  0
 20 47  1  0
 20 48  1  0
 21 49  1  0
 21 50  1  0
 23 51  1  0
 24 52  1  0
 25 53  1  0
 26 54  1  0
 28 55  1  0
 28 56  1  0
 30 57  1  6
 31 58  1  0
 31 59  1  0
 32 60  1  0
 32 61  1  0
 33 62  1  0
 33 63  1  0
 34 64  1  0
 35 65  1  0
 35 66  1  0
M  END
>  <smiles>  (82) 
O=C(Nc1nc(N2CCc3ccccc3C2)nc(N2CCc3ccccc3C2)n1)C1CCCNC1

>  <score_type>  (82) 
oracle

>  <origin>  (82) 
autodockgpu

>  <m_score__min__energy>  (82) 
-9.5399999999999991

>  <m_primary>  (82) 
energy

>  <rmsd>  (82) 
5.241804403385155

>  <m_score__min__rmsd>  (82) 
5.241804403385155

>  <meeko>  (82) 
{"free_energy": -9.42, "intermolecular_energy": -10.62, "internal_energy": -0.77, "cluster_size": 23, "cluster_id": 1, "rank_in_cluster": 10}

>  <energy>  (82) 
-9.41

>  <cluster_rmsd>  (82) 
0.53

>  <cluster>  (82) 
2

$$$$

     RDKit          3D

 66 71  0  0  1  0  0  0  0  0999 V2000
  139.2700   75.6010  222.6180 O   0  0  0  0  0  0  0  0  0  0  0  0
  140.2170   76.3010  222.1590 C   0  0  0  0  0  0  0  0  0  0  0  0
  141.3610   75.6520  221.6160 N   0  0  0  0  0  0  0  0  0  0  0  0
  141.4990   74.2360  221.5590 C   0  0  0  0  0  0  0  0  0  0  0  0
  140.7580   73.4470  222.3780 N   0  0  0  0  0  0  0  0  0  0  0  0
  140.8640   72.1110  222.3490 C   0  0  0  0  0  0  0  0  0  0  0  0
  140.0700   71.3170  223.2230 N   0  0  0  0  0  0  0  0  0  0  0  0
  139.2300   70.3060  222.6120 C   0  0  0  0  0  0  0  0  0  0  0  0
  138.3730   69.6010  223.6410 C   0  0  0  0  0  0  0  0  0  0  0  0
  139.2780   69.2370  224.7790 C   0  0  0  0  0  0  0  0  0  0  0  0
  139.2580   67.9620  225.3290 C   0  0  0  0  0  0  0  0  0  0  0  0
  140.1170   67.6790  226.3800 C   0  0  0  0  0  0  0  0  0  0  0  0
  140.9750   68.6260  226.8790 C   0  0  0  0  0  0  0  0  0  0  0  0
  141.0090   69.8990  226.3470 C   0  0  0  0  0  0  0  0  0  0  0  0
  140.1550   70.1720  225.3060 C   0  0  0  0  0  0  0  0  0  0  0  0
  140.1160   71.5270  224.6570 C   0  0  0  0  0  0  0  0  0  0  0  0
  141.7380   71.5550  221.4730 N   0  0  0  0  0  0  0  0  0  0  0  0
  142.4890   72.2970  220.6470 C   0  0  0  0  0  0  0  0  0  0  0  0
  143.3970   71.6830  219.7410 N   0  0  0  0  0  0  0  0  0  0  0  0
  143.2440   70.2830  219.4010 C   0  0  0  0  0  0  0  0  0  0  0  0
  144.6700   69.7210  219.3160 C   0  0  0  0  0  0  0  0  0  0  0  0
  145.2440   70.3850  218.1110 C   0  0  0  0  0  0  0  0  0  0  0  0
  145.8460   69.6280  217.1280 C   0  0  0  0  0  0  0  0  0  0  0  0
  146.3660   70.2850  216.0270 C   0  0  0  0  0  0  0  0  0  0  0  0
  146.2630   71.6600  215.9570 C   0  0  0  0  0  0  0  0  0  0  0  0
  145.6580   72.4110  216.9490 C   0  0  0  0  0  0  0  0  0  0  0  0
  145.1370   71.7590  218.0510 C   0  0  0  0  0  0  0  0  0  0  0  0
  144.4670   72.4750  219.1690 C   0  0  0  0  0  0  0  0  0  0  0  0
  142.3620   73.6310  220.6980 N   0  0  0  0  0  0  0  0  0  0  0  0
  140.2040   77.7830  222.1560 C   0  0  1  0  0  0  0  0  0  0  0  0
  138.9410   78.3540  222.7180 C   0  0  0  0  0  0  0  0  0  0  0  0
  139.0690   79.8630  222.6950 C   0  0  0  0  0  0  0  0  0  0  0  0
  140.3500   80.2320  223.4400 C   0  0  0  0  0  0  0  0  0  0  0  0
  141.5190   79.7130  222.7350 N   0  0  0  0  0  0  0  0  0  0  0  0
  141.4410   78.2590  222.8650 C   0  0  0  0  0  0  0  0  0  0  0  0
  142.1600   76.2370  221.2290 H   0  0  0  0  0  0  0  0  0  0  0  0
  138.5752   70.7861  221.8699 H   0  0  0  0  0  0  0  0  0  0  0  0
  139.8810   69.5588  222.1346 H   0  0  0  0  0  0  0  0  0  0  0  0
  137.5737   70.2705  223.9915 H   0  0  0  0  0  0  0  0  0  0  0  0
  137.8962   68.7068  223.2131 H   0  0  0  0  0  0  0  0  0  0  0  0
  138.5751   67.1928  224.9391 H   0  0  0  0  0  0  0  0  0  0  0  0
  140.1103   66.6725  226.8237 H   0  0  0  0  0  0  0  0  0  0  0  0
  141.6439   68.3676  227.7131 H   0  0  0  0  0  0  0  0  0  0  0  0
  141.6931   70.6650  226.7410 H   0  0  0  0  0  0  0  0  0  0  0  0
  139.2215   72.0763  224.9859 H   0  0  0  0  0  0  0  0  0  0  0  0
  141.0008   72.1180  224.9359 H   0  0  0  0  0  0  0  0  0  0  0  0
  142.6705   69.7591  220.1799 H   0  0  0  0  0  0  0  0  0  0  0  0
  142.6973   70.1510  218.4557 H   0  0  0  0  0  0  0  0  0  0  0  0
  145.2466   69.9780  220.2168 H   0  0  0  0  0  0  0  0  0  0  0  0
  144.6907   68.6234  219.2467 H   0  0  0  0  0  0  0  0  0  0  0  0
  145.9109   68.5335  217.2167 H   0  0  0  0  0  0  0  0  0  0  0  0
  146.8543   69.7201  215.2193 H   0  0  0  0  0  0  0  0  0  0  0  0
  146.6775   72.1779  215.0795 H   0  0  0  0  0  0  0  0  0  0  0  0
  145.5928   73.5057  216.8625 H   0  0  0  0  0  0  0  0  0  0  0  0
  145.2096   72.6908  219.9513 H   0  0  0  0  0  0  0  0  0  0  0  0
  144.0341   73.4054  218.7729 H   0  0  0  0  0  0  0  0  0  0  0  0
  140.2195   78.1509  221.1195 H   0  0  0  0  0  0  0  0  0  0  0  0
  138.0829   78.0412  222.1049 H   0  0  0  0  0  0  0  0  0  0  0  0
  138.7797   77.9962  223.7456 H   0  0  0  0  0  0  0  0  0  0  0  0
  139.1246   80.2184  221.6555 H   0  0  0  0  0  0  0  0  0  0  0  0
  138.1964   80.3309  223.1742 H   0  0  0  0  0  0  0  0  0  0  0  0
  140.4258   81.3272  223.5094 H   0  0  0  0  0  0  0  0  0  0  0  0
  140.3162   79.7898  224.4466 H   0  0  0  0  0  0  0  0  0  0  0  0
  141.4040   79.9160  221.7110 H   0  0  0  0  0  0  0  0  0  0  0  0
  142.3301   77.7975  222.4105 H   0  0  0  0  0  0  0  0  0  0  0  0
  141.3988   77.9771  223.9274 H   0  0  0  0  0  0  0  0  0  0  0  0
  1  2  2  0
  2  3  1  0
  3  4  1  0
  4  5  2  0
  5  6  1  0
  6  7  1  0
  7  8  1  0
  8  9  1  0
  9 10  1  0
 10 11  2  0
 11 12  1  0
 12 13  2  0
 13 14  1  0
 14 15  2  0
 15 16  1  0
  6 17  2  0
 17 18  1  0
 18 19  1  0
 19 20  1  0
 20 21  1  0
 21 22  1  0
 22 23  2  0
 23 24  1  0
 24 25  2  0
 25 26  1  0
 26 27  2  0
 27 28  1  0
 18 29  2  0
  2 30  1  0
 30 31  1  0
 31 32  1  0
 32 33  1  0
 33 34  1  0
 34 35  1  0
 29  4  1  0
 35 30  1  0
 16  7  1  0
 28 19  1  0
 15 10  1  0
 27 22  1  0
  3 36  1  0
  8 37  1  0
  8 38  1  0
  9 39  1  0
  9 40  1  0
 11 41  1  0
 12 42  1  0
 13 43  1  0
 14 44  1  0
 16 45  1  0
 16 46  1  0
 20 47  1  0
 20 48  1  0
 21 49  1  0
 21 50  1  0
 23 51  1  0
 24 52  1  0
 25 53  1  0
 26 54  1  0
 28 55  1  0
 28 56  1  0
 30 57  1  6
 31 58  1  0
 31 59  1  0
 32 60  1  0
 32 61  1  0
 33 62  1  0
 33 63  1  0
 34 64  1  0
 35 65  1  0
 35 66  1  0
M  END
>  <smiles>  (83) 
O=C(Nc1nc(N2CCc3ccccc3C2)nc(N2CCc3ccccc3C2)n1)C1CCCNC1

>  <score_type>  (83) 
oracle

>  <origin>  (83) 
autodockgpu

>  <m_score__min__energy>  (83) 
-9.5399999999999991

>  <m_primary>  (83) 
energy

>  <rmsd>  (83) 
5.28975232282299

>  <m_score__min__rmsd>  (83) 
5.28975232282299

>  <meeko>  (83) 
{"free_energy": -9.13, "intermolecular_energy": -10.32, "internal_energy": -0.75, "cluster_size": 23, "cluster_id": 1, "rank_in_cluster": 17}

>  <energy>  (83) 
-9.41

>  <cluster_rmsd>  (83) 
0.54

>  <cluster>  (83) 
2

$$$$

     RDKit          3D

 66 71  0  0  1  0  0  0  0  0999 V2000
  139.4090   76.1140  222.7710 O   0  0  0  0  0  0  0  0  0  0  0  0
  140.4240   76.6930  222.2910 C   0  0  0  0  0  0  0  0  0  0  0  0
  141.4470   75.9130  221.6830 N   0  0  0  0  0  0  0  0  0  0  0  0
  141.3890   74.4950  221.5840 C   0  0  0  0  0  0  0  0  0  0  0  0
  142.2990   73.8270  220.8300 N   0  0  0  0  0  0  0  0  0  0  0  0
  142.2710   72.4910  220.7170 C   0  0  0  0  0  0  0  0  0  0  0  0
  143.2420   71.8270  219.9160 N   0  0  0  0  0  0  0  0  0  0  0  0
  144.6000   72.3320  219.9750 C   0  0  0  0  0  0  0  0  0  0  0  0
  145.5070   71.6010  219.0110 C   0  0  0  0  0  0  0  0  0  0  0  0
  145.2420   70.1360  219.1970 C   0  0  0  0  0  0  0  0  0  0  0  0
  146.2880   69.2320  219.3310 C   0  0  0  0  0  0  0  0  0  0  0  0
  145.9860   67.8900  219.5010 C   0  0  0  0  0  0  0  0  0  0  0  0
  144.6880   67.4460  219.5390 C   0  0  0  0  0  0  0  0  0  0  0  0
  143.6350   68.3290  219.4070 C   0  0  0  0  0  0  0  0  0  0  0  0
  143.9420   69.6580  219.2390 C   0  0  0  0  0  0  0  0  0  0  0  0
  142.8680   70.6990  219.0870 C   0  0  0  0  0  0  0  0  0  0  0  0
  141.3020   71.8110  221.3790 N   0  0  0  0  0  0  0  0  0  0  0  0
  140.3840   72.4300  222.1340 C   0  0  0  0  0  0  0  0  0  0  0  0
  139.3820   71.6870  222.8150 N   0  0  0  0  0  0  0  0  0  0  0  0
  139.7550   70.7690  223.8730 C   0  0  0  0  0  0  0  0  0  0  0  0
  138.8320   69.5540  223.7080 C   0  0  0  0  0  0  0  0  0  0  0  0
  137.4830   70.0780  224.0640 C   0  0  0  0  0  0  0  0  0  0  0  0
  136.7090   69.4150  224.9930 C   0  0  0  0  0  0  0  0  0  0  0  0
  135.4630   69.9360  225.2940 C   0  0  0  0  0  0  0  0  0  0  0  0
  135.0480   71.0890  224.6570 C   0  0  0  0  0  0  0  0  0  0  0  0
  135.8310   71.7460  223.7260 C   0  0  0  0  0  0  0  0  0  0  0  0
  137.0780   71.2300  223.4220 C   0  0  0  0  0  0  0  0  0  0  0  0
  137.9940   71.8620  222.4370 C   0  0  0  0  0  0  0  0  0  0  0  0
  140.4370   73.7660  222.2290 N   0  0  0  0  0  0  0  0  0  0  0  0
  140.6130   78.1630  222.3260 C   0  0  1  0  0  0  0  0  0  0  0  0
  141.3800   78.6230  223.5250 C   0  0  0  0  0  0  0  0  0  0  0  0
  141.5370   80.1260  223.4210 C   0  0  0  0  0  0  0  0  0  0  0  0
  142.1760   80.4340  222.0690 C   0  0  0  0  0  0  0  0  0  0  0  0
  141.2850   80.0420  220.9810 N   0  0  0  0  0  0  0  0  0  0  0  0
  141.2360   78.5820  221.0220 C   0  0  0  0  0  0  0  0  0  0  0  0
  142.3030   76.3970  221.2780 H   0  0  0  0  0  0  0  0  0  0  0  0
  144.5947   73.4018  219.7190 H   0  0  0  0  0  0  0  0  0  0  0  0
  144.9822   72.1744  220.9944 H   0  0  0  0  0  0  0  0  0  0  0  0
  145.2801   71.8991  217.9768 H   0  0  0  0  0  0  0  0  0  0  0  0
  146.5635   71.8397  219.2031 H   0  0  0  0  0  0  0  0  0  0  0  0
  147.3332   69.5737  219.3028 H   0  0  0  0  0  0  0  0  0  0  0  0
  146.8056   67.1641  219.6079 H   0  0  0  0  0  0  0  0  0  0  0  0
  144.4842   66.3738  219.6763 H   0  0  0  0  0  0  0  0  0  0  0  0
  142.5914   67.9825  219.4352 H   0  0  0  0  0  0  0  0  0  0  0  0
  142.7938   71.0128  218.0353 H   0  0  0  0  0  0  0  0  0  0  0  0
  141.8904   70.2979  219.3925 H   0  0  0  0  0  0  0  0  0  0  0  0
  140.8080   70.4687  223.7676 H   0  0  0  0  0  0  0  0  0  0  0  0
  139.6501   71.2284  224.8669 H   0  0  0  0  0  0  0  0  0  0  0  0
  138.8485   69.1879  222.6708 H   0  0  0  0  0  0  0  0  0  0  0  0
  139.1354   68.7024  224.3347 H   0  0  0  0  0  0  0  0  0  0  0  0
  137.0718   68.4982  225.4808 H   0  0  0  0  0  0  0  0  0  0  0  0
  134.8129   69.4394  226.0294 H   0  0  0  0  0  0  0  0  0  0  0  0
  134.0570   71.5002  224.8995 H   0  0  0  0  0  0  0  0  0  0  0  0
  135.4691   72.6620  223.2361 H   0  0  0  0  0  0  0  0  0  0  0  0
  137.8312   71.4021  221.4511 H   0  0  0  0  0  0  0  0  0  0  0  0
  137.7777   72.9401  222.4064 H   0  0  0  0  0  0  0  0  0  0  0  0
  139.6368   78.6583  222.4343 H   0  0  0  0  0  0  0  0  0  0  0  0
  140.8306   78.3661  224.4427 H   0  0  0  0  0  0  0  0  0  0  0  0
  142.3646   78.1341  223.5640 H   0  0  0  0  0  0  0  0  0  0  0  0
  140.5521   80.6111  223.4890 H   0  0  0  0  0  0  0  0  0  0  0  0
  142.1664   80.5050  224.2397 H   0  0  0  0  0  0  0  0  0  0  0  0
  142.3770   81.5133  222.0012 H   0  0  0  0  0  0  0  0  0  0  0  0
  143.1146   79.8671  221.9818 H   0  0  0  0  0  0  0  0  0  0  0  0
  140.3150   80.3690  221.2150 H   0  0  0  0  0  0  0  0  0  0  0  0
  140.6303   78.2071  220.1838 H   0  0  0  0  0  0  0  0  0  0  0  0
  142.2516   78.1677  220.9385 H   0  0  0  0  0  0  0  0  0  0  0  0
  1  2  2  0
  2  3  1  0
  3  4  1  0
  4  5  2  0
  5  6  1  0
  6  7  1  0
  7  8  1  0
  8  9  1  0
  9 10  1  0
 10 11  2  0
 11 12  1  0
 12 13  2  0
 13 14  1  0
 14 15  2  0
 15 16  1  0
  6 17  2  0
 17 18  1  0
 18 19  1  0
 19 20  1  0
 20 21  1  0
 21 22  1  0
 22 23  2  0
 23 24  1  0
 24 25  2  0
 25 26  1  0
 26 27  2  0
 27 28  1  0
 18 29  2  0
  2 30  1  0
 30 31  1  0
 31 32  1  0
 32 33  1  0
 33 34  1  0
 34 35  1  0
 29  4  1  0
 35 30  1  0
 16  7  1  0
 28 19  1  0
 15 10  1  0
 27 22  1  0
  3 36  1  0
  8 37  1  0
  8 38  1  0
  9 39  1  0
  9 40  1  0
 11 41  1  0
 12 42  1  0
 13 43  1  0
 14 44  1  0
 16 45  1  0
 16 46  1  0
 20 47  1  0
 20 48  1  0
 21 49  1  0
 21 50  1  0
 23 51  1  0
 24 52  1  0
 25 53  1  0
 26 54  1  0
 28 55  1  0
 28 56  1  0
 30 57  1  1
 31 58  1  0
 31 59  1  0
 32 60  1  0
 32 61  1  0
 33 62  1  0
 33 63  1  0
 34 64  1  0
 35 65  1  0
 35 66  1  0
M  END
>  <smiles>  (84) 
O=C(Nc1nc(N2CCc3ccccc3C2)nc(N2CCc3ccccc3C2)n1)C1CCCNC1

>  <score_type>  (84) 
oracle

>  <origin>  (84) 
autodockgpu

>  <m_score__min__energy>  (84) 
-9.5399999999999991

>  <m_primary>  (84) 
energy

>  <rmsd>  (84) 
5.501987333546878

>  <m_score__min__rmsd>  (84) 
5.501987333546878

>  <meeko>  (84) 
{"free_energy": -9.02, "intermolecular_energy": -10.22, "internal_energy": -0.78, "cluster_size": 23, "cluster_id": 1, "rank_in_cluster": 21}

>  <energy>  (84) 
-9.41

>  <cluster_rmsd>  (84) 
0.55

>  <cluster>  (84) 
2

$$$$

     RDKit          3D

 66 71  0  0  1  0  0  0  0  0999 V2000
  139.2690   75.5980  222.3290 O   0  0  0  0  0  0  0  0  0  0  0  0
  140.3050   76.2180  221.9570 C   0  0  0  0  0  0  0  0  0  0  0  0
  141.4530   75.4770  221.5590 N   0  0  0  0  0  0  0  0  0  0  0  0
  141.4980   74.0550  221.5550 C   0  0  0  0  0  0  0  0  0  0  0  0
  140.7370   73.3470  222.4290 N   0  0  0  0  0  0  0  0  0  0  0  0
  140.7570   72.0070  222.4500 C   0  0  0  0  0  0  0  0  0  0  0  0
  139.9450   71.3010  223.3810 N   0  0  0  0  0  0  0  0  0  0  0  0
  139.0020   70.3440  222.8370 C   0  0  0  0  0  0  0  0  0  0  0  0
  138.1400   69.7350  223.9220 C   0  0  0  0  0  0  0  0  0  0  0  0
  139.0660   69.3300  225.0310 C   0  0  0  0  0  0  0  0  0  0  0  0
  138.9730   68.0750  225.6170 C   0  0  0  0  0  0  0  0  0  0  0  0
  139.8540   67.7530  226.6380 C   0  0  0  0  0  0  0  0  0  0  0  0
  140.8040   68.6430  227.0720 C   0  0  0  0  0  0  0  0  0  0  0  0
  140.9130   69.8950  226.5020 C   0  0  0  0  0  0  0  0  0  0  0  0
  140.0360   70.2070  225.4910 C   0  0  0  0  0  0  0  0  0  0  0  0
  140.0720   71.5440  224.8050 C   0  0  0  0  0  0  0  0  0  0  0  0
  141.5630   71.3630  221.5700 N   0  0  0  0  0  0  0  0  0  0  0  0
  142.3310   72.0220  220.6910 C   0  0  0  0  0  0  0  0  0  0  0  0
  143.1660   71.3160  219.7830 N   0  0  0  0  0  0  0  0  0  0  0  0
  144.0830   72.0420  218.9280 C   0  0  0  0  0  0  0  0  0  0  0  0
  144.0520   71.3140  217.5770 C   0  0  0  0  0  0  0  0  0  0  0  0
  144.6970   70.0010  217.8630 C   0  0  0  0  0  0  0  0  0  0  0  0
  145.7310   69.5530  217.0690 C   0  0  0  0  0  0  0  0  0  0  0  0
  146.3000   68.3290  217.3710 C   0  0  0  0  0  0  0  0  0  0  0  0
  145.8140   67.6100  218.4450 C   0  0  0  0  0  0  0  0  0  0  0  0
  144.7750   68.0680  219.2350 C   0  0  0  0  0  0  0  0  0  0  0  0
  144.2030   69.2910  218.9380 C   0  0  0  0  0  0  0  0  0  0  0  0
  143.0840   69.8700  219.7270 C   0  0  0  0  0  0  0  0  0  0  0  0
  142.2910   73.3620  220.6920 N   0  0  0  0  0  0  0  0  0  0  0  0
  140.3950   77.6970  221.9130 C   0  0  1  0  0  0  0  0  0  0  0  0
  141.0920   78.2740  223.1040 C   0  0  0  0  0  0  0  0  0  0  0  0
  141.1520   79.7760  222.9190 C   0  0  0  0  0  0  0  0  0  0  0  0
  141.8110   80.0510  221.5690 C   0  0  0  0  0  0  0  0  0  0  0  0
  140.9820   79.5400  220.4810 N   0  0  0  0  0  0  0  0  0  0  0  0
  141.0280   78.0840  220.6050 C   0  0  0  0  0  0  0  0  0  0  0  0
  142.3270   75.9960  221.2460 H   0  0  0  0  0  0  0  0  0  0  0  0
  138.3535   70.8551  222.1102 H   0  0  0  0  0  0  0  0  0  0  0  0
  139.5709   69.5357  222.3544 H   0  0  0  0  0  0  0  0  0  0  0  0
  137.4115   70.4740  224.2871 H   0  0  0  0  0  0  0  0  0  0  0  0
  137.5763   68.8705  223.5413 H   0  0  0  0  0  0  0  0  0  0  0  0
  138.2166   67.3516  225.2786 H   0  0  0  0  0  0  0  0  0  0  0  0
  139.7900   66.7618  227.1107 H   0  0  0  0  0  0  0  0  0  0  0  0
  141.4872   68.3548  227.8845 H   0  0  0  0  0  0  0  0  0  0  0  0
  141.6717   70.6146  226.8433 H   0  0  0  0  0  0  0  0  0  0  0  0
  139.2383   72.1699  225.1560 H   0  0  0  0  0  0  0  0  0  0  0  0
  141.0113   72.0712  225.0281 H   0  0  0  0  0  0  0  0  0  0  0  0
  143.7538   73.0849  218.8098 H   0  0  0  0  0  0  0  0  0  0  0  0
  145.0978   72.0711  219.3514 H   0  0  0  0  0  0  0  0  0  0  0  0
  143.0172   71.1747  217.2311 H   0  0  0  0  0  0  0  0  0  0  0  0
  144.5646   71.8743  216.7811 H   0  0  0  0  0  0  0  0  0  0  0  0
  146.0930   70.1515  216.2200 H   0  0  0  0  0  0  0  0  0  0  0  0
  147.1280   67.9339  216.7641 H   0  0  0  0  0  0  0  0  0  0  0  0
  146.2699   66.6371  218.6811 H   0  0  0  0  0  0  0  0  0  0  0  0
  144.4107   67.4703  220.0836 H   0  0  0  0  0  0  0  0  0  0  0  0
  142.1308   69.5839  219.2585 H   0  0  0  0  0  0  0  0  0  0  0  0
  143.1480   69.4807  220.7538 H   0  0  0  0  0  0  0  0  0  0  0  0
  139.3854   78.1303  221.9666 H   0  0  0  0  0  0  0  0  0  0  0  0
  140.5326   78.0313  224.0195 H   0  0  0  0  0  0  0  0  0  0  0  0
  142.1053   77.8564  223.1974 H   0  0  0  0  0  0  0  0  0  0  0  0
  140.1355   80.1961  222.9323 H   0  0  0  0  0  0  0  0  0  0  0  0
  141.7288   80.2418  223.7316 H   0  0  0  0  0  0  0  0  0  0  0  0
  141.9425   81.1360  221.4448 H   0  0  0  0  0  0  0  0  0  0  0  0
  142.7871   79.5446  221.5402 H   0  0  0  0  0  0  0  0  0  0  0  0
  139.9850   79.8120  220.6700 H   0  0  0  0  0  0  0  0  0  0  0  0
  140.4742   77.6230  219.7739 H   0  0  0  0  0  0  0  0  0  0  0  0
  142.0708   77.7355  220.5729 H   0  0  0  0  0  0  0  0  0  0  0  0
  1  2  2  0
  2  3  1  0
  3  4  1  0
  4  5  2  0
  5  6  1  0
  6  7  1  0
  7  8  1  0
  8  9  1  0
  9 10  1  0
 10 11  2  0
 11 12  1  0
 12 13  2  0
 13 14  1  0
 14 15  2  0
 15 16  1  0
  6 17  2  0
 17 18  1  0
 18 19  1  0
 19 20  1  0
 20 21  1  0
 21 22  1  0
 22 23  2  0
 23 24  1  0
 24 25  2  0
 25 26  1  0
 26 27  2  0
 27 28  1  0
 18 29  2  0
  2 30  1  0
 30 31  1  0
 31 32  1  0
 32 33  1  0
 33 34  1  0
 34 35  1  0
 29  4  1  0
 35 30  1  0
 16  7  1  0
 28 19  1  0
 15 10  1  0
 27 22  1  0
  3 36  1  0
  8 37  1  0
  8 38  1  0
  9 39  1  0
  9 40  1  0
 11 41  1  0
 12 42  1  0
 13 43  1  0
 14 44  1  0
 16 45  1  0
 16 46  1  0
 20 47  1  0
 20 48  1  0
 21 49  1  0
 21 50  1  0
 23 51  1  0
 24 52  1  0
 25 53  1  0
 26 54  1  0
 28 55  1  0
 28 56  1  0
 30 57  1  6
 31 58  1  0
 31 59  1  0
 32 60  1  0
 32 61  1  0
 33 62  1  0
 33 63  1  0
 34 64  1  0
 35 65  1  0
 35 66  1  0
M  END
>  <smiles>  (85) 
O=C(Nc1nc(N2CCc3ccccc3C2)nc(N2CCc3ccccc3C2)n1)C1CCCNC1

>  <score_type>  (85) 
oracle

>  <origin>  (85) 
autodockgpu

>  <m_score__min__energy>  (85) 
-9.5399999999999991

>  <m_primary>  (85) 
energy

>  <rmsd>  (85) 
5.100517898851688

>  <m_score__min__rmsd>  (85) 
5.100517898851688

>  <meeko>  (85) 
{"free_energy": -9.45, "intermolecular_energy": -10.65, "internal_energy": -0.8, "cluster_size": 23, "cluster_id": 1, "rank_in_cluster": 6}

>  <energy>  (85) 
-9.38

>  <cluster_rmsd>  (85) 
0.51

>  <cluster>  (85) 
2

$$$$

     RDKit          3D

 66 71  0  0  1  0  0  0  0  0999 V2000
  144.7010   73.5640  220.7220 O   0  0  0  0  0  0  0  0  0  0  0  0
  144.3220   72.8210  219.7730 C   0  0  0  0  0  0  0  0  0  0  0  0
  142.9740   72.3640  219.7430 N   0  0  0  0  0  0  0  0  0  0  0  0
  142.0160   72.7050  220.7370 C   0  0  0  0  0  0  0  0  0  0  0  0
  141.5010   73.9610  220.7850 N   0  0  0  0  0  0  0  0  0  0  0  0
  140.5960   74.3130  221.7100 C   0  0  0  0  0  0  0  0  0  0  0  0
  140.0810   75.6390  221.7270 N   0  0  0  0  0  0  0  0  0  0  0  0
  138.7800   75.8310  222.3380 C   0  0  0  0  0  0  0  0  0  0  0  0
  138.3100   77.2630  222.2070 C   0  0  0  0  0  0  0  0  0  0  0  0
  139.4640   78.1330  222.6100 C   0  0  0  0  0  0  0  0  0  0  0  0
  139.2870   79.1900  223.4930 C   0  0  0  0  0  0  0  0  0  0  0  0
  140.3890   79.9620  223.8310 C   0  0  0  0  0  0  0  0  0  0  0  0
  141.6320   79.7010  223.3150 C   0  0  0  0  0  0  0  0  0  0  0  0
  141.8280   78.6560  222.4350 C   0  0  0  0  0  0  0  0  0  0  0  0
  140.7320   77.8950  222.1050 C   0  0  0  0  0  0  0  0  0  0  0  0
  140.8400   76.7340  221.1560 C   0  0  0  0  0  0  0  0  0  0  0  0
  140.2000   73.3780  222.6090 N   0  0  0  0  0  0  0  0  0  0  0  0
  140.6820   72.1280  222.5980 C   0  0  0  0  0  0  0  0  0  0  0  0
  140.2450   71.1720  223.5550 N   0  0  0  0  0  0  0  0  0  0  0  0
  139.5060   70.0020  223.1250 C   0  0  0  0  0  0  0  0  0  0  0  0
  138.4340   69.7740  224.2000 C   0  0  0  0  0  0  0  0  0  0  0  0
  139.2140   69.3580  225.4000 C   0  0  0  0  0  0  0  0  0  0  0  0
  138.8690   68.2110  226.0840 C   0  0  0  0  0  0  0  0  0  0  0  0
  139.6200   67.8630  227.1920 C   0  0  0  0  0  0  0  0  0  0  0  0
  140.6750   68.6710  227.5670 C   0  0  0  0  0  0  0  0  0  0  0  0
  141.0140   69.8200  226.8750 C   0  0  0  0  0  0  0  0  0  0  0  0
  140.2660   70.1720  225.7660 C   0  0  0  0  0  0  0  0  0  0  0  0
  140.5490   71.3860  224.9560 C   0  0  0  0  0  0  0  0  0  0  0  0
  141.5850   71.8030  221.6620 N   0  0  0  0  0  0  0  0  0  0  0  0
  145.2160   72.3900  218.6710 C   0  0  1  0  0  0  0  0  0  0  0  0
  144.9810   70.9730  218.2520 C   0  0  0  0  0  0  0  0  0  0  0  0
  145.9220   70.6720  217.1040 C   0  0  0  0  0  0  0  0  0  0  0  0
  145.6910   71.7280  216.0250 C   0  0  0  0  0  0  0  0  0  0  0  0
  146.0610   73.0520  216.5180 N   0  0  0  0  0  0  0  0  0  0  0  0
  145.0730   73.3770  217.5460 C   0  0  0  0  0  0  0  0  0  0  0  0
  142.6520   71.7390  218.9460 H   0  0  0  0  0  0  0  0  0  0  0  0
  138.0526   75.1698  221.8444 H   0  0  0  0  0  0  0  0  0  0  0  0
  138.8637   75.5926  223.4086 H   0  0  0  0  0  0  0  0  0  0  0  0
  138.0213   77.4738  221.1667 H   0  0  0  0  0  0  0  0  0  0  0  0
  137.4315   77.4512  222.8417 H   0  0  0  0  0  0  0  0  0  0  0  0
  138.2953   79.4102  223.9150 H   0  0  0  0  0  0  0  0  0  0  0  0
  140.2625   80.8027  224.5290 H   0  0  0  0  0  0  0  0  0  0  0  0
  142.4842   80.3326  223.6061 H   0  0  0  0  0  0  0  0  0  0  0  0
  142.8215   78.4408  222.0146 H   0  0  0  0  0  0  0  0  0  0  0  0
  140.4243   77.0093  220.1755 H   0  0  0  0  0  0  0  0  0  0  0  0
  141.8916   76.4455  221.0115 H   0  0  0  0  0  0  0  0  0  0  0  0
  139.0367   70.1822  222.1466 H   0  0  0  0  0  0  0  0  0  0  0  0
  140.1610   69.1257  223.0105 H   0  0  0  0  0  0  0  0  0  0  0  0
  137.8750   70.7004  224.3982 H   0  0  0  0  0  0  0  0  0  0  0  0
  137.6846   69.0265  223.9006 H   0  0  0  0  0  0  0  0  0  0  0  0
  138.0210   67.5910  225.7577 H   0  0  0  0  0  0  0  0  0  0  0  0
  139.3803   66.9558  227.7661 H   0  0  0  0  0  0  0  0  0  0  0  0
  141.2686   68.3904  228.4496 H   0  0  0  0  0  0  0  0  0  0  0  0
  141.8615   70.4413  227.2002 H   0  0  0  0  0  0  0  0  0  0  0  0
  139.9352   72.2178  225.3320 H   0  0  0  0  0  0  0  0  0  0  0  0
  141.6204   71.6187  225.0453 H   0  0  0  0  0  0  0  0  0  0  0  0
  146.2595   72.3899  219.0192 H   0  0  0  0  0  0  0  0  0  0  0  0
  145.1864   70.2944  219.0930 H   0  0  0  0  0  0  0  0  0  0  0  0
  143.9354   70.8307  217.9415 H   0  0  0  0  0  0  0  0  0  0  0  0
  146.9643   70.7147  217.4529 H   0  0  0  0  0  0  0  0  0  0  0  0
  145.7322   69.6649  216.7043 H   0  0  0  0  0  0  0  0  0  0  0  0
  146.3035   71.4855  215.1440 H   0  0  0  0  0  0  0  0  0  0  0  0
  144.6246   71.7339  215.7553 H   0  0  0  0  0  0  0  0  0  0  0  0
  146.9810   72.9730  217.0180 H   0  0  0  0  0  0  0  0  0  0  0  0
  145.2488   74.3960  217.9212 H   0  0  0  0  0  0  0  0  0  0  0  0
  144.0582   73.3251  217.1246 H   0  0  0  0  0  0  0  0  0  0  0  0
  1  2  2  0
  2  3  1  0
  3  4  1  0
  4  5  2  0
  5  6  1  0
  6  7  1  0
  7  8  1  0
  8  9  1  0
  9 10  1  0
 10 11  2  0
 11 12  1  0
 12 13  2  0
 13 14  1  0
 14 15  2  0
 15 16  1  0
  6 17  2  0
 17 18  1  0
 18 19  1  0
 19 20  1  0
 20 21  1  0
 21 22  1  0
 22 23  2  0
 23 24  1  0
 24 25  2  0
 25 26  1  0
 26 27  2  0
 27 28  1  0
 18 29  2  0
  2 30  1  0
 30 31  1  0
 31 32  1  0
 32 33  1  0
 33 34  1  0
 34 35  1  0
 29  4  1  0
 35 30  1  0
 16  7  1  0
 28 19  1  0
 15 10  1  0
 27 22  1  0
  3 36  1  0
  8 37  1  0
  8 38  1  0
  9 39  1  0
  9 40  1  0
 11 41  1  0
 12 42  1  0
 13 43  1  0
 14 44  1  0
 16 45  1  0
 16 46  1  0
 20 47  1  0
 20 48  1  0
 21 49  1  0
 21 50  1  0
 23 51  1  0
 24 52  1  0
 25 53  1  0
 26 54  1  0
 28 55  1  0
 28 56  1  0
 30 57  1  1
 31 58  1  0
 31 59  1  0
 32 60  1  0
 32 61  1  0
 33 62  1  0
 33 63  1  0
 34 64  1  0
 35 65  1  0
 35 66  1  0
M  END
>  <smiles>  (86) 
O=C(Nc1nc(N2CCc3ccccc3C2)nc(N2CCc3ccccc3C2)n1)C1CCCNC1

>  <score_type>  (86) 
oracle

>  <origin>  (86) 
autodockgpu

>  <m_score__min__energy>  (86) 
-9.5399999999999991

>  <m_primary>  (86) 
energy

>  <rmsd>  (86) 
7.274567018285653

>  <m_score__min__rmsd>  (86) 
7.274567018285653

>  <meeko>  (86) 
{"free_energy": -9.45, "intermolecular_energy": -10.64, "internal_energy": -0.85, "cluster_size": 24, "cluster_id": 2, "rank_in_cluster": 7}

>  <energy>  (86) 
-9.32

>  <cluster_rmsd>  (86) 
1.26

>  <cluster>  (86) 
2

$$$$

     RDKit          3D

 66 71  0  0  1  0  0  0  0  0999 V2000
  144.7380   73.5690  220.7280 O   0  0  0  0  0  0  0  0  0  0  0  0
  144.3620   72.8260  219.7770 C   0  0  0  0  0  0  0  0  0  0  0  0
  143.0140   72.3730  219.7390 N   0  0  0  0  0  0  0  0  0  0  0  0
  142.0500   72.7170  220.7280 C   0  0  0  0  0  0  0  0  0  0  0  0
  141.5340   73.9720  220.7690 N   0  0  0  0  0  0  0  0  0  0  0  0
  140.6250   74.3270  221.6870 C   0  0  0  0  0  0  0  0  0  0  0  0
  140.1090   75.6530  221.6980 N   0  0  0  0  0  0  0  0  0  0  0  0
  138.7880   75.8400  222.2670 C   0  0  0  0  0  0  0  0  0  0  0  0
  138.3230   77.2730  222.1310 C   0  0  0  0  0  0  0  0  0  0  0  0
  139.4620   78.1400  222.5780 C   0  0  0  0  0  0  0  0  0  0  0  0
  139.2570   79.1910  223.4620 C   0  0  0  0  0  0  0  0  0  0  0  0
  140.3460   79.9610  223.8420 C   0  0  0  0  0  0  0  0  0  0  0  0
  141.6060   79.7040  223.3640 C   0  0  0  0  0  0  0  0  0  0  0  0
  141.8310   78.6650  222.4840 C   0  0  0  0  0  0  0  0  0  0  0  0
  140.7460   77.9070  222.1120 C   0  0  0  0  0  0  0  0  0  0  0  0
  140.8850   76.7520  221.1590 C   0  0  0  0  0  0  0  0  0  0  0  0
  140.2240   73.3960  222.5880 N   0  0  0  0  0  0  0  0  0  0  0  0
  140.7080   72.1450  222.5840 C   0  0  0  0  0  0  0  0  0  0  0  0
  140.2670   71.1930  223.5420 N   0  0  0  0  0  0  0  0  0  0  0  0
  139.5300   70.0200  223.1130 C   0  0  0  0  0  0  0  0  0  0  0  0
  138.4530   69.7950  224.1830 C   0  0  0  0  0  0  0  0  0  0  0  0
  139.2280   69.3850  225.3890 C   0  0  0  0  0  0  0  0  0  0  0  0
  138.8800   68.2400  226.0750 C   0  0  0  0  0  0  0  0  0  0  0  0
  139.6260   67.8970  227.1880 C   0  0  0  0  0  0  0  0  0  0  0  0
  140.6790   68.7060  227.5650 C   0  0  0  0  0  0  0  0  0  0  0  0
  141.0200   69.8530  226.8710 C   0  0  0  0  0  0  0  0  0  0  0  0
  140.2780   70.2000  225.7570 C   0  0  0  0  0  0  0  0  0  0  0  0
  140.5640   71.4120  224.9440 C   0  0  0  0  0  0  0  0  0  0  0  0
  141.6160   71.8180  221.6530 N   0  0  0  0  0  0  0  0  0  0  0  0
  145.2620   72.3920  218.6810 C   0  0  1  0  0  0  0  0  0  0  0  0
  145.0110   70.9830  218.2460 C   0  0  0  0  0  0  0  0  0  0  0  0
  145.9590   70.6790  217.1050 C   0  0  0  0  0  0  0  0  0  0  0  0
  145.7560   71.7480  216.0340 C   0  0  0  0  0  0  0  0  0  0  0  0
  146.1390   73.0620  216.5430 N   0  0  0  0  0  0  0  0  0  0  0  0
  145.1460   73.3910  217.5630 C   0  0  0  0  0  0  0  0  0  0  0  0
  142.6950   71.7480  218.9400 H   0  0  0  0  0  0  0  0  0  0  0  0
  138.0775   75.1826  221.7444 H   0  0  0  0  0  0  0  0  0  0  0  0
  138.8356   75.5930  223.3378 H   0  0  0  0  0  0  0  0  0  0  0  0
  138.0689   77.4913  221.0832 H   0  0  0  0  0  0  0  0  0  0  0  0
  137.4242   77.4566  222.7380 H   0  0  0  0  0  0  0  0  0  0  0  0
  138.2519   79.4083  223.8527 H   0  0  0  0  0  0  0  0  0  0  0  0
  140.1962   80.7962  224.5420 H   0  0  0  0  0  0  0  0  0  0  0  0
  142.4479   80.3343  223.6864 H   0  0  0  0  0  0  0  0  0  0  0  0
  142.8379   78.4519  222.0958 H   0  0  0  0  0  0  0  0  0  0  0  0
  140.5006   77.0336  220.1676 H   0  0  0  0  0  0  0  0  0  0  0  0
  141.9409   76.4649  221.0463 H   0  0  0  0  0  0  0  0  0  0  0  0
  139.0654   70.1961  222.1316 H   0  0  0  0  0  0  0  0  0  0  0  0
  140.1863   69.1438  223.0056 H   0  0  0  0  0  0  0  0  0  0  0  0
  137.8916   70.7214  224.3745 H   0  0  0  0  0  0  0  0  0  0  0  0
  137.7061   69.0453  223.8829 H   0  0  0  0  0  0  0  0  0  0  0  0
  138.0342   67.6181  225.7466 H   0  0  0  0  0  0  0  0  0  0  0  0
  139.3836   66.9922  227.7647 H   0  0  0  0  0  0  0  0  0  0  0  0
  141.2692   68.4281  228.4507 H   0  0  0  0  0  0  0  0  0  0  0  0
  141.8647   70.4767  227.1988 H   0  0  0  0  0  0  0  0  0  0  0  0
  139.9476   72.2445  225.3142 H   0  0  0  0  0  0  0  0  0  0  0  0
  141.6347   71.6460  225.0377 H   0  0  0  0  0  0  0  0  0  0  0  0
  146.3012   72.3737  219.0412 H   0  0  0  0  0  0  0  0  0  0  0  0
  145.1979   70.2935  219.0825 H   0  0  0  0  0  0  0  0  0  0  0  0
  143.9667   70.8591  217.9234 H   0  0  0  0  0  0  0  0  0  0  0  0
  146.9981   70.7024  217.4652 H   0  0  0  0  0  0  0  0  0  0  0  0
  145.7577   69.6789  216.6935 H   0  0  0  0  0  0  0  0  0  0  0  0
  146.3752   71.5047  215.1579 H   0  0  0  0  0  0  0  0  0  0  0  0
  144.6929   71.7719  215.7526 H   0  0  0  0  0  0  0  0  0  0  0  0
  147.0520   72.9640  217.0520 H   0  0  0  0  0  0  0  0  0  0  0  0
  145.3325   74.4038  217.9495 H   0  0  0  0  0  0  0  0  0  0  0  0
  144.1353   73.3569  217.1302 H   0  0  0  0  0  0  0  0  0  0  0  0
  1  2  2  0
  2  3  1  0
  3  4  1  0
  4  5  2  0
  5  6  1  0
  6  7  1  0
  7  8  1  0
  8  9  1  0
  9 10  1  0
 10 11  2  0
 11 12  1  0
 12 13  2  0
 13 14  1  0
 14 15  2  0
 15 16  1  0
  6 17  2  0
 17 18  1  0
 18 19  1  0
 19 20  1  0
 20 21  1  0
 21 22  1  0
 22 23  2  0
 23 24  1  0
 24 25  2  0
 25 26  1  0
 26 27  2  0
 27 28  1  0
 18 29  2  0
  2 30  1  0
 30 31  1  0
 31 32  1  0
 32 33  1  0
 33 34  1  0
 34 35  1  0
 29  4  1  0
 35 30  1  0
 16  7  1  0
 28 19  1  0
 15 10  1  0
 27 22  1  0
  3 36  1  0
  8 37  1  0
  8 38  1  0
  9 39  1  0
  9 40  1  0
 11 41  1  0
 12 42  1  0
 13 43  1  0
 14 44  1  0
 16 45  1  0
 16 46  1  0
 20 47  1  0
 20 48  1  0
 21 49  1  0
 21 50  1  0
 23 51  1  0
 24 52  1  0
 25 53  1  0
 26 54  1  0
 28 55  1  0
 28 56  1  0
 30 57  1  1
 31 58  1  0
 31 59  1  0
 32 60  1  0
 32 61  1  0
 33 62  1  0
 33 63  1  0
 34 64  1  0
 35 65  1  0
 35 66  1  0
M  END
>  <smiles>  (87) 
O=C(Nc1nc(N2CCc3ccccc3C2)nc(N2CCc3ccccc3C2)n1)C1CCCNC1

>  <score_type>  (87) 
oracle

>  <origin>  (87) 
autodockgpu

>  <m_score__min__energy>  (87) 
-9.5399999999999991

>  <m_primary>  (87) 
energy

>  <rmsd>  (87) 
7.297875832001912

>  <m_score__min__rmsd>  (87) 
7.297875832001912

>  <meeko>  (87) 
{"free_energy": -9.44, "intermolecular_energy": -10.64, "internal_energy": -0.85, "cluster_size": 24, "cluster_id": 2, "rank_in_cluster": 8}

>  <energy>  (87) 
-9.32

>  <cluster_rmsd>  (87) 
0.4

>  <cluster>  (87) 
2

$$$$

     RDKit          3D

 66 71  0  0  1  0  0  0  0  0999 V2000
  139.2140   75.5370  222.4650 O   0  0  0  0  0  0  0  0  0  0  0  0
  140.1790   76.2550  222.0760 C   0  0  0  0  0  0  0  0  0  0  0  0
  141.3530   75.6280  221.5710 N   0  0  0  0  0  0  0  0  0  0  0  0
  141.5010   74.2160  221.4770 C   0  0  0  0  0  0  0  0  0  0  0  0
  142.2370   73.6740  220.4720 N   0  0  0  0  0  0  0  0  0  0  0  0
  142.3960   72.3490  220.3560 C   0  0  0  0  0  0  0  0  0  0  0  0
  143.1750   71.8190  219.2890 N   0  0  0  0  0  0  0  0  0  0  0  0
  144.3700   72.5520  218.9210 C   0  0  0  0  0  0  0  0  0  0  0  0
  145.0510   71.9360  217.7180 C   0  0  0  0  0  0  0  0  0  0  0  0
  145.1240   70.4600  217.9730 C   0  0  0  0  0  0  0  0  0  0  0  0
  146.3040   69.7570  217.7690 C   0  0  0  0  0  0  0  0  0  0  0  0
  146.3160   68.3930  218.0220 C   0  0  0  0  0  0  0  0  0  0  0  0
  145.1950   67.7370  218.4640 C   0  0  0  0  0  0  0  0  0  0  0  0
  144.0130   68.4170  218.6720 C   0  0  0  0  0  0  0  0  0  0  0  0
  144.0090   69.7680  218.4200 C   0  0  0  0  0  0  0  0  0  0  0  0
  142.7720   70.6000  218.6160 C   0  0  0  0  0  0  0  0  0  0  0  0
  141.8000   71.5470  221.2730 N   0  0  0  0  0  0  0  0  0  0  0  0
  141.0650   72.0400  222.2800 C   0  0  0  0  0  0  0  0  0  0  0  0
  140.4530   71.1720  223.2250 N   0  0  0  0  0  0  0  0  0  0  0  0
  139.5280   70.1490  222.7770 C   0  0  0  0  0  0  0  0  0  0  0  0
  138.4160   70.1080  223.8340 C   0  0  0  0  0  0  0  0  0  0  0  0
  139.0930   69.5590  225.0440 C   0  0  0  0  0  0  0  0  0  0  0  0
  138.5420   68.4880  225.7160 C   0  0  0  0  0  0  0  0  0  0  0  0
  139.2040   68.0110  226.8330 C   0  0  0  0  0  0  0  0  0  0  0  0
  140.3770   68.6220  227.2290 C   0  0  0  0  0  0  0  0  0  0  0  0
  140.9210   69.6960  226.5490 C   0  0  0  0  0  0  0  0  0  0  0  0
  140.2640   70.1770  225.4310 C   0  0  0  0  0  0  0  0  0  0  0  0
  140.7670   71.3250  224.6320 C   0  0  0  0  0  0  0  0  0  0  0  0
  140.9230   73.3700  222.3720 N   0  0  0  0  0  0  0  0  0  0  0  0
  140.1570   77.7360  222.1190 C   0  0  1  0  0  0  0  0  0  0  0  0
  138.8980   78.2830  222.7130 C   0  0  0  0  0  0  0  0  0  0  0  0
  139.0180   79.7920  222.7350 C   0  0  0  0  0  0  0  0  0  0  0  0
  140.3060   80.1460  223.4750 C   0  0  0  0  0  0  0  0  0  0  0  0
  141.4690   79.6560  222.7400 N   0  0  0  0  0  0  0  0  0  0  0  0
  141.4010   78.1980  222.8270 C   0  0  0  0  0  0  0  0  0  0  0  0
  142.1660   76.2290  221.2440 H   0  0  0  0  0  0  0  0  0  0  0  0
  144.0935   73.5896  218.6826 H   0  0  0  0  0  0  0  0  0  0  0  0
  145.0702   72.5178  219.7687 H   0  0  0  0  0  0  0  0  0  0  0  0
  144.4660   72.1350  216.8080 H   0  0  0  0  0  0  0  0  0  0  0  0
  146.0543   72.3621  217.5700 H   0  0  0  0  0  0  0  0  0  0  0  0
  147.2098   70.2706  217.4144 H   0  0  0  0  0  0  0  0  0  0  0  0
  147.2447   67.8249  217.8648 H   0  0  0  0  0  0  0  0  0  0  0  0
  145.2394   66.6546  218.6550 H   0  0  0  0  0  0  0  0  0  0  0  0
  143.1096   67.8985  219.0255 H   0  0  0  0  0  0  0  0  0  0  0  0
  142.3210   70.8393  217.6417 H   0  0  0  0  0  0  0  0  0  0  0  0
  142.0258   70.0543  219.2122 H   0  0  0  0  0  0  0  0  0  0  0  0
  139.1128   70.4110  221.7926 H   0  0  0  0  0  0  0  0  0  0  0  0
  140.0223   69.1724  222.6675 H   0  0  0  0  0  0  0  0  0  0  0  0
  138.0235   71.1170  224.0288 H   0  0  0  0  0  0  0  0  0  0  0  0
  137.5529   69.5032  223.5191 H   0  0  0  0  0  0  0  0  0  0  0  0
  137.6038   68.0268  225.3738 H   0  0  0  0  0  0  0  0  0  0  0  0
  138.8016   67.1571  227.3977 H   0  0  0  0  0  0  0  0  0  0  0  0
  140.8984   68.2400  228.1190 H   0  0  0  0  0  0  0  0  0  0  0  0
  141.8585   70.1591  226.8907 H   0  0  0  0  0  0  0  0  0  0  0  0
  140.3017   72.2500  225.0034 H   0  0  0  0  0  0  0  0  0  0  0  0
  141.8610   71.3664  224.7387 H   0  0  0  0  0  0  0  0  0  0  0  0
  140.1568   78.1351  221.0940 H   0  0  0  0  0  0  0  0  0  0  0  0
  138.0343   77.9846  222.1007 H   0  0  0  0  0  0  0  0  0  0  0  0
  138.7508   77.8930  223.7310 H   0  0  0  0  0  0  0  0  0  0  0  0
  139.0587   80.1794  221.7063 H   0  0  0  0  0  0  0  0  0  0  0  0
  138.1491   80.2397  223.2395 H   0  0  0  0  0  0  0  0  0  0  0  0
  140.3763   81.2390  223.5769 H   0  0  0  0  0  0  0  0  0  0  0  0
  140.2874   79.6731  224.4680 H   0  0  0  0  0  0  0  0  0  0  0  0
  141.3400   79.8890  221.7250 H   0  0  0  0  0  0  0  0  0  0  0  0
  142.2868   77.7558  222.3476 H   0  0  0  0  0  0  0  0  0  0  0  0
  141.3740   77.8838  223.8808 H   0  0  0  0  0  0  0  0  0  0  0  0
  1  2  2  0
  2  3  1  0
  3  4  1  0
  4  5  2  0
  5  6  1  0
  6  7  1  0
  7  8  1  0
  8  9  1  0
  9 10  1  0
 10 11  2  0
 11 12  1  0
 12 13  2  0
 13 14  1  0
 14 15  2  0
 15 16  1  0
  6 17  2  0
 17 18  1  0
 18 19  1  0
 19 20  1  0
 20 21  1  0
 21 22  1  0
 22 23  2  0
 23 24  1  0
 24 25  2  0
 25 26  1  0
 26 27  2  0
 27 28  1  0
 18 29  2  0
  2 30  1  0
 30 31  1  0
 31 32  1  0
 32 33  1  0
 33 34  1  0
 34 35  1  0
 29  4  1  0
 35 30  1  0
 16  7  1  0
 28 19  1  0
 15 10  1  0
 27 22  1  0
  3 36  1  0
  8 37  1  0
  8 38  1  0
  9 39  1  0
  9 40  1  0
 11 41  1  0
 12 42  1  0
 13 43  1  0
 14 44  1  0
 16 45  1  0
 16 46  1  0
 20 47  1  0
 20 48  1  0
 21 49  1  0
 21 50  1  0
 23 51  1  0
 24 52  1  0
 25 53  1  0
 26 54  1  0
 28 55  1  0
 28 56  1  0
 30 57  1  6
 31 58  1  0
 31 59  1  0
 32 60  1  0
 32 61  1  0
 33 62  1  0
 33 63  1  0
 34 64  1  0
 35 65  1  0
 35 66  1  0
M  END
>  <smiles>  (88) 
O=C(Nc1nc(N2CCc3ccccc3C2)nc(N2CCc3ccccc3C2)n1)C1CCCNC1

>  <score_type>  (88) 
oracle

>  <origin>  (88) 
autodockgpu

>  <m_score__min__energy>  (88) 
-9.5399999999999991

>  <m_primary>  (88) 
energy

>  <rmsd>  (88) 
5.2716204387210635

>  <m_score__min__rmsd>  (88) 
5.2716204387210635

>  <meeko>  (88) 
{"free_energy": -9.01, "intermolecular_energy": -10.21, "internal_energy": -0.79, "cluster_size": 23, "cluster_id": 1, "rank_in_cluster": 22}

>  <energy>  (88) 
-9.31

>  <cluster_rmsd>  (88) 
1.24

>  <cluster>  (88) 
2

$$$$

     RDKit          3D

 66 71  0  0  1  0  0  0  0  0999 V2000
  141.4100   71.8770  225.4820 O   0  0  0  0  0  0  0  0  0  0  0  0
  140.4500   71.1090  225.1910 C   0  0  0  0  0  0  0  0  0  0  0  0
  139.9210   71.1290  223.8700 N   0  0  0  0  0  0  0  0  0  0  0  0
  140.4220   71.9780  222.8430 C   0  0  0  0  0  0  0  0  0  0  0  0
  139.9830   73.2580  222.7440 N   0  0  0  0  0  0  0  0  0  0  0  0
  140.4350   74.0830  221.7890 C   0  0  0  0  0  0  0  0  0  0  0  0
  139.9500   75.4190  221.7180 N   0  0  0  0  0  0  0  0  0  0  0  0
  138.6040   75.6560  222.2000 C   0  0  0  0  0  0  0  0  0  0  0  0
  138.1810   77.0930  221.9820 C   0  0  0  0  0  0  0  0  0  0  0  0
  139.3120   77.9520  222.4610 C   0  0  0  0  0  0  0  0  0  0  0  0
  139.0800   79.0410  223.2900 C   0  0  0  0  0  0  0  0  0  0  0  0
  140.1630   79.8030  223.7040 C   0  0  0  0  0  0  0  0  0  0  0  0
  141.4420   79.5000  223.3120 C   0  0  0  0  0  0  0  0  0  0  0  0
  141.6940   78.4230  222.4880 C   0  0  0  0  0  0  0  0  0  0  0  0
  140.6160   77.6730  222.0820 C   0  0  0  0  0  0  0  0  0  0  0  0
  140.7830   76.4790  221.1840 C   0  0  0  0  0  0  0  0  0  0  0  0
  141.3530   73.6070  220.9110 N   0  0  0  0  0  0  0  0  0  0  0  0
  141.8130   72.3490  220.9730 C   0  0  0  0  0  0  0  0  0  0  0  0
  142.7750   71.8810  220.0370 N   0  0  0  0  0  0  0  0  0  0  0  0
  143.7020   72.8120  219.4240 C   0  0  0  0  0  0  0  0  0  0  0  0
  143.8430   72.3530  217.9660 C   0  0  0  0  0  0  0  0  0  0  0  0
  144.5640   71.0520  218.0690 C   0  0  0  0  0  0  0  0  0  0  0  0
  145.6940   70.8270  217.3120 C   0  0  0  0  0  0  0  0  0  0  0  0
  146.3310   69.6060  217.4390 C   0  0  0  0  0  0  0  0  0  0  0  0
  145.8130   68.6680  218.3100 C   0  0  0  0  0  0  0  0  0  0  0  0
  144.6780   68.9020  219.0650 C   0  0  0  0  0  0  0  0  0  0  0  0
  144.0380   70.1220  218.9420 C   0  0  0  0  0  0  0  0  0  0  0  0
  142.8130   70.4700  219.7090 C   0  0  0  0  0  0  0  0  0  0  0  0
  141.3430   71.5470  221.9380 N   0  0  0  0  0  0  0  0  0  0  0  0
  139.8330   70.1750  226.1620 C   0  0  1  0  0  0  0  0  0  0  0  0
  140.2060   68.7480  225.9140 C   0  0  0  0  0  0  0  0  0  0  0  0
  139.5490   67.9080  226.9900 C   0  0  0  0  0  0  0  0  0  0  0  0
  139.9690   68.4750  228.3440 C   0  0  0  0  0  0  0  0  0  0  0  0
  139.4520   69.8300  228.5130 N   0  0  0  0  0  0  0  0  0  0  0  0
  140.1790   70.6510  227.5460 C   0  0  0  0  0  0  0  0  0  0  0  0
  139.1130   70.4840  223.6210 H   0  0  0  0  0  0  0  0  0  0  0  0
  137.9100   74.9937  221.6619 H   0  0  0  0  0  0  0  0  0  0  0  0
  138.5834   75.4506  223.2804 H   0  0  0  0  0  0  0  0  0  0  0  0
  137.9929   77.2749  220.9136 H   0  0  0  0  0  0  0  0  0  0  0  0
  137.2532   77.3196  222.5278 H   0  0  0  0  0  0  0  0  0  0  0  0
  138.0591   79.2944  223.6119 H   0  0  0  0  0  0  0  0  0  0  0  0
  139.9922   80.6688  224.3607 H   0  0  0  0  0  0  0  0  0  0  0  0
  142.2782   80.1245  223.6595 H   0  0  0  0  0  0  0  0  0  0  0  0
  142.7168   78.1742  222.1685 H   0  0  0  0  0  0  0  0  0  0  0  0
  140.4643   76.7294  220.1614 H   0  0  0  0  0  0  0  0  0  0  0  0
  141.8365   76.1648  221.1452 H   0  0  0  0  0  0  0  0  0  0  0  0
  143.3029   73.8361  219.4674 H   0  0  0  0  0  0  0  0  0  0  0  0
  144.6717   72.8228  219.9433 H   0  0  0  0  0  0  0  0  0  0  0  0
  142.8554   72.2176  217.5009 H   0  0  0  0  0  0  0  0  0  0  0  0
  144.3746   73.0847  217.3399 H   0  0  0  0  0  0  0  0  0  0  0  0
  146.0781   71.5967  216.6264 H   0  0  0  0  0  0  0  0  0  0  0  0
  147.2367   69.3854  216.8549 H   0  0  0  0  0  0  0  0  0  0  0  0
  146.3224   67.6979  218.4071 H   0  0  0  0  0  0  0  0  0  0  0  0
  144.2918   68.1328  219.7500 H   0  0  0  0  0  0  0  0  0  0  0  0
  141.9292   70.2197  219.1038 H   0  0  0  0  0  0  0  0  0  0  0  0
  142.8194   69.8973  220.6481 H   0  0  0  0  0  0  0  0  0  0  0  0
  138.7397   70.1839  226.0410 H   0  0  0  0  0  0  0  0  0  0  0  0
  139.8481   68.4339  224.9224 H   0  0  0  0  0  0  0  0  0  0  0  0
  141.2987   68.6244  225.9415 H   0  0  0  0  0  0  0  0  0  0  0  0
  138.4549   67.9563  226.8869 H   0  0  0  0  0  0  0  0  0  0  0  0
  139.8590   66.8564  226.9002 H   0  0  0  0  0  0  0  0  0  0  0  0
  139.5716   67.8334  229.1443 H   0  0  0  0  0  0  0  0  0  0  0  0
  141.0675   68.5045  228.3923 H   0  0  0  0  0  0  0  0  0  0  0  0
  138.4490   69.8420  228.2020 H   0  0  0  0  0  0  0  0  0  0  0  0
  139.8866   71.7053  227.6599 H   0  0  0  0  0  0  0  0  0  0  0  0
  141.2623   70.5633  227.7154 H   0  0  0  0  0  0  0  0  0  0  0  0
  1  2  2  0
  2  3  1  0
  3  4  1  0
  4  5  2  0
  5  6  1  0
  6  7  1  0
  7  8  1  0
  8  9  1  0
  9 10  1  0
 10 11  2  0
 11 12  1  0
 12 13  2  0
 13 14  1  0
 14 15  2  0
 15 16  1  0
  6 17  2  0
 17 18  1  0
 18 19  1  0
 19 20  1  0
 20 21  1  0
 21 22  1  0
 22 23  2  0
 23 24  1  0
 24 25  2  0
 25 26  1  0
 26 27  2  0
 27 28  1  0
 18 29  2  0
  2 30  1  0
 30 31  1  0
 31 32  1  0
 32 33  1  0
 33 34  1  0
 34 35  1  0
 29  4  1  0
 35 30  1  0
 16  7  1  0
 28 19  1  0
 15 10  1  0
 27 22  1  0
  3 36  1  0
  8 37  1  0
  8 38  1  0
  9 39  1  0
  9 40  1  0
 11 41  1  0
 12 42  1  0
 13 43  1  0
 14 44  1  0
 16 45  1  0
 16 46  1  0
 20 47  1  0
 20 48  1  0
 21 49  1  0
 21 50  1  0
 23 51  1  0
 24 52  1  0
 25 53  1  0
 26 54  1  0
 28 55  1  0
 28 56  1  0
 30 57  1  1
 31 58  1  0
 31 59  1  0
 32 60  1  0
 32 61  1  0
 33 62  1  0
 33 63  1  0
 34 64  1  0
 35 65  1  0
 35 66  1  0
M  END
>  <smiles>  (89) 
O=C(Nc1nc(N2CCc3ccccc3C2)nc(N2CCc3ccccc3C2)n1)C1CCCNC1

>  <score_type>  (89) 
oracle

>  <origin>  (89) 
autodockgpu

>  <m_score__min__energy>  (89) 
-9.5399999999999991

>  <m_primary>  (89) 
energy

>  <rmsd>  (89) 
10.284165068685974

>  <m_score__min__rmsd>  (89) 
10.284165068685974

>  <meeko>  (89) 
{"free_energy": -9.08, "intermolecular_energy": -10.27, "internal_energy": -0.81, "cluster_size": 3, "cluster_id": 3, "rank_in_cluster": 2}

>  <energy>  (89) 
-9.31

>  <cluster_rmsd>  (89) 
1.17

>  <cluster>  (89) 
2

$$$$

     RDKit          3D

 66 71  0  0  1  0  0  0  0  0999 V2000
  144.8250   73.7430  220.4990 O   0  0  0  0  0  0  0  0  0  0  0  0
  144.3900   73.1240  219.4870 C   0  0  0  0  0  0  0  0  0  0  0  0
  143.0120   72.7770  219.4220 N   0  0  0  0  0  0  0  0  0  0  0  0
  142.0810   73.0950  220.4510 C   0  0  0  0  0  0  0  0  0  0  0  0
  141.6180   74.3650  220.5810 N   0  0  0  0  0  0  0  0  0  0  0  0
  140.7410   74.6960  221.5390 C   0  0  0  0  0  0  0  0  0  0  0  0
  140.2800   76.0380  221.6440 N   0  0  0  0  0  0  0  0  0  0  0  0
  139.0540   76.2560  222.3870 C   0  0  0  0  0  0  0  0  0  0  0  0
  138.6270   77.7070  222.3420 C   0  0  0  0  0  0  0  0  0  0  0  0
  139.8470   78.5240  222.6500 C   0  0  0  0  0  0  0  0  0  0  0  0
  139.7990   79.5590  223.5730 C   0  0  0  0  0  0  0  0  0  0  0  0
  140.9570   80.2820  223.8200 C   0  0  0  0  0  0  0  0  0  0  0  0
  142.1320   79.9950  223.1740 C   0  0  0  0  0  0  0  0  0  0  0  0
  142.2000   78.9700  222.2520 C   0  0  0  0  0  0  0  0  0  0  0  0
  141.0490   78.2580  222.0130 C   0  0  0  0  0  0  0  0  0  0  0  0
  141.0180   77.1230  221.0280 C   0  0  0  0  0  0  0  0  0  0  0  0
  140.3190   73.7260  222.3870 N   0  0  0  0  0  0  0  0  0  0  0  0
  140.7510   72.4600  222.2940 C   0  0  0  0  0  0  0  0  0  0  0  0
  140.2880   71.4660  223.2000 N   0  0  0  0  0  0  0  0  0  0  0  0
  139.4680   70.3720  222.7180 C   0  0  0  0  0  0  0  0  0  0  0  0
  138.4190   70.1310  223.8120 C   0  0  0  0  0  0  0  0  0  0  0  0
  139.2100   69.5900  224.9530 C   0  0  0  0  0  0  0  0  0  0  0  0
  138.8200   68.4200  225.5700 C   0  0  0  0  0  0  0  0  0  0  0  0
  139.5830   67.9540  226.6250 C   0  0  0  0  0  0  0  0  0  0  0  0
  140.6950   68.6730  227.0160 C   0  0  0  0  0  0  0  0  0  0  0  0
  141.0790   69.8460  226.3920 C   0  0  0  0  0  0  0  0  0  0  0  0
  140.3190   70.3160  225.3360 C   0  0  0  0  0  0  0  0  0  0  0  0
  140.6480   71.5650  224.6000 C   0  0  0  0  0  0  0  0  0  0  0  0
  141.6270   72.1570  221.3260 N   0  0  0  0  0  0  0  0  0  0  0  0
  145.2500   72.7310  218.3440 C   0  0  1  0  0  0  0  0  0  0  0  0
  145.0610   71.3040  217.9370 C   0  0  0  0  0  0  0  0  0  0  0  0
  145.9590   71.0440  216.7460 C   0  0  0  0  0  0  0  0  0  0  0  0
  145.6290   72.0850  215.6790 C   0  0  0  0  0  0  0  0  0  0  0  0
  145.9600   73.4260  216.1530 N   0  0  0  0  0  0  0  0  0  0  0  0
  145.0090   73.7080  217.2260 C   0  0  0  0  0  0  0  0  0  0  0  0
  142.6430   72.2550  218.5720 H   0  0  0  0  0  0  0  0  0  0  0  0
  138.2571   75.6355  221.9511 H   0  0  0  0  0  0  0  0  0  0  0  0
  139.2343   75.9824  223.4371 H   0  0  0  0  0  0  0  0  0  0  0  0
  138.2443   77.9589  221.3419 H   0  0  0  0  0  0  0  0  0  0  0  0
  137.8236   77.9062  223.0665 H   0  0  0  0  0  0  0  0  0  0  0  0
  138.8629   79.8010  224.0976 H   0  0  0  0  0  0  0  0  0  0  0  0
  140.9320   81.1040  224.5505 H   0  0  0  0  0  0  0  0  0  0  0  0
  143.0315   80.5890  223.3932 H   0  0  0  0  0  0  0  0  0  0  0  0
  143.1382   78.7324  221.7293 H   0  0  0  0  0  0  0  0  0  0  0  0
  140.5165   77.4415  220.1022 H   0  0  0  0  0  0  0  0  0  0  0  0
  142.0384   76.8030  220.7702 H   0  0  0  0  0  0  0  0  0  0  0  0
  138.9797   70.6461  221.7712 H   0  0  0  0  0  0  0  0  0  0  0  0
  140.0663   69.4702  222.5214 H   0  0  0  0  0  0  0  0  0  0  0  0
  137.9216   71.0715  224.0915 H   0  0  0  0  0  0  0  0  0  0  0  0
  137.6183   69.4492  223.4895 H   0  0  0  0  0  0  0  0  0  0  0  0
  137.9273   67.8729  225.2326 H   0  0  0  0  0  0  0  0  0  0  0  0
  139.3081   67.0244  227.1449 H   0  0  0  0  0  0  0  0  0  0  0  0
  141.2986   68.2985  227.8559 H   0  0  0  0  0  0  0  0  0  0  0  0
  141.9711   70.3944  226.7287 H   0  0  0  0  0  0  0  0  0  0  0  0
  140.0968   72.4025  225.0526 H   0  0  0  0  0  0  0  0  0  0  0  0
  141.7336   71.7296  224.6668 H   0  0  0  0  0  0  0  0  0  0  0  0
  146.3075   72.7792  218.6428 H   0  0  0  0  0  0  0  0  0  0  0  0
  145.3372   70.6375  218.7674 H   0  0  0  0  0  0  0  0  0  0  0  0
  144.0095   71.1129  217.6766 H   0  0  0  0  0  0  0  0  0  0  0  0
  147.0136   71.1355  217.0451 H   0  0  0  0  0  0  0  0  0  0  0  0
  145.7969   70.0283  216.3561 H   0  0  0  0  0  0  0  0  0  0  0  0
  146.2099   71.8686  214.7703 H   0  0  0  0  0  0  0  0  0  0  0  0
  144.5519   72.0409  215.4601 H   0  0  0  0  0  0  0  0  0  0  0  0
  146.9060   73.3900  216.6090 H   0  0  0  0  0  0  0  0  0  0  0  0
  145.1559   74.7349  217.5921 H   0  0  0  0  0  0  0  0  0  0  0  0
  143.9788   73.6088  216.8533 H   0  0  0  0  0  0  0  0  0  0  0  0
  1  2  2  0
  2  3  1  0
  3  4  1  0
  4  5  2  0
  5  6  1  0
  6  7  1  0
  7  8  1  0
  8  9  1  0
  9 10  1  0
 10 11  2  0
 11 12  1  0
 12 13  2  0
 13 14  1  0
 14 15  2  0
 15 16  1  0
  6 17  2  0
 17 18  1  0
 18 19  1  0
 19 20  1  0
 20 21  1  0
 21 22  1  0
 22 23  2  0
 23 24  1  0
 24 25  2  0
 25 26  1  0
 26 27  2  0
 27 28  1  0
 18 29  2  0
  2 30  1  0
 30 31  1  0
 31 32  1  0
 32 33  1  0
 33 34  1  0
 34 35  1  0
 29  4  1  0
 35 30  1  0
 16  7  1  0
 28 19  1  0
 15 10  1  0
 27 22  1  0
  3 36  1  0
  8 37  1  0
  8 38  1  0
  9 39  1  0
  9 40  1  0
 11 41  1  0
 12 42  1  0
 13 43  1  0
 14 44  1  0
 16 45  1  0
 16 46  1  0
 20 47  1  0
 20 48  1  0
 21 49  1  0
 21 50  1  0
 23 51  1  0
 24 52  1  0
 25 53  1  0
 26 54  1  0
 28 55  1  0
 28 56  1  0
 30 57  1  1
 31 58  1  0
 31 59  1  0
 32 60  1  0
 32 61  1  0
 33 62  1  0
 33 63  1  0
 34 64  1  0
 35 65  1  0
 35 66  1  0
M  END
>  <smiles>  (90) 
O=C(Nc1nc(N2CCc3ccccc3C2)nc(N2CCc3ccccc3C2)n1)C1CCCNC1

>  <score_type>  (90) 
oracle

>  <origin>  (90) 
autodockgpu

>  <m_score__min__energy>  (90) 
-9.5399999999999991

>  <m_primary>  (90) 
energy

>  <rmsd>  (90) 
7.129976246278046

>  <m_score__min__rmsd>  (90) 
7.129976246278046

>  <meeko>  (90) 
{"free_energy": -9.38, "intermolecular_energy": -10.58, "internal_energy": -0.85, "cluster_size": 24, "cluster_id": 2, "rank_in_cluster": 12}

>  <energy>  (90) 
-9.28

>  <cluster_rmsd>  (90) 
1.05

>  <cluster>  (90) 
2

$$$$

     RDKit          3D

 66 71  0  0  1  0  0  0  0  0999 V2000
  139.3940   76.1510  222.7210 O   0  0  0  0  0  0  0  0  0  0  0  0
  140.4280   76.7220  222.2720 C   0  0  0  0  0  0  0  0  0  0  0  0
  141.4630   75.9330  221.6960 N   0  0  0  0  0  0  0  0  0  0  0  0
  141.3970   74.5150  221.5960 C   0  0  0  0  0  0  0  0  0  0  0  0
  142.3020   73.8430  220.8390 N   0  0  0  0  0  0  0  0  0  0  0  0
  142.2660   72.5080  220.7250 C   0  0  0  0  0  0  0  0  0  0  0  0
  143.2320   71.8400  219.9220 N   0  0  0  0  0  0  0  0  0  0  0  0
  144.5870   72.3550  219.9570 C   0  0  0  0  0  0  0  0  0  0  0  0
  145.4880   71.6160  218.9920 C   0  0  0  0  0  0  0  0  0  0  0  0
  145.2350   70.1520  219.2020 C   0  0  0  0  0  0  0  0  0  0  0  0
  146.2890   69.2580  219.3350 C   0  0  0  0  0  0  0  0  0  0  0  0
  145.9980   67.9150  219.5280 C   0  0  0  0  0  0  0  0  0  0  0  0
  144.7050   67.4640  219.5890 C   0  0  0  0  0  0  0  0  0  0  0  0
  143.6440   68.3370  219.4580 C   0  0  0  0  0  0  0  0  0  0  0  0
  143.9390   69.6650  219.2670 C   0  0  0  0  0  0  0  0  0  0  0  0
  142.8560   70.6970  219.1130 C   0  0  0  0  0  0  0  0  0  0  0  0
  141.2960   71.8320  221.3890 N   0  0  0  0  0  0  0  0  0  0  0  0
  140.3830   72.4560  222.1470 C   0  0  0  0  0  0  0  0  0  0  0  0
  139.3780   71.7170  222.8290 N   0  0  0  0  0  0  0  0  0  0  0  0
  139.7490   70.7900  223.8800 C   0  0  0  0  0  0  0  0  0  0  0  0
  138.8140   69.5840  223.7130 C   0  0  0  0  0  0  0  0  0  0  0  0
  137.4720   70.1170  224.0800 C   0  0  0  0  0  0  0  0  0  0  0  0
  136.6970   69.4560  225.0100 C   0  0  0  0  0  0  0  0  0  0  0  0
  135.4590   69.9860  225.3210 C   0  0  0  0  0  0  0  0  0  0  0  0
  135.0500   71.1460  224.6940 C   0  0  0  0  0  0  0  0  0  0  0  0
  135.8330   71.8030  223.7620 C   0  0  0  0  0  0  0  0  0  0  0  0
  137.0730   71.2770  223.4480 C   0  0  0  0  0  0  0  0  0  0  0  0
  137.9890   71.9070  222.4610 C   0  0  0  0  0  0  0  0  0  0  0  0
  140.4420   73.7920  222.2430 N   0  0  0  0  0  0  0  0  0  0  0  0
  140.6270   78.1900  222.3120 C   0  0  1  0  0  0  0  0  0  0  0  0
  141.4090   78.6390  223.5050 C   0  0  0  0  0  0  0  0  0  0  0  0
  141.5740   80.1420  223.4080 C   0  0  0  0  0  0  0  0  0  0  0  0
  142.2020   80.4520  222.0510 C   0  0  0  0  0  0  0  0  0  0  0  0
  141.2980   80.0710  220.9690 N   0  0  0  0  0  0  0  0  0  0  0  0
  141.2390   78.6110  221.0040 C   0  0  0  0  0  0  0  0  0  0  0  0
  142.3350   76.4110  221.3180 H   0  0  0  0  0  0  0  0  0  0  0  0
  144.5710   73.4209  219.6857 H   0  0  0  0  0  0  0  0  0  0  0  0
  144.9826   72.2147  220.9738 H   0  0  0  0  0  0  0  0  0  0  0  0
  145.2468   71.8978  217.9564 H   0  0  0  0  0  0  0  0  0  0  0  0
  146.5451   71.8644  219.1679 H   0  0  0  0  0  0  0  0  0  0  0  0
  147.3313   69.6065  219.2884 H   0  0  0  0  0  0  0  0  0  0  0  0
  146.8237   67.1960  219.6344 H   0  0  0  0  0  0  0  0  0  0  0  0
  144.5105   66.3925  219.7444 H   0  0  0  0  0  0  0  0  0  0  0  0
  142.6034   67.9834  219.5047 H   0  0  0  0  0  0  0  0  0  0  0  0
  142.7674   70.9953  218.0579 H   0  0  0  0  0  0  0  0  0  0  0  0
  141.8848   70.2938  219.4358 H   0  0  0  0  0  0  0  0  0  0  0  0
  140.7987   70.4810  223.7671 H   0  0  0  0  0  0  0  0  0  0  0  0
  139.6540   71.2447  224.8771 H   0  0  0  0  0  0  0  0  0  0  0  0
  138.8213   69.2242  222.6735 H   0  0  0  0  0  0  0  0  0  0  0  0
  139.1136   68.7261  224.3329 H   0  0  0  0  0  0  0  0  0  0  0  0
  137.0541   68.5332  225.4905 H   0  0  0  0  0  0  0  0  0  0  0  0
  134.8090   69.4908  226.0574 H   0  0  0  0  0  0  0  0  0  0  0  0
  134.0639   71.5637  224.9452 H   0  0  0  0  0  0  0  0  0  0  0  0
  135.4766   72.7254  223.2802 H   0  0  0  0  0  0  0  0  0  0  0  0
  137.8158   71.4549  221.4733 H   0  0  0  0  0  0  0  0  0  0  0  0
  137.7824   72.9872  222.4388 H   0  0  0  0  0  0  0  0  0  0  0  0
  139.6554   78.6913  222.4327 H   0  0  0  0  0  0  0  0  0  0  0  0
  140.8677   78.3802  224.4270 H   0  0  0  0  0  0  0  0  0  0  0  0
  142.3911   78.1443  223.5306 H   0  0  0  0  0  0  0  0  0  0  0  0
  140.5928   80.6328  223.4879 H   0  0  0  0  0  0  0  0  0  0  0  0
  142.2129   80.5134  224.2228 H   0  0  0  0  0  0  0  0  0  0  0  0
  142.4096   81.5303  221.9862 H   0  0  0  0  0  0  0  0  0  0  0  0
  143.1358   79.8790  221.9523 H   0  0  0  0  0  0  0  0  0  0  0  0
  140.3320   80.4030  221.2140 H   0  0  0  0  0  0  0  0  0  0  0  0
  140.6220   78.2444  220.1704 H   0  0  0  0  0  0  0  0  0  0  0  0
  142.2508   78.1902  220.9082 H   0  0  0  0  0  0  0  0  0  0  0  0
  1  2  2  0
  2  3  1  0
  3  4  1  0
  4  5  2  0
  5  6  1  0
  6  7  1  0
  7  8  1  0
  8  9  1  0
  9 10  1  0
 10 11  2  0
 11 12  1  0
 12 13  2  0
 13 14  1  0
 14 15  2  0
 15 16  1  0
  6 17  2  0
 17 18  1  0
 18 19  1  0
 19 20  1  0
 20 21  1  0
 21 22  1  0
 22 23  2  0
 23 24  1  0
 24 25  2  0
 25 26  1  0
 26 27  2  0
 27 28  1  0
 18 29  2  0
  2 30  1  0
 30 31  1  0
 31 32  1  0
 32 33  1  0
 33 34  1  0
 34 35  1  0
 29  4  1  0
 35 30  1  0
 16  7  1  0
 28 19  1  0
 15 10  1  0
 27 22  1  0
  3 36  1  0
  8 37  1  0
  8 38  1  0
  9 39  1  0
  9 40  1  0
 11 41  1  0
 12 42  1  0
 13 43  1  0
 14 44  1  0
 16 45  1  0
 16 46  1  0
 20 47  1  0
 20 48  1  0
 21 49  1  0
 21 50  1  0
 23 51  1  0
 24 52  1  0
 25 53  1  0
 26 54  1  0
 28 55  1  0
 28 56  1  0
 30 57  1  1
 31 58  1  0
 31 59  1  0
 32 60  1  0
 32 61  1  0
 33 62  1  0
 33 63  1  0
 34 64  1  0
 35 65  1  0
 35 66  1  0
M  END
>  <smiles>  (91) 
O=C(Nc1nc(N2CCc3ccccc3C2)nc(N2CCc3ccccc3C2)n1)C1CCCNC1

>  <score_type>  (91) 
oracle

>  <origin>  (91) 
autodockgpu

>  <m_score__min__energy>  (91) 
-9.5399999999999991

>  <m_primary>  (91) 
energy

>  <rmsd>  (91) 
5.503648222606431

>  <m_score__min__rmsd>  (91) 
5.503648222606431

>  <meeko>  (91) 
{"free_energy": -9.03, "intermolecular_energy": -10.22, "internal_energy": -0.79, "cluster_size": 23, "cluster_id": 1, "rank_in_cluster": 20}

>  <energy>  (91) 
-9.27

>  <cluster_rmsd>  (91) 
0.64

>  <cluster>  (91) 
2

$$$$

     RDKit          3D

 66 71  0  0  1  0  0  0  0  0999 V2000
  142.7780   75.4100  218.3620 O   0  0  0  0  0  0  0  0  0  0  0  0
  143.2910   74.2570  218.2940 C   0  0  0  0  0  0  0  0  0  0  0  0
  142.9420   73.2810  219.2690 N   0  0  0  0  0  0  0  0  0  0  0  0
  142.0310   73.5360  220.3330 C   0  0  0  0  0  0  0  0  0  0  0  0
  141.5680   74.7940  220.5460 N   0  0  0  0  0  0  0  0  0  0  0  0
  140.7100   75.0670  221.5390 C   0  0  0  0  0  0  0  0  0  0  0  0
  140.2470   76.3990  221.7300 N   0  0  0  0  0  0  0  0  0  0  0  0
  139.1420   76.5850  222.6490 C   0  0  0  0  0  0  0  0  0  0  0  0
  138.6890   78.0290  222.6890 C   0  0  0  0  0  0  0  0  0  0  0  0
  139.9270   78.8640  222.8240 C   0  0  0  0  0  0  0  0  0  0  0  0
  140.0000   79.8870  223.7600 C   0  0  0  0  0  0  0  0  0  0  0  0
  141.1690   80.6290  223.8430 C   0  0  0  0  0  0  0  0  0  0  0  0
  142.2400   80.3710  223.0260 C   0  0  0  0  0  0  0  0  0  0  0  0
  142.1880   79.3590  222.0890 C   0  0  0  0  0  0  0  0  0  0  0  0
  141.0260   78.6280  222.0130 C   0  0  0  0  0  0  0  0  0  0  0  0
  140.8680   77.5040  221.0270 C   0  0  0  0  0  0  0  0  0  0  0  0
  140.3080   74.0480  222.3380 N   0  0  0  0  0  0  0  0  0  0  0  0
  140.7410   72.7910  222.1640 C   0  0  0  0  0  0  0  0  0  0  0  0
  140.3010   71.7450  223.0200 N   0  0  0  0  0  0  0  0  0  0  0  0
  139.6080   70.5990  222.4660 C   0  0  0  0  0  0  0  0  0  0  0  0
  138.5090   70.2520  223.4800 C   0  0  0  0  0  0  0  0  0  0  0  0
  139.2620   69.7530  224.6660 C   0  0  0  0  0  0  0  0  0  0  0  0
  138.9270   68.5430  225.2370 C   0  0  0  0  0  0  0  0  0  0  0  0
  139.6520   68.1190  226.3360 C   0  0  0  0  0  0  0  0  0  0  0  0
  140.6720   68.9170  226.8150 C   0  0  0  0  0  0  0  0  0  0  0  0
  141.0000   70.1300  226.2360 C   0  0  0  0  0  0  0  0  0  0  0  0
  140.2790   70.5580  225.1370 C   0  0  0  0  0  0  0  0  0  0  0  0
  140.5540   71.8440  224.4440 C   0  0  0  0  0  0  0  0  0  0  0  0
  141.5990   72.5480  221.1620 N   0  0  0  0  0  0  0  0  0  0  0  0
  144.2530   73.8580  217.2380 C   0  0  1  0  0  0  0  0  0  0  0  0
  144.6360   74.9920  216.3420 C   0  0  0  0  0  0  0  0  0  0  0  0
  145.6440   74.4660  215.3410 C   0  0  0  0  0  0  0  0  0  0  0  0
  146.7880   73.8270  216.1260 C   0  0  0  0  0  0  0  0  0  0  0  0
  146.3110   72.6660  216.8720 N   0  0  0  0  0  0  0  0  0  0  0  0
  145.4290   73.2020  217.9080 C   0  0  0  0  0  0  0  0  0  0  0  0
  143.3720   72.3110  219.2140 H   0  0  0  0  0  0  0  0  0  0  0  0
  138.2996   75.9552  222.3269 H   0  0  0  0  0  0  0  0  0  0  0  0
  139.4805   76.3020  223.6566 H   0  0  0  0  0  0  0  0  0  0  0  0
  138.1577   78.2857  221.7607 H   0  0  0  0  0  0  0  0  0  0  0  0
  137.9992   78.2047  223.5276 H   0  0  0  0  0  0  0  0  0  0  0  0
  139.1487   80.1045  224.4218 H   0  0  0  0  0  0  0  0  0  0  0  0
  141.2386   81.4423  224.5804 H   0  0  0  0  0  0  0  0  0  0  0  0
  143.1523   80.9786  223.1188 H   0  0  0  0  0  0  0  0  0  0  0  0
  143.0421   79.1458  221.4294 H   0  0  0  0  0  0  0  0  0  0  0  0
  140.2299   77.8241  220.1901 H   0  0  0  0  0  0  0  0  0  0  0  0
  141.8439   77.2056  220.6165 H   0  0  0  0  0  0  0  0  0  0  0  0
  139.1653   70.8522  221.4914 H   0  0  0  0  0  0  0  0  0  0  0  0
  140.2901   69.7523  222.2990 H   0  0  0  0  0  0  0  0  0  0  0  0
  137.9184   71.1435  223.7378 H   0  0  0  0  0  0  0  0  0  0  0  0
  137.7905   69.5149  223.0921 H   0  0  0  0  0  0  0  0  0  0  0  0
  138.1071   67.9329  224.8302 H   0  0  0  0  0  0  0  0  0  0  0  0
  139.4193   67.1598  226.8215 H   0  0  0  0  0  0  0  0  0  0  0  0
  141.2452   68.5756  227.6896 H   0  0  0  0  0  0  0  0  0  0  0  0
  141.8187   70.7420  226.6423 H   0  0  0  0  0  0  0  0  0  0  0  0
  139.9058   72.6246  224.8688 H   0  0  0  0  0  0  0  0  0  0  0  0
  141.6152   72.0943  224.5893 H   0  0  0  0  0  0  0  0  0  0  0  0
  143.7779   73.1366  216.5570 H   0  0  0  0  0  0  0  0  0  0  0  0
  143.7474   75.3705  215.8156 H   0  0  0  0  0  0  0  0  0  0  0  0
  145.0679   75.8172  216.9272 H   0  0  0  0  0  0  0  0  0  0  0  0
  145.1702   73.7153  214.6914 H   0  0  0  0  0  0  0  0  0  0  0  0
  146.0204   75.2829  214.7077 H   0  0  0  0  0  0  0  0  0  0  0  0
  147.5743   73.5090  215.4255 H   0  0  0  0  0  0  0  0  0  0  0  0
  147.1883   74.5658  216.8359 H   0  0  0  0  0  0  0  0  0  0  0  0
  145.6970   72.0970  216.2380 H   0  0  0  0  0  0  0  0  0  0  0  0
  145.0790   72.3855  218.5568 H   0  0  0  0  0  0  0  0  0  0  0  0
  145.9709   73.9355  218.5232 H   0  0  0  0  0  0  0  0  0  0  0  0
  1  2  2  0
  2  3  1  0
  3  4  1  0
  4  5  2  0
  5  6  1  0
  6  7  1  0
  7  8  1  0
  8  9  1  0
  9 10  1  0
 10 11  2  0
 11 12  1  0
 12 13  2  0
 13 14  1  0
 14 15  2  0
 15 16  1  0
  6 17  2  0
 17 18  1  0
 18 19  1  0
 19 20  1  0
 20 21  1  0
 21 22  1  0
 22 23  2  0
 23 24  1  0
 24 25  2  0
 25 26  1  0
 26 27  2  0
 27 28  1  0
 18 29  2  0
  2 30  1  0
 30 31  1  0
 31 32  1  0
 32 33  1  0
 33 34  1  0
 34 35  1  0
 29  4  1  0
 35 30  1  0
 16  7  1  0
 28 19  1  0
 15 10  1  0
 27 22  1  0
  3 36  1  0
  8 37  1  0
  8 38  1  0
  9 39  1  0
  9 40  1  0
 11 41  1  0
 12 42  1  0
 13 43  1  0
 14 44  1  0
 16 45  1  0
 16 46  1  0
 20 47  1  0
 20 48  1  0
 21 49  1  0
 21 50  1  0
 23 51  1  0
 24 52  1  0
 25 53  1  0
 26 54  1  0
 28 55  1  0
 28 56  1  0
 30 57  1  6
 31 58  1  0
 31 59  1  0
 32 60  1  0
 32 61  1  0
 33 62  1  0
 33 63  1  0
 34 64  1  0
 35 65  1  0
 35 66  1  0
M  END
>  <smiles>  (92) 
O=C(Nc1nc(N2CCc3ccccc3C2)nc(N2CCc3ccccc3C2)n1)C1CCCNC1

>  <score_type>  (92) 
oracle

>  <origin>  (92) 
autodockgpu

>  <m_score__min__energy>  (92) 
-9.5399999999999991

>  <m_primary>  (92) 
energy

>  <rmsd>  (92) 
6.291814350031997

>  <m_score__min__rmsd>  (92) 
6.291814350031997

>  <meeko>  (92) 
{"free_energy": -9.32, "intermolecular_energy": -10.52, "internal_energy": -0.75, "cluster_size": 24, "cluster_id": 2, "rank_in_cluster": 13}

>  <energy>  (92) 
-9.16

>  <cluster_rmsd>  (92) 
1.32

>  <cluster>  (92) 
2

$$$$

     RDKit          3D

 66 71  0  0  1  0  0  0  0  0999 V2000
  144.0830   71.3010  220.8000 O   0  0  0  0  0  0  0  0  0  0  0  0
  143.6300   71.5270  219.6420 C   0  0  0  0  0  0  0  0  0  0  0  0
  142.3690   72.1710  219.5030 N   0  0  0  0  0  0  0  0  0  0  0  0
  141.5780   72.5820  220.6130 C   0  0  0  0  0  0  0  0  0  0  0  0
  141.1230   73.8590  220.6890 N   0  0  0  0  0  0  0  0  0  0  0  0
  140.3760   74.2770  221.7200 C   0  0  0  0  0  0  0  0  0  0  0  0
  139.9170   75.6230  221.7640 N   0  0  0  0  0  0  0  0  0  0  0  0
  138.6670   75.8690  222.4550 C   0  0  0  0  0  0  0  0  0  0  0  0
  138.2490   77.3200  222.3470 C   0  0  0  0  0  0  0  0  0  0  0  0
  139.4610   78.1420  222.6710 C   0  0  0  0  0  0  0  0  0  0  0  0
  139.3850   79.2070  223.5580 C   0  0  0  0  0  0  0  0  0  0  0  0
  140.5360   79.9340  223.8230 C   0  0  0  0  0  0  0  0  0  0  0  0
  141.7320   79.6210  223.2300 C   0  0  0  0  0  0  0  0  0  0  0  0
  141.8290   78.5660  222.3450 C   0  0  0  0  0  0  0  0  0  0  0  0
  140.6840   77.8510  222.0880 C   0  0  0  0  0  0  0  0  0  0  0  0
  140.6830   76.6840  221.1400 C   0  0  0  0  0  0  0  0  0  0  0  0
  140.0800   73.3870  222.7010 N   0  0  0  0  0  0  0  0  0  0  0  0
  140.5090   72.1180  222.6660 C   0  0  0  0  0  0  0  0  0  0  0  0
  140.1810   71.2110  223.7100 N   0  0  0  0  0  0  0  0  0  0  0  0
  139.5660   69.9360  223.3960 C   0  0  0  0  0  0  0  0  0  0  0  0
  138.5310   69.6950  224.5040 C   0  0  0  0  0  0  0  0  0  0  0  0
  139.3590   69.4710  225.7230 C   0  0  0  0  0  0  0  0  0  0  0  0
  139.1400   68.3600  226.5110 C   0  0  0  0  0  0  0  0  0  0  0  0
  139.9310   68.1910  227.6330 C   0  0  0  0  0  0  0  0  0  0  0  0
  140.8990   69.1340  227.9180 C   0  0  0  0  0  0  0  0  0  0  0  0
  141.1100   70.2460  227.1230 C   0  0  0  0  0  0  0  0  0  0  0  0
  140.3220   70.4190  226.0000 C   0  0  0  0  0  0  0  0  0  0  0  0
  140.4710   71.5790  225.0820 C   0  0  0  0  0  0  0  0  0  0  0  0
  141.2540   71.7270  221.6220 N   0  0  0  0  0  0  0  0  0  0  0  0
  144.3500   71.1530  218.4020 C   0  0  1  0  0  0  0  0  0  0  0  0
  145.5290   70.2690  218.6570 C   0  0  0  0  0  0  0  0  0  0  0  0
  146.1480   69.9300  217.3170 C   0  0  0  0  0  0  0  0  0  0  0  0
  145.0520   69.3310  216.4380 C   0  0  0  0  0  0  0  0  0  0  0  0
  144.0140   70.3220  216.1680 N   0  0  0  0  0  0  0  0  0  0  0  0
  143.3510   70.5530  217.4500 C   0  0  0  0  0  0  0  0  0  0  0  0
  141.9850   72.3620  218.5300 H   0  0  0  0  0  0  0  0  0  0  0  0
  137.8832   75.2374  222.0115 H   0  0  0  0  0  0  0  0  0  0  0  0
  138.8082   75.6290  223.5192 H   0  0  0  0  0  0  0  0  0  0  0  0
  137.9033   77.5401  221.3262 H   0  0  0  0  0  0  0  0  0  0  0  0
  137.4215   77.5461  223.0356 H   0  0  0  0  0  0  0  0  0  0  0  0
  138.4318   79.4689  224.0406 H   0  0  0  0  0  0  0  0  0  0  0  0
  140.4883   80.7802  224.5242 H   0  0  0  0  0  0  0  0  0  0  0  0
  142.6259   80.2184  223.4625 H   0  0  0  0  0  0  0  0  0  0  0  0
  142.7845   78.3081  221.8648 H   0  0  0  0  0  0  0  0  0  0  0  0
  140.2174   76.9739  220.1865 H   0  0  0  0  0  0  0  0  0  0  0  0
  141.7103   76.3514  220.9303 H   0  0  0  0  0  0  0  0  0  0  0  0
  139.0739   69.9784  222.4131 H   0  0  0  0  0  0  0  0  0  0  0  0
  140.3085   69.1258  223.3484 H   0  0  0  0  0  0  0  0  0  0  0  0
  137.8794   70.5724  224.6289 H   0  0  0  0  0  0  0  0  0  0  0  0
  137.8617   68.8503  224.2838 H   0  0  0  0  0  0  0  0  0  0  0  0
  138.3587   67.6295  226.2544 H   0  0  0  0  0  0  0  0  0  0  0  0
  139.7912   67.3187  228.2884 H   0  0  0  0  0  0  0  0  0  0  0  0
  141.5260   68.9954  228.8111 H   0  0  0  0  0  0  0  0  0  0  0  0
  141.8896   70.9786  227.3792 H   0  0  0  0  0  0  0  0  0  0  0  0
  139.7764   72.3730  225.3936 H   0  0  0  0  0  0  0  0  0  0  0  0
  141.5129   71.9281  225.1330 H   0  0  0  0  0  0  0  0  0  0  0  0
  144.7904   72.0517  217.9454 H   0  0  0  0  0  0  0  0  0  0  0  0
  146.2623   70.7946  219.2863 H   0  0  0  0  0  0  0  0  0  0  0  0
  145.2180   69.3531  219.1807 H   0  0  0  0  0  0  0  0  0  0  0  0
  146.5485   70.8409  216.8480 H   0  0  0  0  0  0  0  0  0  0  0  0
  146.9742   69.2149  217.4439 H   0  0  0  0  0  0  0  0  0  0  0  0
  145.4923   68.9994  215.4861 H   0  0  0  0  0  0  0  0  0  0  0  0
  144.6004   68.4774  216.9647 H   0  0  0  0  0  0  0  0  0  0  0  0
  144.4810   71.2290  215.9190 H   0  0  0  0  0  0  0  0  0  0  0  0
  142.5074   71.2453  217.3122 H   0  0  0  0  0  0  0  0  0  0  0  0
  142.9685   69.6038  217.8533 H   0  0  0  0  0  0  0  0  0  0  0  0
  1  2  2  0
  2  3  1  0
  3  4  1  0
  4  5  2  0
  5  6  1  0
  6  7  1  0
  7  8  1  0
  8  9  1  0
  9 10  1  0
 10 11  2  0
 11 12  1  0
 12 13  2  0
 13 14  1  0
 14 15  2  0
 15 16  1  0
  6 17  2  0
 17 18  1  0
 18 19  1  0
 19 20  1  0
 20 21  1  0
 21 22  1  0
 22 23  2  0
 23 24  1  0
 24 25  2  0
 25 26  1  0
 26 27  2  0
 27 28  1  0
 18 29  2  0
  2 30  1  0
 30 31  1  0
 31 32  1  0
 32 33  1  0
 33 34  1  0
 34 35  1  0
 29  4  1  0
 35 30  1  0
 16  7  1  0
 28 19  1  0
 15 10  1  0
 27 22  1  0
  3 36  1  0
  8 37  1  0
  8 38  1  0
  9 39  1  0
  9 40  1  0
 11 41  1  0
 12 42  1  0
 13 43  1  0
 14 44  1  0
 16 45  1  0
 16 46  1  0
 20 47  1  0
 20 48  1  0
 21 49  1  0
 21 50  1  0
 23 51  1  0
 24 52  1  0
 25 53  1  0
 26 54  1  0
 28 55  1  0
 28 56  1  0
 30 57  1  6
 31 58  1  0
 31 59  1  0
 32 60  1  0
 32 61  1  0
 33 62  1  0
 33 63  1  0
 34 64  1  0
 35 65  1  0
 35 66  1  0
M  END
>  <smiles>  (93) 
O=C(Nc1nc(N2CCc3ccccc3C2)nc(N2CCc3ccccc3C2)n1)C1CCCNC1

>  <score_type>  (93) 
oracle

>  <origin>  (93) 
autodockgpu

>  <m_score__min__energy>  (93) 
-9.5399999999999991

>  <m_primary>  (93) 
energy

>  <rmsd>  (93) 
7.76500553174815

>  <m_score__min__rmsd>  (93) 
7.76500553174815

>  <meeko>  (93) 
{"free_energy": -9.0, "intermolecular_energy": -10.19, "internal_energy": -0.8, "cluster_size": 24, "cluster_id": 2, "rank_in_cluster": 22}

>  <energy>  (93) 
-9.07

>  <cluster_rmsd>  (93) 
1.33

>  <cluster>  (93) 
2

$$$$

     RDKit          3D

 66 71  0  0  1  0  0  0  0  0999 V2000
  143.0430   75.2820  219.0300 O   0  0  0  0  0  0  0  0  0  0  0  0
  143.2600   74.0790  218.7100 C   0  0  0  0  0  0  0  0  0  0  0  0
  142.5960   73.0400  219.4210 N   0  0  0  0  0  0  0  0  0  0  0  0
  141.6860   73.2850  220.4880 C   0  0  0  0  0  0  0  0  0  0  0  0
  141.1540   74.5230  220.6570 N   0  0  0  0  0  0  0  0  0  0  0  0
  140.2950   74.7860  221.6520 C   0  0  0  0  0  0  0  0  0  0  0  0
  139.7580   76.0960  221.7970 N   0  0  0  0  0  0  0  0  0  0  0  0
  138.6210   76.2460  222.6830 C   0  0  0  0  0  0  0  0  0  0  0  0
  138.0920   77.6640  222.6740 C   0  0  0  0  0  0  0  0  0  0  0  0
  139.2810   78.5670  222.8180 C   0  0  0  0  0  0  0  0  0  0  0  0
  139.2760   79.6160  223.7280 C   0  0  0  0  0  0  0  0  0  0  0  0
  140.4020   80.4200  223.8210 C   0  0  0  0  0  0  0  0  0  0  0  0
  141.5060   80.1990  223.0380 C   0  0  0  0  0  0  0  0  0  0  0  0
  141.5310   79.1620  222.1270 C   0  0  0  0  0  0  0  0  0  0  0  0
  140.4110   78.3700  222.0410 C   0  0  0  0  0  0  0  0  0  0  0  0
  140.3380   77.2150  221.0810 C   0  0  0  0  0  0  0  0  0  0  0  0
  139.9630   73.7790  222.4980 N   0  0  0  0  0  0  0  0  0  0  0  0
  140.4660   72.5430  222.3670 C   0  0  0  0  0  0  0  0  0  0  0  0
  140.0980   71.5100  223.2710 N   0  0  0  0  0  0  0  0  0  0  0  0
  139.1600   70.4850  222.8580 C   0  0  0  0  0  0  0  0  0  0  0  0
  138.2800   70.2130  224.0850 C   0  0  0  0  0  0  0  0  0  0  0  0
  139.2080   69.5640  225.0540 C   0  0  0  0  0  0  0  0  0  0  0  0
  138.8580   68.3710  225.6520 C   0  0  0  0  0  0  0  0  0  0  0  0
  139.7500   67.8040  226.5440 C   0  0  0  0  0  0  0  0  0  0  0  0
  140.9440   68.4480  226.8000 C   0  0  0  0  0  0  0  0  0  0  0  0
  141.2860   69.6450  226.1960 C   0  0  0  0  0  0  0  0  0  0  0  0
  140.3980   70.2160  225.3020 C   0  0  0  0  0  0  0  0  0  0  0  0
  140.6730   71.4980  224.6020 C   0  0  0  0  0  0  0  0  0  0  0  0
  141.3230   72.3090  221.3630 N   0  0  0  0  0  0  0  0  0  0  0  0
  144.1820   73.6820  217.6190 C   0  0  1  0  0  0  0  0  0  0  0  0
  144.4240   74.7820  216.6340 C   0  0  0  0  0  0  0  0  0  0  0  0
  145.4050   74.2660  215.6020 C   0  0  0  0  0  0  0  0  0  0  0  0
  146.6390   73.7610  216.3460 C   0  0  0  0  0  0  0  0  0  0  0  0
  146.2970   72.6190  217.1890 N   0  0  0  0  0  0  0  0  0  0  0  0
  145.4430   73.1560  218.2470 C   0  0  0  0  0  0  0  0  0  0  0  0
  142.7760   72.0270  219.1540 H   0  0  0  0  0  0  0  0  0  0  0  0
  137.8216   75.5645  222.3566 H   0  0  0  0  0  0  0  0  0  0  0  0
  138.9475   76.0067  223.7058 H   0  0  0  0  0  0  0  0  0  0  0  0
  137.5725   77.8691  221.7264 H   0  0  0  0  0  0  0  0  0  0  0  0
  137.3721   77.8236  223.4902 H   0  0  0  0  0  0  0  0  0  0  0  0
  138.3971   79.8052  224.3619 H   0  0  0  0  0  0  0  0  0  0  0  0
  140.4098   81.2535  224.5387 H   0  0  0  0  0  0  0  0  0  0  0  0
  142.3825   80.8562  223.1371 H   0  0  0  0  0  0  0  0  0  0  0  0
  142.4122   78.9770  221.4951 H   0  0  0  0  0  0  0  0  0  0  0  0
  139.7059   77.4799  220.2206 H   0  0  0  0  0  0  0  0  0  0  0  0
  141.3386   76.9590  220.7026 H   0  0  0  0  0  0  0  0  0  0  0  0
  138.5470   70.8417  222.0172 H   0  0  0  0  0  0  0  0  0  0  0  0
  139.6754   69.5751  222.5168 H   0  0  0  0  0  0  0  0  0  0  0  0
  137.8793   71.1517  224.4953 H   0  0  0  0  0  0  0  0  0  0  0  0
  137.4060   69.5877  223.8503 H   0  0  0  0  0  0  0  0  0  0  0  0
  137.8975   67.8849  225.4259 H   0  0  0  0  0  0  0  0  0  0  0  0
  139.5114   66.8530  227.0426 H   0  0  0  0  0  0  0  0  0  0  0  0
  141.6496   67.9927  227.5105 H   0  0  0  0  0  0  0  0  0  0  0  0
  142.2454   70.1331  226.4223 H   0  0  0  0  0  0  0  0  0  0  0  0
  140.2406   72.3240  225.1857 H   0  0  0  0  0  0  0  0  0  0  0  0
  141.7629   71.6136  224.5085 H   0  0  0  0  0  0  0  0  0  0  0  0
  143.7209   72.8862  217.0156 H   0  0  0  0  0  0  0  0  0  0  0  0
  143.4791   75.0627  216.1457 H   0  0  0  0  0  0  0  0  0  0  0  0
  144.8281   75.6712  217.1400 H   0  0  0  0  0  0  0  0  0  0  0  0
  144.9496   73.4438  215.0305 H   0  0  0  0  0  0  0  0  0  0  0  0
  145.6799   75.0655  214.8983 H   0  0  0  0  0  0  0  0  0  0  0  0
  147.4023   73.4556  215.6152 H   0  0  0  0  0  0  0  0  0  0  0  0
  147.0257   74.5700  216.9832 H   0  0  0  0  0  0  0  0  0  0  0  0
  145.6900   71.9680  216.6320 H   0  0  0  0  0  0  0  0  0  0  0  0
  145.1962   72.3600  218.9650 H   0  0  0  0  0  0  0  0  0  0  0  0
  145.9651   73.9643  218.7799 H   0  0  0  0  0  0  0  0  0  0  0  0
  1  2  2  0
  2  3  1  0
  3  4  1  0
  4  5  2  0
  5  6  1  0
  6  7  1  0
  7  8  1  0
  8  9  1  0
  9 10  1  0
 10 11  2  0
 11 12  1  0
 12 13  2  0
 13 14  1  0
 14 15  2  0
 15 16  1  0
  6 17  2  0
 17 18  1  0
 18 19  1  0
 19 20  1  0
 20 21  1  0
 21 22  1  0
 22 23  2  0
 23 24  1  0
 24 25  2  0
 25 26  1  0
 26 27  2  0
 27 28  1  0
 18 29  2  0
  2 30  1  0
 30 31  1  0
 31 32  1  0
 32 33  1  0
 33 34  1  0
 34 35  1  0
 29  4  1  0
 35 30  1  0
 16  7  1  0
 28 19  1  0
 15 10  1  0
 27 22  1  0
  3 36  1  0
  8 37  1  0
  8 38  1  0
  9 39  1  0
  9 40  1  0
 11 41  1  0
 12 42  1  0
 13 43  1  0
 14 44  1  0
 16 45  1  0
 16 46  1  0
 20 47  1  0
 20 48  1  0
 21 49  1  0
 21 50  1  0
 23 51  1  0
 24 52  1  0
 25 53  1  0
 26 54  1  0
 28 55  1  0
 28 56  1  0
 30 57  1  6
 31 58  1  0
 31 59  1  0
 32 60  1  0
 32 61  1  0
 33 62  1  0
 33 63  1  0
 34 64  1  0
 35 65  1  0
 35 66  1  0
M  END
>  <smiles>  (94) 
O=C(Nc1nc(N2CCc3ccccc3C2)nc(N2CCc3ccccc3C2)n1)C1CCCNC1

>  <score_type>  (94) 
oracle

>  <origin>  (94) 
autodockgpu

>  <m_score__min__energy>  (94) 
-9.5399999999999991

>  <m_primary>  (94) 
energy

>  <rmsd>  (94) 
6.183602459880948

>  <m_score__min__rmsd>  (94) 
6.183602459880948

>  <meeko>  (94) 
{"free_energy": -9.28, "intermolecular_energy": -10.47, "internal_energy": -0.77, "cluster_size": 24, "cluster_id": 2, "rank_in_cluster": 17}

>  <energy>  (94) 
-9.06

>  <cluster_rmsd>  (94) 
0.85

>  <cluster>  (94) 
2

$$$$

     RDKit          3D

 66 71  0  0  1  0  0  0  0  0999 V2000
  139.2490   75.5620  222.4050 O   0  0  0  0  0  0  0  0  0  0  0  0
  140.2680   76.1930  222.0030 C   0  0  0  0  0  0  0  0  0  0  0  0
  141.4090   75.4650  221.5640 N   0  0  0  0  0  0  0  0  0  0  0  0
  141.4660   74.0430  221.5520 C   0  0  0  0  0  0  0  0  0  0  0  0
  140.7170   73.3240  222.4270 N   0  0  0  0  0  0  0  0  0  0  0  0
  140.7490   71.9840  222.4410 C   0  0  0  0  0  0  0  0  0  0  0  0
  139.9500   71.2660  223.3740 N   0  0  0  0  0  0  0  0  0  0  0  0
  139.1150   70.2050  222.8450 C   0  0  0  0  0  0  0  0  0  0  0  0
  138.2500   69.5880  223.9230 C   0  0  0  0  0  0  0  0  0  0  0  0
  139.1480   69.3230  225.0940 C   0  0  0  0  0  0  0  0  0  0  0  0
  139.1250   68.0990  225.7490 C   0  0  0  0  0  0  0  0  0  0  0  0
  139.9760   67.9070  226.8270 C   0  0  0  0  0  0  0  0  0  0  0  0
  140.8290   68.8940  227.2500 C   0  0  0  0  0  0  0  0  0  0  0  0
  140.8670   70.1170  226.6130 C   0  0  0  0  0  0  0  0  0  0  0  0
  140.0200   70.3000  225.5460 C   0  0  0  0  0  0  0  0  0  0  0  0
  139.9850   71.5960  224.7850 C   0  0  0  0  0  0  0  0  0  0  0  0
  141.5560   71.3510  221.5530 N   0  0  0  0  0  0  0  0  0  0  0  0
  142.3120   72.0220  220.6730 C   0  0  0  0  0  0  0  0  0  0  0  0
  143.1460   71.3280  219.7550 N   0  0  0  0  0  0  0  0  0  0  0  0
  144.0220   72.0690  218.8680 C   0  0  0  0  0  0  0  0  0  0  0  0
  143.9820   71.3210  217.5290 C   0  0  0  0  0  0  0  0  0  0  0  0
  144.6730   70.0320  217.8180 C   0  0  0  0  0  0  0  0  0  0  0  0
  145.7020   69.6040  217.0070 C   0  0  0  0  0  0  0  0  0  0  0  0
  146.3150   68.4020  217.3120 C   0  0  0  0  0  0  0  0  0  0  0  0
  145.8760   67.6850  218.4070 C   0  0  0  0  0  0  0  0  0  0  0  0
  144.8420   68.1220  219.2150 C   0  0  0  0  0  0  0  0  0  0  0  0
  144.2260   69.3230  218.9150 C   0  0  0  0  0  0  0  0  0  0  0  0
  143.1070   69.8790  219.7210 C   0  0  0  0  0  0  0  0  0  0  0  0
  142.2600   73.3610  220.6810 N   0  0  0  0  0  0  0  0  0  0  0  0
  140.3420   77.6730  221.9620 C   0  0  1  0  0  0  0  0  0  0  0  0
  141.1480   78.2460  223.0840 C   0  0  0  0  0  0  0  0  0  0  0  0
  141.1790   79.7500  222.9070 C   0  0  0  0  0  0  0  0  0  0  0  0
  141.7020   80.0410  221.5020 C   0  0  0  0  0  0  0  0  0  0  0  0
  140.7750   79.5310  220.4950 N   0  0  0  0  0  0  0  0  0  0  0  0
  140.8430   78.0750  220.6020 C   0  0  0  0  0  0  0  0  0  0  0  0
  142.2670   75.9920  221.2250 H   0  0  0  0  0  0  0  0  0  0  0  0
  138.4657   70.6194  222.0597 H   0  0  0  0  0  0  0  0  0  0  0  0
  139.7707   69.4208  222.4387 H   0  0  0  0  0  0  0  0  0  0  0  0
  137.4475   70.2835  224.2099 H   0  0  0  0  0  0  0  0  0  0  0  0
  137.7763   68.6606  223.5688 H   0  0  0  0  0  0  0  0  0  0  0  0
  138.4461   67.2985  225.4198 H   0  0  0  0  0  0  0  0  0  0  0  0
  139.9666   66.9417  227.3544 H   0  0  0  0  0  0  0  0  0  0  0  0
  141.4914   68.7081  228.1083 H   0  0  0  0  0  0  0  0  0  0  0  0
  141.5481   70.9141  226.9457 H   0  0  0  0  0  0  0  0  0  0  0  0
  139.0877   72.1699  225.0598 H   0  0  0  0  0  0  0  0  0  0  0  0
  140.8672   72.2097  225.0198 H   0  0  0  0  0  0  0  0  0  0  0  0
  143.6591   73.0999  218.7429 H   0  0  0  0  0  0  0  0  0  0  0  0
  145.0449   72.1343  219.2673 H   0  0  0  0  0  0  0  0  0  0  0  0
  142.9441   71.1457  217.2094 H   0  0  0  0  0  0  0  0  0  0  0  0
  144.4589   71.8847  216.7136 H   0  0  0  0  0  0  0  0  0  0  0  0
  146.0265   70.2011  216.1420 H   0  0  0  0  0  0  0  0  0  0  0  0
  147.1402   68.0230  216.6911 H   0  0  0  0  0  0  0  0  0  0  0  0
  146.3671   66.7301  218.6459 H   0  0  0  0  0  0  0  0  0  0  0  0
  144.5159   67.5255  220.0798 H   0  0  0  0  0  0  0  0  0  0  0  0
  142.1529   69.5573  219.2779 H   0  0  0  0  0  0  0  0  0  0  0  0
  143.2052   69.5066  220.7514 H   0  0  0  0  0  0  0  0  0  0  0  0
  139.3390   78.0975  222.1162 H   0  0  0  0  0  0  0  0  0  0  0  0
  140.6826   77.9916  224.0477 H   0  0  0  0  0  0  0  0  0  0  0  0
  142.1685   77.8357  223.0742 H   0  0  0  0  0  0  0  0  0  0  0  0
  140.1656   80.1619  223.0224 H   0  0  0  0  0  0  0  0  0  0  0  0
  141.8286   80.2139  223.6639 H   0  0  0  0  0  0  0  0  0  0  0  0
  141.8124   81.1280  221.3748 H   0  0  0  0  0  0  0  0  0  0  0  0
  142.6747   79.5434  221.3744 H   0  0  0  0  0  0  0  0  0  0  0  0
  139.8000   79.7950  220.7820 H   0  0  0  0  0  0  0  0  0  0  0  0
  140.2148   77.6160  219.8244 H   0  0  0  0  0  0  0  0  0  0  0  0
  141.8803   77.7350  220.4666 H   0  0  0  0  0  0  0  0  0  0  0  0
  1  2  2  0
  2  3  1  0
  3  4  1  0
  4  5  2  0
  5  6  1  0
  6  7  1  0
  7  8  1  0
  8  9  1  0
  9 10  1  0
 10 11  2  0
 11 12  1  0
 12 13  2  0
 13 14  1  0
 14 15  2  0
 15 16  1  0
  6 17  2  0
 17 18  1  0
 18 19  1  0
 19 20  1  0
 20 21  1  0
 21 22  1  0
 22 23  2  0
 23 24  1  0
 24 25  2  0
 25 26  1  0
 26 27  2  0
 27 28  1  0
 18 29  2  0
  2 30  1  0
 30 31  1  0
 31 32  1  0
 32 33  1  0
 33 34  1  0
 34 35  1  0
 29  4  1  0
 35 30  1  0
 16  7  1  0
 28 19  1  0
 15 10  1  0
 27 22  1  0
  3 36  1  0
  8 37  1  0
  8 38  1  0
  9 39  1  0
  9 40  1  0
 11 41  1  0
 12 42  1  0
 13 43  1  0
 14 44  1  0
 16 45  1  0
 16 46  1  0
 20 47  1  0
 20 48  1  0
 21 49  1  0
 21 50  1  0
 23 51  1  0
 24 52  1  0
 25 53  1  0
 26 54  1  0
 28 55  1  0
 28 56  1  0
 30 57  1  1
 31 58  1  0
 31 59  1  0
 32 60  1  0
 32 61  1  0
 33 62  1  0
 33 63  1  0
 34 64  1  0
 35 65  1  0
 35 66  1  0
M  END
>  <smiles>  (95) 
O=C(Nc1nc(N2CCc3ccccc3C2)nc(N2CCc3ccccc3C2)n1)C1CCCNC1

>  <score_type>  (95) 
oracle

>  <origin>  (95) 
autodockgpu

>  <m_score__min__energy>  (95) 
-9.5399999999999991

>  <m_primary>  (95) 
energy

>  <rmsd>  (95) 
5.078401042417288

>  <m_score__min__rmsd>  (95) 
5.078401042417288

>  <meeko>  (95) 
{"free_energy": -9.43, "intermolecular_energy": -10.63, "internal_energy": -0.8, "cluster_size": 23, "cluster_id": 1, "rank_in_cluster": 7}

>  <energy>  (95) 
-9.0

>  <cluster_rmsd>  (95) 
1.05

>  <cluster>  (95) 
2

$$$$

     RDKit          3D

 66 71  0  0  1  0  0  0  0  0999 V2000
  139.2130   75.6540  222.2730 O   0  0  0  0  0  0  0  0  0  0  0  0
  140.2470   76.2770  221.9000 C   0  0  0  0  0  0  0  0  0  0  0  0
  141.4080   75.5410  221.5340 N   0  0  0  0  0  0  0  0  0  0  0  0
  141.4700   74.1200  221.5660 C   0  0  0  0  0  0  0  0  0  0  0  0
  140.7170   73.4250  222.4560 N   0  0  0  0  0  0  0  0  0  0  0  0
  140.7530   72.0860  222.5110 C   0  0  0  0  0  0  0  0  0  0  0  0
  139.9480   71.3940  223.4590 N   0  0  0  0  0  0  0  0  0  0  0  0
  138.9050   70.5350  222.9330 C   0  0  0  0  0  0  0  0  0  0  0  0
  138.0680   69.9350  224.0420 C   0  0  0  0  0  0  0  0  0  0  0  0
  139.0270   69.4090  225.0690 C   0  0  0  0  0  0  0  0  0  0  0  0
  138.8760   68.1370  225.6020 C   0  0  0  0  0  0  0  0  0  0  0  0
  139.7910   67.7010  226.5480 C   0  0  0  0  0  0  0  0  0  0  0  0
  140.8300   68.4970  226.9600 C   0  0  0  0  0  0  0  0  0  0  0  0
  140.9960   69.7660  226.4430 C   0  0  0  0  0  0  0  0  0  0  0  0
  140.0860   70.1900  225.5050 C   0  0  0  0  0  0  0  0  0  0  0  0
  140.1790   71.5540  224.8810 C   0  0  0  0  0  0  0  0  0  0  0  0
  141.5680   71.4300  221.6480 N   0  0  0  0  0  0  0  0  0  0  0  0
  142.3290   72.0760  220.7540 C   0  0  0  0  0  0  0  0  0  0  0  0
  143.1720   71.3580  219.8630 N   0  0  0  0  0  0  0  0  0  0  0  0
  144.1690   72.0630  219.0820 C   0  0  0  0  0  0  0  0  0  0  0  0
  144.1710   71.3830  217.7060 C   0  0  0  0  0  0  0  0  0  0  0  0
  144.7320   70.0290  217.9770 C   0  0  0  0  0  0  0  0  0  0  0  0
  145.7820   69.5540  217.2200 C   0  0  0  0  0  0  0  0  0  0  0  0
  146.2720   68.2920  217.5060 C   0  0  0  0  0  0  0  0  0  0  0  0
  145.6950   67.5640  218.5270 C   0  0  0  0  0  0  0  0  0  0  0  0
  144.6410   68.0490  219.2810 C   0  0  0  0  0  0  0  0  0  0  0  0
  144.1480   69.3100  219.0000 C   0  0  0  0  0  0  0  0  0  0  0  0
  143.0200   69.9210  219.7510 C   0  0  0  0  0  0  0  0  0  0  0  0
  142.2720   73.4150  220.7210 N   0  0  0  0  0  0  0  0  0  0  0  0
  140.3190   77.7560  221.8210 C   0  0  1  0  0  0  0  0  0  0  0  0
  140.8890   78.3780  223.0560 C   0  0  0  0  0  0  0  0  0  0  0  0
  140.9450   79.8740  222.8330 C   0  0  0  0  0  0  0  0  0  0  0  0
  141.7290   80.1230  221.5470 C   0  0  0  0  0  0  0  0  0  0  0  0
  141.0170   79.5670  220.3990 N   0  0  0  0  0  0  0  0  0  0  0  0
  141.0720   78.1160  220.5700 C   0  0  0  0  0  0  0  0  0  0  0  0
  142.2800   76.0630  221.2200 H   0  0  0  0  0  0  0  0  0  0  0  0
  138.2532   71.1270  222.2737 H   0  0  0  0  0  0  0  0  0  0  0  0
  139.3819   69.7137  222.3779 H   0  0  0  0  0  0  0  0  0  0  0  0
  137.4203   70.7047  224.4871 H   0  0  0  0  0  0  0  0  0  0  0  0
  137.4193   69.1335  223.6590 H   0  0  0  0  0  0  0  0  0  0  0  0
  138.0479   67.4881  225.2808 H   0  0  0  0  0  0  0  0  0  0  0  0
  139.6816   66.6944  226.9779 H   0  0  0  0  0  0  0  0  0  0  0  0
  141.5391   68.1193  227.7113 H   0  0  0  0  0  0  0  0  0  0  0  0
  141.8242   70.4123  226.7691 H   0  0  0  0  0  0  0  0  0  0  0  0
  139.4168   72.2187  225.3137 H   0  0  0  0  0  0  0  0  0  0  0  0
  141.1667   72.0010  225.0673 H   0  0  0  0  0  0  0  0  0  0  0  0
  143.9003   73.1253  218.9851 H   0  0  0  0  0  0  0  0  0  0  0  0
  145.1605   72.0243  219.5569 H   0  0  0  0  0  0  0  0  0  0  0  0
  143.1498   71.3103  217.3037 H   0  0  0  0  0  0  0  0  0  0  0  0
  144.7523   71.9413  216.9574 H   0  0  0  0  0  0  0  0  0  0  0  0
  146.2174   70.1606  216.4123 H   0  0  0  0  0  0  0  0  0  0  0  0
  147.1096   67.8747  216.9278 H   0  0  0  0  0  0  0  0  0  0  0  0
  146.0877   66.5609  218.7495 H   0  0  0  0  0  0  0  0  0  0  0  0
  144.2038   67.4432  220.0883 H   0  0  0  0  0  0  0  0  0  0  0  0
  142.0795   69.7011  219.2245 H   0  0  0  0  0  0  0  0  0  0  0  0
  143.0102   69.4952  220.7652 H   0  0  0  0  0  0  0  0  0  0  0  0
  139.3028   78.1732  221.7635 H   0  0  0  0  0  0  0  0  0  0  0  0
  140.2471   78.1517  223.9201 H   0  0  0  0  0  0  0  0  0  0  0  0
  141.8944   77.9805  223.2592 H   0  0  0  0  0  0  0  0  0  0  0  0
  139.9260   80.2764  222.7343 H   0  0  0  0  0  0  0  0  0  0  0  0
  141.4327   80.3722  223.6839 H   0  0  0  0  0  0  0  0  0  0  0  0
  141.8561   81.2063  221.4043 H   0  0  0  0  0  0  0  0  0  0  0  0
  142.7109   79.6338  221.6281 H   0  0  0  0  0  0  0  0  0  0  0  0
  140.0030   79.8280  220.4810 H   0  0  0  0  0  0  0  0  0  0  0  0
  140.6093   77.6220  219.7029 H   0  0  0  0  0  0  0  0  0  0  0  0
  142.1178   77.7845  220.6501 H   0  0  0  0  0  0  0  0  0  0  0  0
  1  2  2  0
  2  3  1  0
  3  4  1  0
  4  5  2  0
  5  6  1  0
  6  7  1  0
  7  8  1  0
  8  9  1  0
  9 10  1  0
 10 11  2  0
 11 12  1  0
 12 13  2  0
 13 14  1  0
 14 15  2  0
 15 16  1  0
  6 17  2  0
 17 18  1  0
 18 19  1  0
 19 20  1  0
 20 21  1  0
 21 22  1  0
 22 23  2  0
 23 24  1  0
 24 25  2  0
 25 26  1  0
 26 27  2  0
 27 28  1  0
 18 29  2  0
  2 30  1  0
 30 31  1  0
 31 32  1  0
 32 33  1  0
 33 34  1  0
 34 35  1  0
 29  4  1  0
 35 30  1  0
 16  7  1  0
 28 19  1  0
 15 10  1  0
 27 22  1  0
  3 36  1  0
  8 37  1  0
  8 38  1  0
  9 39  1  0
  9 40  1  0
 11 41  1  0
 12 42  1  0
 13 43  1  0
 14 44  1  0
 16 45  1  0
 16 46  1  0
 20 47  1  0
 20 48  1  0
 21 49  1  0
 21 50  1  0
 23 51  1  0
 24 52  1  0
 25 53  1  0
 26 54  1  0
 28 55  1  0
 28 56  1  0
 30 57  1  6
 31 58  1  0
 31 59  1  0
 32 60  1  0
 32 61  1  0
 33 62  1  0
 33 63  1  0
 34 64  1  0
 35 65  1  0
 35 66  1  0
M  END
>  <smiles>  (96) 
O=C(Nc1nc(N2CCc3ccccc3C2)nc(N2CCc3ccccc3C2)n1)C1CCCNC1

>  <score_type>  (96) 
oracle

>  <origin>  (96) 
autodockgpu

>  <m_score__min__energy>  (96) 
-9.5399999999999991

>  <m_primary>  (96) 
energy

>  <rmsd>  (96) 
5.078909370799103

>  <m_score__min__rmsd>  (96) 
5.078909370799103

>  <meeko>  (96) 
{"free_energy": -9.41, "intermolecular_energy": -10.6, "internal_energy": -0.8, "cluster_size": 23, "cluster_id": 1, "rank_in_cluster": 12}

>  <energy>  (96) 
-8.98

>  <cluster_rmsd>  (96) 
0.66

>  <cluster>  (96) 
2

$$$$

     RDKit          3D

 66 71  0  0  1  0  0  0  0  0999 V2000
  139.2890   75.5960  222.6620 O   0  0  0  0  0  0  0  0  0  0  0  0
  140.2350   76.2400  222.1260 C   0  0  0  0  0  0  0  0  0  0  0  0
  141.3440   75.5280  221.5890 N   0  0  0  0  0  0  0  0  0  0  0  0
  141.4480   74.1090  221.6230 C   0  0  0  0  0  0  0  0  0  0  0  0
  140.6960   73.3930  222.4970 N   0  0  0  0  0  0  0  0  0  0  0  0
  140.7700   72.0550  222.5540 C   0  0  0  0  0  0  0  0  0  0  0  0
  139.9660   71.3390  223.4840 N   0  0  0  0  0  0  0  0  0  0  0  0
  139.0290   70.3770  222.9380 C   0  0  0  0  0  0  0  0  0  0  0  0
  138.1750   69.7570  224.0230 C   0  0  0  0  0  0  0  0  0  0  0  0
  139.1070   69.3550  225.1270 C   0  0  0  0  0  0  0  0  0  0  0  0
  139.0240   68.0970  225.7090 C   0  0  0  0  0  0  0  0  0  0  0  0
  139.9110   67.7780  226.7270 C   0  0  0  0  0  0  0  0  0  0  0  0
  140.8550   68.6730  227.1620 C   0  0  0  0  0  0  0  0  0  0  0  0
  140.9520   69.9280  226.5970 C   0  0  0  0  0  0  0  0  0  0  0  0
  140.0710   70.2370  225.5890 C   0  0  0  0  0  0  0  0  0  0  0  0
  140.0950   71.5780  224.9080 C   0  0  0  0  0  0  0  0  0  0  0  0
  141.6240   71.4230  221.7100 N   0  0  0  0  0  0  0  0  0  0  0  0
  142.3850   72.0920  220.8320 C   0  0  0  0  0  0  0  0  0  0  0  0
  143.2700   71.3990  219.9620 N   0  0  0  0  0  0  0  0  0  0  0  0
  144.4360   72.0740  219.4260 C   0  0  0  0  0  0  0  0  0  0  0  0
  144.5650   71.5850  217.9770 C   0  0  0  0  0  0  0  0  0  0  0  0
  144.9400   70.1490  218.1170 C   0  0  0  0  0  0  0  0  0  0  0  0
  146.0340   69.6520  217.4390 C   0  0  0  0  0  0  0  0  0  0  0  0
  146.3450   68.3140  217.5980 C   0  0  0  0  0  0  0  0  0  0  0  0
  145.5560   67.5350  218.4200 C   0  0  0  0  0  0  0  0  0  0  0  0
  144.4600   68.0420  219.0950 C   0  0  0  0  0  0  0  0  0  0  0  0
  144.1440   69.3790  218.9400 C   0  0  0  0  0  0  0  0  0  0  0  0
  142.9880   70.0190  219.6220 C   0  0  0  0  0  0  0  0  0  0  0  0
  142.2890   73.4290  220.7970 N   0  0  0  0  0  0  0  0  0  0  0  0
  140.2540   77.7190  222.0230 C   0  0  1  0  0  0  0  0  0  0  0  0
  138.9670   78.3490  222.4530 C   0  0  0  0  0  0  0  0  0  0  0  0
  139.1300   79.8500  222.3380 C   0  0  0  0  0  0  0  0  0  0  0  0
  140.3630   80.2470  223.1480 C   0  0  0  0  0  0  0  0  0  0  0  0
  141.5680   79.6610  222.5650 N   0  0  0  0  0  0  0  0  0  0  0  0
  141.4490   78.2210  222.7860 C   0  0  0  0  0  0  0  0  0  0  0  0
  142.1410   76.0670  221.1370 H   0  0  0  0  0  0  0  0  0  0  0  0
  138.3745   70.8861  222.2152 H   0  0  0  0  0  0  0  0  0  0  0  0
  139.6026   69.5753  222.4499 H   0  0  0  0  0  0  0  0  0  0  0  0
  137.4419   70.4888  224.3932 H   0  0  0  0  0  0  0  0  0  0  0  0
  137.6169   68.8897  223.6405 H   0  0  0  0  0  0  0  0  0  0  0  0
  138.2716   67.3695  225.3704 H   0  0  0  0  0  0  0  0  0  0  0  0
  139.8559   66.7845  227.1960 H   0  0  0  0  0  0  0  0  0  0  0  0
  141.5430   68.3867  227.9711 H   0  0  0  0  0  0  0  0  0  0  0  0
  141.7051   70.6527  226.9401 H   0  0  0  0  0  0  0  0  0  0  0  0
  139.2575   72.1961  225.2636 H   0  0  0  0  0  0  0  0  0  0  0  0
  141.0306   72.1119  225.1308 H   0  0  0  0  0  0  0  0  0  0  0  0
  144.2945   73.1645  219.4522 H   0  0  0  0  0  0  0  0  0  0  0  0
  145.3400   71.8532  220.0125 H   0  0  0  0  0  0  0  0  0  0  0  0
  143.6098   71.6899  217.4417 H   0  0  0  0  0  0  0  0  0  0  0  0
  145.3011   72.1618  217.3979 H   0  0  0  0  0  0  0  0  0  0  0  0
  146.6411   70.3011  216.7909 H   0  0  0  0  0  0  0  0  0  0  0  0
  147.2092   67.8766  217.0766 H   0  0  0  0  0  0  0  0  0  0  0  0
  145.8080   66.4714  218.5430 H   0  0  0  0  0  0  0  0  0  0  0  0
  143.8516   67.3937  219.7427 H   0  0  0  0  0  0  0  0  0  0  0  0
  142.1155   69.9868  218.9528 H   0  0  0  0  0  0  0  0  0  0  0  0
  142.7880   69.4680  220.5528 H   0  0  0  0  0  0  0  0  0  0  0  0
  140.3499   78.0152  220.9680 H   0  0  0  0  0  0  0  0  0  0  0  0
  138.1477   78.0099  221.8021 H   0  0  0  0  0  0  0  0  0  0  0  0
  138.7253   78.0652  223.4879 H   0  0  0  0  0  0  0  0  0  0  0  0
  139.2676   80.1322  221.2837 H   0  0  0  0  0  0  0  0  0  0  0  0
  138.2361   80.3649  222.7199 H   0  0  0  0  0  0  0  0  0  0  0  0
  140.4577   81.3429  223.1497 H   0  0  0  0  0  0  0  0  0  0  0  0
  140.2481   79.8750  224.1768 H   0  0  0  0  0  0  0  0  0  0  0  0
  141.5300   79.7960  221.5250 H   0  0  0  0  0  0  0  0  0  0  0  0
  142.3574   77.7143  222.4283 H   0  0  0  0  0  0  0  0  0  0  0  0
  141.3260   78.0129  223.8591 H   0  0  0  0  0  0  0  0  0  0  0  0
  1  2  2  0
  2  3  1  0
  3  4  1  0
  4  5  2  0
  5  6  1  0
  6  7  1  0
  7  8  1  0
  8  9  1  0
  9 10  1  0
 10 11  2  0
 11 12  1  0
 12 13  2  0
 13 14  1  0
 14 15  2  0
 15 16  1  0
  6 17  2  0
 17 18  1  0
 18 19  1  0
 19 20  1  0
 20 21  1  0
 21 22  1  0
 22 23  2  0
 23 24  1  0
 24 25  2  0
 25 26  1  0
 26 27  2  0
 27 28  1  0
 18 29  2  0
  2 30  1  0
 30 31  1  0
 31 32  1  0
 32 33  1  0
 33 34  1  0
 34 35  1  0
 29  4  1  0
 35 30  1  0
 16  7  1  0
 28 19  1  0
 15 10  1  0
 27 22  1  0
  3 36  1  0
  8 37  1  0
  8 38  1  0
  9 39  1  0
  9 40  1  0
 11 41  1  0
 12 42  1  0
 13 43  1  0
 14 44  1  0
 16 45  1  0
 16 46  1  0
 20 47  1  0
 20 48  1  0
 21 49  1  0
 21 50  1  0
 23 51  1  0
 24 52  1  0
 25 53  1  0
 26 54  1  0
 28 55  1  0
 28 56  1  0
 30 57  1  6
 31 58  1  0
 31 59  1  0
 32 60  1  0
 32 61  1  0
 33 62  1  0
 33 63  1  0
 34 64  1  0
 35 65  1  0
 35 66  1  0
M  END
>  <smiles>  (97) 
O=C(Nc1nc(N2CCc3ccccc3C2)nc(N2CCc3ccccc3C2)n1)C1CCCNC1

>  <score_type>  (97) 
oracle

>  <origin>  (97) 
autodockgpu

>  <m_score__min__energy>  (97) 
-9.5399999999999991

>  <m_primary>  (97) 
energy

>  <rmsd>  (97) 
5.150440777287477

>  <m_score__min__rmsd>  (97) 
5.150440777287477

>  <meeko>  (97) 
{"free_energy": -9.43, "intermolecular_energy": -10.62, "internal_energy": -0.75, "cluster_size": 23, "cluster_id": 1, "rank_in_cluster": 9}

>  <energy>  (97) 
-8.94

>  <cluster_rmsd>  (97) 
0.88

>  <cluster>  (97) 
2

$$$$

     RDKit          3D

 66 71  0  0  1  0  0  0  0  0999 V2000
  143.6990   75.2260  219.1610 O   0  0  0  0  0  0  0  0  0  0  0  0
  143.5330   74.1140  218.5820 C   0  0  0  0  0  0  0  0  0  0  0  0
  142.5510   73.2120  219.0780 N   0  0  0  0  0  0  0  0  0  0  0  0
  141.7330   73.4960  220.2080 C   0  0  0  0  0  0  0  0  0  0  0  0
  141.3200   74.7670  220.4460 N   0  0  0  0  0  0  0  0  0  0  0  0
  140.5490   75.0680  221.5010 C   0  0  0  0  0  0  0  0  0  0  0  0
  140.1370   76.4130  221.7170 N   0  0  0  0  0  0  0  0  0  0  0  0
  139.0620   76.6260  222.6670 C   0  0  0  0  0  0  0  0  0  0  0  0
  138.6610   78.0830  222.7330 C   0  0  0  0  0  0  0  0  0  0  0  0
  139.9290   78.8750  222.8440 C   0  0  0  0  0  0  0  0  0  0  0  0
  140.0610   79.8850  223.7880 C   0  0  0  0  0  0  0  0  0  0  0  0
  141.2560   80.5850  223.8480 C   0  0  0  0  0  0  0  0  0  0  0  0
  142.2970   80.3000  223.0010 C   0  0  0  0  0  0  0  0  0  0  0  0
  142.1860   79.3010  222.0560 C   0  0  0  0  0  0  0  0  0  0  0  0
  140.9980   78.6110  222.0030 C   0  0  0  0  0  0  0  0  0  0  0  0
  140.7770   77.5040  221.0100 C   0  0  0  0  0  0  0  0  0  0  0  0
  140.1840   74.0640  222.3360 N   0  0  0  0  0  0  0  0  0  0  0  0
  140.5700   72.7950  222.1380 C   0  0  0  0  0  0  0  0  0  0  0  0
  140.1700   71.7660  223.0340 N   0  0  0  0  0  0  0  0  0  0  0  0
  139.4230   70.6260  222.5400 C   0  0  0  0  0  0  0  0  0  0  0  0
  138.3880   70.3090  223.6290 C   0  0  0  0  0  0  0  0  0  0  0  0
  139.2100   69.8090  224.7680 C   0  0  0  0  0  0  0  0  0  0  0  0
  138.8940   68.6110  225.3730 C   0  0  0  0  0  0  0  0  0  0  0  0
  139.6830   68.1860  226.4270 C   0  0  0  0  0  0  0  0  0  0  0  0
  140.7460   68.9710  226.8270 C   0  0  0  0  0  0  0  0  0  0  0  0
  141.0550   70.1720  226.2140 C   0  0  0  0  0  0  0  0  0  0  0  0
  140.2690   70.6010  225.1600 C   0  0  0  0  0  0  0  0  0  0  0  0
  140.5190   71.8760  224.4360 C   0  0  0  0  0  0  0  0  0  0  0  0
  141.3400   72.5240  221.0760 N   0  0  0  0  0  0  0  0  0  0  0  0
  144.3170   73.6920  217.3970 C   0  0  1  0  0  0  0  0  0  0  0  0
  144.5710   74.8110  216.4380 C   0  0  0  0  0  0  0  0  0  0  0  0
  145.4070   74.2610  215.3010 C   0  0  0  0  0  0  0  0  0  0  0  0
  146.6500   73.6170  215.9090 C   0  0  0  0  0  0  0  0  0  0  0  0
  146.2810   72.4700  216.7340 N   0  0  0  0  0  0  0  0  0  0  0  0
  145.5740   73.0280  217.8860 C   0  0  0  0  0  0  0  0  0  0  0  0
  142.4100   72.2760  218.5940 H   0  0  0  0  0  0  0  0  0  0  0  0
  138.1905   76.0290  222.3604 H   0  0  0  0  0  0  0  0  0  0  0  0
  139.4156   76.3200  223.6626 H   0  0  0  0  0  0  0  0  0  0  0  0
  138.1151   78.3675  221.8214 H   0  0  0  0  0  0  0  0  0  0  0  0
  138.0000   78.2726  223.5916 H   0  0  0  0  0  0  0  0  0  0  0  0
  139.2348   80.1245  224.4736 H   0  0  0  0  0  0  0  0  0  0  0  0
  141.3723   81.3872  224.5916 H   0  0  0  0  0  0  0  0  0  0  0  0
  143.2317   80.8751  223.0763 H   0  0  0  0  0  0  0  0  0  0  0  0
  143.0149   79.0659  221.3722 H   0  0  0  0  0  0  0  0  0  0  0  0
  140.1292   77.8547  220.1931 H   0  0  0  0  0  0  0  0  0  0  0  0
  141.7316   77.1775  220.5716 H   0  0  0  0  0  0  0  0  0  0  0  0
  138.9208   70.8764  221.5939 H   0  0  0  0  0  0  0  0  0  0  0  0
  140.0783   69.7659  222.3378 H   0  0  0  0  0  0  0  0  0  0  0  0
  137.8311   71.2134  223.9152 H   0  0  0  0  0  0  0  0  0  0  0  0
  137.6327   69.5809  223.2983 H   0  0  0  0  0  0  0  0  0  0  0  0
  138.0394   68.0106  225.0277 H   0  0  0  0  0  0  0  0  0  0  0  0
  139.4666   67.2367  226.9388 H   0  0  0  0  0  0  0  0  0  0  0  0
  141.3709   68.6284  227.6649 H   0  0  0  0  0  0  0  0  0  0  0  0
  141.9090   70.7739  226.5581 H   0  0  0  0  0  0  0  0  0  0  0  0
  139.9136   72.6721  224.8940 H   0  0  0  0  0  0  0  0  0  0  0  0
  141.5914   72.1101  224.5081 H   0  0  0  0  0  0  0  0  0  0  0  0
  143.7343   72.9697  216.8064 H   0  0  0  0  0  0  0  0  0  0  0  0
  143.6165   75.1955  216.0494 H   0  0  0  0  0  0  0  0  0  0  0  0
  145.0973   75.6366  216.9394 H   0  0  0  0  0  0  0  0  0  0  0  0
  144.8308   73.5091  214.7419 H   0  0  0  0  0  0  0  0  0  0  0  0
  145.6903   75.0657  214.6065 H   0  0  0  0  0  0  0  0  0  0  0  0
  147.3162   73.2818  215.1004 H   0  0  0  0  0  0  0  0  0  0  0  0
  147.1621   74.3585  216.5398 H   0  0  0  0  0  0  0  0  0  0  0  0
  145.5700   71.9010  216.2090 H   0  0  0  0  0  0  0  0  0  0  0  0
  145.3186   72.2228  218.5905 H   0  0  0  0  0  0  0  0  0  0  0  0
  146.2120   73.7610  218.4015 H   0  0  0  0  0  0  0  0  0  0  0  0
  1  2  2  0
  2  3  1  0
  3  4  1  0
  4  5  2  0
  5  6  1  0
  6  7  1  0
  7  8  1  0
  8  9  1  0
  9 10  1  0
 10 11  2  0
 11 12  1  0
 12 13  2  0
 13 14  1  0
 14 15  2  0
 15 16  1  0
  6 17  2  0
 17 18  1  0
 18 19  1  0
 19 20  1  0
 20 21  1  0
 21 22  1  0
 22 23  2  0
 23 24  1  0
 24 25  2  0
 25 26  1  0
 26 27  2  0
 27 28  1  0
 18 29  2  0
  2 30  1  0
 30 31  1  0
 31 32  1  0
 32 33  1  0
 33 34  1  0
 34 35  1  0
 29  4  1  0
 35 30  1  0
 16  7  1  0
 28 19  1  0
 15 10  1  0
 27 22  1  0
  3 36  1  0
  8 37  1  0
  8 38  1  0
  9 39  1  0
  9 40  1  0
 11 41  1  0
 12 42  1  0
 13 43  1  0
 14 44  1  0
 16 45  1  0
 16 46  1  0
 20 47  1  0
 20 48  1  0
 21 49  1  0
 21 50  1  0
 23 51  1  0
 24 52  1  0
 25 53  1  0
 26 54  1  0
 28 55  1  0
 28 56  1  0
 30 57  1  6
 31 58  1  0
 31 59  1  0
 32 60  1  0
 32 61  1  0
 33 62  1  0
 33 63  1  0
 34 64  1  0
 35 65  1  0
 35 66  1  0
M  END
>  <smiles>  (98) 
O=C(Nc1nc(N2CCc3ccccc3C2)nc(N2CCc3ccccc3C2)n1)C1CCCNC1

>  <score_type>  (98) 
oracle

>  <origin>  (98) 
autodockgpu

>  <m_score__min__energy>  (98) 
-9.5399999999999991

>  <m_primary>  (98) 
energy

>  <rmsd>  (98) 
6.3211217084476905

>  <m_score__min__rmsd>  (98) 
6.3211217084476905

>  <meeko>  (98) 
{"free_energy": -9.31, "intermolecular_energy": -10.5, "internal_energy": -0.81, "cluster_size": 24, "cluster_id": 2, "rank_in_cluster": 16}

>  <energy>  (98) 
-9.13

>  <cluster_rmsd>  (98) 
0.0

>  <cluster>  (98) 
3

$$$$

     RDKit          3D

 66 71  0  0  1  0  0  0  0  0999 V2000
  143.5120   70.4150  220.4250 O   0  0  0  0  0  0  0  0  0  0  0  0
  143.8220   71.3290  219.6090 C   0  0  0  0  0  0  0  0  0  0  0  0
  143.1710   72.5910  219.6970 N   0  0  0  0  0  0  0  0  0  0  0  0
  142.1750   72.8860  220.6700 C   0  0  0  0  0  0  0  0  0  0  0  0
  141.6430   74.1330  220.7420 N   0  0  0  0  0  0  0  0  0  0  0  0
  140.7030   74.4430  221.6470 C   0  0  0  0  0  0  0  0  0  0  0  0
  140.1690   75.7610  221.6910 N   0  0  0  0  0  0  0  0  0  0  0  0
  138.8780   75.9260  222.3290 C   0  0  0  0  0  0  0  0  0  0  0  0
  138.3850   77.3530  222.2250 C   0  0  0  0  0  0  0  0  0  0  0  0
  139.5340   78.2340  222.6170 C   0  0  0  0  0  0  0  0  0  0  0  0
  139.3600   79.2770  223.5160 C   0  0  0  0  0  0  0  0  0  0  0  0
  140.4570   80.0610  223.8430 C   0  0  0  0  0  0  0  0  0  0  0  0
  141.6940   79.8250  223.3000 C   0  0  0  0  0  0  0  0  0  0  0  0
  141.8870   78.7930  222.4030 C   0  0  0  0  0  0  0  0  0  0  0  0
  140.7960   78.0210  222.0840 C   0  0  0  0  0  0  0  0  0  0  0  0
  140.9010   76.8730  221.1190 C   0  0  0  0  0  0  0  0  0  0  0  0
  140.2890   73.4730  222.5010 N   0  0  0  0  0  0  0  0  0  0  0  0
  140.7890   72.2300  222.4640 C   0  0  0  0  0  0  0  0  0  0  0  0
  140.3330   71.2370  223.3740 N   0  0  0  0  0  0  0  0  0  0  0  0
  139.5710   70.1040  222.8870 C   0  0  0  0  0  0  0  0  0  0  0  0
  138.4950   69.8440  223.9510 C   0  0  0  0  0  0  0  0  0  0  0  0
  139.2660   69.3550  225.1280 C   0  0  0  0  0  0  0  0  0  0  0  0
  138.8990   68.1830  225.7560 C   0  0  0  0  0  0  0  0  0  0  0  0
  139.6430   67.7670  226.8450 C   0  0  0  0  0  0  0  0  0  0  0  0
  140.7140   68.5340  227.2580 C   0  0  0  0  0  0  0  0  0  0  0  0
  141.0740   69.7090  226.6230 C   0  0  0  0  0  0  0  0  0  0  0  0
  140.3340   70.1290  225.5330 C   0  0  0  0  0  0  0  0  0  0  0  0
  140.6410   71.3760  224.7830 C   0  0  0  0  0  0  0  0  0  0  0  0
  141.7270   71.9480  221.5490 N   0  0  0  0  0  0  0  0  0  0  0  0
  144.8420   71.1560  218.5470 C   0  0  1  0  0  0  0  0  0  0  0  0
  145.2880   69.7370  218.3940 C   0  0  0  0  0  0  0  0  0  0  0  0
  146.2920   69.6900  217.2610 C   0  0  0  0  0  0  0  0  0  0  0  0
  145.6330   70.3120  216.0310 C   0  0  0  0  0  0  0  0  0  0  0  0
  145.3470   71.7250  216.2640 N   0  0  0  0  0  0  0  0  0  0  0  0
  144.2940   71.7490  217.2780 C   0  0  0  0  0  0  0  0  0  0  0  0
  143.4290   73.3610  219.0120 H   0  0  0  0  0  0  0  0  0  0  0  0
  138.1508   75.2604  221.8411 H   0  0  0  0  0  0  0  0  0  0  0  0
  138.9857   75.6754  223.3946 H   0  0  0  0  0  0  0  0  0  0  0  0
  138.0735   77.5725  221.1931 H   0  0  0  0  0  0  0  0  0  0  0  0
  137.5161   77.5207  222.8784 H   0  0  0  0  0  0  0  0  0  0  0  0
  138.3737   79.4777  223.9597 H   0  0  0  0  0  0  0  0  0  0  0  0
  140.3317   80.8909  224.5541 H   0  0  0  0  0  0  0  0  0  0  0  0
  142.5426   80.4654  223.5824 H   0  0  0  0  0  0  0  0  0  0  0  0
  142.8751   78.5967  221.9613 H   0  0  0  0  0  0  0  0  0  0  0  0
  140.4621   77.1542  220.1503 H   0  0  0  0  0  0  0  0  0  0  0  0
  141.9534   76.6010  220.9504 H   0  0  0  0  0  0  0  0  0  0  0  0
  139.1050   70.3417  221.9193 H   0  0  0  0  0  0  0  0  0  0  0  0
  140.2087   69.2219  222.7281 H   0  0  0  0  0  0  0  0  0  0  0  0
  137.9539   70.7701  224.1949 H   0  0  0  0  0  0  0  0  0  0  0  0
  137.7317   69.1263  223.6159 H   0  0  0  0  0  0  0  0  0  0  0  0
  138.0392   67.5961  225.4008 H   0  0  0  0  0  0  0  0  0  0  0  0
  139.3851   66.8381  227.3747 H   0  0  0  0  0  0  0  0  0  0  0  0
  141.3030   68.1983  228.1242 H   0  0  0  0  0  0  0  0  0  0  0  0
  141.9324   70.2979  226.9783 H   0  0  0  0  0  0  0  0  0  0  0  0
  140.0437   72.2002  225.2000 H   0  0  0  0  0  0  0  0  0  0  0  0
  141.7168   71.5830  224.8826 H   0  0  0  0  0  0  0  0  0  0  0  0
  145.7618   71.6903  218.8272 H   0  0  0  0  0  0  0  0  0  0  0  0
  145.7580   69.3894  219.3258 H   0  0  0  0  0  0  0  0  0  0  0  0
  144.4297   69.0846  218.1757 H   0  0  0  0  0  0  0  0  0  0  0  0
  147.1915   70.2615  217.5335 H   0  0  0  0  0  0  0  0  0  0  0  0
  146.5917   68.6520  217.0543 H   0  0  0  0  0  0  0  0  0  0  0  0
  146.3110   70.2170  215.1700 H   0  0  0  0  0  0  0  0  0  0  0  0
  144.6881   69.7862  215.8292 H   0  0  0  0  0  0  0  0  0  0  0  0
  146.1890   72.1620  216.7130 H   0  0  0  0  0  0  0  0  0  0  0  0
  143.9770   72.7865  217.4596 H   0  0  0  0  0  0  0  0  0  0  0  0
  143.4254   71.1682  216.9342 H   0  0  0  0  0  0  0  0  0  0  0  0
  1  2  2  0
  2  3  1  0
  3  4  1  0
  4  5  2  0
  5  6  1  0
  6  7  1  0
  7  8  1  0
  8  9  1  0
  9 10  1  0
 10 11  2  0
 11 12  1  0
 12 13  2  0
 13 14  1  0
 14 15  2  0
 15 16  1  0
  6 17  2  0
 17 18  1  0
 18 19  1  0
 19 20  1  0
 20 21  1  0
 21 22  1  0
 22 23  2  0
 23 24  1  0
 24 25  2  0
 25 26  1  0
 26 27  2  0
 27 28  1  0
 18 29  2  0
  2 30  1  0
 30 31  1  0
 31 32  1  0
 32 33  1  0
 33 34  1  0
 34 35  1  0
 29  4  1  0
 35 30  1  0
 16  7  1  0
 28 19  1  0
 15 10  1  0
 27 22  1  0
  3 36  1  0
  8 37  1  0
  8 38  1  0
  9 39  1  0
  9 40  1  0
 11 41  1  0
 12 42  1  0
 13 43  1  0
 14 44  1  0
 16 45  1  0
 16 46  1  0
 20 47  1  0
 20 48  1  0
 21 49  1  0
 21 50  1  0
 23 51  1  0
 24 52  1  0
 25 53  1  0
 26 54  1  0
 28 55  1  0
 28 56  1  0
 30 57  1  1
 31 58  1  0
 31 59  1  0
 32 60  1  0
 32 61  1  0
 33 62  1  0
 33 63  1  0
 34 64  1  0
 35 65  1  0
 35 66  1  0
M  END
>  <smiles>  (99) 
O=C(Nc1nc(N2CCc3ccccc3C2)nc(N2CCc3ccccc3C2)n1)C1CCCNC1

>  <score_type>  (99) 
oracle

>  <origin>  (99) 
autodockgpu

>  <m_score__min__energy>  (99) 
-9.5399999999999991

>  <m_primary>  (99) 
energy

>  <rmsd>  (99) 
7.892241602719693

>  <m_score__min__rmsd>  (99) 
7.892241602719693

>  <meeko>  (99) 
{"free_energy": -9.06, "intermolecular_energy": -10.26, "internal_energy": -0.72, "cluster_size": 24, "cluster_id": 2, "rank_in_cluster": 21}

>  <energy>  (99) 
-9.08

>  <cluster_rmsd>  (99) 
0.17

>  <cluster>  (99) 
3

$$$$

     RDKit          3D

 66 71  0  0  1  0  0  0  0  0999 V2000
  144.7720   73.3780  220.8660 O   0  0  0  0  0  0  0  0  0  0  0  0
  144.3610   72.7600  219.8430 C   0  0  0  0  0  0  0  0  0  0  0  0
  142.9820   72.4270  219.7390 N   0  0  0  0  0  0  0  0  0  0  0  0
  142.0250   72.7560  220.7400 C   0  0  0  0  0  0  0  0  0  0  0  0
  141.5060   74.0090  220.8000 N   0  0  0  0  0  0  0  0  0  0  0  0
  140.6030   74.3500  221.7300 C   0  0  0  0  0  0  0  0  0  0  0  0
  140.0830   75.6740  221.7610 N   0  0  0  0  0  0  0  0  0  0  0  0
  138.7970   75.8610  222.4040 C   0  0  0  0  0  0  0  0  0  0  0  0
  138.3190   77.2920  222.2850 C   0  0  0  0  0  0  0  0  0  0  0  0
  139.4790   78.1660  222.6580 C   0  0  0  0  0  0  0  0  0  0  0  0
  139.3210   79.2230  223.5440 C   0  0  0  0  0  0  0  0  0  0  0  0
  140.4280   79.9990  223.8540 C   0  0  0  0  0  0  0  0  0  0  0  0
  141.6590   79.7430  223.3050 C   0  0  0  0  0  0  0  0  0  0  0  0
  141.8360   78.6980  222.4220 C   0  0  0  0  0  0  0  0  0  0  0  0
  140.7350   77.9330  222.1200 C   0  0  0  0  0  0  0  0  0  0  0  0
  140.8220   76.7720  221.1690 C   0  0  0  0  0  0  0  0  0  0  0  0
  140.2120   73.4070  222.6230 N   0  0  0  0  0  0  0  0  0  0  0  0
  140.6990   72.1580  222.6000 C   0  0  0  0  0  0  0  0  0  0  0  0
  140.2680   71.1930  223.5500 N   0  0  0  0  0  0  0  0  0  0  0  0
  139.5320   70.0230  223.1120 C   0  0  0  0  0  0  0  0  0  0  0  0
  138.4640   69.7830  224.1890 C   0  0  0  0  0  0  0  0  0  0  0  0
  139.2490   69.3600  225.3830 C   0  0  0  0  0  0  0  0  0  0  0  0
  138.9100   68.2060  226.0580 C   0  0  0  0  0  0  0  0  0  0  0  0
  139.6660   67.8520  227.1610 C   0  0  0  0  0  0  0  0  0  0  0  0
  140.7200   68.6600  227.5400 C   0  0  0  0  0  0  0  0  0  0  0  0
  141.0520   69.8160  226.8560 C   0  0  0  0  0  0  0  0  0  0  0  0
  140.3000   70.1740  225.7530 C   0  0  0  0  0  0  0  0  0  0  0  0
  140.5760   71.3960  224.9520 C   0  0  0  0  0  0  0  0  0  0  0  0
  141.6000   71.8450  221.6580 N   0  0  0  0  0  0  0  0  0  0  0  0
  145.2490   72.3570  218.7260 C   0  0  1  0  0  0  0  0  0  0  0  0
  145.0000   70.9580  218.2610 C   0  0  0  0  0  0  0  0  0  0  0  0
  145.9360   70.6850  217.1020 C   0  0  0  0  0  0  0  0  0  0  0  0
  145.7140   71.7780  216.0590 C   0  0  0  0  0  0  0  0  0  0  0  0
  146.0960   73.0820  216.5940 N   0  0  0  0  0  0  0  0  0  0  0  0
  145.1140   73.3820  217.6340 C   0  0  0  0  0  0  0  0  0  0  0  0
  142.6330   71.9070  218.8800 H   0  0  0  0  0  0  0  0  0  0  0  0
  138.0599   75.1974  221.9283 H   0  0  0  0  0  0  0  0  0  0  0  0
  138.9078   75.6223  223.4721 H   0  0  0  0  0  0  0  0  0  0  0  0
  138.0030   77.5016  221.2524 H   0  0  0  0  0  0  0  0  0  0  0  0
  137.4566   77.4771  222.9423 H   0  0  0  0  0  0  0  0  0  0  0  0
  138.3394   79.4403  223.9904 H   0  0  0  0  0  0  0  0  0  0  0  0
  140.3165   80.8386  224.5559 H   0  0  0  0  0  0  0  0  0  0  0  0
  142.5157   80.3791  223.5723 H   0  0  0  0  0  0  0  0  0  0  0  0
  142.8194   78.4855  221.9773 H   0  0  0  0  0  0  0  0  0  0  0  0
  140.3788   77.0450  220.2000 H   0  0  0  0  0  0  0  0  0  0  0  0
  141.8705   76.4876  220.9962 H   0  0  0  0  0  0  0  0  0  0  0  0
  139.0591   70.2093  222.1365 H   0  0  0  0  0  0  0  0  0  0  0  0
  140.1897   69.1501  222.9879 H   0  0  0  0  0  0  0  0  0  0  0  0
  137.9027   70.7060  224.3964 H   0  0  0  0  0  0  0  0  0  0  0  0
  137.7160   69.0355  223.8860 H   0  0  0  0  0  0  0  0  0  0  0  0
  138.0635   67.5855  225.7289 H   0  0  0  0  0  0  0  0  0  0  0  0
  139.4309   66.9395  227.7285 H   0  0  0  0  0  0  0  0  0  0  0  0
  141.3176   68.3739  228.4181 H   0  0  0  0  0  0  0  0  0  0  0  0
  141.8980   70.4380  227.1837 H   0  0  0  0  0  0  0  0  0  0  0  0
  139.9606   72.2224  225.3371 H   0  0  0  0  0  0  0  0  0  0  0  0
  141.6469   71.6315  225.0395 H   0  0  0  0  0  0  0  0  0  0  0  0
  146.2928   72.3354  219.0725 H   0  0  0  0  0  0  0  0  0  0  0  0
  145.1999   70.2501  219.0789 H   0  0  0  0  0  0  0  0  0  0  0  0
  143.9526   70.8367  217.9474 H   0  0  0  0  0  0  0  0  0  0  0  0
  146.9793   70.7055  217.4501 H   0  0  0  0  0  0  0  0  0  0  0  0
  145.7354   69.6935  216.6699 H   0  0  0  0  0  0  0  0  0  0  0  0
  146.3237   71.5590  215.1700 H   0  0  0  0  0  0  0  0  0  0  0  0
  144.6473   71.8024  215.7914 H   0  0  0  0  0  0  0  0  0  0  0  0
  147.0160   72.9780  217.0890 H   0  0  0  0  0  0  0  0  0  0  0  0
  145.3007   74.3862  218.0423 H   0  0  0  0  0  0  0  0  0  0  0  0
  144.0980   73.3536  217.2132 H   0  0  0  0  0  0  0  0  0  0  0  0
  1  2  2  0
  2  3  1  0
  3  4  1  0
  4  5  2  0
  5  6  1  0
  6  7  1  0
  7  8  1  0
  8  9  1  0
  9 10  1  0
 10 11  2  0
 11 12  1  0
 12 13  2  0
 13 14  1  0
 14 15  2  0
 15 16  1  0
  6 17  2  0
 17 18  1  0
 18 19  1  0
 19 20  1  0
 20 21  1  0
 21 22  1  0
 22 23  2  0
 23 24  1  0
 24 25  2  0
 25 26  1  0
 26 27  2  0
 27 28  1  0
 18 29  2  0
  2 30  1  0
 30 31  1  0
 31 32  1  0
 32 33  1  0
 33 34  1  0
 34 35  1  0
 29  4  1  0
 35 30  1  0
 16  7  1  0
 28 19  1  0
 15 10  1  0
 27 22  1  0
  3 36  1  0
  8 37  1  0
  8 38  1  0
  9 39  1  0
  9 40  1  0
 11 41  1  0
 12 42  1  0
 13 43  1  0
 14 44  1  0
 16 45  1  0
 16 46  1  0
 20 47  1  0
 20 48  1  0
 21 49  1  0
 21 50  1  0
 23 51  1  0
 24 52  1  0
 25 53  1  0
 26 54  1  0
 28 55  1  0
 28 56  1  0
 30 57  1  1
 31 58  1  0
 31 59  1  0
 32 60  1  0
 32 61  1  0
 33 62  1  0
 33 63  1  0
 34 64  1  0
 35 65  1  0
 35 66  1  0
M  END
>  <smiles>  (100) 
O=C(Nc1nc(N2CCc3ccccc3C2)nc(N2CCc3ccccc3C2)n1)C1CCCNC1

>  <score_type>  (100) 
oracle

>  <origin>  (100) 
autodockgpu

>  <m_score__min__energy>  (100) 
-9.5399999999999991

>  <m_primary>  (100) 
energy

>  <rmsd>  (100) 
7.279048790864403

>  <m_score__min__rmsd>  (100) 
7.279048790864403

>  <meeko>  (100) 
{"free_energy": -9.46, "intermolecular_energy": -10.66, "internal_energy": -0.85, "cluster_size": 24, "cluster_id": 2, "rank_in_cluster": 2}

>  <energy>  (100) 
-8.95

>  <cluster_rmsd>  (100) 
0.16

>  <cluster>  (100) 
3

$$$$
