@<TRIPOS>MOLECULE
*****
 53 56 0 0 0
SMALL
GASTEIGER

@<TRIPOS>ATOM
      1 O         139.4020   71.0260  221.2170 O.2     1  UNL1       -0.2685
      2 C         139.6290   71.7080  222.2740 C.2     1  UNL1        0.2628
      3 N         139.7950   73.1000  222.2010 N.am    1  UNL1       -0.3015
      4 C         139.7190   73.8510  220.9390 C.3     1  UNL1        0.0887
      5 C         140.4090   75.1320  221.1480 C.2     1  UNL1        0.2331
      6 O         140.4810   75.5940  222.3340 O.2     1  UNL1       -0.2739
      7 N         141.0110   75.9150  220.1370 N.am    1  UNL1       -0.2931
      8 C         140.7080   75.8170  218.7190 C.3     1  UNL1        0.0462
      9 C         142.1580   75.7260  218.2060 C.3     1  UNL1        0.1183
     10 F         142.7860   74.6780  218.8140 F       1  UNL1       -0.2438
     11 C         142.6810   77.0150  218.8690 C.3     1  UNL1       -0.0003
     12 C         142.0320   76.9550  220.2350 C.3     1  UNL1        0.0415
     13 C         141.3800   78.2360  220.6500 C.3     1  UNL1        0.0176
     14 N         141.9730   78.8930  221.7600 N.3     1  UNL1       -0.3006
     15 C         141.2000   78.5600  222.9790 C.3     1  UNL1       -0.0010
     16 C         141.8560   79.4370  224.0200 C.3     1  UNL1       -0.0390
     17 C         142.2770   80.6500  223.2510 C.3     1  UNL1       -0.0390
     18 C         141.8660   80.3290  221.7970 C.3     1  UNL1       -0.0010
     19 C         139.7210   71.0370  223.5810 C.ar    1  UNL1        0.1260
     20 C         139.2330   69.7450  223.6930 C.ar    1  UNL1       -0.0306
     21 C         139.3460   69.1610  224.9490 C.ar    1  UNL1       -0.0504
     22 C         139.9060   69.8170  226.0230 C.ar    1  UNL1        0.0004
     23 C         140.0310   69.2660  227.2760 C.ar    1  UNL1       -0.0526
     24 C         140.6090   69.9880  228.3210 C.ar    1  UNL1       -0.0611
     25 C         141.0640   71.2710  228.1050 C.ar    1  UNL1       -0.0597
     26 C         140.9520   71.8410  226.8680 C.ar    1  UNL1       -0.0357
     27 C         140.3750   71.1060  225.8510 C.ar    1  UNL1        0.0718
     28 N         140.2650   71.6680  224.6340 N.ar    1  UNL1       -0.2421
     29 H         139.9800   73.6170  223.0950 H       1  UNL1        0.1496
     30 H         140.2117   73.2853  220.1345 H       1  UNL1        0.0558
     31 H         138.6712   74.0170  220.6481 H       1  UNL1        0.0558
     32 H         140.1218   74.9180  218.4777 H       1  UNL1        0.0493
     33 H         140.0923   76.6246  218.2963 H       1  UNL1        0.0493
     34 H         142.2852   75.6113  217.1194 H       1  UNL1        0.0667
     35 H         143.7782   77.0067  218.9476 H       1  UNL1        0.0312
     36 H         142.4437   77.9298  218.3061 H       1  UNL1        0.0312
     37 H         142.8042   76.7539  220.9922 H       1  UNL1        0.0514
     38 H         141.4104   78.9248  219.7929 H       1  UNL1        0.0445
     39 H         140.3617   77.9671  220.9675 H       1  UNL1        0.0445
     40 H         140.1360   78.8116  222.8581 H       1  UNL1        0.0426
     41 H         141.2117   77.4894  223.2315 H       1  UNL1        0.0426
     42 H         141.1425   79.7041  224.8134 H       1  UNL1        0.0278
     43 H         142.6975   78.9405  224.5255 H       1  UNL1        0.0278
     44 H         141.7543   81.5462  223.6167 H       1  UNL1        0.0278
     45 H         143.3514   80.8639  223.3508 H       1  UNL1        0.0278
     46 H         140.8364   80.6576  221.5919 H       1  UNL1        0.0426
     47 H         142.4832   80.8372  221.0415 H       1  UNL1        0.0426
     48 H         138.7839   69.2144  222.8405 H       1  UNL1        0.0641
     49 H         138.9740   68.1356  225.0909 H       1  UNL1        0.0625
     50 H         139.6708   68.2426  227.4574 H       1  UNL1        0.0624
     51 H         140.7016   69.5328  229.3181 H       1  UNL1        0.0618
     52 H         141.5187   71.8379  228.9308 H       1  UNL1        0.0618
     53 H         141.3138   72.8638  226.6861 H       1  UNL1        0.0639
@<TRIPOS>BOND
     1     1     2    2
     2     2     3   am
     3     3     4    1
     4     4     5    1
     5     5     6    2
     6     5     7   am
     7     7     8    1
     8     8     9    1
     9     9    10    1
    10     9    11    1
    11    11    12    1
    12    12    13    1
    13    13    14    1
    14    14    15    1
    15    15    16    1
    16    16    17    1
    17    17    18    1
    18     2    19    1
    19    19    20   ar
    20    20    21   ar
    21    21    22   ar
    22    22    23   ar
    23    23    24   ar
    24    24    25   ar
    25    25    26   ar
    26    26    27   ar
    27    27    28   ar
    28    12     7    1
    29    18    14    1
    30    28    19   ar
    31    27    22   ar
    32     3    29    1
    33     4    30    1
    34     4    31    1
    35     8    32    1
    36     8    33    1
    37     9    34    1
    38    11    35    1
    39    11    36    1
    40    12    37    1
    41    13    38    1
    42    13    39    1
    43    15    40    1
    44    15    41    1
    45    16    42    1
    46    16    43    1
    47    17    44    1
    48    17    45    1
    49    18    46    1
    50    18    47    1
    51    20    48    1
    52    21    49    1
    53    23    50    1
    54    24    51    1
    55    25    52    1
    56    26    53    1
