@<TRIPOS>MOLECULE
*****
 63 67 0 0 0
SMALL
GASTEIGER

@<TRIPOS>ATOM
      1 C         141.0530   69.9400  228.2760 C.ar    1  UNL1       -0.0617
      2 C         140.9720   71.1140  227.5910 C.ar    1  UNL1       -0.0615
      3 C         140.3540   71.1640  226.3710 C.ar    1  UNL1       -0.0586
      4 C         139.7960   70.0320  225.8020 C.ar    1  UNL1       -0.0473
      5 C         139.1370   70.1510  224.4720 C.3     1  UNL1       -0.0263
      6 C         140.0430   71.0460  223.6310 C.3     1  UNL1       -0.0334
      7 C         139.2900   71.4590  222.4000 C.3     1  UNL1        0.0121
      8 N         139.0700   72.8890  222.4030 N.pl3   1  UNL1       -0.3133
      9 C         140.1580   73.7010  221.9460 C.ar    1  UNL1        0.2211
     10 N         141.2290   73.0880  221.4540 N.ar    1  UNL1       -0.1809
     11 C         142.2460   73.8460  221.0280 C.ar    1  UNL1        0.2237
     12 N         143.4050   73.2200  220.4940 N.pl3   1  UNL1       -0.2971
     13 C         144.5820   74.0130  220.1450 C.3     1  UNL1        0.0274
     14 C         145.7820   73.1960  220.5790 C.3     1  UNL1        0.0118
     15 N         145.8940   72.0420  219.7170 N.3     1  UNL1       -0.3130
     16 C         144.6090   71.5600  219.2740 C.3     1  UNL1        0.0118
     17 C         143.4980   71.7950  220.2640 C.3     1  UNL1        0.0274
     18 N         142.1930   75.1840  221.0920 N.ar    1  UNL1       -0.1807
     19 C         141.1160   75.8360  221.5890 C.ar    1  UNL1        0.2240
     20 N         141.0530   77.2610  221.6610 N.pl3   1  UNL1       -0.2948
     21 C         140.7210   77.8760  222.9310 C.3     1  UNL1        0.0192
     22 C         141.5460   79.1110  223.2150 C.3     1  UNL1       -0.0115
     23 C         141.4880   79.9670  222.0010 C.ar    1  UNL1       -0.0412
     24 C         141.5360   81.3400  222.1290 C.ar    1  UNL1       -0.0582
     25 C         141.4840   82.1800  221.0260 C.ar    1  UNL1       -0.0615
     26 C         141.3820   81.6580  219.7400 C.ar    1  UNL1       -0.0614
     27 C         141.3330   80.2920  219.6040 C.ar    1  UNL1       -0.0568
     28 C         141.3860   79.4590  220.7220 C.ar    1  UNL1       -0.0269
     29 C         141.3250   77.9990  220.4550 C.3     1  UNL1        0.0402
     30 N         140.0930   75.0600  222.0160 N.ar    1  UNL1       -0.1809
     31 C         139.8770   68.8420  226.4960 C.ar    1  UNL1       -0.0586
     32 C         140.5030   68.8000  227.7260 C.ar    1  UNL1       -0.0615
     33 H         141.5509   69.9007  229.2561 H       1  UNL1        0.0618
     34 H         141.4063   72.0285  228.0212 H       1  UNL1        0.0618
     35 H         140.2996   72.1216  225.8324 H       1  UNL1        0.0620
     36 H         139.0383   69.1602  224.0045 H       1  UNL1        0.0314
     37 H         138.1249   70.5726  224.5606 H       1  UNL1        0.0314
     38 H         140.3258   71.9374  224.2101 H       1  UNL1        0.0283
     39 H         140.9569   70.5018  223.3504 H       1  UNL1        0.0283
     40 H         139.8724   71.1832  221.5085 H       1  UNL1        0.0462
     41 H         138.3166   70.9469  222.3869 H       1  UNL1        0.0462
     42 H         138.2130   73.3650  222.7000 H       1  UNL1        0.1489
     43 H         144.6140   74.1919  219.0601 H       1  UNL1        0.0477
     44 H         144.5652   74.9961  220.6381 H       1  UNL1        0.0477
     45 H         146.6935   73.8067  220.5000 H       1  UNL1        0.0439
     46 H         145.6571   72.8728  221.6230 H       1  UNL1        0.0439
     47 H         146.5000   71.3020  220.1440 H       1  UNL1        0.1220
     48 H         144.3512   72.0720  218.3352 H       1  UNL1        0.0439
     49 H         144.7010   70.4712  219.1477 H       1  UNL1        0.0439
     50 H         142.5480   71.4189  219.8566 H       1  UNL1        0.0477
     51 H         143.7047   71.2663  221.2062 H       1  UNL1        0.0477
     52 H         139.6579   78.1583  222.9180 H       1  UNL1        0.0468
     53 H         140.9376   77.1427  223.7218 H       1  UNL1        0.0468
     54 H         141.1301   79.6519  224.0778 H       1  UNL1        0.0328
     55 H         142.5853   78.8402  223.4526 H       1  UNL1        0.0328
     56 H         141.6178   81.7809  223.1335 H       1  UNL1        0.0620
     57 H         141.5238   83.2699  221.1695 H       1  UNL1        0.0618
     58 H         141.3419   82.3179  218.8609 H       1  UNL1        0.0618
     59 H         141.2509   79.8490  218.6005 H       1  UNL1        0.0621
     60 H         140.5265   77.8006  219.7249 H       1  UNL1        0.0514
     61 H         142.2996   77.6756  220.0606 H       1  UNL1        0.0514
     62 H         139.4425   67.9261  226.0690 H       1  UNL1        0.0620
     63 H         140.5640   67.8478  228.2733 H       1  UNL1        0.0618
@<TRIPOS>BOND
     1     1     2   ar
     2     2     3   ar
     3     3     4   ar
     4     4     5    1
     5     5     6    1
     6     6     7    1
     7     7     8    1
     8     8     9    1
     9     9    10   ar
    10    10    11   ar
    11    11    12    1
    12    12    13    1
    13    13    14    1
    14    14    15    1
    15    15    16    1
    16    16    17    1
    17    11    18   ar
    18    18    19   ar
    19    19    20    1
    20    20    21    1
    21    21    22    1
    22    22    23    1
    23    23    24   ar
    24    24    25   ar
    25    25    26   ar
    26    26    27   ar
    27    27    28   ar
    28    28    29    1
    29    19    30   ar
    30     4    31   ar
    31    31    32   ar
    32    32     1   ar
    33    30     9   ar
    34    17    12    1
    35    29    20    1
    36    28    23   ar
    37     1    33    1
    38     2    34    1
    39     3    35    1
    40     5    36    1
    41     5    37    1
    42     6    38    1
    43     6    39    1
    44     7    40    1
    45     7    41    1
    46     8    42    1
    47    13    43    1
    48    13    44    1
    49    14    45    1
    50    14    46    1
    51    15    47    1
    52    16    48    1
    53    16    49    1
    54    17    50    1
    55    17    51    1
    56    21    52    1
    57    21    53    1
    58    22    54    1
    59    22    55    1
    60    24    56    1
    61    25    57    1
    62    26    58    1
    63    27    59    1
    64    29    60    1
    65    29    61    1
    66    31    62    1
    67    32    63    1
