@<TRIPOS>MOLECULE
*****
 46 49 0 0 0
SMALL
GASTEIGER

@<TRIPOS>ATOM
      1 O         139.6010   75.6250  220.3410 O.2     1  UNL1       -0.1577
      2 S         140.9460   75.8710  220.9610 S.O2    1  UNL1        0.0362
      3 O         141.1380   74.8050  222.0070 O.2     1  UNL1       -0.1577
      4 C         142.1750   75.7070  219.7220 C.3     1  UNL1        0.1069
      5 C         143.1520   74.6590  220.1180 C.ar    1  UNL1       -0.0250
      6 C         142.7130   73.3400  220.1410 C.ar    1  UNL1       -0.0570
      7 C         143.6080   72.3330  220.5080 C.ar    1  UNL1       -0.0615
      8 C         144.9230   72.6340  220.8480 C.ar    1  UNL1       -0.0617
      9 C         145.3660   73.9570  220.8250 C.ar    1  UNL1       -0.0615
     10 C         144.4610   74.9430  220.4570 C.ar    1  UNL1       -0.0570
     11 N         140.9350   77.3750  221.7480 N.3     1  UNL1       -0.1754
     12 C         141.7850   78.3620  221.1660 C.3     1  UNL1        0.0455
     13 C         142.0010   79.3610  222.2510 C.ar    1  UNL1       -0.0276
     14 C         143.2340   79.7930  222.6600 C.ar    1  UNL1       -0.0570
     15 C         143.3790   80.7200  223.6700 C.ar    1  UNL1       -0.0614
     16 C         142.2380   81.2090  224.2660 C.ar    1  UNL1       -0.0615
     17 C         140.9890   80.7620  223.8420 C.ar    1  UNL1       -0.0574
     18 C         140.8170   79.8440  222.8440 C.ar    1  UNL1       -0.0271
     19 C         139.5740   79.3100  222.3210 C.3     1  UNL1        0.1012
     20 C         138.3150   79.7530  222.8960 C.2     1  UNL1        0.2898
     21 N         137.9690   80.1660  224.0510 N.2     1  UNL1       -0.0833
     22 C         136.6000   80.5110  224.2060 C.3     1  UNL1        0.1671
     23 C         136.1800   80.7090  222.7660 C.3     1  UNL1        0.1194
     24 N         137.0880   79.7930  222.1170 N.pl3   1  UNL1       -0.2332
     25 C         139.7130   77.7870  222.3140 C.3     1  UNL1        0.0383
     26 H         141.6998   75.4229  218.7715 H       1  UNL1        0.0565
     27 H         142.6999   76.6662  219.6016 H       1  UNL1        0.0565
     28 H         141.6749   73.0931  219.8738 H       1  UNL1        0.0621
     29 H         143.2685   71.2869  220.5286 H       1  UNL1        0.0618
     30 H         145.6144   71.8281  221.1353 H       1  UNL1        0.0618
     31 H         146.4027   74.2112  221.0909 H       1  UNL1        0.0618
     32 H         144.7986   75.9897  220.4344 H       1  UNL1        0.0621
     33 H         142.7406   77.9157  220.8534 H       1  UNL1        0.0493
     34 H         141.3433   78.8138  220.2656 H       1  UNL1        0.0493
     35 H         144.1325   79.3899  222.1699 H       1  UNL1        0.0621
     36 H         144.3755   81.0586  223.9899 H       1  UNL1        0.0618
     37 H         142.3129   81.9507  225.0749 H       1  UNL1        0.0618
     38 H         140.0943   81.1689  224.3360 H       1  UNL1        0.0621
     39 H         139.4649   79.7420  221.3153 H       1  UNL1        0.0485
     40 H         136.0316   79.6992  224.6834 H       1  UNL1        0.0829
     41 H         136.4257   81.3851  224.8506 H       1  UNL1        0.0829
     42 H         135.1292   80.4270  222.6039 H       1  UNL1        0.0765
     43 H         136.2296   81.7470  222.4054 H       1  UNL1        0.0765
     44 H         136.8990   79.2520  221.2390 H       1  UNL1        0.2912
     45 H         139.6587   77.4199  223.3495 H       1  UNL1        0.0455
     46 H         138.8971   77.3725  221.7038 H       1  UNL1        0.0455
@<TRIPOS>BOND
     1     1     2    2
     2     2     3    2
     3     2     4    1
     4     4     5    1
     5     5     6   ar
     6     6     7   ar
     7     7     8   ar
     8     8     9   ar
     9     9    10   ar
    10     2    11    1
    11    11    12    1
    12    12    13    1
    13    13    14   ar
    14    14    15   ar
    15    15    16   ar
    16    16    17   ar
    17    17    18   ar
    18    18    19    1
    19    19    20    1
    20    20    21    2
    21    21    22    1
    22    22    23    1
    23    23    24    1
    24    19    25    1
    25    10     5   ar
    26    25    11    1
    27    18    13   ar
    28    24    20    1
    29     4    26    1
    30     4    27    1
    31     6    28    1
    32     7    29    1
    33     8    30    1
    34     9    31    1
    35    10    32    1
    36    12    33    1
    37    12    34    1
    38    14    35    1
    39    15    36    1
    40    16    37    1
    41    17    38    1
    42    19    39    1
    43    22    40    1
    44    22    41    1
    45    23    42    1
    46    23    43    1
    47    24    44    1
    48    25    45    1
    49    25    46    1
