@<TRIPOS>MOLECULE
*****
 57 61 0 0 0
SMALL
GASTEIGER

@<TRIPOS>ATOM
      1 C         145.2720   70.5890  218.8710 C.3     1  UNL1        0.0788
      2 O         145.5800   71.9600  218.8880 O.3     1  UNL1       -0.4951
      3 C         144.6760   72.9330  219.2910 C.ar    1  UNL1        0.1209
      4 C         145.0770   74.1210  219.7880 C.ar    1  UNL1       -0.0182
      5 C         144.2070   75.1320  220.2070 C.ar    1  UNL1       -0.0363
      6 C         142.8500   74.8500  220.0850 C.ar    1  UNL1        0.0445
      7 N         141.9660   75.8600  220.5460 N.am    1  UNL1       -0.2808
      8 C         141.0200   75.5670  221.5890 C.2     1  UNL1        0.2494
      9 O         140.9290   74.4360  222.1260 O.2     1  UNL1       -0.2698
     10 C         140.0950   76.6290  222.0740 C.ar    1  UNL1        0.0517
     11 C         138.7130   76.3420  222.0410 C.ar    1  UNL1       -0.0110
     12 S         137.8780   77.8050  222.6680 S.2     1  UNL1       -0.0959
     13 C         139.4690   78.7240  222.9380 C.ar    1  UNL1        0.0201
     14 C         139.6520   79.9870  223.4270 C.ar    1  UNL1       -0.0474
     15 C         140.9570   80.4690  223.5410 C.ar    1  UNL1       -0.0607
     16 C         141.9490   79.6050  223.1410 C.ar    1  UNL1       -0.0611
     17 C         141.7530   78.3510  222.6570 C.ar    1  UNL1       -0.0528
     18 C         140.4320   77.8390  222.5320 C.ar    1  UNL1        0.0013
     19 C         142.3910   73.6400  219.5790 C.ar    1  UNL1        0.0436
     20 C         140.9550   73.3620  219.4260 C.2     1  UNL1        0.1820
     21 O         140.2670   74.2890  218.9410 O.2     1  UNL1       -0.2903
     22 C         140.4290   72.0500  219.8440 C.3     1  UNL1        0.0751
     23 N         140.6170   71.8950  221.2720 N.am    1  UNL1       -0.3028
     24 C         139.7950   70.9640  221.9350 C.2     1  UNL1        0.2628
     25 O         138.9590   70.3310  221.1930 O.2     1  UNL1       -0.2685
     26 C         139.8020   70.6570  223.3480 C.ar    1  UNL1        0.1260
     27 C         139.1850   69.5240  223.8200 C.ar    1  UNL1       -0.0306
     28 C         139.1580   69.1420  225.1370 C.ar    1  UNL1       -0.0504
     29 C         139.7970   69.9620  226.0430 C.ar    1  UNL1        0.0004
     30 C         139.7990   69.6390  227.3780 C.ar    1  UNL1       -0.0526
     31 C         140.4170   70.4280  228.3380 C.ar    1  UNL1       -0.0611
     32 C         141.0490   71.5850  227.8740 C.ar    1  UNL1       -0.0597
     33 C         141.0370   71.8940  226.5280 C.ar    1  UNL1       -0.0357
     34 C         140.4230   71.1120  225.5760 C.ar    1  UNL1        0.0718
     35 N         140.4230   71.4410  224.2760 N.ar    1  UNL1       -0.2421
     36 C         143.3130   72.6620  219.1740 C.ar    1  UNL1       -0.0076
     37 H         145.1889   70.2190  219.9036 H       1  UNL1        0.0660
     38 H         144.3167   70.4343  218.3481 H       1  UNL1        0.0660
     39 H         146.0693   70.0405  218.3481 H       1  UNL1        0.0660
     40 H         146.1582   74.3064  219.8689 H       1  UNL1        0.0655
     41 H         144.5720   76.0893  220.6075 H       1  UNL1        0.0637
     42 H         141.9870   76.8340  220.1420 H       1  UNL1        0.1552
     43 H         138.2412   75.4088  221.6995 H       1  UNL1        0.0701
     44 H         138.7933   80.6075  223.7230 H       1  UNL1        0.0629
     45 H         141.1776   81.4755  223.9261 H       1  UNL1        0.0618
     46 H         142.9876   79.9587  223.2195 H       1  UNL1        0.0618
     47 H         142.6140   77.7330  222.3624 H       1  UNL1        0.0624
     48 H         139.3569   71.9904  219.6053 H       1  UNL1        0.0544
     49 H         140.9646   71.2502  219.3115 H       1  UNL1        0.0544
     50 H         141.3120   72.4170  221.8380 H       1  UNL1        0.1495
     51 H         138.6765   68.8772  223.0899 H       1  UNL1        0.0641
     52 H         138.6485   68.2211  225.4568 H       1  UNL1        0.0625
     53 H         139.2904   68.7180  227.6991 H       1  UNL1        0.0624
     54 H         140.4098   70.1579  229.4043 H       1  UNL1        0.0618
     55 H         141.5584   72.2528  228.5843 H       1  UNL1        0.0618
     56 H         141.5446   72.8130  226.1996 H       1  UNL1        0.0639
     57 H         142.9665   71.6988  218.7714 H       1  UNL1        0.0662
@<TRIPOS>BOND
     1     1     2    1
     2     2     3    1
     3     3     4   ar
     4     4     5   ar
     5     5     6   ar
     6     6     7    1
     7     7     8   am
     8     8     9    2
     9     8    10    1
    10    10    11   ar
    11    11    12   ar
    12    12    13   ar
    13    13    14   ar
    14    14    15   ar
    15    15    16   ar
    16    16    17   ar
    17    17    18   ar
    18     6    19   ar
    19    19    20    1
    20    20    21    2
    21    20    22    1
    22    22    23    1
    23    23    24   am
    24    24    25    2
    25    24    26    1
    26    26    27   ar
    27    27    28   ar
    28    28    29   ar
    29    29    30   ar
    30    30    31   ar
    31    31    32   ar
    32    32    33   ar
    33    33    34   ar
    34    34    35   ar
    35    19    36   ar
    36    36     3   ar
    37    18    10   ar
    38    35    26   ar
    39    18    13   ar
    40    34    29   ar
    41     1    37    1
    42     1    38    1
    43     1    39    1
    44     4    40    1
    45     5    41    1
    46     7    42    1
    47    11    43    1
    48    14    44    1
    49    15    45    1
    50    16    46    1
    51    17    47    1
    52    22    48    1
    53    22    49    1
    54    23    50    1
    55    27    51    1
    56    28    52    1
    57    30    53    1
    58    31    54    1
    59    32    55    1
    60    33    56    1
    61    36    57    1
