@<TRIPOS>MOLECULE
*****
 64 69 0 0 0
SMALL
GASTEIGER

@<TRIPOS>ATOM
      1 O         139.8480   70.0860  222.0760 O.2     1  UNL1       -0.2685
      2 C         139.7400   71.1870  222.6750 C.2     1  UNL1        0.2629
      3 N         139.0140   71.2970  223.8820 N.am    1  UNL1       -0.3060
      4 C         138.3360   70.2240  224.5480 C.3     1  UNL1        0.0373
      5 C         139.1870   69.4700  225.5060 C.ar    1  UNL1       -0.0275
      6 C         139.9600   70.2410  226.3710 C.ar    1  UNL1       -0.0389
      7 C         140.7810   69.5920  227.2900 C.ar    1  UNL1        0.0279
      8 N         140.8300   68.2470  227.3400 N.ar    1  UNL1       -0.2632
      9 C         140.0690   67.5180  226.4870 C.ar    1  UNL1        0.0279
     10 C         139.2330   68.0930  225.5540 C.ar    1  UNL1       -0.0389
     11 C         140.3920   72.3800  222.0980 C.ar    1  UNL1        0.1322
     12 C         141.4880   72.2270  221.2740 C.ar    1  UNL1        0.0090
     13 C         142.1410   73.3080  220.7110 C.ar    1  UNL1        0.1274
     14 N         143.2690   73.1430  219.8610 N.pl3   1  UNL1       -0.3104
     15 C         143.3620   73.9950  218.7010 C.3     1  UNL1        0.0178
     16 C         144.4540   73.6530  217.7530 C.3     1  UNL1       -0.0115
     17 C         144.9920   72.3010  217.8690 C.ar    1  UNL1       -0.0412
     18 C         145.6130   71.7270  216.7800 C.ar    1  UNL1       -0.0582
     19 C         146.1420   70.4410  216.8450 C.ar    1  UNL1       -0.0615
     20 C         146.0500   69.7130  218.0190 C.ar    1  UNL1       -0.0614
     21 C         145.4280   70.2880  219.1090 C.ar    1  UNL1       -0.0568
     22 C         144.9130   71.5580  219.0200 C.ar    1  UNL1       -0.0269
     23 C         144.2550   72.1360  220.2060 C.3     1  UNL1        0.0388
     24 N         141.6480   74.5280  221.0120 N.ar    1  UNL1       -0.1993
     25 C         140.5790   74.6990  221.8130 C.ar    1  UNL1        0.2205
     26 N         140.1480   76.0350  222.0670 N.pl3   1  UNL1       -0.2949
     27 C         138.8090   76.2380  222.5930 C.3     1  UNL1        0.0192
     28 C         138.2690   77.5470  221.9940 C.3     1  UNL1       -0.0115
     29 C         139.1800   78.6030  222.5700 C.ar    1  UNL1       -0.0412
     30 C         138.6720   79.7310  223.1720 C.ar    1  UNL1       -0.0582
     31 C         139.5250   80.6770  223.6960 C.ar    1  UNL1       -0.0615
     32 C         140.8920   80.4530  223.5940 C.ar    1  UNL1       -0.0614
     33 C         141.3910   79.3040  222.9780 C.ar    1  UNL1       -0.0568
     34 C         140.5300   78.3430  222.4470 C.ar    1  UNL1       -0.0269
     35 C         141.0660   77.1220  221.7910 C.3     1  UNL1        0.0402
     36 N         139.9610   73.6230  222.3500 N.ar    1  UNL1       -0.2096
     37 H         138.9810   72.2710  224.3130 H       1  UNL1        0.1494
     38 H         137.4830   70.6446  225.1007 H       1  UNL1        0.0512
     39 H         138.0277   69.5114  223.7688 H       1  UNL1        0.0512
     40 H         139.9228   71.3396  226.3292 H       1  UNL1        0.0636
     41 H         141.3964   70.1847  227.9828 H       1  UNL1        0.0829
     42 H         140.1209   66.4206  226.5418 H       1  UNL1        0.0829
     43 H         138.6261   67.4770  224.8741 H       1  UNL1        0.0636
     44 H         141.8541   71.2124  221.0580 H       1  UNL1        0.0675
     45 H         142.4077   73.9355  218.1572 H       1  UNL1        0.0467
     46 H         143.5891   75.0028  219.0788 H       1  UNL1        0.0467
     47 H         144.0654   73.7757  216.7313 H       1  UNL1        0.0328
     48 H         145.2864   74.3292  217.9976 H       1  UNL1        0.0328
     49 H         145.6919   72.2961  215.8420 H       1  UNL1        0.0620
     50 H         146.6332   70.0032  215.9635 H       1  UNL1        0.0618
     51 H         146.4645   68.6960  218.0820 H       1  UNL1        0.0618
     52 H         145.3446   69.7273  220.0517 H       1  UNL1        0.0621
     53 H         143.7547   71.3282  220.7602 H       1  UNL1        0.0513
     54 H         145.0314   72.6239  220.8135 H       1  UNL1        0.0513
     55 H         138.1608   75.3976  222.3040 H       1  UNL1        0.0468
     56 H         138.8294   76.2947  223.6913 H       1  UNL1        0.0468
     57 H         138.3309   77.5314  220.8959 H       1  UNL1        0.0328
     58 H         137.2092   77.7207  222.2319 H       1  UNL1        0.0328
     59 H         137.5836   79.8775  223.2349 H       1  UNL1        0.0620
     60 H         139.1349   81.5838  224.1813 H       1  UNL1        0.0618
     61 H         141.5934   81.1937  224.0057 H       1  UNL1        0.0618
     62 H         142.4786   79.1541  222.9102 H       1  UNL1        0.0621
     63 H         141.1414   77.2823  220.7054 H       1  UNL1        0.0514
     64 H         142.0692   76.8864  222.1759 H       1  UNL1        0.0514
@<TRIPOS>BOND
     1     1     2    2
     2     2     3   am
     3     3     4    1
     4     4     5    1
     5     5     6   ar
     6     6     7   ar
     7     7     8   ar
     8     8     9   ar
     9     9    10   ar
    10     2    11    1
    11    11    12   ar
    12    12    13   ar
    13    13    14    1
    14    14    15    1
    15    15    16    1
    16    16    17    1
    17    17    18   ar
    18    18    19   ar
    19    19    20   ar
    20    20    21   ar
    21    21    22   ar
    22    22    23    1
    23    13    24   ar
    24    24    25   ar
    25    25    26    1
    26    26    27    1
    27    27    28    1
    28    28    29    1
    29    29    30   ar
    30    30    31   ar
    31    31    32   ar
    32    32    33   ar
    33    33    34   ar
    34    34    35    1
    35    25    36   ar
    36    10     5   ar
    37    36    11   ar
    38    23    14    1
    39    35    26    1
    40    22    17   ar
    41    34    29   ar
    42     3    37    1
    43     4    38    1
    44     4    39    1
    45     6    40    1
    46     7    41    1
    47     9    42    1
    48    10    43    1
    49    12    44    1
    50    15    45    1
    51    15    46    1
    52    16    47    1
    53    16    48    1
    54    18    49    1
    55    19    50    1
    56    20    51    1
    57    21    52    1
    58    23    53    1
    59    23    54    1
    60    27    55    1
    61    27    56    1
    62    28    57    1
    63    28    58    1
    64    30    59    1
    65    31    60    1
    66    32    61    1
    67    33    62    1
    68    35    63    1
    69    35    64    1
