
     RDKit          3D

 57 61  0  0  0  0  0  0  0  0999 V2000
  145.2720   70.5890  218.8710 C   0  0  0  0  0  0  0  0  0  0  0  0
  145.5800   71.9600  218.8880 O   0  0  0  0  0  0  0  0  0  0  0  0
  144.6760   72.9330  219.2910 C   0  0  0  0  0  0  0  0  0  0  0  0
  145.0770   74.1210  219.7880 C   0  0  0  0  0  0  0  0  0  0  0  0
  144.2070   75.1320  220.2070 C   0  0  0  0  0  0  0  0  0  0  0  0
  142.8500   74.8500  220.0850 C   0  0  0  0  0  0  0  0  0  0  0  0
  141.9660   75.8600  220.5460 N   0  0  0  0  0  0  0  0  0  0  0  0
  141.0200   75.5670  221.5890 C   0  0  0  0  0  0  0  0  0  0  0  0
  140.9290   74.4360  222.1260 O   0  0  0  0  0  0  0  0  0  0  0  0
  140.0950   76.6290  222.0740 C   0  0  0  0  0  0  0  0  0  0  0  0
  138.7130   76.3420  222.0410 C   0  0  0  0  0  0  0  0  0  0  0  0
  137.8780   77.8050  222.6680 S   0  0  0  0  0  0  0  0  0  0  0  0
  139.4690   78.7240  222.9380 C   0  0  0  0  0  0  0  0  0  0  0  0
  139.6520   79.9870  223.4270 C   0  0  0  0  0  0  0  0  0  0  0  0
  140.9570   80.4690  223.5410 C   0  0  0  0  0  0  0  0  0  0  0  0
  141.9490   79.6050  223.1410 C   0  0  0  0  0  0  0  0  0  0  0  0
  141.7530   78.3510  222.6570 C   0  0  0  0  0  0  0  0  0  0  0  0
  140.4320   77.8390  222.5320 C   0  0  0  0  0  0  0  0  0  0  0  0
  142.3910   73.6400  219.5790 C   0  0  0  0  0  0  0  0  0  0  0  0
  140.9550   73.3620  219.4260 C   0  0  0  0  0  0  0  0  0  0  0  0
  140.2670   74.2890  218.9410 O   0  0  0  0  0  0  0  0  0  0  0  0
  140.4290   72.0500  219.8440 C   0  0  0  0  0  0  0  0  0  0  0  0
  140.6170   71.8950  221.2720 N   0  0  0  0  0  0  0  0  0  0  0  0
  139.7950   70.9640  221.9350 C   0  0  0  0  0  0  0  0  0  0  0  0
  138.9590   70.3310  221.1930 O   0  0  0  0  0  0  0  0  0  0  0  0
  139.8020   70.6570  223.3480 C   0  0  0  0  0  0  0  0  0  0  0  0
  139.1850   69.5240  223.8200 C   0  0  0  0  0  0  0  0  0  0  0  0
  139.1580   69.1420  225.1370 C   0  0  0  0  0  0  0  0  0  0  0  0
  139.7970   69.9620  226.0430 C   0  0  0  0  0  0  0  0  0  0  0  0
  139.7990   69.6390  227.3780 C   0  0  0  0  0  0  0  0  0  0  0  0
  140.4170   70.4280  228.3380 C   0  0  0  0  0  0  0  0  0  0  0  0
  141.0490   71.5850  227.8740 C   0  0  0  0  0  0  0  0  0  0  0  0
  141.0370   71.8940  226.5280 C   0  0  0  0  0  0  0  0  0  0  0  0
  140.4230   71.1120  225.5760 C   0  0  0  0  0  0  0  0  0  0  0  0
  140.4230   71.4410  224.2760 N   0  0  0  0  0  0  0  0  0  0  0  0
  143.3130   72.6620  219.1740 C   0  0  0  0  0  0  0  0  0  0  0  0
  145.1889   70.2190  219.9036 H   0  0  0  0  0  0  0  0  0  0  0  0
  144.3167   70.4343  218.3481 H   0  0  0  0  0  0  0  0  0  0  0  0
  146.0693   70.0405  218.3481 H   0  0  0  0  0  0  0  0  0  0  0  0
  146.1582   74.3064  219.8689 H   0  0  0  0  0  0  0  0  0  0  0  0
  144.5720   76.0893  220.6075 H   0  0  0  0  0  0  0  0  0  0  0  0
  141.9870   76.8340  220.1420 H   0  0  0  0  0  0  0  0  0  0  0  0
  138.2412   75.4088  221.6995 H   0  0  0  0  0  0  0  0  0  0  0  0
  138.7933   80.6075  223.7230 H   0  0  0  0  0  0  0  0  0  0  0  0
  141.1776   81.4755  223.9261 H   0  0  0  0  0  0  0  0  0  0  0  0
  142.9876   79.9587  223.2195 H   0  0  0  0  0  0  0  0  0  0  0  0
  142.6140   77.7330  222.3624 H   0  0  0  0  0  0  0  0  0  0  0  0
  139.3569   71.9904  219.6053 H   0  0  0  0  0  0  0  0  0  0  0  0
  140.9646   71.2502  219.3115 H   0  0  0  0  0  0  0  0  0  0  0  0
  141.3120   72.4170  221.8380 H   0  0  0  0  0  0  0  0  0  0  0  0
  138.6765   68.8772  223.0899 H   0  0  0  0  0  0  0  0  0  0  0  0
  138.6485   68.2211  225.4568 H   0  0  0  0  0  0  0  0  0  0  0  0
  139.2904   68.7180  227.6991 H   0  0  0  0  0  0  0  0  0  0  0  0
  140.4098   70.1579  229.4043 H   0  0  0  0  0  0  0  0  0  0  0  0
  141.5584   72.2528  228.5843 H   0  0  0  0  0  0  0  0  0  0  0  0
  141.5446   72.8130  226.1996 H   0  0  0  0  0  0  0  0  0  0  0  0
  142.9665   71.6988  218.7714 H   0  0  0  0  0  0  0  0  0  0  0  0
  1  2  1  0
  2  3  1  0
  3  4  2  0
  4  5  1  0
  5  6  2  0
  6  7  1  0
  7  8  1  0
  8  9  2  0
  8 10  1  0
 10 11  2  0
 11 12  1  0
 12 13  1  0
 13 14  2  0
 14 15  1  0
 15 16  2  0
 16 17  1  0
 17 18  2  0
  6 19  1  0
 19 20  1  0
 20 21  2  0
 20 22  1  0
 22 23  1  0
 23 24  1  0
 24 25  2  0
 24 26  1  0
 26 27  2  0
 27 28  1  0
 28 29  2  0
 29 30  1  0
 30 31  2  0
 31 32  1  0
 32 33  2  0
 33 34  1  0
 34 35  2  0
 19 36  2  0
 36  3  1  0
 18 10  1  0
 35 26  1  0
 18 13  1  0
 34 29  1  0
  1 37  1  0
  1 38  1  0
  1 39  1  0
  4 40  1  0
  5 41  1  0
  7 42  1  0
 11 43  1  0
 14 44  1  0
 15 45  1  0
 16 46  1  0
 17 47  1  0
 22 48  1  0
 22 49  1  0
 23 50  1  0
 27 51  1  0
 28 52  1  0
 30 53  1  0
 31 54  1  0
 32 55  1  0
 33 56  1  0
 36 57  1  0
M  END
