
     RDKit          3D

 69 74  0  0  1  0  0  0  0  0999 V2000
  138.8930   75.9460  222.2860 O   0  0  0  0  0  0  0  0  0  0  0  0
  139.7850   75.6080  221.4810 C   0  0  0  0  0  0  0  0  0  0  0  0
  140.2660   76.3860  220.4230 N   0  0  0  0  0  0  0  0  0  0  0  0
  139.8770   77.6880  220.0000 C   0  0  0  0  0  0  0  0  0  0  0  0
  140.1690   78.8560  220.8510 C   0  0  1  0  0  0  0  0  0  0  0  0
  139.5720   78.8330  222.2070 C   0  0  0  0  0  0  0  0  0  0  0  0
  140.4370   79.7770  223.0880 C   0  0  0  0  0  0  0  0  0  0  0  0
  141.7350   79.0600  223.2990 C   0  0  0  0  0  0  0  0  0  0  0  0
  142.3060   78.6910  222.0520 N   0  0  0  0  0  0  0  0  0  0  0  0
  141.6480   79.2050  220.8760 C   0  0  0  0  0  0  0  0  0  0  0  0
  140.3580   74.2560  221.7030 C   0  0  0  0  0  0  0  0  0  0  0  0
  141.3110   73.7580  220.8940 N   0  0  0  0  0  0  0  0  0  0  0  0
  141.8520   72.5370  221.0670 C   0  0  0  0  0  0  0  0  0  0  0  0
  142.8580   72.0910  220.1590 N   0  0  0  0  0  0  0  0  0  0  0  0
  144.0030   72.8990  219.8750 C   0  0  0  0  0  0  0  0  0  0  0  0
  145.3050   72.1620  219.7820 C   0  0  0  0  0  0  0  0  0  0  0  0
  145.1730   70.7790  219.3220 C   0  0  0  0  0  0  0  0  0  0  0  0
  146.3240   70.0890  218.9920 C   0  0  0  0  0  0  0  0  0  0  0  0
  146.3170   68.7820  218.5470 C   0  0  0  0  0  0  0  0  0  0  0  0
  145.0840   68.1720  218.4410 C   0  0  0  0  0  0  0  0  0  0  0  0
  143.9430   68.8470  218.7640 C   0  0  0  0  0  0  0  0  0  0  0  0
  143.9690   70.1510  219.2060 C   0  0  0  0  0  0  0  0  0  0  0  0
  142.6860   70.7950  219.5320 C   0  0  0  0  0  0  0  0  0  0  0  0
  141.4320   71.7710  222.0880 N   0  0  0  0  0  0  0  0  0  0  0  0
  140.4710   72.2410  222.9260 C   0  0  0  0  0  0  0  0  0  0  0  0
  139.9960   71.4460  224.0310 N   0  0  0  0  0  0  0  0  0  0  0  0
  138.8020   70.6110  223.8400 C   0  0  0  0  0  0  0  0  0  0  0  0
  139.2070   69.1990  224.2250 C   0  0  0  0  0  0  0  0  0  0  0  0
  139.6090   69.2730  225.6660 C   0  0  0  0  0  0  0  0  0  0  0  0
  139.2660   68.2380  226.5130 C   0  0  0  0  0  0  0  0  0  0  0  0
  139.6340   68.2980  227.8500 C   0  0  0  0  0  0  0  0  0  0  0  0
  140.3450   69.3860  228.3510 C   0  0  0  0  0  0  0  0  0  0  0  0
  140.6740   70.4100  227.4600 C   0  0  0  0  0  0  0  0  0  0  0  0
  140.3120   70.3610  226.1260 C   0  0  0  0  0  0  0  0  0  0  0  0
  140.7120   71.5060  225.2690 C   0  0  0  0  0  0  0  0  0  0  0  0
  139.9540   73.4730  222.7160 N   0  0  0  0  0  0  0  0  0  0  0  0
  141.0500   75.9250  219.8420 H   0  0  0  0  0  0  0  0  0  0  0  0
  140.3692   77.8683  219.0330 H   0  0  0  0  0  0  0  0  0  0  0  0
  138.7781   77.6386  220.0056 H   0  0  0  0  0  0  0  0  0  0  0  0
  139.6397   79.6781  220.3471 H   0  0  0  0  0  0  0  0  0  0  0  0
  138.5334   79.1934  222.1708 H   0  0  0  0  0  0  0  0  0  0  0  0
  139.5557   77.8122  222.6164 H   0  0  0  0  0  0  0  0  0  0  0  0
  140.6069   80.7336  222.5723 H   0  0  0  0  0  0  0  0  0  0  0  0
  139.9414   80.0079  224.0425 H   0  0  0  0  0  0  0  0  0  0  0  0
  142.4315   79.7217  223.8348 H   0  0  0  0  0  0  0  0  0  0  0  0
  141.5481   78.1504  223.8886 H   0  0  0  0  0  0  0  0  0  0  0  0
  143.2940   79.0240  222.0120 H   0  0  0  0  0  0  0  0  0  0  0  0
  141.7546   80.2997  220.8596 H   0  0  0  0  0  0  0  0  0  0  0  0
  142.1199   78.7453  219.9951 H   0  0  0  0  0  0  0  0  0  0  0  0
  143.8307   73.4054  218.9138 H   0  0  0  0  0  0  0  0  0  0  0  0
  144.1057   73.5878  220.7265 H   0  0  0  0  0  0  0  0  0  0  0  0
  145.9578   72.6999  219.0788 H   0  0  0  0  0  0  0  0  0  0  0  0
  145.7218   72.1213  220.7992 H   0  0  0  0  0  0  0  0  0  0  0  0
  147.2907   70.6050  219.0883 H   0  0  0  0  0  0  0  0  0  0  0  0
  147.2471   68.2539  218.2900 H   0  0  0  0  0  0  0  0  0  0  0  0
  145.0201   67.1306  218.0924 H   0  0  0  0  0  0  0  0  0  0  0  0
  142.9743   68.3347  218.6686 H   0  0  0  0  0  0  0  0  0  0  0  0
  142.1112   70.9261  218.6033 H   0  0  0  0  0  0  0  0  0  0  0  0
  142.1585   70.1458  220.2464 H   0  0  0  0  0  0  0  0  0  0  0  0
  137.9836   70.9624  224.4855 H   0  0  0  0  0  0  0  0  0  0  0  0
  138.4431   70.6561  222.8012 H   0  0  0  0  0  0  0  0  0  0  0  0
  138.3601   68.5086  224.0978 H   0  0  0  0  0  0  0  0  0  0  0  0
  140.0257   68.8242  223.5932 H   0  0  0  0  0  0  0  0  0  0  0  0
  138.7052   67.3722  226.1310 H   0  0  0  0  0  0  0  0  0  0  0  0
  139.3599   67.4734  228.5245 H   0  0  0  0  0  0  0  0  0  0  0  0
  140.6369   69.4369  229.4103 H   0  0  0  0  0  0  0  0  0  0  0  0
  141.2368   71.2799  227.8296 H   0  0  0  0  0  0  0  0  0  0  0  0
  140.4769   72.4493  225.7836 H   0  0  0  0  0  0  0  0  0  0  0  0
  141.7929   71.4569  225.0711 H   0  0  0  0  0  0  0  0  0  0  0  0
  1  2  2  0
  2  3  1  0
  3  4  1  0
  4  5  1  0
  5  6  1  0
  6  7  1  0
  7  8  1  0
  8  9  1  0
  9 10  1  0
  2 11  1  0
 11 12  2  0
 12 13  1  0
 13 14  1  0
 14 15  1  0
 15 16  1  0
 16 17  1  0
 17 18  2  0
 18 19  1  0
 19 20  2  0
 20 21  1  0
 21 22  2  0
 22 23  1  0
 13 24  2  0
 24 25  1  0
 25 26  1  0
 26 27  1  0
 27 28  1  0
 28 29  1  0
 29 30  2  0
 30 31  1  0
 31 32  2  0
 32 33  1  0
 33 34  2  0
 34 35  1  0
 25 36  2  0
 10  5  1  0
 36 11  1  0
 23 14  1  0
 35 26  1  0
 22 17  1  0
 34 29  1  0
  3 37  1  0
  4 38  1  0
  4 39  1  0
  5 40  1  6
  6 41  1  0
  6 42  1  0
  7 43  1  0
  7 44  1  0
  8 45  1  0
  8 46  1  0
  9 47  1  0
 10 48  1  0
 10 49  1  0
 15 50  1  0
 15 51  1  0
 16 52  1  0
 16 53  1  0
 18 54  1  0
 19 55  1  0
 20 56  1  0
 21 57  1  0
 23 58  1  0
 23 59  1  0
 27 60  1  0
 27 61  1  0
 28 62  1  0
 28 63  1  0
 30 64  1  0
 31 65  1  0
 32 66  1  0
 33 67  1  0
 35 68  1  0
 35 69  1  0
M  END
