
     RDKit          3D

 74 80  0  0  0  0  0  0  0  0999 V2000
  132.2910   74.5400  227.6490 C   0  0  0  0  0  0  0  0  0  0  0  0
  132.8790   75.7080  227.1970 C   0  0  0  0  0  0  0  0  0  0  0  0
  133.7910   75.6710  226.1760 C   0  0  0  0  0  0  0  0  0  0  0  0
  134.1690   74.4780  225.5500 C   0  0  0  0  0  0  0  0  0  0  0  0
  135.1460   74.5130  224.4450 C   0  0  0  0  0  0  0  0  0  0  0  0
  134.8680   75.6180  223.5820 N   0  0  0  0  0  0  0  0  0  0  0  0
  135.9760   76.5110  223.5060 C   0  0  0  0  0  0  0  0  0  0  0  0
  136.9980   75.7100  222.6890 C   0  0  0  0  0  0  0  0  0  0  0  0
  136.1140   74.9820  221.7020 C   0  0  1  0  0  0  0  0  0  0  0  0
  136.4290   73.5670  221.6050 N   0  0  0  0  0  0  0  0  0  0  0  0
  137.7890   73.1320  221.7420 C   0  0  0  0  0  0  0  0  0  0  0  0
  138.7530   73.5560  220.9130 N   0  0  0  0  0  0  0  0  0  0  0  0
  140.0170   73.1420  221.0530 C   0  0  0  0  0  0  0  0  0  0  0  0
  141.0510   73.5930  220.1700 N   0  0  0  0  0  0  0  0  0  0  0  0
  141.1590   74.9480  219.7050 C   0  0  0  0  0  0  0  0  0  0  0  0
  142.5590   75.4900  219.7200 C   0  0  0  0  0  0  0  0  0  0  0  0
  143.5820   74.5080  220.1010 C   0  0  0  0  0  0  0  0  0  0  0  0
  144.8280   74.9780  220.4710 C   0  0  0  0  0  0  0  0  0  0  0  0
  145.8180   74.0720  220.8380 C   0  0  0  0  0  0  0  0  0  0  0  0
  145.5890   72.7020  220.8420 C   0  0  0  0  0  0  0  0  0  0  0  0
  144.3450   72.2470  220.4730 C   0  0  0  0  0  0  0  0  0  0  0  0
  143.3740   73.1570  220.1120 C   0  0  0  0  0  0  0  0  0  0  0  0
  142.0440   72.6370  219.7190 C   0  0  0  0  0  0  0  0  0  0  0  0
  140.3270   72.2810  222.0470 N   0  0  0  0  0  0  0  0  0  0  0  0
  139.3750   71.8310  222.9070 C   0  0  0  0  0  0  0  0  0  0  0  0
  139.6740   70.9240  223.9630 N   0  0  0  0  0  0  0  0  0  0  0  0
  138.7940   69.8010  224.2100 C   0  0  0  0  0  0  0  0  0  0  0  0
  139.5040   68.8890  225.1920 C   0  0  0  0  0  0  0  0  0  0  0  0
  139.7500   69.7460  226.4000 C   0  0  0  0  0  0  0  0  0  0  0  0
  139.3040   69.3910  227.6560 C   0  0  0  0  0  0  0  0  0  0  0  0
  139.6010   70.2780  228.6870 C   0  0  0  0  0  0  0  0  0  0  0  0
  140.2990   71.4400  228.4630 C   0  0  0  0  0  0  0  0  0  0  0  0
  140.7420   71.7860  227.2040 C   0  0  0  0  0  0  0  0  0  0  0  0
  140.4510   70.9120  226.1770 C   0  0  0  0  0  0  0  0  0  0  0  0
  140.8720   71.1670  224.7630 C   0  0  0  0  0  0  0  0  0  0  0  0
  138.1180   72.2760  222.7250 N   0  0  0  0  0  0  0  0  0  0  0  0
  134.7030   75.2060  222.1940 C   0  0  0  0  0  0  0  0  0  0  0  0
  133.5630   73.3380  226.0290 C   0  0  0  0  0  0  0  0  0  0  0  0
  132.6490   73.3550  227.0470 C   0  0  0  0  0  0  0  0  0  0  0  0
  131.5568   74.5579  228.4679 H   0  0  0  0  0  0  0  0  0  0  0  0
  132.6130   76.6700  227.6595 H   0  0  0  0  0  0  0  0  0  0  0  0
  134.2432   76.6141  225.8354 H   0  0  0  0  0  0  0  0  0  0  0  0
  136.1598   74.6195  224.8583 H   0  0  0  0  0  0  0  0  0  0  0  0
  135.0742   73.5783  223.8696 H   0  0  0  0  0  0  0  0  0  0  0  0
  135.6998   77.4432  222.9916 H   0  0  0  0  0  0  0  0  0  0  0  0
  136.3530   76.8243  224.4907 H   0  0  0  0  0  0  0  0  0  0  0  0
  137.7074   76.3750  222.1747 H   0  0  0  0  0  0  0  0  0  0  0  0
  137.6254   75.0421  223.2976 H   0  0  0  0  0  0  0  0  0  0  0  0
  136.2619   75.3669  220.6822 H   0  0  0  0  0  0  0  0  0  0  0  0
  135.7030   72.8350  221.4370 H   0  0  0  0  0  0  0  0  0  0  0  0
  140.7831   74.9900  218.6721 H   0  0  0  0  0  0  0  0  0  0  0  0
  140.5703   75.5691  220.3962 H   0  0  0  0  0  0  0  0  0  0  0  0
  142.7958   75.8610  218.7119 H   0  0  0  0  0  0  0  0  0  0  0  0
  142.5825   76.2821  220.4829 H   0  0  0  0  0  0  0  0  0  0  0  0
  145.0350   76.0583  220.4752 H   0  0  0  0  0  0  0  0  0  0  0  0
  146.8079   74.4505  221.1327 H   0  0  0  0  0  0  0  0  0  0  0  0
  146.3830   71.9986  221.1331 H   0  0  0  0  0  0  0  0  0  0  0  0
  144.1268   71.1689  220.4659 H   0  0  0  0  0  0  0  0  0  0  0  0
  141.9914   72.5285  218.6256 H   0  0  0  0  0  0  0  0  0  0  0  0
  141.8650   71.6503  220.1711 H   0  0  0  0  0  0  0  0  0  0  0  0
  137.8444   70.1526  224.6397 H   0  0  0  0  0  0  0  0  0  0  0  0
  138.5649   69.2687  223.2750 H   0  0  0  0  0  0  0  0  0  0  0  0
  138.8697   68.0281  225.4500 H   0  0  0  0  0  0  0  0  0  0  0  0
  140.4360   68.4769  224.7777 H   0  0  0  0  0  0  0  0  0  0  0  0
  138.7455   68.4600  227.8329 H   0  0  0  0  0  0  0  0  0  0  0  0
  139.2679   70.0422  229.7085 H   0  0  0  0  0  0  0  0  0  0  0  0
  140.5096   72.1108  229.3089 H   0  0  0  0  0  0  0  0  0  0  0  0
  141.3017   72.7162  227.0266 H   0  0  0  0  0  0  0  0  0  0  0  0
  141.2134   72.2057  224.6425 H   0  0  0  0  0  0  0  0  0  0  0  0
  141.7102   70.5230  224.4586 H   0  0  0  0  0  0  0  0  0  0  0  0
  134.2069   75.9949  221.6095 H   0  0  0  0  0  0  0  0  0  0  0  0
  134.0749   74.3086  222.0933 H   0  0  0  0  0  0  0  0  0  0  0  0
  133.8251   72.3717  225.5734 H   0  0  0  0  0  0  0  0  0  0  0  0
  132.1958   72.4124  227.3877 H   0  0  0  0  0  0  0  0  0  0  0  0
  1  2  2  0
  2  3  1  0
  3  4  2  0
  4  5  1  0
  5  6  1  0
  6  7  1  0
  7  8  1  0
  8  9  1  0
  9 10  1  0
 10 11  1  0
 11 12  2  0
 12 13  1  0
 13 14  1  0
 14 15  1  0
 15 16  1  0
 16 17  1  0
 17 18  2  0
 18 19  1  0
 19 20  2  0
 20 21  1  0
 21 22  2  0
 22 23  1  0
 13 24  2  0
 24 25  1  0
 25 26  1  0
 26 27  1  0
 27 28  1  0
 28 29  1  0
 29 30  2  0
 30 31  1  0
 31 32  2  0
 32 33  1  0
 33 34  2  0
 34 35  1  0
 25 36  2  0
  9 37  1  0
  4 38  1  0
 38 39  2  0
 39  1  1  0
 37  6  1  0
 36 11  1  0
 23 14  1  0
 35 26  1  0
 22 17  1  0
 34 29  1  0
  1 40  1  0
  2 41  1  0
  3 42  1  0
  5 43  1  0
  5 44  1  0
  7 45  1  0
  7 46  1  0
  8 47  1  0
  8 48  1  0
  9 49  1  6
 10 50  1  0
 15 51  1  0
 15 52  1  0
 16 53  1  0
 16 54  1  0
 18 55  1  0
 19 56  1  0
 20 57  1  0
 21 58  1  0
 23 59  1  0
 23 60  1  0
 27 61  1  0
 27 62  1  0
 28 63  1  0
 28 64  1  0
 30 65  1  0
 31 66  1  0
 32 67  1  0
 33 68  1  0
 35 69  1  0
 35 70  1  0
 37 71  1  0
 37 72  1  0
 38 73  1  0
 39 74  1  0
M  END
>  <smiles>  (1) 
c1ccc(CN2CC[C@@H](Nc3nc(N4CCc5ccccc5C4)nc(N4CCc5ccccc5C4)n3)C2)cc1

>  <score_type>  (1) 
oracle

>  <origin>  (1) 
autodockgpu

>  <m_score__min__energy>  (1) 
-11.06

>  <m_primary>  (1) 
energy

>  <rmsd>  (1) 
8.843133753340622

>  <m_score__min__rmsd>  (1) 
8.843133753340622

>  <meeko>  (1) 
{"free_energy": -9.95, "intermolecular_energy": -11.74, "internal_energy": -1.64, "cluster_size": 1, "cluster_id": 4, "rank_in_cluster": 1}

>  <energy>  (1) 
-11.06

>  <cluster_rmsd>  (1) 
0.0

>  <cluster>  (1) 
1

$$$$

     RDKit          3D

 74 80  0  0  0  0  0  0  0  0999 V2000
  141.0340   69.2890  227.7540 C   0  0  0  0  0  0  0  0  0  0  0  0
  140.2180   68.3930  227.0870 C   0  0  0  0  0  0  0  0  0  0  0  0
  139.4490   68.8130  226.0350 C   0  0  0  0  0  0  0  0  0  0  0  0
  139.4480   70.1390  225.5870 C   0  0  0  0  0  0  0  0  0  0  0  0
  138.6080   70.5190  224.4350 C   0  0  0  0  0  0  0  0  0  0  0  0
  139.1010   69.8990  223.2440 N   0  0  0  0  0  0  0  0  0  0  0  0
  138.0380   69.5400  222.3660 C   0  0  0  0  0  0  0  0  0  0  0  0
  137.5550   70.9000  221.8480 C   0  0  0  0  0  0  0  0  0  0  0  0
  138.8480   71.6740  221.7350 C   0  0  1  0  0  0  0  0  0  0  0  0
  138.7630   72.9970  222.3280 N   0  0  0  0  0  0  0  0  0  0  0  0
  139.7310   73.9960  221.9770 C   0  0  0  0  0  0  0  0  0  0  0  0
  140.7740   73.7200  221.1830 N   0  0  0  0  0  0  0  0  0  0  0  0
  141.6690   74.6610  220.8630 C   0  0  0  0  0  0  0  0  0  0  0  0
  142.7850   74.3700  220.0140 N   0  0  0  0  0  0  0  0  0  0  0  0
  144.1010   74.9060  220.2260 C   0  0  0  0  0  0  0  0  0  0  0  0
  145.2060   73.9060  220.0440 C   0  0  0  0  0  0  0  0  0  0  0  0
  144.7560   72.5890  219.5760 C   0  0  0  0  0  0  0  0  0  0  0  0
  145.6260   71.5230  219.7030 C   0  0  0  0  0  0  0  0  0  0  0  0
  145.2290   70.2620  219.2690 C   0  0  0  0  0  0  0  0  0  0  0  0
  143.9770   70.0440  218.7090 C   0  0  0  0  0  0  0  0  0  0  0  0
  143.1200   71.1120  218.5890 C   0  0  0  0  0  0  0  0  0  0  0  0
  143.5290   72.3550  219.0230 C   0  0  0  0  0  0  0  0  0  0  0  0
  142.5830   73.4880  218.8810 C   0  0  0  0  0  0  0  0  0  0  0  0
  141.5180   75.9120  221.3510 N   0  0  0  0  0  0  0  0  0  0  0  0
  140.4720   76.2280  222.1580 C   0  0  0  0  0  0  0  0  0  0  0  0
  140.2890   77.5380  222.6850 N   0  0  0  0  0  0  0  0  0  0  0  0
  138.9520   78.0790  222.8070 C   0  0  0  0  0  0  0  0  0  0  0  0
  139.0590   79.3480  223.6320 C   0  0  0  0  0  0  0  0  0  0  0  0
  140.0020   80.2260  222.8600 C   0  0  0  0  0  0  0  0  0  0  0  0
  139.6550   81.4970  222.4540 C   0  0  0  0  0  0  0  0  0  0  0  0
  140.6250   82.2010  221.7460 C   0  0  0  0  0  0  0  0  0  0  0  0
  141.8560   81.6590  221.4700 C   0  0  0  0  0  0  0  0  0  0  0  0
  142.1950   80.3870  221.8820 C   0  0  0  0  0  0  0  0  0  0  0  0
  141.2390   79.6830  222.5830 C   0  0  0  0  0  0  0  0  0  0  0  0
  141.4750   78.2920  223.0870 C   0  0  0  0  0  0  0  0  0  0  0  0
  139.5990   75.2470  222.4510 N   0  0  0  0  0  0  0  0  0  0  0  0
  139.8830   70.8190  222.4290 C   0  0  0  0  0  0  0  0  0  0  0  0
  140.2730   70.9990  226.2760 C   0  0  0  0  0  0  0  0  0  0  0  0
  141.0490   70.5990  227.3300 C   0  0  0  0  0  0  0  0  0  0  0  0
  141.6550   68.9633  228.6015 H   0  0  0  0  0  0  0  0  0  0  0  0
  140.1869   67.3398  227.4028 H   0  0  0  0  0  0  0  0  0  0  0  0
  138.8078   68.0807  225.5226 H   0  0  0  0  0  0  0  0  0  0  0  0
  137.5735   70.1913  224.6148 H   0  0  0  0  0  0  0  0  0  0  0  0
  138.6373   71.6117  224.3118 H   0  0  0  0  0  0  0  0  0  0  0  0
  138.4004   68.9077  221.5421 H   0  0  0  0  0  0  0  0  0  0  0  0
  137.2467   68.9532  222.8555 H   0  0  0  0  0  0  0  0  0  0  0  0
  137.0616   70.8022  220.8698 H   0  0  0  0  0  0  0  0  0  0  0  0
  136.8074   71.3801  222.4965 H   0  0  0  0  0  0  0  0  0  0  0  0
  139.1043   71.8606  220.6817 H   0  0  0  0  0  0  0  0  0  0  0  0
  138.0190   73.2670  223.0110 H   0  0  0  0  0  0  0  0  0  0  0  0
  144.2582   75.7284  219.5126 H   0  0  0  0  0  0  0  0  0  0  0  0
  144.1433   75.2389  221.2736 H   0  0  0  0  0  0  0  0  0  0  0  0
  145.9177   74.3087  219.3083 H   0  0  0  0  0  0  0  0  0  0  0  0
  145.6582   73.7514  221.0348 H   0  0  0  0  0  0  0  0  0  0  0  0
  146.6233   71.6700  220.1432 H   0  0  0  0  0  0  0  0  0  0  0  0
  145.9246   69.4161  219.3721 H   0  0  0  0  0  0  0  0  0  0  0  0
  143.6784   69.0411  218.3697 H   0  0  0  0  0  0  0  0  0  0  0  0
  142.1197   70.9765  218.1519 H   0  0  0  0  0  0  0  0  0  0  0  0
  142.7826   74.0286  217.9441 H   0  0  0  0  0  0  0  0  0  0  0  0
  141.5451   73.1246  218.8535 H   0  0  0  0  0  0  0  0  0  0  0  0
  138.5456   78.3093  221.8111 H   0  0  0  0  0  0  0  0  0  0  0  0
  138.2783   77.3545  223.2879 H   0  0  0  0  0  0  0  0  0  0  0  0
  138.0751   79.8295  223.7326 H   0  0  0  0  0  0  0  0  0  0  0  0
  139.4156   79.1514  224.6539 H   0  0  0  0  0  0  0  0  0  0  0  0
  138.6686   81.9298  222.6767 H   0  0  0  0  0  0  0  0  0  0  0  0
  140.3991   83.2197  221.3980 H   0  0  0  0  0  0  0  0  0  0  0  0
  142.5899   82.2538  220.9065 H   0  0  0  0  0  0  0  0  0  0  0  0
  143.1821   79.9545  221.6616 H   0  0  0  0  0  0  0  0  0  0  0  0
  142.3791   77.8633  222.6299 H   0  0  0  0  0  0  0  0  0  0  0  0
  141.6309   78.2677  224.1756 H   0  0  0  0  0  0  0  0  0  0  0  0
  140.4905   70.2695  221.6948 H   0  0  0  0  0  0  0  0  0  0  0  0
  140.5885   71.4148  223.0267 H   0  0  0  0  0  0  0  0  0  0  0  0
  140.3102   72.0537  225.9659 H   0  0  0  0  0  0  0  0  0  0  0  0
  141.6905   71.3306  227.8431 H   0  0  0  0  0  0  0  0  0  0  0  0
  1  2  2  0
  2  3  1  0
  3  4  2  0
  4  5  1  0
  5  6  1  0
  6  7  1  0
  7  8  1  0
  8  9  1  0
  9 10  1  0
 10 11  1  0
 11 12  2  0
 12 13  1  0
 13 14  1  0
 14 15  1  0
 15 16  1  0
 16 17  1  0
 17 18  2  0
 18 19  1  0
 19 20  2  0
 20 21  1  0
 21 22  2  0
 22 23  1  0
 13 24  2  0
 24 25  1  0
 25 26  1  0
 26 27  1  0
 27 28  1  0
 28 29  1  0
 29 30  2  0
 30 31  1  0
 31 32  2  0
 32 33  1  0
 33 34  2  0
 34 35  1  0
 25 36  2  0
  9 37  1  0
  4 38  1  0
 38 39  2  0
 39  1  1  0
 37  6  1  0
 36 11  1  0
 23 14  1  0
 35 26  1  0
 22 17  1  0
 34 29  1  0
  1 40  1  0
  2 41  1  0
  3 42  1  0
  5 43  1  0
  5 44  1  0
  7 45  1  0
  7 46  1  0
  8 47  1  0
  8 48  1  0
  9 49  1  6
 10 50  1  0
 15 51  1  0
 15 52  1  0
 16 53  1  0
 16 54  1  0
 18 55  1  0
 19 56  1  0
 20 57  1  0
 21 58  1  0
 23 59  1  0
 23 60  1  0
 27 61  1  0
 27 62  1  0
 28 63  1  0
 28 64  1  0
 30 65  1  0
 31 66  1  0
 32 67  1  0
 33 68  1  0
 35 69  1  0
 35 70  1  0
 37 71  1  0
 37 72  1  0
 38 73  1  0
 39 74  1  0
M  END
>  <smiles>  (2) 
c1ccc(CN2CC[C@@H](Nc3nc(N4CCc5ccccc5C4)nc(N4CCc5ccccc5C4)n3)C2)cc1

>  <score_type>  (2) 
oracle

>  <origin>  (2) 
autodockgpu

>  <m_score__min__energy>  (2) 
-11.06

>  <m_primary>  (2) 
energy

>  <rmsd>  (2) 
10.691593844306347

>  <m_score__min__rmsd>  (2) 
10.691593844306347

>  <meeko>  (2) 
{"free_energy": -10.43, "intermolecular_energy": -12.22, "internal_energy": -1.57, "cluster_size": 14, "cluster_id": 2, "rank_in_cluster": 11}

>  <energy>  (2) 
-11.02

>  <cluster_rmsd>  (2) 
0.21

>  <cluster>  (2) 
1

$$$$

     RDKit          3D

 74 80  0  0  0  0  0  0  0  0999 V2000
  134.2490   70.3280  226.4620 C   0  0  0  0  0  0  0  0  0  0  0  0
  135.0670   70.1280  225.3650 C   0  0  0  0  0  0  0  0  0  0  0  0
  135.4350   71.1860  224.5770 C   0  0  0  0  0  0  0  0  0  0  0  0
  135.0120   72.4960  224.8340 C   0  0  0  0  0  0  0  0  0  0  0  0
  135.4610   73.5920  223.9540 C   0  0  0  0  0  0  0  0  0  0  0  0
  134.4750   74.6270  223.9210 N   0  0  0  0  0  0  0  0  0  0  0  0
  134.9970   75.8580  224.4120 C   0  0  0  0  0  0  0  0  0  0  0  0
  135.9560   76.2880  223.2940 C   0  0  0  0  0  0  0  0  0  0  0  0
  135.2210   75.8310  222.0540 C   0  0  1  0  0  0  0  0  0  0  0  0
  136.0750   75.1000  221.1340 N   0  0  0  0  0  0  0  0  0  0  0  0
  137.4310   74.8090  221.5030 C   0  0  0  0  0  0  0  0  0  0  0  0
  138.4060   75.7210  221.3840 N   0  0  0  0  0  0  0  0  0  0  0  0
  139.6660   75.4370  221.7320 C   0  0  0  0  0  0  0  0  0  0  0  0
  140.7110   76.4080  221.6060 N   0  0  0  0  0  0  0  0  0  0  0  0
  141.4120   76.6610  220.3790 C   0  0  0  0  0  0  0  0  0  0  0  0
  141.6290   78.1180  220.0880 C   0  0  0  0  0  0  0  0  0  0  0  0
  141.1860   79.0200  221.1580 C   0  0  0  0  0  0  0  0  0  0  0  0
  141.0280   80.3590  220.8560 C   0  0  0  0  0  0  0  0  0  0  0  0
  140.6090   81.2380  221.8490 C   0  0  0  0  0  0  0  0  0  0  0  0
  140.3440   80.8060  223.1420 C   0  0  0  0  0  0  0  0  0  0  0  0
  140.5040   79.4710  223.4310 C   0  0  0  0  0  0  0  0  0  0  0  0
  140.9210   78.6130  222.4350 C   0  0  0  0  0  0  0  0  0  0  0  0
  141.0840   77.1800  222.7760 C   0  0  0  0  0  0  0  0  0  0  0  0
  139.9590   74.2080  222.2120 N   0  0  0  0  0  0  0  0  0  0  0  0
  138.9950   73.2590  222.3470 C   0  0  0  0  0  0  0  0  0  0  0  0
  139.2770   71.9580  222.8500 N   0  0  0  0  0  0  0  0  0  0  0  0
  138.2860   70.9110  222.7190 C   0  0  0  0  0  0  0  0  0  0  0  0
  138.9660   69.6070  223.0920 C   0  0  0  0  0  0  0  0  0  0  0  0
  139.4450   69.8160  224.4990 C   0  0  0  0  0  0  0  0  0  0  0  0
  139.0870   68.9730  225.5310 C   0  0  0  0  0  0  0  0  0  0  0  0
  139.6030   69.2840  226.7850 C   0  0  0  0  0  0  0  0  0  0  0  0
  140.4220   70.3680  226.9820 C   0  0  0  0  0  0  0  0  0  0  0  0
  140.7770   71.2050  225.9450 C   0  0  0  0  0  0  0  0  0  0  0  0
  140.2690   70.9040  224.6990 C   0  0  0  0  0  0  0  0  0  0  0  0
  140.5730   71.7300  223.4870 C   0  0  0  0  0  0  0  0  0  0  0  0
  137.7440   73.5940  221.9830 N   0  0  0  0  0  0  0  0  0  0  0  0
  134.0850   74.9730  222.5600 C   0  0  0  0  0  0  0  0  0  0  0  0
  134.1990   72.6530  225.9330 C   0  0  0  0  0  0  0  0  0  0  0  0
  133.8210   71.6090  226.7330 C   0  0  0  0  0  0  0  0  0  0  0  0
  133.9478   69.4855  227.1019 H   0  0  0  0  0  0  0  0  0  0  0  0
  135.4234   69.1155  225.1245 H   0  0  0  0  0  0  0  0  0  0  0  0
  136.0866   70.9999  223.7105 H   0  0  0  0  0  0  0  0  0  0  0  0
  136.4072   74.0022  224.3367 H   0  0  0  0  0  0  0  0  0  0  0  0
  135.6087   73.2010  222.9365 H   0  0  0  0  0  0  0  0  0  0  0  0
  134.1968   76.5992  224.5550 H   0  0  0  0  0  0  0  0  0  0  0  0
  135.4849   75.7646  225.3935 H   0  0  0  0  0  0  0  0  0  0  0  0
  136.1037   77.3780  223.2918 H   0  0  0  0  0  0  0  0  0  0  0  0
  136.9669   75.8652  223.3907 H   0  0  0  0  0  0  0  0  0  0  0  0
  134.8607   76.6911  221.4706 H   0  0  0  0  0  0  0  0  0  0  0  0
  135.7490   74.7680  220.1990 H   0  0  0  0  0  0  0  0  0  0  0  0
  142.3945   76.1694  220.4344 H   0  0  0  0  0  0  0  0  0  0  0  0
  140.7848   76.2646  219.5669 H   0  0  0  0  0  0  0  0  0  0  0  0
  142.7045   78.2801  219.9240 H   0  0  0  0  0  0  0  0  0  0  0  0
  141.0209   78.3565  219.2029 H   0  0  0  0  0  0  0  0  0  0  0  0
  141.2318   80.7264  219.8394 H   0  0  0  0  0  0  0  0  0  0  0  0
  140.4842   82.3031  221.6039 H   0  0  0  0  0  0  0  0  0  0  0  0
  140.0141   81.5144  223.9162 H   0  0  0  0  0  0  0  0  0  0  0  0
  140.3019   79.0923  224.4438 H   0  0  0  0  0  0  0  0  0  0  0  0
  142.1310   76.9744  223.0435 H   0  0  0  0  0  0  0  0  0  0  0  0
  140.4512   76.9118  223.6349 H   0  0  0  0  0  0  0  0  0  0  0  0
  137.4411   71.1037  223.3965 H   0  0  0  0  0  0  0  0  0  0  0  0
  137.8929   70.8690  221.6925 H   0  0  0  0  0  0  0  0  0  0  0  0
  138.2532   68.7705  223.0451 H   0  0  0  0  0  0  0  0  0  0  0  0
  139.7878   69.3550  222.4057 H   0  0  0  0  0  0  0  0  0  0  0  0
  138.4310   68.1046  225.3713 H   0  0  0  0  0  0  0  0  0  0  0  0
  139.3477   68.6437  227.6422 H   0  0  0  0  0  0  0  0  0  0  0  0
  140.8047   70.5742  227.9924 H   0  0  0  0  0  0  0  0  0  0  0  0
  141.4347   72.0722  226.1045 H   0  0  0  0  0  0  0  0  0  0  0  0
  141.0351   72.6854  223.7762 H   0  0  0  0  0  0  0  0  0  0  0  0
  141.2825   71.2285  222.8124 H   0  0  0  0  0  0  0  0  0  0  0  0
  133.1399   75.5358  222.5564 H   0  0  0  0  0  0  0  0  0  0  0  0
  133.9161   74.0856  221.9323 H   0  0  0  0  0  0  0  0  0  0  0  0
  133.8370   73.6621  226.1794 H   0  0  0  0  0  0  0  0  0  0  0  0
  133.1698   71.7944  227.5999 H   0  0  0  0  0  0  0  0  0  0  0  0
  1  2  2  0
  2  3  1  0
  3  4  2  0
  4  5  1  0
  5  6  1  0
  6  7  1  0
  7  8  1  0
  8  9  1  0
  9 10  1  0
 10 11  1  0
 11 12  2  0
 12 13  1  0
 13 14  1  0
 14 15  1  0
 15 16  1  0
 16 17  1  0
 17 18  2  0
 18 19  1  0
 19 20  2  0
 20 21  1  0
 21 22  2  0
 22 23  1  0
 13 24  2  0
 24 25  1  0
 25 26  1  0
 26 27  1  0
 27 28  1  0
 28 29  1  0
 29 30  2  0
 30 31  1  0
 31 32  2  0
 32 33  1  0
 33 34  2  0
 34 35  1  0
 25 36  2  0
  9 37  1  0
  4 38  1  0
 38 39  2  0
 39  1  1  0
 37  6  1  0
 36 11  1  0
 23 14  1  0
 35 26  1  0
 22 17  1  0
 34 29  1  0
  1 40  1  0
  2 41  1  0
  3 42  1  0
  5 43  1  0
  5 44  1  0
  7 45  1  0
  7 46  1  0
  8 47  1  0
  8 48  1  0
  9 49  1  6
 10 50  1  0
 15 51  1  0
 15 52  1  0
 16 53  1  0
 16 54  1  0
 18 55  1  0
 19 56  1  0
 20 57  1  0
 21 58  1  0
 23 59  1  0
 23 60  1  0
 27 61  1  0
 27 62  1  0
 28 63  1  0
 28 64  1  0
 30 65  1  0
 31 66  1  0
 32 67  1  0
 33 68  1  0
 35 69  1  0
 35 70  1  0
 37 71  1  0
 37 72  1  0
 38 73  1  0
 39 74  1  0
M  END
>  <smiles>  (3) 
c1ccc(CN2CC[C@@H](Nc3nc(N4CCc5ccccc5C4)nc(N4CCc5ccccc5C4)n3)C2)cc1

>  <score_type>  (3) 
oracle

>  <origin>  (3) 
autodockgpu

>  <m_score__min__energy>  (3) 
-11.06

>  <m_primary>  (3) 
energy

>  <rmsd>  (3) 
9.890563599693756

>  <m_score__min__rmsd>  (3) 
9.890563599693756

>  <meeko>  (3) 
{"free_energy": -9.15, "intermolecular_energy": -10.94, "internal_energy": -2.45, "cluster_size": 2, "cluster_id": 7, "rank_in_cluster": 2}

>  <energy>  (3) 
-10.92

>  <cluster_rmsd>  (3) 
1.78

>  <cluster>  (3) 
1

$$$$

     RDKit          3D

 74 80  0  0  0  0  0  0  0  0999 V2000
  142.5080   79.6280  222.7240 C   0  0  0  0  0  0  0  0  0  0  0  0
  141.8390   78.6760  223.4720 C   0  0  0  0  0  0  0  0  0  0  0  0
  140.6180   78.2110  223.0640 C   0  0  0  0  0  0  0  0  0  0  0  0
  139.9950   78.6640  221.8950 C   0  0  0  0  0  0  0  0  0  0  0  0
  138.6850   78.1080  221.5050 C   0  0  0  0  0  0  0  0  0  0  0  0
  137.8330   78.0160  222.6490 N   0  0  0  0  0  0  0  0  0  0  0  0
  136.5040   78.4270  222.3420 C   0  0  0  0  0  0  0  0  0  0  0  0
  135.9910   77.2800  221.4620 C   0  0  0  0  0  0  0  0  0  0  0  0
  136.6390   76.0740  222.1030 C   0  0  1  0  0  0  0  0  0  0  0  0
  137.2730   75.1970  221.1340 N   0  0  0  0  0  0  0  0  0  0  0  0
  138.5510   74.6170  221.4320 C   0  0  0  0  0  0  0  0  0  0  0  0
  139.6910   75.1380  220.9570 N   0  0  0  0  0  0  0  0  0  0  0  0
  140.8760   74.5880  221.2420 C   0  0  0  0  0  0  0  0  0  0  0  0
  142.0960   75.1410  220.7370 N   0  0  0  0  0  0  0  0  0  0  0  0
  143.2690   74.3570  220.4690 C   0  0  0  0  0  0  0  0  0  0  0  0
  143.9540   74.7010  219.1780 C   0  0  0  0  0  0  0  0  0  0  0  0
  143.3690   75.8490  218.4730 C   0  0  0  0  0  0  0  0  0  0  0  0
  143.6980   76.0300  217.1430 C   0  0  0  0  0  0  0  0  0  0  0  0
  143.1600   77.1080  216.4470 C   0  0  0  0  0  0  0  0  0  0  0  0
  142.2980   78.0120  217.0550 C   0  0  0  0  0  0  0  0  0  0  0  0
  141.9780   77.8210  218.3790 C   0  0  0  0  0  0  0  0  0  0  0  0
  142.5200   76.7480  219.0540 C   0  0  0  0  0  0  0  0  0  0  0  0
  142.1570   76.5670  220.4800 C   0  0  0  0  0  0  0  0  0  0  0  0
  140.9240   73.4860  222.0240 N   0  0  0  0  0  0  0  0  0  0  0  0
  139.7880   72.9310  222.5240 C   0  0  0  0  0  0  0  0  0  0  0  0
  139.8100   71.7720  223.3500 N   0  0  0  0  0  0  0  0  0  0  0  0
  138.5960   71.0050  223.5370 C   0  0  0  0  0  0  0  0  0  0  0  0
  138.9910   69.7120  224.2260 C   0  0  0  0  0  0  0  0  0  0  0  0
  139.6390   70.1450  225.5090 C   0  0  0  0  0  0  0  0  0  0  0  0
  139.1970   69.7070  226.7400 C   0  0  0  0  0  0  0  0  0  0  0  0
  139.8900   70.1880  227.8470 C   0  0  0  0  0  0  0  0  0  0  0  0
  140.9520   71.0490  227.7180 C   0  0  0  0  0  0  0  0  0  0  0  0
  141.3870   71.4810  226.4840 C   0  0  0  0  0  0  0  0  0  0  0  0
  140.7060   71.0090  225.3810 C   0  0  0  0  0  0  0  0  0  0  0  0
  141.0740   71.3990  223.9830 C   0  0  0  0  0  0  0  0  0  0  0  0
  138.6210   73.5220  222.2080 N   0  0  0  0  0  0  0  0  0  0  0  0
  137.6420   76.6380  223.0840 C   0  0  0  0  0  0  0  0  0  0  0  0
  140.6920   79.6110  221.1790 C   0  0  0  0  0  0  0  0  0  0  0  0
  141.9140   80.0870  221.5700 C   0  0  0  0  0  0  0  0  0  0  0  0
  143.4895   80.0086  223.0431 H   0  0  0  0  0  0  0  0  0  0  0  0
  142.2901   78.2911  224.3985 H   0  0  0  0  0  0  0  0  0  0  0  0
  140.1076   77.4536  223.6771 H   0  0  0  0  0  0  0  0  0  0  0  0
  138.2190   78.7647  220.7556 H   0  0  0  0  0  0  0  0  0  0  0  0
  138.8307   77.1033  221.0815 H   0  0  0  0  0  0  0  0  0  0  0  0
  135.8990   78.5275  223.2551 H   0  0  0  0  0  0  0  0  0  0  0  0
  136.4536   79.4100  221.8509 H   0  0  0  0  0  0  0  0  0  0  0  0
  134.8938   77.2097  221.4975 H   0  0  0  0  0  0  0  0  0  0  0  0
  136.2336   77.3980  220.3956 H   0  0  0  0  0  0  0  0  0  0  0  0
  135.8885   75.4399  222.5977 H   0  0  0  0  0  0  0  0  0  0  0  0
  136.8400   74.9600  220.2140 H   0  0  0  0  0  0  0  0  0  0  0  0
  143.9833   74.5118  221.2911 H   0  0  0  0  0  0  0  0  0  0  0  0
  142.9391   73.3110  220.3844 H   0  0  0  0  0  0  0  0  0  0  0  0
  145.0072   74.9309  219.3969 H   0  0  0  0  0  0  0  0  0  0  0  0
  143.8363   73.8303  218.5161 H   0  0  0  0  0  0  0  0  0  0  0  0
  144.3790   75.3282  216.6392 H   0  0  0  0  0  0  0  0  0  0  0  0
  143.4239   77.2480  215.3884 H   0  0  0  0  0  0  0  0  0  0  0  0
  141.8816   78.8598  216.4913 H   0  0  0  0  0  0  0  0  0  0  0  0
  141.2978   78.5160  218.8931 H   0  0  0  0  0  0  0  0  0  0  0  0
  142.9184   77.0323  221.1233 H   0  0  0  0  0  0  0  0  0  0  0  0
  141.1884   77.0413  220.6963 H   0  0  0  0  0  0  0  0  0  0  0  0
  137.8873   71.5660  224.1638 H   0  0  0  0  0  0  0  0  0  0  0  0
  138.1065   70.8029  222.5729 H   0  0  0  0  0  0  0  0  0  0  0  0
  138.1038   69.0941  224.4290 H   0  0  0  0  0  0  0  0  0  0  0  0
  139.6630   69.0995  223.6069 H   0  0  0  0  0  0  0  0  0  0  0  0
  138.3460   69.0174  226.8410 H   0  0  0  0  0  0  0  0  0  0  0  0
  139.5785   69.8698  228.8528 H   0  0  0  0  0  0  0  0  0  0  0  0
  141.4684   71.4027  228.6226 H   0  0  0  0  0  0  0  0  0  0  0  0
  142.2381   72.1705  226.3830 H   0  0  0  0  0  0  0  0  0  0  0  0
  141.7696   72.2512  223.9896 H   0  0  0  0  0  0  0  0  0  0  0  0
  141.5807   70.5836  223.4460 H   0  0  0  0  0  0  0  0  0  0  0  0
  137.2458   76.6042  224.1096 H   0  0  0  0  0  0  0  0  0  0  0  0
  138.5823   76.0673  223.0996 H   0  0  0  0  0  0  0  0  0  0  0  0
  140.2472   80.0022  220.2521 H   0  0  0  0  0  0  0  0  0  0  0  0
  142.4262   80.8431  220.9568 H   0  0  0  0  0  0  0  0  0  0  0  0
  1  2  2  0
  2  3  1  0
  3  4  2  0
  4  5  1  0
  5  6  1  0
  6  7  1  0
  7  8  1  0
  8  9  1  0
  9 10  1  0
 10 11  1  0
 11 12  2  0
 12 13  1  0
 13 14  1  0
 14 15  1  0
 15 16  1  0
 16 17  1  0
 17 18  2  0
 18 19  1  0
 19 20  2  0
 20 21  1  0
 21 22  2  0
 22 23  1  0
 13 24  2  0
 24 25  1  0
 25 26  1  0
 26 27  1  0
 27 28  1  0
 28 29  1  0
 29 30  2  0
 30 31  1  0
 31 32  2  0
 32 33  1  0
 33 34  2  0
 34 35  1  0
 25 36  2  0
  9 37  1  0
  4 38  1  0
 38 39  2  0
 39  1  1  0
 37  6  1  0
 36 11  1  0
 23 14  1  0
 35 26  1  0
 22 17  1  0
 34 29  1  0
  1 40  1  0
  2 41  1  0
  3 42  1  0
  5 43  1  0
  5 44  1  0
  7 45  1  0
  7 46  1  0
  8 47  1  0
  8 48  1  0
  9 49  1  1
 10 50  1  0
 15 51  1  0
 15 52  1  0
 16 53  1  0
 16 54  1  0
 18 55  1  0
 19 56  1  0
 20 57  1  0
 21 58  1  0
 23 59  1  0
 23 60  1  0
 27 61  1  0
 27 62  1  0
 28 63  1  0
 28 64  1  0
 30 65  1  0
 31 66  1  0
 32 67  1  0
 33 68  1  0
 35 69  1  0
 35 70  1  0
 37 71  1  0
 37 72  1  0
 38 73  1  0
 39 74  1  0
M  END
>  <smiles>  (4) 
c1ccc(CN2CC[C@@H](Nc3nc(N4CCc5ccccc5C4)nc(N4CCc5ccccc5C4)n3)C2)cc1

>  <score_type>  (4) 
oracle

>  <origin>  (4) 
autodockgpu

>  <m_score__min__energy>  (4) 
-11.06

>  <m_primary>  (4) 
energy

>  <rmsd>  (4) 
4.97151592790707

>  <m_score__min__rmsd>  (4) 
4.97151592790707

>  <meeko>  (4) 
{"free_energy": -9.34, "intermolecular_energy": -11.13, "internal_energy": -2.69, "cluster_size": 11, "cluster_id": 6, "rank_in_cluster": 10}

>  <energy>  (4) 
-10.73

>  <cluster_rmsd>  (4) 
1.74

>  <cluster>  (4) 
1

$$$$

     RDKit          3D

 74 80  0  0  0  0  0  0  0  0999 V2000
  141.8270   81.4380  223.7170 C   0  0  0  0  0  0  0  0  0  0  0  0
  140.5270   81.0070  223.5230 C   0  0  0  0  0  0  0  0  0  0  0  0
  140.2740   79.7010  223.1970 C   0  0  0  0  0  0  0  0  0  0  0  0
  141.2940   78.7540  223.0460 C   0  0  0  0  0  0  0  0  0  0  0  0
  140.9490   77.3600  222.7110 C   0  0  0  0  0  0  0  0  0  0  0  0
  140.1130   77.3280  221.5520 N   0  0  0  0  0  0  0  0  0  0  0  0
  140.7290   77.9840  220.4470 C   0  0  0  0  0  0  0  0  0  0  0  0
  141.8530   77.0140  220.0630 C   0  0  0  0  0  0  0  0  0  0  0  0
  141.2100   75.6690  220.3120 C   0  0  1  0  0  0  0  0  0  0  0  0
  142.0610   74.7730  221.0750 N   0  0  0  0  0  0  0  0  0  0  0  0
  141.6460   73.4180  221.2990 C   0  0  0  0  0  0  0  0  0  0  0  0
  140.8680   73.0810  222.3370 N   0  0  0  0  0  0  0  0  0  0  0  0
  140.4870   71.8140  222.5340 C   0  0  0  0  0  0  0  0  0  0  0  0
  139.6560   71.4490  223.6410 N   0  0  0  0  0  0  0  0  0  0  0  0
  138.2930   71.0190  223.4990 C   0  0  0  0  0  0  0  0  0  0  0  0
  137.9310   69.8390  224.3540 C   0  0  0  0  0  0  0  0  0  0  0  0
  138.9980   69.4030  225.2630 C   0  0  0  0  0  0  0  0  0  0  0  0
  138.8950   68.1470  225.8310 C   0  0  0  0  0  0  0  0  0  0  0  0
  139.8910   67.7050  226.6960 C   0  0  0  0  0  0  0  0  0  0  0  0
  140.9910   68.4940  227.0070 C   0  0  0  0  0  0  0  0  0  0  0  0
  141.0830   69.7410  226.4350 C   0  0  0  0  0  0  0  0  0  0  0  0
  140.0870   70.1650  225.5800 C   0  0  0  0  0  0  0  0  0  0  0  0
  140.2140   71.5130  224.9780 C   0  0  0  0  0  0  0  0  0  0  0  0
  140.8950   70.8570  221.6700 N   0  0  0  0  0  0  0  0  0  0  0  0
  141.6830   71.1640  220.6060 C   0  0  0  0  0  0  0  0  0  0  0  0
  142.1260   70.1760  219.6820 N   0  0  0  0  0  0  0  0  0  0  0  0
  141.3260   68.9890  219.4670 C   0  0  0  0  0  0  0  0  0  0  0  0
  141.9050   68.2770  218.2580 C   0  0  0  0  0  0  0  0  0  0  0  0
  143.3300   67.9890  218.6310 C   0  0  0  0  0  0  0  0  0  0  0  0
  143.8530   66.7130  218.6060 C   0  0  0  0  0  0  0  0  0  0  0  0
  145.1890   66.5900  218.9750 C   0  0  0  0  0  0  0  0  0  0  0  0
  145.9420   67.6780  219.3420 C   0  0  0  0  0  0  0  0  0  0  0  0
  145.4110   68.9510  219.3630 C   0  0  0  0  0  0  0  0  0  0  0  0
  144.0870   69.0810  218.9990 C   0  0  0  0  0  0  0  0  0  0  0  0
  143.3870   70.4050  218.9790 C   0  0  0  0  0  0  0  0  0  0  0  0
  142.0400   72.4520  220.4510 N   0  0  0  0  0  0  0  0  0  0  0  0
  139.9240   75.9750  221.0450 C   0  0  0  0  0  0  0  0  0  0  0  0
  142.5730   79.2220  223.2470 C   0  0  0  0  0  0  0  0  0  0  0  0
  142.8460   80.5220  223.5740 C   0  0  0  0  0  0  0  0  0  0  0  0
  142.0415   82.4847  223.9786 H   0  0  0  0  0  0  0  0  0  0  0  0
  139.6930   81.7161  223.6310 H   0  0  0  0  0  0  0  0  0  0  0  0
  139.2310   79.3845  223.0484 H   0  0  0  0  0  0  0  0  0  0  0  0
  141.8711   76.7946  222.5107 H   0  0  0  0  0  0  0  0  0  0  0  0
  140.4105   76.9081  223.5571 H   0  0  0  0  0  0  0  0  0  0  0  0
  140.0185   78.1160  219.6177 H   0  0  0  0  0  0  0  0  0  0  0  0
  141.0882   78.9961  220.6851 H   0  0  0  0  0  0  0  0  0  0  0  0
  142.1378   77.1309  219.0070 H   0  0  0  0  0  0  0  0  0  0  0  0
  142.7843   77.1704  220.6272 H   0  0  0  0  0  0  0  0  0  0  0  0
  141.0304   75.1372  219.3660 H   0  0  0  0  0  0  0  0  0  0  0  0
  142.9790   75.0670  221.4770 H   0  0  0  0  0  0  0  0  0  0  0  0
  137.6358   71.8579  223.7716 H   0  0  0  0  0  0  0  0  0  0  0  0
  138.1669   70.7036  222.4527 H   0  0  0  0  0  0  0  0  0  0  0  0
  137.0519   70.1078  224.9581 H   0  0  0  0  0  0  0  0  0  0  0  0
  137.7379   69.0003  223.6689 H   0  0  0  0  0  0  0  0  0  0  0  0
  138.0334   67.5029  225.6012 H   0  0  0  0  0  0  0  0  0  0  0  0
  139.8051   66.7046  227.1453 H   0  0  0  0  0  0  0  0  0  0  0  0
  141.7693   68.1303  227.6939 H   0  0  0  0  0  0  0  0  0  0  0  0
  141.9409   70.3929  226.6566 H   0  0  0  0  0  0  0  0  0  0  0  0
  139.6599   72.2472  225.5812 H   0  0  0  0  0  0  0  0  0  0  0  0
  141.2688   71.8231  224.9426 H   0  0  0  0  0  0  0  0  0  0  0  0
  141.3754   68.3350  220.3501 H   0  0  0  0  0  0  0  0  0  0  0  0
  140.2709   69.2515  219.3001 H   0  0  0  0  0  0  0  0  0  0  0  0
  141.3594   67.3425  218.0602 H   0  0  0  0  0  0  0  0  0  0  0  0
  141.8288   68.8824  217.3428 H   0  0  0  0  0  0  0  0  0  0  0  0
  143.2486   65.8425  218.3113 H   0  0  0  0  0  0  0  0  0  0  0  0
  145.6548   65.5935  218.9727 H   0  0  0  0  0  0  0  0  0  0  0  0
  146.9944   67.5309  219.6262 H   0  0  0  0  0  0  0  0  0  0  0  0
  146.0154   69.8220  219.6564 H   0  0  0  0  0  0  0  0  0  0  0  0
  143.9864   71.1673  219.4983 H   0  0  0  0  0  0  0  0  0  0  0  0
  143.2284   70.7735  217.9548 H   0  0  0  0  0  0  0  0  0  0  0  0
  139.0648   75.9320  220.3595 H   0  0  0  0  0  0  0  0  0  0  0  0
  139.7138   75.2511  221.8461 H   0  0  0  0  0  0  0  0  0  0  0  0
  143.4127   78.5195  223.1399 H   0  0  0  0  0  0  0  0  0  0  0  0
  143.8886   80.8388  223.7241 H   0  0  0  0  0  0  0  0  0  0  0  0
  1  2  2  0
  2  3  1  0
  3  4  2  0
  4  5  1  0
  5  6  1  0
  6  7  1  0
  7  8  1  0
  8  9  1  0
  9 10  1  0
 10 11  1  0
 11 12  2  0
 12 13  1  0
 13 14  1  0
 14 15  1  0
 15 16  1  0
 16 17  1  0
 17 18  2  0
 18 19  1  0
 19 20  2  0
 20 21  1  0
 21 22  2  0
 22 23  1  0
 13 24  2  0
 24 25  1  0
 25 26  1  0
 26 27  1  0
 27 28  1  0
 28 29  1  0
 29 30  2  0
 30 31  1  0
 31 32  2  0
 32 33  1  0
 33 34  2  0
 34 35  1  0
 25 36  2  0
  9 37  1  0
  4 38  1  0
 38 39  2  0
 39  1  1  0
 37  6  1  0
 36 11  1  0
 23 14  1  0
 35 26  1  0
 22 17  1  0
 34 29  1  0
  1 40  1  0
  2 41  1  0
  3 42  1  0
  5 43  1  0
  5 44  1  0
  7 45  1  0
  7 46  1  0
  8 47  1  0
  8 48  1  0
  9 49  1  6
 10 50  1  0
 15 51  1  0
 15 52  1  0
 16 53  1  0
 16 54  1  0
 18 55  1  0
 19 56  1  0
 20 57  1  0
 21 58  1  0
 23 59  1  0
 23 60  1  0
 27 61  1  0
 27 62  1  0
 28 63  1  0
 28 64  1  0
 30 65  1  0
 31 66  1  0
 32 67  1  0
 33 68  1  0
 35 69  1  0
 35 70  1  0
 37 71  1  0
 37 72  1  0
 38 73  1  0
 39 74  1  0
M  END
>  <smiles>  (5) 
c1ccc(CN2CC[C@@H](Nc3nc(N4CCc5ccccc5C4)nc(N4CCc5ccccc5C4)n3)C2)cc1

>  <score_type>  (5) 
oracle

>  <origin>  (5) 
autodockgpu

>  <m_score__min__energy>  (5) 
-11.06

>  <m_primary>  (5) 
energy

>  <rmsd>  (5) 
3.437394129285014

>  <m_score__min__rmsd>  (5) 
3.437394129285014

>  <meeko>  (5) 
{"free_energy": -11.06, "intermolecular_energy": -12.85, "internal_energy": -1.48, "cluster_size": 8, "cluster_id": 1, "rank_in_cluster": 1}

>  <energy>  (5) 
-10.67

>  <cluster_rmsd>  (5) 
0.62

>  <cluster>  (5) 
1

$$$$

     RDKit          3D

 74 80  0  0  0  0  0  0  0  0999 V2000
  141.1460   69.4670  228.4320 C   0  0  0  0  0  0  0  0  0  0  0  0
  141.0640   70.8390  228.2730 C   0  0  0  0  0  0  0  0  0  0  0  0
  140.6120   71.3710  227.0950 C   0  0  0  0  0  0  0  0  0  0  0  0
  140.2180   70.5740  226.0130 C   0  0  0  0  0  0  0  0  0  0  0  0
  139.7240   71.2130  224.7790 C   0  0  0  0  0  0  0  0  0  0  0  0
  140.0260   70.3910  223.6480 N   0  0  0  0  0  0  0  0  0  0  0  0
  138.8960   69.6230  223.2450 C   0  0  0  0  0  0  0  0  0  0  0  0
  137.9680   70.6830  222.6380 C   0  0  0  0  0  0  0  0  0  0  0  0
  138.9490   71.6150  221.9650 C   0  0  1  0  0  0  0  0  0  0  0  0
  138.6930   73.0120  222.2680 N   0  0  0  0  0  0  0  0  0  0  0  0
  139.6780   74.0020  221.9360 C   0  0  0  0  0  0  0  0  0  0  0  0
  140.7230   73.7210  221.1460 N   0  0  0  0  0  0  0  0  0  0  0  0
  141.6340   74.6530  220.8440 C   0  0  0  0  0  0  0  0  0  0  0  0
  142.7520   74.3580  220.0010 N   0  0  0  0  0  0  0  0  0  0  0  0
  144.0690   74.8870  220.2190 C   0  0  0  0  0  0  0  0  0  0  0  0
  145.1700   73.8810  220.0410 C   0  0  0  0  0  0  0  0  0  0  0  0
  144.7160   72.5670  219.5700 C   0  0  0  0  0  0  0  0  0  0  0  0
  145.5790   71.4960  219.7000 C   0  0  0  0  0  0  0  0  0  0  0  0
  145.1780   70.2380  219.2630 C   0  0  0  0  0  0  0  0  0  0  0  0
  143.9270   70.0270  218.6970 C   0  0  0  0  0  0  0  0  0  0  0  0
  143.0760   71.1000  218.5740 C   0  0  0  0  0  0  0  0  0  0  0  0
  143.4900   72.3400  219.0110 C   0  0  0  0  0  0  0  0  0  0  0  0
  142.5510   73.4780  218.8660 C   0  0  0  0  0  0  0  0  0  0  0  0
  141.4950   75.9010  221.3460 N   0  0  0  0  0  0  0  0  0  0  0  0
  140.4470   76.2220  222.1500 C   0  0  0  0  0  0  0  0  0  0  0  0
  140.2780   77.5280  222.6910 N   0  0  0  0  0  0  0  0  0  0  0  0
  138.9620   78.1310  222.7010 C   0  0  0  0  0  0  0  0  0  0  0  0
  139.0520   79.3750  223.5650 C   0  0  0  0  0  0  0  0  0  0  0  0
  140.1030   80.2220  222.9070 C   0  0  0  0  0  0  0  0  0  0  0  0
  139.8580   81.5170  222.5030 C   0  0  0  0  0  0  0  0  0  0  0  0
  140.9220   82.1870  221.9080 C   0  0  0  0  0  0  0  0  0  0  0  0
  142.1460   81.5900  221.7340 C   0  0  0  0  0  0  0  0  0  0  0  0
  142.3840   80.2950  222.1420 C   0  0  0  0  0  0  0  0  0  0  0  0
  141.3330   79.6240  222.7330 C   0  0  0  0  0  0  0  0  0  0  0  0
  141.4550   78.2130  223.2210 C   0  0  0  0  0  0  0  0  0  0  0  0
  139.5590   75.2490  222.4240 N   0  0  0  0  0  0  0  0  0  0  0  0
  140.3110   71.1790  222.4560 C   0  0  0  0  0  0  0  0  0  0  0  0
  140.3150   69.2150  226.2110 C   0  0  0  0  0  0  0  0  0  0  0  0
  140.7640   68.6640  227.3810 C   0  0  0  0  0  0  0  0  0  0  0  0
  141.5072   69.0290  229.3742 H   0  0  0  0  0  0  0  0  0  0  0  0
  141.3630   71.5049  229.0959 H   0  0  0  0  0  0  0  0  0  0  0  0
  140.5563   72.4650  226.9949 H   0  0  0  0  0  0  0  0  0  0  0  0
  138.6348   71.3490  224.8501 H   0  0  0  0  0  0  0  0  0  0  0  0
  140.2146   72.1899  224.6568 H   0  0  0  0  0  0  0  0  0  0  0  0
  139.1766   68.8664  222.4975 H   0  0  0  0  0  0  0  0  0  0  0  0
  138.4348   69.0590  224.0691 H   0  0  0  0  0  0  0  0  0  0  0  0
  137.2760   70.2371  221.9084 H   0  0  0  0  0  0  0  0  0  0  0  0
  137.3210   71.1795  223.3761 H   0  0  0  0  0  0  0  0  0  0  0  0
  138.8647   71.5513  220.8701 H   0  0  0  0  0  0  0  0  0  0  0  0
  137.8130   73.3420  222.7240 H   0  0  0  0  0  0  0  0  0  0  0  0
  144.2335   75.7091  219.5069 H   0  0  0  0  0  0  0  0  0  0  0  0
  144.1085   75.2191  221.2669 H   0  0  0  0  0  0  0  0  0  0  0  0
  145.8871   74.2807  219.3089 H   0  0  0  0  0  0  0  0  0  0  0  0
  145.6166   73.7232  221.0338 H   0  0  0  0  0  0  0  0  0  0  0  0
  146.5749   71.6370  220.1454 H   0  0  0  0  0  0  0  0  0  0  0  0
  145.8689   69.3886  219.3682 H   0  0  0  0  0  0  0  0  0  0  0  0
  143.6246   69.0260  218.3556 H   0  0  0  0  0  0  0  0  0  0  0  0
  142.0770   70.9704  218.1322 H   0  0  0  0  0  0  0  0  0  0  0  0
  142.7580   74.0186  217.9306 H   0  0  0  0  0  0  0  0  0  0  0  0
  141.5114   73.1200  218.8334 H   0  0  0  0  0  0  0  0  0  0  0  0
  138.6627   78.4022  221.6778 H   0  0  0  0  0  0  0  0  0  0  0  0
  138.2118   77.4308  223.0971 H   0  0  0  0  0  0  0  0  0  0  0  0
  138.0869   79.9023  223.5872 H   0  0  0  0  0  0  0  0  0  0  0  0
  139.3025   79.1385  224.6097 H   0  0  0  0  0  0  0  0  0  0  0  0
  138.8766   81.9936  222.6432 H   0  0  0  0  0  0  0  0  0  0  0  0
  140.7788   83.2232  221.5677 H   0  0  0  0  0  0  0  0  0  0  0  0
  142.9573   82.1595  221.2569 H   0  0  0  0  0  0  0  0  0  0  0  0
  143.3658   79.8188  222.0030 H   0  0  0  0  0  0  0  0  0  0  0  0
  142.3768   77.7499  222.8391 H   0  0  0  0  0  0  0  0  0  0  0  0
  141.5068   78.1577  224.3184 H   0  0  0  0  0  0  0  0  0  0  0  0
  140.8219   70.5679  221.6974 H   0  0  0  0  0  0  0  0  0  0  0  0
  140.9766   72.0300  222.6628 H   0  0  0  0  0  0  0  0  0  0  0  0
  140.0186   68.5421  225.3928 H   0  0  0  0  0  0  0  0  0  0  0  0
  140.8201   67.5701  227.4822 H   0  0  0  0  0  0  0  0  0  0  0  0
  1  2  2  0
  2  3  1  0
  3  4  2  0
  4  5  1  0
  5  6  1  0
  6  7  1  0
  7  8  1  0
  8  9  1  0
  9 10  1  0
 10 11  1  0
 11 12  2  0
 12 13  1  0
 13 14  1  0
 14 15  1  0
 15 16  1  0
 16 17  1  0
 17 18  2  0
 18 19  1  0
 19 20  2  0
 20 21  1  0
 21 22  2  0
 22 23  1  0
 13 24  2  0
 24 25  1  0
 25 26  1  0
 26 27  1  0
 27 28  1  0
 28 29  1  0
 29 30  2  0
 30 31  1  0
 31 32  2  0
 32 33  1  0
 33 34  2  0
 34 35  1  0
 25 36  2  0
  9 37  1  0
  4 38  1  0
 38 39  2  0
 39  1  1  0
 37  6  1  0
 36 11  1  0
 23 14  1  0
 35 26  1  0
 22 17  1  0
 34 29  1  0
  1 40  1  0
  2 41  1  0
  3 42  1  0
  5 43  1  0
  5 44  1  0
  7 45  1  0
  7 46  1  0
  8 47  1  0
  8 48  1  0
  9 49  1  6
 10 50  1  0
 15 51  1  0
 15 52  1  0
 16 53  1  0
 16 54  1  0
 18 55  1  0
 19 56  1  0
 20 57  1  0
 21 58  1  0
 23 59  1  0
 23 60  1  0
 27 61  1  0
 27 62  1  0
 28 63  1  0
 28 64  1  0
 30 65  1  0
 31 66  1  0
 32 67  1  0
 33 68  1  0
 35 69  1  0
 35 70  1  0
 37 71  1  0
 37 72  1  0
 38 73  1  0
 39 74  1  0
M  END
>  <smiles>  (6) 
c1ccc(CN2CC[C@@H](Nc3nc(N4CCc5ccccc5C4)nc(N4CCc5ccccc5C4)n3)C2)cc1

>  <score_type>  (6) 
oracle

>  <origin>  (6) 
autodockgpu

>  <m_score__min__energy>  (6) 
-11.06

>  <m_primary>  (6) 
energy

>  <rmsd>  (6) 
10.512673763370815

>  <m_score__min__rmsd>  (6) 
10.512673763370815

>  <meeko>  (6) 
{"free_energy": -10.91, "intermolecular_energy": -12.7, "internal_energy": -1.55, "cluster_size": 14, "cluster_id": 2, "rank_in_cluster": 2}

>  <energy>  (6) 
-10.63

>  <cluster_rmsd>  (6) 
1.77

>  <cluster>  (6) 
1

$$$$

     RDKit          3D

 74 80  0  0  0  0  0  0  0  0999 V2000
  141.0460   69.4700  228.3310 C   0  0  0  0  0  0  0  0  0  0  0  0
  141.0670   70.8510  228.2550 C   0  0  0  0  0  0  0  0  0  0  0  0
  140.7340   71.4810  227.0860 C   0  0  0  0  0  0  0  0  0  0  0  0
  140.3630   70.7790  225.9330 C   0  0  0  0  0  0  0  0  0  0  0  0
  139.9990   71.5230  224.7120 C   0  0  0  0  0  0  0  0  0  0  0  0
  140.3330   70.7550  223.5530 N   0  0  0  0  0  0  0  0  0  0  0  0
  139.2220   69.9870  223.1010 C   0  0  0  0  0  0  0  0  0  0  0  0
  138.2860   71.0560  222.5220 C   0  0  0  0  0  0  0  0  0  0  0  0
  139.2630   72.0310  221.9040 C   0  0  1  0  0  0  0  0  0  0  0  0
  138.9790   73.4100  222.2610 N   0  0  0  0  0  0  0  0  0  0  0  0
  139.9200   74.4380  221.9230 C   0  0  0  0  0  0  0  0  0  0  0  0
  139.8520   75.6630  222.4620 N   0  0  0  0  0  0  0  0  0  0  0  0
  140.7360   76.6130  222.1380 C   0  0  0  0  0  0  0  0  0  0  0  0
  140.6670   77.9230  222.7120 N   0  0  0  0  0  0  0  0  0  0  0  0
  141.6310   78.4270  223.6500 C   0  0  0  0  0  0  0  0  0  0  0  0
  142.0540   79.8440  223.3900 C   0  0  0  0  0  0  0  0  0  0  0  0
  141.3300   80.4990  222.2930 C   0  0  0  0  0  0  0  0  0  0  0  0
  141.8650   81.6560  221.7600 C   0  0  0  0  0  0  0  0  0  0  0  0
  141.2020   82.2990  220.7200 C   0  0  0  0  0  0  0  0  0  0  0  0
  140.0110   81.8090  220.2000 C   0  0  0  0  0  0  0  0  0  0  0  0
  139.4890   80.6560  220.7380 C   0  0  0  0  0  0  0  0  0  0  0  0
  140.1580   80.0310  221.7690 C   0  0  0  0  0  0  0  0  0  0  0  0
  139.5700   78.7910  222.3290 C   0  0  0  0  0  0  0  0  0  0  0  0
  141.7160   76.3310  221.2500 N   0  0  0  0  0  0  0  0  0  0  0  0
  141.8160   75.0990  220.6840 C   0  0  0  0  0  0  0  0  0  0  0  0
  142.8380   74.7760  219.7470 N   0  0  0  0  0  0  0  0  0  0  0  0
  142.5070   74.6540  218.3430 C   0  0  0  0  0  0  0  0  0  0  0  0
  143.8180   74.5760  217.5830 C   0  0  0  0  0  0  0  0  0  0  0  0
  144.5150   73.3730  218.1490 C   0  0  0  0  0  0  0  0  0  0  0  0
  144.9390   72.3280  217.3550 C   0  0  0  0  0  0  0  0  0  0  0  0
  145.5720   71.2760  218.0110 C   0  0  0  0  0  0  0  0  0  0  0  0
  145.7620   71.2810  219.3710 C   0  0  0  0  0  0  0  0  0  0  0  0
  145.3360   72.3300  220.1570 C   0  0  0  0  0  0  0  0  0  0  0  0
  144.7080   73.3770  219.5150 C   0  0  0  0  0  0  0  0  0  0  0  0
  144.1960   74.5780  220.2490 C   0  0  0  0  0  0  0  0  0  0  0  0
  140.9030   74.1780  221.0420 N   0  0  0  0  0  0  0  0  0  0  0  0
  140.6230   71.5960  222.3990 C   0  0  0  0  0  0  0  0  0  0  0  0
  140.3550   69.4080  226.0500 C   0  0  0  0  0  0  0  0  0  0  0  0
  140.6830   68.7590  227.2090 C   0  0  0  0  0  0  0  0  0  0  0  0
  141.3126   68.9527  229.2644 H   0  0  0  0  0  0  0  0  0  0  0  0
  141.3520   71.4446  229.1362 H   0  0  0  0  0  0  0  0  0  0  0  0
  140.7589   72.5802  227.0514 H   0  0  0  0  0  0  0  0  0  0  0  0
  138.9175   71.7237  224.7167 H   0  0  0  0  0  0  0  0  0  0  0  0
  140.5547   72.4720  224.6885 H   0  0  0  0  0  0  0  0  0  0  0  0
  139.5265   69.2658  222.3282 H   0  0  0  0  0  0  0  0  0  0  0  0
  138.7571   69.3832  223.8943 H   0  0  0  0  0  0  0  0  0  0  0  0
  137.6136   70.6294  221.7631 H   0  0  0  0  0  0  0  0  0  0  0  0
  137.6185   71.5113  223.2685 H   0  0  0  0  0  0  0  0  0  0  0  0
  139.1977   72.0122  220.8061 H   0  0  0  0  0  0  0  0  0  0  0  0
  138.1090   73.6990  222.7610 H   0  0  0  0  0  0  0  0  0  0  0  0
  141.1923   78.3764  224.6575 H   0  0  0  0  0  0  0  0  0  0  0  0
  142.5308   77.8027  223.5476 H   0  0  0  0  0  0  0  0  0  0  0  0
  141.8889   80.4268  224.3082 H   0  0  0  0  0  0  0  0  0  0  0  0
  143.1121   79.8072  223.0915 H   0  0  0  0  0  0  0  0  0  0  0  0
  142.8068   82.0650  222.1546 H   0  0  0  0  0  0  0  0  0  0  0  0
  141.6321   83.2195  220.2984 H   0  0  0  0  0  0  0  0  0  0  0  0
  139.4980   82.3302  219.3783 H   0  0  0  0  0  0  0  0  0  0  0  0
  138.5486   80.2372  220.3503 H   0  0  0  0  0  0  0  0  0  0  0  0
  138.9558   79.0309  223.2095 H   0  0  0  0  0  0  0  0  0  0  0  0
  138.9265   78.2973  221.5859 H   0  0  0  0  0  0  0  0  0  0  0  0
  141.9164   73.7419  218.1720 H   0  0  0  0  0  0  0  0  0  0  0  0
  141.9079   75.5124  218.0050 H   0  0  0  0  0  0  0  0  0  0  0  0
  143.6350   74.4474  216.5060 H   0  0  0  0  0  0  0  0  0  0  0  0
  144.4165   75.4927  217.6900 H   0  0  0  0  0  0  0  0  0  0  0  0
  144.7857   72.3260  216.2657 H   0  0  0  0  0  0  0  0  0  0  0  0
  145.9298   70.4173  217.4240 H   0  0  0  0  0  0  0  0  0  0  0  0
  146.2668   70.4263  219.8450 H   0  0  0  0  0  0  0  0  0  0  0  0
  145.4897   72.3322  221.2462 H   0  0  0  0  0  0  0  0  0  0  0  0
  144.1845   74.3929  221.3332 H   0  0  0  0  0  0  0  0  0  0  0  0
  144.8297   75.4626  220.0878 H   0  0  0  0  0  0  0  0  0  0  0  0
  141.1554   71.0248  221.6243 H   0  0  0  0  0  0  0  0  0  0  0  0
  141.2710   72.4482  222.6518 H   0  0  0  0  0  0  0  0  0  0  0  0
  140.0724   68.8072  225.1730 H   0  0  0  0  0  0  0  0  0  0  0  0
  140.6565   67.6599  227.2448 H   0  0  0  0  0  0  0  0  0  0  0  0
  1  2  2  0
  2  3  1  0
  3  4  2  0
  4  5  1  0
  5  6  1  0
  6  7  1  0
  7  8  1  0
  8  9  1  0
  9 10  1  0
 10 11  1  0
 11 12  2  0
 12 13  1  0
 13 14  1  0
 14 15  1  0
 15 16  1  0
 16 17  1  0
 17 18  2  0
 18 19  1  0
 19 20  2  0
 20 21  1  0
 21 22  2  0
 22 23  1  0
 13 24  2  0
 24 25  1  0
 25 26  1  0
 26 27  1  0
 27 28  1  0
 28 29  1  0
 29 30  2  0
 30 31  1  0
 31 32  2  0
 32 33  1  0
 33 34  2  0
 34 35  1  0
 25 36  2  0
  9 37  1  0
  4 38  1  0
 38 39  2  0
 39  1  1  0
 37  6  1  0
 36 11  1  0
 23 14  1  0
 35 26  1  0
 22 17  1  0
 34 29  1  0
  1 40  1  0
  2 41  1  0
  3 42  1  0
  5 43  1  0
  5 44  1  0
  7 45  1  0
  7 46  1  0
  8 47  1  0
  8 48  1  0
  9 49  1  6
 10 50  1  0
 15 51  1  0
 15 52  1  0
 16 53  1  0
 16 54  1  0
 18 55  1  0
 19 56  1  0
 20 57  1  0
 21 58  1  0
 23 59  1  0
 23 60  1  0
 27 61  1  0
 27 62  1  0
 28 63  1  0
 28 64  1  0
 30 65  1  0
 31 66  1  0
 32 67  1  0
 33 68  1  0
 35 69  1  0
 35 70  1  0
 37 71  1  0
 37 72  1  0
 38 73  1  0
 39 74  1  0
M  END
>  <smiles>  (7) 
c1ccc(CN2CC[C@@H](Nc3nc(N4CCc5ccccc5C4)nc(N4CCc5ccccc5C4)n3)C2)cc1

>  <score_type>  (7) 
oracle

>  <origin>  (7) 
autodockgpu

>  <m_score__min__energy>  (7) 
-11.06

>  <m_primary>  (7) 
energy

>  <rmsd>  (7) 
10.286667961078257

>  <m_score__min__rmsd>  (7) 
10.286667961078257

>  <meeko>  (7) 
{"free_energy": -10.61, "intermolecular_energy": -12.4, "internal_energy": -1.46, "cluster_size": 14, "cluster_id": 2, "rank_in_cluster": 7}

>  <energy>  (7) 
-10.57

>  <cluster_rmsd>  (7) 
1.77

>  <cluster>  (7) 
1

$$$$

     RDKit          3D

 74 80  0  0  0  0  0  0  0  0999 V2000
  142.1260   81.6470  223.6170 C   0  0  0  0  0  0  0  0  0  0  0  0
  143.0990   80.6940  223.3760 C   0  0  0  0  0  0  0  0  0  0  0  0
  142.7450   79.4000  223.1020 C   0  0  0  0  0  0  0  0  0  0  0  0
  141.4100   78.9820  223.0520 C   0  0  0  0  0  0  0  0  0  0  0  0
  141.0990   77.5750  222.7350 C   0  0  0  0  0  0  0  0  0  0  0  0
  140.1620   77.5130  221.6560 N   0  0  0  0  0  0  0  0  0  0  0  0
  140.7400   77.9750  220.4380 C   0  0  0  0  0  0  0  0  0  0  0  0
  141.7200   76.8490  220.0820 C   0  0  0  0  0  0  0  0  0  0  0  0
  140.9670   75.6190  220.5350 C   0  0  1  0  0  0  0  0  0  0  0  0
  141.7870   74.7200  221.3280 N   0  0  0  0  0  0  0  0  0  0  0  0
  141.4850   73.3180  221.3510 C   0  0  0  0  0  0  0  0  0  0  0  0
  140.7070   72.7790  222.3000 N   0  0  0  0  0  0  0  0  0  0  0  0
  140.4320   71.4700  222.3100 C   0  0  0  0  0  0  0  0  0  0  0  0
  139.6010   70.8900  223.3210 N   0  0  0  0  0  0  0  0  0  0  0  0
  138.7980   69.7180  223.1090 C   0  0  0  0  0  0  0  0  0  0  0  0
  138.8440   68.7320  224.2400 C   0  0  0  0  0  0  0  0  0  0  0  0
  139.6110   69.1870  225.4070 C   0  0  0  0  0  0  0  0  0  0  0  0
  139.9940   68.2440  226.3410 C   0  0  0  0  0  0  0  0  0  0  0  0
  140.7220   68.6450  227.4570 C   0  0  0  0  0  0  0  0  0  0  0  0
  141.0740   69.9730  227.6600 C   0  0  0  0  0  0  0  0  0  0  0  0
  140.6870   70.9030  226.7230 C   0  0  0  0  0  0  0  0  0  0  0  0
  139.9670   70.4890  225.6230 C   0  0  0  0  0  0  0  0  0  0  0  0
  139.5640   71.5130  224.6300 C   0  0  0  0  0  0  0  0  0  0  0  0
  140.9500   70.6770  221.3440 N   0  0  0  0  0  0  0  0  0  0  0  0
  141.7420   71.1900  220.3670 C   0  0  0  0  0  0  0  0  0  0  0  0
  142.3000   70.3770  219.3390 N   0  0  0  0  0  0  0  0  0  0  0  0
  141.4830   69.3590  218.7120 C   0  0  0  0  0  0  0  0  0  0  0  0
  142.2500   68.8600  217.5010 C   0  0  0  0  0  0  0  0  0  0  0  0
  143.5460   68.3430  218.0560 C   0  0  0  0  0  0  0  0  0  0  0  0
  143.9760   67.0510  217.8370 C   0  0  0  0  0  0  0  0  0  0  0  0
  145.1960   66.7050  218.4100 C   0  0  0  0  0  0  0  0  0  0  0  0
  145.9270   67.6000  219.1510 C   0  0  0  0  0  0  0  0  0  0  0  0
  145.4900   68.8900  219.3650 C   0  0  0  0  0  0  0  0  0  0  0  0
  144.2820   69.2410  218.8000 C   0  0  0  0  0  0  0  0  0  0  0  0
  143.6910   70.6090  218.9550 C   0  0  0  0  0  0  0  0  0  0  0  0
  141.9890   72.5120  220.4000 N   0  0  0  0  0  0  0  0  0  0  0  0
  139.7910   76.1440  221.3260 C   0  0  0  0  0  0  0  0  0  0  0  0
  140.4720   79.9580  223.2980 C   0  0  0  0  0  0  0  0  0  0  0  0
  140.8060   81.2570  223.5730 C   0  0  0  0  0  0  0  0  0  0  0  0
  142.3994   82.6893  223.8381 H   0  0  0  0  0  0  0  0  0  0  0  0
  144.1616   80.9768  223.4046 H   0  0  0  0  0  0  0  0  0  0  0  0
  143.5387   78.6619  222.9143 H   0  0  0  0  0  0  0  0  0  0  0  0
  142.0234   77.0538  222.4453 H   0  0  0  0  0  0  0  0  0  0  0  0
  140.6616   77.0929  223.6217 H   0  0  0  0  0  0  0  0  0  0  0  0
  139.9750   78.0969  219.6570 H   0  0  0  0  0  0  0  0  0  0  0  0
  141.2210   78.9601  220.5289 H   0  0  0  0  0  0  0  0  0  0  0  0
  141.9188   76.8197  219.0005 H   0  0  0  0  0  0  0  0  0  0  0  0
  142.7096   76.9593  220.5494 H   0  0  0  0  0  0  0  0  0  0  0  0
  140.6487   75.0127  219.6741 H   0  0  0  0  0  0  0  0  0  0  0  0
  142.6030   75.0460  221.8930 H   0  0  0  0  0  0  0  0  0  0  0  0
  137.7540   70.0350  222.9690 H   0  0  0  0  0  0  0  0  0  0  0  0
  139.2084   69.2073  222.2254 H   0  0  0  0  0  0  0  0  0  0  0  0
  137.8121   68.5300  224.5632 H   0  0  0  0  0  0  0  0  0  0  0  0
  139.3547   67.8363  223.8568 H   0  0  0  0  0  0  0  0  0  0  0  0
  139.7260   67.1860  226.2038 H   0  0  0  0  0  0  0  0  0  0  0  0
  141.0265   67.8907  228.1975 H   0  0  0  0  0  0  0  0  0  0  0  0
  141.6484   70.2740  228.5485 H   0  0  0  0  0  0  0  0  0  0  0  0
  140.9489   71.9638  226.8501 H   0  0  0  0  0  0  0  0  0  0  0  0
  138.5459   71.8676  224.8484 H   0  0  0  0  0  0  0  0  0  0  0  0
  140.2439   72.3769  224.6670 H   0  0  0  0  0  0  0  0  0  0  0  0
  141.3054   68.5313  219.4144 H   0  0  0  0  0  0  0  0  0  0  0  0
  140.5047   69.7665  218.4172 H   0  0  0  0  0  0  0  0  0  0  0  0
  141.6960   68.0551  216.9958 H   0  0  0  0  0  0  0  0  0  0  0  0
  142.4044   69.6505  216.7518 H   0  0  0  0  0  0  0  0  0  0  0  0
  143.3883   66.3352  217.2435 H   0  0  0  0  0  0  0  0  0  0  0  0
  145.5853   65.6864  218.2652 H   0  0  0  0  0  0  0  0  0  0  0  0
  146.8857   67.2798  219.5850 H   0  0  0  0  0  0  0  0  0  0  0  0
  146.0775   69.6058  219.9587 H   0  0  0  0  0  0  0  0  0  0  0  0
  144.2197   71.1725  219.7379 H   0  0  0  0  0  0  0  0  0  0  0  0
  143.7722   71.2019  218.0320 H   0  0  0  0  0  0  0  0  0  0  0  0
  138.8735   76.1243  220.7196 H   0  0  0  0  0  0  0  0  0  0  0  0
  139.5815   75.5381  222.2199 H   0  0  0  0  0  0  0  0  0  0  0  0
  139.4073   79.6827  223.2726 H   0  0  0  0  0  0  0  0  0  0  0  0
  140.0128   81.9958  223.7605 H   0  0  0  0  0  0  0  0  0  0  0  0
  1  2  2  0
  2  3  1  0
  3  4  2  0
  4  5  1  0
  5  6  1  0
  6  7  1  0
  7  8  1  0
  8  9  1  0
  9 10  1  0
 10 11  1  0
 11 12  2  0
 12 13  1  0
 13 14  1  0
 14 15  1  0
 15 16  1  0
 16 17  1  0
 17 18  2  0
 18 19  1  0
 19 20  2  0
 20 21  1  0
 21 22  2  0
 22 23  1  0
 13 24  2  0
 24 25  1  0
 25 26  1  0
 26 27  1  0
 27 28  1  0
 28 29  1  0
 29 30  2  0
 30 31  1  0
 31 32  2  0
 32 33  1  0
 33 34  2  0
 34 35  1  0
 25 36  2  0
  9 37  1  0
  4 38  1  0
 38 39  2  0
 39  1  1  0
 37  6  1  0
 36 11  1  0
 23 14  1  0
 35 26  1  0
 22 17  1  0
 34 29  1  0
  1 40  1  0
  2 41  1  0
  3 42  1  0
  5 43  1  0
  5 44  1  0
  7 45  1  0
  7 46  1  0
  8 47  1  0
  8 48  1  0
  9 49  1  6
 10 50  1  0
 15 51  1  0
 15 52  1  0
 16 53  1  0
 16 54  1  0
 18 55  1  0
 19 56  1  0
 20 57  1  0
 21 58  1  0
 23 59  1  0
 23 60  1  0
 27 61  1  0
 27 62  1  0
 28 63  1  0
 28 64  1  0
 30 65  1  0
 31 66  1  0
 32 67  1  0
 33 68  1  0
 35 69  1  0
 35 70  1  0
 37 71  1  0
 37 72  1  0
 38 73  1  0
 39 74  1  0
M  END
>  <smiles>  (8) 
c1ccc(CN2CC[C@@H](Nc3nc(N4CCc5ccccc5C4)nc(N4CCc5ccccc5C4)n3)C2)cc1

>  <score_type>  (8) 
oracle

>  <origin>  (8) 
autodockgpu

>  <m_score__min__energy>  (8) 
-11.06

>  <m_primary>  (8) 
energy

>  <rmsd>  (8) 
3.1335674443994024

>  <m_score__min__rmsd>  (8) 
3.1335674443994024

>  <meeko>  (8) 
{"free_energy": -10.67, "intermolecular_energy": -12.46, "internal_energy": -1.41, "cluster_size": 8, "cluster_id": 1, "rank_in_cluster": 5}

>  <energy>  (8) 
-10.43

>  <cluster_rmsd>  (8) 
0.76

>  <cluster>  (8) 
1

$$$$

     RDKit          3D

 74 80  0  0  0  0  0  0  0  0999 V2000
  145.2120   67.2050  219.6210 C   0  0  0  0  0  0  0  0  0  0  0  0
  144.0190   67.9050  219.5950 C   0  0  0  0  0  0  0  0  0  0  0  0
  143.9570   69.1400  219.0070 C   0  0  0  0  0  0  0  0  0  0  0  0
  145.0710   69.7460  218.4150 C   0  0  0  0  0  0  0  0  0  0  0  0
  144.9290   71.0720  217.7830 C   0  0  0  0  0  0  0  0  0  0  0  0
  145.8870   71.9800  218.3330 N   0  0  0  0  0  0  0  0  0  0  0  0
  145.5190   73.3350  218.0880 C   0  0  0  0  0  0  0  0  0  0  0  0
  144.3150   73.5310  219.0180 C   0  0  0  0  0  0  0  0  0  0  0  0
  144.7090   72.7090  220.2240 C   0  0  1  0  0  0  0  0  0  0  0  0
  143.6430   71.8320  220.6770 N   0  0  0  0  0  0  0  0  0  0  0  0
  142.4610   72.3970  221.2630 C   0  0  0  0  0  0  0  0  0  0  0  0
  141.6120   71.6590  221.9900 N   0  0  0  0  0  0  0  0  0  0  0  0
  140.5130   72.1980  222.5310 C   0  0  0  0  0  0  0  0  0  0  0  0
  139.6030   71.4130  223.3090 N   0  0  0  0  0  0  0  0  0  0  0  0
  138.6080   70.5520  222.7320 C   0  0  0  0  0  0  0  0  0  0  0  0
  138.4930   69.2150  223.4050 C   0  0  0  0  0  0  0  0  0  0  0  0
  139.3370   69.0630  224.5970 C   0  0  0  0  0  0  0  0  0  0  0  0
  139.5600   67.7870  225.0770 C   0  0  0  0  0  0  0  0  0  0  0  0
  140.3550   67.6120  226.2050 C   0  0  0  0  0  0  0  0  0  0  0  0
  140.9340   68.6880  226.8650 C   0  0  0  0  0  0  0  0  0  0  0  0
  140.7050   69.9530  226.3760 C   0  0  0  0  0  0  0  0  0  0  0  0
  139.9140   70.1100  225.2580 C   0  0  0  0  0  0  0  0  0  0  0  0
  139.6860   71.4860  224.7550 C   0  0  0  0  0  0  0  0  0  0  0  0
  140.2570   73.5110  222.3390 N   0  0  0  0  0  0  0  0  0  0  0  0
  141.0960   74.2900  221.6070 C   0  0  0  0  0  0  0  0  0  0  0  0
  140.8500   75.6750  221.3900 N   0  0  0  0  0  0  0  0  0  0  0  0
  141.1950   76.2710  220.1160 C   0  0  0  0  0  0  0  0  0  0  0  0
  140.5780   77.6570  220.0930 C   0  0  0  0  0  0  0  0  0  0  0  0
  141.1770   78.3610  221.2750 C   0  0  0  0  0  0  0  0  0  0  0  0
  141.8550   79.5560  221.1530 C   0  0  0  0  0  0  0  0  0  0  0  0
  142.3590   80.1000  222.3310 C   0  0  0  0  0  0  0  0  0  0  0  0
  142.1900   79.4790  223.5440 C   0  0  0  0  0  0  0  0  0  0  0  0
  141.5110   78.2850  223.6580 C   0  0  0  0  0  0  0  0  0  0  0  0
  141.0080   77.7400  222.4950 C   0  0  0  0  0  0  0  0  0  0  0  0
  140.2500   76.4480  222.4760 C   0  0  0  0  0  0  0  0  0  0  0  0
  142.1870   73.7010  221.0840 N   0  0  0  0  0  0  0  0  0  0  0  0
  145.9260   71.9250  219.7880 C   0  0  0  0  0  0  0  0  0  0  0  0
  146.2380   69.0190  218.4620 C   0  0  0  0  0  0  0  0  0  0  0  0
  146.3200   67.7830  219.0440 C   0  0  0  0  0  0  0  0  0  0  0  0
  145.2735   66.2122  220.0906 H   0  0  0  0  0  0  0  0  0  0  0  0
  143.1171   67.4679  220.0483 H   0  0  0  0  0  0  0  0  0  0  0  0
  142.9962   69.6756  218.9997 H   0  0  0  0  0  0  0  0  0  0  0  0
  145.0951   70.9790  216.6996 H   0  0  0  0  0  0  0  0  0  0  0  0
  143.9160   71.4564  217.9730 H   0  0  0  0  0  0  0  0  0  0  0  0
  146.3377   74.0217  218.3490 H   0  0  0  0  0  0  0  0  0  0  0  0
  145.2927   73.5416  217.0316 H   0  0  0  0  0  0  0  0  0  0  0  0
  144.1833   74.5905  219.2827 H   0  0  0  0  0  0  0  0  0  0  0  0
  143.3565   73.2290  218.5706 H   0  0  0  0  0  0  0  0  0  0  0  0
  144.9206   73.3550  221.0888 H   0  0  0  0  0  0  0  0  0  0  0  0
  143.6910   70.7920  220.5980 H   0  0  0  0  0  0  0  0  0  0  0  0
  137.6332   71.0573  222.7977 H   0  0  0  0  0  0  0  0  0  0  0  0
  138.9165   70.3602  221.6937 H   0  0  0  0  0  0  0  0  0  0  0  0
  137.4446   69.0693  223.7045 H   0  0  0  0  0  0  0  0  0  0  0  0
  138.8383   68.4658  222.6774 H   0  0  0  0  0  0  0  0  0  0  0  0
  139.1133   66.9178  224.5721 H   0  0  0  0  0  0  0  0  0  0  0  0
  140.5297   66.5943  226.5843 H   0  0  0  0  0  0  0  0  0  0  0  0
  141.5598   68.5325  227.7562 H   0  0  0  0  0  0  0  0  0  0  0  0
  141.1480   70.8295  226.8715 H   0  0  0  0  0  0  0  0  0  0  0  0
  138.7468   71.8852  225.1655 H   0  0  0  0  0  0  0  0  0  0  0  0
  140.5055   72.1520  225.0630 H   0  0  0  0  0  0  0  0  0  0  0  0
  142.2881   76.3424  220.0160 H   0  0  0  0  0  0  0  0  0  0  0  0
  140.8190   75.6600  219.2821 H   0  0  0  0  0  0  0  0  0  0  0  0
  140.8338   78.1799  219.1596 H   0  0  0  0  0  0  0  0  0  0  0  0
  139.4796   77.6241  220.1413 H   0  0  0  0  0  0  0  0  0  0  0  0
  141.9898   80.0510  220.1800 H   0  0  0  0  0  0  0  0  0  0  0  0
  142.9072   81.0527  222.2891 H   0  0  0  0  0  0  0  0  0  0  0  0
  142.6073   79.9465  224.4480 H   0  0  0  0  0  0  0  0  0  0  0  0
  141.3765   77.7898  224.6310 H   0  0  0  0  0  0  0  0  0  0  0  0
  140.3617   75.9198  223.4344 H   0  0  0  0  0  0  0  0  0  0  0  0
  139.1713   76.6032  222.3265 H   0  0  0  0  0  0  0  0  0  0  0  0
  146.8466   72.3895  220.1710 H   0  0  0  0  0  0  0  0  0  0  0  0
  145.9205   70.8935  220.1700 H   0  0  0  0  0  0  0  0  0  0  0  0
  147.1447   69.4499  218.0122 H   0  0  0  0  0  0  0  0  0  0  0  0
  147.2803   67.2465  219.0507 H   0  0  0  0  0  0  0  0  0  0  0  0
  1  2  2  0
  2  3  1  0
  3  4  2  0
  4  5  1  0
  5  6  1  0
  6  7  1  0
  7  8  1  0
  8  9  1  0
  9 10  1  0
 10 11  1  0
 11 12  2  0
 12 13  1  0
 13 14  1  0
 14 15  1  0
 15 16  1  0
 16 17  1  0
 17 18  2  0
 18 19  1  0
 19 20  2  0
 20 21  1  0
 21 22  2  0
 22 23  1  0
 13 24  2  0
 24 25  1  0
 25 26  1  0
 26 27  1  0
 27 28  1  0
 28 29  1  0
 29 30  2  0
 30 31  1  0
 31 32  2  0
 32 33  1  0
 33 34  2  0
 34 35  1  0
 25 36  2  0
  9 37  1  0
  4 38  1  0
 38 39  2  0
 39  1  1  0
 37  6  1  0
 36 11  1  0
 23 14  1  0
 35 26  1  0
 22 17  1  0
 34 29  1  0
  1 40  1  0
  2 41  1  0
  3 42  1  0
  5 43  1  0
  5 44  1  0
  7 45  1  0
  7 46  1  0
  8 47  1  0
  8 48  1  0
  9 49  1  1
 10 50  1  0
 15 51  1  0
 15 52  1  0
 16 53  1  0
 16 54  1  0
 18 55  1  0
 19 56  1  0
 20 57  1  0
 21 58  1  0
 23 59  1  0
 23 60  1  0
 27 61  1  0
 27 62  1  0
 28 63  1  0
 28 64  1  0
 30 65  1  0
 31 66  1  0
 32 67  1  0
 33 68  1  0
 35 69  1  0
 35 70  1  0
 37 71  1  0
 37 72  1  0
 38 73  1  0
 39 74  1  0
M  END
>  <smiles>  (9) 
c1ccc(CN2CC[C@@H](Nc3nc(N4CCc5ccccc5C4)nc(N4CCc5ccccc5C4)n3)C2)cc1

>  <score_type>  (9) 
oracle

>  <origin>  (9) 
autodockgpu

>  <m_score__min__energy>  (9) 
-11.06

>  <m_primary>  (9) 
energy

>  <rmsd>  (9) 
10.949708419872618

>  <m_score__min__rmsd>  (9) 
10.949708419872618

>  <meeko>  (9) 
{"free_energy": -10.92, "intermolecular_energy": -12.71, "internal_energy": -1.67, "cluster_size": 8, "cluster_id": 1, "rank_in_cluster": 3}

>  <energy>  (9) 
-10.96

>  <cluster_rmsd>  (9) 
0.0

>  <cluster>  (9) 
2

$$$$

     RDKit          3D

 74 80  0  0  0  0  0  0  0  0999 V2000
  141.7050   77.8760  217.5560 C   0  0  0  0  0  0  0  0  0  0  0  0
  142.6220   78.9030  217.6870 C   0  0  0  0  0  0  0  0  0  0  0  0
  142.5710   79.7400  218.7690 C   0  0  0  0  0  0  0  0  0  0  0  0
  141.6100   79.6040  219.7780 C   0  0  0  0  0  0  0  0  0  0  0  0
  141.6220   80.5310  220.9260 C   0  0  0  0  0  0  0  0  0  0  0  0
  142.4250   79.9920  221.9810 N   0  0  0  0  0  0  0  0  0  0  0  0
  142.3220   80.7770  223.1650 C   0  0  0  0  0  0  0  0  0  0  0  0
  140.8990   80.4700  223.6510 C   0  0  0  0  0  0  0  0  0  0  0  0
  140.7510   79.0090  223.2940 C   0  0  1  0  0  0  0  0  0  0  0  0
  139.5020   78.7220  222.6110 N   0  0  0  0  0  0  0  0  0  0  0  0
  139.1070   77.3600  222.3960 C   0  0  0  0  0  0  0  0  0  0  0  0
  137.8810   76.9220  222.7150 N   0  0  0  0  0  0  0  0  0  0  0  0
  137.5250   75.6490  222.5090 C   0  0  0  0  0  0  0  0  0  0  0  0
  136.2160   75.1770  222.8470 N   0  0  0  0  0  0  0  0  0  0  0  0
  135.9120   73.7940  223.0890 C   0  0  0  0  0  0  0  0  0  0  0  0
  135.0200   73.5620  224.2740 C   0  0  0  0  0  0  0  0  0  0  0  0
  134.5280   74.7910  224.9090 C   0  0  0  0  0  0  0  0  0  0  0  0
  133.9940   74.6970  226.1800 C   0  0  0  0  0  0  0  0  0  0  0  0
  133.5190   75.8450  226.8070 C   0  0  0  0  0  0  0  0  0  0  0  0
  133.5670   77.0880  226.1890 C   0  0  0  0  0  0  0  0  0  0  0  0
  134.1010   77.1680  224.9250 C   0  0  0  0  0  0  0  0  0  0  0  0
  134.5670   76.0220  224.3160 C   0  0  0  0  0  0  0  0  0  0  0  0
  135.1370   76.1400  222.9540 C   0  0  0  0  0  0  0  0  0  0  0  0
  138.4190   74.7900  221.9700 N   0  0  0  0  0  0  0  0  0  0  0  0
  139.6700   75.2000  221.6350 C   0  0  0  0  0  0  0  0  0  0  0  0
  140.6310   74.3160  221.0660 N   0  0  0  0  0  0  0  0  0  0  0  0
  140.7710   72.9760  221.5960 C   0  0  0  0  0  0  0  0  0  0  0  0
  141.6560   72.2080  220.6320 C   0  0  0  0  0  0  0  0  0  0  0  0
  142.9410   72.9830  220.5940 C   0  0  0  0  0  0  0  0  0  0  0  0
  144.1570   72.4030  220.8860 C   0  0  0  0  0  0  0  0  0  0  0  0
  145.2690   73.2370  220.8120 C   0  0  0  0  0  0  0  0  0  0  0  0
  145.1570   74.5620  220.4670 C   0  0  0  0  0  0  0  0  0  0  0  0
  143.9370   75.1330  220.1750 C   0  0  0  0  0  0  0  0  0  0  0  0
  142.8310   74.3130  220.2470 C   0  0  0  0  0  0  0  0  0  0  0  0
  141.4460   74.8050  219.9560 C   0  0  0  0  0  0  0  0  0  0  0  0
  139.9800   76.4900  221.8620 N   0  0  0  0  0  0  0  0  0  0  0  0
  141.9470   78.6900  222.4260 C   0  0  0  0  0  0  0  0  0  0  0  0
  140.7150   78.5710  219.6110 C   0  0  0  0  0  0  0  0  0  0  0  0
  140.7510   77.7240  218.5370 C   0  0  0  0  0  0  0  0  0  0  0  0
  141.7370   77.1981  216.6903 H   0  0  0  0  0  0  0  0  0  0  0  0
  143.3956   79.0479  216.9185 H   0  0  0  0  0  0  0  0  0  0  0  0
  143.3121   80.5490  218.8486 H   0  0  0  0  0  0  0  0  0  0  0  0
  142.0385   81.4984  220.6089 H   0  0  0  0  0  0  0  0  0  0  0  0
  140.5931   80.6694  221.2895 H   0  0  0  0  0  0  0  0  0  0  0  0
  143.0705   80.4704  223.9105 H   0  0  0  0  0  0  0  0  0  0  0  0
  142.5035   81.8486  222.9953 H   0  0  0  0  0  0  0  0  0  0  0  0
  140.8048   80.6276  224.7356 H   0  0  0  0  0  0  0  0  0  0  0  0
  140.1293   81.1154  223.2027 H   0  0  0  0  0  0  0  0  0  0  0  0
  140.7186   78.3842  224.1988 H   0  0  0  0  0  0  0  0  0  0  0  0
  138.8620   79.4700  222.2610 H   0  0  0  0  0  0  0  0  0  0  0  0
  135.4134   73.3883  222.1963 H   0  0  0  0  0  0  0  0  0  0  0  0
  136.8664   73.2923  223.3067 H   0  0  0  0  0  0  0  0  0  0  0  0
  134.1515   72.9743  223.9418 H   0  0  0  0  0  0  0  0  0  0  0  0
  135.6268   73.0388  225.0277 H   0  0  0  0  0  0  0  0  0  0  0  0
  133.9449   73.7242  226.6912 H   0  0  0  0  0  0  0  0  0  0  0  0
  133.0944   75.7660  227.8187 H   0  0  0  0  0  0  0  0  0  0  0  0
  133.1872   77.9859  226.6984 H   0  0  0  0  0  0  0  0  0  0  0  0
  134.1560   78.1357  224.4049 H   0  0  0  0  0  0  0  0  0  0  0  0
  134.3633   75.9219  222.2031 H   0  0  0  0  0  0  0  0  0  0  0  0
  135.5095   77.1598  222.7774 H   0  0  0  0  0  0  0  0  0  0  0  0
  141.2375   73.0103  222.5916 H   0  0  0  0  0  0  0  0  0  0  0  0
  139.7895   72.4903  221.6998 H   0  0  0  0  0  0  0  0  0  0  0  0
  141.8307   71.1851  220.9968 H   0  0  0  0  0  0  0  0  0  0  0  0
  141.1995   72.1102  219.6360 H   0  0  0  0  0  0  0  0  0  0  0  0
  144.2436   71.3417  221.1618 H   0  0  0  0  0  0  0  0  0  0  0  0
  146.2638   72.8242  221.0357 H   0  0  0  0  0  0  0  0  0  0  0  0
  146.0639   75.1829  220.4227 H   0  0  0  0  0  0  0  0  0  0  0  0
  143.8498   76.1938  219.8974 H   0  0  0  0  0  0  0  0  0  0  0  0
  141.4263   75.9041  219.9165 H   0  0  0  0  0  0  0  0  0  0  0  0
  141.0764   74.4487  218.9831 H   0  0  0  0  0  0  0  0  0  0  0  0
  142.7218   78.1678  223.0065 H   0  0  0  0  0  0  0  0  0  0  0  0
  141.6926   78.0260  221.5868 H   0  0  0  0  0  0  0  0  0  0  0  0
  139.9373   78.4202  220.3741 H   0  0  0  0  0  0  0  0  0  0  0  0
  140.0109   76.9142  218.4566 H   0  0  0  0  0  0  0  0  0  0  0  0
  1  2  2  0
  2  3  1  0
  3  4  2  0
  4  5  1  0
  5  6  1  0
  6  7  1  0
  7  8  1  0
  8  9  1  0
  9 10  1  0
 10 11  1  0
 11 12  2  0
 12 13  1  0
 13 14  1  0
 14 15  1  0
 15 16  1  0
 16 17  1  0
 17 18  2  0
 18 19  1  0
 19 20  2  0
 20 21  1  0
 21 22  2  0
 22 23  1  0
 13 24  2  0
 24 25  1  0
 25 26  1  0
 26 27  1  0
 27 28  1  0
 28 29  1  0
 29 30  2  0
 30 31  1  0
 31 32  2  0
 32 33  1  0
 33 34  2  0
 34 35  1  0
 25 36  2  0
  9 37  1  0
  4 38  1  0
 38 39  2  0
 39  1  1  0
 37  6  1  0
 36 11  1  0
 23 14  1  0
 35 26  1  0
 22 17  1  0
 34 29  1  0
  1 40  1  0
  2 41  1  0
  3 42  1  0
  5 43  1  0
  5 44  1  0
  7 45  1  0
  7 46  1  0
  8 47  1  0
  8 48  1  0
  9 49  1  1
 10 50  1  0
 15 51  1  0
 15 52  1  0
 16 53  1  0
 16 54  1  0
 18 55  1  0
 19 56  1  0
 20 57  1  0
 21 58  1  0
 23 59  1  0
 23 60  1  0
 27 61  1  0
 27 62  1  0
 28 63  1  0
 28 64  1  0
 30 65  1  0
 31 66  1  0
 32 67  1  0
 33 68  1  0
 35 69  1  0
 35 70  1  0
 37 71  1  0
 37 72  1  0
 38 73  1  0
 39 74  1  0
M  END
>  <smiles>  (10) 
c1ccc(CN2CC[C@@H](Nc3nc(N4CCc5ccccc5C4)nc(N4CCc5ccccc5C4)n3)C2)cc1

>  <score_type>  (10) 
oracle

>  <origin>  (10) 
autodockgpu

>  <m_score__min__energy>  (10) 
-11.06

>  <m_primary>  (10) 
energy

>  <rmsd>  (10) 
5.196672266723077

>  <m_score__min__rmsd>  (10) 
5.196672266723077

>  <meeko>  (10) 
{"free_energy": -8.52, "intermolecular_energy": -10.31, "internal_energy": -2.34, "cluster_size": 1, "cluster_id": 9, "rank_in_cluster": 1}

>  <energy>  (10) 
-10.91

>  <cluster_rmsd>  (10) 
0.09

>  <cluster>  (10) 
2

$$$$

     RDKit          3D

 74 80  0  0  0  0  0  0  0  0999 V2000
  142.0360   81.7130  223.7720 C   0  0  0  0  0  0  0  0  0  0  0  0
  140.7400   81.2310  223.7710 C   0  0  0  0  0  0  0  0  0  0  0  0
  140.4960   79.9100  223.5070 C   0  0  0  0  0  0  0  0  0  0  0  0
  141.5210   78.9980  223.2290 C   0  0  0  0  0  0  0  0  0  0  0  0
  141.1890   77.5840  222.9700 C   0  0  0  0  0  0  0  0  0  0  0  0
  139.8950   77.4890  222.3670 N   0  0  0  0  0  0  0  0  0  0  0  0
  139.9230   77.9090  221.0060 C   0  0  0  0  0  0  0  0  0  0  0  0
  140.6870   76.7710  220.3170 C   0  0  0  0  0  0  0  0  0  0  0  0
  140.1970   75.5570  221.0740 C   0  0  1  0  0  0  0  0  0  0  0  0
  141.2800   74.6830  221.4920 N   0  0  0  0  0  0  0  0  0  0  0  0
  141.0610   73.2670  221.5630 C   0  0  0  0  0  0  0  0  0  0  0  0
  140.3570   72.7110  222.5570 N   0  0  0  0  0  0  0  0  0  0  0  0
  140.1600   71.3880  222.6110 C   0  0  0  0  0  0  0  0  0  0  0  0
  139.4070   70.7890  223.6720 N   0  0  0  0  0  0  0  0  0  0  0  0
  138.6170   69.6010  223.5070 C   0  0  0  0  0  0  0  0  0  0  0  0
  138.7560   68.6140  224.6310 C   0  0  0  0  0  0  0  0  0  0  0  0
  139.5850   69.0840  225.7480 C   0  0  0  0  0  0  0  0  0  0  0  0
  140.0480   68.1470  226.6520 C   0  0  0  0  0  0  0  0  0  0  0  0
  140.8360   68.5610  227.7210 C   0  0  0  0  0  0  0  0  0  0  0  0
  141.1730   69.8960  227.9050 C   0  0  0  0  0  0  0  0  0  0  0  0
  140.7080   70.8190  226.9980 C   0  0  0  0  0  0  0  0  0  0  0  0
  139.9270   70.3920  225.9440 C   0  0  0  0  0  0  0  0  0  0  0  0
  139.4410   71.4090  224.9820 C   0  0  0  0  0  0  0  0  0  0  0  0
  140.6820   70.6010  221.6450 N   0  0  0  0  0  0  0  0  0  0  0  0
  141.4020   71.1320  220.6210 C   0  0  0  0  0  0  0  0  0  0  0  0
  141.9630   70.3250  219.5900 N   0  0  0  0  0  0  0  0  0  0  0  0
  141.1130   69.4110  218.8570 C   0  0  0  0  0  0  0  0  0  0  0  0
  141.9200   68.9070  217.6740 C   0  0  0  0  0  0  0  0  0  0  0  0
  143.1270   68.2560  218.2860 C   0  0  0  0  0  0  0  0  0  0  0  0
  143.4650   66.9450  218.0270 C   0  0  0  0  0  0  0  0  0  0  0  0
  144.6090   66.4690  218.6600 C   0  0  0  0  0  0  0  0  0  0  0  0
  145.3570   67.2620  219.4950 C   0  0  0  0  0  0  0  0  0  0  0  0
  145.0120   68.5730  219.7480 C   0  0  0  0  0  0  0  0  0  0  0  0
  143.8790   69.0520  219.1240 C   0  0  0  0  0  0  0  0  0  0  0  0
  143.3920   70.4560  219.3120 C   0  0  0  0  0  0  0  0  0  0  0  0
  141.5720   72.4660  220.6120 N   0  0  0  0  0  0  0  0  0  0  0  0
  139.4380   76.1090  222.2600 C   0  0  0  0  0  0  0  0  0  0  0  0
  142.7960   79.5170  223.2390 C   0  0  0  0  0  0  0  0  0  0  0  0
  143.0600   80.8340  223.5020 C   0  0  0  0  0  0  0  0  0  0  0  0
  142.2434   82.7724  223.9833 H   0  0  0  0  0  0  0  0  0  0  0  0
  139.9021   81.9114  223.9831 H   0  0  0  0  0  0  0  0  0  0  0  0
  139.4559   79.5520  223.5136 H   0  0  0  0  0  0  0  0  0  0  0  0
  141.9397   77.1516  222.2921 H   0  0  0  0  0  0  0  0  0  0  0  0
  141.1856   77.0331  223.9221 H   0  0  0  0  0  0  0  0  0  0  0  0
  138.9053   78.0062  220.6000 H   0  0  0  0  0  0  0  0  0  0  0  0
  140.3879   78.8957  220.8633 H   0  0  0  0  0  0  0  0  0  0  0  0
  140.4299   76.7065  219.2494 H   0  0  0  0  0  0  0  0  0  0  0  0
  141.7798   76.8948  220.3386 H   0  0  0  0  0  0  0  0  0  0  0  0
  139.5629   74.9242  220.4357 H   0  0  0  0  0  0  0  0  0  0  0  0
  142.2280   75.0380  221.7490 H   0  0  0  0  0  0  0  0  0  0  0  0
  137.5598   69.8959  223.4344 H   0  0  0  0  0  0  0  0  0  0  0  0
  138.9806   69.1007  222.5973 H   0  0  0  0  0  0  0  0  0  0  0  0
  137.7513   68.3891  225.0183 H   0  0  0  0  0  0  0  0  0  0  0  0
  139.2608   67.7302  224.2138 H   0  0  0  0  0  0  0  0  0  0  0  0
  139.7958   67.0836  226.5274 H   0  0  0  0  0  0  0  0  0  0  0  0
  141.2016   67.8121  228.4390 H   0  0  0  0  0  0  0  0  0  0  0  0
  141.7969   70.2073  228.7558 H   0  0  0  0  0  0  0  0  0  0  0  0
  140.9557   71.8847  227.1115 H   0  0  0  0  0  0  0  0  0  0  0  0
  138.4319   71.7425  225.2659 H   0  0  0  0  0  0  0  0  0  0  0  0
  140.1042   72.2865  224.9780 H   0  0  0  0  0  0  0  0  0  0  0  0
  140.8201   68.5687  219.5009 H   0  0  0  0  0  0  0  0  0  0  0  0
  140.1943   69.9135  218.5202 H   0  0  0  0  0  0  0  0  0  0  0  0
  141.3393   68.1771  217.0909 H   0  0  0  0  0  0  0  0  0  0  0  0
  142.1905   69.7160  216.9795 H   0  0  0  0  0  0  0  0  0  0  0  0
  142.8645   66.3112  217.3579 H   0  0  0  0  0  0  0  0  0  0  0  0
  144.9228   65.4290  218.4868 H   0  0  0  0  0  0  0  0  0  0  0  0
  146.2534   66.8412  219.9738 H   0  0  0  0  0  0  0  0  0  0  0  0
  145.6126   69.2074  220.4165 H   0  0  0  0  0  0  0  0  0  0  0  0
  143.9083   70.9347  220.1572 H   0  0  0  0  0  0  0  0  0  0  0  0
  143.5861   71.0830  218.4293 H   0  0  0  0  0  0  0  0  0  0  0  0
  138.3533   76.0701  222.0813 H   0  0  0  0  0  0  0  0  0  0  0  0
  139.6178   75.5334  223.1799 H   0  0  0  0  0  0  0  0  0  0  0  0
  143.6396   78.8438  223.0263 H   0  0  0  0  0  0  0  0  0  0  0  0
  144.0997   81.1931  223.4975 H   0  0  0  0  0  0  0  0  0  0  0  0
  1  2  2  0
  2  3  1  0
  3  4  2  0
  4  5  1  0
  5  6  1  0
  6  7  1  0
  7  8  1  0
  8  9  1  0
  9 10  1  0
 10 11  1  0
 11 12  2  0
 12 13  1  0
 13 14  1  0
 14 15  1  0
 15 16  1  0
 16 17  1  0
 17 18  2  0
 18 19  1  0
 19 20  2  0
 20 21  1  0
 21 22  2  0
 22 23  1  0
 13 24  2  0
 24 25  1  0
 25 26  1  0
 26 27  1  0
 27 28  1  0
 28 29  1  0
 29 30  2  0
 30 31  1  0
 31 32  2  0
 32 33  1  0
 33 34  2  0
 34 35  1  0
 25 36  2  0
  9 37  1  0
  4 38  1  0
 38 39  2  0
 39  1  1  0
 37  6  1  0
 36 11  1  0
 23 14  1  0
 35 26  1  0
 22 17  1  0
 34 29  1  0
  1 40  1  0
  2 41  1  0
  3 42  1  0
  5 43  1  0
  5 44  1  0
  7 45  1  0
  7 46  1  0
  8 47  1  0
  8 48  1  0
  9 49  1  6
 10 50  1  0
 15 51  1  0
 15 52  1  0
 16 53  1  0
 16 54  1  0
 18 55  1  0
 19 56  1  0
 20 57  1  0
 21 58  1  0
 23 59  1  0
 23 60  1  0
 27 61  1  0
 27 62  1  0
 28 63  1  0
 28 64  1  0
 30 65  1  0
 31 66  1  0
 32 67  1  0
 33 68  1  0
 35 69  1  0
 35 70  1  0
 37 71  1  0
 37 72  1  0
 38 73  1  0
 39 74  1  0
M  END
>  <smiles>  (11) 
c1ccc(CN2CC[C@@H](Nc3nc(N4CCc5ccccc5C4)nc(N4CCc5ccccc5C4)n3)C2)cc1

>  <score_type>  (11) 
oracle

>  <origin>  (11) 
autodockgpu

>  <m_score__min__energy>  (11) 
-11.06

>  <m_primary>  (11) 
energy

>  <rmsd>  (11) 
3.5679388454569723

>  <m_score__min__rmsd>  (11) 
3.5679388454569723

>  <meeko>  (11) 
{"free_energy": -10.43, "intermolecular_energy": -12.22, "internal_energy": -1.36, "cluster_size": 8, "cluster_id": 1, "rank_in_cluster": 8}

>  <energy>  (11) 
-10.87

>  <cluster_rmsd>  (11) 
1.09

>  <cluster>  (11) 
2

$$$$

     RDKit          3D

 74 80  0  0  0  0  0  0  0  0999 V2000
  142.5630   79.9680  222.7640 C   0  0  0  0  0  0  0  0  0  0  0  0
  141.8890   80.3160  221.6080 C   0  0  0  0  0  0  0  0  0  0  0  0
  140.7350   79.6660  221.2600 C   0  0  0  0  0  0  0  0  0  0  0  0
  140.1890   78.6390  222.0390 C   0  0  0  0  0  0  0  0  0  0  0  0
  138.9320   77.9920  221.6150 C   0  0  0  0  0  0  0  0  0  0  0  0
  138.0000   77.9760  222.6990 N   0  0  0  0  0  0  0  0  0  0  0  0
  136.7430   78.5240  222.3120 C   0  0  0  0  0  0  0  0  0  0  0  0
  136.1770   77.4430  221.3810 C   0  0  0  0  0  0  0  0  0  0  0  0
  136.6550   76.1720  222.0440 C   0  0  1  0  0  0  0  0  0  0  0  0
  137.2610   75.2440  221.1050 N   0  0  0  0  0  0  0  0  0  0  0  0
  138.5380   74.6620  221.4060 C   0  0  0  0  0  0  0  0  0  0  0  0
  139.6790   75.1830  220.9340 N   0  0  0  0  0  0  0  0  0  0  0  0
  140.8630   74.6310  221.2220 C   0  0  0  0  0  0  0  0  0  0  0  0
  142.0850   75.1840  220.7210 N   0  0  0  0  0  0  0  0  0  0  0  0
  143.2570   74.3980  220.4530 C   0  0  0  0  0  0  0  0  0  0  0  0
  143.9440   74.7460  219.1640 C   0  0  0  0  0  0  0  0  0  0  0  0
  143.3640   75.8970  218.4620 C   0  0  0  0  0  0  0  0  0  0  0  0
  143.6950   76.0820  217.1330 C   0  0  0  0  0  0  0  0  0  0  0  0
  143.1600   77.1640  216.4400 C   0  0  0  0  0  0  0  0  0  0  0  0
  142.2990   78.0670  217.0500 C   0  0  0  0  0  0  0  0  0  0  0  0
  141.9760   77.8720  218.3720 C   0  0  0  0  0  0  0  0  0  0  0  0
  142.5150   76.7950  219.0450 C   0  0  0  0  0  0  0  0  0  0  0  0
  142.1490   76.6100  220.4690 C   0  0  0  0  0  0  0  0  0  0  0  0
  140.9070   73.5280  222.0030 N   0  0  0  0  0  0  0  0  0  0  0  0
  139.7700   72.9740  222.4990 C   0  0  0  0  0  0  0  0  0  0  0  0
  139.7880   71.8130  223.3230 N   0  0  0  0  0  0  0  0  0  0  0  0
  138.5620   71.0770  223.5480 C   0  0  0  0  0  0  0  0  0  0  0  0
  138.9450   69.7730  224.2230 C   0  0  0  0  0  0  0  0  0  0  0  0
  139.6430   70.1890  225.4860 C   0  0  0  0  0  0  0  0  0  0  0  0
  139.2300   69.7610  226.7300 C   0  0  0  0  0  0  0  0  0  0  0  0
  139.9680   70.2220  227.8150 C   0  0  0  0  0  0  0  0  0  0  0  0
  141.0470   71.0570  227.6530 C   0  0  0  0  0  0  0  0  0  0  0  0
  141.4550   71.4790  226.4060 C   0  0  0  0  0  0  0  0  0  0  0  0
  140.7270   71.0260  225.3250 C   0  0  0  0  0  0  0  0  0  0  0  0
  141.0610   71.4080  223.9160 C   0  0  0  0  0  0  0  0  0  0  0  0
  138.6040   73.5660  222.1800 N   0  0  0  0  0  0  0  0  0  0  0  0
  137.6420   76.6220  223.0980 C   0  0  0  0  0  0  0  0  0  0  0  0
  140.8890   78.3220  223.1810 C   0  0  0  0  0  0  0  0  0  0  0  0
  142.0430   78.9600  223.5450 C   0  0  0  0  0  0  0  0  0  0  0  0
  143.4911   80.4832  223.0525 H   0  0  0  0  0  0  0  0  0  0  0  0
  142.2812   81.1180  220.9654 H   0  0  0  0  0  0  0  0  0  0  0  0
  140.2184   79.9616  220.3349 H   0  0  0  0  0  0  0  0  0  0  0  0
  138.5006   78.5517  220.7720 H   0  0  0  0  0  0  0  0  0  0  0  0
  139.1446   76.9578  221.3066 H   0  0  0  0  0  0  0  0  0  0  0  0
  136.0912   78.6770  223.1848 H   0  0  0  0  0  0  0  0  0  0  0  0
  136.8253   79.5119  221.8352 H   0  0  0  0  0  0  0  0  0  0  0  0
  135.0785   77.4845  221.3425 H   0  0  0  0  0  0  0  0  0  0  0  0
  136.5016   77.5456  220.3350 H   0  0  0  0  0  0  0  0  0  0  0  0
  135.8127   75.6133  222.4781 H   0  0  0  0  0  0  0  0  0  0  0  0
  136.8080   74.9710  220.2040 H   0  0  0  0  0  0  0  0  0  0  0  0
  143.9703   74.5486  221.2768 H   0  0  0  0  0  0  0  0  0  0  0  0
  142.9260   73.3527  220.3651 H   0  0  0  0  0  0  0  0  0  0  0  0
  144.9974   74.9726  219.3853 H   0  0  0  0  0  0  0  0  0  0  0  0
  143.8239   73.8782  218.4988 H   0  0  0  0  0  0  0  0  0  0  0  0
  144.3751   75.3805  216.6275 H   0  0  0  0  0  0  0  0  0  0  0  0
  143.4259   77.3076  215.3823 H   0  0  0  0  0  0  0  0  0  0  0  0
  141.8854   78.9179  216.4888 H   0  0  0  0  0  0  0  0  0  0  0  0
  141.2959   78.5664  218.8870 H   0  0  0  0  0  0  0  0  0  0  0  0
  142.9099   77.0718  221.1153 H   0  0  0  0  0  0  0  0  0  0  0  0
  141.1808   77.0853  220.6849 H   0  0  0  0  0  0  0  0  0  0  0  0
  137.8882   71.6550  224.1976 H   0  0  0  0  0  0  0  0  0  0  0  0
  138.0373   70.8889  222.5997 H   0  0  0  0  0  0  0  0  0  0  0  0
  138.0493   69.1773  224.4528 H   0  0  0  0  0  0  0  0  0  0  0  0
  139.5815   69.1441  223.5832 H   0  0  0  0  0  0  0  0  0  0  0  0
  138.3656   69.0927  226.8571 H   0  0  0  0  0  0  0  0  0  0  0  0
  139.6802   69.9098  228.8297 H   0  0  0  0  0  0  0  0  0  0  0  0
  141.5994   71.3974  228.5413 H   0  0  0  0  0  0  0  0  0  0  0  0
  142.3205   72.1458  226.2785 H   0  0  0  0  0  0  0  0  0  0  0  0
  141.7776   72.2425  223.9010 H   0  0  0  0  0  0  0  0  0  0  0  0
  141.5301   70.5806  223.3633 H   0  0  0  0  0  0  0  0  0  0  0  0
  137.1764   76.6194  224.0946 H   0  0  0  0  0  0  0  0  0  0  0  0
  138.5165   75.9583  223.1663 H   0  0  0  0  0  0  0  0  0  0  0  0
  140.5038   77.5209  223.8290 H   0  0  0  0  0  0  0  0  0  0  0  0
  142.5603   78.6652  224.4699 H   0  0  0  0  0  0  0  0  0  0  0  0
  1  2  2  0
  2  3  1  0
  3  4  2  0
  4  5  1  0
  5  6  1  0
  6  7  1  0
  7  8  1  0
  8  9  1  0
  9 10  1  0
 10 11  1  0
 11 12  2  0
 12 13  1  0
 13 14  1  0
 14 15  1  0
 15 16  1  0
 16 17  1  0
 17 18  2  0
 18 19  1  0
 19 20  2  0
 20 21  1  0
 21 22  2  0
 22 23  1  0
 13 24  2  0
 24 25  1  0
 25 26  1  0
 26 27  1  0
 27 28  1  0
 28 29  1  0
 29 30  2  0
 30 31  1  0
 31 32  2  0
 32 33  1  0
 33 34  2  0
 34 35  1  0
 25 36  2  0
  9 37  1  0
  4 38  1  0
 38 39  2  0
 39  1  1  0
 37  6  1  0
 36 11  1  0
 23 14  1  0
 35 26  1  0
 22 17  1  0
 34 29  1  0
  1 40  1  0
  2 41  1  0
  3 42  1  0
  5 43  1  0
  5 44  1  0
  7 45  1  0
  7 46  1  0
  8 47  1  0
  8 48  1  0
  9 49  1  1
 10 50  1  0
 15 51  1  0
 15 52  1  0
 16 53  1  0
 16 54  1  0
 18 55  1  0
 19 56  1  0
 20 57  1  0
 21 58  1  0
 23 59  1  0
 23 60  1  0
 27 61  1  0
 27 62  1  0
 28 63  1  0
 28 64  1  0
 30 65  1  0
 31 66  1  0
 32 67  1  0
 33 68  1  0
 35 69  1  0
 35 70  1  0
 37 71  1  0
 37 72  1  0
 38 73  1  0
 39 74  1  0
M  END
>  <smiles>  (12) 
c1ccc(CN2CC[C@@H](Nc3nc(N4CCc5ccccc5C4)nc(N4CCc5ccccc5C4)n3)C2)cc1

>  <score_type>  (12) 
oracle

>  <origin>  (12) 
autodockgpu

>  <m_score__min__energy>  (12) 
-11.06

>  <m_primary>  (12) 
energy

>  <rmsd>  (12) 
4.591119727267579

>  <m_score__min__rmsd>  (12) 
4.591119727267579

>  <meeko>  (12) 
{"free_energy": -9.44, "intermolecular_energy": -11.23, "internal_energy": -2.61, "cluster_size": 11, "cluster_id": 6, "rank_in_cluster": 9}

>  <energy>  (12) 
-10.82

>  <cluster_rmsd>  (12) 
0.33

>  <cluster>  (12) 
2

$$$$

     RDKit          3D

 74 80  0  0  0  0  0  0  0  0999 V2000
  142.5350   80.1060  222.6910 C   0  0  0  0  0  0  0  0  0  0  0  0
  142.1540   79.0740  223.5300 C   0  0  0  0  0  0  0  0  0  0  0  0
  141.0940   78.2740  223.2010 C   0  0  0  0  0  0  0  0  0  0  0  0
  140.3550   78.4510  222.0250 C   0  0  0  0  0  0  0  0  0  0  0  0
  139.2340   77.5410  221.7240 C   0  0  0  0  0  0  0  0  0  0  0  0
  138.2150   77.6740  222.7180 N   0  0  0  0  0  0  0  0  0  0  0  0
  137.0740   78.3570  222.2050 C   0  0  0  0  0  0  0  0  0  0  0  0
  136.4630   77.3230  221.2510 C   0  0  0  0  0  0  0  0  0  0  0  0
  136.7200   76.0250  221.9830 C   0  0  1  0  0  0  0  0  0  0  0  0
  137.2870   75.0000  221.1240 N   0  0  0  0  0  0  0  0  0  0  0  0
  138.5590   74.4240  221.4520 C   0  0  0  0  0  0  0  0  0  0  0  0
  139.7050   74.9200  220.9650 N   0  0  0  0  0  0  0  0  0  0  0  0
  140.8850   74.3730  221.2790 C   0  0  0  0  0  0  0  0  0  0  0  0
  142.1120   74.8990  220.7620 N   0  0  0  0  0  0  0  0  0  0  0  0
  143.2790   74.0970  220.5250 C   0  0  0  0  0  0  0  0  0  0  0  0
  143.9720   74.3930  219.2270 C   0  0  0  0  0  0  0  0  0  0  0  0
  143.4010   75.5220  218.4820 C   0  0  0  0  0  0  0  0  0  0  0  0
  143.7360   75.6570  217.1480 C   0  0  0  0  0  0  0  0  0  0  0  0
  143.2110   76.7170  216.4160 C   0  0  0  0  0  0  0  0  0  0  0  0
  142.3540   77.6470  216.9900 C   0  0  0  0  0  0  0  0  0  0  0  0
  142.0270   77.5020  218.3180 C   0  0  0  0  0  0  0  0  0  0  0  0
  142.5570   76.4460  219.0300 C   0  0  0  0  0  0  0  0  0  0  0  0
  142.1850   76.3150  220.4580 C   0  0  0  0  0  0  0  0  0  0  0  0
  140.9200   73.3010  222.1020 N   0  0  0  0  0  0  0  0  0  0  0  0
  139.7780   72.7720  222.6140 C   0  0  0  0  0  0  0  0  0  0  0  0
  139.7870   71.6440  223.4830 N   0  0  0  0  0  0  0  0  0  0  0  0
  138.5610   70.9090  223.7110 C   0  0  0  0  0  0  0  0  0  0  0  0
  138.9380   69.6350  224.4440 C   0  0  0  0  0  0  0  0  0  0  0  0
  139.6080   70.1030  225.7030 C   0  0  0  0  0  0  0  0  0  0  0  0
  139.1720   69.7200  226.9540 C   0  0  0  0  0  0  0  0  0  0  0  0
  139.8850   70.2280  228.0350 C   0  0  0  0  0  0  0  0  0  0  0  0
  140.9620   71.0630  227.8630 C   0  0  0  0  0  0  0  0  0  0  0  0
  141.3920   71.4400  226.6090 C   0  0  0  0  0  0  0  0  0  0  0  0
  140.6900   70.9410  225.5320 C   0  0  0  0  0  0  0  0  0  0  0  0
  141.0500   71.2710  224.1160 C   0  0  0  0  0  0  0  0  0  0  0  0
  138.6160   73.3580  222.2690 N   0  0  0  0  0  0  0  0  0  0  0  0
  137.6570   76.3870  223.1120 C   0  0  0  0  0  0  0  0  0  0  0  0
  140.7640   79.4880  221.2180 C   0  0  0  0  0  0  0  0  0  0  0  0
  141.8220   80.2990  221.5290 C   0  0  0  0  0  0  0  0  0  0  0  0
  143.3855   80.7555  222.9456 H   0  0  0  0  0  0  0  0  0  0  0  0
  142.7054   78.8960  224.4650 H   0  0  0  0  0  0  0  0  0  0  0  0
  140.8117   77.4611  223.8862 H   0  0  0  0  0  0  0  0  0  0  0  0
  138.8159   77.7920  220.7380 H   0  0  0  0  0  0  0  0  0  0  0  0
  139.6017   76.5043  221.7207 H   0  0  0  0  0  0  0  0  0  0  0  0
  136.3718   78.6169  223.0108 H   0  0  0  0  0  0  0  0  0  0  0  0
  137.3197   79.3110  221.7156 H   0  0  0  0  0  0  0  0  0  0  0  0
  135.3857   77.4961  221.1116 H   0  0  0  0  0  0  0  0  0  0  0  0
  136.8886   77.3508  220.2371 H   0  0  0  0  0  0  0  0  0  0  0  0
  135.7804   75.5864  222.3501 H   0  0  0  0  0  0  0  0  0  0  0  0
  136.8080   74.6520  220.2630 H   0  0  0  0  0  0  0  0  0  0  0  0
  143.9912   74.2724  221.3448 H   0  0  0  0  0  0  0  0  0  0  0  0
  142.9406   73.0516  220.4730 H   0  0  0  0  0  0  0  0  0  0  0  0
  145.0262   74.6206  219.4432 H   0  0  0  0  0  0  0  0  0  0  0  0
  143.8487   73.5023  218.5934 H   0  0  0  0  0  0  0  0  0  0  0  0
  144.4116   74.9328  216.6694 H   0  0  0  0  0  0  0  0  0  0  0  0
  143.4817   76.8213  215.3549 H   0  0  0  0  0  0  0  0  0  0  0  0
  141.9468   78.4792  216.3970 H   0  0  0  0  0  0  0  0  0  0  0  0
  141.3511   78.2193  218.8064 H   0  0  0  0  0  0  0  0  0  0  0  0
  142.9462   76.7959  221.0899 H   0  0  0  0  0  0  0  0  0  0  0  0
  141.2186   76.8031  220.6526 H   0  0  0  0  0  0  0  0  0  0  0  0
  137.8702   71.5071  224.3235 H   0  0  0  0  0  0  0  0  0  0  0  0
  138.0573   70.6807  222.7601 H   0  0  0  0  0  0  0  0  0  0  0  0
  138.0412   69.0429  224.6790 H   0  0  0  0  0  0  0  0  0  0  0  0
  139.5911   68.9864  223.8417 H   0  0  0  0  0  0  0  0  0  0  0  0
  138.3095   69.0509  227.0893 H   0  0  0  0  0  0  0  0  0  0  0  0
  139.5781   69.9536  229.0551 H   0  0  0  0  0  0  0  0  0  0  0  0
  141.4947   71.4403  228.7484 H   0  0  0  0  0  0  0  0  0  0  0  0
  142.2553   72.1081  226.4735 H   0  0  0  0  0  0  0  0  0  0  0  0
  141.7616   72.1092  224.0831 H   0  0  0  0  0  0  0  0  0  0  0  0
  141.5352   70.4264  223.6050 H   0  0  0  0  0  0  0  0  0  0  0  0
  137.1080   76.4744  224.0612 H   0  0  0  0  0  0  0  0  0  0  0  0
  138.4330   75.6246  223.2750 H   0  0  0  0  0  0  0  0  0  0  0  0
  140.2167   79.6733  220.2820 H   0  0  0  0  0  0  0  0  0  0  0  0
  142.1051   81.1122  220.8445 H   0  0  0  0  0  0  0  0  0  0  0  0
  1  2  2  0
  2  3  1  0
  3  4  2  0
  4  5  1  0
  5  6  1  0
  6  7  1  0
  7  8  1  0
  8  9  1  0
  9 10  1  0
 10 11  1  0
 11 12  2  0
 12 13  1  0
 13 14  1  0
 14 15  1  0
 15 16  1  0
 16 17  1  0
 17 18  2  0
 18 19  1  0
 19 20  2  0
 20 21  1  0
 21 22  2  0
 22 23  1  0
 13 24  2  0
 24 25  1  0
 25 26  1  0
 26 27  1  0
 27 28  1  0
 28 29  1  0
 29 30  2  0
 30 31  1  0
 31 32  2  0
 32 33  1  0
 33 34  2  0
 34 35  1  0
 25 36  2  0
  9 37  1  0
  4 38  1  0
 38 39  2  0
 39  1  1  0
 37  6  1  0
 36 11  1  0
 23 14  1  0
 35 26  1  0
 22 17  1  0
 34 29  1  0
  1 40  1  0
  2 41  1  0
  3 42  1  0
  5 43  1  0
  5 44  1  0
  7 45  1  0
  7 46  1  0
  8 47  1  0
  8 48  1  0
  9 49  1  1
 10 50  1  0
 15 51  1  0
 15 52  1  0
 16 53  1  0
 16 54  1  0
 18 55  1  0
 19 56  1  0
 20 57  1  0
 21 58  1  0
 23 59  1  0
 23 60  1  0
 27 61  1  0
 27 62  1  0
 28 63  1  0
 28 64  1  0
 30 65  1  0
 31 66  1  0
 32 67  1  0
 33 68  1  0
 35 69  1  0
 35 70  1  0
 37 71  1  0
 37 72  1  0
 38 73  1  0
 39 74  1  0
M  END
>  <smiles>  (13) 
c1ccc(CN2CC[C@@H](Nc3nc(N4CCc5ccccc5C4)nc(N4CCc5ccccc5C4)n3)C2)cc1

>  <score_type>  (13) 
oracle

>  <origin>  (13) 
autodockgpu

>  <m_score__min__energy>  (13) 
-11.06

>  <m_primary>  (13) 
energy

>  <rmsd>  (13) 
4.753610265550779

>  <m_score__min__rmsd>  (13) 
4.753610265550779

>  <meeko>  (13) 
{"free_energy": -9.61, "intermolecular_energy": -11.4, "internal_energy": -2.41, "cluster_size": 11, "cluster_id": 6, "rank_in_cluster": 1}

>  <energy>  (13) 
-10.78

>  <cluster_rmsd>  (13) 
1.08

>  <cluster>  (13) 
2

$$$$

     RDKit          3D

 74 80  0  0  0  0  0  0  0  0999 V2000
  141.0410   69.1550  228.3290 C   0  0  0  0  0  0  0  0  0  0  0  0
  141.0410   70.5340  228.2270 C   0  0  0  0  0  0  0  0  0  0  0  0
  140.5760   71.1420  227.0920 C   0  0  0  0  0  0  0  0  0  0  0  0
  140.0860   70.4170  225.9990 C   0  0  0  0  0  0  0  0  0  0  0  0
  139.5830   71.1370  224.8130 C   0  0  0  0  0  0  0  0  0  0  0  0
  139.6750   70.3000  223.6570 N   0  0  0  0  0  0  0  0  0  0  0  0
  138.3970   69.8010  223.2730 C   0  0  0  0  0  0  0  0  0  0  0  0
  137.7020   71.0490  222.7150 C   0  0  0  0  0  0  0  0  0  0  0  0
  138.8420   71.7680  222.0320 C   0  0  1  0  0  0  0  0  0  0  0  0
  138.8990   73.1790  222.3710 N   0  0  0  0  0  0  0  0  0  0  0  0
  139.9380   74.0000  221.8200 C   0  0  0  0  0  0  0  0  0  0  0  0
  139.7990   75.3270  221.6970 N   0  0  0  0  0  0  0  0  0  0  0  0
  140.7760   76.0820  221.1810 C   0  0  0  0  0  0  0  0  0  0  0  0
  140.6320   77.5000  221.0480 N   0  0  0  0  0  0  0  0  0  0  0  0
  139.3600   78.1630  220.9830 C   0  0  0  0  0  0  0  0  0  0  0  0
  139.2790   79.4150  221.8070 C   0  0  0  0  0  0  0  0  0  0  0  0
  140.5450   79.8000  222.4450 C   0  0  0  0  0  0  0  0  0  0  0  0
  140.4990   80.7190  223.4760 C   0  0  0  0  0  0  0  0  0  0  0  0
  141.6820   81.1040  224.1000 C   0  0  0  0  0  0  0  0  0  0  0  0
  142.9120   80.5870  223.7140 C   0  0  0  0  0  0  0  0  0  0  0  0
  142.9440   79.6730  222.6880 C   0  0  0  0  0  0  0  0  0  0  0  0
  141.7630   79.3030  222.0790 C   0  0  0  0  0  0  0  0  0  0  0  0
  141.8290   78.3150  220.9760 C   0  0  0  0  0  0  0  0  0  0  0  0
  141.9240   75.4930  220.7780 N   0  0  0  0  0  0  0  0  0  0  0  0
  142.1000   74.1500  220.8890 C   0  0  0  0  0  0  0  0  0  0  0  0
  143.3000   73.5050  220.4730 N   0  0  0  0  0  0  0  0  0  0  0  0
  144.1410   74.1370  219.4780 C   0  0  0  0  0  0  0  0  0  0  0  0
  145.4460   73.3620  219.4460 C   0  0  0  0  0  0  0  0  0  0  0  0
  145.0470   71.9570  219.0990 C   0  0  0  0  0  0  0  0  0  0  0  0
  145.5740   71.2890  218.0140 C   0  0  0  0  0  0  0  0  0  0  0  0
  145.1160   69.9910  217.8100 C   0  0  0  0  0  0  0  0  0  0  0  0
  144.1910   69.4110  218.6430 C   0  0  0  0  0  0  0  0  0  0  0  0
  143.6700   70.0850  219.7270 C   0  0  0  0  0  0  0  0  0  0  0  0
  144.1190   71.3720  219.9360 C   0  0  0  0  0  0  0  0  0  0  0  0
  143.6350   72.2160  221.0750 C   0  0  0  0  0  0  0  0  0  0  0  0
  141.0880   73.4350  221.4130 N   0  0  0  0  0  0  0  0  0  0  0  0
  140.0910   71.0390  222.4730 C   0  0  0  0  0  0  0  0  0  0  0  0
  140.1030   69.0480  226.1380 C   0  0  0  0  0  0  0  0  0  0  0  0
  140.5640   68.4220  227.2650 C   0  0  0  0  0  0  0  0  0  0  0  0
  141.4124   68.6563  229.2364 H   0  0  0  0  0  0  0  0  0  0  0  0
  141.4162   71.1450  229.0613 H   0  0  0  0  0  0  0  0  0  0  0  0
  140.5878   72.2405  227.0367 H   0  0  0  0  0  0  0  0  0  0  0  0
  138.5322   71.4184  224.9763 H   0  0  0  0  0  0  0  0  0  0  0  0
  140.1908   72.0400  224.6542 H   0  0  0  0  0  0  0  0  0  0  0  0
  138.4906   69.0213  222.5028 H   0  0  0  0  0  0  0  0  0  0  0  0
  137.8468   69.3275  224.0995 H   0  0  0  0  0  0  0  0  0  0  0  0
  136.9130   70.7794  221.9975 H   0  0  0  0  0  0  0  0  0  0  0  0
  137.1942   71.6527  223.4817 H   0  0  0  0  0  0  0  0  0  0  0  0
  138.7180   71.7528  220.9391 H   0  0  0  0  0  0  0  0  0  0  0  0
  138.2090   73.6380  223.0060 H   0  0  0  0  0  0  0  0  0  0  0  0
  139.1609   78.4265  219.9337 H   0  0  0  0  0  0  0  0  0  0  0  0
  138.6165   77.4641  221.3938 H   0  0  0  0  0  0  0  0  0  0  0  0
  138.9585   80.2386  221.1521 H   0  0  0  0  0  0  0  0  0  0  0  0
  138.5650   79.2129  222.6190 H   0  0  0  0  0  0  0  0  0  0  0  0
  139.5368   81.1421  223.8003 H   0  0  0  0  0  0  0  0  0  0  0  0
  141.6419   81.8364  224.9198 H   0  0  0  0  0  0  0  0  0  0  0  0
  143.8382   80.9015  224.2173 H   0  0  0  0  0  0  0  0  0  0  0  0
  143.9001   79.2417  222.3565 H   0  0  0  0  0  0  0  0  0  0  0  0
  141.8712   78.8354  220.0078 H   0  0  0  0  0  0  0  0  0  0  0  0
  142.7293   77.6899  221.0695 H   0  0  0  0  0  0  0  0  0  0  0  0
  143.6544   74.0990  218.4922 H   0  0  0  0  0  0  0  0  0  0  0  0
  144.3172   75.1941  219.7258 H   0  0  0  0  0  0  0  0  0  0  0  0
  146.1225   73.7729  218.6821 H   0  0  0  0  0  0  0  0  0  0  0  0
  145.9859   73.4168  220.4028 H   0  0  0  0  0  0  0  0  0  0  0  0
  146.3144   71.7556  217.3476 H   0  0  0  0  0  0  0  0  0  0  0  0
  145.5054   69.4138  216.9584 H   0  0  0  0  0  0  0  0  0  0  0  0
  143.8573   68.3826  218.4402 H   0  0  0  0  0  0  0  0  0  0  0  0
  142.9306   69.6179  220.3941 H   0  0  0  0  0  0  0  0  0  0  0  0
  142.7470   71.7643  221.5412 H   0  0  0  0  0  0  0  0  0  0  0  0
  144.3910   72.3137  221.8681 H   0  0  0  0  0  0  0  0  0  0  0  0
  140.4398   70.3526  221.6874 H   0  0  0  0  0  0  0  0  0  0  0  0
  140.9281   71.7230  222.6762 H   0  0  0  0  0  0  0  0  0  0  0  0
  139.7301   68.4300  225.3079 H   0  0  0  0  0  0  0  0  0  0  0  0
  140.5533   67.3235  227.3212 H   0  0  0  0  0  0  0  0  0  0  0  0
  1  2  2  0
  2  3  1  0
  3  4  2  0
  4  5  1  0
  5  6  1  0
  6  7  1  0
  7  8  1  0
  8  9  1  0
  9 10  1  0
 10 11  1  0
 11 12  2  0
 12 13  1  0
 13 14  1  0
 14 15  1  0
 15 16  1  0
 16 17  1  0
 17 18  2  0
 18 19  1  0
 19 20  2  0
 20 21  1  0
 21 22  2  0
 22 23  1  0
 13 24  2  0
 24 25  1  0
 25 26  1  0
 26 27  1  0
 27 28  1  0
 28 29  1  0
 29 30  2  0
 30 31  1  0
 31 32  2  0
 32 33  1  0
 33 34  2  0
 34 35  1  0
 25 36  2  0
  9 37  1  0
  4 38  1  0
 38 39  2  0
 39  1  1  0
 37  6  1  0
 36 11  1  0
 23 14  1  0
 35 26  1  0
 22 17  1  0
 34 29  1  0
  1 40  1  0
  2 41  1  0
  3 42  1  0
  5 43  1  0
  5 44  1  0
  7 45  1  0
  7 46  1  0
  8 47  1  0
  8 48  1  0
  9 49  1  6
 10 50  1  0
 15 51  1  0
 15 52  1  0
 16 53  1  0
 16 54  1  0
 18 55  1  0
 19 56  1  0
 20 57  1  0
 21 58  1  0
 23 59  1  0
 23 60  1  0
 27 61  1  0
 27 62  1  0
 28 63  1  0
 28 64  1  0
 30 65  1  0
 31 66  1  0
 32 67  1  0
 33 68  1  0
 35 69  1  0
 35 70  1  0
 37 71  1  0
 37 72  1  0
 38 73  1  0
 39 74  1  0
M  END
>  <smiles>  (14) 
c1ccc(CN2CC[C@@H](Nc3nc(N4CCc5ccccc5C4)nc(N4CCc5ccccc5C4)n3)C2)cc1

>  <score_type>  (14) 
oracle

>  <origin>  (14) 
autodockgpu

>  <m_score__min__energy>  (14) 
-11.06

>  <m_primary>  (14) 
energy

>  <rmsd>  (14) 
10.588230633085054

>  <m_score__min__rmsd>  (14) 
10.588230633085054

>  <meeko>  (14) 
{"free_energy": -10.87, "intermolecular_energy": -12.66, "internal_energy": -1.46, "cluster_size": 14, "cluster_id": 2, "rank_in_cluster": 3}

>  <energy>  (14) 
-10.65

>  <cluster_rmsd>  (14) 
1.15

>  <cluster>  (14) 
2

$$$$

     RDKit          3D

 74 80  0  0  0  0  0  0  0  0999 V2000
  143.2460   77.9030  217.0820 C   0  0  0  0  0  0  0  0  0  0  0  0
  143.1170   76.8600  216.1830 C   0  0  0  0  0  0  0  0  0  0  0  0
  143.0530   75.5680  216.6310 C   0  0  0  0  0  0  0  0  0  0  0  0
  143.1160   75.2400  217.9910 C   0  0  0  0  0  0  0  0  0  0  0  0
  143.0240   73.8280  218.4050 C   0  0  0  0  0  0  0  0  0  0  0  0
  144.3350   73.2810  218.5700 N   0  0  0  0  0  0  0  0  0  0  0  0
  144.9460   73.7460  219.7700 C   0  0  0  0  0  0  0  0  0  0  0  0
  144.1500   73.0140  220.8590 C   0  0  0  0  0  0  0  0  0  0  0  0
  143.8940   71.6710  220.2150 C   0  0  1  0  0  0  0  0  0  0  0  0
  142.5080   71.2510  220.3290 N   0  0  0  0  0  0  0  0  0  0  0  0
  141.6070   71.9940  221.1620 C   0  0  0  0  0  0  0  0  0  0  0  0
  140.9910   71.4320  222.2110 N   0  0  0  0  0  0  0  0  0  0  0  0
  140.1530   72.1360  222.9800 C   0  0  0  0  0  0  0  0  0  0  0  0
  139.4920   71.5410  224.1020 N   0  0  0  0  0  0  0  0  0  0  0  0
  138.1520   71.0280  224.0500 C   0  0  0  0  0  0  0  0  0  0  0  0
  137.9750   69.7060  224.7400 C   0  0  0  0  0  0  0  0  0  0  0  0
  139.1740   69.2250  225.4390 C   0  0  0  0  0  0  0  0  0  0  0  0
  139.2220   67.8940  225.8050 C   0  0  0  0  0  0  0  0  0  0  0  0
  140.3440   67.4080  226.4690 C   0  0  0  0  0  0  0  0  0  0  0  0
  141.4230   68.2280  226.7740 C   0  0  0  0  0  0  0  0  0  0  0  0
  141.3640   69.5510  226.4030 C   0  0  0  0  0  0  0  0  0  0  0  0
  140.2440   70.0160  225.7470 C   0  0  0  0  0  0  0  0  0  0  0  0
  140.2090   71.4460  225.3590 C   0  0  0  0  0  0  0  0  0  0  0  0
  139.9250   73.4370  222.6930 N   0  0  0  0  0  0  0  0  0  0  0  0
  140.5340   74.0390  221.6380 C   0  0  0  0  0  0  0  0  0  0  0  0
  140.3120   75.4080  221.3140 N   0  0  0  0  0  0  0  0  0  0  0  0
  140.4770   75.8540  219.9460 C   0  0  0  0  0  0  0  0  0  0  0  0
  139.9200   77.2630  219.8690 C   0  0  0  0  0  0  0  0  0  0  0  0
  140.7250   78.0470  220.8640 C   0  0  0  0  0  0  0  0  0  0  0  0
  141.4220   79.1830  220.5140 C   0  0  0  0  0  0  0  0  0  0  0  0
  142.1260   79.8120  221.5360 C   0  0  0  0  0  0  0  0  0  0  0  0
  142.1250   79.3260  222.8200 C   0  0  0  0  0  0  0  0  0  0  0  0
  141.4240   78.1890  223.1630 C   0  0  0  0  0  0  0  0  0  0  0  0
  140.7240   77.5600  222.1550 C   0  0  0  0  0  0  0  0  0  0  0  0
  139.9220   76.3170  222.3890 C   0  0  0  0  0  0  0  0  0  0  0  0
  141.3670   73.2890  220.8940 N   0  0  0  0  0  0  0  0  0  0  0  0
  144.3090   71.8380  218.7710 C   0  0  0  0  0  0  0  0  0  0  0  0
  143.2450   76.3060  218.8530 C   0  0  0  0  0  0  0  0  0  0  0  0
  143.3090   77.6040  218.4250 C   0  0  0  0  0  0  0  0  0  0  0  0
  143.2970   78.9450  216.7333 H   0  0  0  0  0  0  0  0  0  0  0  0
  143.0657   77.0693  215.1043 H   0  0  0  0  0  0  0  0  0  0  0  0
  142.9481   74.7571  215.8952 H   0  0  0  0  0  0  0  0  0  0  0  0
  142.4792   73.7625  219.3584 H   0  0  0  0  0  0  0  0  0  0  0  0
  142.4896   73.2584  217.6304 H   0  0  0  0  0  0  0  0  0  0  0  0
  146.0108   73.4720  219.8050 H   0  0  0  0  0  0  0  0  0  0  0  0
  144.9248   74.8408  219.8750 H   0  0  0  0  0  0  0  0  0  0  0  0
  144.7395   72.9085  221.7817 H   0  0  0  0  0  0  0  0  0  0  0  0
  143.2338   73.5394  221.1663 H   0  0  0  0  0  0  0  0  0  0  0  0
  144.4645   70.8769  220.7189 H   0  0  0  0  0  0  0  0  0  0  0  0
  142.1240   70.4200  219.8250 H   0  0  0  0  0  0  0  0  0  0  0  0
  137.4832   71.7593  224.5275 H   0  0  0  0  0  0  0  0  0  0  0  0
  137.9150   70.8661  222.9881 H   0  0  0  0  0  0  0  0  0  0  0  0
  137.1641   69.8073  225.4763 H   0  0  0  0  0  0  0  0  0  0  0  0
  137.7498   68.9684  223.9557 H   0  0  0  0  0  0  0  0  0  0  0  0
  138.3807   67.2242  225.5736 H   0  0  0  0  0  0  0  0  0  0  0  0
  140.3774   66.3477  226.7598 H   0  0  0  0  0  0  0  0  0  0  0  0
  142.3031   67.8289  227.2994 H   0  0  0  0  0  0  0  0  0  0  0  0
  142.2001   70.2298  226.6269 H   0  0  0  0  0  0  0  0  0  0  0  0
  139.6903   72.0320  226.1321 H   0  0  0  0  0  0  0  0  0  0  0  0
  141.2294   71.8430  225.2531 H   0  0  0  0  0  0  0  0  0  0  0  0
  141.5430   75.8537  219.6745 H   0  0  0  0  0  0  0  0  0  0  0  0
  139.9511   75.1852  219.2488 H   0  0  0  0  0  0  0  0  0  0  0  0
  140.0465   77.6752  218.8570 H   0  0  0  0  0  0  0  0  0  0  0  0
  138.8424   77.2966  220.0873 H   0  0  0  0  0  0  0  0  0  0  0  0
  141.4218   79.5707  219.4846 H   0  0  0  0  0  0  0  0  0  0  0  0
  142.6989   80.7232  221.3091 H   0  0  0  0  0  0  0  0  0  0  0  0
  142.6978   79.8569  223.5947 H   0  0  0  0  0  0  0  0  0  0  0  0
  141.4232   77.8019  224.1926 H   0  0  0  0  0  0  0  0  0  0  0  0
  140.1617   75.8811  223.3701 H   0  0  0  0  0  0  0  0  0  0  0  0
  138.8403   76.5169  222.3893 H   0  0  0  0  0  0  0  0  0  0  0  0
  145.3042   71.4023  218.5984 H   0  0  0  0  0  0  0  0  0  0  0  0
  143.6262   71.3284  218.0752 H   0  0  0  0  0  0  0  0  0  0  0  0
  143.2990   76.1052  219.9332 H   0  0  0  0  0  0  0  0  0  0  0  0
  143.4117   78.4159  219.1600 H   0  0  0  0  0  0  0  0  0  0  0  0
  1  2  2  0
  2  3  1  0
  3  4  2  0
  4  5  1  0
  5  6  1  0
  6  7  1  0
  7  8  1  0
  8  9  1  0
  9 10  1  0
 10 11  1  0
 11 12  2  0
 12 13  1  0
 13 14  1  0
 14 15  1  0
 15 16  1  0
 16 17  1  0
 17 18  2  0
 18 19  1  0
 19 20  2  0
 20 21  1  0
 21 22  2  0
 22 23  1  0
 13 24  2  0
 24 25  1  0
 25 26  1  0
 26 27  1  0
 27 28  1  0
 28 29  1  0
 29 30  2  0
 30 31  1  0
 31 32  2  0
 32 33  1  0
 33 34  2  0
 34 35  1  0
 25 36  2  0
  9 37  1  0
  4 38  1  0
 38 39  2  0
 39  1  1  0
 37  6  1  0
 36 11  1  0
 23 14  1  0
 35 26  1  0
 22 17  1  0
 34 29  1  0
  1 40  1  0
  2 41  1  0
  3 42  1  0
  5 43  1  0
  5 44  1  0
  7 45  1  0
  7 46  1  0
  8 47  1  0
  8 48  1  0
  9 49  1  1
 10 50  1  0
 15 51  1  0
 15 52  1  0
 16 53  1  0
 16 54  1  0
 18 55  1  0
 19 56  1  0
 20 57  1  0
 21 58  1  0
 23 59  1  0
 23 60  1  0
 27 61  1  0
 27 62  1  0
 28 63  1  0
 28 64  1  0
 30 65  1  0
 31 66  1  0
 32 67  1  0
 33 68  1  0
 35 69  1  0
 35 70  1  0
 37 71  1  0
 37 72  1  0
 38 73  1  0
 39 74  1  0
M  END
>  <smiles>  (15) 
c1ccc(CN2CC[C@@H](Nc3nc(N4CCc5ccccc5C4)nc(N4CCc5ccccc5C4)n3)C2)cc1

>  <score_type>  (15) 
oracle

>  <origin>  (15) 
autodockgpu

>  <m_score__min__energy>  (15) 
-11.06

>  <m_primary>  (15) 
energy

>  <rmsd>  (15) 
6.736943236359285

>  <m_score__min__rmsd>  (15) 
6.736943236359285

>  <meeko>  (15) 
{"free_energy": -9.56, "intermolecular_energy": -11.35, "internal_energy": -2.43, "cluster_size": 10, "cluster_id": 3, "rank_in_cluster": 7}

>  <energy>  (15) 
-10.61

>  <cluster_rmsd>  (15) 
0.99

>  <cluster>  (15) 
2

$$$$

     RDKit          3D

 74 80  0  0  0  0  0  0  0  0999 V2000
  132.3150   74.1470  227.6160 C   0  0  0  0  0  0  0  0  0  0  0  0
  132.8460   73.0500  226.9620 C   0  0  0  0  0  0  0  0  0  0  0  0
  133.7520   73.2210  225.9510 C   0  0  0  0  0  0  0  0  0  0  0  0
  134.1810   74.4860  225.5320 C   0  0  0  0  0  0  0  0  0  0  0  0
  135.1730   74.5980  224.4470 C   0  0  0  0  0  0  0  0  0  0  0  0
  134.5640   75.1640  223.2840 N   0  0  0  0  0  0  0  0  0  0  0  0
  134.6630   76.5860  223.2850 C   0  0  0  0  0  0  0  0  0  0  0  0
  136.1550   76.8210  223.0170 C   0  0  0  0  0  0  0  0  0  0  0  0
  136.4820   75.7060  222.0500 C   0  0  1  0  0  0  0  0  0  0  0  0
  137.6890   74.9840  222.4150 N   0  0  0  0  0  0  0  0  0  0  0  0
  138.9720   75.5860  222.1890 C   0  0  0  0  0  0  0  0  0  0  0  0
  139.3020   76.7670  222.7290 N   0  0  0  0  0  0  0  0  0  0  0  0
  140.5020   77.3170  222.5100 C   0  0  0  0  0  0  0  0  0  0  0  0
  140.8600   78.5780  223.0860 N   0  0  0  0  0  0  0  0  0  0  0  0
  142.2160   78.9700  223.3520 C   0  0  0  0  0  0  0  0  0  0  0  0
  142.5300   80.3870  222.9670 C   0  0  0  0  0  0  0  0  0  0  0  0
  141.3720   81.1540  222.4910 C   0  0  0  0  0  0  0  0  0  0  0  0
  141.6090   82.3300  221.8050 C   0  0  0  0  0  0  0  0  0  0  0  0
  140.5320   83.0790  221.3420 C   0  0  0  0  0  0  0  0  0  0  0  0
  139.2190   82.6750  221.5500 C   0  0  0  0  0  0  0  0  0  0  0  0
  138.9960   81.5030  222.2340 C   0  0  0  0  0  0  0  0  0  0  0  0
  140.0750   80.7730  222.6870 C   0  0  0  0  0  0  0  0  0  0  0  0
  139.8030   79.5130  223.4200 C   0  0  0  0  0  0  0  0  0  0  0  0
  141.3950   76.6700  221.7290 N   0  0  0  0  0  0  0  0  0  0  0  0
  141.0930   75.4700  221.1650 C   0  0  0  0  0  0  0  0  0  0  0  0
  142.0160   74.7670  220.3390 N   0  0  0  0  0  0  0  0  0  0  0  0
  141.6720   73.4500  219.8460 C   0  0  0  0  0  0  0  0  0  0  0  0
  142.7080   73.0840  218.7990 C   0  0  0  0  0  0  0  0  0  0  0  0
  144.0210   73.1370  219.5270 C   0  0  0  0  0  0  0  0  0  0  0  0
  144.8810   72.0610  219.5700 C   0  0  0  0  0  0  0  0  0  0  0  0
  146.0640   72.2480  220.2800 C   0  0  0  0  0  0  0  0  0  0  0  0
  146.3540   73.4370  220.9010 C   0  0  0  0  0  0  0  0  0  0  0  0
  145.4890   74.5100  220.8520 C   0  0  0  0  0  0  0  0  0  0  0  0
  144.3140   74.3320  220.1500 C   0  0  0  0  0  0  0  0  0  0  0  0
  143.2870   75.4140  220.0190 C   0  0  0  0  0  0  0  0  0  0  0  0
  139.8740   74.9590  221.4150 N   0  0  0  0  0  0  0  0  0  0  0  0
  135.2690   74.8030  222.0610 C   0  0  0  0  0  0  0  0  0  0  0  0
  133.6300   75.5520  226.2060 C   0  0  0  0  0  0  0  0  0  0  0  0
  132.7230   75.4020  227.2210 C   0  0  0  0  0  0  0  0  0  0  0  0
  131.5861   74.0206  228.4301 H   0  0  0  0  0  0  0  0  0  0  0  0
  132.5386   72.0356  227.2560 H   0  0  0  0  0  0  0  0  0  0  0  0
  134.1586   72.3309  225.4485 H   0  0  0  0  0  0  0  0  0  0  0  0
  136.0008   75.2437  224.7755 H   0  0  0  0  0  0  0  0  0  0  0  0
  135.5556   73.5960  224.2028 H   0  0  0  0  0  0  0  0  0  0  0  0
  134.0431   77.0272  222.4906 H   0  0  0  0  0  0  0  0  0  0  0  0
  134.3096   77.0473  224.2190 H   0  0  0  0  0  0  0  0  0  0  0  0
  136.3286   77.8075  222.5625 H   0  0  0  0  0  0  0  0  0  0  0  0
  136.7745   76.8147  223.9259 H   0  0  0  0  0  0  0  0  0  0  0  0
  136.6918   76.1043  221.0463 H   0  0  0  0  0  0  0  0  0  0  0  0
  137.6730   74.0310  222.8430 H   0  0  0  0  0  0  0  0  0  0  0  0
  142.4041   78.8548  224.4297 H   0  0  0  0  0  0  0  0  0  0  0  0
  142.8600   78.3236  222.7376 H   0  0  0  0  0  0  0  0  0  0  0  0
  142.9445   80.8996  223.8476 H   0  0  0  0  0  0  0  0  0  0  0  0
  143.2404   80.3359  222.1287 H   0  0  0  0  0  0  0  0  0  0  0  0
  142.6396   82.6707  221.6267 H   0  0  0  0  0  0  0  0  0  0  0  0
  140.7248   84.0150  220.7973 H   0  0  0  0  0  0  0  0  0  0  0  0
  138.3782   83.2780  221.1766 H   0  0  0  0  0  0  0  0  0  0  0  0
  137.9698   81.1521  222.4176 H   0  0  0  0  0  0  0  0  0  0  0  0
  139.7976   79.7024  224.5035 H   0  0  0  0  0  0  0  0  0  0  0  0
  138.8211   79.1049  223.1382 H   0  0  0  0  0  0  0  0  0  0  0  0
  141.6931   72.7209  220.6694 H   0  0  0  0  0  0  0  0  0  0  0  0
  140.6597   73.4438  219.4157 H   0  0  0  0  0  0  0  0  0  0  0  0
  142.5226   72.0733  218.4065 H   0  0  0  0  0  0  0  0  0  0  0  0
  142.6838   73.7634  217.9342 H   0  0  0  0  0  0  0  0  0  0  0  0
  144.6462   71.1088  219.0719 H   0  0  0  0  0  0  0  0  0  0  0  0
  146.7857   71.4204  220.3449 H   0  0  0  0  0  0  0  0  0  0  0  0
  147.3008   73.5367  221.4520 H   0  0  0  0  0  0  0  0  0  0  0  0
  145.7244   75.4627  221.3489 H   0  0  0  0  0  0  0  0  0  0  0  0
  143.4938   76.2314  220.7254 H   0  0  0  0  0  0  0  0  0  0  0  0
  143.2825   75.8611  219.0140 H   0  0  0  0  0  0  0  0  0  0  0  0
  134.6382   74.9866  221.1787 H   0  0  0  0  0  0  0  0  0  0  0  0
  135.5378   73.7368  222.0294 H   0  0  0  0  0  0  0  0  0  0  0  0
  133.9315   76.5695  225.9166 H   0  0  0  0  0  0  0  0  0  0  0  0
  132.3168   76.2913  227.7252 H   0  0  0  0  0  0  0  0  0  0  0  0
  1  2  2  0
  2  3  1  0
  3  4  2  0
  4  5  1  0
  5  6  1  0
  6  7  1  0
  7  8  1  0
  8  9  1  0
  9 10  1  0
 10 11  1  0
 11 12  2  0
 12 13  1  0
 13 14  1  0
 14 15  1  0
 15 16  1  0
 16 17  1  0
 17 18  2  0
 18 19  1  0
 19 20  2  0
 20 21  1  0
 21 22  2  0
 22 23  1  0
 13 24  2  0
 24 25  1  0
 25 26  1  0
 26 27  1  0
 27 28  1  0
 28 29  1  0
 29 30  2  0
 30 31  1  0
 31 32  2  0
 32 33  1  0
 33 34  2  0
 34 35  1  0
 25 36  2  0
  9 37  1  0
  4 38  1  0
 38 39  2  0
 39  1  1  0
 37  6  1  0
 36 11  1  0
 23 14  1  0
 35 26  1  0
 22 17  1  0
 34 29  1  0
  1 40  1  0
  2 41  1  0
  3 42  1  0
  5 43  1  0
  5 44  1  0
  7 45  1  0
  7 46  1  0
  8 47  1  0
  8 48  1  0
  9 49  1  6
 10 50  1  0
 15 51  1  0
 15 52  1  0
 16 53  1  0
 16 54  1  0
 18 55  1  0
 19 56  1  0
 20 57  1  0
 21 58  1  0
 23 59  1  0
 23 60  1  0
 27 61  1  0
 27 62  1  0
 28 63  1  0
 28 64  1  0
 30 65  1  0
 31 66  1  0
 32 67  1  0
 33 68  1  0
 35 69  1  0
 35 70  1  0
 37 71  1  0
 37 72  1  0
 38 73  1  0
 39 74  1  0
M  END
>  <smiles>  (16) 
c1ccc(CN2CC[C@@H](Nc3nc(N4CCc5ccccc5C4)nc(N4CCc5ccccc5C4)n3)C2)cc1

>  <score_type>  (16) 
oracle

>  <origin>  (16) 
autodockgpu

>  <m_score__min__energy>  (16) 
-11.06

>  <m_primary>  (16) 
energy

>  <rmsd>  (16) 
9.104407100016058

>  <m_score__min__rmsd>  (16) 
9.104407100016058

>  <meeko>  (16) 
{"free_energy": -9.91, "intermolecular_energy": -11.7, "internal_energy": -1.44, "cluster_size": 2, "cluster_id": 5, "rank_in_cluster": 1}

>  <energy>  (16) 
-10.55

>  <cluster_rmsd>  (16) 
0.99

>  <cluster>  (16) 
2

$$$$

     RDKit          3D

 74 80  0  0  0  0  0  0  0  0999 V2000
  141.0730   69.2370  228.3960 C   0  0  0  0  0  0  0  0  0  0  0  0
  140.6140   68.5160  227.3090 C   0  0  0  0  0  0  0  0  0  0  0  0
  140.1690   69.1650  226.1880 C   0  0  0  0  0  0  0  0  0  0  0  0
  140.1550   70.5610  226.0860 C   0  0  0  0  0  0  0  0  0  0  0  0
  139.6790   71.1960  224.8420 C   0  0  0  0  0  0  0  0  0  0  0  0
  140.0170   70.3810  223.7170 N   0  0  0  0  0  0  0  0  0  0  0  0
  138.9000   69.6160  223.2730 C   0  0  0  0  0  0  0  0  0  0  0  0
  137.9920   70.6790  222.6430 C   0  0  0  0  0  0  0  0  0  0  0  0
  138.9940   71.6160  222.0070 C   0  0  1  0  0  0  0  0  0  0  0  0
  138.7280   73.0110  222.3110 N   0  0  0  0  0  0  0  0  0  0  0  0
  139.7030   74.0080  221.9740 C   0  0  0  0  0  0  0  0  0  0  0  0
  140.7490   73.7340  221.1820 N   0  0  0  0  0  0  0  0  0  0  0  0
  141.6510   74.6740  220.8760 C   0  0  0  0  0  0  0  0  0  0  0  0
  142.7690   74.3860  220.0300 N   0  0  0  0  0  0  0  0  0  0  0  0
  144.0830   74.9240  220.2450 C   0  0  0  0  0  0  0  0  0  0  0  0
  145.1900   73.9260  220.0650 C   0  0  0  0  0  0  0  0  0  0  0  0
  144.7450   72.6080  219.5960 C   0  0  0  0  0  0  0  0  0  0  0  0
  145.6160   71.5440  219.7240 C   0  0  0  0  0  0  0  0  0  0  0  0
  145.2230   70.2830  219.2880 C   0  0  0  0  0  0  0  0  0  0  0  0
  143.9720   70.0630  218.7250 C   0  0  0  0  0  0  0  0  0  0  0  0
  143.1140   71.1300  218.6030 C   0  0  0  0  0  0  0  0  0  0  0  0
  143.5190   72.3730  219.0400 C   0  0  0  0  0  0  0  0  0  0  0  0
  142.5720   73.5040  218.8960 C   0  0  0  0  0  0  0  0  0  0  0  0
  141.5030   75.9210  221.3750 N   0  0  0  0  0  0  0  0  0  0  0  0
  140.4550   76.2340  222.1810 C   0  0  0  0  0  0  0  0  0  0  0  0
  140.2760   77.5400  222.7200 N   0  0  0  0  0  0  0  0  0  0  0  0
  138.9590   78.1410  222.7140 C   0  0  0  0  0  0  0  0  0  0  0  0
  139.0350   79.3850  223.5790 C   0  0  0  0  0  0  0  0  0  0  0  0
  140.0930   80.2340  222.9340 C   0  0  0  0  0  0  0  0  0  0  0  0
  139.8490   81.5290  222.5270 C   0  0  0  0  0  0  0  0  0  0  0  0
  140.9200   82.2010  221.9450 C   0  0  0  0  0  0  0  0  0  0  0  0
  142.1470   81.6060  221.7860 C   0  0  0  0  0  0  0  0  0  0  0  0
  142.3830   80.3120  222.1970 C   0  0  0  0  0  0  0  0  0  0  0  0
  141.3260   79.6390  222.7750 C   0  0  0  0  0  0  0  0  0  0  0  0
  141.4450   78.2280  223.2650 C   0  0  0  0  0  0  0  0  0  0  0  0
  139.5750   75.2550  222.4600 N   0  0  0  0  0  0  0  0  0  0  0  0
  140.3390   71.1760  222.5390 C   0  0  0  0  0  0  0  0  0  0  0  0
  140.6190   71.2420  227.1880 C   0  0  0  0  0  0  0  0  0  0  0  0
  141.0690   70.6110  228.3160 C   0  0  0  0  0  0  0  0  0  0  0  0
  141.4321   68.7256  229.3013 H   0  0  0  0  0  0  0  0  0  0  0  0
  140.6062   67.4166  227.3448 H   0  0  0  0  0  0  0  0  0  0  0  0
  139.8096   68.5676  225.3371 H   0  0  0  0  0  0  0  0  0  0  0  0
  138.5867   71.3167  224.8894 H   0  0  0  0  0  0  0  0  0  0  0  0
  140.1585   72.1799  224.7323 H   0  0  0  0  0  0  0  0  0  0  0  0
  139.2044   68.8638  222.5303 H   0  0  0  0  0  0  0  0  0  0  0  0
  138.4124   69.0475  224.0787 H   0  0  0  0  0  0  0  0  0  0  0  0
  137.3240   70.2373  221.8889 H   0  0  0  0  0  0  0  0  0  0  0  0
  137.3215   71.1710  223.3630 H   0  0  0  0  0  0  0  0  0  0  0  0
  138.9450   71.5603  220.9095 H   0  0  0  0  0  0  0  0  0  0  0  0
  137.8480   73.3340  222.7700 H   0  0  0  0  0  0  0  0  0  0  0  0
  144.2404   75.7470  219.5323 H   0  0  0  0  0  0  0  0  0  0  0  0
  144.1225   75.2566  221.2928 H   0  0  0  0  0  0  0  0  0  0  0  0
  145.9024   74.3304  219.3309 H   0  0  0  0  0  0  0  0  0  0  0  0
  145.6396   73.7720  221.0571 H   0  0  0  0  0  0  0  0  0  0  0  0
  146.6119   71.6924  220.1669 H   0  0  0  0  0  0  0  0  0  0  0  0
  145.9203   69.4386  219.3915 H   0  0  0  0  0  0  0  0  0  0  0  0
  143.6755   69.0597  218.3853 H   0  0  0  0  0  0  0  0  0  0  0  0
  142.1157   70.9935  218.1617 H   0  0  0  0  0  0  0  0  0  0  0  0
  142.7735   74.0454  217.9599 H   0  0  0  0  0  0  0  0  0  0  0  0
  141.5349   73.1388  218.8655 H   0  0  0  0  0  0  0  0  0  0  0  0
  138.6721   78.4118  221.6872 H   0  0  0  0  0  0  0  0  0  0  0  0
  138.2056   77.4392  223.1011 H   0  0  0  0  0  0  0  0  0  0  0  0
  138.0686   79.9104  223.5886 H   0  0  0  0  0  0  0  0  0  0  0  0
  139.2722   79.1493  224.6269 H   0  0  0  0  0  0  0  0  0  0  0  0
  138.8648   82.0034  222.6549 H   0  0  0  0  0  0  0  0  0  0  0  0
  140.7795   83.2370  221.6032 H   0  0  0  0  0  0  0  0  0  0  0  0
  142.9628   82.1769  221.3185 H   0  0  0  0  0  0  0  0  0  0  0  0
  143.3675   79.8379  222.0703 H   0  0  0  0  0  0  0  0  0  0  0  0
  142.3727   77.7669  222.8950 H   0  0  0  0  0  0  0  0  0  0  0  0
  141.4829   78.1730  224.3630 H   0  0  0  0  0  0  0  0  0  0  0  0
  140.8735   70.5691  221.7934 H   0  0  0  0  0  0  0  0  0  0  0  0
  140.9974   72.0258  222.7723 H   0  0  0  0  0  0  0  0  0  0  0  0
  140.6287   72.3416  227.1611 H   0  0  0  0  0  0  0  0  0  0  0  0
  141.4308   71.2074  229.1665 H   0  0  0  0  0  0  0  0  0  0  0  0
  1  2  2  0
  2  3  1  0
  3  4  2  0
  4  5  1  0
  5  6  1  0
  6  7  1  0
  7  8  1  0
  8  9  1  0
  9 10  1  0
 10 11  1  0
 11 12  2  0
 12 13  1  0
 13 14  1  0
 14 15  1  0
 15 16  1  0
 16 17  1  0
 17 18  2  0
 18 19  1  0
 19 20  2  0
 20 21  1  0
 21 22  2  0
 22 23  1  0
 13 24  2  0
 24 25  1  0
 25 26  1  0
 26 27  1  0
 27 28  1  0
 28 29  1  0
 29 30  2  0
 30 31  1  0
 31 32  2  0
 32 33  1  0
 33 34  2  0
 34 35  1  0
 25 36  2  0
  9 37  1  0
  4 38  1  0
 38 39  2  0
 39  1  1  0
 37  6  1  0
 36 11  1  0
 23 14  1  0
 35 26  1  0
 22 17  1  0
 34 29  1  0
  1 40  1  0
  2 41  1  0
  3 42  1  0
  5 43  1  0
  5 44  1  0
  7 45  1  0
  7 46  1  0
  8 47  1  0
  8 48  1  0
  9 49  1  6
 10 50  1  0
 15 51  1  0
 15 52  1  0
 16 53  1  0
 16 54  1  0
 18 55  1  0
 19 56  1  0
 20 57  1  0
 21 58  1  0
 23 59  1  0
 23 60  1  0
 27 61  1  0
 27 62  1  0
 28 63  1  0
 28 64  1  0
 30 65  1  0
 31 66  1  0
 32 67  1  0
 33 68  1  0
 35 69  1  0
 35 70  1  0
 37 71  1  0
 37 72  1  0
 38 73  1  0
 39 74  1  0
M  END
>  <smiles>  (17) 
c1ccc(CN2CC[C@@H](Nc3nc(N4CCc5ccccc5C4)nc(N4CCc5ccccc5C4)n3)C2)cc1

>  <score_type>  (17) 
oracle

>  <origin>  (17) 
autodockgpu

>  <m_score__min__energy>  (17) 
-11.06

>  <m_primary>  (17) 
energy

>  <rmsd>  (17) 
10.698003428725585

>  <m_score__min__rmsd>  (17) 
10.698003428725585

>  <meeko>  (17) 
{"free_energy": -10.96, "intermolecular_energy": -12.75, "internal_energy": -1.53, "cluster_size": 14, "cluster_id": 2, "rank_in_cluster": 1}

>  <energy>  (17) 
-10.53

>  <cluster_rmsd>  (17) 
0.87

>  <cluster>  (17) 
2

$$$$

     RDKit          3D

 74 80  0  0  0  0  0  0  0  0999 V2000
  141.0120   69.3020  228.1130 C   0  0  0  0  0  0  0  0  0  0  0  0
  141.0280   70.6850  228.1000 C   0  0  0  0  0  0  0  0  0  0  0  0
  140.6440   71.3680  226.9770 C   0  0  0  0  0  0  0  0  0  0  0  0
  140.2240   70.7190  225.8100 C   0  0  0  0  0  0  0  0  0  0  0  0
  139.8080   71.5170  224.6420 C   0  0  0  0  0  0  0  0  0  0  0  0
  140.0090   70.7680  223.4400 N   0  0  0  0  0  0  0  0  0  0  0  0
  138.8310   70.0580  223.0660 C   0  0  0  0  0  0  0  0  0  0  0  0
  137.8960   71.1800  222.5970 C   0  0  0  0  0  0  0  0  0  0  0  0
  138.8570   72.1310  221.9210 C   0  0  1  0  0  0  0  0  0  0  0  0
  138.6650   73.5100  222.3330 N   0  0  0  0  0  0  0  0  0  0  0  0
  139.6580   74.4930  222.0100 C   0  0  0  0  0  0  0  0  0  0  0  0
  139.6760   75.6990  222.5960 N   0  0  0  0  0  0  0  0  0  0  0  0
  140.6080   76.6060  222.2850 C   0  0  0  0  0  0  0  0  0  0  0  0
  140.6310   77.8950  222.9090 N   0  0  0  0  0  0  0  0  0  0  0  0
  141.6960   78.3410  223.7630 C   0  0  0  0  0  0  0  0  0  0  0  0
  142.1290   79.7560  223.5130 C   0  0  0  0  0  0  0  0  0  0  0  0
  141.3180   80.4690  222.5170 C   0  0  0  0  0  0  0  0  0  0  0  0
  141.8300   81.6320  221.9750 C   0  0  0  0  0  0  0  0  0  0  0  0
  141.0850   82.3290  221.0280 C   0  0  0  0  0  0  0  0  0  0  0  0
  139.8360   81.8870  220.6120 C   0  0  0  0  0  0  0  0  0  0  0  0
  139.3380   80.7270  221.1590 C   0  0  0  0  0  0  0  0  0  0  0  0
  140.0880   80.0480  222.0960 C   0  0  0  0  0  0  0  0  0  0  0  0
  139.5260   78.8020  222.6670 C   0  0  0  0  0  0  0  0  0  0  0  0
  141.5490   76.3010  221.3630 N   0  0  0  0  0  0  0  0  0  0  0  0
  141.5620   75.0880  220.7500 C   0  0  0  0  0  0  0  0  0  0  0  0
  142.5410   74.7410  219.7770 N   0  0  0  0  0  0  0  0  0  0  0  0
  142.1190   74.3420  218.4500 C   0  0  0  0  0  0  0  0  0  0  0  0
  143.3640   74.3010  217.5830 C   0  0  0  0  0  0  0  0  0  0  0  0
  144.2650   73.3080  218.2570 C   0  0  0  0  0  0  0  0  0  0  0  0
  144.7660   72.2050  217.5990 C   0  0  0  0  0  0  0  0  0  0  0  0
  145.5910   71.3670  218.3440 C   0  0  0  0  0  0  0  0  0  0  0  0
  145.8860   71.6260  219.6600 C   0  0  0  0  0  0  0  0  0  0  0  0
  145.3820   72.7320  220.3100 C   0  0  0  0  0  0  0  0  0  0  0  0
  144.5640   73.5680  219.5780 C   0  0  0  0  0  0  0  0  0  0  0  0
  143.9490   74.8020  220.1620 C   0  0  0  0  0  0  0  0  0  0  0  0
  140.6030   74.2100  221.0970 N   0  0  0  0  0  0  0  0  0  0  0  0
  140.2350   71.6280  222.2860 C   0  0  0  0  0  0  0  0  0  0  0  0
  140.2230   69.3440  225.8630 C   0  0  0  0  0  0  0  0  0  0  0  0
  140.6020   68.6430  226.9760 C   0  0  0  0  0  0  0  0  0  0  0  0
  141.3191   68.7429  229.0091 H   0  0  0  0  0  0  0  0  0  0  0  0
  141.3502   71.2380  228.9946 H   0  0  0  0  0  0  0  0  0  0  0  0
  140.6664   72.4677  226.9925 H   0  0  0  0  0  0  0  0  0  0  0  0
  138.7426   71.7737  224.7372 H   0  0  0  0  0  0  0  0  0  0  0  0
  140.4113   72.4358  224.5996 H   0  0  0  0  0  0  0  0  0  0  0  0
  139.0376   69.3476  222.2520 H   0  0  0  0  0  0  0  0  0  0  0  0
  138.4099   69.4508  223.8809 H   0  0  0  0  0  0  0  0  0  0  0  0
  137.1433   70.8028  221.8891 H   0  0  0  0  0  0  0  0  0  0  0  0
  137.3153   71.6409  223.4096 H   0  0  0  0  0  0  0  0  0  0  0  0
  138.6963   72.1446  220.8329 H   0  0  0  0  0  0  0  0  0  0  0  0
  137.8240   73.8320  222.8640 H   0  0  0  0  0  0  0  0  0  0  0  0
  141.3580   78.2623  224.8068 H   0  0  0  0  0  0  0  0  0  0  0  0
  142.5643   77.7006  223.5487 H   0  0  0  0  0  0  0  0  0  0  0  0
  142.0708   80.3071  224.4632 H   0  0  0  0  0  0  0  0  0  0  0  0
  143.1512   79.7062  223.1098 H   0  0  0  0  0  0  0  0  0  0  0  0
  142.8167   82.0036  222.2887 H   0  0  0  0  0  0  0  0  0  0  0  0
  141.4964   83.2541  220.5979 H   0  0  0  0  0  0  0  0  0  0  0  0
  139.2592   82.4503  219.8637 H   0  0  0  0  0  0  0  0  0  0  0  0
  138.3529   80.3456  220.8524 H   0  0  0  0  0  0  0  0  0  0  0  0
  139.0076   79.0225  223.6118 H   0  0  0  0  0  0  0  0  0  0  0  0
  138.8004   78.3516  221.9738 H   0  0  0  0  0  0  0  0  0  0  0  0
  141.6503   73.3475  218.4855 H   0  0  0  0  0  0  0  0  0  0  0  0
  141.3803   75.0485  218.0436 H   0  0  0  0  0  0  0  0  0  0  0  0
  143.1161   73.9704  216.5636 H   0  0  0  0  0  0  0  0  0  0  0  0
  143.8350   75.2901  217.4840 H   0  0  0  0  0  0  0  0  0  0  0  0
  144.5274   71.9988  216.5452 H   0  0  0  0  0  0  0  0  0  0  0  0
  146.0181   70.4733  217.8657 H   0  0  0  0  0  0  0  0  0  0  0  0
  146.5409   70.9335  220.2091 H   0  0  0  0  0  0  0  0  0  0  0  0
  145.6209   72.9387  221.3637 H   0  0  0  0  0  0  0  0  0  0  0  0
  144.0506   74.8035  221.2573 H   0  0  0  0  0  0  0  0  0  0  0  0
  144.4373   75.7185  219.7993 H   0  0  0  0  0  0  0  0  0  0  0  0
  140.6746   71.0574  221.4546 H   0  0  0  0  0  0  0  0  0  0  0  0
  140.9379   72.4460  222.5021 H   0  0  0  0  0  0  0  0  0  0  0  0
  139.9037   68.7836  224.9720 H   0  0  0  0  0  0  0  0  0  0  0  0
  140.5788   67.5433  226.9617 H   0  0  0  0  0  0  0  0  0  0  0  0
  1  2  2  0
  2  3  1  0
  3  4  2  0
  4  5  1  0
  5  6  1  0
  6  7  1  0
  7  8  1  0
  8  9  1  0
  9 10  1  0
 10 11  1  0
 11 12  2  0
 12 13  1  0
 13 14  1  0
 14 15  1  0
 15 16  1  0
 16 17  1  0
 17 18  2  0
 18 19  1  0
 19 20  2  0
 20 21  1  0
 21 22  2  0
 22 23  1  0
 13 24  2  0
 24 25  1  0
 25 26  1  0
 26 27  1  0
 27 28  1  0
 28 29  1  0
 29 30  2  0
 30 31  1  0
 31 32  2  0
 32 33  1  0
 33 34  2  0
 34 35  1  0
 25 36  2  0
  9 37  1  0
  4 38  1  0
 38 39  2  0
 39  1  1  0
 37  6  1  0
 36 11  1  0
 23 14  1  0
 35 26  1  0
 22 17  1  0
 34 29  1  0
  1 40  1  0
  2 41  1  0
  3 42  1  0
  5 43  1  0
  5 44  1  0
  7 45  1  0
  7 46  1  0
  8 47  1  0
  8 48  1  0
  9 49  1  6
 10 50  1  0
 15 51  1  0
 15 52  1  0
 16 53  1  0
 16 54  1  0
 18 55  1  0
 19 56  1  0
 20 57  1  0
 21 58  1  0
 23 59  1  0
 23 60  1  0
 27 61  1  0
 27 62  1  0
 28 63  1  0
 28 64  1  0
 30 65  1  0
 31 66  1  0
 32 67  1  0
 33 68  1  0
 35 69  1  0
 35 70  1  0
 37 71  1  0
 37 72  1  0
 38 73  1  0
 39 74  1  0
M  END
>  <smiles>  (18) 
c1ccc(CN2CC[C@@H](Nc3nc(N4CCc5ccccc5C4)nc(N4CCc5ccccc5C4)n3)C2)cc1

>  <score_type>  (18) 
oracle

>  <origin>  (18) 
autodockgpu

>  <m_score__min__energy>  (18) 
-11.06

>  <m_primary>  (18) 
energy

>  <rmsd>  (18) 
10.314751360023978

>  <m_score__min__rmsd>  (18) 
10.314751360023978

>  <meeko>  (18) 
{"free_energy": -10.53, "intermolecular_energy": -12.32, "internal_energy": -1.43, "cluster_size": 14, "cluster_id": 2, "rank_in_cluster": 9}

>  <energy>  (18) 
-10.48

>  <cluster_rmsd>  (18) 
0.89

>  <cluster>  (18) 
2

$$$$

     RDKit          3D

 74 80  0  0  0  0  0  0  0  0999 V2000
  142.5430   80.2570  222.8670 C   0  0  0  0  0  0  0  0  0  0  0  0
  142.1530   79.2770  223.7610 C   0  0  0  0  0  0  0  0  0  0  0  0
  141.1490   78.4060  223.4350 C   0  0  0  0  0  0  0  0  0  0  0  0
  140.4780   78.4590  222.2080 C   0  0  0  0  0  0  0  0  0  0  0  0
  139.4160   77.4780  221.9150 C   0  0  0  0  0  0  0  0  0  0  0  0
  138.3400   77.6300  222.8440 N   0  0  0  0  0  0  0  0  0  0  0  0
  137.2910   78.4270  222.3000 C   0  0  0  0  0  0  0  0  0  0  0  0
  136.6780   77.5000  221.2420 C   0  0  0  0  0  0  0  0  0  0  0  0
  136.7870   76.1460  221.9050 C   0  0  1  0  0  0  0  0  0  0  0  0
  137.3390   75.1330  221.0220 N   0  0  0  0  0  0  0  0  0  0  0  0
  138.6020   74.5290  221.3380 C   0  0  0  0  0  0  0  0  0  0  0  0
  139.7520   74.9910  220.8290 N   0  0  0  0  0  0  0  0  0  0  0  0
  140.9230   74.4180  221.1310 C   0  0  0  0  0  0  0  0  0  0  0  0
  142.1540   74.9080  220.5900 N   0  0  0  0  0  0  0  0  0  0  0  0
  143.2430   74.0550  220.2040 C   0  0  0  0  0  0  0  0  0  0  0  0
  143.8820   74.4320  218.8990 C   0  0  0  0  0  0  0  0  0  0  0  0
  143.3560   75.6660  218.3030 C   0  0  0  0  0  0  0  0  0  0  0  0
  143.6250   75.9110  216.9700 C   0  0  0  0  0  0  0  0  0  0  0  0
  143.1390   77.0720  216.3770 C   0  0  0  0  0  0  0  0  0  0  0  0
  142.3880   77.9960  217.0900 C   0  0  0  0  0  0  0  0  0  0  0  0
  142.1260   77.7420  218.4160 C   0  0  0  0  0  0  0  0  0  0  0  0
  142.6150   76.5870  218.9890 C   0  0  0  0  0  0  0  0  0  0  0  0
  142.3160   76.3390  220.4190 C   0  0  0  0  0  0  0  0  0  0  0  0
  140.9440   73.3550  221.9650 N   0  0  0  0  0  0  0  0  0  0  0  0
  139.7960   72.8600  222.5000 C   0  0  0  0  0  0  0  0  0  0  0  0
  139.7910   71.7420  223.3810 N   0  0  0  0  0  0  0  0  0  0  0  0
  138.5480   71.0490  223.6470 C   0  0  0  0  0  0  0  0  0  0  0  0
  138.9020   69.7710  224.3860 C   0  0  0  0  0  0  0  0  0  0  0  0
  139.6170   70.2310  225.6230 C   0  0  0  0  0  0  0  0  0  0  0  0
  139.2000   69.8760  226.8880 C   0  0  0  0  0  0  0  0  0  0  0  0
  139.9560   70.3720  227.9460 C   0  0  0  0  0  0  0  0  0  0  0  0
  141.0540   71.1700  227.7390 C   0  0  0  0  0  0  0  0  0  0  0  0
  141.4650   71.5200  226.4700 C   0  0  0  0  0  0  0  0  0  0  0  0
  140.7210   71.0310  225.4160 C   0  0  0  0  0  0  0  0  0  0  0  0
  141.0560   71.3350  223.9880 C   0  0  0  0  0  0  0  0  0  0  0  0
  138.6450   73.4710  222.1650 N   0  0  0  0  0  0  0  0  0  0  0  0
  137.6640   76.3680  223.1160 C   0  0  0  0  0  0  0  0  0  0  0  0
  140.8940   79.4480  221.3460 C   0  0  0  0  0  0  0  0  0  0  0  0
  141.8970   80.3280  221.6530 C   0  0  0  0  0  0  0  0  0  0  0  0
  143.3488   80.9620  223.1191 H   0  0  0  0  0  0  0  0  0  0  0  0
  142.6517   79.1971  224.7382 H   0  0  0  0  0  0  0  0  0  0  0  0
  140.8586   77.6356  224.1645 H   0  0  0  0  0  0  0  0  0  0  0  0
  139.0413   77.6410  220.8937 H   0  0  0  0  0  0  0  0  0  0  0  0
  139.8285   76.4621  222.0034 H   0  0  0  0  0  0  0  0  0  0  0  0
  136.5528   78.6915  223.0714 H   0  0  0  0  0  0  0  0  0  0  0  0
  137.6391   79.3869  221.8908 H   0  0  0  0  0  0  0  0  0  0  0  0
  135.6289   77.7626  221.0408 H   0  0  0  0  0  0  0  0  0  0  0  0
  137.1771   77.5548  220.2633 H   0  0  0  0  0  0  0  0  0  0  0  0
  135.7942   75.7599  222.1792 H   0  0  0  0  0  0  0  0  0  0  0  0
  136.8570   74.8140  220.1530 H   0  0  0  0  0  0  0  0  0  0  0  0
  144.0111   74.0978  220.9902 H   0  0  0  0  0  0  0  0  0  0  0  0
  142.8254   73.0457  220.0736 H   0  0  0  0  0  0  0  0  0  0  0  0
  144.9607   74.5642  219.0691 H   0  0  0  0  0  0  0  0  0  0  0  0
  143.6570   73.6199  218.1919 H   0  0  0  0  0  0  0  0  0  0  0  0
  144.2181   75.1945  216.3828 H   0  0  0  0  0  0  0  0  0  0  0  0
  143.3556   77.2625  215.3155 H   0  0  0  0  0  0  0  0  0  0  0  0
  142.0114   78.9094  216.6063 H   0  0  0  0  0  0  0  0  0  0  0  0
  141.5336   78.4516  219.0122 H   0  0  0  0  0  0  0  0  0  0  0  0
  143.1460   76.7001  221.0441 H   0  0  0  0  0  0  0  0  0  0  0  0
  141.4016   76.8707  220.7209 H   0  0  0  0  0  0  0  0  0  0  0  0
  137.8917   71.6756  224.2688 H   0  0  0  0  0  0  0  0  0  0  0  0
  138.0144   70.8265  222.7112 H   0  0  0  0  0  0  0  0  0  0  0  0
  137.9927   69.2108  224.6493 H   0  0  0  0  0  0  0  0  0  0  0  0
  139.5192   69.0951  223.7759 H   0  0  0  0  0  0  0  0  0  0  0  0
  138.3198   69.2370  227.0519 H   0  0  0  0  0  0  0  0  0  0  0  0
  139.6660   70.1178  228.9762 H   0  0  0  0  0  0  0  0  0  0  0  0
  141.6199   71.5393  228.6070 H   0  0  0  0  0  0  0  0  0  0  0  0
  142.3450   72.1592  226.3058 H   0  0  0  0  0  0  0  0  0  0  0  0
  141.7929   72.1495  223.9288 H   0  0  0  0  0  0  0  0  0  0  0  0
  141.5009   70.4697  223.4749 H   0  0  0  0  0  0  0  0  0  0  0  0
  137.0558   76.4407  224.0296 H   0  0  0  0  0  0  0  0  0  0  0  0
  138.3694   75.5404  223.2817 H   0  0  0  0  0  0  0  0  0  0  0  0
  140.3990   79.5353  220.3675 H   0  0  0  0  0  0  0  0  0  0  0  0
  142.1892   81.0981  220.9239 H   0  0  0  0  0  0  0  0  0  0  0  0
  1  2  2  0
  2  3  1  0
  3  4  2  0
  4  5  1  0
  5  6  1  0
  6  7  1  0
  7  8  1  0
  8  9  1  0
  9 10  1  0
 10 11  1  0
 11 12  2  0
 12 13  1  0
 13 14  1  0
 14 15  1  0
 15 16  1  0
 16 17  1  0
 17 18  2  0
 18 19  1  0
 19 20  2  0
 20 21  1  0
 21 22  2  0
 22 23  1  0
 13 24  2  0
 24 25  1  0
 25 26  1  0
 26 27  1  0
 27 28  1  0
 28 29  1  0
 29 30  2  0
 30 31  1  0
 31 32  2  0
 32 33  1  0
 33 34  2  0
 34 35  1  0
 25 36  2  0
  9 37  1  0
  4 38  1  0
 38 39  2  0
 39  1  1  0
 37  6  1  0
 36 11  1  0
 23 14  1  0
 35 26  1  0
 22 17  1  0
 34 29  1  0
  1 40  1  0
  2 41  1  0
  3 42  1  0
  5 43  1  0
  5 44  1  0
  7 45  1  0
  7 46  1  0
  8 47  1  0
  8 48  1  0
  9 49  1  1
 10 50  1  0
 15 51  1  0
 15 52  1  0
 16 53  1  0
 16 54  1  0
 18 55  1  0
 19 56  1  0
 20 57  1  0
 21 58  1  0
 23 59  1  0
 23 60  1  0
 27 61  1  0
 27 62  1  0
 28 63  1  0
 28 64  1  0
 30 65  1  0
 31 66  1  0
 32 67  1  0
 33 68  1  0
 35 69  1  0
 35 70  1  0
 37 71  1  0
 37 72  1  0
 38 73  1  0
 39 74  1  0
M  END
>  <smiles>  (19) 
c1ccc(CN2CC[C@@H](Nc3nc(N4CCc5ccccc5C4)nc(N4CCc5ccccc5C4)n3)C2)cc1

>  <score_type>  (19) 
oracle

>  <origin>  (19) 
autodockgpu

>  <m_score__min__energy>  (19) 
-11.06

>  <m_primary>  (19) 
energy

>  <rmsd>  (19) 
4.711967462035729

>  <m_score__min__rmsd>  (19) 
4.711967462035729

>  <meeko>  (19) 
{"free_energy": -9.53, "intermolecular_energy": -11.32, "internal_energy": -2.32, "cluster_size": 11, "cluster_id": 6, "rank_in_cluster": 3}

>  <energy>  (19) 
-10.43

>  <cluster_rmsd>  (19) 
0.49

>  <cluster>  (19) 
2

$$$$

     RDKit          3D

 74 80  0  0  0  0  0  0  0  0999 V2000
  142.4450   77.2600  217.0560 C   0  0  0  0  0  0  0  0  0  0  0  0
  142.2200   75.9020  216.9140 C   0  0  0  0  0  0  0  0  0  0  0  0
  142.5530   75.0390  217.9230 C   0  0  0  0  0  0  0  0  0  0  0  0
  143.1260   75.4730  219.1250 C   0  0  0  0  0  0  0  0  0  0  0  0
  143.4440   74.4900  220.1770 C   0  0  0  0  0  0  0  0  0  0  0  0
  144.5260   73.6550  219.7560 N   0  0  0  0  0  0  0  0  0  0  0  0
  145.0980   72.9520  220.8540 C   0  0  0  0  0  0  0  0  0  0  0  0
  144.0120   71.9250  221.2000 C   0  0  0  0  0  0  0  0  0  0  0  0
  143.4720   71.5630  219.8350 C   0  0  1  0  0  0  0  0  0  0  0  0
  142.0210   71.5880  219.7820 N   0  0  0  0  0  0  0  0  0  0  0  0
  141.2860   72.2990  220.7880 C   0  0  0  0  0  0  0  0  0  0  0  0
  140.8210   73.5380  220.5790 N   0  0  0  0  0  0  0  0  0  0  0  0
  140.1370   74.1900  221.5260 C   0  0  0  0  0  0  0  0  0  0  0  0
  139.6380   75.5140  221.3070 N   0  0  0  0  0  0  0  0  0  0  0  0
  138.2960   75.9160  221.6240 C   0  0  0  0  0  0  0  0  0  0  0  0
  138.2000   77.2580  222.2910 C   0  0  0  0  0  0  0  0  0  0  0  0
  139.4800   77.9690  222.4020 C   0  0  0  0  0  0  0  0  0  0  0  0
  139.5590   79.0300  223.2830 C   0  0  0  0  0  0  0  0  0  0  0  0
  140.7590   79.7240  223.4110 C   0  0  0  0  0  0  0  0  0  0  0  0
  141.8840   79.3770  222.6740 C   0  0  0  0  0  0  0  0  0  0  0  0
  141.7930   78.3190  221.8010 C   0  0  0  0  0  0  0  0  0  0  0  0
  140.5970   77.6420  221.6860 C   0  0  0  0  0  0  0  0  0  0  0  0
  140.5290   76.5060  220.7370 C   0  0  0  0  0  0  0  0  0  0  0  0
  139.9110   73.5870  222.7140 N   0  0  0  0  0  0  0  0  0  0  0  0
  140.3680   72.3300  222.9610 C   0  0  0  0  0  0  0  0  0  0  0  0
  140.1440   71.6720  224.2030 N   0  0  0  0  0  0  0  0  0  0  0  0
  141.0640   71.8850  225.3000 C   0  0  0  0  0  0  0  0  0  0  0  0
  140.4260   71.2830  226.5380 C   0  0  0  0  0  0  0  0  0  0  0  0
  140.2150   69.8370  226.1940 C   0  0  0  0  0  0  0  0  0  0  0  0
  140.7290   68.8160  226.9640 C   0  0  0  0  0  0  0  0  0  0  0  0
  140.4570   67.5220  226.5300 C   0  0  0  0  0  0  0  0  0  0  0  0
  139.7190   67.2790  225.3980 C   0  0  0  0  0  0  0  0  0  0  0  0
  139.2070   68.3060  224.6340 C   0  0  0  0  0  0  0  0  0  0  0  0
  139.4730   69.5920  225.0580 C   0  0  0  0  0  0  0  0  0  0  0  0
  138.9780   70.7980  224.3210 C   0  0  0  0  0  0  0  0  0  0  0  0
  141.0500   71.7170  221.9770 N   0  0  0  0  0  0  0  0  0  0  0  0
  144.0810   72.5730  218.8880 C   0  0  0  0  0  0  0  0  0  0  0  0
  143.3340   76.8300  219.2270 C   0  0  0  0  0  0  0  0  0  0  0  0
  143.0070   77.7090  218.2300 C   0  0  0  0  0  0  0  0  0  0  0  0
  142.1817   77.9626  216.2517 H   0  0  0  0  0  0  0  0  0  0  0  0
  141.7720   75.5147  215.9870 H   0  0  0  0  0  0  0  0  0  0  0  0
  142.3634   73.9643  217.7846 H   0  0  0  0  0  0  0  0  0  0  0  0
  143.7303   75.0208  221.0969 H   0  0  0  0  0  0  0  0  0  0  0  0
  142.5587   73.8652  220.3666 H   0  0  0  0  0  0  0  0  0  0  0  0
  146.0350   72.4553  220.5621 H   0  0  0  0  0  0  0  0  0  0  0  0
  145.3662   73.6046  221.6979 H   0  0  0  0  0  0  0  0  0  0  0  0
  144.4396   71.0468  221.7060 H   0  0  0  0  0  0  0  0  0  0  0  0
  143.2466   72.3063  221.8919 H   0  0  0  0  0  0  0  0  0  0  0  0
  143.7394   70.5303  219.5666 H   0  0  0  0  0  0  0  0  0  0  0  0
  141.4720   71.1060  219.0350 H   0  0  0  0  0  0  0  0  0  0  0  0
  137.7163   75.9522  220.6898 H   0  0  0  0  0  0  0  0  0  0  0  0
  137.9038   75.1775  222.3387 H   0  0  0  0  0  0  0  0  0  0  0  0
  137.5074   77.8836  221.7088 H   0  0  0  0  0  0  0  0  0  0  0  0
  137.8500   77.0758  223.3178 H   0  0  0  0  0  0  0  0  0  0  0  0
  138.6817   79.3238  223.8780 H   0  0  0  0  0  0  0  0  0  0  0  0
  140.8177   80.5684  224.1135 H   0  0  0  0  0  0  0  0  0  0  0  0
  142.8251   79.9353  222.7862 H   0  0  0  0  0  0  0  0  0  0  0  0
  142.6639   78.0160  221.2012 H   0  0  0  0  0  0  0  0  0  0  0  0
  140.1380   76.8492  219.7678 H   0  0  0  0  0  0  0  0  0  0  0  0
  141.5292   76.0789  220.5720 H   0  0  0  0  0  0  0  0  0  0  0  0
  142.0232   71.3890  225.0902 H   0  0  0  0  0  0  0  0  0  0  0  0
  141.2625   72.9575  225.4430 H   0  0  0  0  0  0  0  0  0  0  0  0
  141.0947   71.3816  227.4058 H   0  0  0  0  0  0  0  0  0  0  0  0
  139.4868   71.7874  226.8090 H   0  0  0  0  0  0  0  0  0  0  0  0
  141.3207   69.0128  227.8702 H   0  0  0  0  0  0  0  0  0  0  0  0
  140.8438   66.6708  227.1096 H   0  0  0  0  0  0  0  0  0  0  0  0
  139.5316   66.2389  225.0930 H   0  0  0  0  0  0  0  0  0  0  0  0
  138.6140   68.1095  223.7286 H   0  0  0  0  0  0  0  0  0  0  0  0
  138.6031   70.5165  223.3259 H   0  0  0  0  0  0  0  0  0  0  0  0
  138.1438   71.2890  224.8436 H   0  0  0  0  0  0  0  0  0  0  0  0
  144.9308   72.1347  218.3442 H   0  0  0  0  0  0  0  0  0  0  0  0
  143.3694   72.9138  218.1215 H   0  0  0  0  0  0  0  0  0  0  0  0
  143.7827   77.2253  220.1503 H   0  0  0  0  0  0  0  0  0  0  0  0
  143.1949   78.7840  218.3680 H   0  0  0  0  0  0  0  0  0  0  0  0
  1  2  2  0
  2  3  1  0
  3  4  2  0
  4  5  1  0
  5  6  1  0
  6  7  1  0
  7  8  1  0
  8  9  1  0
  9 10  1  0
 10 11  1  0
 11 12  2  0
 12 13  1  0
 13 14  1  0
 14 15  1  0
 15 16  1  0
 16 17  1  0
 17 18  2  0
 18 19  1  0
 19 20  2  0
 20 21  1  0
 21 22  2  0
 22 23  1  0
 13 24  2  0
 24 25  1  0
 25 26  1  0
 26 27  1  0
 27 28  1  0
 28 29  1  0
 29 30  2  0
 30 31  1  0
 31 32  2  0
 32 33  1  0
 33 34  2  0
 34 35  1  0
 25 36  2  0
  9 37  1  0
  4 38  1  0
 38 39  2  0
 39  1  1  0
 37  6  1  0
 36 11  1  0
 23 14  1  0
 35 26  1  0
 22 17  1  0
 34 29  1  0
  1 40  1  0
  2 41  1  0
  3 42  1  0
  5 43  1  0
  5 44  1  0
  7 45  1  0
  7 46  1  0
  8 47  1  0
  8 48  1  0
  9 49  1  6
 10 50  1  0
 15 51  1  0
 15 52  1  0
 16 53  1  0
 16 54  1  0
 18 55  1  0
 19 56  1  0
 20 57  1  0
 21 58  1  0
 23 59  1  0
 23 60  1  0
 27 61  1  0
 27 62  1  0
 28 63  1  0
 28 64  1  0
 30 65  1  0
 31 66  1  0
 32 67  1  0
 33 68  1  0
 35 69  1  0
 35 70  1  0
 37 71  1  0
 37 72  1  0
 38 73  1  0
 39 74  1  0
M  END
>  <smiles>  (20) 
c1ccc(CN2CC[C@@H](Nc3nc(N4CCc5ccccc5C4)nc(N4CCc5ccccc5C4)n3)C2)cc1

>  <score_type>  (20) 
oracle

>  <origin>  (20) 
autodockgpu

>  <m_score__min__energy>  (20) 
-11.06

>  <m_primary>  (20) 
energy

>  <rmsd>  (20) 
6.7186398467442725

>  <m_score__min__rmsd>  (20) 
6.7186398467442725

>  <meeko>  (20) 
{"free_energy": -9.68, "intermolecular_energy": -11.47, "internal_energy": -2.44, "cluster_size": 10, "cluster_id": 3, "rank_in_cluster": 4}

>  <energy>  (20) 
-10.42

>  <cluster_rmsd>  (20) 
0.54

>  <cluster>  (20) 
2

$$$$

     RDKit          3D

 74 80  0  0  0  0  0  0  0  0999 V2000
  144.1270   76.5580  216.3060 C   0  0  0  0  0  0  0  0  0  0  0  0
  145.0360   75.6590  215.7760 C   0  0  0  0  0  0  0  0  0  0  0  0
  145.0880   74.3750  216.2460 C   0  0  0  0  0  0  0  0  0  0  0  0
  144.2460   73.9120  217.2640 C   0  0  0  0  0  0  0  0  0  0  0  0
  144.3440   72.5100  217.7110 C   0  0  0  0  0  0  0  0  0  0  0  0
  145.4980   72.3400  218.5380 N   0  0  0  0  0  0  0  0  0  0  0  0
  145.7160   73.4780  219.3680 C   0  0  0  0  0  0  0  0  0  0  0  0
  144.5710   73.3780  220.3840 C   0  0  0  0  0  0  0  0  0  0  0  0
  144.4580   71.8850  220.5890 C   0  0  1  0  0  0  0  0  0  0  0  0
  143.0880   71.4100  220.5070 N   0  0  0  0  0  0  0  0  0  0  0  0
  142.0540   72.1000  221.2230 C   0  0  0  0  0  0  0  0  0  0  0  0
  141.2950   71.4810  222.1380 N   0  0  0  0  0  0  0  0  0  0  0  0
  140.3340   72.1360  222.7990 C   0  0  0  0  0  0  0  0  0  0  0  0
  139.5200   71.4790  223.7770 N   0  0  0  0  0  0  0  0  0  0  0  0
  138.2780   70.8290  223.4650 C   0  0  0  0  0  0  0  0  0  0  0  0
  138.0980   69.4990  224.1370 C   0  0  0  0  0  0  0  0  0  0  0  0
  139.1700   69.1480  225.0770 C   0  0  0  0  0  0  0  0  0  0  0  0
  139.2760   67.8300  225.4790 C   0  0  0  0  0  0  0  0  0  0  0  0
  140.2820   67.4660  226.3690 C   0  0  0  0  0  0  0  0  0  0  0  0
  141.1860   68.3950  226.8670 C   0  0  0  0  0  0  0  0  0  0  0  0
  141.0710   69.7030  226.4590 C   0  0  0  0  0  0  0  0  0  0  0  0
  140.0690   70.0470  225.5770 C   0  0  0  0  0  0  0  0  0  0  0  0
  139.9700   71.4650  225.1560 C   0  0  0  0  0  0  0  0  0  0  0  0
  140.1260   73.4460  222.5380 N   0  0  0  0  0  0  0  0  0  0  0  0
  140.8770   74.1060  221.6180 C   0  0  0  0  0  0  0  0  0  0  0  0
  140.6790   75.4850  221.3250 N   0  0  0  0  0  0  0  0  0  0  0  0
  141.0540   76.0000  220.0240 C   0  0  0  0  0  0  0  0  0  0  0  0
  140.4840   77.4020  219.9220 C   0  0  0  0  0  0  0  0  0  0  0  0
  141.0980   78.1490  221.0700 C   0  0  0  0  0  0  0  0  0  0  0  0
  141.8170   79.3120  220.8910 C   0  0  0  0  0  0  0  0  0  0  0  0
  142.3300   79.9010  222.0430 C   0  0  0  0  0  0  0  0  0  0  0  0
  142.1310   79.3520  223.2860 C   0  0  0  0  0  0  0  0  0  0  0  0
  141.4100   78.1900  223.4570 C   0  0  0  0  0  0  0  0  0  0  0  0
  140.8980   77.6000  222.3190 C   0  0  0  0  0  0  0  0  0  0  0  0
  140.0980   76.3350  222.3620 C   0  0  0  0  0  0  0  0  0  0  0  0
  141.8310   73.4030  220.9800 N   0  0  0  0  0  0  0  0  0  0  0  0
  145.3250   71.2710  219.5130 C   0  0  0  0  0  0  0  0  0  0  0  0
  143.3570   74.8360  217.7650 C   0  0  0  0  0  0  0  0  0  0  0  0
  143.2890   76.1250  217.3080 C   0  0  0  0  0  0  0  0  0  0  0  0
  144.0757   77.5925  215.9357 H   0  0  0  0  0  0  0  0  0  0  0  0
  145.7187   75.9776  214.9745 H   0  0  0  0  0  0  0  0  0  0  0  0
  145.8192   73.6802  215.8072 H   0  0  0  0  0  0  0  0  0  0  0  0
  143.4429   72.2466  218.2843 H   0  0  0  0  0  0  0  0  0  0  0  0
  144.4307   71.8556  216.8311 H   0  0  0  0  0  0  0  0  0  0  0  0
  146.6949   73.4236  219.8668 H   0  0  0  0  0  0  0  0  0  0  0  0
  145.7258   74.4278  218.8132 H   0  0  0  0  0  0  0  0  0  0  0  0
  144.8246   73.8917  221.3230 H   0  0  0  0  0  0  0  0  0  0  0  0
  143.6368   73.8499  220.0454 H   0  0  0  0  0  0  0  0  0  0  0  0
  144.7879   71.6002  221.5990 H   0  0  0  0  0  0  0  0  0  0  0  0
  142.8090   70.5760  219.9430 H   0  0  0  0  0  0  0  0  0  0  0  0
  137.4548   71.4883  223.7774 H   0  0  0  0  0  0  0  0  0  0  0  0
  138.2820   70.6396  222.3814 H   0  0  0  0  0  0  0  0  0  0  0  0
  137.1473   69.5181  224.6899 H   0  0  0  0  0  0  0  0  0  0  0  0
  138.1144   68.7391  223.3419 H   0  0  0  0  0  0  0  0  0  0  0  0
  138.5716   67.0755  225.0989 H   0  0  0  0  0  0  0  0  0  0  0  0
  140.3631   66.4158  226.6860 H   0  0  0  0  0  0  0  0  0  0  0  0
  141.9751   68.0918  227.5709 H   0  0  0  0  0  0  0  0  0  0  0  0
  141.7702   70.4659  226.8320 H   0  0  0  0  0  0  0  0  0  0  0  0
  139.2472   71.9963  225.7925 H   0  0  0  0  0  0  0  0  0  0  0  0
  140.9443   71.9668  225.2512 H   0  0  0  0  0  0  0  0  0  0  0  0
  142.1496   76.0298  219.9308 H   0  0  0  0  0  0  0  0  0  0  0  0
  140.6646   75.3580  219.2201 H   0  0  0  0  0  0  0  0  0  0  0  0
  140.7634   77.8653  218.9642 H   0  0  0  0  0  0  0  0  0  0  0  0
  139.3848   77.4077  219.9628 H   0  0  0  0  0  0  0  0  0  0  0  0
  141.9761   79.7494  219.8943 H   0  0  0  0  0  0  0  0  0  0  0  0
  142.9105   80.8313  221.9555 H   0  0  0  0  0  0  0  0  0  0  0  0
  142.5580   79.8525  224.1676 H   0  0  0  0  0  0  0  0  0  0  0  0
  141.2500   77.7531  224.4538 H   0  0  0  0  0  0  0  0  0  0  0  0
  140.1850   75.8559  223.3483 H   0  0  0  0  0  0  0  0  0  0  0  0
  139.0264   76.5178  222.1942 H   0  0  0  0  0  0  0  0  0  0  0  0
  146.2957   70.9587  219.9255 H   0  0  0  0  0  0  0  0  0  0  0  0
  144.8742   70.3692  219.0731 H   0  0  0  0  0  0  0  0  0  0  0  0
  142.6715   74.5254  218.5672 H   0  0  0  0  0  0  0  0  0  0  0  0
  142.5579   76.8206  217.7458 H   0  0  0  0  0  0  0  0  0  0  0  0
  1  2  2  0
  2  3  1  0
  3  4  2  0
  4  5  1  0
  5  6  1  0
  6  7  1  0
  7  8  1  0
  8  9  1  0
  9 10  1  0
 10 11  1  0
 11 12  2  0
 12 13  1  0
 13 14  1  0
 14 15  1  0
 15 16  1  0
 16 17  1  0
 17 18  2  0
 18 19  1  0
 19 20  2  0
 20 21  1  0
 21 22  2  0
 22 23  1  0
 13 24  2  0
 24 25  1  0
 25 26  1  0
 26 27  1  0
 27 28  1  0
 28 29  1  0
 29 30  2  0
 30 31  1  0
 31 32  2  0
 32 33  1  0
 33 34  2  0
 34 35  1  0
 25 36  2  0
  9 37  1  0
  4 38  1  0
 38 39  2  0
 39  1  1  0
 37  6  1  0
 36 11  1  0
 23 14  1  0
 35 26  1  0
 22 17  1  0
 34 29  1  0
  1 40  1  0
  2 41  1  0
  3 42  1  0
  5 43  1  0
  5 44  1  0
  7 45  1  0
  7 46  1  0
  8 47  1  0
  8 48  1  0
  9 49  1  1
 10 50  1  0
 15 51  1  0
 15 52  1  0
 16 53  1  0
 16 54  1  0
 18 55  1  0
 19 56  1  0
 20 57  1  0
 21 58  1  0
 23 59  1  0
 23 60  1  0
 27 61  1  0
 27 62  1  0
 28 63  1  0
 28 64  1  0
 30 65  1  0
 31 66  1  0
 32 67  1  0
 33 68  1  0
 35 69  1  0
 35 70  1  0
 37 71  1  0
 37 72  1  0
 38 73  1  0
 39 74  1  0
M  END
>  <smiles>  (21) 
c1ccc(CN2CC[C@@H](Nc3nc(N4CCc5ccccc5C4)nc(N4CCc5ccccc5C4)n3)C2)cc1

>  <score_type>  (21) 
oracle

>  <origin>  (21) 
autodockgpu

>  <m_score__min__energy>  (21) 
-11.06

>  <m_primary>  (21) 
energy

>  <rmsd>  (21) 
7.8274638909849115

>  <m_score__min__rmsd>  (21) 
7.8274638909849115

>  <meeko>  (21) 
{"free_energy": -10.22, "intermolecular_energy": -12.01, "internal_energy": -1.88, "cluster_size": 10, "cluster_id": 3, "rank_in_cluster": 1}

>  <energy>  (21) 
-10.34

>  <cluster_rmsd>  (21) 
0.54

>  <cluster>  (21) 
2

$$$$

     RDKit          3D

 74 80  0  0  0  0  0  0  0  0999 V2000
  144.3480   75.6110  214.9640 C   0  0  0  0  0  0  0  0  0  0  0  0
  143.5260   76.1480  215.9380 C   0  0  0  0  0  0  0  0  0  0  0  0
  143.5480   75.6480  217.2120 C   0  0  0  0  0  0  0  0  0  0  0  0
  144.3840   74.5890  217.5890 C   0  0  0  0  0  0  0  0  0  0  0  0
  144.3690   74.1100  218.9840 C   0  0  0  0  0  0  0  0  0  0  0  0
  145.3380   73.0730  219.1550 N   0  0  0  0  0  0  0  0  0  0  0  0
  145.7050   72.9240  220.5230 C   0  0  0  0  0  0  0  0  0  0  0  0
  144.4490   72.3000  221.1440 C   0  0  0  0  0  0  0  0  0  0  0  0
  143.9690   71.3880  220.0380 C   0  0  1  0  0  0  0  0  0  0  0  0
  142.5480   71.5280  219.7730 N   0  0  0  0  0  0  0  0  0  0  0  0
  141.7300   72.2870  220.6740 C   0  0  0  0  0  0  0  0  0  0  0  0
  141.0750   71.7090  221.6900 N   0  0  0  0  0  0  0  0  0  0  0  0
  140.3150   72.4290  222.5230 C   0  0  0  0  0  0  0  0  0  0  0  0
  139.6130   71.8160  223.6100 N   0  0  0  0  0  0  0  0  0  0  0  0
  138.2870   71.2780  223.4930 C   0  0  0  0  0  0  0  0  0  0  0  0
  138.1040   69.9500  224.1680 C   0  0  0  0  0  0  0  0  0  0  0  0
  139.2770   69.4880  224.9210 C   0  0  0  0  0  0  0  0  0  0  0  0
  139.3330   68.1560  225.2850 C   0  0  0  0  0  0  0  0  0  0  0  0
  140.4320   67.6890  225.9980 C   0  0  0  0  0  0  0  0  0  0  0  0
  141.4790   68.5280  226.3570 C   0  0  0  0  0  0  0  0  0  0  0  0
  141.4120   69.8510  225.9890 C   0  0  0  0  0  0  0  0  0  0  0  0
  140.3160   70.2980  225.2830 C   0  0  0  0  0  0  0  0  0  0  0  0
  140.2720   71.7290  224.9000 C   0  0  0  0  0  0  0  0  0  0  0  0
  140.2070   73.7630  222.3350 N   0  0  0  0  0  0  0  0  0  0  0  0
  140.8580   74.3830  221.3160 C   0  0  0  0  0  0  0  0  0  0  0  0
  140.7610   75.7860  221.0960 N   0  0  0  0  0  0  0  0  0  0  0  0
  141.3240   76.3610  219.8920 C   0  0  0  0  0  0  0  0  0  0  0  0
  140.8360   77.7950  219.8150 C   0  0  0  0  0  0  0  0  0  0  0  0
  141.3280   78.4350  221.0810 C   0  0  0  0  0  0  0  0  0  0  0  0
  142.1150   79.5670  221.0750 C   0  0  0  0  0  0  0  0  0  0  0  0
  142.5000   80.0540  222.3210 C   0  0  0  0  0  0  0  0  0  0  0  0
  142.1170   79.4400  223.4880 C   0  0  0  0  0  0  0  0  0  0  0  0
  141.3290   78.3090  223.4850 C   0  0  0  0  0  0  0  0  0  0  0  0
  140.9430   77.8200  222.2540 C   0  0  0  0  0  0  0  0  0  0  0  0
  140.0890   76.5990  222.1080 C   0  0  0  0  0  0  0  0  0  0  0  0
  141.6090   73.6160  220.5050 N   0  0  0  0  0  0  0  0  0  0  0  0
  144.8000   71.7580  218.8310 C   0  0  0  0  0  0  0  0  0  0  0  0
  145.1850   74.0820  216.5920 C   0  0  0  0  0  0  0  0  0  0  0  0
  145.1780   74.5700  215.3130 C   0  0  0  0  0  0  0  0  0  0  0  0
  144.3387   76.0056  213.9372 H   0  0  0  0  0  0  0  0  0  0  0  0
  142.8518   76.9804  215.6878 H   0  0  0  0  0  0  0  0  0  0  0  0
  142.8848   76.0942  217.9677 H   0  0  0  0  0  0  0  0  0  0  0  0
  144.6067   74.9456  219.6587 H   0  0  0  0  0  0  0  0  0  0  0  0
  143.3703   73.7134  219.2190 H   0  0  0  0  0  0  0  0  0  0  0  0
  146.5734   72.2574  220.6302 H   0  0  0  0  0  0  0  0  0  0  0  0
  146.0038   73.8692  220.9998 H   0  0  0  0  0  0  0  0  0  0  0  0
  144.6935   71.7309  222.0530 H   0  0  0  0  0  0  0  0  0  0  0  0
  143.7000   73.0389  221.4650 H   0  0  0  0  0  0  0  0  0  0  0  0
  144.0933   70.3313  220.3171 H   0  0  0  0  0  0  0  0  0  0  0  0
  142.0800   71.0980  218.9440 H   0  0  0  0  0  0  0  0  0  0  0  0
  137.5827   71.9939  223.9418 H   0  0  0  0  0  0  0  0  0  0  0  0
  138.1028   71.1173  222.4205 H   0  0  0  0  0  0  0  0  0  0  0  0
  137.2573   70.0318  224.8654 H   0  0  0  0  0  0  0  0  0  0  0  0
  137.9313   69.2124  223.3704 H   0  0  0  0  0  0  0  0  0  0  0  0
  138.5159   67.4715  225.0133 H   0  0  0  0  0  0  0  0  0  0  0  0
  140.4731   66.6279  226.2850 H   0  0  0  0  0  0  0  0  0  0  0  0
  142.3409   68.1433  226.9220 H   0  0  0  0  0  0  0  0  0  0  0  0
  142.2234   70.5444  226.2549 H   0  0  0  0  0  0  0  0  0  0  0  0
  139.7062   72.3011  225.6500 H   0  0  0  0  0  0  0  0  0  0  0  0
  141.2883   72.1463  224.8444 H   0  0  0  0  0  0  0  0  0  0  0  0
  142.4227   76.3380  219.9404 H   0  0  0  0  0  0  0  0  0  0  0  0
  141.0133   75.7924  219.0031 H   0  0  0  0  0  0  0  0  0  0  0  0
  141.2587   78.3016  218.9348 H   0  0  0  0  0  0  0  0  0  0  0  0
  139.7422   77.8571  219.7158 H   0  0  0  0  0  0  0  0  0  0  0  0
  142.4212   80.0573  220.1391 H   0  0  0  0  0  0  0  0  0  0  0  0
  143.1283   80.9555  222.3721 H   0  0  0  0  0  0  0  0  0  0  0  0
  142.4472   79.8611  224.4491 H   0  0  0  0  0  0  0  0  0  0  0  0
  141.0221   77.8190  224.4208 H   0  0  0  0  0  0  0  0  0  0  0  0
  140.0262   76.0548  223.0619 H   0  0  0  0  0  0  0  0  0  0  0  0
  139.0573   76.8485  221.8192 H   0  0  0  0  0  0  0  0  0  0  0  0
  145.6117   71.0314  218.6789 H   0  0  0  0  0  0  0  0  0  0  0  0
  144.2128   71.7612  217.9009 H   0  0  0  0  0  0  0  0  0  0  0  0
  145.8606   73.2481  216.8331 H   0  0  0  0  0  0  0  0  0  0  0  0
  145.8421   74.1259  214.5569 H   0  0  0  0  0  0  0  0  0  0  0  0
  1  2  2  0
  2  3  1  0
  3  4  2  0
  4  5  1  0
  5  6  1  0
  6  7  1  0
  7  8  1  0
  8  9  1  0
  9 10  1  0
 10 11  1  0
 11 12  2  0
 12 13  1  0
 13 14  1  0
 14 15  1  0
 15 16  1  0
 16 17  1  0
 17 18  2  0
 18 19  1  0
 19 20  2  0
 20 21  1  0
 21 22  2  0
 22 23  1  0
 13 24  2  0
 24 25  1  0
 25 26  1  0
 26 27  1  0
 27 28  1  0
 28 29  1  0
 29 30  2  0
 30 31  1  0
 31 32  2  0
 32 33  1  0
 33 34  2  0
 34 35  1  0
 25 36  2  0
  9 37  1  0
  4 38  1  0
 38 39  2  0
 39  1  1  0
 37  6  1  0
 36 11  1  0
 23 14  1  0
 35 26  1  0
 22 17  1  0
 34 29  1  0
  1 40  1  0
  2 41  1  0
  3 42  1  0
  5 43  1  0
  5 44  1  0
  7 45  1  0
  7 46  1  0
  8 47  1  0
  8 48  1  0
  9 49  1  1
 10 50  1  0
 15 51  1  0
 15 52  1  0
 16 53  1  0
 16 54  1  0
 18 55  1  0
 19 56  1  0
 20 57  1  0
 21 58  1  0
 23 59  1  0
 23 60  1  0
 27 61  1  0
 27 62  1  0
 28 63  1  0
 28 64  1  0
 30 65  1  0
 31 66  1  0
 32 67  1  0
 33 68  1  0
 35 69  1  0
 35 70  1  0
 37 71  1  0
 37 72  1  0
 38 73  1  0
 39 74  1  0
M  END
>  <smiles>  (22) 
c1ccc(CN2CC[C@@H](Nc3nc(N4CCc5ccccc5C4)nc(N4CCc5ccccc5C4)n3)C2)cc1

>  <score_type>  (22) 
oracle

>  <origin>  (22) 
autodockgpu

>  <m_score__min__energy>  (22) 
-11.06

>  <m_primary>  (22) 
energy

>  <rmsd>  (22) 
8.053316065422214

>  <m_score__min__rmsd>  (22) 
8.053316065422214

>  <meeko>  (22) 
{"free_energy": -9.64, "intermolecular_energy": -11.43, "internal_energy": -2.08, "cluster_size": 10, "cluster_id": 3, "rank_in_cluster": 5}

>  <energy>  (22) 
-9.87

>  <cluster_rmsd>  (22) 
1.25

>  <cluster>  (22) 
2

$$$$

     RDKit          3D

 74 80  0  0  0  0  0  0  0  0999 V2000
  143.6170   76.2200  219.0920 C   0  0  0  0  0  0  0  0  0  0  0  0
  144.0920   75.4080  220.1060 C   0  0  0  0  0  0  0  0  0  0  0  0
  144.5540   74.1500  219.8240 C   0  0  0  0  0  0  0  0  0  0  0  0
  144.5690   73.6300  218.5240 C   0  0  0  0  0  0  0  0  0  0  0  0
  145.0960   72.2720  218.2890 C   0  0  0  0  0  0  0  0  0  0  0  0
  144.0810   71.4470  217.7110 N   0  0  0  0  0  0  0  0  0  0  0  0
  144.4060   70.0650  217.8260 C   0  0  0  0  0  0  0  0  0  0  0  0
  144.2240   69.8000  219.3260 C   0  0  0  0  0  0  0  0  0  0  0  0
  143.0360   70.6730  219.6600 C   0  0  1  0  0  0  0  0  0  0  0  0
  143.2490   71.4780  220.8510 N   0  0  0  0  0  0  0  0  0  0  0  0
  142.1330   72.1260  221.4770 C   0  0  0  0  0  0  0  0  0  0  0  0
  141.3690   71.4990  222.3830 N   0  0  0  0  0  0  0  0  0  0  0  0
  140.3320   72.1150  222.9600 C   0  0  0  0  0  0  0  0  0  0  0  0
  139.5140   71.4500  223.9280 N   0  0  0  0  0  0  0  0  0  0  0  0
  138.2740   70.8000  223.6040 C   0  0  0  0  0  0  0  0  0  0  0  0
  138.0930   69.4640  224.2650 C   0  0  0  0  0  0  0  0  0  0  0  0
  139.1590   69.1080  225.2090 C   0  0  0  0  0  0  0  0  0  0  0  0
  139.2650   67.7870  225.6010 C   0  0  0  0  0  0  0  0  0  0  0  0
  140.2660   67.4190  226.4950 C   0  0  0  0  0  0  0  0  0  0  0  0
  141.1660   68.3450  227.0060 C   0  0  0  0  0  0  0  0  0  0  0  0
  141.0510   69.6560  226.6070 C   0  0  0  0  0  0  0  0  0  0  0  0
  140.0530   70.0050  225.7210 C   0  0  0  0  0  0  0  0  0  0  0  0
  139.9540   71.4260  225.3090 C   0  0  0  0  0  0  0  0  0  0  0  0
  140.0500   73.3940  222.6230 N   0  0  0  0  0  0  0  0  0  0  0  0
  140.8030   74.0610  221.7090 C   0  0  0  0  0  0  0  0  0  0  0  0
  140.5280   75.4070  221.3360 N   0  0  0  0  0  0  0  0  0  0  0  0
  140.7100   75.8180  219.9600 C   0  0  0  0  0  0  0  0  0  0  0  0
  140.0910   77.1970  219.8240 C   0  0  0  0  0  0  0  0  0  0  0  0
  140.8320   78.0470  220.8150 C   0  0  0  0  0  0  0  0  0  0  0  0
  141.4860   79.2040  220.4470 C   0  0  0  0  0  0  0  0  0  0  0  0
  142.1320   79.8960  221.4680 C   0  0  0  0  0  0  0  0  0  0  0  0
  142.1170   79.4490  222.7660 C   0  0  0  0  0  0  0  0  0  0  0  0
  141.4600   78.2920  223.1260 C   0  0  0  0  0  0  0  0  0  0  0  0
  140.8170   77.6010  222.1200 C   0  0  0  0  0  0  0  0  0  0  0  0
  140.0670   76.3290  222.3720 C   0  0  0  0  0  0  0  0  0  0  0  0
  141.8350   73.3970  221.1570 N   0  0  0  0  0  0  0  0  0  0  0  0
  142.8200   71.5340  218.4370 C   0  0  0  0  0  0  0  0  0  0  0  0
  144.0870   74.4670  217.5440 C   0  0  0  0  0  0  0  0  0  0  0  0
  143.6230   75.7280  217.8060 C   0  0  0  0  0  0  0  0  0  0  0  0
  143.2442   77.2323  219.3073 H   0  0  0  0  0  0  0  0  0  0  0  0
  144.0987   75.7742  221.1432 H   0  0  0  0  0  0  0  0  0  0  0  0
  144.9270   73.5252  220.6490 H   0  0  0  0  0  0  0  0  0  0  0  0
  145.9543   72.3279  217.6033 H   0  0  0  0  0  0  0  0  0  0  0  0
  145.4127   71.8365  219.2482 H   0  0  0  0  0  0  0  0  0  0  0  0
  143.7218   69.4454  217.2278 H   0  0  0  0  0  0  0  0  0  0  0  0
  145.4138   69.8213  217.4586 H   0  0  0  0  0  0  0  0  0  0  0  0
  144.0073   68.7393  219.5206 H   0  0  0  0  0  0  0  0  0  0  0  0
  145.1187   70.0216  219.9263 H   0  0  0  0  0  0  0  0  0  0  0  0
  142.1524   70.0618  219.8958 H   0  0  0  0  0  0  0  0  0  0  0  0
  144.1890   71.6120  221.2840 H   0  0  0  0  0  0  0  0  0  0  0  0
  137.4479   71.4554  223.9171 H   0  0  0  0  0  0  0  0  0  0  0  0
  138.2838   70.6192  222.5190 H   0  0  0  0  0  0  0  0  0  0  0  0
  137.1386   69.4766  224.8118 H   0  0  0  0  0  0  0  0  0  0  0  0
  138.1168   68.7104  223.4641 H   0  0  0  0  0  0  0  0  0  0  0  0
  138.5650   67.0338  225.2102 H   0  0  0  0  0  0  0  0  0  0  0  0
  140.3465   66.3667  226.8051 H   0  0  0  0  0  0  0  0  0  0  0  0
  141.9513   68.0375  227.7123 H   0  0  0  0  0  0  0  0  0  0  0  0
  141.7466   70.4173  226.9898 H   0  0  0  0  0  0  0  0  0  0  0  0
  139.2257   71.9513  225.9443 H   0  0  0  0  0  0  0  0  0  0  0  0
  140.9269   71.9284  225.4143 H   0  0  0  0  0  0  0  0  0  0  0  0
  141.7819   75.8593  219.7166 H   0  0  0  0  0  0  0  0  0  0  0  0
  140.2349   75.1044  219.2707 H   0  0  0  0  0  0  0  0  0  0  0  0
  140.2264   77.5840  218.8033 H   0  0  0  0  0  0  0  0  0  0  0  0
  139.0073   77.1871  220.0125 H   0  0  0  0  0  0  0  0  0  0  0  0
  141.4967   79.5599  219.4062 H   0  0  0  0  0  0  0  0  0  0  0  0
  142.6688   80.8257  221.2282 H   0  0  0  0  0  0  0  0  0  0  0  0
  142.6429   80.0291  223.5386 H   0  0  0  0  0  0  0  0  0  0  0  0
  141.4489   77.9363  224.1668 H   0  0  0  0  0  0  0  0  0  0  0  0
  140.2997   75.9345  223.3721 H   0  0  0  0  0  0  0  0  0  0  0  0
  138.9776   76.4778  222.3380 H   0  0  0  0  0  0  0  0  0  0  0  0
  141.9912   71.1448  217.8274 H   0  0  0  0  0  0  0  0  0  0  0  0
  142.5519   72.5697  218.6929 H   0  0  0  0  0  0  0  0  0  0  0  0
  144.0740   74.1072  216.5046 H   0  0  0  0  0  0  0  0  0  0  0  0
  143.2515   76.3541  216.9814 H   0  0  0  0  0  0  0  0  0  0  0  0
  1  2  2  0
  2  3  1  0
  3  4  2  0
  4  5  1  0
  5  6  1  0
  6  7  1  0
  7  8  1  0
  8  9  1  0
  9 10  1  0
 10 11  1  0
 11 12  2  0
 12 13  1  0
 13 14  1  0
 14 15  1  0
 15 16  1  0
 16 17  1  0
 17 18  2  0
 18 19  1  0
 19 20  2  0
 20 21  1  0
 21 22  2  0
 22 23  1  0
 13 24  2  0
 24 25  1  0
 25 26  1  0
 26 27  1  0
 27 28  1  0
 28 29  1  0
 29 30  2  0
 30 31  1  0
 31 32  2  0
 32 33  1  0
 33 34  2  0
 34 35  1  0
 25 36  2  0
  9 37  1  0
  4 38  1  0
 38 39  2  0
 39  1  1  0
 37  6  1  0
 36 11  1  0
 23 14  1  0
 35 26  1  0
 22 17  1  0
 34 29  1  0
  1 40  1  0
  2 41  1  0
  3 42  1  0
  5 43  1  0
  5 44  1  0
  7 45  1  0
  7 46  1  0
  8 47  1  0
  8 48  1  0
  9 49  1  1
 10 50  1  0
 15 51  1  0
 15 52  1  0
 16 53  1  0
 16 54  1  0
 18 55  1  0
 19 56  1  0
 20 57  1  0
 21 58  1  0
 23 59  1  0
 23 60  1  0
 27 61  1  0
 27 62  1  0
 28 63  1  0
 28 64  1  0
 30 65  1  0
 31 66  1  0
 32 67  1  0
 33 68  1  0
 35 69  1  0
 35 70  1  0
 37 71  1  0
 37 72  1  0
 38 73  1  0
 39 74  1  0
M  END
>  <smiles>  (23) 
c1ccc(CN2CC[C@@H](Nc3nc(N4CCc5ccccc5C4)nc(N4CCc5ccccc5C4)n3)C2)cc1

>  <score_type>  (23) 
oracle

>  <origin>  (23) 
autodockgpu

>  <m_score__min__energy>  (23) 
-11.06

>  <m_primary>  (23) 
energy

>  <rmsd>  (23) 
8.126770185203982

>  <m_score__min__rmsd>  (23) 
8.126770185203982

>  <meeko>  (23) 
{"free_energy": -9.58, "intermolecular_energy": -11.37, "internal_energy": -2.58, "cluster_size": 10, "cluster_id": 3, "rank_in_cluster": 6}

>  <energy>  (23) 
-10.22

>  <cluster_rmsd>  (23) 
0.0

>  <cluster>  (23) 
3

$$$$

     RDKit          3D

 74 80  0  0  0  0  0  0  0  0999 V2000
  140.9470   69.2720  228.2880 C   0  0  0  0  0  0  0  0  0  0  0  0
  140.4920   68.6400  227.1440 C   0  0  0  0  0  0  0  0  0  0  0  0
  140.1610   69.3740  226.0360 C   0  0  0  0  0  0  0  0  0  0  0  0
  140.2630   70.7700  226.0020 C   0  0  0  0  0  0  0  0  0  0  0  0
  139.9050   71.4960  224.7690 C   0  0  0  0  0  0  0  0  0  0  0  0
  140.2930   70.7340  223.6230 N   0  0  0  0  0  0  0  0  0  0  0  0
  139.2050   69.9650  223.1180 C   0  0  0  0  0  0  0  0  0  0  0  0
  138.2920   71.0340  222.5040 C   0  0  0  0  0  0  0  0  0  0  0  0
  139.2910   72.0140  221.9340 C   0  0  1  0  0  0  0  0  0  0  0  0
  138.9880   73.3910  222.2850 N   0  0  0  0  0  0  0  0  0  0  0  0
  139.9090   74.4320  221.9320 C   0  0  0  0  0  0  0  0  0  0  0  0
  139.8260   75.6590  222.4650 N   0  0  0  0  0  0  0  0  0  0  0  0
  140.6920   76.6210  222.1280 C   0  0  0  0  0  0  0  0  0  0  0  0
  140.6070   77.9330  222.6950 N   0  0  0  0  0  0  0  0  0  0  0  0
  141.5590   78.4500  223.6390 C   0  0  0  0  0  0  0  0  0  0  0  0
  141.9720   79.8690  223.3760 C   0  0  0  0  0  0  0  0  0  0  0  0
  141.2500   80.5130  222.2700 C   0  0  0  0  0  0  0  0  0  0  0  0
  141.7800   81.6720  221.7360 C   0  0  0  0  0  0  0  0  0  0  0  0
  141.1200   82.3050  220.6880 C   0  0  0  0  0  0  0  0  0  0  0  0
  139.9370   81.8020  220.1610 C   0  0  0  0  0  0  0  0  0  0  0  0
  139.4200   80.6470  220.7000 C   0  0  0  0  0  0  0  0  0  0  0  0
  140.0870   80.0330  221.7390 C   0  0  0  0  0  0  0  0  0  0  0  0
  139.5060   78.7900  222.3000 C   0  0  0  0  0  0  0  0  0  0  0  0
  141.6680   76.3500  221.2330 N   0  0  0  0  0  0  0  0  0  0  0  0
  141.7830   75.1170  220.6730 C   0  0  0  0  0  0  0  0  0  0  0  0
  142.8010   74.8050  219.7280 N   0  0  0  0  0  0  0  0  0  0  0  0
  142.4660   74.7040  218.3240 C   0  0  0  0  0  0  0  0  0  0  0  0
  143.7750   74.6330  217.5590 C   0  0  0  0  0  0  0  0  0  0  0  0
  144.4710   73.4210  218.1060 C   0  0  0  0  0  0  0  0  0  0  0  0
  144.8900   72.3860  217.2970 C   0  0  0  0  0  0  0  0  0  0  0  0
  145.5230   71.3240  217.9350 C   0  0  0  0  0  0  0  0  0  0  0  0
  145.7180   71.3100  219.2950 C   0  0  0  0  0  0  0  0  0  0  0  0
  145.2970   72.3490  220.0970 C   0  0  0  0  0  0  0  0  0  0  0  0
  144.6680   73.4060  219.4710 C   0  0  0  0  0  0  0  0  0  0  0  0
  144.1610   74.5970  220.2230 C   0  0  0  0  0  0  0  0  0  0  0  0
  140.8880   74.1840  221.0440 N   0  0  0  0  0  0  0  0  0  0  0  0
  140.6300   71.5810  222.4870 C   0  0  0  0  0  0  0  0  0  0  0  0
  140.7180   71.3600  227.1590 C   0  0  0  0  0  0  0  0  0  0  0  0
  141.0550   70.6440  228.2760 C   0  0  0  0  0  0  0  0  0  0  0  0
  141.2154   68.6927  229.1838 H   0  0  0  0  0  0  0  0  0  0  0  0
  140.3959   67.5444  227.1245 H   0  0  0  0  0  0  0  0  0  0  0  0
  139.8017   68.8472  225.1397 H   0  0  0  0  0  0  0  0  0  0  0  0
  138.8177   71.6607  224.7459 H   0  0  0  0  0  0  0  0  0  0  0  0
  140.4291   72.4630  224.7541 H   0  0  0  0  0  0  0  0  0  0  0  0
  139.5456   69.2490  222.3556 H   0  0  0  0  0  0  0  0  0  0  0  0
  138.7075   69.3556  223.8869 H   0  0  0  0  0  0  0  0  0  0  0  0
  137.6545   70.6091  221.7147 H   0  0  0  0  0  0  0  0  0  0  0  0
  137.5915   71.4838  223.2230 H   0  0  0  0  0  0  0  0  0  0  0  0
  139.2732   71.9997  220.8342 H   0  0  0  0  0  0  0  0  0  0  0  0
  138.1170   73.6690  222.7890 H   0  0  0  0  0  0  0  0  0  0  0  0
  141.1123   78.4004  224.6430 H   0  0  0  0  0  0  0  0  0  0  0  0
  142.4650   77.8330  223.5471 H   0  0  0  0  0  0  0  0  0  0  0  0
  141.7952   80.4545  224.2903 H   0  0  0  0  0  0  0  0  0  0  0  0
  143.0326   79.8401  223.0858 H   0  0  0  0  0  0  0  0  0  0  0  0
  142.7154   82.0902  222.1361 H   0  0  0  0  0  0  0  0  0  0  0  0
  141.5455   83.2273  220.2657 H   0  0  0  0  0  0  0  0  0  0  0  0
  139.4262   82.3150  219.3328 H   0  0  0  0  0  0  0  0  0  0  0  0
  138.4862   80.2185  220.3072 H   0  0  0  0  0  0  0  0  0  0  0  0
  138.8831   79.0282  223.1748 H   0  0  0  0  0  0  0  0  0  0  0  0
  138.8728   78.2876  221.5539 H   0  0  0  0  0  0  0  0  0  0  0  0
  141.8723   73.7961  218.1417 H   0  0  0  0  0  0  0  0  0  0  0  0
  141.8686   75.5689  218.0000 H   0  0  0  0  0  0  0  0  0  0  0  0
  143.5885   74.5196  216.4809 H   0  0  0  0  0  0  0  0  0  0  0  0
  144.3760   75.5467  217.6771 H   0  0  0  0  0  0  0  0  0  0  0  0
  144.7326   72.3993  216.2084 H   0  0  0  0  0  0  0  0  0  0  0  0
  145.8768   70.4729  217.3346 H   0  0  0  0  0  0  0  0  0  0  0  0
  146.2228   70.4479  219.7554 H   0  0  0  0  0  0  0  0  0  0  0  0
  145.4550   72.3363  221.1855 H   0  0  0  0  0  0  0  0  0  0  0  0
  144.1525   74.3967  221.3046 H   0  0  0  0  0  0  0  0  0  0  0  0
  144.7960   75.4824  220.0721 H   0  0  0  0  0  0  0  0  0  0  0  0
  141.1981   71.0151  221.7340 H   0  0  0  0  0  0  0  0  0  0  0  0
  141.2630   72.4343  222.7720 H   0  0  0  0  0  0  0  0  0  0  0  0
  140.8152   72.4553  227.1875 H   0  0  0  0  0  0  0  0  0  0  0  0
  141.4154   71.1701  229.1723 H   0  0  0  0  0  0  0  0  0  0  0  0
  1  2  2  0
  2  3  1  0
  3  4  2  0
  4  5  1  0
  5  6  1  0
  6  7  1  0
  7  8  1  0
  8  9  1  0
  9 10  1  0
 10 11  1  0
 11 12  2  0
 12 13  1  0
 13 14  1  0
 14 15  1  0
 15 16  1  0
 16 17  1  0
 17 18  2  0
 18 19  1  0
 19 20  2  0
 20 21  1  0
 21 22  2  0
 22 23  1  0
 13 24  2  0
 24 25  1  0
 25 26  1  0
 26 27  1  0
 27 28  1  0
 28 29  1  0
 29 30  2  0
 30 31  1  0
 31 32  2  0
 32 33  1  0
 33 34  2  0
 34 35  1  0
 25 36  2  0
  9 37  1  0
  4 38  1  0
 38 39  2  0
 39  1  1  0
 37  6  1  0
 36 11  1  0
 23 14  1  0
 35 26  1  0
 22 17  1  0
 34 29  1  0
  1 40  1  0
  2 41  1  0
  3 42  1  0
  5 43  1  0
  5 44  1  0
  7 45  1  0
  7 46  1  0
  8 47  1  0
  8 48  1  0
  9 49  1  6
 10 50  1  0
 15 51  1  0
 15 52  1  0
 16 53  1  0
 16 54  1  0
 18 55  1  0
 19 56  1  0
 20 57  1  0
 21 58  1  0
 23 59  1  0
 23 60  1  0
 27 61  1  0
 27 62  1  0
 28 63  1  0
 28 64  1  0
 30 65  1  0
 31 66  1  0
 32 67  1  0
 33 68  1  0
 35 69  1  0
 35 70  1  0
 37 71  1  0
 37 72  1  0
 38 73  1  0
 39 74  1  0
M  END
>  <smiles>  (24) 
c1ccc(CN2CC[C@@H](Nc3nc(N4CCc5ccccc5C4)nc(N4CCc5ccccc5C4)n3)C2)cc1

>  <score_type>  (24) 
oracle

>  <origin>  (24) 
autodockgpu

>  <m_score__min__energy>  (24) 
-11.06

>  <m_primary>  (24) 
energy

>  <rmsd>  (24) 
10.4503850333745

>  <m_score__min__rmsd>  (24) 
10.4503850333745

>  <meeko>  (24) 
{"free_energy": -10.55, "intermolecular_energy": -12.34, "internal_energy": -1.44, "cluster_size": 14, "cluster_id": 2, "rank_in_cluster": 8}

>  <energy>  (24) 
-10.05

>  <cluster_rmsd>  (24) 
0.72

>  <cluster>  (24) 
3

$$$$

     RDKit          3D

 74 80  0  0  0  0  0  0  0  0999 V2000
  142.2010   76.8150  216.0560 C   0  0  0  0  0  0  0  0  0  0  0  0
  141.4750   75.6890  216.4030 C   0  0  0  0  0  0  0  0  0  0  0  0
  141.8210   74.9580  217.5070 C   0  0  0  0  0  0  0  0  0  0  0  0
  142.9040   75.3010  218.3250 C   0  0  0  0  0  0  0  0  0  0  0  0
  143.2120   74.4780  219.5100 C   0  0  0  0  0  0  0  0  0  0  0  0
  144.4290   73.7560  219.3010 N   0  0  0  0  0  0  0  0  0  0  0  0
  145.1150   73.5280  220.5290 C   0  0  0  0  0  0  0  0  0  0  0  0
  144.2320   72.4810  221.2200 C   0  0  0  0  0  0  0  0  0  0  0  0
  143.7710   71.6360  220.0540 C   0  0  1  0  0  0  0  0  0  0  0  0
  142.3400   71.3900  220.0710 N   0  0  0  0  0  0  0  0  0  0  0  0
  141.5090   72.1020  220.9990 C   0  0  0  0  0  0  0  0  0  0  0  0
  140.9930   73.3040  220.7070 N   0  0  0  0  0  0  0  0  0  0  0  0
  140.2190   73.9560  221.5820 C   0  0  0  0  0  0  0  0  0  0  0  0
  139.6660   75.2410  221.2750 N   0  0  0  0  0  0  0  0  0  0  0  0
  138.3440   75.6460  221.6630 C   0  0  0  0  0  0  0  0  0  0  0  0
  138.2660   77.0460  222.1980 C   0  0  0  0  0  0  0  0  0  0  0  0
  139.5300   77.7910  222.1270 C   0  0  0  0  0  0  0  0  0  0  0  0
  139.6520   78.9380  222.8870 C   0  0  0  0  0  0  0  0  0  0  0  0
  140.8370   79.6650  222.8410 C   0  0  0  0  0  0  0  0  0  0  0  0
  141.9060   79.2680  222.0490 C   0  0  0  0  0  0  0  0  0  0  0  0
  141.7730   78.1240  221.2980 C   0  0  0  0  0  0  0  0  0  0  0  0
  140.5920   77.4150  221.3540 C   0  0  0  0  0  0  0  0  0  0  0  0
  140.4780   76.1860  220.5330 C   0  0  0  0  0  0  0  0  0  0  0  0
  139.9540   73.3920  222.7810 N   0  0  0  0  0  0  0  0  0  0  0  0
  140.4590   72.1740  223.1100 C   0  0  0  0  0  0  0  0  0  0  0  0
  140.1950   71.5570  224.3660 N   0  0  0  0  0  0  0  0  0  0  0  0
  141.0380   71.8620  225.5030 C   0  0  0  0  0  0  0  0  0  0  0  0
  140.3580   71.2800  226.7280 C   0  0  0  0  0  0  0  0  0  0  0  0
  140.2380   69.8120  226.4370 C   0  0  0  0  0  0  0  0  0  0  0  0
  140.7550   68.8510  227.2800 C   0  0  0  0  0  0  0  0  0  0  0  0
  140.5720   67.5280  226.8880 C   0  0  0  0  0  0  0  0  0  0  0  0
  139.9140   67.2010  225.7280 C   0  0  0  0  0  0  0  0  0  0  0  0
  139.3990   68.1680  224.8910 C   0  0  0  0  0  0  0  0  0  0  0  0
  139.5770   69.4820  225.2730 C   0  0  0  0  0  0  0  0  0  0  0  0
  139.0680   70.6300  224.4560 C   0  0  0  0  0  0  0  0  0  0  0  0
  141.2320   71.5580  222.1970 N   0  0  0  0  0  0  0  0  0  0  0  0
  144.1900   72.4020  218.8200 C   0  0  0  0  0  0  0  0  0  0  0  0
  143.6010   76.4260  217.9470 C   0  0  0  0  0  0  0  0  0  0  0  0
  143.2700   77.1710  216.8480 C   0  0  0  0  0  0  0  0  0  0  0  0
  141.9313   77.4100  215.1709 H   0  0  0  0  0  0  0  0  0  0  0  0
  140.6162   75.3803  215.7888 H   0  0  0  0  0  0  0  0  0  0  0  0
  141.2262   74.0682  217.7610 H   0  0  0  0  0  0  0  0  0  0  0  0
  143.3220   75.1309  220.3884 H   0  0  0  0  0  0  0  0  0  0  0  0
  142.3923   73.7636  219.6766 H   0  0  0  0  0  0  0  0  0  0  0  0
  146.1278   73.1373  220.3509 H   0  0  0  0  0  0  0  0  0  0  0  0
  145.2569   74.4412  221.1255 H   0  0  0  0  0  0  0  0  0  0  0  0
  144.8099   71.8847  221.9414 H   0  0  0  0  0  0  0  0  0  0  0  0
  143.4078   72.9142  221.8057 H   0  0  0  0  0  0  0  0  0  0  0  0
  144.2222   70.6335  220.0914 H   0  0  0  0  0  0  0  0  0  0  0  0
  141.8730   70.7100  219.4300 H   0  0  0  0  0  0  0  0  0  0  0  0
  137.6884   75.5753  220.7826 H   0  0  0  0  0  0  0  0  0  0  0  0
  138.0328   74.9763  222.4783 H   0  0  0  0  0  0  0  0  0  0  0  0
  137.5094   77.5949  221.6180 H   0  0  0  0  0  0  0  0  0  0  0  0
  138.0090   76.9621  223.2643 H   0  0  0  0  0  0  0  0  0  0  0  0
  138.8195   79.2735  223.5229 H   0  0  0  0  0  0  0  0  0  0  0  0
  140.9295   80.5779  223.4477 H   0  0  0  0  0  0  0  0  0  0  0  0
  142.8364   79.8542  222.0230 H   0  0  0  0  0  0  0  0  0  0  0  0
  142.5995   77.7784  220.6597 H   0  0  0  0  0  0  0  0  0  0  0  0
  139.9981   76.4198  219.5712 H   0  0  0  0  0  0  0  0  0  0  0  0
  141.4726   75.7641  220.3262 H   0  0  0  0  0  0  0  0  0  0  0  0
  142.0307   71.4072  225.3701 H   0  0  0  0  0  0  0  0  0  0  0  0
  141.1759   72.9481  225.6094 H   0  0  0  0  0  0  0  0  0  0  0  0
  140.9687   71.4484  227.6273 H   0  0  0  0  0  0  0  0  0  0  0  0
  139.3810   71.7466  226.9224 H   0  0  0  0  0  0  0  0  0  0  0  0
  141.2818   69.1148  228.2089 H   0  0  0  0  0  0  0  0  0  0  0  0
  140.9654   66.7222  227.5251 H   0  0  0  0  0  0  0  0  0  0  0  0
  139.7948   66.1409  225.4598 H   0  0  0  0  0  0  0  0  0  0  0  0
  138.8712   67.9045  223.9626 H   0  0  0  0  0  0  0  0  0  0  0  0
  138.7667   70.2887  223.4546 H   0  0  0  0  0  0  0  0  0  0  0  0
  138.1815   71.0988  224.9080 H   0  0  0  0  0  0  0  0  0  0  0  0
  145.1069   71.9742  218.3884 H   0  0  0  0  0  0  0  0  0  0  0  0
  143.4306   72.3662  218.0250 H   0  0  0  0  0  0  0  0  0  0  0  0
  144.4621   76.7401  218.5552 H   0  0  0  0  0  0  0  0  0  0  0  0
  143.8630   78.0622  216.5948 H   0  0  0  0  0  0  0  0  0  0  0  0
  1  2  2  0
  2  3  1  0
  3  4  2  0
  4  5  1  0
  5  6  1  0
  6  7  1  0
  7  8  1  0
  8  9  1  0
  9 10  1  0
 10 11  1  0
 11 12  2  0
 12 13  1  0
 13 14  1  0
 14 15  1  0
 15 16  1  0
 16 17  1  0
 17 18  2  0
 18 19  1  0
 19 20  2  0
 20 21  1  0
 21 22  2  0
 22 23  1  0
 13 24  2  0
 24 25  1  0
 25 26  1  0
 26 27  1  0
 27 28  1  0
 28 29  1  0
 29 30  2  0
 30 31  1  0
 31 32  2  0
 32 33  1  0
 33 34  2  0
 34 35  1  0
 25 36  2  0
  9 37  1  0
  4 38  1  0
 38 39  2  0
 39  1  1  0
 37  6  1  0
 36 11  1  0
 23 14  1  0
 35 26  1  0
 22 17  1  0
 34 29  1  0
  1 40  1  0
  2 41  1  0
  3 42  1  0
  5 43  1  0
  5 44  1  0
  7 45  1  0
  7 46  1  0
  8 47  1  0
  8 48  1  0
  9 49  1  1
 10 50  1  0
 15 51  1  0
 15 52  1  0
 16 53  1  0
 16 54  1  0
 18 55  1  0
 19 56  1  0
 20 57  1  0
 21 58  1  0
 23 59  1  0
 23 60  1  0
 27 61  1  0
 27 62  1  0
 28 63  1  0
 28 64  1  0
 30 65  1  0
 31 66  1  0
 32 67  1  0
 33 68  1  0
 35 69  1  0
 35 70  1  0
 37 71  1  0
 37 72  1  0
 38 73  1  0
 39 74  1  0
M  END
>  <smiles>  (25) 
c1ccc(CN2CC[C@@H](Nc3nc(N4CCc5ccccc5C4)nc(N4CCc5ccccc5C4)n3)C2)cc1

>  <score_type>  (25) 
oracle

>  <origin>  (25) 
autodockgpu

>  <m_score__min__energy>  (25) 
-11.06

>  <m_primary>  (25) 
energy

>  <rmsd>  (25) 
6.970227774585249

>  <m_score__min__rmsd>  (25) 
6.970227774585249

>  <meeko>  (25) 
{"free_energy": -9.13, "intermolecular_energy": -10.92, "internal_energy": -2.39, "cluster_size": 10, "cluster_id": 3, "rank_in_cluster": 10}

>  <energy>  (25) 
-9.71

>  <cluster_rmsd>  (25) 
1.19

>  <cluster>  (25) 
3

$$$$

     RDKit          3D

 74 80  0  0  0  0  0  0  0  0999 V2000
  141.1210   78.3650  223.0680 C   0  0  0  0  0  0  0  0  0  0  0  0
  140.0800   79.2760  223.0730 C   0  0  0  0  0  0  0  0  0  0  0  0
  138.8200   78.8860  222.7070 C   0  0  0  0  0  0  0  0  0  0  0  0
  138.5230   77.5740  222.3190 C   0  0  0  0  0  0  0  0  0  0  0  0
  137.1390   77.2170  221.9540 C   0  0  0  0  0  0  0  0  0  0  0  0
  136.4230   76.7880  223.1140 N   0  0  0  0  0  0  0  0  0  0  0  0
  135.0160   76.9270  222.9380 C   0  0  0  0  0  0  0  0  0  0  0  0
  134.6910   75.8200  221.9280 C   0  0  0  0  0  0  0  0  0  0  0  0
  135.6320   74.7170  222.3530 C   0  0  1  0  0  0  0  0  0  0  0  0
  136.3590   74.1380  221.2360 N   0  0  0  0  0  0  0  0  0  0  0  0
  137.7010   73.6690  221.4290 C   0  0  0  0  0  0  0  0  0  0  0  0
  138.7160   74.1030  220.6700 N   0  0  0  0  0  0  0  0  0  0  0  0
  139.9630   73.6590  220.8600 C   0  0  0  0  0  0  0  0  0  0  0  0
  141.0510   74.1200  220.0510 N   0  0  0  0  0  0  0  0  0  0  0  0
  141.3480   75.5100  219.8430 C   0  0  0  0  0  0  0  0  0  0  0  0
  142.8100   75.8420  219.9240 C   0  0  0  0  0  0  0  0  0  0  0  0
  143.6860   74.6750  220.0920 C   0  0  0  0  0  0  0  0  0  0  0  0
  144.9840   74.8920  220.5120 C   0  0  0  0  0  0  0  0  0  0  0  0
  145.8370   73.8060  220.6800 C   0  0  0  0  0  0  0  0  0  0  0  0
  145.4190   72.5040  220.4370 C   0  0  0  0  0  0  0  0  0  0  0  0
  144.1240   72.3010  220.0200 C   0  0  0  0  0  0  0  0  0  0  0  0
  143.2910   73.3880  219.8570 C   0  0  0  0  0  0  0  0  0  0  0  0
  141.9020   73.1380  219.4070 C   0  0  0  0  0  0  0  0  0  0  0  0
  140.2020   72.7550  221.8370 N   0  0  0  0  0  0  0  0  0  0  0  0
  139.1970   72.2930  222.6260 C   0  0  0  0  0  0  0  0  0  0  0  0
  139.4210   71.3420  223.6610 N   0  0  0  0  0  0  0  0  0  0  0  0
  138.3230   70.5220  224.1280 C   0  0  0  0  0  0  0  0  0  0  0  0
  138.9200   69.4460  225.0170 C   0  0  0  0  0  0  0  0  0  0  0  0
  139.6210   70.2000  226.1090 C   0  0  0  0  0  0  0  0  0  0  0  0
  139.3390   69.9930  227.4430 C   0  0  0  0  0  0  0  0  0  0  0  0
  140.0640   70.7600  228.3500 C   0  0  0  0  0  0  0  0  0  0  0  0
  141.0060   71.6700  227.9380 C   0  0  0  0  0  0  0  0  0  0  0  0
  141.2830   71.8700  226.6020 C   0  0  0  0  0  0  0  0  0  0  0  0
  140.5680   71.1140  225.6970 C   0  0  0  0  0  0  0  0  0  0  0  0
  140.7690   71.2320  224.2170 C   0  0  0  0  0  0  0  0  0  0  0  0
  137.9600   72.7710  222.3950 N   0  0  0  0  0  0  0  0  0  0  0  0
  136.5670   75.3580  223.3530 C   0  0  0  0  0  0  0  0  0  0  0  0
  139.5850   76.6980  222.3270 C   0  0  0  0  0  0  0  0  0  0  0  0
  140.8510   77.0690  222.6900 C   0  0  0  0  0  0  0  0  0  0  0  0
  142.1378   78.6681  223.3584 H   0  0  0  0  0  0  0  0  0  0  0  0
  140.2655   80.3181  223.3723 H   0  0  0  0  0  0  0  0  0  0  0  0
  138.0108   79.6310  222.7181 H   0  0  0  0  0  0  0  0  0  0  0  0
  136.6383   78.0955  221.5210 H   0  0  0  0  0  0  0  0  0  0  0  0
  137.1589   76.3990  221.2188 H   0  0  0  0  0  0  0  0  0  0  0  0
  134.4803   76.7689  223.8857 H   0  0  0  0  0  0  0  0  0  0  0  0
  134.7157   77.9293  222.5984 H   0  0  0  0  0  0  0  0  0  0  0  0
  133.6410   75.5020  222.0083 H   0  0  0  0  0  0  0  0  0  0  0  0
  134.8150   76.1277  220.8792 H   0  0  0  0  0  0  0  0  0  0  0  0
  135.0774   73.8722  222.7874 H   0  0  0  0  0  0  0  0  0  0  0  0
  135.9480   74.0420  220.2810 H   0  0  0  0  0  0  0  0  0  0  0  0
  140.9834   75.7959  218.8453 H   0  0  0  0  0  0  0  0  0  0  0  0
  140.8507   76.0656  220.6517 H   0  0  0  0  0  0  0  0  0  0  0  0
  143.0980   76.3584  218.9964 H   0  0  0  0  0  0  0  0  0  0  0  0
  142.9422   76.4669  220.8196 H   0  0  0  0  0  0  0  0  0  0  0  0
  145.3396   75.9136  220.7117 H   0  0  0  0  0  0  0  0  0  0  0  0
  146.8699   73.9832  221.0141 H   0  0  0  0  0  0  0  0  0  0  0  0
  146.1064   71.6563  220.5746 H   0  0  0  0  0  0  0  0  0  0  0  0
  143.7571   71.2837  219.8189 H   0  0  0  0  0  0  0  0  0  0  0  0
  141.8367   73.2437  218.3140 H   0  0  0  0  0  0  0  0  0  0  0  0
  141.5865   72.1184  219.6730 H   0  0  0  0  0  0  0  0  0  0  0  0
  137.6115   71.1342  224.7016 H   0  0  0  0  0  0  0  0  0  0  0  0
  137.7789   70.0757  223.2826 H   0  0  0  0  0  0  0  0  0  0  0  0
  138.1296   68.8047  225.4340 H   0  0  0  0  0  0  0  0  0  0  0  0
  139.6018   68.7817  224.4659 H   0  0  0  0  0  0  0  0  0  0  0  0
  138.5842   69.2633  227.7713 H   0  0  0  0  0  0  0  0  0  0  0  0
  139.8772   70.6338  229.4267 H   0  0  0  0  0  0  0  0  0  0  0  0
  141.5534   72.2541  228.6925 H   0  0  0  0  0  0  0  0  0  0  0  0
  142.0389   72.5985  226.2735 H   0  0  0  0  0  0  0  0  0  0  0  0
  141.3607   72.1277  223.9771 H   0  0  0  0  0  0  0  0  0  0  0  0
  141.3180   70.3728  223.8042 H   0  0  0  0  0  0  0  0  0  0  0  0
  136.2719   75.1030  224.3816 H   0  0  0  0  0  0  0  0  0  0  0  0
  137.6057   75.0148  223.2376 H   0  0  0  0  0  0  0  0  0  0  0  0
  139.4081   75.6542  222.0285 H   0  0  0  0  0  0  0  0  0  0  0  0
  141.6608   76.3246  222.6797 H   0  0  0  0  0  0  0  0  0  0  0  0
  1  2  2  0
  2  3  1  0
  3  4  2  0
  4  5  1  0
  5  6  1  0
  6  7  1  0
  7  8  1  0
  8  9  1  0
  9 10  1  0
 10 11  1  0
 11 12  2  0
 12 13  1  0
 13 14  1  0
 14 15  1  0
 15 16  1  0
 16 17  1  0
 17 18  2  0
 18 19  1  0
 19 20  2  0
 20 21  1  0
 21 22  2  0
 22 23  1  0
 13 24  2  0
 24 25  1  0
 25 26  1  0
 26 27  1  0
 27 28  1  0
 28 29  1  0
 29 30  2  0
 30 31  1  0
 31 32  2  0
 32 33  1  0
 33 34  2  0
 34 35  1  0
 25 36  2  0
  9 37  1  0
  4 38  1  0
 38 39  2  0
 39  1  1  0
 37  6  1  0
 36 11  1  0
 23 14  1  0
 35 26  1  0
 22 17  1  0
 34 29  1  0
  1 40  1  0
  2 41  1  0
  3 42  1  0
  5 43  1  0
  5 44  1  0
  7 45  1  0
  7 46  1  0
  8 47  1  0
  8 48  1  0
  9 49  1  1
 10 50  1  0
 15 51  1  0
 15 52  1  0
 16 53  1  0
 16 54  1  0
 18 55  1  0
 19 56  1  0
 20 57  1  0
 21 58  1  0
 23 59  1  0
 23 60  1  0
 27 61  1  0
 27 62  1  0
 28 63  1  0
 28 64  1  0
 30 65  1  0
 31 66  1  0
 32 67  1  0
 33 68  1  0
 35 69  1  0
 35 70  1  0
 37 71  1  0
 37 72  1  0
 38 73  1  0
 39 74  1  0
M  END
>  <smiles>  (26) 
c1ccc(CN2CC[C@@H](Nc3nc(N4CCc5ccccc5C4)nc(N4CCc5ccccc5C4)n3)C2)cc1

>  <score_type>  (26) 
oracle

>  <origin>  (26) 
autodockgpu

>  <m_score__min__energy>  (26) 
-11.06

>  <m_primary>  (26) 
energy

>  <rmsd>  (26) 
5.863805394153774

>  <m_score__min__rmsd>  (26) 
5.863805394153774

>  <meeko>  (26) 
{"free_energy": -9.5, "intermolecular_energy": -11.29, "internal_energy": -2.52, "cluster_size": 11, "cluster_id": 6, "rank_in_cluster": 6}

>  <energy>  (26) 
-9.68

>  <cluster_rmsd>  (26) 
1.24

>  <cluster>  (26) 
3

$$$$

     RDKit          3D

 74 80  0  0  0  0  0  0  0  0999 V2000
  141.1040   69.4250  228.2450 C   0  0  0  0  0  0  0  0  0  0  0  0
  140.7900   68.7950  227.0540 C   0  0  0  0  0  0  0  0  0  0  0  0
  140.4590   69.5330  225.9490 C   0  0  0  0  0  0  0  0  0  0  0  0
  140.4210   70.9320  225.9650 C   0  0  0  0  0  0  0  0  0  0  0  0
  140.0720   71.6660  224.7340 C   0  0  0  0  0  0  0  0  0  0  0  0
  140.3070   70.8400  223.5900 N   0  0  0  0  0  0  0  0  0  0  0  0
  139.1700   70.0380  223.2850 C   0  0  0  0  0  0  0  0  0  0  0  0
  138.1680   71.0650  222.7440 C   0  0  0  0  0  0  0  0  0  0  0  0
  139.0660   72.0150  221.9860 C   0  0  1  0  0  0  0  0  0  0  0  0
  138.7960   73.4090  222.2960 N   0  0  0  0  0  0  0  0  0  0  0  0
  139.7750   74.4090  221.9790 C   0  0  0  0  0  0  0  0  0  0  0  0
  139.7870   75.6030  222.5870 N   0  0  0  0  0  0  0  0  0  0  0  0
  140.7050   76.5260  222.2820 C   0  0  0  0  0  0  0  0  0  0  0  0
  140.7220   77.8030  222.9290 N   0  0  0  0  0  0  0  0  0  0  0  0
  141.7950   78.2480  223.7730 C   0  0  0  0  0  0  0  0  0  0  0  0
  142.2050   79.6730  223.5420 C   0  0  0  0  0  0  0  0  0  0  0  0
  141.3680   80.3930  222.5750 C   0  0  0  0  0  0  0  0  0  0  0  0
  141.8540   81.5730  222.0460 C   0  0  0  0  0  0  0  0  0  0  0  0
  141.0830   82.2780  221.1260 C   0  0  0  0  0  0  0  0  0  0  0  0
  139.8330   81.8260  220.7240 C   0  0  0  0  0  0  0  0  0  0  0  0
  139.3600   80.6500  221.2570 C   0  0  0  0  0  0  0  0  0  0  0  0
  140.1360   79.9640  222.1670 C   0  0  0  0  0  0  0  0  0  0  0  0
  139.6000   78.6990  222.7250 C   0  0  0  0  0  0  0  0  0  0  0  0
  141.6370   76.2490  221.3430 N   0  0  0  0  0  0  0  0  0  0  0  0
  141.6550   75.0480  220.7060 C   0  0  0  0  0  0  0  0  0  0  0  0
  142.6250   74.7300  219.7140 N   0  0  0  0  0  0  0  0  0  0  0  0
  142.1950   74.4360  218.3630 C   0  0  0  0  0  0  0  0  0  0  0  0
  143.4410   74.4060  217.4980 C   0  0  0  0  0  0  0  0  0  0  0  0
  144.3030   73.3380  218.1070 C   0  0  0  0  0  0  0  0  0  0  0  0
  144.7670   72.2630  217.3780 C   0  0  0  0  0  0  0  0  0  0  0  0
  145.5560   71.3480  218.0670 C   0  0  0  0  0  0  0  0  0  0  0  0
  145.8560   71.5090  219.3980 C   0  0  0  0  0  0  0  0  0  0  0  0
  145.3890   72.5880  220.1190 C   0  0  0  0  0  0  0  0  0  0  0  0
  144.6050   73.4990  219.4420 C   0  0  0  0  0  0  0  0  0  0  0  0
  144.0330   74.7140  220.1060 C   0  0  0  0  0  0  0  0  0  0  0  0
  140.7100   74.1530  221.0480 N   0  0  0  0  0  0  0  0  0  0  0  0
  140.4740   71.6220  222.3710 C   0  0  0  0  0  0  0  0  0  0  0  0
  140.7380   71.5210  227.1680 C   0  0  0  0  0  0  0  0  0  0  0  0
  141.0720   70.8010  228.2830 C   0  0  0  0  0  0  0  0  0  0  0  0
  141.3722   68.8419  229.1383 H   0  0  0  0  0  0  0  0  0  0  0  0
  140.8063   67.6967  226.9944 H   0  0  0  0  0  0  0  0  0  0  0  0
  140.2140   69.0070  225.0145 H   0  0  0  0  0  0  0  0  0  0  0  0
  139.0096   71.9490  224.7672 H   0  0  0  0  0  0  0  0  0  0  0  0
  140.6959   72.5691  224.6623 H   0  0  0  0  0  0  0  0  0  0  0  0
  139.4113   69.2807  222.5246 H   0  0  0  0  0  0  0  0  0  0  0  0
  138.7911   69.4717  224.1486 H   0  0  0  0  0  0  0  0  0  0  0  0
  137.4329   70.5921  222.0762 H   0  0  0  0  0  0  0  0  0  0  0  0
  137.5682   71.5526  223.5266 H   0  0  0  0  0  0  0  0  0  0  0  0
  138.8967   71.9362  220.9020 H   0  0  0  0  0  0  0  0  0  0  0  0
  137.9100   73.7280  222.7470 H   0  0  0  0  0  0  0  0  0  0  0  0
  141.4757   78.1458  224.8207 H   0  0  0  0  0  0  0  0  0  0  0  0
  142.6680   77.6235  223.5323 H   0  0  0  0  0  0  0  0  0  0  0  0
  142.1566   80.2056  224.5033 H   0  0  0  0  0  0  0  0  0  0  0  0
  143.2204   79.6442  223.1199 H   0  0  0  0  0  0  0  0  0  0  0  0
  142.8412   81.9520  222.3490 H   0  0  0  0  0  0  0  0  0  0  0  0
  141.4738   83.2169  220.7069 H   0  0  0  0  0  0  0  0  0  0  0  0
  139.2355   82.3951  219.9966 H   0  0  0  0  0  0  0  0  0  0  0  0
  138.3745   80.2613  220.9610 H   0  0  0  0  0  0  0  0  0  0  0  0
  139.0965   78.8947  223.6832 H   0  0  0  0  0  0  0  0  0  0  0  0
  138.8670   78.2519  222.0374 H   0  0  0  0  0  0  0  0  0  0  0  0
  141.6895   73.4595  218.3314 H   0  0  0  0  0  0  0  0  0  0  0  0
  141.4851   75.1951  218.0029 H   0  0  0  0  0  0  0  0  0  0  0  0
  143.1855   74.1523  216.4586 H   0  0  0  0  0  0  0  0  0  0  0  0
  143.9482   75.3815  217.4654 H   0  0  0  0  0  0  0  0  0  0  0  0
  144.5267   72.1365  216.3121 H   0  0  0  0  0  0  0  0  0  0  0  0
  145.9505   70.4717  217.5317 H   0  0  0  0  0  0  0  0  0  0  0  0
  146.4841   70.7590  219.9010 H   0  0  0  0  0  0  0  0  0  0  0  0
  145.6305   72.7162  221.1845 H   0  0  0  0  0  0  0  0  0  0  0  0
  144.1294   74.6390  221.1992 H   0  0  0  0  0  0  0  0  0  0  0  0
  144.5563   75.6341  219.8068 H   0  0  0  0  0  0  0  0  0  0  0  0
  140.9400   71.0163  221.5798 H   0  0  0  0  0  0  0  0  0  0  0  0
  141.1296   72.4933  222.5162 H   0  0  0  0  0  0  0  0  0  0  0  0
  140.7222   72.6188  227.2362 H   0  0  0  0  0  0  0  0  0  0  0  0
  141.3171   71.3263  229.2179 H   0  0  0  0  0  0  0  0  0  0  0  0
  1  2  2  0
  2  3  1  0
  3  4  2  0
  4  5  1  0
  5  6  1  0
  6  7  1  0
  7  8  1  0
  8  9  1  0
  9 10  1  0
 10 11  1  0
 11 12  2  0
 12 13  1  0
 13 14  1  0
 14 15  1  0
 15 16  1  0
 16 17  1  0
 17 18  2  0
 18 19  1  0
 19 20  2  0
 20 21  1  0
 21 22  2  0
 22 23  1  0
 13 24  2  0
 24 25  1  0
 25 26  1  0
 26 27  1  0
 27 28  1  0
 28 29  1  0
 29 30  2  0
 30 31  1  0
 31 32  2  0
 32 33  1  0
 33 34  2  0
 34 35  1  0
 25 36  2  0
  9 37  1  0
  4 38  1  0
 38 39  2  0
 39  1  1  0
 37  6  1  0
 36 11  1  0
 23 14  1  0
 35 26  1  0
 22 17  1  0
 34 29  1  0
  1 40  1  0
  2 41  1  0
  3 42  1  0
  5 43  1  0
  5 44  1  0
  7 45  1  0
  7 46  1  0
  8 47  1  0
  8 48  1  0
  9 49  1  6
 10 50  1  0
 15 51  1  0
 15 52  1  0
 16 53  1  0
 16 54  1  0
 18 55  1  0
 19 56  1  0
 20 57  1  0
 21 58  1  0
 23 59  1  0
 23 60  1  0
 27 61  1  0
 27 62  1  0
 28 63  1  0
 28 64  1  0
 30 65  1  0
 31 66  1  0
 32 67  1  0
 33 68  1  0
 35 69  1  0
 35 70  1  0
 37 71  1  0
 37 72  1  0
 38 73  1  0
 39 74  1  0
M  END
>  <smiles>  (27) 
c1ccc(CN2CC[C@@H](Nc3nc(N4CCc5ccccc5C4)nc(N4CCc5ccccc5C4)n3)C2)cc1

>  <score_type>  (27) 
oracle

>  <origin>  (27) 
autodockgpu

>  <m_score__min__energy>  (27) 
-11.06

>  <m_primary>  (27) 
energy

>  <rmsd>  (27) 
10.371615660437158

>  <m_score__min__rmsd>  (27) 
10.371615660437158

>  <meeko>  (27) 
{"free_energy": -10.48, "intermolecular_energy": -12.27, "internal_energy": -1.36, "cluster_size": 14, "cluster_id": 2, "rank_in_cluster": 10}

>  <energy>  (27) 
-9.64

>  <cluster_rmsd>  (27) 
0.68

>  <cluster>  (27) 
3

$$$$

     RDKit          3D

 74 80  0  0  0  0  0  0  0  0999 V2000
  143.2350   76.6140  218.6030 C   0  0  0  0  0  0  0  0  0  0  0  0
  143.4310   76.0000  217.3790 C   0  0  0  0  0  0  0  0  0  0  0  0
  144.0330   74.7720  217.3110 C   0  0  0  0  0  0  0  0  0  0  0  0
  144.4720   74.0870  218.4500 C   0  0  0  0  0  0  0  0  0  0  0  0
  145.0970   72.7590  218.3070 C   0  0  0  0  0  0  0  0  0  0  0  0
  144.1860   71.8560  217.6750 N   0  0  0  0  0  0  0  0  0  0  0  0
  144.6660   70.5150  217.7230 C   0  0  0  0  0  0  0  0  0  0  0  0
  144.5070   70.1530  219.2050 C   0  0  0  0  0  0  0  0  0  0  0  0
  143.2250   70.8660  219.5690 C   0  0  1  0  0  0  0  0  0  0  0  0
  143.3380   71.6260  220.8020 N   0  0  0  0  0  0  0  0  0  0  0  0
  142.1630   72.2030  221.3900 C   0  0  0  0  0  0  0  0  0  0  0  0
  141.3830   71.5110  222.2320 N   0  0  0  0  0  0  0  0  0  0  0  0
  140.2900   72.0610  222.7740 C   0  0  0  0  0  0  0  0  0  0  0  0
  139.4540   71.3260  223.6740 N   0  0  0  0  0  0  0  0  0  0  0  0
  138.3830   70.4740  223.2400 C   0  0  0  0  0  0  0  0  0  0  0  0
  138.3120   69.1620  223.9680 C   0  0  0  0  0  0  0  0  0  0  0  0
  139.2780   69.0280  225.0650 C   0  0  0  0  0  0  0  0  0  0  0  0
  139.5240   67.7630  225.5640 C   0  0  0  0  0  0  0  0  0  0  0  0
  140.4350   67.6040  226.6040 C   0  0  0  0  0  0  0  0  0  0  0  0
  141.1060   68.6860  227.1570 C   0  0  0  0  0  0  0  0  0  0  0  0
  140.8540   69.9400  226.6520 C   0  0  0  0  0  0  0  0  0  0  0  0
  139.9480   70.0800  225.6220 C   0  0  0  0  0  0  0  0  0  0  0  0
  139.6970   71.4440  225.0990 C   0  0  0  0  0  0  0  0  0  0  0  0
  139.9690   73.3370  222.4650 N   0  0  0  0  0  0  0  0  0  0  0  0
  140.7380   74.0680  221.6160 C   0  0  0  0  0  0  0  0  0  0  0  0
  140.4220   75.4140  221.2740 N   0  0  0  0  0  0  0  0  0  0  0  0
  140.5010   75.8380  219.8920 C   0  0  0  0  0  0  0  0  0  0  0  0
  139.8590   77.2100  219.8110 C   0  0  0  0  0  0  0  0  0  0  0  0
  140.6580   78.0620  220.7540 C   0  0  0  0  0  0  0  0  0  0  0  0
  141.2720   79.2290  220.3500 C   0  0  0  0  0  0  0  0  0  0  0  0
  141.9800   79.9200  221.3280 C   0  0  0  0  0  0  0  0  0  0  0  0
  142.0630   79.4640  222.6210 C   0  0  0  0  0  0  0  0  0  0  0  0
  141.4450   78.2960  223.0170 C   0  0  0  0  0  0  0  0  0  0  0  0
  140.7410   77.6050  222.0530 C   0  0  0  0  0  0  0  0  0  0  0  0
  140.0250   76.3230  222.3470 C   0  0  0  0  0  0  0  0  0  0  0  0
  141.8260   73.4710  221.0970 N   0  0  0  0  0  0  0  0  0  0  0  0
  142.9200   71.7600  218.3890 C   0  0  0  0  0  0  0  0  0  0  0  0
  144.2590   74.7310  219.6490 C   0  0  0  0  0  0  0  0  0  0  0  0
  143.6590   75.9580  219.7370 C   0  0  0  0  0  0  0  0  0  0  0  0
  142.7530   77.6006  218.6687 H   0  0  0  0  0  0  0  0  0  0  0  0
  143.1018   76.5004  216.4564 H   0  0  0  0  0  0  0  0  0  0  0  0
  144.1770   74.3066  216.3248 H   0  0  0  0  0  0  0  0  0  0  0  0
  146.0060   72.8481  217.6939 H   0  0  0  0  0  0  0  0  0  0  0  0
  145.3561   72.3723  219.3037 H   0  0  0  0  0  0  0  0  0  0  0  0
  144.0602   69.8538  217.0859 H   0  0  0  0  0  0  0  0  0  0  0  0
  145.6971   70.4069  217.3554 H   0  0  0  0  0  0  0  0  0  0  0  0
  144.4122   69.0658  219.3425 H   0  0  0  0  0  0  0  0  0  0  0  0
  145.3669   70.4435  219.8264 H   0  0  0  0  0  0  0  0  0  0  0  0
  142.4152   70.1471  219.7622 H   0  0  0  0  0  0  0  0  0  0  0  0
  144.2470   71.7780  221.2940 H   0  0  0  0  0  0  0  0  0  0  0  0
  137.4331   71.0068  223.3942 H   0  0  0  0  0  0  0  0  0  0  0  0
  138.5712   70.2407  222.1816 H   0  0  0  0  0  0  0  0  0  0  0  0
  137.2998   69.0534  224.3848 H   0  0  0  0  0  0  0  0  0  0  0  0
  138.5576   68.3803  223.2341 H   0  0  0  0  0  0  0  0  0  0  0  0
  139.0044   66.8896  225.1430 H   0  0  0  0  0  0  0  0  0  0  0  0
  140.6282   66.5952  226.9978 H   0  0  0  0  0  0  0  0  0  0  0  0
  141.8223   68.5437  227.9796 H   0  0  0  0  0  0  0  0  0  0  0  0
  141.3687   70.8203  227.0645 H   0  0  0  0  0  0  0  0  0  0  0  0
  138.8177   71.8807  225.5952 H   0  0  0  0  0  0  0  0  0  0  0  0
  140.5600   72.0982  225.2923 H   0  0  0  0  0  0  0  0  0  0  0  0
  141.5524   75.8936  219.5736 H   0  0  0  0  0  0  0  0  0  0  0  0
  139.9857   75.1242  219.2326 H   0  0  0  0  0  0  0  0  0  0  0  0
  139.9178   77.6057  218.7863 H   0  0  0  0  0  0  0  0  0  0  0  0
  138.7915   77.1858  220.0754 H   0  0  0  0  0  0  0  0  0  0  0  0
  141.2057   79.5925  219.3139 H   0  0  0  0  0  0  0  0  0  0  0  0
  142.4876   80.8579  221.0583 H   0  0  0  0  0  0  0  0  0  0  0  0
  142.6363   80.0444  223.3588 H   0  0  0  0  0  0  0  0  0  0  0  0
  141.5106   77.9327  224.0532 H   0  0  0  0  0  0  0  0  0  0  0  0
  140.3320   75.9241  223.3251 H   0  0  0  0  0  0  0  0  0  0  0  0
  138.9344   76.4593  222.3909 H   0  0  0  0  0  0  0  0  0  0  0  0
  142.1451   71.3114  217.7500 H   0  0  0  0  0  0  0  0  0  0  0  0
  142.5339   72.7435  218.6950 H   0  0  0  0  0  0  0  0  0  0  0  0
  144.5854   74.2375  220.5763 H   0  0  0  0  0  0  0  0  0  0  0  0
  143.5142   76.4244  220.7227 H   0  0  0  0  0  0  0  0  0  0  0  0
  1  2  2  0
  2  3  1  0
  3  4  2  0
  4  5  1  0
  5  6  1  0
  6  7  1  0
  7  8  1  0
  8  9  1  0
  9 10  1  0
 10 11  1  0
 11 12  2  0
 12 13  1  0
 13 14  1  0
 14 15  1  0
 15 16  1  0
 16 17  1  0
 17 18  2  0
 18 19  1  0
 19 20  2  0
 20 21  1  0
 21 22  2  0
 22 23  1  0
 13 24  2  0
 24 25  1  0
 25 26  1  0
 26 27  1  0
 27 28  1  0
 28 29  1  0
 29 30  2  0
 30 31  1  0
 31 32  2  0
 32 33  1  0
 33 34  2  0
 34 35  1  0
 25 36  2  0
  9 37  1  0
  4 38  1  0
 38 39  2  0
 39  1  1  0
 37  6  1  0
 36 11  1  0
 23 14  1  0
 35 26  1  0
 22 17  1  0
 34 29  1  0
  1 40  1  0
  2 41  1  0
  3 42  1  0
  5 43  1  0
  5 44  1  0
  7 45  1  0
  7 46  1  0
  8 47  1  0
  8 48  1  0
  9 49  1  1
 10 50  1  0
 15 51  1  0
 15 52  1  0
 16 53  1  0
 16 54  1  0
 18 55  1  0
 19 56  1  0
 20 57  1  0
 21 58  1  0
 23 59  1  0
 23 60  1  0
 27 61  1  0
 27 62  1  0
 28 63  1  0
 28 64  1  0
 30 65  1  0
 31 66  1  0
 32 67  1  0
 33 68  1  0
 35 69  1  0
 35 70  1  0
 37 71  1  0
 37 72  1  0
 38 73  1  0
 39 74  1  0
M  END
>  <smiles>  (28) 
c1ccc(CN2CC[C@@H](Nc3nc(N4CCc5ccccc5C4)nc(N4CCc5ccccc5C4)n3)C2)cc1

>  <score_type>  (28) 
oracle

>  <origin>  (28) 
autodockgpu

>  <m_score__min__energy>  (28) 
-11.06

>  <m_primary>  (28) 
energy

>  <rmsd>  (28) 
7.756781549524708

>  <m_score__min__rmsd>  (28) 
7.756781549524708

>  <meeko>  (28) 
{"free_energy": -9.37, "intermolecular_energy": -11.16, "internal_energy": -2.6, "cluster_size": 10, "cluster_id": 3, "rank_in_cluster": 8}

>  <energy>  (28) 
-9.58

>  <cluster_rmsd>  (28) 
1.08

>  <cluster>  (28) 
3

$$$$

     RDKit          3D

 74 80  0  0  0  0  0  0  0  0999 V2000
  141.3190   78.2720  223.1020 C   0  0  0  0  0  0  0  0  0  0  0  0
  141.0560   76.9710  222.7140 C   0  0  0  0  0  0  0  0  0  0  0  0
  139.7850   76.5990  222.3650 C   0  0  0  0  0  0  0  0  0  0  0  0
  138.7090   77.4940  222.3810 C   0  0  0  0  0  0  0  0  0  0  0  0
  137.3690   77.0310  221.9760 C   0  0  0  0  0  0  0  0  0  0  0  0
  136.5920   76.7090  223.1330 N   0  0  0  0  0  0  0  0  0  0  0  0
  135.2120   76.9980  222.9300 C   0  0  0  0  0  0  0  0  0  0  0  0
  134.7820   75.9100  221.9380 C   0  0  0  0  0  0  0  0  0  0  0  0
  135.5900   74.7200  222.4020 C   0  0  1  0  0  0  0  0  0  0  0  0
  136.2650   74.0400  221.3100 N   0  0  0  0  0  0  0  0  0  0  0  0
  137.6090   73.5730  221.4880 C   0  0  0  0  0  0  0  0  0  0  0  0
  138.6150   74.0050  220.7140 N   0  0  0  0  0  0  0  0  0  0  0  0
  139.8640   73.5620  220.8900 C   0  0  0  0  0  0  0  0  0  0  0  0
  140.9420   74.0210  220.0670 N   0  0  0  0  0  0  0  0  0  0  0  0
  141.2190   75.4100  219.8290 C   0  0  0  0  0  0  0  0  0  0  0  0
  142.6760   75.7630  219.8950 C   0  0  0  0  0  0  0  0  0  0  0  0
  143.5690   74.6120  220.0820 C   0  0  0  0  0  0  0  0  0  0  0  0
  144.8660   74.8550  220.4910 C   0  0  0  0  0  0  0  0  0  0  0  0
  145.7350   73.7840  220.6770 C   0  0  0  0  0  0  0  0  0  0  0  0
  145.3330   72.4720  220.4620 C   0  0  0  0  0  0  0  0  0  0  0  0
  144.0390   72.2430  220.0570 C   0  0  0  0  0  0  0  0  0  0  0  0
  143.1910   73.3150  219.8760 C   0  0  0  0  0  0  0  0  0  0  0  0
  141.8020   73.0370  219.4390 C   0  0  0  0  0  0  0  0  0  0  0  0
  140.1160   72.6610  221.8670 N   0  0  0  0  0  0  0  0  0  0  0  0
  139.1210   72.2010  222.6700 C   0  0  0  0  0  0  0  0  0  0  0  0
  139.3580   71.2530  223.7060 N   0  0  0  0  0  0  0  0  0  0  0  0
  138.2640   70.4420  224.1960 C   0  0  0  0  0  0  0  0  0  0  0  0
  138.8700   69.3670  225.0790 C   0  0  0  0  0  0  0  0  0  0  0  0
  139.5970   70.1220  226.1550 C   0  0  0  0  0  0  0  0  0  0  0  0
  139.3390   69.9230  227.4940 C   0  0  0  0  0  0  0  0  0  0  0  0
  140.0860   70.6880  228.3840 C   0  0  0  0  0  0  0  0  0  0  0  0
  141.0260   71.5910  227.9500 C   0  0  0  0  0  0  0  0  0  0  0  0
  141.2780   71.7830  226.6080 C   0  0  0  0  0  0  0  0  0  0  0  0
  140.5420   71.0270  225.7200 C   0  0  0  0  0  0  0  0  0  0  0  0
  140.7150   71.1370  224.2360 C   0  0  0  0  0  0  0  0  0  0  0  0
  137.8810   72.6780  222.4530 N   0  0  0  0  0  0  0  0  0  0  0  0
  136.5750   75.2770  223.4040 C   0  0  0  0  0  0  0  0  0  0  0  0
  139.0120   78.7790  222.7740 C   0  0  0  0  0  0  0  0  0  0  0  0
  140.2750   79.1700  223.1260 C   0  0  0  0  0  0  0  0  0  0  0  0
  142.3360   78.5818  223.3843 H   0  0  0  0  0  0  0  0  0  0  0  0
  141.8705   76.2323  222.6856 H   0  0  0  0  0  0  0  0  0  0  0  0
  139.6029   75.5577  222.0607 H   0  0  0  0  0  0  0  0  0  0  0  0
  136.8647   77.8270  221.4086 H   0  0  0  0  0  0  0  0  0  0  0  0
  137.4716   76.1332  221.3488 H   0  0  0  0  0  0  0  0  0  0  0  0
  134.6481   76.9217  223.8714 H   0  0  0  0  0  0  0  0  0  0  0  0
  135.0291   78.0192  222.5642 H   0  0  0  0  0  0  0  0  0  0  0  0
  133.7024   75.7109  222.0072 H   0  0  0  0  0  0  0  0  0  0  0  0
  134.9544   76.1783  220.8852 H   0  0  0  0  0  0  0  0  0  0  0  0
  134.9396   73.9510  222.8444 H   0  0  0  0  0  0  0  0  0  0  0  0
  135.8140   73.8690  220.3830 H   0  0  0  0  0  0  0  0  0  0  0  0
  140.8452   75.6704  218.8277 H   0  0  0  0  0  0  0  0  0  0  0  0
  140.7185   75.9754  220.6289 H   0  0  0  0  0  0  0  0  0  0  0  0
  142.9520   76.2640  218.9554 H   0  0  0  0  0  0  0  0  0  0  0  0
  142.8042   76.4077  220.7770 H   0  0  0  0  0  0  0  0  0  0  0  0
  145.2086   75.8852  220.6680 H   0  0  0  0  0  0  0  0  0  0  0  0
  146.7669   73.9816  221.0027 H   0  0  0  0  0  0  0  0  0  0  0  0
  146.0326   71.6365  220.6120 H   0  0  0  0  0  0  0  0  0  0  0  0
  143.6847   71.2169  219.8796 H   0  0  0  0  0  0  0  0  0  0  0  0
  141.7293   73.1187  218.3444 H   0  0  0  0  0  0  0  0  0  0  0  0
  141.5014   72.0191  219.7281 H   0  0  0  0  0  0  0  0  0  0  0  0
  137.5664   71.0611  224.7792 H   0  0  0  0  0  0  0  0  0  0  0  0
  137.7024   69.9951  223.3624 H   0  0  0  0  0  0  0  0  0  0  0  0
  138.0831   68.7332  225.5139 H   0  0  0  0  0  0  0  0  0  0  0  0
  139.5371   68.6955  224.5186 H   0  0  0  0  0  0  0  0  0  0  0  0
  138.5852   69.2002  227.8395 H   0  0  0  0  0  0  0  0  0  0  0  0
  139.9195   70.5666  229.4645 H   0  0  0  0  0  0  0  0  0  0  0  0
  141.5914   72.1751  228.6911 H   0  0  0  0  0  0  0  0  0  0  0  0
  142.0314   72.5059  226.2617 H   0  0  0  0  0  0  0  0  0  0  0  0
  141.3076   72.0279  223.9806 H   0  0  0  0  0  0  0  0  0  0  0  0
  141.2505   70.2725  223.8166 H   0  0  0  0  0  0  0  0  0  0  0  0
  136.2390   75.0788  224.4325 H   0  0  0  0  0  0  0  0  0  0  0  0
  137.5714   74.8198  223.3133 H   0  0  0  0  0  0  0  0  0  0  0  0
  138.2029   79.5236  222.8063 H   0  0  0  0  0  0  0  0  0  0  0  0
  140.4582   80.2109  223.4309 H   0  0  0  0  0  0  0  0  0  0  0  0
  1  2  2  0
  2  3  1  0
  3  4  2  0
  4  5  1  0
  5  6  1  0
  6  7  1  0
  7  8  1  0
  8  9  1  0
  9 10  1  0
 10 11  1  0
 11 12  2  0
 12 13  1  0
 13 14  1  0
 14 15  1  0
 15 16  1  0
 16 17  1  0
 17 18  2  0
 18 19  1  0
 19 20  2  0
 20 21  1  0
 21 22  2  0
 22 23  1  0
 13 24  2  0
 24 25  1  0
 25 26  1  0
 26 27  1  0
 27 28  1  0
 28 29  1  0
 29 30  2  0
 30 31  1  0
 31 32  2  0
 32 33  1  0
 33 34  2  0
 34 35  1  0
 25 36  2  0
  9 37  1  0
  4 38  1  0
 38 39  2  0
 39  1  1  0
 37  6  1  0
 36 11  1  0
 23 14  1  0
 35 26  1  0
 22 17  1  0
 34 29  1  0
  1 40  1  0
  2 41  1  0
  3 42  1  0
  5 43  1  0
  5 44  1  0
  7 45  1  0
  7 46  1  0
  8 47  1  0
  8 48  1  0
  9 49  1  1
 10 50  1  0
 15 51  1  0
 15 52  1  0
 16 53  1  0
 16 54  1  0
 18 55  1  0
 19 56  1  0
 20 57  1  0
 21 58  1  0
 23 59  1  0
 23 60  1  0
 27 61  1  0
 27 62  1  0
 28 63  1  0
 28 64  1  0
 30 65  1  0
 31 66  1  0
 32 67  1  0
 33 68  1  0
 35 69  1  0
 35 70  1  0
 37 71  1  0
 37 72  1  0
 38 73  1  0
 39 74  1  0
M  END
>  <smiles>  (29) 
c1ccc(CN2CC[C@@H](Nc3nc(N4CCc5ccccc5C4)nc(N4CCc5ccccc5C4)n3)C2)cc1

>  <score_type>  (29) 
oracle

>  <origin>  (29) 
autodockgpu

>  <m_score__min__energy>  (29) 
-11.06

>  <m_primary>  (29) 
energy

>  <rmsd>  (29) 
5.857295519506169

>  <m_score__min__rmsd>  (29) 
5.857295519506169

>  <meeko>  (29) 
{"free_energy": -9.53, "intermolecular_energy": -11.32, "internal_energy": -2.54, "cluster_size": 11, "cluster_id": 6, "rank_in_cluster": 4}

>  <energy>  (29) 
-9.56

>  <cluster_rmsd>  (29) 
0.81

>  <cluster>  (29) 
3

$$$$

     RDKit          3D

 74 80  0  0  0  0  0  0  0  0999 V2000
  141.3960   70.9650  228.3410 C   0  0  0  0  0  0  0  0  0  0  0  0
  140.5450   69.8900  228.1590 C   0  0  0  0  0  0  0  0  0  0  0  0
  139.7530   69.8180  227.0440 C   0  0  0  0  0  0  0  0  0  0  0  0
  139.7610   70.8070  226.0530 C   0  0  0  0  0  0  0  0  0  0  0  0
  138.8940   70.6580  224.8690 C   0  0  0  0  0  0  0  0  0  0  0  0
  139.5730   69.9110  223.8560 N   0  0  0  0  0  0  0  0  0  0  0  0
  138.6520   69.2670  222.9790 C   0  0  0  0  0  0  0  0  0  0  0  0
  138.0700   70.4400  222.1810 C   0  0  0  0  0  0  0  0  0  0  0  0
  139.2700   71.3460  222.0280 C   0  0  1  0  0  0  0  0  0  0  0  0
  138.9740   72.7300  222.3570 N   0  0  0  0  0  0  0  0  0  0  0  0
  139.8870   73.7640  221.9630 C   0  0  0  0  0  0  0  0  0  0  0  0
  140.9490   73.5100  221.1880 N   0  0  0  0  0  0  0  0  0  0  0  0
  141.7930   74.4830  220.8270 C   0  0  0  0  0  0  0  0  0  0  0  0
  142.9290   74.2160  219.9980 N   0  0  0  0  0  0  0  0  0  0  0  0
  144.2330   74.7680  220.2420 C   0  0  0  0  0  0  0  0  0  0  0  0
  145.3550   73.7850  220.0730 C   0  0  0  0  0  0  0  0  0  0  0  0
  144.9330   72.4670  219.5830 C   0  0  0  0  0  0  0  0  0  0  0  0
  145.8150   71.4110  219.7170 C   0  0  0  0  0  0  0  0  0  0  0  0
  145.4440   70.1490  219.2630 C   0  0  0  0  0  0  0  0  0  0  0  0
  144.2060   69.9200  218.6760 C   0  0  0  0  0  0  0  0  0  0  0  0
  143.3370   70.9780  218.5490 C   0  0  0  0  0  0  0  0  0  0  0  0
  143.7200   72.2220  219.0030 C   0  0  0  0  0  0  0  0  0  0  0  0
  142.7620   73.3430  218.8530 C   0  0  0  0  0  0  0  0  0  0  0  0
  141.5680   75.7460  221.2540 N   0  0  0  0  0  0  0  0  0  0  0  0
  140.5000   76.0400  222.0410 C   0  0  0  0  0  0  0  0  0  0  0  0
  140.2400   77.3610  222.5040 N   0  0  0  0  0  0  0  0  0  0  0  0
  139.0450   78.0500  222.0640 C   0  0  0  0  0  0  0  0  0  0  0  0
  138.9110   79.2970  222.9180 C   0  0  0  0  0  0  0  0  0  0  0  0
  140.1780   80.0640  222.6760 C   0  0  0  0  0  0  0  0  0  0  0  0
  140.1740   81.3670  222.2250 C   0  0  0  0  0  0  0  0  0  0  0  0
  141.4200   81.9590  222.0430 C   0  0  0  0  0  0  0  0  0  0  0  0
  142.5870   81.2800  222.2980 C   0  0  0  0  0  0  0  0  0  0  0  0
  142.5820   79.9780  222.7490 C   0  0  0  0  0  0  0  0  0  0  0  0
  141.3500   79.3840  222.9320 C   0  0  0  0  0  0  0  0  0  0  0  0
  141.2020   77.9750  223.4170 C   0  0  0  0  0  0  0  0  0  0  0  0
  139.6810   75.0270  222.3760 N   0  0  0  0  0  0  0  0  0  0  0  0
  140.3220   70.7680  222.9470 C   0  0  0  0  0  0  0  0  0  0  0  0
  140.6200   71.8600  226.2710 C   0  0  0  0  0  0  0  0  0  0  0  0
  141.4210   71.9480  227.3780 C   0  0  0  0  0  0  0  0  0  0  0  0
  142.0365   71.0326  229.2327 H   0  0  0  0  0  0  0  0  0  0  0  0
  140.5041   69.0898  228.9127 H   0  0  0  0  0  0  0  0  0  0  0  0
  139.0863   68.9515  226.9226 H   0  0  0  0  0  0  0  0  0  0  0  0
  137.9733   70.1290  225.1561 H   0  0  0  0  0  0  0  0  0  0  0  0
  138.6448   71.6549  224.4764 H   0  0  0  0  0  0  0  0  0  0  0  0
  139.1662   68.5538  222.3179 H   0  0  0  0  0  0  0  0  0  0  0  0
  137.8884   68.6757  223.5056 H   0  0  0  0  0  0  0  0  0  0  0  0
  137.6926   70.1088  221.2023 H   0  0  0  0  0  0  0  0  0  0  0  0
  137.2102   70.9231  222.6682 H   0  0  0  0  0  0  0  0  0  0  0  0
  139.6076   71.3788  220.9816 H   0  0  0  0  0  0  0  0  0  0  0  0
  138.1140   73.0180  222.8750 H   0  0  0  0  0  0  0  0  0  0  0  0
  144.3933   75.5995  219.5399 H   0  0  0  0  0  0  0  0  0  0  0  0
  144.2495   75.0912  221.2933 H   0  0  0  0  0  0  0  0  0  0  0  0
  146.0760   74.2047  219.3561 H   0  0  0  0  0  0  0  0  0  0  0  0
  145.7888   73.6265  221.0713 H   0  0  0  0  0  0  0  0  0  0  0  0
  146.8013   71.5669  220.1784 H   0  0  0  0  0  0  0  0  0  0  0  0
  146.1489   69.3116  219.3717 H   0  0  0  0  0  0  0  0  0  0  0  0
  143.9276   68.9166  218.3214 H   0  0  0  0  0  0  0  0  0  0  0  0
  142.3477   70.8334  218.0904 H   0  0  0  0  0  0  0  0  0  0  0  0
  142.9730   73.8956  217.9256 H   0  0  0  0  0  0  0  0  0  0  0  0
  141.7300   72.9659  218.8010 H   0  0  0  0  0  0  0  0  0  0  0  0
  139.1376   78.3268  221.0034 H   0  0  0  0  0  0  0  0  0  0  0  0
  138.1596   77.4057  222.1690 H   0  0  0  0  0  0  0  0  0  0  0  0
  138.0356   79.8868  222.6083 H   0  0  0  0  0  0  0  0  0  0  0  0
  138.7663   79.0585  223.9820 H   0  0  0  0  0  0  0  0  0  0  0  0
  139.2383   81.9081  222.0206 H   0  0  0  0  0  0  0  0  0  0  0  0
  141.4721   82.9980  221.6855 H   0  0  0  0  0  0  0  0  0  0  0  0
  143.5492   81.7885  222.1381 H   0  0  0  0  0  0  0  0  0  0  0  0
  143.5175   79.4368  222.9538 H   0  0  0  0  0  0  0  0  0  0  0  0
  142.1665   77.4479  223.3744 H   0  0  0  0  0  0  0  0  0  0  0  0
  140.8655   77.9309  224.4634 H   0  0  0  0  0  0  0  0  0  0  0  0
  141.0584   70.1824  222.3770 H   0  0  0  0  0  0  0  0  0  0  0  0
  140.8918   71.5461  223.4761 H   0  0  0  0  0  0  0  0  0  0  0  0
  140.6650   72.6658  225.5235 H   0  0  0  0  0  0  0  0  0  0  0  0
  142.0907   72.8123  227.4988 H   0  0  0  0  0  0  0  0  0  0  0  0
  1  2  2  0
  2  3  1  0
  3  4  2  0
  4  5  1  0
  5  6  1  0
  6  7  1  0
  7  8  1  0
  8  9  1  0
  9 10  1  0
 10 11  1  0
 11 12  2  0
 12 13  1  0
 13 14  1  0
 14 15  1  0
 15 16  1  0
 16 17  1  0
 17 18  2  0
 18 19  1  0
 19 20  2  0
 20 21  1  0
 21 22  2  0
 22 23  1  0
 13 24  2  0
 24 25  1  0
 25 26  1  0
 26 27  1  0
 27 28  1  0
 28 29  1  0
 29 30  2  0
 30 31  1  0
 31 32  2  0
 32 33  1  0
 33 34  2  0
 34 35  1  0
 25 36  2  0
  9 37  1  0
  4 38  1  0
 38 39  2  0
 39  1  1  0
 37  6  1  0
 36 11  1  0
 23 14  1  0
 35 26  1  0
 22 17  1  0
 34 29  1  0
  1 40  1  0
  2 41  1  0
  3 42  1  0
  5 43  1  0
  5 44  1  0
  7 45  1  0
  7 46  1  0
  8 47  1  0
  8 48  1  0
  9 49  1  6
 10 50  1  0
 15 51  1  0
 15 52  1  0
 16 53  1  0
 16 54  1  0
 18 55  1  0
 19 56  1  0
 20 57  1  0
 21 58  1  0
 23 59  1  0
 23 60  1  0
 27 61  1  0
 27 62  1  0
 28 63  1  0
 28 64  1  0
 30 65  1  0
 31 66  1  0
 32 67  1  0
 33 68  1  0
 35 69  1  0
 35 70  1  0
 37 71  1  0
 37 72  1  0
 38 73  1  0
 39 74  1  0
M  END
>  <smiles>  (30) 
c1ccc(CN2CC[C@@H](Nc3nc(N4CCc5ccccc5C4)nc(N4CCc5ccccc5C4)n3)C2)cc1

>  <score_type>  (30) 
oracle

>  <origin>  (30) 
autodockgpu

>  <m_score__min__energy>  (30) 
-11.06

>  <m_primary>  (30) 
energy

>  <rmsd>  (30) 
10.396654839403864

>  <m_score__min__rmsd>  (30) 
10.396654839403864

>  <meeko>  (30) 
{"free_energy": -10.34, "intermolecular_energy": -12.13, "internal_energy": -1.63, "cluster_size": 14, "cluster_id": 2, "rank_in_cluster": 13}

>  <energy>  (30) 
-9.37

>  <cluster_rmsd>  (30) 
1.0

>  <cluster>  (30) 
3

$$$$

     RDKit          3D

 74 80  0  0  0  0  0  0  0  0999 V2000
  143.1790   77.1620  218.5570 C   0  0  0  0  0  0  0  0  0  0  0  0
  143.5780   76.5090  219.7090 C   0  0  0  0  0  0  0  0  0  0  0  0
  144.0040   75.2090  219.6530 C   0  0  0  0  0  0  0  0  0  0  0  0
  144.0580   74.4880  218.4540 C   0  0  0  0  0  0  0  0  0  0  0  0
  144.5450   73.0950  218.4630 C   0  0  0  0  0  0  0  0  0  0  0  0
  143.6310   72.2540  217.7530 N   0  0  0  0  0  0  0  0  0  0  0  0
  144.1860   70.9630  217.5210 C   0  0  0  0  0  0  0  0  0  0  0  0
  144.1830   70.3370  218.9220 C   0  0  0  0  0  0  0  0  0  0  0  0
  142.9020   70.8840  219.5100 C   0  0  1  0  0  0  0  0  0  0  0  0
  143.0850   71.4240  220.8460 N   0  0  0  0  0  0  0  0  0  0  0  0
  141.9930   72.0890  221.4980 C   0  0  0  0  0  0  0  0  0  0  0  0
  141.2670   71.4870  222.4500 N   0  0  0  0  0  0  0  0  0  0  0  0
  140.2520   72.1190  223.0500 C   0  0  0  0  0  0  0  0  0  0  0  0
  139.4740   71.4800  224.0680 N   0  0  0  0  0  0  0  0  0  0  0  0
  138.2000   70.8650  223.8200 C   0  0  0  0  0  0  0  0  0  0  0  0
  138.0190   69.5370  224.4970 C   0  0  0  0  0  0  0  0  0  0  0  0
  139.1290   69.1530  225.3790 C   0  0  0  0  0  0  0  0  0  0  0  0
  139.2200   67.8320  225.7710 C   0  0  0  0  0  0  0  0  0  0  0  0
  140.2610   67.4380  226.6060 C   0  0  0  0  0  0  0  0  0  0  0  0
  141.2160   68.3400  227.0580 C   0  0  0  0  0  0  0  0  0  0  0  0
  141.1150   69.6520  226.6600 C   0  0  0  0  0  0  0  0  0  0  0  0
  140.0770   70.0270  225.8330 C   0  0  0  0  0  0  0  0  0  0  0  0
  139.9940   71.4480  225.4210 C   0  0  0  0  0  0  0  0  0  0  0  0
  139.9550   73.3870  222.6880 N   0  0  0  0  0  0  0  0  0  0  0  0
  140.6700   74.0280  221.7270 C   0  0  0  0  0  0  0  0  0  0  0  0
  140.3780   75.3630  221.3270 N   0  0  0  0  0  0  0  0  0  0  0  0
  140.5430   75.7460  219.9410 C   0  0  0  0  0  0  0  0  0  0  0  0
  139.9090   77.1150  219.7800 C   0  0  0  0  0  0  0  0  0  0  0  0
  140.6500   77.9940  220.7460 C   0  0  0  0  0  0  0  0  0  0  0  0
  141.2890   79.1490  220.3460 C   0  0  0  0  0  0  0  0  0  0  0  0
  141.9380   79.8690  221.3450 C   0  0  0  0  0  0  0  0  0  0  0  0
  141.9400   79.4510  222.6530 C   0  0  0  0  0  0  0  0  0  0  0  0
  141.2970   78.2950  223.0440 C   0  0  0  0  0  0  0  0  0  0  0  0
  140.6520   77.5760  222.0600 C   0  0  0  0  0  0  0  0  0  0  0  0
  139.9170   76.3030  222.3470 C   0  0  0  0  0  0  0  0  0  0  0  0
  141.6810   73.3500  221.1530 N   0  0  0  0  0  0  0  0  0  0  0  0
  142.4430   71.9470  218.5380 C   0  0  0  0  0  0  0  0  0  0  0  0
  143.6530   75.1730  217.3310 C   0  0  0  0  0  0  0  0  0  0  0  0
  143.2240   76.4720  217.3670 C   0  0  0  0  0  0  0  0  0  0  0  0
  142.8345   78.2061  218.5910 H   0  0  0  0  0  0  0  0  0  0  0  0
  143.5530   77.0362  220.6741 H   0  0  0  0  0  0  0  0  0  0  0  0
  144.3152   74.7128  220.5841 H   0  0  0  0  0  0  0  0  0  0  0  0
  145.5320   73.0507  217.9794 H   0  0  0  0  0  0  0  0  0  0  0  0
  144.6241   72.7462  219.5032 H   0  0  0  0  0  0  0  0  0  0  0  0
  143.5620   70.3822  216.8258 H   0  0  0  0  0  0  0  0  0  0  0  0
  145.1838   70.9937  217.0591 H   0  0  0  0  0  0  0  0  0  0  0  0
  144.1608   69.2385  218.8685 H   0  0  0  0  0  0  0  0  0  0  0  0
  145.0788   70.5739  219.5147 H   0  0  0  0  0  0  0  0  0  0  0  0
  142.1539   70.0873  219.6353 H   0  0  0  0  0  0  0  0  0  0  0  0
  143.9860   71.3520  221.3690 H   0  0  0  0  0  0  0  0  0  0  0  0
  137.4126   71.5451  224.1771 H   0  0  0  0  0  0  0  0  0  0  0  0
  138.1421   70.6799  222.7372 H   0  0  0  0  0  0  0  0  0  0  0  0
  137.0993   69.5795  225.0989 H   0  0  0  0  0  0  0  0  0  0  0  0
  137.9731   68.7803  223.7000 H   0  0  0  0  0  0  0  0  0  0  0  0
  138.4766   67.0981  225.4264 H   0  0  0  0  0  0  0  0  0  0  0  0
  140.3296   66.3849  226.9163 H   0  0  0  0  0  0  0  0  0  0  0  0
  142.0328   68.0125  227.7180 H   0  0  0  0  0  0  0  0  0  0  0  0
  141.8536   70.3941  226.9973 H   0  0  0  0  0  0  0  0  0  0  0  0
  139.3196   71.9958  226.0956 H   0  0  0  0  0  0  0  0  0  0  0  0
  140.9851   71.9230  225.4664 H   0  0  0  0  0  0  0  0  0  0  0  0
  141.6122   75.7927  219.6868 H   0  0  0  0  0  0  0  0  0  0  0  0
  140.0685   75.0128  219.2722 H   0  0  0  0  0  0  0  0  0  0  0  0
  140.0319   77.4807  218.7499 H   0  0  0  0  0  0  0  0  0  0  0  0
  138.8271   77.0985  219.9778 H   0  0  0  0  0  0  0  0  0  0  0  0
  141.2859   79.4821  219.2976 H   0  0  0  0  0  0  0  0  0  0  0  0
  142.4636   80.7981  221.0794 H   0  0  0  0  0  0  0  0  0  0  0  0
  142.4674   80.0529  223.4077 H   0  0  0  0  0  0  0  0  0  0  0  0
  141.2987   77.9621  224.0924 H   0  0  0  0  0  0  0  0  0  0  0  0
  140.1627   75.9330  223.3533 H   0  0  0  0  0  0  0  0  0  0  0  0
  138.8259   76.4403  222.3201 H   0  0  0  0  0  0  0  0  0  0  0  0
  141.6382   71.5641  217.8933 H   0  0  0  0  0  0  0  0  0  0  0  0
  142.0345   72.8330  219.0461 H   0  0  0  0  0  0  0  0  0  0  0  0
  143.6751   74.6533  216.3617 H   0  0  0  0  0  0  0  0  0  0  0  0
  142.9123   76.9691  216.4365 H   0  0  0  0  0  0  0  0  0  0  0  0
  1  2  2  0
  2  3  1  0
  3  4  2  0
  4  5  1  0
  5  6  1  0
  6  7  1  0
  7  8  1  0
  8  9  1  0
  9 10  1  0
 10 11  1  0
 11 12  2  0
 12 13  1  0
 13 14  1  0
 14 15  1  0
 15 16  1  0
 16 17  1  0
 17 18  2  0
 18 19  1  0
 19 20  2  0
 20 21  1  0
 21 22  2  0
 22 23  1  0
 13 24  2  0
 24 25  1  0
 25 26  1  0
 26 27  1  0
 27 28  1  0
 28 29  1  0
 29 30  2  0
 30 31  1  0
 31 32  2  0
 32 33  1  0
 33 34  2  0
 34 35  1  0
 25 36  2  0
  9 37  1  0
  4 38  1  0
 38 39  2  0
 39  1  1  0
 37  6  1  0
 36 11  1  0
 23 14  1  0
 35 26  1  0
 22 17  1  0
 34 29  1  0
  1 40  1  0
  2 41  1  0
  3 42  1  0
  5 43  1  0
  5 44  1  0
  7 45  1  0
  7 46  1  0
  8 47  1  0
  8 48  1  0
  9 49  1  1
 10 50  1  0
 15 51  1  0
 15 52  1  0
 16 53  1  0
 16 54  1  0
 18 55  1  0
 19 56  1  0
 20 57  1  0
 21 58  1  0
 23 59  1  0
 23 60  1  0
 27 61  1  0
 27 62  1  0
 28 63  1  0
 28 64  1  0
 30 65  1  0
 31 66  1  0
 32 67  1  0
 33 68  1  0
 35 69  1  0
 35 70  1  0
 37 71  1  0
 37 72  1  0
 38 73  1  0
 39 74  1  0
M  END
>  <smiles>  (31) 
c1ccc(CN2CC[C@@H](Nc3nc(N4CCc5ccccc5C4)nc(N4CCc5ccccc5C4)n3)C2)cc1

>  <score_type>  (31) 
oracle

>  <origin>  (31) 
autodockgpu

>  <m_score__min__energy>  (31) 
-11.06

>  <m_primary>  (31) 
energy

>  <rmsd>  (31) 
7.4278492280876

>  <m_score__min__rmsd>  (31) 
7.4278492280876

>  <meeko>  (31) 
{"free_energy": -9.34, "intermolecular_energy": -11.13, "internal_energy": -2.68, "cluster_size": 10, "cluster_id": 3, "rank_in_cluster": 9}

>  <energy>  (31) 
-9.34

>  <cluster_rmsd>  (31) 
1.03

>  <cluster>  (31) 
3

$$$$

     RDKit          3D

 74 80  0  0  0  0  0  0  0  0999 V2000
  140.7350   68.6540  228.2920 C   0  0  0  0  0  0  0  0  0  0  0  0
  140.7670   68.0540  227.0460 C   0  0  0  0  0  0  0  0  0  0  0  0
  140.5670   68.8010  225.9160 C   0  0  0  0  0  0  0  0  0  0  0  0
  140.3250   70.1790  225.9590 C   0  0  0  0  0  0  0  0  0  0  0  0
  140.1350   70.9260  224.7010 C   0  0  0  0  0  0  0  0  0  0  0  0
  139.8330   70.0200  223.6360 N   0  0  0  0  0  0  0  0  0  0  0  0
  138.4680   69.6130  223.6720 C   0  0  0  0  0  0  0  0  0  0  0  0
  137.7260   70.8830  223.2390 C   0  0  0  0  0  0  0  0  0  0  0  0
  138.6640   71.4620  222.2050 C   0  0  1  0  0  0  0  0  0  0  0  0
  138.9100   72.8800  222.4020 N   0  0  0  0  0  0  0  0  0  0  0  0
  139.9420   73.5330  221.6500 C   0  0  0  0  0  0  0  0  0  0  0  0
  140.8440   72.8400  220.9400 N   0  0  0  0  0  0  0  0  0  0  0  0
  141.8020   73.4610  220.2430 C   0  0  0  0  0  0  0  0  0  0  0  0
  142.7670   72.7260  219.4830 N   0  0  0  0  0  0  0  0  0  0  0  0
  144.1850   72.8830  219.6430 C   0  0  0  0  0  0  0  0  0  0  0  0
  144.9470   71.5890  219.6540 C   0  0  0  0  0  0  0  0  0  0  0  0
  144.1240   70.4020  219.3910 C   0  0  0  0  0  0  0  0  0  0  0  0
  144.6470   69.1640  219.7110 C   0  0  0  0  0  0  0  0  0  0  0  0
  143.8910   68.0200  219.4740 C   0  0  0  0  0  0  0  0  0  0  0  0
  142.6180   68.0890  218.9210 C   0  0  0  0  0  0  0  0  0  0  0  0
  142.1080   69.3270  218.6070 C   0  0  0  0  0  0  0  0  0  0  0  0
  142.8700   70.4500  218.8480 C   0  0  0  0  0  0  0  0  0  0  0  0
  142.2940   71.7700  218.5000 C   0  0  0  0  0  0  0  0  0  0  0  0
  141.8590   74.8120  220.2540 N   0  0  0  0  0  0  0  0  0  0  0  0
  140.9610   75.5460  220.9620 C   0  0  0  0  0  0  0  0  0  0  0  0
  140.9990   76.9690  220.9910 N   0  0  0  0  0  0  0  0  0  0  0  0
  141.8190   77.6810  220.0330 C   0  0  0  0  0  0  0  0  0  0  0  0
  141.4480   79.1490  220.1370 C   0  0  0  0  0  0  0  0  0  0  0  0
  141.7280   79.5140  221.5660 C   0  0  0  0  0  0  0  0  0  0  0  0
  142.5730   80.5480  221.9080 C   0  0  0  0  0  0  0  0  0  0  0  0
  142.7430   80.7780  223.2700 C   0  0  0  0  0  0  0  0  0  0  0  0
  142.1040   80.0150  224.2170 C   0  0  0  0  0  0  0  0  0  0  0  0
  141.2600   78.9830  223.8670 C   0  0  0  0  0  0  0  0  0  0  0  0
  141.0870   78.7500  222.5180 C   0  0  0  0  0  0  0  0  0  0  0  0
  140.1990   77.6600  222.0000 C   0  0  0  0  0  0  0  0  0  0  0  0
  140.0170   74.8750  221.6480 N   0  0  0  0  0  0  0  0  0  0  0  0
  139.9360   70.6540  222.3280 C   0  0  0  0  0  0  0  0  0  0  0  0
  140.3010   70.7380  227.2170 C   0  0  0  0  0  0  0  0  0  0  0  0
  140.5000   70.0090  228.3580 C   0  0  0  0  0  0  0  0  0  0  0  0
  140.8932   68.0637  229.2066 H   0  0  0  0  0  0  0  0  0  0  0  0
  140.9537   66.9732  226.9627 H   0  0  0  0  0  0  0  0  0  0  0  0
  140.5977   68.2993  224.9376 H   0  0  0  0  0  0  0  0  0  0  0  0
  139.3043   71.6370  224.8212 H   0  0  0  0  0  0  0  0  0  0  0  0
  141.0599   71.4708  224.4608 H   0  0  0  0  0  0  0  0  0  0  0  0
  138.2820   68.7863  222.9706 H   0  0  0  0  0  0  0  0  0  0  0  0
  138.1507   69.2360  224.6555 H   0  0  0  0  0  0  0  0  0  0  0  0
  136.7467   70.6428  222.7994 H   0  0  0  0  0  0  0  0  0  0  0  0
  137.5041   71.5701  224.0688 H   0  0  0  0  0  0  0  0  0  0  0  0
  138.2278   71.3964  221.1973 H   0  0  0  0  0  0  0  0  0  0  0  0
  138.3640   73.4620  223.0760 H   0  0  0  0  0  0  0  0  0  0  0  0
  144.5605   73.4982  218.8120 H   0  0  0  0  0  0  0  0  0  0  0  0
  144.3436   73.3533  220.6247 H   0  0  0  0  0  0  0  0  0  0  0  0
  145.7298   71.6434  218.8831 H   0  0  0  0  0  0  0  0  0  0  0  0
  145.3546   71.4716  220.6689 H   0  0  0  0  0  0  0  0  0  0  0  0
  145.6526   69.0833  220.1495 H   0  0  0  0  0  0  0  0  0  0  0  0
  144.3116   67.0365  219.7308 H   0  0  0  0  0  0  0  0  0  0  0  0
  142.0325   67.1757  218.7389 H   0  0  0  0  0  0  0  0  0  0  0  0
  141.1035   69.4199  218.1685 H   0  0  0  0  0  0  0  0  0  0  0  0
  142.6245   72.0705  217.4948 H   0  0  0  0  0  0  0  0  0  0  0  0
  141.1949   71.7252  218.5014 H   0  0  0  0  0  0  0  0  0  0  0  0
  142.8841   77.5426  220.2706 H   0  0  0  0  0  0  0  0  0  0  0  0
  141.6492   77.3041  219.0136 H   0  0  0  0  0  0  0  0  0  0  0  0
  142.0635   79.7537  219.4547 H   0  0  0  0  0  0  0  0  0  0  0  0
  140.3999   79.3335  219.8586 H   0  0  0  0  0  0  0  0  0  0  0  0
  143.0840   81.1568  221.1475 H   0  0  0  0  0  0  0  0  0  0  0  0
  143.4065   81.5922  223.5969 H   0  0  0  0  0  0  0  0  0  0  0  0
  142.2702   80.2333  225.2822 H   0  0  0  0  0  0  0  0  0  0  0  0
  140.7486   78.3740  224.6270 H   0  0  0  0  0  0  0  0  0  0  0  0
  139.9195   76.9708  222.8105 H   0  0  0  0  0  0  0  0  0  0  0  0
  139.2599   78.0542  221.5844 H   0  0  0  0  0  0  0  0  0  0  0  0
  139.9960   69.8975  221.5317 H   0  0  0  0  0  0  0  0  0  0  0  0
  140.8395   71.2739  222.2307 H   0  0  0  0  0  0  0  0  0  0  0  0
  140.1136   71.8180  227.3090 H   0  0  0  0  0  0  0  0  0  0  0  0
  140.4719   70.5102  229.3368 H   0  0  0  0  0  0  0  0  0  0  0  0
  1  2  2  0
  2  3  1  0
  3  4  2  0
  4  5  1  0
  5  6  1  0
  6  7  1  0
  7  8  1  0
  8  9  1  0
  9 10  1  0
 10 11  1  0
 11 12  2  0
 12 13  1  0
 13 14  1  0
 14 15  1  0
 15 16  1  0
 16 17  1  0
 17 18  2  0
 18 19  1  0
 19 20  2  0
 20 21  1  0
 21 22  2  0
 22 23  1  0
 13 24  2  0
 24 25  1  0
 25 26  1  0
 26 27  1  0
 27 28  1  0
 28 29  1  0
 29 30  2  0
 30 31  1  0
 31 32  2  0
 32 33  1  0
 33 34  2  0
 34 35  1  0
 25 36  2  0
  9 37  1  0
  4 38  1  0
 38 39  2  0
 39  1  1  0
 37  6  1  0
 36 11  1  0
 23 14  1  0
 35 26  1  0
 22 17  1  0
 34 29  1  0
  1 40  1  0
  2 41  1  0
  3 42  1  0
  5 43  1  0
  5 44  1  0
  7 45  1  0
  7 46  1  0
  8 47  1  0
  8 48  1  0
  9 49  1  6
 10 50  1  0
 15 51  1  0
 15 52  1  0
 16 53  1  0
 16 54  1  0
 18 55  1  0
 19 56  1  0
 20 57  1  0
 21 58  1  0
 23 59  1  0
 23 60  1  0
 27 61  1  0
 27 62  1  0
 28 63  1  0
 28 64  1  0
 30 65  1  0
 31 66  1  0
 32 67  1  0
 33 68  1  0
 35 69  1  0
 35 70  1  0
 37 71  1  0
 37 72  1  0
 38 73  1  0
 39 74  1  0
M  END
>  <smiles>  (32) 
c1ccc(CN2CC[C@@H](Nc3nc(N4CCc5ccccc5C4)nc(N4CCc5ccccc5C4)n3)C2)cc1

>  <score_type>  (32) 
oracle

>  <origin>  (32) 
autodockgpu

>  <m_score__min__energy>  (32) 
-11.06

>  <m_primary>  (32) 
energy

>  <rmsd>  (32) 
10.951134840488963

>  <m_score__min__rmsd>  (32) 
10.951134840488963

>  <meeko>  (32) 
{"free_energy": -10.57, "intermolecular_energy": -12.36, "internal_energy": -1.47, "cluster_size": 8, "cluster_id": 1, "rank_in_cluster": 7}

>  <energy>  (32) 
-9.13

>  <cluster_rmsd>  (32) 
1.18

>  <cluster>  (32) 
3

$$$$

     RDKit          3D

 74 80  0  0  0  0  0  0  0  0999 V2000
  140.9030   68.5340  227.9840 C   0  0  0  0  0  0  0  0  0  0  0  0
  140.3570   67.9390  226.8610 C   0  0  0  0  0  0  0  0  0  0  0  0
  139.9210   68.7080  225.8150 C   0  0  0  0  0  0  0  0  0  0  0  0
  140.0030   70.1050  225.8260 C   0  0  0  0  0  0  0  0  0  0  0  0
  139.5300   70.8720  224.6580 C   0  0  0  0  0  0  0  0  0  0  0  0
  139.8400   70.1670  223.4530 N   0  0  0  0  0  0  0  0  0  0  0  0
  138.6880   69.5240  222.9160 C   0  0  0  0  0  0  0  0  0  0  0  0
  137.8540   70.7030  222.3970 C   0  0  0  0  0  0  0  0  0  0  0  0
  138.9200   71.6410  221.8790 C   0  0  1  0  0  0  0  0  0  0  0  0
  138.7320   73.0080  222.3330 N   0  0  0  0  0  0  0  0  0  0  0  0
  139.6920   74.0130  221.9760 C   0  0  0  0  0  0  0  0  0  0  0  0
  140.7430   73.7370  221.1910 N   0  0  0  0  0  0  0  0  0  0  0  0
  141.6310   74.6830  220.8660 C   0  0  0  0  0  0  0  0  0  0  0  0
  142.7550   74.3940  220.0280 N   0  0  0  0  0  0  0  0  0  0  0  0
  144.0750   74.9060  220.2700 C   0  0  0  0  0  0  0  0  0  0  0  0
  145.1670   73.8940  220.0830 C   0  0  0  0  0  0  0  0  0  0  0  0
  144.7060   72.5930  219.5800 C   0  0  0  0  0  0  0  0  0  0  0  0
  145.5580   71.5120  219.6970 C   0  0  0  0  0  0  0  0  0  0  0  0
  145.1490   70.2670  219.2300 C   0  0  0  0  0  0  0  0  0  0  0  0
  143.9020   70.0800  218.6470 C   0  0  0  0  0  0  0  0  0  0  0  0
  143.0630   71.1630  218.5380 C   0  0  0  0  0  0  0  0  0  0  0  0
  143.4830   72.3910  219.0050 C   0  0  0  0  0  0  0  0  0  0  0  0
  142.5570   73.5400  218.8730 C   0  0  0  0  0  0  0  0  0  0  0  0
  141.4640   75.9390  221.3380 N   0  0  0  0  0  0  0  0  0  0  0  0
  140.4100   76.2540  222.1360 C   0  0  0  0  0  0  0  0  0  0  0  0
  140.2100   77.5680  222.6460 N   0  0  0  0  0  0  0  0  0  0  0  0
  138.8700   78.1110  222.7180 C   0  0  0  0  0  0  0  0  0  0  0  0
  138.9510   79.3860  223.5370 C   0  0  0  0  0  0  0  0  0  0  0  0
  139.9200   80.2570  222.7910 C   0  0  0  0  0  0  0  0  0  0  0  0
  139.5890   81.5250  222.3640 C   0  0  0  0  0  0  0  0  0  0  0  0
  140.5830   82.2240  221.6850 C   0  0  0  0  0  0  0  0  0  0  0  0
  141.8220   81.6780  221.4550 C   0  0  0  0  0  0  0  0  0  0  0  0
  142.1450   80.4090  221.8870 C   0  0  0  0  0  0  0  0  0  0  0  0
  141.1650   79.7110  222.5610 C   0  0  0  0  0  0  0  0  0  0  0  0
  141.3830   78.3240  223.0830 C   0  0  0  0  0  0  0  0  0  0  0  0
  139.5440   75.2680  222.4350 N   0  0  0  0  0  0  0  0  0  0  0  0
  140.2280   71.0660  222.3730 C   0  0  0  0  0  0  0  0  0  0  0  0
  140.5510   70.6590  226.9610 C   0  0  0  0  0  0  0  0  0  0  0  0
  140.9930   69.9080  228.0160 C   0  0  0  0  0  0  0  0  0  0  0  0
  141.2562   67.9256  228.8296 H   0  0  0  0  0  0  0  0  0  0  0  0
  140.2726   66.8435  226.8079 H   0  0  0  0  0  0  0  0  0  0  0  0
  139.4906   68.2094  224.9340 H   0  0  0  0  0  0  0  0  0  0  0  0
  138.4411   71.0103  224.7295 H   0  0  0  0  0  0  0  0  0  0  0  0
  140.0298   71.8518  224.6424 H   0  0  0  0  0  0  0  0  0  0  0  0
  138.9604   68.8405  222.0983 H   0  0  0  0  0  0  0  0  0  0  0  0
  138.1543   68.9014  223.6492 H   0  0  0  0  0  0  0  0  0  0  0  0
  137.1742   70.3874  221.5918 H   0  0  0  0  0  0  0  0  0  0  0  0
  137.2010   71.1529  223.1594 H   0  0  0  0  0  0  0  0  0  0  0  0
  138.8859   71.7079  220.7816 H   0  0  0  0  0  0  0  0  0  0  0  0
  137.9180   73.3060  222.9160 H   0  0  0  0  0  0  0  0  0  0  0  0
  144.2546   75.7406  219.5763 H   0  0  0  0  0  0  0  0  0  0  0  0
  144.1069   75.2168  221.3247 H   0  0  0  0  0  0  0  0  0  0  0  0
  145.8956   74.3017  219.3668 H   0  0  0  0  0  0  0  0  0  0  0  0
  145.6009   73.7115  221.0772 H   0  0  0  0  0  0  0  0  0  0  0  0
  146.5505   71.6344  220.1551 H   0  0  0  0  0  0  0  0  0  0  0  0
  145.8304   69.4087  219.3248 H   0  0  0  0  0  0  0  0  0  0  0  0
  143.5937   69.0893  218.2816 H   0  0  0  0  0  0  0  0  0  0  0  0
  142.0676   71.0517  218.0833 H   0  0  0  0  0  0  0  0  0  0  0  0
  142.7792   74.0975  217.9511 H   0  0  0  0  0  0  0  0  0  0  0  0
  141.5143   73.1934  218.8215 H   0  0  0  0  0  0  0  0  0  0  0  0
  138.4981   78.3344  221.7071 H   0  0  0  0  0  0  0  0  0  0  0  0
  138.1790   77.3908  223.1805 H   0  0  0  0  0  0  0  0  0  0  0  0
  137.9649   79.8692  223.6011 H   0  0  0  0  0  0  0  0  0  0  0  0
  139.2730   79.1964  224.5716 H   0  0  0  0  0  0  0  0  0  0  0  0
  138.5958   81.9599  222.5493 H   0  0  0  0  0  0  0  0  0  0  0  0
  140.3704   83.2407  221.3230 H   0  0  0  0  0  0  0  0  0  0  0  0
  142.5756   82.2678  220.9126 H   0  0  0  0  0  0  0  0  0  0  0  0
  143.1382   79.9736  221.7026 H   0  0  0  0  0  0  0  0  0  0  0  0
  142.3017   77.8914  222.6600 H   0  0  0  0  0  0  0  0  0  0  0  0
  141.5022   78.3074  224.1764 H   0  0  0  0  0  0  0  0  0  0  0  0
  140.7389   70.5137  221.5705 H   0  0  0  0  0  0  0  0  0  0  0  0
  140.9308   71.8442  222.7054 H   0  0  0  0  0  0  0  0  0  0  0  0
  140.6373   71.7539  227.0225 H   0  0  0  0  0  0  0  0  0  0  0  0
  141.4239   70.4059  228.8972 H   0  0  0  0  0  0  0  0  0  0  0  0
  1  2  2  0
  2  3  1  0
  3  4  2  0
  4  5  1  0
  5  6  1  0
  6  7  1  0
  7  8  1  0
  8  9  1  0
  9 10  1  0
 10 11  1  0
 11 12  2  0
 12 13  1  0
 13 14  1  0
 14 15  1  0
 15 16  1  0
 16 17  1  0
 17 18  2  0
 18 19  1  0
 19 20  2  0
 20 21  1  0
 21 22  2  0
 22 23  1  0
 13 24  2  0
 24 25  1  0
 25 26  1  0
 26 27  1  0
 27 28  1  0
 28 29  1  0
 29 30  2  0
 30 31  1  0
 31 32  2  0
 32 33  1  0
 33 34  2  0
 34 35  1  0
 25 36  2  0
  9 37  1  0
  4 38  1  0
 38 39  2  0
 39  1  1  0
 37  6  1  0
 36 11  1  0
 23 14  1  0
 35 26  1  0
 22 17  1  0
 34 29  1  0
  1 40  1  0
  2 41  1  0
  3 42  1  0
  5 43  1  0
  5 44  1  0
  7 45  1  0
  7 46  1  0
  8 47  1  0
  8 48  1  0
  9 49  1  6
 10 50  1  0
 15 51  1  0
 15 52  1  0
 16 53  1  0
 16 54  1  0
 18 55  1  0
 19 56  1  0
 20 57  1  0
 21 58  1  0
 23 59  1  0
 23 60  1  0
 27 61  1  0
 27 62  1  0
 28 63  1  0
 28 64  1  0
 30 65  1  0
 31 66  1  0
 32 67  1  0
 33 68  1  0
 35 69  1  0
 35 70  1  0
 37 71  1  0
 37 72  1  0
 38 73  1  0
 39 74  1  0
M  END
>  <smiles>  (33) 
c1ccc(CN2CC[C@@H](Nc3nc(N4CCc5ccccc5C4)nc(N4CCc5ccccc5C4)n3)C2)cc1

>  <score_type>  (33) 
oracle

>  <origin>  (33) 
autodockgpu

>  <m_score__min__energy>  (33) 
-11.06

>  <m_primary>  (33) 
energy

>  <rmsd>  (33) 
10.887825565482842

>  <m_score__min__rmsd>  (33) 
10.887825565482842

>  <meeko>  (33) 
{"free_energy": -10.82, "intermolecular_energy": -12.61, "internal_energy": -1.54, "cluster_size": 14, "cluster_id": 2, "rank_in_cluster": 4}

>  <energy>  (33) 
-9.95

>  <cluster_rmsd>  (33) 
0.0

>  <cluster>  (33) 
4

$$$$

     RDKit          3D

 74 80  0  0  0  0  0  0  0  0999 V2000
  133.8730   70.1950  226.8360 C   0  0  0  0  0  0  0  0  0  0  0  0
  134.6720   69.9710  225.7290 C   0  0  0  0  0  0  0  0  0  0  0  0
  135.1030   71.0220  224.9650 C   0  0  0  0  0  0  0  0  0  0  0  0
  134.7660   72.3500  225.2560 C   0  0  0  0  0  0  0  0  0  0  0  0
  135.2790   73.4360  224.4010 C   0  0  0  0  0  0  0  0  0  0  0  0
  134.2120   74.3150  224.0340 N   0  0  0  0  0  0  0  0  0  0  0  0
  134.6480   75.6710  223.9890 C   0  0  0  0  0  0  0  0  0  0  0  0
  135.5350   75.6980  222.7380 C   0  0  0  0  0  0  0  0  0  0  0  0
  134.8020   74.7560  221.8100 C   0  0  1  0  0  0  0  0  0  0  0  0
  135.6840   73.7830  221.1880 N   0  0  0  0  0  0  0  0  0  0  0  0
  137.0680   73.7370  221.5660 C   0  0  0  0  0  0  0  0  0  0  0  0
  137.9400   74.6730  221.1680 N   0  0  0  0  0  0  0  0  0  0  0  0
  139.2270   74.6180  221.5280 C   0  0  0  0  0  0  0  0  0  0  0  0
  140.1630   75.6160  221.1050 N   0  0  0  0  0  0  0  0  0  0  0  0
  140.1160   76.2500  219.8170 C   0  0  0  0  0  0  0  0  0  0  0  0
  140.3440   77.7330  219.8560 C   0  0  0  0  0  0  0  0  0  0  0  0
  140.6820   78.2570  221.1850 C   0  0  0  0  0  0  0  0  0  0  0  0
  140.5760   79.6190  221.3930 C   0  0  0  0  0  0  0  0  0  0  0  0
  140.8900   80.1450  222.6420 C   0  0  0  0  0  0  0  0  0  0  0  0
  141.3090   79.3370  223.6910 C   0  0  0  0  0  0  0  0  0  0  0  0
  141.4100   77.9830  223.4720 C   0  0  0  0  0  0  0  0  0  0  0  0
  141.0960   77.4770  222.2280 C   0  0  0  0  0  0  0  0  0  0  0  0
  141.2130   76.0140  222.0220 C   0  0  0  0  0  0  0  0  0  0  0  0
  139.6540   73.5990  222.3060 N   0  0  0  0  0  0  0  0  0  0  0  0
  138.7970   72.6320  222.7290 C   0  0  0  0  0  0  0  0  0  0  0  0
  139.2210   71.5490  223.5490 N   0  0  0  0  0  0  0  0  0  0  0  0
  138.3000   70.4690  223.8380 C   0  0  0  0  0  0  0  0  0  0  0  0
  139.1070   69.3610  224.4900 C   0  0  0  0  0  0  0  0  0  0  0  0
  139.7040   69.9940  225.7140 C   0  0  0  0  0  0  0  0  0  0  0  0
  139.5090   69.4770  226.9770 C   0  0  0  0  0  0  0  0  0  0  0  0
  140.1210   70.1630  228.0220 C   0  0  0  0  0  0  0  0  0  0  0  0
  140.8740   71.2910  227.8050 C   0  0  0  0  0  0  0  0  0  0  0  0
  141.0640   71.8000  226.5380 C   0  0  0  0  0  0  0  0  0  0  0  0
  140.4610   71.1260  225.4970 C   0  0  0  0  0  0  0  0  0  0  0  0
  140.5860   71.5720  224.0720 C   0  0  0  0  0  0  0  0  0  0  0  0
  137.5130   72.7320  222.3400 N   0  0  0  0  0  0  0  0  0  0  0  0
  133.7540   74.0880  222.6700 C   0  0  0  0  0  0  0  0  0  0  0  0
  133.9690   72.5310  226.3640 C   0  0  0  0  0  0  0  0  0  0  0  0
  133.5290   71.4930  227.1410 C   0  0  0  0  0  0  0  0  0  0  0  0
  133.5215   69.3576  227.4567 H   0  0  0  0  0  0  0  0  0  0  0  0
  134.9621   68.9442  225.4616 H   0  0  0  0  0  0  0  0  0  0  0  0
  135.7374   70.8160  224.0903 H   0  0  0  0  0  0  0  0  0  0  0  0
  136.0446   74.0024  224.9516 H   0  0  0  0  0  0  0  0  0  0  0  0
  135.7187   73.0020  223.4909 H   0  0  0  0  0  0  0  0  0  0  0  0
  133.7956   76.3586  223.8859 H   0  0  0  0  0  0  0  0  0  0  0  0
  135.1707   75.9922  224.9020 H   0  0  0  0  0  0  0  0  0  0  0  0
  135.5952   76.7108  222.3130 H   0  0  0  0  0  0  0  0  0  0  0  0
  136.5788   75.4081  222.9291 H   0  0  0  0  0  0  0  0  0  0  0  0
  134.3564   75.3025  220.9657 H   0  0  0  0  0  0  0  0  0  0  0  0
  135.3590   73.1020  220.4670 H   0  0  0  0  0  0  0  0  0  0  0  0
  140.8911   75.7978  219.1808 H   0  0  0  0  0  0  0  0  0  0  0  0
  139.1004   76.0951  219.4238 H   0  0  0  0  0  0  0  0  0  0  0  0
  141.1703   77.9727  219.1707 H   0  0  0  0  0  0  0  0  0  0  0  0
  139.3950   78.2057  219.5628 H   0  0  0  0  0  0  0  0  0  0  0  0
  140.2465   80.2810  220.5787 H   0  0  0  0  0  0  0  0  0  0  0  0
  140.8041   81.2297  222.8030 H   0  0  0  0  0  0  0  0  0  0  0  0
  141.5540   79.7692  224.6724 H   0  0  0  0  0  0  0  0  0  0  0  0
  141.7374   77.3116  224.2795 H   0  0  0  0  0  0  0  0  0  0  0  0
  142.1969   75.7729  221.5933 H   0  0  0  0  0  0  0  0  0  0  0  0
  141.1142   75.4797  222.9784 H   0  0  0  0  0  0  0  0  0  0  0  0
  137.5130   70.8167  224.5233 H   0  0  0  0  0  0  0  0  0  0  0  0
  137.8130   70.1115  222.9188 H   0  0  0  0  0  0  0  0  0  0  0  0
  138.4562   68.5186  224.7671 H   0  0  0  0  0  0  0  0  0  0  0  0
  139.8746   68.9531  223.8159 H   0  0  0  0  0  0  0  0  0  0  0  0
  138.9045   68.5742  227.1490 H   0  0  0  0  0  0  0  0  0  0  0  0
  139.9982   69.7915  229.0501 H   0  0  0  0  0  0  0  0  0  0  0  0
  141.3367   71.8006  228.6630 H   0  0  0  0  0  0  0  0  0  0  0  0
  141.6689   72.7024  226.3653 H   0  0  0  0  0  0  0  0  0  0  0  0
  141.0032   72.5885  224.0199 H   0  0  0  0  0  0  0  0  0  0  0  0
  141.2618   70.9249  223.4936 H   0  0  0  0  0  0  0  0  0  0  0  0
  132.7671   74.5463  222.5087 H   0  0  0  0  0  0  0  0  0  0  0  0
  133.6374   73.0192  222.4375 H   0  0  0  0  0  0  0  0  0  0  0  0
  133.6727   73.5545  226.6370 H   0  0  0  0  0  0  0  0  0  0  0  0
  132.8953   71.6977  228.0165 H   0  0  0  0  0  0  0  0  0  0  0  0
  1  2  2  0
  2  3  1  0
  3  4  2  0
  4  5  1  0
  5  6  1  0
  6  7  1  0
  7  8  1  0
  8  9  1  0
  9 10  1  0
 10 11  1  0
 11 12  2  0
 12 13  1  0
 13 14  1  0
 14 15  1  0
 15 16  1  0
 16 17  1  0
 17 18  2  0
 18 19  1  0
 19 20  2  0
 20 21  1  0
 21 22  2  0
 22 23  1  0
 13 24  2  0
 24 25  1  0
 25 26  1  0
 26 27  1  0
 27 28  1  0
 28 29  1  0
 29 30  2  0
 30 31  1  0
 31 32  2  0
 32 33  1  0
 33 34  2  0
 34 35  1  0
 25 36  2  0
  9 37  1  0
  4 38  1  0
 38 39  2  0
 39  1  1  0
 37  6  1  0
 36 11  1  0
 23 14  1  0
 35 26  1  0
 22 17  1  0
 34 29  1  0
  1 40  1  0
  2 41  1  0
  3 42  1  0
  5 43  1  0
  5 44  1  0
  7 45  1  0
  7 46  1  0
  8 47  1  0
  8 48  1  0
  9 49  1  6
 10 50  1  0
 15 51  1  0
 15 52  1  0
 16 53  1  0
 16 54  1  0
 18 55  1  0
 19 56  1  0
 20 57  1  0
 21 58  1  0
 23 59  1  0
 23 60  1  0
 27 61  1  0
 27 62  1  0
 28 63  1  0
 28 64  1  0
 30 65  1  0
 31 66  1  0
 32 67  1  0
 33 68  1  0
 35 69  1  0
 35 70  1  0
 37 71  1  0
 37 72  1  0
 38 73  1  0
 39 74  1  0
M  END
>  <smiles>  (34) 
c1ccc(CN2CC[C@@H](Nc3nc(N4CCc5ccccc5C4)nc(N4CCc5ccccc5C4)n3)C2)cc1

>  <score_type>  (34) 
oracle

>  <origin>  (34) 
autodockgpu

>  <m_score__min__energy>  (34) 
-11.06

>  <m_primary>  (34) 
energy

>  <rmsd>  (34) 
10.191782741333213

>  <m_score__min__rmsd>  (34) 
10.191782741333213

>  <meeko>  (34) 
{"free_energy": -9.18, "intermolecular_energy": -10.97, "internal_energy": -2.34, "cluster_size": 2, "cluster_id": 7, "rank_in_cluster": 1}

>  <energy>  (34) 
-9.91

>  <cluster_rmsd>  (34) 
0.0

>  <cluster>  (34) 
5

$$$$

     RDKit          3D

 74 80  0  0  0  0  0  0  0  0999 V2000
  142.5540   79.9130  222.7470 C   0  0  0  0  0  0  0  0  0  0  0  0
  142.1200   78.8310  223.4920 C   0  0  0  0  0  0  0  0  0  0  0  0
  140.9990   78.1400  223.1170 C   0  0  0  0  0  0  0  0  0  0  0  0
  140.2500   78.4830  221.9850 C   0  0  0  0  0  0  0  0  0  0  0  0
  139.0620   77.6850  221.6280 C   0  0  0  0  0  0  0  0  0  0  0  0
  138.1170   77.7080  222.7020 N   0  0  0  0  0  0  0  0  0  0  0  0
  136.8780   78.2790  222.2920 C   0  0  0  0  0  0  0  0  0  0  0  0
  136.2970   77.1990  221.3710 C   0  0  0  0  0  0  0  0  0  0  0  0
  136.7370   75.9260  222.0580 C   0  0  1  0  0  0  0  0  0  0  0  0
  137.3310   74.9700  221.1400 N   0  0  0  0  0  0  0  0  0  0  0  0
  138.6030   74.3840  221.4500 C   0  0  0  0  0  0  0  0  0  0  0  0
  139.7470   74.8790  220.9580 N   0  0  0  0  0  0  0  0  0  0  0  0
  140.9270   74.3240  221.2550 C   0  0  0  0  0  0  0  0  0  0  0  0
  142.1520   74.8500  220.7320 N   0  0  0  0  0  0  0  0  0  0  0  0
  143.3090   74.0420  220.4670 C   0  0  0  0  0  0  0  0  0  0  0  0
  143.9890   74.3560  219.1650 C   0  0  0  0  0  0  0  0  0  0  0  0
  143.4170   75.5010  218.4470 C   0  0  0  0  0  0  0  0  0  0  0  0
  143.7370   75.6570  217.1120 C   0  0  0  0  0  0  0  0  0  0  0  0
  143.2110   76.7330  216.4040 C   0  0  0  0  0  0  0  0  0  0  0  0
  142.3690   77.6590  217.0040 C   0  0  0  0  0  0  0  0  0  0  0  0
  142.0570   77.4940  218.3330 C   0  0  0  0  0  0  0  0  0  0  0  0
  142.5870   76.4230  219.0210 C   0  0  0  0  0  0  0  0  0  0  0  0
  142.2330   76.2700  220.4520 C   0  0  0  0  0  0  0  0  0  0  0  0
  140.9650   73.2440  222.0680 N   0  0  0  0  0  0  0  0  0  0  0  0
  139.8240   72.7160  222.5860 C   0  0  0  0  0  0  0  0  0  0  0  0
  139.8360   71.5800  223.4430 N   0  0  0  0  0  0  0  0  0  0  0  0
  138.6290   70.7990  223.6100 C   0  0  0  0  0  0  0  0  0  0  0  0
  139.0190   69.5310  224.3470 C   0  0  0  0  0  0  0  0  0  0  0  0
  139.6160   70.0090  225.6390 C   0  0  0  0  0  0  0  0  0  0  0  0
  139.1400   69.5980  226.8660 C   0  0  0  0  0  0  0  0  0  0  0  0
  139.7870   70.1190  227.9820 C   0  0  0  0  0  0  0  0  0  0  0  0
  140.8400   70.9930  227.8650 C   0  0  0  0  0  0  0  0  0  0  0  0
  141.3110   71.3990  226.6350 C   0  0  0  0  0  0  0  0  0  0  0  0
  140.6740   70.8860  225.5230 C   0  0  0  0  0  0  0  0  0  0  0  0
  141.0830   71.2450  224.1280 C   0  0  0  0  0  0  0  0  0  0  0  0
  138.6630   73.3100  222.2560 N   0  0  0  0  0  0  0  0  0  0  0  0
  137.7220   76.3680  223.1160 C   0  0  0  0  0  0  0  0  0  0  0  0
  140.7130   79.5650  221.2710 C   0  0  0  0  0  0  0  0  0  0  0  0
  141.8320   80.2680  221.6300 C   0  0  0  0  0  0  0  0  0  0  0  0
  143.4530   80.4752  223.0397 H   0  0  0  0  0  0  0  0  0  0  0  0
  142.6778   78.5246  224.3892 H   0  0  0  0  0  0  0  0  0  0  0  0
  140.6751   77.2842  223.7274 H   0  0  0  0  0  0  0  0  0  0  0  0
  138.5974   78.1072  220.7247 H   0  0  0  0  0  0  0  0  0  0  0  0
  139.3684   76.6457  221.4385 H   0  0  0  0  0  0  0  0  0  0  0  0
  136.2201   78.4604  223.1547 H   0  0  0  0  0  0  0  0  0  0  0  0
  136.9895   79.2572  221.8013 H   0  0  0  0  0  0  0  0  0  0  0  0
  135.2003   77.2662  221.3193 H   0  0  0  0  0  0  0  0  0  0  0  0
  136.6357   77.2784  220.3275 H   0  0  0  0  0  0  0  0  0  0  0  0
  135.8767   75.3938  222.4900 H   0  0  0  0  0  0  0  0  0  0  0  0
  136.8720   74.6790  220.2480 H   0  0  0  0  0  0  0  0  0  0  0  0
  144.0325   74.1965  221.2810 H   0  0  0  0  0  0  0  0  0  0  0  0
  142.9612   73.0005  220.4010 H   0  0  0  0  0  0  0  0  0  0  0  0
  145.0473   74.5728  219.3723 H   0  0  0  0  0  0  0  0  0  0  0  0
  143.8522   73.4773  218.5176 H   0  0  0  0  0  0  0  0  0  0  0  0
  144.4020   74.9366  216.6131 H   0  0  0  0  0  0  0  0  0  0  0  0
  143.4691   76.8529  215.3415 H   0  0  0  0  0  0  0  0  0  0  0  0
  141.9612   78.5043  216.4303 H   0  0  0  0  0  0  0  0  0  0  0  0
  141.3924   78.2081  218.8413 H   0  0  0  0  0  0  0  0  0  0  0  0
  143.0067   76.7333  221.0818 H   0  0  0  0  0  0  0  0  0  0  0  0
  141.2736   76.7626  220.6683 H   0  0  0  0  0  0  0  0  0  0  0  0
  137.8909   71.3653  224.1970 H   0  0  0  0  0  0  0  0  0  0  0  0
  138.1763   70.5631  222.6356 H   0  0  0  0  0  0  0  0  0  0  0  0
  138.1346   68.9050  224.5366 H   0  0  0  0  0  0  0  0  0  0  0  0
  139.7207   68.9124  223.7682 H   0  0  0  0  0  0  0  0  0  0  0  0
  138.2965   68.8979  226.9573 H   0  0  0  0  0  0  0  0  0  0  0  0
  139.4460   69.8230  228.9851 H   0  0  0  0  0  0  0  0  0  0  0  0
  141.3198   71.3789  228.7765 H   0  0  0  0  0  0  0  0  0  0  0  0
  142.1547   72.0988  226.5437 H   0  0  0  0  0  0  0  0  0  0  0  0
  141.7644   72.1085  224.1349 H   0  0  0  0  0  0  0  0  0  0  0  0
  141.6202   70.4241  223.6306 H   0  0  0  0  0  0  0  0  0  0  0  0
  137.2453   76.3909  224.1071 H   0  0  0  0  0  0  0  0  0  0  0  0
  138.5798   75.6850  223.2035 H   0  0  0  0  0  0  0  0  0  0  0  0
  140.1602   79.8785  220.3732 H   0  0  0  0  0  0  0  0  0  0  0  0
  142.1568   81.1240  221.0204 H   0  0  0  0  0  0  0  0  0  0  0  0
  1  2  2  0
  2  3  1  0
  3  4  2  0
  4  5  1  0
  5  6  1  0
  6  7  1  0
  7  8  1  0
  8  9  1  0
  9 10  1  0
 10 11  1  0
 11 12  2  0
 12 13  1  0
 13 14  1  0
 14 15  1  0
 15 16  1  0
 16 17  1  0
 17 18  2  0
 18 19  1  0
 19 20  2  0
 20 21  1  0
 21 22  2  0
 22 23  1  0
 13 24  2  0
 24 25  1  0
 25 26  1  0
 26 27  1  0
 27 28  1  0
 28 29  1  0
 29 30  2  0
 30 31  1  0
 31 32  2  0
 32 33  1  0
 33 34  2  0
 34 35  1  0
 25 36  2  0
  9 37  1  0
  4 38  1  0
 38 39  2  0
 39  1  1  0
 37  6  1  0
 36 11  1  0
 23 14  1  0
 35 26  1  0
 22 17  1  0
 34 29  1  0
  1 40  1  0
  2 41  1  0
  3 42  1  0
  5 43  1  0
  5 44  1  0
  7 45  1  0
  7 46  1  0
  8 47  1  0
  8 48  1  0
  9 49  1  1
 10 50  1  0
 15 51  1  0
 15 52  1  0
 16 53  1  0
 16 54  1  0
 18 55  1  0
 19 56  1  0
 20 57  1  0
 21 58  1  0
 23 59  1  0
 23 60  1  0
 27 61  1  0
 27 62  1  0
 28 63  1  0
 28 64  1  0
 30 65  1  0
 31 66  1  0
 32 67  1  0
 33 68  1  0
 35 69  1  0
 35 70  1  0
 37 71  1  0
 37 72  1  0
 38 73  1  0
 39 74  1  0
M  END
>  <smiles>  (35) 
c1ccc(CN2CC[C@@H](Nc3nc(N4CCc5ccccc5C4)nc(N4CCc5ccccc5C4)n3)C2)cc1

>  <score_type>  (35) 
oracle

>  <origin>  (35) 
autodockgpu

>  <m_score__min__energy>  (35) 
-11.06

>  <m_primary>  (35) 
energy

>  <rmsd>  (35) 
4.836554592595576

>  <m_score__min__rmsd>  (35) 
4.836554592595576

>  <meeko>  (35) 
{"free_energy": -9.49, "intermolecular_energy": -11.28, "internal_energy": -2.55, "cluster_size": 11, "cluster_id": 6, "rank_in_cluster": 8}

>  <energy>  (35) 
-7.77

>  <cluster_rmsd>  (35) 
1.67

>  <cluster>  (35) 
5

$$$$

     RDKit          3D

 74 80  0  0  0  0  0  0  0  0999 V2000
  141.2670   78.2810  223.1150 C   0  0  0  0  0  0  0  0  0  0  0  0
  140.2030   79.1650  223.1280 C   0  0  0  0  0  0  0  0  0  0  0  0
  138.9550   78.7480  222.7490 C   0  0  0  0  0  0  0  0  0  0  0  0
  138.6950   77.4360  222.3370 C   0  0  0  0  0  0  0  0  0  0  0  0
  137.3220   77.0500  221.9580 C   0  0  0  0  0  0  0  0  0  0  0  0
  136.5680   76.7160  223.1260 N   0  0  0  0  0  0  0  0  0  0  0  0
  135.1790   76.9750  222.9400 C   0  0  0  0  0  0  0  0  0  0  0  0
  134.7600   75.8740  221.9570 C   0  0  0  0  0  0  0  0  0  0  0  0
  135.6000   74.7030  222.4150 C   0  0  1  0  0  0  0  0  0  0  0  0
  136.2740   74.0340  221.3160 N   0  0  0  0  0  0  0  0  0  0  0  0
  137.6190   73.5640  221.4910 C   0  0  0  0  0  0  0  0  0  0  0  0
  138.6230   73.9950  220.7150 N   0  0  0  0  0  0  0  0  0  0  0  0
  139.8720   73.5490  220.8880 C   0  0  0  0  0  0  0  0  0  0  0  0
  140.9490   74.0070  220.0620 N   0  0  0  0  0  0  0  0  0  0  0  0
  141.2050   75.3940  219.7940 C   0  0  0  0  0  0  0  0  0  0  0  0
  142.6560   75.7730  219.8640 C   0  0  0  0  0  0  0  0  0  0  0  0
  143.5650   74.6410  220.0840 C   0  0  0  0  0  0  0  0  0  0  0  0
  144.8550   74.9140  220.4970 C   0  0  0  0  0  0  0  0  0  0  0  0
  145.7400   73.8620  220.7140 C   0  0  0  0  0  0  0  0  0  0  0  0
  145.3610   72.5400  220.5260 C   0  0  0  0  0  0  0  0  0  0  0  0
  144.0740   72.2800  220.1160 C   0  0  0  0  0  0  0  0  0  0  0  0
  143.2100   73.3340  219.9050 C   0  0  0  0  0  0  0  0  0  0  0  0
  141.8300   73.0230  219.4630 C   0  0  0  0  0  0  0  0  0  0  0  0
  140.1250   72.6470  221.8630 N   0  0  0  0  0  0  0  0  0  0  0  0
  139.1300   72.1890  222.6690 C   0  0  0  0  0  0  0  0  0  0  0  0
  139.3690   71.2400  223.7030 N   0  0  0  0  0  0  0  0  0  0  0  0
  138.2730   70.4340  224.1990 C   0  0  0  0  0  0  0  0  0  0  0  0
  138.8790   69.3560  225.0790 C   0  0  0  0  0  0  0  0  0  0  0  0
  139.6140   70.1070  226.1510 C   0  0  0  0  0  0  0  0  0  0  0  0
  139.3620   69.9090  227.4920 C   0  0  0  0  0  0  0  0  0  0  0  0
  140.1170   70.6710  228.3780 C   0  0  0  0  0  0  0  0  0  0  0  0
  141.0590   71.5690  227.9390 C   0  0  0  0  0  0  0  0  0  0  0  0
  141.3060   71.7600  226.5960 C   0  0  0  0  0  0  0  0  0  0  0  0
  140.5610   71.0080  225.7110 C   0  0  0  0  0  0  0  0  0  0  0  0
  140.7280   71.1170  224.2270 C   0  0  0  0  0  0  0  0  0  0  0  0
  137.8910   72.6680  222.4540 N   0  0  0  0  0  0  0  0  0  0  0  0
  136.5850   75.2860  223.4020 C   0  0  0  0  0  0  0  0  0  0  0  0
  139.7780   76.5870  222.3370 C   0  0  0  0  0  0  0  0  0  0  0  0
  141.0330   76.9840  222.7140 C   0  0  0  0  0  0  0  0  0  0  0  0
  142.2738   78.6053  223.4170 H   0  0  0  0  0  0  0  0  0  0  0  0
  140.3601   80.2069  223.4440 H   0  0  0  0  0  0  0  0  0  0  0  0
  138.1262   79.4709  222.7691 H   0  0  0  0  0  0  0  0  0  0  0  0
  136.8373   77.8904  221.4395 H   0  0  0  0  0  0  0  0  0  0  0  0
  137.3635   76.1751  221.2925 H   0  0  0  0  0  0  0  0  0  0  0  0
  134.6290   76.8901  223.8888 H   0  0  0  0  0  0  0  0  0  0  0  0
  134.9693   77.9907  222.5734 H   0  0  0  0  0  0  0  0  0  0  0  0
  133.6859   75.6517  222.0407 H   0  0  0  0  0  0  0  0  0  0  0  0
  134.9130   76.1420  220.9012 H   0  0  0  0  0  0  0  0  0  0  0  0
  134.9738   73.9211  222.8693 H   0  0  0  0  0  0  0  0  0  0  0  0
  135.8240   73.8720  220.3880 H   0  0  0  0  0  0  0  0  0  0  0  0
  140.8358   75.6247  218.7838 H   0  0  0  0  0  0  0  0  0  0  0  0
  140.6883   75.9694  220.5763 H   0  0  0  0  0  0  0  0  0  0  0  0
  142.9319   76.2574  218.9157 H   0  0  0  0  0  0  0  0  0  0  0  0
  142.7665   76.4397  220.7319 H   0  0  0  0  0  0  0  0  0  0  0  0
  145.1796   75.9534  220.6529 H   0  0  0  0  0  0  0  0  0  0  0  0
  146.7660   74.0839  221.0429 H   0  0  0  0  0  0  0  0  0  0  0  0
  146.0729   71.7198  220.7007 H   0  0  0  0  0  0  0  0  0  0  0  0
  143.7382   71.2444  219.9584 H   0  0  0  0  0  0  0  0  0  0  0  0
  141.7652   73.0788  218.3663 H   0  0  0  0  0  0  0  0  0  0  0  0
  141.5436   72.0069  219.7721 H   0  0  0  0  0  0  0  0  0  0  0  0
  137.5815   71.0564  224.7858 H   0  0  0  0  0  0  0  0  0  0  0  0
  137.7046   69.9898  223.3685 H   0  0  0  0  0  0  0  0  0  0  0  0
  138.0916   68.7254  225.5176 H   0  0  0  0  0  0  0  0  0  0  0  0
  139.5406   68.6819  224.5151 H   0  0  0  0  0  0  0  0  0  0  0  0
  138.6069   69.1895  227.8415 H   0  0  0  0  0  0  0  0  0  0  0  0
  139.9551   70.5510  229.4594 H   0  0  0  0  0  0  0  0  0  0  0  0
  141.6307   72.1504  228.6773 H   0  0  0  0  0  0  0  0  0  0  0  0
  142.0619   72.4786  226.2463 H   0  0  0  0  0  0  0  0  0  0  0  0
  141.3240   72.0048  223.9689 H   0  0  0  0  0  0  0  0  0  0  0  0
  141.2572   70.2498  223.8053 H   0  0  0  0  0  0  0  0  0  0  0  0
  136.2663   75.0849  224.4354 H   0  0  0  0  0  0  0  0  0  0  0  0
  137.5899   74.8504  223.2998 H   0  0  0  0  0  0  0  0  0  0  0  0
  139.6290   75.5441  222.0204 H   0  0  0  0  0  0  0  0  0  0  0  0
  141.8617   76.2609  222.6965 H   0  0  0  0  0  0  0  0  0  0  0  0
  1  2  2  0
  2  3  1  0
  3  4  2  0
  4  5  1  0
  5  6  1  0
  6  7  1  0
  7  8  1  0
  8  9  1  0
  9 10  1  0
 10 11  1  0
 11 12  2  0
 12 13  1  0
 13 14  1  0
 14 15  1  0
 15 16  1  0
 16 17  1  0
 17 18  2  0
 18 19  1  0
 19 20  2  0
 20 21  1  0
 21 22  2  0
 22 23  1  0
 13 24  2  0
 24 25  1  0
 25 26  1  0
 26 27  1  0
 27 28  1  0
 28 29  1  0
 29 30  2  0
 30 31  1  0
 31 32  2  0
 32 33  1  0
 33 34  2  0
 34 35  1  0
 25 36  2  0
  9 37  1  0
  4 38  1  0
 38 39  2  0
 39  1  1  0
 37  6  1  0
 36 11  1  0
 23 14  1  0
 35 26  1  0
 22 17  1  0
 34 29  1  0
  1 40  1  0
  2 41  1  0
  3 42  1  0
  5 43  1  0
  5 44  1  0
  7 45  1  0
  7 46  1  0
  8 47  1  0
  8 48  1  0
  9 49  1  1
 10 50  1  0
 15 51  1  0
 15 52  1  0
 16 53  1  0
 16 54  1  0
 18 55  1  0
 19 56  1  0
 20 57  1  0
 21 58  1  0
 23 59  1  0
 23 60  1  0
 27 61  1  0
 27 62  1  0
 28 63  1  0
 28 64  1  0
 30 65  1  0
 31 66  1  0
 32 67  1  0
 33 68  1  0
 35 69  1  0
 35 70  1  0
 37 71  1  0
 37 72  1  0
 38 73  1  0
 39 74  1  0
M  END
>  <smiles>  (36) 
c1ccc(CN2CC[C@@H](Nc3nc(N4CCc5ccccc5C4)nc(N4CCc5ccccc5C4)n3)C2)cc1

>  <score_type>  (36) 
oracle

>  <origin>  (36) 
autodockgpu

>  <m_score__min__energy>  (36) 
-11.06

>  <m_primary>  (36) 
energy

>  <rmsd>  (36) 
5.8870623654893155

>  <m_score__min__rmsd>  (36) 
5.8870623654893155

>  <meeko>  (36) 
{"free_energy": -9.49, "intermolecular_energy": -11.28, "internal_energy": -2.55, "cluster_size": 11, "cluster_id": 6, "rank_in_cluster": 7}

>  <energy>  (36) 
-9.61

>  <cluster_rmsd>  (36) 
0.0

>  <cluster>  (36) 
6

$$$$

     RDKit          3D

 74 80  0  0  0  0  0  0  0  0999 V2000
  142.5360   79.9310  222.6720 C   0  0  0  0  0  0  0  0  0  0  0  0
  141.8780   80.1330  221.4720 C   0  0  0  0  0  0  0  0  0  0  0  0
  140.7630   79.4010  221.1650 C   0  0  0  0  0  0  0  0  0  0  0  0
  140.2390   78.4320  222.0300 C   0  0  0  0  0  0  0  0  0  0  0  0
  139.0230   77.6920  221.6440 C   0  0  0  0  0  0  0  0  0  0  0  0
  138.0700   77.7280  222.7090 N   0  0  0  0  0  0  0  0  0  0  0  0
  136.8360   78.3000  222.2840 C   0  0  0  0  0  0  0  0  0  0  0  0
  136.2580   77.2130  221.3680 C   0  0  0  0  0  0  0  0  0  0  0  0
  136.6880   75.9450  222.0700 C   0  0  1  0  0  0  0  0  0  0  0  0
  137.2860   74.9790  221.1660 N   0  0  0  0  0  0  0  0  0  0  0  0
  138.5600   74.4020  221.4850 C   0  0  0  0  0  0  0  0  0  0  0  0
  139.7030   74.9020  220.9950 N   0  0  0  0  0  0  0  0  0  0  0  0
  140.8850   74.3550  221.3010 C   0  0  0  0  0  0  0  0  0  0  0  0
  142.1090   74.8860  220.7810 N   0  0  0  0  0  0  0  0  0  0  0  0
  143.2790   74.0880  220.5430 C   0  0  0  0  0  0  0  0  0  0  0  0
  143.9690   74.3860  219.2430 C   0  0  0  0  0  0  0  0  0  0  0  0
  143.3910   75.5120  218.4970 C   0  0  0  0  0  0  0  0  0  0  0  0
  143.7240   75.6470  217.1630 C   0  0  0  0  0  0  0  0  0  0  0  0
  143.1930   76.7040  216.4300 C   0  0  0  0  0  0  0  0  0  0  0  0
  142.3330   77.6310  217.0050 C   0  0  0  0  0  0  0  0  0  0  0  0
  142.0090   77.4850  218.3340 C   0  0  0  0  0  0  0  0  0  0  0  0
  142.5440   76.4330  219.0460 C   0  0  0  0  0  0  0  0  0  0  0  0
  142.1760   76.3020  220.4760 C   0  0  0  0  0  0  0  0  0  0  0  0
  140.9260   73.2790  222.1180 N   0  0  0  0  0  0  0  0  0  0  0  0
  139.7860   72.7460  222.6320 C   0  0  0  0  0  0  0  0  0  0  0  0
  139.8010   71.6130  223.4950 N   0  0  0  0  0  0  0  0  0  0  0  0
  138.5800   70.8680  223.7150 C   0  0  0  0  0  0  0  0  0  0  0  0
  138.9640   69.5930  224.4420 C   0  0  0  0  0  0  0  0  0  0  0  0
  139.6270   70.0590  225.7060 C   0  0  0  0  0  0  0  0  0  0  0  0
  139.1900   69.6660  226.9540 C   0  0  0  0  0  0  0  0  0  0  0  0
  139.8970   70.1730  228.0400 C   0  0  0  0  0  0  0  0  0  0  0  0
  140.9680   71.0170  227.8750 C   0  0  0  0  0  0  0  0  0  0  0  0
  141.3990   71.4040  226.6250 C   0  0  0  0  0  0  0  0  0  0  0  0
  140.7030   70.9050  225.5430 C   0  0  0  0  0  0  0  0  0  0  0  0
  141.0650   71.2460  224.1300 C   0  0  0  0  0  0  0  0  0  0  0  0
  138.6230   73.3320  222.2950 N   0  0  0  0  0  0  0  0  0  0  0  0
  137.6660   76.3930  223.1320 C   0  0  0  0  0  0  0  0  0  0  0  0
  140.9210   78.2610  223.2130 C   0  0  0  0  0  0  0  0  0  0  0  0
  142.0370   78.9830  223.5380 C   0  0  0  0  0  0  0  0  0  0  0  0
  143.4342   80.5122  222.9280 H   0  0  0  0  0  0  0  0  0  0  0  0
  142.2524   80.8849  220.7617 H   0  0  0  0  0  0  0  0  0  0  0  0
  140.2598   79.5803  220.2034 H   0  0  0  0  0  0  0  0  0  0  0  0
  138.5846   78.1541  220.7472 H   0  0  0  0  0  0  0  0  0  0  0  0
  139.2888   76.6458  221.4326 H   0  0  0  0  0  0  0  0  0  0  0  0
  136.1721   78.4918  223.1398 H   0  0  0  0  0  0  0  0  0  0  0  0
  136.9549   79.2732  221.7853 H   0  0  0  0  0  0  0  0  0  0  0  0
  135.1619   77.2836  221.3071 H   0  0  0  0  0  0  0  0  0  0  0  0
  136.6052   77.2816  220.3265 H   0  0  0  0  0  0  0  0  0  0  0  0
  135.8223   75.4198  222.4998 H   0  0  0  0  0  0  0  0  0  0  0  0
  136.8280   74.6740  220.2780 H   0  0  0  0  0  0  0  0  0  0  0  0
  143.9917   74.2668  221.3615 H   0  0  0  0  0  0  0  0  0  0  0  0
  142.9447   73.0412  220.4926 H   0  0  0  0  0  0  0  0  0  0  0  0
  145.0224   74.6191  219.4574 H   0  0  0  0  0  0  0  0  0  0  0  0
  143.8492   73.4940  218.6106 H   0  0  0  0  0  0  0  0  0  0  0  0
  144.4027   74.9255  216.6846 H   0  0  0  0  0  0  0  0  0  0  0  0
  143.4611   76.8081  215.3683 H   0  0  0  0  0  0  0  0  0  0  0  0
  141.9212   78.4612  216.4124 H   0  0  0  0  0  0  0  0  0  0  0  0
  141.3307   78.1997  218.8229 H   0  0  0  0  0  0  0  0  0  0  0  0
  142.9371   76.7862  221.1055 H   0  0  0  0  0  0  0  0  0  0  0  0
  141.2085   76.7869  220.6730 H   0  0  0  0  0  0  0  0  0  0  0  0
  137.8830   71.4576  224.3286 H   0  0  0  0  0  0  0  0  0  0  0  0
  138.0809   70.6413  222.7613 H   0  0  0  0  0  0  0  0  0  0  0  0
  138.0708   68.9932  224.6710 H   0  0  0  0  0  0  0  0  0  0  0  0
  139.6236   68.9525  223.8381 H   0  0  0  0  0  0  0  0  0  0  0  0
  138.3316   68.9904  227.0833 H   0  0  0  0  0  0  0  0  0  0  0  0
  139.5900   69.8903  229.0578 H   0  0  0  0  0  0  0  0  0  0  0  0
  141.4952   71.3937  228.7639 H   0  0  0  0  0  0  0  0  0  0  0  0
  142.2577   72.0792  226.4955 H   0  0  0  0  0  0  0  0  0  0  0  0
  141.7702   72.0898  224.1042 H   0  0  0  0  0  0  0  0  0  0  0  0
  141.5584   70.4081  223.6157 H   0  0  0  0  0  0  0  0  0  0  0  0
  137.1812   76.4269  224.1188 H   0  0  0  0  0  0  0  0  0  0  0  0
  138.5203   75.7074  223.2328 H   0  0  0  0  0  0  0  0  0  0  0  0
  140.5529   77.5111  223.9286 H   0  0  0  0  0  0  0  0  0  0  0  0
  142.5404   78.8048  224.4997 H   0  0  0  0  0  0  0  0  0  0  0  0
  1  2  2  0
  2  3  1  0
  3  4  2  0
  4  5  1  0
  5  6  1  0
  6  7  1  0
  7  8  1  0
  8  9  1  0
  9 10  1  0
 10 11  1  0
 11 12  2  0
 12 13  1  0
 13 14  1  0
 14 15  1  0
 15 16  1  0
 16 17  1  0
 17 18  2  0
 18 19  1  0
 19 20  2  0
 20 21  1  0
 21 22  2  0
 22 23  1  0
 13 24  2  0
 24 25  1  0
 25 26  1  0
 26 27  1  0
 27 28  1  0
 28 29  1  0
 29 30  2  0
 30 31  1  0
 31 32  2  0
 32 33  1  0
 33 34  2  0
 34 35  1  0
 25 36  2  0
  9 37  1  0
  4 38  1  0
 38 39  2  0
 39  1  1  0
 37  6  1  0
 36 11  1  0
 23 14  1  0
 35 26  1  0
 22 17  1  0
 34 29  1  0
  1 40  1  0
  2 41  1  0
  3 42  1  0
  5 43  1  0
  5 44  1  0
  7 45  1  0
  7 46  1  0
  8 47  1  0
  8 48  1  0
  9 49  1  1
 10 50  1  0
 15 51  1  0
 15 52  1  0
 16 53  1  0
 16 54  1  0
 18 55  1  0
 19 56  1  0
 20 57  1  0
 21 58  1  0
 23 59  1  0
 23 60  1  0
 27 61  1  0
 27 62  1  0
 28 63  1  0
 28 64  1  0
 30 65  1  0
 31 66  1  0
 32 67  1  0
 33 68  1  0
 35 69  1  0
 35 70  1  0
 37 71  1  0
 37 72  1  0
 38 73  1  0
 39 74  1  0
M  END
>  <smiles>  (37) 
c1ccc(CN2CC[C@@H](Nc3nc(N4CCc5ccccc5C4)nc(N4CCc5ccccc5C4)n3)C2)cc1

>  <score_type>  (37) 
oracle

>  <origin>  (37) 
autodockgpu

>  <m_score__min__energy>  (37) 
-11.06

>  <m_primary>  (37) 
energy

>  <rmsd>  (37) 
4.574154982549989

>  <m_score__min__rmsd>  (37) 
4.574154982549989

>  <meeko>  (37) 
{"free_energy": -9.52, "intermolecular_energy": -11.31, "internal_energy": -2.55, "cluster_size": 11, "cluster_id": 6, "rank_in_cluster": 5}

>  <energy>  (37) 
-9.54

>  <cluster_rmsd>  (37) 
1.69

>  <cluster>  (37) 
6

$$$$

     RDKit          3D

 74 80  0  0  0  0  0  0  0  0999 V2000
  140.9740   68.7520  228.3350 C   0  0  0  0  0  0  0  0  0  0  0  0
  140.7770   68.1160  227.1230 C   0  0  0  0  0  0  0  0  0  0  0  0
  140.5020   68.8470  225.9980 C   0  0  0  0  0  0  0  0  0  0  0  0
  140.4070   70.2430  226.0140 C   0  0  0  0  0  0  0  0  0  0  0  0
  140.1250   70.9690  224.7610 C   0  0  0  0  0  0  0  0  0  0  0  0
  139.8390   70.0400  223.7120 N   0  0  0  0  0  0  0  0  0  0  0  0
  138.4830   69.6070  223.7560 C   0  0  0  0  0  0  0  0  0  0  0  0
  137.7150   70.8550  223.3020 C   0  0  0  0  0  0  0  0  0  0  0  0
  138.6410   71.4350  222.2580 C   0  0  1  0  0  0  0  0  0  0  0  0
  138.8590   72.8600  222.4320 N   0  0  0  0  0  0  0  0  0  0  0  0
  139.8960   73.5160  221.6870 C   0  0  0  0  0  0  0  0  0  0  0  0
  140.8010   72.8250  220.9810 N   0  0  0  0  0  0  0  0  0  0  0  0
  141.7630   73.4490  220.2910 C   0  0  0  0  0  0  0  0  0  0  0  0
  142.7330   72.7150  219.5340 N   0  0  0  0  0  0  0  0  0  0  0  0
  144.1500   72.8580  219.7160 C   0  0  0  0  0  0  0  0  0  0  0  0
  144.9000   71.5580  219.7200 C   0  0  0  0  0  0  0  0  0  0  0  0
  144.0710   70.3810  219.4290 C   0  0  0  0  0  0  0  0  0  0  0  0
  144.5800   69.1350  219.7390 C   0  0  0  0  0  0  0  0  0  0  0  0
  143.8180   68.0010  219.4750 C   0  0  0  0  0  0  0  0  0  0  0  0
  142.5540   68.0880  218.9060 C   0  0  0  0  0  0  0  0  0  0  0  0
  142.0580   69.3340  218.6020 C   0  0  0  0  0  0  0  0  0  0  0  0
  142.8260   70.4480  218.8700 C   0  0  0  0  0  0  0  0  0  0  0  0
  142.2650   71.7770  218.5320 C   0  0  0  0  0  0  0  0  0  0  0  0
  141.8210   74.7990  220.3070 N   0  0  0  0  0  0  0  0  0  0  0  0
  140.9180   75.5310  221.0120 C   0  0  0  0  0  0  0  0  0  0  0  0
  140.9560   76.9540  221.0460 N   0  0  0  0  0  0  0  0  0  0  0  0
  141.7220   77.6720  220.0490 C   0  0  0  0  0  0  0  0  0  0  0  0
  141.3560   79.1380  220.1790 C   0  0  0  0  0  0  0  0  0  0  0  0
  141.7120   79.4970  221.5930 C   0  0  0  0  0  0  0  0  0  0  0  0
  142.5730   80.5310  221.8940 C   0  0  0  0  0  0  0  0  0  0  0  0
  142.8160   80.7540  223.2460 C   0  0  0  0  0  0  0  0  0  0  0  0
  142.2300   79.9870  224.2220 C   0  0  0  0  0  0  0  0  0  0  0  0
  141.3690   78.9550  223.9130 C   0  0  0  0  0  0  0  0  0  0  0  0
  141.1240   78.7280  222.5740 C   0  0  0  0  0  0  0  0  0  0  0  0
  140.2110   77.6390  222.1000 C   0  0  0  0  0  0  0  0  0  0  0  0
  139.9710   74.8580  221.6900 N   0  0  0  0  0  0  0  0  0  0  0  0
  139.9290   70.6540  222.3930 C   0  0  0  0  0  0  0  0  0  0  0  0
  140.6090   70.8380  227.2390 C   0  0  0  0  0  0  0  0  0  0  0  0
  140.8860   70.1250  228.3740 C   0  0  0  0  0  0  0  0  0  0  0  0
  141.1955   68.1751  229.2450 H   0  0  0  0  0  0  0  0  0  0  0  0
  140.8414   67.0196  227.0623 H   0  0  0  0  0  0  0  0  0  0  0  0
  140.3501   68.3169  225.0462 H   0  0  0  0  0  0  0  0  0  0  0  0
  139.2578   71.6292  224.9096 H   0  0  0  0  0  0  0  0  0  0  0  0
  141.0056   71.5672  224.4839 H   0  0  0  0  0  0  0  0  0  0  0  0
  138.3131   68.7650  223.0689 H   0  0  0  0  0  0  0  0  0  0  0  0
  138.1739   69.2406  224.7461 H   0  0  0  0  0  0  0  0  0  0  0  0
  136.7406   70.5878  222.8671 H   0  0  0  0  0  0  0  0  0  0  0  0
  137.4794   71.5514  224.1202 H   0  0  0  0  0  0  0  0  0  0  0  0
  138.2060   71.3442  221.2517 H   0  0  0  0  0  0  0  0  0  0  0  0
  138.2890   73.4460  223.0820 H   0  0  0  0  0  0  0  0  0  0  0  0
  144.5424   73.4810  218.8988 H   0  0  0  0  0  0  0  0  0  0  0  0
  144.2989   73.3140  220.7059 H   0  0  0  0  0  0  0  0  0  0  0  0
  145.6942   71.6161  218.9611 H   0  0  0  0  0  0  0  0  0  0  0  0
  145.2915   71.4234  220.7391 H   0  0  0  0  0  0  0  0  0  0  0  0
  145.5786   69.0400  220.1904 H   0  0  0  0  0  0  0  0  0  0  0  0
  144.2271   67.0105  219.7233 H   0  0  0  0  0  0  0  0  0  0  0  0
  141.9639   67.1820  218.7034 H   0  0  0  0  0  0  0  0  0  0  0  0
  141.0607   69.4411  218.1505 H   0  0  0  0  0  0  0  0  0  0  0  0
  142.6110   72.0883  217.5353 H   0  0  0  0  0  0  0  0  0  0  0  0
  141.1657   71.7414  218.5179 H   0  0  0  0  0  0  0  0  0  0  0  0
  142.7985   77.5341  220.2283 H   0  0  0  0  0  0  0  0  0  0  0  0
  141.4975   77.2996  219.0386 H   0  0  0  0  0  0  0  0  0  0  0  0
  141.9335   79.7464  219.4674 H   0  0  0  0  0  0  0  0  0  0  0  0
  140.2944   79.3226  219.9579 H   0  0  0  0  0  0  0  0  0  0  0  0
  143.0411   81.1446  221.1102 H   0  0  0  0  0  0  0  0  0  0  0  0
  143.4961   81.5669  223.5405 H   0  0  0  0  0  0  0  0  0  0  0  0
  142.4529   80.2010  225.2777 H   0  0  0  0  0  0  0  0  0  0  0  0
  140.8998   78.3419  224.6966 H   0  0  0  0  0  0  0  0  0  0  0  0
  139.9769   76.9457  222.9213 H   0  0  0  0  0  0  0  0  0  0  0  0
  139.2501   78.0334  221.7378 H   0  0  0  0  0  0  0  0  0  0  0  0
  140.0032   69.8856  221.6094 H   0  0  0  0  0  0  0  0  0  0  0  0
  140.8202   71.2896  222.2843 H   0  0  0  0  0  0  0  0  0  0  0  0
  140.5450   71.9339  227.3086 H   0  0  0  0  0  0  0  0  0  0  0  0
  141.0397   70.6541  229.3260 H   0  0  0  0  0  0  0  0  0  0  0  0
  1  2  2  0
  2  3  1  0
  3  4  2  0
  4  5  1  0
  5  6  1  0
  6  7  1  0
  7  8  1  0
  8  9  1  0
  9 10  1  0
 10 11  1  0
 11 12  2  0
 12 13  1  0
 13 14  1  0
 14 15  1  0
 15 16  1  0
 16 17  1  0
 17 18  2  0
 18 19  1  0
 19 20  2  0
 20 21  1  0
 21 22  2  0
 22 23  1  0
 13 24  2  0
 24 25  1  0
 25 26  1  0
 26 27  1  0
 27 28  1  0
 28 29  1  0
 29 30  2  0
 30 31  1  0
 31 32  2  0
 32 33  1  0
 33 34  2  0
 34 35  1  0
 25 36  2  0
  9 37  1  0
  4 38  1  0
 38 39  2  0
 39  1  1  0
 37  6  1  0
 36 11  1  0
 23 14  1  0
 35 26  1  0
 22 17  1  0
 34 29  1  0
  1 40  1  0
  2 41  1  0
  3 42  1  0
  5 43  1  0
  5 44  1  0
  7 45  1  0
  7 46  1  0
  8 47  1  0
  8 48  1  0
  9 49  1  6
 10 50  1  0
 15 51  1  0
 15 52  1  0
 16 53  1  0
 16 54  1  0
 18 55  1  0
 19 56  1  0
 20 57  1  0
 21 58  1  0
 23 59  1  0
 23 60  1  0
 27 61  1  0
 27 62  1  0
 28 63  1  0
 28 64  1  0
 30 65  1  0
 31 66  1  0
 32 67  1  0
 33 68  1  0
 35 69  1  0
 35 70  1  0
 37 71  1  0
 37 72  1  0
 38 73  1  0
 39 74  1  0
M  END
>  <smiles>  (38) 
c1ccc(CN2CC[C@@H](Nc3nc(N4CCc5ccccc5C4)nc(N4CCc5ccccc5C4)n3)C2)cc1

>  <score_type>  (38) 
oracle

>  <origin>  (38) 
autodockgpu

>  <m_score__min__energy>  (38) 
-11.06

>  <m_primary>  (38) 
energy

>  <rmsd>  (38) 
10.960777774869976

>  <m_score__min__rmsd>  (38) 
10.960777774869976

>  <meeko>  (38) 
{"free_energy": -10.63, "intermolecular_energy": -12.42, "internal_energy": -1.43, "cluster_size": 8, "cluster_id": 1, "rank_in_cluster": 6}

>  <energy>  (38) 
-9.53

>  <cluster_rmsd>  (38) 
0.22

>  <cluster>  (38) 
6

$$$$

     RDKit          3D

 74 80  0  0  0  0  0  0  0  0999 V2000
  146.1020   72.3030  220.1180 C   0  0  0  0  0  0  0  0  0  0  0  0
  145.2060   72.0510  219.0950 C   0  0  0  0  0  0  0  0  0  0  0  0
  144.0790   72.8180  218.9600 C   0  0  0  0  0  0  0  0  0  0  0  0
  143.7810   73.8730  219.8310 C   0  0  0  0  0  0  0  0  0  0  0  0
  142.5580   74.6700  219.6180 C   0  0  0  0  0  0  0  0  0  0  0  0
  142.1400   75.2630  220.8500 N   0  0  0  0  0  0  0  0  0  0  0  0
  141.3340   76.4160  220.6260 C   0  0  0  0  0  0  0  0  0  0  0  0
  140.0260   75.8160  220.0940 C   0  0  0  0  0  0  0  0  0  0  0  0
  139.9090   74.5450  220.9040 C   0  0  1  0  0  0  0  0  0  0  0  0
  139.6020   73.3850  220.0850 N   0  0  0  0  0  0  0  0  0  0  0  0
  139.8410   72.0680  220.6010 C   0  0  0  0  0  0  0  0  0  0  0  0
  139.3530   71.6760  221.7870 N   0  0  0  0  0  0  0  0  0  0  0  0
  139.5830   70.4450  222.2570 C   0  0  0  0  0  0  0  0  0  0  0  0
  139.0640   70.0210  223.5220 N   0  0  0  0  0  0  0  0  0  0  0  0
  138.6720   68.6680  223.8040 C   0  0  0  0  0  0  0  0  0  0  0  0
  139.1210   68.1680  225.1460 C   0  0  0  0  0  0  0  0  0  0  0  0
  139.7830   69.1810  225.9770 C   0  0  0  0  0  0  0  0  0  0  0  0
  140.5210   68.7500  227.0630 C   0  0  0  0  0  0  0  0  0  0  0  0
  141.1610   69.6870  227.8690 C   0  0  0  0  0  0  0  0  0  0  0  0
  141.0770   71.0490  227.6120 C   0  0  0  0  0  0  0  0  0  0  0  0
  140.3400   71.4660  226.5290 C   0  0  0  0  0  0  0  0  0  0  0  0
  139.7120   70.5250  225.7400 C   0  0  0  0  0  0  0  0  0  0  0  0
  138.9250   71.0050  224.5790 C   0  0  0  0  0  0  0  0  0  0  0  0
  140.3200   69.5820  221.5230 N   0  0  0  0  0  0  0  0  0  0  0  0
  140.8290   69.9460  220.3160 C   0  0  0  0  0  0  0  0  0  0  0  0
  141.6090   69.0560  219.5230 N   0  0  0  0  0  0  0  0  0  0  0  0
  141.2010   67.6740  219.3900 C   0  0  0  0  0  0  0  0  0  0  0  0
  142.0530   67.0630  218.2930 C   0  0  0  0  0  0  0  0  0  0  0  0
  143.4670   67.2360  218.7670 C   0  0  0  0  0  0  0  0  0  0  0  0
  144.3320   66.1720  218.9020 C   0  0  0  0  0  0  0  0  0  0  0  0
  145.6140   66.4750  219.3510 C   0  0  0  0  0  0  0  0  0  0  0  0
  145.9920   67.7620  219.6430 C   0  0  0  0  0  0  0  0  0  0  0  0
  145.1210   68.8220  219.5040 C   0  0  0  0  0  0  0  0  0  0  0  0
  143.8480   68.5290  219.0600 C   0  0  0  0  0  0  0  0  0  0  0  0
  142.8030   69.5840  218.8660 C   0  0  0  0  0  0  0  0  0  0  0  0
  140.5710   71.1940  219.8870 N   0  0  0  0  0  0  0  0  0  0  0  0
  141.2420   74.3960  221.6020 C   0  0  0  0  0  0  0  0  0  0  0  0
  144.6960   74.0910  220.8360 C   0  0  0  0  0  0  0  0  0  0  0  0
  145.8280   73.3360  220.9860 C   0  0  0  0  0  0  0  0  0  0  0  0
  147.0103   71.6937  220.2351 H   0  0  0  0  0  0  0  0  0  0  0  0
  145.3991   71.2315  218.3870 H   0  0  0  0  0  0  0  0  0  0  0  0
  143.3829   72.5970  218.1375 H   0  0  0  0  0  0  0  0  0  0  0  0
  142.7631   75.4626  218.8833 H   0  0  0  0  0  0  0  0  0  0  0  0
  141.7591   74.0126  219.2444 H   0  0  0  0  0  0  0  0  0  0  0  0
  141.1648   76.9693  221.5615 H   0  0  0  0  0  0  0  0  0  0  0  0
  141.7925   77.1418  219.9382 H   0  0  0  0  0  0  0  0  0  0  0  0
  139.1744   76.4873  220.2789 H   0  0  0  0  0  0  0  0  0  0  0  0
  140.0250   75.6499  219.0066 H   0  0  0  0  0  0  0  0  0  0  0  0
  139.0736   74.6078  221.6168 H   0  0  0  0  0  0  0  0  0  0  0  0
  139.2080   73.4600  219.1200 H   0  0  0  0  0  0  0  0  0  0  0  0
  137.5742   68.6106  223.7634 H   0  0  0  0  0  0  0  0  0  0  0  0
  139.1584   68.0325  223.0493 H   0  0  0  0  0  0  0  0  0  0  0  0
  138.2384   67.7996  225.6894 H   0  0  0  0  0  0  0  0  0  0  0  0
  139.8653   67.3806  224.9561 H   0  0  0  0  0  0  0  0  0  0  0  0
  140.6019   67.6764  227.2883 H   0  0  0  0  0  0  0  0  0  0  0  0
  141.7484   69.3397  228.7317 H   0  0  0  0  0  0  0  0  0  0  0  0
  141.5879   71.7769  228.2595 H   0  0  0  0  0  0  0  0  0  0  0  0
  140.2522   72.5371  226.2945 H   0  0  0  0  0  0  0  0  0  0  0  0
  137.8664   71.1081  224.8595 H   0  0  0  0  0  0  0  0  0  0  0  0
  139.2882   71.9878  224.2440 H   0  0  0  0  0  0  0  0  0  0  0  0
  141.3644   67.1391  220.3372 H   0  0  0  0  0  0  0  0  0  0  0  0
  140.1317   67.6027  219.1420 H   0  0  0  0  0  0  0  0  0  0  0  0
  141.8145   65.9968  218.1652 H   0  0  0  0  0  0  0  0  0  0  0  0
  141.8800   67.5405  217.3173 H   0  0  0  0  0  0  0  0  0  0  0  0
  144.0266   65.1414  218.6681 H   0  0  0  0  0  0  0  0  0  0  0  0
  146.3439   65.6615  219.4752 H   0  0  0  0  0  0  0  0  0  0  0  0
  147.0159   67.9526  219.9969 H   0  0  0  0  0  0  0  0  0  0  0  0
  145.4268   69.8528  219.7362 H   0  0  0  0  0  0  0  0  0  0  0  0
  143.1159   70.5293  219.3335 H   0  0  0  0  0  0  0  0  0  0  0  0
  142.6278   69.8027  217.8023 H   0  0  0  0  0  0  0  0  0  0  0  0
  141.1719   74.7225  222.6501 H   0  0  0  0  0  0  0  0  0  0  0  0
  141.5888   73.3524  221.6282 H   0  0  0  0  0  0  0  0  0  0  0  0
  144.5095   74.9072  221.5495 H   0  0  0  0  0  0  0  0  0  0  0  0
  146.5252   73.5567  221.8077 H   0  0  0  0  0  0  0  0  0  0  0  0
  1  2  2  0
  2  3  1  0
  3  4  2  0
  4  5  1  0
  5  6  1  0
  6  7  1  0
  7  8  1  0
  8  9  1  0
  9 10  1  0
 10 11  1  0
 11 12  2  0
 12 13  1  0
 13 14  1  0
 14 15  1  0
 15 16  1  0
 16 17  1  0
 17 18  2  0
 18 19  1  0
 19 20  2  0
 20 21  1  0
 21 22  2  0
 22 23  1  0
 13 24  2  0
 24 25  1  0
 25 26  1  0
 26 27  1  0
 27 28  1  0
 28 29  1  0
 29 30  2  0
 30 31  1  0
 31 32  2  0
 32 33  1  0
 33 34  2  0
 34 35  1  0
 25 36  2  0
  9 37  1  0
  4 38  1  0
 38 39  2  0
 39  1  1  0
 37  6  1  0
 36 11  1  0
 23 14  1  0
 35 26  1  0
 22 17  1  0
 34 29  1  0
  1 40  1  0
  2 41  1  0
  3 42  1  0
  5 43  1  0
  5 44  1  0
  7 45  1  0
  7 46  1  0
  8 47  1  0
  8 48  1  0
  9 49  1  1
 10 50  1  0
 15 51  1  0
 15 52  1  0
 16 53  1  0
 16 54  1  0
 18 55  1  0
 19 56  1  0
 20 57  1  0
 21 58  1  0
 23 59  1  0
 23 60  1  0
 27 61  1  0
 27 62  1  0
 28 63  1  0
 28 64  1  0
 30 65  1  0
 31 66  1  0
 32 67  1  0
 33 68  1  0
 35 69  1  0
 35 70  1  0
 37 71  1  0
 37 72  1  0
 38 73  1  0
 39 74  1  0
M  END
>  <smiles>  (39) 
c1ccc(CN2CC[C@@H](Nc3nc(N4CCc5ccccc5C4)nc(N4CCc5ccccc5C4)n3)C2)cc1

>  <score_type>  (39) 
oracle

>  <origin>  (39) 
autodockgpu

>  <m_score__min__energy>  (39) 
-11.06

>  <m_primary>  (39) 
energy

>  <rmsd>  (39) 
7.464940309214059

>  <m_score__min__rmsd>  (39) 
7.464940309214059

>  <meeko>  (39) 
{"free_energy": -9.08, "intermolecular_energy": -10.87, "internal_energy": -2.36, "cluster_size": 1, "cluster_id": 8, "rank_in_cluster": 1}

>  <energy>  (39) 
-9.53

>  <cluster_rmsd>  (39) 
1.72

>  <cluster>  (39) 
6

$$$$

     RDKit          3D

 74 80  0  0  0  0  0  0  0  0999 V2000
  141.0970   70.4530  227.8780 C   0  0  0  0  0  0  0  0  0  0  0  0
  140.2020   69.4180  227.6780 C   0  0  0  0  0  0  0  0  0  0  0  0
  139.3740   69.4220  226.5880 C   0  0  0  0  0  0  0  0  0  0  0  0
  139.3870   70.4510  225.6390 C   0  0  0  0  0  0  0  0  0  0  0  0
  138.4790   70.3850  224.4790 C   0  0  0  0  0  0  0  0  0  0  0  0
  139.1290   69.7300  223.3860 N   0  0  0  0  0  0  0  0  0  0  0  0
  138.1930   69.3200  222.3940 C   0  0  0  0  0  0  0  0  0  0  0  0
  137.7630   70.6510  221.7650 C   0  0  0  0  0  0  0  0  0  0  0  0
  139.0500   71.4430  221.7880 C   0  0  1  0  0  0  0  0  0  0  0  0
  138.8730   72.7850  222.3140 N   0  0  0  0  0  0  0  0  0  0  0  0
  139.8170   73.8110  221.9730 C   0  0  0  0  0  0  0  0  0  0  0  0
  140.8770   73.5630  221.1910 N   0  0  0  0  0  0  0  0  0  0  0  0
  141.7490   74.5280  220.8810 C   0  0  0  0  0  0  0  0  0  0  0  0
  142.8830   74.2690  220.0460 N   0  0  0  0  0  0  0  0  0  0  0  0
  144.1910   74.8050  220.2990 C   0  0  0  0  0  0  0  0  0  0  0  0
  145.3050   73.8160  220.1090 C   0  0  0  0  0  0  0  0  0  0  0  0
  144.8720   72.5110  219.5940 C   0  0  0  0  0  0  0  0  0  0  0  0
  145.7450   71.4460  219.7060 C   0  0  0  0  0  0  0  0  0  0  0  0
  145.3640   70.1970  219.2280 C   0  0  0  0  0  0  0  0  0  0  0  0
  144.1240   69.9890  218.6370 C   0  0  0  0  0  0  0  0  0  0  0  0
  143.2630   71.0560  218.5320 C   0  0  0  0  0  0  0  0  0  0  0  0
  143.6570   72.2880  219.0110 C   0  0  0  0  0  0  0  0  0  0  0  0
  142.7080   73.4190  218.8830 C   0  0  0  0  0  0  0  0  0  0  0  0
  141.5570   75.7760  221.3650 N   0  0  0  0  0  0  0  0  0  0  0  0
  140.4930   76.0630  222.1600 C   0  0  0  0  0  0  0  0  0  0  0  0
  140.2670   77.3680  222.6840 N   0  0  0  0  0  0  0  0  0  0  0  0
  138.9530   77.9640  222.5710 C   0  0  0  0  0  0  0  0  0  0  0  0
  138.9550   79.2090  223.4400 C   0  0  0  0  0  0  0  0  0  0  0  0
  140.0590   80.0610  222.8830 C   0  0  0  0  0  0  0  0  0  0  0  0
  139.8450   81.3550  222.4580 C   0  0  0  0  0  0  0  0  0  0  0  0
  140.9570   82.0310  221.9650 C   0  0  0  0  0  0  0  0  0  0  0  0
  142.1950   81.4400  221.9060 C   0  0  0  0  0  0  0  0  0  0  0  0
  142.4010   80.1460  222.3340 C   0  0  0  0  0  0  0  0  0  0  0  0
  141.3030   79.4690  222.8240 C   0  0  0  0  0  0  0  0  0  0  0  0
  141.3860   78.0590  223.3210 C   0  0  0  0  0  0  0  0  0  0  0  0
  139.6440   75.0580  222.4440 N   0  0  0  0  0  0  0  0  0  0  0  0
  139.9980   70.6310  222.6420 C   0  0  0  0  0  0  0  0  0  0  0  0
  140.2910   71.4630  225.8730 C   0  0  0  0  0  0  0  0  0  0  0  0
  141.1280   71.4760  226.9560 C   0  0  0  0  0  0  0  0  0  0  0  0
  141.7667   70.4593  228.7506 H   0  0  0  0  0  0  0  0  0  0  0  0
  140.1552   68.5877  228.3981 H   0  0  0  0  0  0  0  0  0  0  0  0
  138.6724   68.5856  226.4528 H   0  0  0  0  0  0  0  0  0  0  0  0
  137.5751   69.8224  224.7554 H   0  0  0  0  0  0  0  0  0  0  0  0
  138.2046   71.4064  224.1765 H   0  0  0  0  0  0  0  0  0  0  0  0
  138.6667   68.6639  221.6489 H   0  0  0  0  0  0  0  0  0  0  0  0
  137.3529   68.7380  222.8008 H   0  0  0  0  0  0  0  0  0  0  0  0
  137.4007   70.5078  220.7363 H   0  0  0  0  0  0  0  0  0  0  0  0
  136.9320   71.1418  222.2929 H   0  0  0  0  0  0  0  0  0  0  0  0
  139.4371   71.5958  220.7698 H   0  0  0  0  0  0  0  0  0  0  0  0
  138.0790   73.0500  222.9380 H   0  0  0  0  0  0  0  0  0  0  0  0
  144.3573   75.6489  219.6133 H   0  0  0  0  0  0  0  0  0  0  0  0
  144.2114   75.1072  221.3565 H   0  0  0  0  0  0  0  0  0  0  0  0
  146.0284   74.2438  219.3993 H   0  0  0  0  0  0  0  0  0  0  0  0
  145.7386   73.6345  221.1035 H   0  0  0  0  0  0  0  0  0  0  0  0
  146.7329   71.5849  220.1693 H   0  0  0  0  0  0  0  0  0  0  0  0
  146.0623   69.3521  219.3202 H   0  0  0  0  0  0  0  0  0  0  0  0
  143.8380   68.9951  218.2622 H   0  0  0  0  0  0  0  0  0  0  0  0
  142.2721   70.9286  218.0716 H   0  0  0  0  0  0  0  0  0  0  0  0
  142.9230   73.9878  217.9663 H   0  0  0  0  0  0  0  0  0  0  0  0
  141.6729   73.0514  218.8240 H   0  0  0  0  0  0  0  0  0  0  0  0
  138.7493   78.2340  221.5243 H   0  0  0  0  0  0  0  0  0  0  0  0
  138.1729   77.2596  222.8954 H   0  0  0  0  0  0  0  0  0  0  0  0
  137.9895   79.7315  223.3713 H   0  0  0  0  0  0  0  0  0  0  0  0
  139.1072   78.9738  224.5037 H   0  0  0  0  0  0  0  0  0  0  0  0
  138.8521   81.8261  222.5059 H   0  0  0  0  0  0  0  0  0  0  0  0
  140.8411   83.0667  221.6131 H   0  0  0  0  0  0  0  0  0  0  0  0
  143.0443   82.0140  221.5069 H   0  0  0  0  0  0  0  0  0  0  0  0
  143.3940   79.6752  222.2871 H   0  0  0  0  0  0  0  0  0  0  0  0
  142.3417   77.6007  223.0266 H   0  0  0  0  0  0  0  0  0  0  0  0
  141.3355   78.0037  224.4184 H   0  0  0  0  0  0  0  0  0  0  0  0
  140.7006   70.0642  222.0134 H   0  0  0  0  0  0  0  0  0  0  0  0
  140.6144   71.2603  223.3009 H   0  0  0  0  0  0  0  0  0  0  0  0
  140.3428   72.2976  225.1583 H   0  0  0  0  0  0  0  0  0  0  0  0
  141.8316   72.3107  227.0912 H   0  0  0  0  0  0  0  0  0  0  0  0
  1  2  2  0
  2  3  1  0
  3  4  2  0
  4  5  1  0
  5  6  1  0
  6  7  1  0
  7  8  1  0
  8  9  1  0
  9 10  1  0
 10 11  1  0
 11 12  2  0
 12 13  1  0
 13 14  1  0
 14 15  1  0
 15 16  1  0
 16 17  1  0
 17 18  2  0
 18 19  1  0
 19 20  2  0
 20 21  1  0
 21 22  2  0
 22 23  1  0
 13 24  2  0
 24 25  1  0
 25 26  1  0
 26 27  1  0
 27 28  1  0
 28 29  1  0
 29 30  2  0
 30 31  1  0
 31 32  2  0
 32 33  1  0
 33 34  2  0
 34 35  1  0
 25 36  2  0
  9 37  1  0
  4 38  1  0
 38 39  2  0
 39  1  1  0
 37  6  1  0
 36 11  1  0
 23 14  1  0
 35 26  1  0
 22 17  1  0
 34 29  1  0
  1 40  1  0
  2 41  1  0
  3 42  1  0
  5 43  1  0
  5 44  1  0
  7 45  1  0
  7 46  1  0
  8 47  1  0
  8 48  1  0
  9 49  1  6
 10 50  1  0
 15 51  1  0
 15 52  1  0
 16 53  1  0
 16 54  1  0
 18 55  1  0
 19 56  1  0
 20 57  1  0
 21 58  1  0
 23 59  1  0
 23 60  1  0
 27 61  1  0
 27 62  1  0
 28 63  1  0
 28 64  1  0
 30 65  1  0
 31 66  1  0
 32 67  1  0
 33 68  1  0
 35 69  1  0
 35 70  1  0
 37 71  1  0
 37 72  1  0
 38 73  1  0
 39 74  1  0
M  END
>  <smiles>  (40) 
c1ccc(CN2CC[C@@H](Nc3nc(N4CCc5ccccc5C4)nc(N4CCc5ccccc5C4)n3)C2)cc1

>  <score_type>  (40) 
oracle

>  <origin>  (40) 
autodockgpu

>  <m_score__min__energy>  (40) 
-11.06

>  <m_primary>  (40) 
energy

>  <rmsd>  (40) 
10.444603083044735

>  <m_score__min__rmsd>  (40) 
10.444603083044735

>  <meeko>  (40) 
{"free_energy": -10.42, "intermolecular_energy": -12.21, "internal_energy": -1.64, "cluster_size": 14, "cluster_id": 2, "rank_in_cluster": 12}

>  <energy>  (40) 
-9.52

>  <cluster_rmsd>  (40) 
0.1

>  <cluster>  (40) 
6

$$$$

     RDKit          3D

 74 80  0  0  0  0  0  0  0  0999 V2000
  141.9340   81.4020  223.6280 C   0  0  0  0  0  0  0  0  0  0  0  0
  140.6140   80.9940  223.5730 C   0  0  0  0  0  0  0  0  0  0  0  0
  140.3040   79.6970  223.2660 C   0  0  0  0  0  0  0  0  0  0  0  0
  141.2850   78.7340  222.9980 C   0  0  0  0  0  0  0  0  0  0  0  0
  140.8820   77.3490  222.6910 C   0  0  0  0  0  0  0  0  0  0  0  0
  140.0850   77.3230  221.5030 N   0  0  0  0  0  0  0  0  0  0  0  0
  140.7590   77.9440  220.4120 C   0  0  0  0  0  0  0  0  0  0  0  0
  141.8660   76.9350  220.0810 C   0  0  0  0  0  0  0  0  0  0  0  0
  141.1750   75.6140  220.3270 C   0  0  1  0  0  0  0  0  0  0  0  0
  141.9720   74.7050  221.1320 N   0  0  0  0  0  0  0  0  0  0  0  0
  141.5350   73.3510  221.3180 C   0  0  0  0  0  0  0  0  0  0  0  0
  140.7540   72.9960  222.3470 N   0  0  0  0  0  0  0  0  0  0  0  0
  140.3530   71.7300  222.5080 C   0  0  0  0  0  0  0  0  0  0  0  0
  139.5190   71.3460  223.6060 N   0  0  0  0  0  0  0  0  0  0  0  0
  138.1920   70.8200  223.4450 C   0  0  0  0  0  0  0  0  0  0  0  0
  137.8870   69.6470  224.3310 C   0  0  0  0  0  0  0  0  0  0  0  0
  138.9560   69.3140  225.2810 C   0  0  0  0  0  0  0  0  0  0  0  0
  138.9220   68.0740  225.8890 C   0  0  0  0  0  0  0  0  0  0  0  0
  139.9220   67.7300  226.7940 C   0  0  0  0  0  0  0  0  0  0  0  0
  140.9570   68.6020  227.1040 C   0  0  0  0  0  0  0  0  0  0  0  0
  140.9810   69.8330  226.4920 C   0  0  0  0  0  0  0  0  0  0  0  0
  139.9830   70.1590  225.5980 C   0  0  0  0  0  0  0  0  0  0  0  0
  140.0350   71.4920  224.9540 C   0  0  0  0  0  0  0  0  0  0  0  0
  140.7440   70.7930  221.6150 N   0  0  0  0  0  0  0  0  0  0  0  0
  141.5350   71.1180  220.5590 C   0  0  0  0  0  0  0  0  0  0  0  0
  141.9610   70.1510  219.6050 N   0  0  0  0  0  0  0  0  0  0  0  0
  141.0870   69.0460  219.2690 C   0  0  0  0  0  0  0  0  0  0  0  0
  141.6870   68.3590  218.0570 C   0  0  0  0  0  0  0  0  0  0  0  0
  143.0580   67.9360  218.4980 C   0  0  0  0  0  0  0  0  0  0  0  0
  143.4810   66.6250  218.4280 C   0  0  0  0  0  0  0  0  0  0  0  0
  144.7760   66.3730  218.8690 C   0  0  0  0  0  0  0  0  0  0  0  0
  145.5850   67.3740  219.3480 C   0  0  0  0  0  0  0  0  0  0  0  0
  145.1540   68.6820  219.4140 C   0  0  0  0  0  0  0  0  0  0  0  0
  143.8710   68.9400  218.9780 C   0  0  0  0  0  0  0  0  0  0  0  0
  143.2790   70.3160  218.9960 C   0  0  0  0  0  0  0  0  0  0  0  0
  141.9120   72.4040  220.4410 N   0  0  0  0  0  0  0  0  0  0  0  0
  139.8740   75.9690  221.0100 C   0  0  0  0  0  0  0  0  0  0  0  0
  142.5860   79.1780  223.0620 C   0  0  0  0  0  0  0  0  0  0  0  0
  142.9150   80.4710  223.3680 C   0  0  0  0  0  0  0  0  0  0  0  0
  142.1937   82.4425  223.8729 H   0  0  0  0  0  0  0  0  0  0  0  0
  139.8092   81.7155  223.7770 H   0  0  0  0  0  0  0  0  0  0  0  0
  139.2456   79.3999  223.2283 H   0  0  0  0  0  0  0  0  0  0  0  0
  141.7808   76.7331  222.5402 H   0  0  0  0  0  0  0  0  0  0  0  0
  140.2927   76.9501  223.5298 H   0  0  0  0  0  0  0  0  0  0  0  0
  140.0823   78.0853  219.5564 H   0  0  0  0  0  0  0  0  0  0  0  0
  141.1404   78.9482  220.6492 H   0  0  0  0  0  0  0  0  0  0  0  0
  142.1900   77.0271  219.0338 H   0  0  0  0  0  0  0  0  0  0  0  0
  142.7818   77.0725  220.6747 H   0  0  0  0  0  0  0  0  0  0  0  0
  141.0122   75.0731  219.3831 H   0  0  0  0  0  0  0  0  0  0  0  0
  142.8650   74.9900  221.5930 H   0  0  0  0  0  0  0  0  0  0  0  0
  137.4729   71.6208  223.6720 H   0  0  0  0  0  0  0  0  0  0  0  0
  138.1157   70.4627  222.4075 H   0  0  0  0  0  0  0  0  0  0  0  0
  136.9759   69.8753  224.9035 H   0  0  0  0  0  0  0  0  0  0  0  0
  137.7693   68.7752  223.6706 H   0  0  0  0  0  0  0  0  0  0  0  0
  138.1124   67.3653  225.6601 H   0  0  0  0  0  0  0  0  0  0  0  0
  139.8915   66.7417  227.2761 H   0  0  0  0  0  0  0  0  0  0  0  0
  141.7392   68.3148  227.8221 H   0  0  0  0  0  0  0  0  0  0  0  0
  141.7864   70.5490  226.7128 H   0  0  0  0  0  0  0  0  0  0  0  0
  139.4162   72.2057  225.5177 H   0  0  0  0  0  0  0  0  0  0  0  0
  141.0669   71.8726  224.9345 H   0  0  0  0  0  0  0  0  0  0  0  0
  141.0276   68.3415  220.1117 H   0  0  0  0  0  0  0  0  0  0  0  0
  140.0686   69.4021  219.0544 H   0  0  0  0  0  0  0  0  0  0  0  0
  141.0851   67.4844  217.7694 H   0  0  0  0  0  0  0  0  0  0  0  0
  141.7181   69.0191  217.1776 H   0  0  0  0  0  0  0  0  0  0  0  0
  142.8312   65.8242  218.0452 H   0  0  0  0  0  0  0  0  0  0  0  0
  145.1626   65.3438  218.8331 H   0  0  0  0  0  0  0  0  0  0  0  0
  146.6016   67.1262  219.6873 H   0  0  0  0  0  0  0  0  0  0  0  0
  145.8035   69.4830  219.7968 H   0  0  0  0  0  0  0  0  0  0  0  0
  143.9003   70.9966  219.5966 H   0  0  0  0  0  0  0  0  0  0  0  0
  143.2176   70.7533  217.9885 H   0  0  0  0  0  0  0  0  0  0  0  0
  139.0381   75.9402  220.2955 H   0  0  0  0  0  0  0  0  0  0  0  0
  139.6151   75.2643  221.8139 H   0  0  0  0  0  0  0  0  0  0  0  0
  143.3966   78.4629  222.8584 H   0  0  0  0  0  0  0  0  0  0  0  0
  143.9731   80.7693  223.4066 H   0  0  0  0  0  0  0  0  0  0  0  0
  1  2  2  0
  2  3  1  0
  3  4  2  0
  4  5  1  0
  5  6  1  0
  6  7  1  0
  7  8  1  0
  8  9  1  0
  9 10  1  0
 10 11  1  0
 11 12  2  0
 12 13  1  0
 13 14  1  0
 14 15  1  0
 15 16  1  0
 16 17  1  0
 17 18  2  0
 18 19  1  0
 19 20  2  0
 20 21  1  0
 21 22  2  0
 22 23  1  0
 13 24  2  0
 24 25  1  0
 25 26  1  0
 26 27  1  0
 27 28  1  0
 28 29  1  0
 29 30  2  0
 30 31  1  0
 31 32  2  0
 32 33  1  0
 33 34  2  0
 34 35  1  0
 25 36  2  0
  9 37  1  0
  4 38  1  0
 38 39  2  0
 39  1  1  0
 37  6  1  0
 36 11  1  0
 23 14  1  0
 35 26  1  0
 22 17  1  0
 34 29  1  0
  1 40  1  0
  2 41  1  0
  3 42  1  0
  5 43  1  0
  5 44  1  0
  7 45  1  0
  7 46  1  0
  8 47  1  0
  8 48  1  0
  9 49  1  6
 10 50  1  0
 15 51  1  0
 15 52  1  0
 16 53  1  0
 16 54  1  0
 18 55  1  0
 19 56  1  0
 20 57  1  0
 21 58  1  0
 23 59  1  0
 23 60  1  0
 27 61  1  0
 27 62  1  0
 28 63  1  0
 28 64  1  0
 30 65  1  0
 31 66  1  0
 32 67  1  0
 33 68  1  0
 35 69  1  0
 35 70  1  0
 37 71  1  0
 37 72  1  0
 38 73  1  0
 39 74  1  0
M  END
>  <smiles>  (41) 
c1ccc(CN2CC[C@@H](Nc3nc(N4CCc5ccccc5C4)nc(N4CCc5ccccc5C4)n3)C2)cc1

>  <score_type>  (41) 
oracle

>  <origin>  (41) 
autodockgpu

>  <m_score__min__energy>  (41) 
-11.06

>  <m_primary>  (41) 
energy

>  <rmsd>  (41) 
3.4612820222026532

>  <m_score__min__rmsd>  (41) 
3.4612820222026532

>  <meeko>  (41) 
{"free_energy": -11.02, "intermolecular_energy": -12.81, "internal_energy": -1.48, "cluster_size": 8, "cluster_id": 1, "rank_in_cluster": 2}

>  <energy>  (41) 
-9.5

>  <cluster_rmsd>  (41) 
1.7

>  <cluster>  (41) 
6

$$$$

     RDKit          3D

 74 80  0  0  0  0  0  0  0  0999 V2000
  141.0770   79.3870  219.0550 C   0  0  0  0  0  0  0  0  0  0  0  0
  141.1540   78.0380  218.7580 C   0  0  0  0  0  0  0  0  0  0  0  0
  140.0840   77.2180  218.9970 C   0  0  0  0  0  0  0  0  0  0  0  0
  138.8840   77.6890  219.5420 C   0  0  0  0  0  0  0  0  0  0  0  0
  137.7650   76.7520  219.7580 C   0  0  0  0  0  0  0  0  0  0  0  0
  136.6240   77.4590  220.2510 N   0  0  0  0  0  0  0  0  0  0  0  0
  135.4200   76.7370  220.0080 C   0  0  0  0  0  0  0  0  0  0  0  0
  135.5250   75.5650  220.9930 C   0  0  0  0  0  0  0  0  0  0  0  0
  136.1870   76.2130  222.1870 C   0  0  1  0  0  0  0  0  0  0  0  0
  137.3010   75.4370  222.7010 N   0  0  0  0  0  0  0  0  0  0  0  0
  138.6450   75.8780  222.4580 C   0  0  0  0  0  0  0  0  0  0  0  0
  139.0870   77.0660  222.8930 N   0  0  0  0  0  0  0  0  0  0  0  0
  140.3420   77.4650  222.6600 C   0  0  0  0  0  0  0  0  0  0  0  0
  140.8190   78.7330  223.1230 N   0  0  0  0  0  0  0  0  0  0  0  0
  142.2110   79.0850  223.1720 C   0  0  0  0  0  0  0  0  0  0  0  0
  142.5080   80.4740  222.6850 C   0  0  0  0  0  0  0  0  0  0  0  0
  141.3170   81.2640  222.3500 C   0  0  0  0  0  0  0  0  0  0  0  0
  141.4860   82.4030  221.5870 C   0  0  0  0  0  0  0  0  0  0  0  0
  140.3760   83.1730  221.2530 C   0  0  0  0  0  0  0  0  0  0  0  0
  139.0970   82.8260  221.6670 C   0  0  0  0  0  0  0  0  0  0  0  0
  138.9410   81.6890  222.4250 C   0  0  0  0  0  0  0  0  0  0  0  0
  140.0510   80.9380  222.7480 C   0  0  0  0  0  0  0  0  0  0  0  0
  139.8520   79.7190  223.5660 C   0  0  0  0  0  0  0  0  0  0  0  0
  141.1790   76.6550  221.9740 N   0  0  0  0  0  0  0  0  0  0  0  0
  140.7640   75.4430  221.5180 C   0  0  0  0  0  0  0  0  0  0  0  0
  141.6240   74.5700  220.7930 N   0  0  0  0  0  0  0  0  0  0  0  0
  141.4420   73.1380  220.8990 C   0  0  0  0  0  0  0  0  0  0  0  0
  142.3080   72.5010  219.8280 C   0  0  0  0  0  0  0  0  0  0  0  0
  143.7020   72.9600  220.1410 C   0  0  0  0  0  0  0  0  0  0  0  0
  144.7390   72.0750  220.3480 C   0  0  0  0  0  0  0  0  0  0  0  0
  145.9800   72.6370  220.6300 C   0  0  0  0  0  0  0  0  0  0  0  0
  146.1600   73.9960  220.6980 C   0  0  0  0  0  0  0  0  0  0  0  0
  145.1180   74.8750  220.4880 C   0  0  0  0  0  0  0  0  0  0  0  0
  143.8840   74.3250  220.2090 C   0  0  0  0  0  0  0  0  0  0  0  0
  142.6690   75.1650  219.9620 C   0  0  0  0  0  0  0  0  0  0  0  0
  139.4930   75.0870  221.7780 N   0  0  0  0  0  0  0  0  0  0  0  0
  136.6320   77.5740  221.7030 C   0  0  0  0  0  0  0  0  0  0  0  0
  138.8480   79.0350  219.8240 C   0  0  0  0  0  0  0  0  0  0  0  0
  139.9050   79.8720  219.5910 C   0  0  0  0  0  0  0  0  0  0  0  0
  141.9304   80.0553  218.8677 H   0  0  0  0  0  0  0  0  0  0  0  0
  142.0777   77.6230  218.3285 H   0  0  0  0  0  0  0  0  0  0  0  0
  140.1707   76.1492  218.7515 H   0  0  0  0  0  0  0  0  0  0  0  0
  137.5084   76.2651  218.8056 H   0  0  0  0  0  0  0  0  0  0  0  0
  138.0662   75.9933  220.4953 H   0  0  0  0  0  0  0  0  0  0  0  0
  134.5362   77.3563  220.2211 H   0  0  0  0  0  0  0  0  0  0  0  0
  135.3055   76.4187  218.9613 H   0  0  0  0  0  0  0  0  0  0  0  0
  134.5312   75.1712  221.2524 H   0  0  0  0  0  0  0  0  0  0  0  0
  136.0777   74.7010  220.5954 H   0  0  0  0  0  0  0  0  0  0  0  0
  135.4885   76.2834  223.0338 H   0  0  0  0  0  0  0  0  0  0  0  0
  137.1750   74.5570  223.2490 H   0  0  0  0  0  0  0  0  0  0  0  0
  142.5516   79.0040  224.2148 H   0  0  0  0  0  0  0  0  0  0  0  0
  142.7379   78.3927  222.4989 H   0  0  0  0  0  0  0  0  0  0  0  0
  143.0626   81.0042  223.4732 H   0  0  0  0  0  0  0  0  0  0  0  0
  143.0857   80.3651  221.7552 H   0  0  0  0  0  0  0  0  0  0  0  0
  142.4892   82.6988  221.2464 H   0  0  0  0  0  0  0  0  0  0  0  0
  140.5155   84.0795  220.6457 H   0  0  0  0  0  0  0  0  0  0  0  0
  138.2295   83.4454  221.3954 H   0  0  0  0  0  0  0  0  0  0  0  0
  137.9423   81.3825  222.7694 H   0  0  0  0  0  0  0  0  0  0  0  0
  140.0120   79.9503  224.6294 H   0  0  0  0  0  0  0  0  0  0  0  0
  138.8274   79.3366  223.4478 H   0  0  0  0  0  0  0  0  0  0  0  0
  141.7549   72.7900  221.8945 H   0  0  0  0  0  0  0  0  0  0  0  0
  140.3850   72.8652  220.7633 H   0  0  0  0  0  0  0  0  0  0  0  0
  142.2408   71.4041  219.8767 H   0  0  0  0  0  0  0  0  0  0  0  0
  141.9936   72.7882  218.8138 H   0  0  0  0  0  0  0  0  0  0  0  0
  144.5932   70.9861  220.2933 H   0  0  0  0  0  0  0  0  0  0  0  0
  146.8405   71.9741  220.8032 H   0  0  0  0  0  0  0  0  0  0  0  0
  147.1599   74.3940  220.9256 H   0  0  0  0  0  0  0  0  0  0  0  0
  145.2642   75.9640  220.5406 H   0  0  0  0  0  0  0  0  0  0  0  0
  142.8528   76.2080  220.2594 H   0  0  0  0  0  0  0  0  0  0  0  0
  142.3898   75.1860  218.8982 H   0  0  0  0  0  0  0  0  0  0  0  0
  135.9319   78.3543  222.0361 H   0  0  0  0  0  0  0  0  0  0  0  0
  137.6188   77.8586  222.0970 H   0  0  0  0  0  0  0  0  0  0  0  0
  137.9286   79.4571  220.2560 H   0  0  0  0  0  0  0  0  0  0  0  0
  139.8178   80.9413  219.8339 H   0  0  0  0  0  0  0  0  0  0  0  0
  1  2  2  0
  2  3  1  0
  3  4  2  0
  4  5  1  0
  5  6  1  0
  6  7  1  0
  7  8  1  0
  8  9  1  0
  9 10  1  0
 10 11  1  0
 11 12  2  0
 12 13  1  0
 13 14  1  0
 14 15  1  0
 15 16  1  0
 16 17  1  0
 17 18  2  0
 18 19  1  0
 19 20  2  0
 20 21  1  0
 21 22  2  0
 22 23  1  0
 13 24  2  0
 24 25  1  0
 25 26  1  0
 26 27  1  0
 27 28  1  0
 28 29  1  0
 29 30  2  0
 30 31  1  0
 31 32  2  0
 32 33  1  0
 33 34  2  0
 34 35  1  0
 25 36  2  0
  9 37  1  0
  4 38  1  0
 38 39  2  0
 39  1  1  0
 37  6  1  0
 36 11  1  0
 23 14  1  0
 35 26  1  0
 22 17  1  0
 34 29  1  0
  1 40  1  0
  2 41  1  0
  3 42  1  0
  5 43  1  0
  5 44  1  0
  7 45  1  0
  7 46  1  0
  8 47  1  0
  8 48  1  0
  9 49  1  1
 10 50  1  0
 15 51  1  0
 15 52  1  0
 16 53  1  0
 16 54  1  0
 18 55  1  0
 19 56  1  0
 20 57  1  0
 21 58  1  0
 23 59  1  0
 23 60  1  0
 27 61  1  0
 27 62  1  0
 28 63  1  0
 28 64  1  0
 30 65  1  0
 31 66  1  0
 32 67  1  0
 33 68  1  0
 35 69  1  0
 35 70  1  0
 37 71  1  0
 37 72  1  0
 38 73  1  0
 39 74  1  0
M  END
>  <smiles>  (42) 
c1ccc(CN2CC[C@@H](Nc3nc(N4CCc5ccccc5C4)nc(N4CCc5ccccc5C4)n3)C2)cc1

>  <score_type>  (42) 
oracle

>  <origin>  (42) 
autodockgpu

>  <m_score__min__energy>  (42) 
-11.06

>  <m_primary>  (42) 
energy

>  <rmsd>  (42) 
5.094398958883867

>  <m_score__min__rmsd>  (42) 
5.094398958883867

>  <meeko>  (42) 
{"free_energy": -7.77, "intermolecular_energy": -9.56, "internal_energy": -3.58, "cluster_size": 2, "cluster_id": 5, "rank_in_cluster": 2}

>  <energy>  (42) 
-9.49

>  <cluster_rmsd>  (42) 
1.72

>  <cluster>  (42) 
6

$$$$

     RDKit          3D

 74 80  0  0  0  0  0  0  0  0999 V2000
  143.9270   75.7200  219.6340 C   0  0  0  0  0  0  0  0  0  0  0  0
  144.6020   74.8430  220.4640 C   0  0  0  0  0  0  0  0  0  0  0  0
  144.9950   73.6170  219.9990 C   0  0  0  0  0  0  0  0  0  0  0  0
  144.7420   73.1940  218.6880 C   0  0  0  0  0  0  0  0  0  0  0  0
  145.2090   71.8670  218.2470 C   0  0  0  0  0  0  0  0  0  0  0  0
  144.1290   71.1400  217.6550 N   0  0  0  0  0  0  0  0  0  0  0  0
  144.2780   69.7360  217.8510 C   0  0  0  0  0  0  0  0  0  0  0  0
  143.9950   69.5740  219.3500 C   0  0  0  0  0  0  0  0  0  0  0  0
  142.9080   70.5980  219.5810 C   0  0  1  0  0  0  0  0  0  0  0  0
  143.1610   71.4330  220.7420 N   0  0  0  0  0  0  0  0  0  0  0  0
  142.0700   72.1110  221.3810 C   0  0  0  0  0  0  0  0  0  0  0  0
  141.3100   71.5090  222.3060 N   0  0  0  0  0  0  0  0  0  0  0  0
  140.2950   72.1520  222.8940 C   0  0  0  0  0  0  0  0  0  0  0  0
  139.4810   71.5130  223.8840 N   0  0  0  0  0  0  0  0  0  0  0  0
  138.2210   70.8900  223.5890 C   0  0  0  0  0  0  0  0  0  0  0  0
  138.0210   69.5640  224.2640 C   0  0  0  0  0  0  0  0  0  0  0  0
  139.0970   69.1900  225.1900 C   0  0  0  0  0  0  0  0  0  0  0  0
  139.1800   67.8710  225.5920 C   0  0  0  0  0  0  0  0  0  0  0  0
  140.1890   67.4860  226.4690 C   0  0  0  0  0  0  0  0  0  0  0  0
  141.1200   68.3950  226.9540 C   0  0  0  0  0  0  0  0  0  0  0  0
  141.0280   69.7050  226.5470 C   0  0  0  0  0  0  0  0  0  0  0  0
  140.0220   70.0710  225.6780 C   0  0  0  0  0  0  0  0  0  0  0  0
  139.9480   71.4900  225.2560 C   0  0  0  0  0  0  0  0  0  0  0  0
  140.0330   73.4320  222.5480 N   0  0  0  0  0  0  0  0  0  0  0  0
  140.7830   74.0740  221.6140 C   0  0  0  0  0  0  0  0  0  0  0  0
  140.5290   75.4210  221.2310 N   0  0  0  0  0  0  0  0  0  0  0  0
  140.7830   75.8360  219.8680 C   0  0  0  0  0  0  0  0  0  0  0  0
  140.1730   77.2160  219.7030 C   0  0  0  0  0  0  0  0  0  0  0  0
  140.8600   78.0630  220.7340 C   0  0  0  0  0  0  0  0  0  0  0  0
  141.5330   79.2200  220.4050 C   0  0  0  0  0  0  0  0  0  0  0  0
  142.1250   79.9090  221.4600 C   0  0  0  0  0  0  0  0  0  0  0  0
  142.0410   79.4580  222.7540 C   0  0  0  0  0  0  0  0  0  0  0  0
  141.3660   78.3000  223.0760 C   0  0  0  0  0  0  0  0  0  0  0  0
  140.7770   77.6130  222.0350 C   0  0  0  0  0  0  0  0  0  0  0  0
  140.0140   76.3410  222.2440 C   0  0  0  0  0  0  0  0  0  0  0  0
  141.7920   73.3840  221.0510 N   0  0  0  0  0  0  0  0  0  0  0  0
  142.8570   71.4140  218.3090 C   0  0  0  0  0  0  0  0  0  0  0  0
  144.0680   74.0940  217.8940 C   0  0  0  0  0  0  0  0  0  0  0  0
  143.6670   75.3250  218.3400 C   0  0  0  0  0  0  0  0  0  0  0  0
  143.6061   76.7073  219.9978 H   0  0  0  0  0  0  0  0  0  0  0  0
  144.8238   75.1320  221.5019 H   0  0  0  0  0  0  0  0  0  0  0  0
  145.5294   72.9387  220.6804 H   0  0  0  0  0  0  0  0  0  0  0  0
  146.0133   71.9913  217.5069 H   0  0  0  0  0  0  0  0  0  0  0  0
  145.5855   71.3093  219.1172 H   0  0  0  0  0  0  0  0  0  0  0  0
  143.5523   69.1717  217.2469 H   0  0  0  0  0  0  0  0  0  0  0  0
  145.2647   69.3549  217.5489 H   0  0  0  0  0  0  0  0  0  0  0  0
  143.6421   68.5583  219.5820 H   0  0  0  0  0  0  0  0  0  0  0  0
  144.8812   69.7191  219.9853 H   0  0  0  0  0  0  0  0  0  0  0  0
  141.9468   70.1095  219.7986 H   0  0  0  0  0  0  0  0  0  0  0  0
  144.1150   71.5690  221.1460 H   0  0  0  0  0  0  0  0  0  0  0  0
  137.4166   71.5671  223.9121 H   0  0  0  0  0  0  0  0  0  0  0  0
  138.2064   70.7003  222.5056 H   0  0  0  0  0  0  0  0  0  0  0  0
  137.0782   69.6037  224.8292 H   0  0  0  0  0  0  0  0  0  0  0  0
  138.0107   68.8038  223.4690 H   0  0  0  0  0  0  0  0  0  0  0  0
  138.4546   67.1315  225.2219 H   0  0  0  0  0  0  0  0  0  0  0  0
  140.2509   66.4346  226.7864 H   0  0  0  0  0  0  0  0  0  0  0  0
  141.9119   68.0747  227.6470 H   0  0  0  0  0  0  0  0  0  0  0  0
  141.7486   70.4524  226.9104 H   0  0  0  0  0  0  0  0  0  0  0  0
  139.2451   72.0375  225.9012 H   0  0  0  0  0  0  0  0  0  0  0  0
  140.9342   71.9703  225.3375 H   0  0  0  0  0  0  0  0  0  0  0  0
  141.8663   75.8771  219.6813 H   0  0  0  0  0  0  0  0  0  0  0  0
  140.3439   75.1248  219.1529 H   0  0  0  0  0  0  0  0  0  0  0  0
  140.3630   77.6056  218.6920 H   0  0  0  0  0  0  0  0  0  0  0  0
  139.0808   77.2062  219.8336 H   0  0  0  0  0  0  0  0  0  0  0  0
  141.5987   79.5788  219.3672 H   0  0  0  0  0  0  0  0  0  0  0  0
  142.6743   80.8389  221.2514 H   0  0  0  0  0  0  0  0  0  0  0  0
  142.5251   80.0360  223.5550 H   0  0  0  0  0  0  0  0  0  0  0  0
  141.3002   77.9409  224.1137 H   0  0  0  0  0  0  0  0  0  0  0  0
  140.1933   75.9439  223.2540 H   0  0  0  0  0  0  0  0  0  0  0  0
  138.9280   76.4905  222.1530 H   0  0  0  0  0  0  0  0  0  0  0  0
  142.0163   71.0956  217.6751 H   0  0  0  0  0  0  0  0  0  0  0  0
  142.7064   72.4862  218.5031 H   0  0  0  0  0  0  0  0  0  0  0  0
  143.8415   73.8119  216.8552 H   0  0  0  0  0  0  0  0  0  0  0  0
  143.1328   76.0042  217.6594 H   0  0  0  0  0  0  0  0  0  0  0  0
  1  2  2  0
  2  3  1  0
  3  4  2  0
  4  5  1  0
  5  6  1  0
  6  7  1  0
  7  8  1  0
  8  9  1  0
  9 10  1  0
 10 11  1  0
 11 12  2  0
 12 13  1  0
 13 14  1  0
 14 15  1  0
 15 16  1  0
 16 17  1  0
 17 18  2  0
 18 19  1  0
 19 20  2  0
 20 21  1  0
 21 22  2  0
 22 23  1  0
 13 24  2  0
 24 25  1  0
 25 26  1  0
 26 27  1  0
 27 28  1  0
 28 29  1  0
 29 30  2  0
 30 31  1  0
 31 32  2  0
 32 33  1  0
 33 34  2  0
 34 35  1  0
 25 36  2  0
  9 37  1  0
  4 38  1  0
 38 39  2  0
 39  1  1  0
 37  6  1  0
 36 11  1  0
 23 14  1  0
 35 26  1  0
 22 17  1  0
 34 29  1  0
  1 40  1  0
  2 41  1  0
  3 42  1  0
  5 43  1  0
  5 44  1  0
  7 45  1  0
  7 46  1  0
  8 47  1  0
  8 48  1  0
  9 49  1  1
 10 50  1  0
 15 51  1  0
 15 52  1  0
 16 53  1  0
 16 54  1  0
 18 55  1  0
 19 56  1  0
 20 57  1  0
 21 58  1  0
 23 59  1  0
 23 60  1  0
 27 61  1  0
 27 62  1  0
 28 63  1  0
 28 64  1  0
 30 65  1  0
 31 66  1  0
 32 67  1  0
 33 68  1  0
 35 69  1  0
 35 70  1  0
 37 71  1  0
 37 72  1  0
 38 73  1  0
 39 74  1  0
M  END
>  <smiles>  (43) 
c1ccc(CN2CC[C@@H](Nc3nc(N4CCc5ccccc5C4)nc(N4CCc5ccccc5C4)n3)C2)cc1

>  <score_type>  (43) 
oracle

>  <origin>  (43) 
autodockgpu

>  <m_score__min__energy>  (43) 
-11.06

>  <m_primary>  (43) 
energy

>  <rmsd>  (43) 
8.400207262712035

>  <m_score__min__rmsd>  (43) 
8.400207262712035

>  <meeko>  (43) 
{"free_energy": -9.71, "intermolecular_energy": -11.5, "internal_energy": -2.38, "cluster_size": 10, "cluster_id": 3, "rank_in_cluster": 3}

>  <energy>  (43) 
-9.49

>  <cluster_rmsd>  (43) 
0.12

>  <cluster>  (43) 
6

$$$$

     RDKit          3D

 74 80  0  0  0  0  0  0  0  0999 V2000
  142.4900   79.7460  222.7600 C   0  0  0  0  0  0  0  0  0  0  0  0
  141.8370   80.2230  221.6380 C   0  0  0  0  0  0  0  0  0  0  0  0
  140.6240   79.7030  221.2730 C   0  0  0  0  0  0  0  0  0  0  0  0
  139.9940   78.6860  221.9990 C   0  0  0  0  0  0  0  0  0  0  0  0
  138.6780   78.1840  221.5600 C   0  0  0  0  0  0  0  0  0  0  0  0
  137.7890   78.1000  222.6760 N   0  0  0  0  0  0  0  0  0  0  0  0
  136.4880   78.5750  222.3420 C   0  0  0  0  0  0  0  0  0  0  0  0
  135.9540   77.4740  221.4180 C   0  0  0  0  0  0  0  0  0  0  0  0
  136.5310   76.2260  222.0450 C   0  0  1  0  0  0  0  0  0  0  0  0
  137.1560   75.3470  221.0720 N   0  0  0  0  0  0  0  0  0  0  0  0
  138.4260   74.7490  221.3690 C   0  0  0  0  0  0  0  0  0  0  0  0
  139.5750   75.2830  220.9330 N   0  0  0  0  0  0  0  0  0  0  0  0
  140.7530   74.7160  221.2170 C   0  0  0  0  0  0  0  0  0  0  0  0
  141.9840   75.2820  220.7530 N   0  0  0  0  0  0  0  0  0  0  0  0
  143.1700   74.5080  220.5120 C   0  0  0  0  0  0  0  0  0  0  0  0
  143.8900   74.8700  219.2460 C   0  0  0  0  0  0  0  0  0  0  0  0
  143.3190   76.0210  218.5350 C   0  0  0  0  0  0  0  0  0  0  0  0
  143.6850   76.2180  217.2170 C   0  0  0  0  0  0  0  0  0  0  0  0
  143.1610   77.3000  216.5170 C   0  0  0  0  0  0  0  0  0  0  0  0
  142.2750   78.1920  217.1080 C   0  0  0  0  0  0  0  0  0  0  0  0
  141.9180   77.9850  218.4200 C   0  0  0  0  0  0  0  0  0  0  0  0
  142.4470   76.9080  219.1000 C   0  0  0  0  0  0  0  0  0  0  0  0
  142.0430   76.7110  220.5120 C   0  0  0  0  0  0  0  0  0  0  0  0
  140.7830   73.5850  221.9560 N   0  0  0  0  0  0  0  0  0  0  0  0
  139.6370   73.0170  222.4150 C   0  0  0  0  0  0  0  0  0  0  0  0
  139.6400   71.8260  223.1960 N   0  0  0  0  0  0  0  0  0  0  0  0
  138.3930   71.1390  223.4560 C   0  0  0  0  0  0  0  0  0  0  0  0
  138.7450   69.7950  224.0650 C   0  0  0  0  0  0  0  0  0  0  0  0
  139.5230   70.1300  225.3050 C   0  0  0  0  0  0  0  0  0  0  0  0
  139.1500   69.6750  226.5520 C   0  0  0  0  0  0  0  0  0  0  0  0
  139.9610   70.0610  227.6140 C   0  0  0  0  0  0  0  0  0  0  0  0
  141.0690   70.8510  227.4290 C   0  0  0  0  0  0  0  0  0  0  0  0
  141.4360   71.3010  226.1780 C   0  0  0  0  0  0  0  0  0  0  0  0
  140.6370   70.9220  225.1200 C   0  0  0  0  0  0  0  0  0  0  0  0
  140.9200   71.3420  223.7100 C   0  0  0  0  0  0  0  0  0  0  0  0
  138.4780   73.6250  222.1030 N   0  0  0  0  0  0  0  0  0  0  0  0
  137.5270   76.7220  223.0690 C   0  0  0  0  0  0  0  0  0  0  0  0
  140.6760   78.2380  223.1080 C   0  0  0  0  0  0  0  0  0  0  0  0
  141.8880   78.7450  223.4900 C   0  0  0  0  0  0  0  0  0  0  0  0
  143.4653   80.1556  223.0617 H   0  0  0  0  0  0  0  0  0  0  0  0
  142.2937   81.0229  221.0367 H   0  0  0  0  0  0  0  0  0  0  0  0
  140.1263   80.0995  220.3757 H   0  0  0  0  0  0  0  0  0  0  0  0
  138.2578   78.8709  220.8106 H   0  0  0  0  0  0  0  0  0  0  0  0
  138.8018   77.1829  221.1212 H   0  0  0  0  0  0  0  0  0  0  0  0
  135.8608   78.6781  223.2398 H   0  0  0  0  0  0  0  0  0  0  0  0
  136.4935   79.5714  221.8759 H   0  0  0  0  0  0  0  0  0  0  0  0
  134.8543   77.4498  221.4200 H   0  0  0  0  0  0  0  0  0  0  0  0
  136.2332   77.6084  220.3625 H   0  0  0  0  0  0  0  0  0  0  0  0
  135.7401   75.6122  222.5009 H   0  0  0  0  0  0  0  0  0  0  0  0
  136.7210   75.1210  220.1500 H   0  0  0  0  0  0  0  0  0  0  0  0
  143.8586   74.6587  221.3564 H   0  0  0  0  0  0  0  0  0  0  0  0
  142.8500   73.4608  220.4071 H   0  0  0  0  0  0  0  0  0  0  0  0
  144.9346   75.1045  219.4986 H   0  0  0  0  0  0  0  0  0  0  0  0
  143.7973   74.0055  218.5722 H   0  0  0  0  0  0  0  0  0  0  0  0
  144.3844   75.5255  216.7258 H   0  0  0  0  0  0  0  0  0  0  0  0
  143.4558   77.4532  215.4684 H   0  0  0  0  0  0  0  0  0  0  0  0
  141.8691   79.0426  216.5408 H   0  0  0  0  0  0  0  0  0  0  0  0
  141.2187   78.6704  218.9211 H   0  0  0  0  0  0  0  0  0  0  0  0
  142.7817   77.1748  221.1822 H   0  0  0  0  0  0  0  0  0  0  0  0
  141.0653   77.1771  220.7040 H   0  0  0  0  0  0  0  0  0  0  0  0
  137.7795   71.7227  224.1581 H   0  0  0  0  0  0  0  0  0  0  0  0
  137.8153   71.0103  222.5288 H   0  0  0  0  0  0  0  0  0  0  0  0
  137.8337   69.2335  224.3187 H   0  0  0  0  0  0  0  0  0  0  0  0
  139.3187   69.1618  223.3723 H   0  0  0  0  0  0  0  0  0  0  0  0
  138.2618   69.0429  226.6986 H   0  0  0  0  0  0  0  0  0  0  0  0
  139.7079   69.7242  228.6301 H   0  0  0  0  0  0  0  0  0  0  0  0
  141.6790   71.1319  228.3002 H   0  0  0  0  0  0  0  0  0  0  0  0
  142.3245   71.9327  226.0311 H   0  0  0  0  0  0  0  0  0  0  0  0
  141.6732   72.1434  223.6890 H   0  0  0  0  0  0  0  0  0  0  0  0
  141.3226   70.5159  223.1054 H   0  0  0  0  0  0  0  0  0  0  0  0
  137.0990   76.6799  224.0815 H   0  0  0  0  0  0  0  0  0  0  0  0
  138.4414   76.1112  223.0970 H   0  0  0  0  0  0  0  0  0  0  0  0
  140.2266   77.4372  223.7136 H   0  0  0  0  0  0  0  0  0  0  0  0
  142.3859   78.3499  224.3878 H   0  0  0  0  0  0  0  0  0  0  0  0
  1  2  2  0
  2  3  1  0
  3  4  2  0
  4  5  1  0
  5  6  1  0
  6  7  1  0
  7  8  1  0
  8  9  1  0
  9 10  1  0
 10 11  1  0
 11 12  2  0
 12 13  1  0
 13 14  1  0
 14 15  1  0
 15 16  1  0
 16 17  1  0
 17 18  2  0
 18 19  1  0
 19 20  2  0
 20 21  1  0
 21 22  2  0
 22 23  1  0
 13 24  2  0
 24 25  1  0
 25 26  1  0
 26 27  1  0
 27 28  1  0
 28 29  1  0
 29 30  2  0
 30 31  1  0
 31 32  2  0
 32 33  1  0
 33 34  2  0
 34 35  1  0
 25 36  2  0
  9 37  1  0
  4 38  1  0
 38 39  2  0
 39  1  1  0
 37  6  1  0
 36 11  1  0
 23 14  1  0
 35 26  1  0
 22 17  1  0
 34 29  1  0
  1 40  1  0
  2 41  1  0
  3 42  1  0
  5 43  1  0
  5 44  1  0
  7 45  1  0
  7 46  1  0
  8 47  1  0
  8 48  1  0
  9 49  1  1
 10 50  1  0
 15 51  1  0
 15 52  1  0
 16 53  1  0
 16 54  1  0
 18 55  1  0
 19 56  1  0
 20 57  1  0
 21 58  1  0
 23 59  1  0
 23 60  1  0
 27 61  1  0
 27 62  1  0
 28 63  1  0
 28 64  1  0
 30 65  1  0
 31 66  1  0
 32 67  1  0
 33 68  1  0
 35 69  1  0
 35 70  1  0
 37 71  1  0
 37 72  1  0
 38 73  1  0
 39 74  1  0
M  END
>  <smiles>  (44) 
c1ccc(CN2CC[C@@H](Nc3nc(N4CCc5ccccc5C4)nc(N4CCc5ccccc5C4)n3)C2)cc1

>  <score_type>  (44) 
oracle

>  <origin>  (44) 
autodockgpu

>  <m_score__min__energy>  (44) 
-11.06

>  <m_primary>  (44) 
energy

>  <rmsd>  (44) 
4.691818125067719

>  <m_score__min__rmsd>  (44) 
4.691818125067719

>  <meeko>  (44) 
{"free_energy": -9.28, "intermolecular_energy": -11.07, "internal_energy": -2.67, "cluster_size": 11, "cluster_id": 6, "rank_in_cluster": 11}

>  <energy>  (44) 
-9.44

>  <cluster_rmsd>  (44) 
0.29

>  <cluster>  (44) 
6

$$$$

     RDKit          3D

 74 80  0  0  0  0  0  0  0  0999 V2000
  141.2310   78.3820  223.0690 C   0  0  0  0  0  0  0  0  0  0  0  0
  140.9640   77.1000  222.6230 C   0  0  0  0  0  0  0  0  0  0  0  0
  139.6900   76.7440  222.2720 C   0  0  0  0  0  0  0  0  0  0  0  0
  138.6130   77.6360  222.3430 C   0  0  0  0  0  0  0  0  0  0  0  0
  137.2680   77.1910  221.9320 C   0  0  0  0  0  0  0  0  0  0  0  0
  136.5180   76.7810  223.0790 N   0  0  0  0  0  0  0  0  0  0  0  0
  135.1200   76.9750  222.8810 C   0  0  0  0  0  0  0  0  0  0  0  0
  134.7700   75.8860  221.8580 C   0  0  0  0  0  0  0  0  0  0  0  0
  135.6630   74.7460  222.2910 C   0  0  1  0  0  0  0  0  0  0  0  0
  136.3850   74.1470  221.1820 N   0  0  0  0  0  0  0  0  0  0  0  0
  137.7250   73.6760  221.3800 C   0  0  0  0  0  0  0  0  0  0  0  0
  138.7430   74.1070  220.6220 N   0  0  0  0  0  0  0  0  0  0  0  0
  139.9890   73.6590  220.8170 C   0  0  0  0  0  0  0  0  0  0  0  0
  141.0800   74.1170  220.0110 N   0  0  0  0  0  0  0  0  0  0  0  0
  141.3860   75.5050  219.8080 C   0  0  0  0  0  0  0  0  0  0  0  0
  142.8500   75.8280  219.8910 C   0  0  0  0  0  0  0  0  0  0  0  0
  143.7180   74.6560  220.0560 C   0  0  0  0  0  0  0  0  0  0  0  0
  145.0170   74.8630  220.4780 C   0  0  0  0  0  0  0  0  0  0  0  0
  145.8640   73.7720  220.6430 C   0  0  0  0  0  0  0  0  0  0  0  0
  145.4380   72.4730  220.3950 C   0  0  0  0  0  0  0  0  0  0  0  0
  144.1430   72.2800  219.9760 C   0  0  0  0  0  0  0  0  0  0  0  0
  143.3160   73.3720  219.8160 C   0  0  0  0  0  0  0  0  0  0  0  0
  141.9250   73.1320  219.3640 C   0  0  0  0  0  0  0  0  0  0  0  0
  140.2230   72.7570  221.7960 N   0  0  0  0  0  0  0  0  0  0  0  0
  139.2140   72.2990  222.5830 C   0  0  0  0  0  0  0  0  0  0  0  0
  139.4340   71.3480  223.6210 N   0  0  0  0  0  0  0  0  0  0  0  0
  138.3270   70.5470  224.1000 C   0  0  0  0  0  0  0  0  0  0  0  0
  138.9150   69.4670  224.9890 C   0  0  0  0  0  0  0  0  0  0  0  0
  139.6380   70.2140  226.0720 C   0  0  0  0  0  0  0  0  0  0  0  0
  139.3650   70.0170  227.4090 C   0  0  0  0  0  0  0  0  0  0  0  0
  140.1100   70.7760  228.3060 C   0  0  0  0  0  0  0  0  0  0  0  0
  141.0620   71.6700  227.8810 C   0  0  0  0  0  0  0  0  0  0  0  0
  141.3290   71.8600  226.5420 C   0  0  0  0  0  0  0  0  0  0  0  0
  140.5950   71.1110  225.6470 C   0  0  0  0  0  0  0  0  0  0  0  0
  140.7840   71.2200  224.1650 C   0  0  0  0  0  0  0  0  0  0  0  0
  137.9800   72.7790  222.3470 N   0  0  0  0  0  0  0  0  0  0  0  0
  136.6050   75.3450  223.3100 C   0  0  0  0  0  0  0  0  0  0  0  0
  138.9200   78.9010  222.7920 C   0  0  0  0  0  0  0  0  0  0  0  0
  140.1870   79.2770  223.1470 C   0  0  0  0  0  0  0  0  0  0  0  0
  142.2511   78.6790  223.3541 H   0  0  0  0  0  0  0  0  0  0  0  0
  141.7785   76.3642  222.5502 H   0  0  0  0  0  0  0  0  0  0  0  0
  139.5051   75.7181  221.9208 H   0  0  0  0  0  0  0  0  0  0  0  0
  136.7462   78.0208  221.4328 H   0  0  0  0  0  0  0  0  0  0  0  0
  137.3639   76.3414  221.2400 H   0  0  0  0  0  0  0  0  0  0  0  0
  134.5630   76.8321  223.8187 H   0  0  0  0  0  0  0  0  0  0  0  0
  134.8636   77.9900  222.5432 H   0  0  0  0  0  0  0  0  0  0  0  0
  133.7078   75.6068  221.9197 H   0  0  0  0  0  0  0  0  0  0  0  0
  134.9219   76.1949  220.8133 H   0  0  0  0  0  0  0  0  0  0  0  0
  135.0705   73.9200  222.7115 H   0  0  0  0  0  0  0  0  0  0  0  0
  135.9720   74.0390  220.2290 H   0  0  0  0  0  0  0  0  0  0  0  0
  141.0238   75.7965  218.8111 H   0  0  0  0  0  0  0  0  0  0  0  0
  140.8919   76.0608  220.6185 H   0  0  0  0  0  0  0  0  0  0  0  0
  143.1418   76.3454  218.9652 H   0  0  0  0  0  0  0  0  0  0  0  0
  142.9854   76.4495  220.7885 H   0  0  0  0  0  0  0  0  0  0  0  0
  145.3784   75.8817  220.6818 H   0  0  0  0  0  0  0  0  0  0  0  0
  146.8977   73.9421  220.9785 H   0  0  0  0  0  0  0  0  0  0  0  0
  146.1198   71.6205  220.5305 H   0  0  0  0  0  0  0  0  0  0  0  0
  143.7705   71.2656  219.7706 H   0  0  0  0  0  0  0  0  0  0  0  0
  141.8610   73.2419  218.2714 H   0  0  0  0  0  0  0  0  0  0  0  0
  141.6029   72.1134  219.6261 H   0  0  0  0  0  0  0  0  0  0  0  0
  137.6292   71.1725  224.6761 H   0  0  0  0  0  0  0  0  0  0  0  0
  137.7693   70.1053  223.2611 H   0  0  0  0  0  0  0  0  0  0  0  0
  138.1183   68.8402  225.4160 H   0  0  0  0  0  0  0  0  0  0  0  0
  139.5819   68.7902  224.4347 H   0  0  0  0  0  0  0  0  0  0  0  0
  138.6018   69.3007  227.7472 H   0  0  0  0  0  0  0  0  0  0  0  0
  139.9317   70.6568  229.3849 H   0  0  0  0  0  0  0  0  0  0  0  0
  141.6255   72.2488  228.6276 H   0  0  0  0  0  0  0  0  0  0  0  0
  142.0923   72.5760  226.2033 H   0  0  0  0  0  0  0  0  0  0  0  0
  141.3869   72.1057  223.9161 H   0  0  0  0  0  0  0  0  0  0  0  0
  141.3161   70.3509  223.7509 H   0  0  0  0  0  0  0  0  0  0  0  0
  136.2843   75.0944  224.3319 H   0  0  0  0  0  0  0  0  0  0  0  0
  137.6319   74.9641  223.2085 H   0  0  0  0  0  0  0  0  0  0  0  0
  138.1109   79.6422  222.8687 H   0  0  0  0  0  0  0  0  0  0  0  0
  140.3733   80.3028  223.4977 H   0  0  0  0  0  0  0  0  0  0  0  0
  1  2  2  0
  2  3  1  0
  3  4  2  0
  4  5  1  0
  5  6  1  0
  6  7  1  0
  7  8  1  0
  8  9  1  0
  9 10  1  0
 10 11  1  0
 11 12  2  0
 12 13  1  0
 13 14  1  0
 14 15  1  0
 15 16  1  0
 16 17  1  0
 17 18  2  0
 18 19  1  0
 19 20  2  0
 20 21  1  0
 21 22  2  0
 22 23  1  0
 13 24  2  0
 24 25  1  0
 25 26  1  0
 26 27  1  0
 27 28  1  0
 28 29  1  0
 29 30  2  0
 30 31  1  0
 31 32  2  0
 32 33  1  0
 33 34  2  0
 34 35  1  0
 25 36  2  0
  9 37  1  0
  4 38  1  0
 38 39  2  0
 39  1  1  0
 37  6  1  0
 36 11  1  0
 23 14  1  0
 35 26  1  0
 22 17  1  0
 34 29  1  0
  1 40  1  0
  2 41  1  0
  3 42  1  0
  5 43  1  0
  5 44  1  0
  7 45  1  0
  7 46  1  0
  8 47  1  0
  8 48  1  0
  9 49  1  1
 10 50  1  0
 15 51  1  0
 15 52  1  0
 16 53  1  0
 16 54  1  0
 18 55  1  0
 19 56  1  0
 20 57  1  0
 21 58  1  0
 23 59  1  0
 23 60  1  0
 27 61  1  0
 27 62  1  0
 28 63  1  0
 28 64  1  0
 30 65  1  0
 31 66  1  0
 32 67  1  0
 33 68  1  0
 35 69  1  0
 35 70  1  0
 37 71  1  0
 37 72  1  0
 38 73  1  0
 39 74  1  0
M  END
>  <smiles>  (45) 
c1ccc(CN2CC[C@@H](Nc3nc(N4CCc5ccccc5C4)nc(N4CCc5ccccc5C4)n3)C2)cc1

>  <score_type>  (45) 
oracle

>  <origin>  (45) 
autodockgpu

>  <m_score__min__energy>  (45) 
-11.06

>  <m_primary>  (45) 
energy

>  <rmsd>  (45) 
5.781175918032692

>  <m_score__min__rmsd>  (45) 
5.781175918032692

>  <meeko>  (45) 
{"free_energy": -9.54, "intermolecular_energy": -11.33, "internal_energy": -2.5, "cluster_size": 11, "cluster_id": 6, "rank_in_cluster": 2}

>  <energy>  (45) 
-9.34

>  <cluster_rmsd>  (45) 
0.33

>  <cluster>  (45) 
6

$$$$

     RDKit          3D

 74 80  0  0  0  0  0  0  0  0999 V2000
  142.4460   81.2670  223.7170 C   0  0  0  0  0  0  0  0  0  0  0  0
  143.0420   80.1020  223.2710 C   0  0  0  0  0  0  0  0  0  0  0  0
  142.2760   79.0140  222.9490 C   0  0  0  0  0  0  0  0  0  0  0  0
  140.8800   79.0220  223.0520 C   0  0  0  0  0  0  0  0  0  0  0  0
  140.1140   77.8200  222.6720 C   0  0  0  0  0  0  0  0  0  0  0  0
  139.5180   78.0060  221.3850 N   0  0  0  0  0  0  0  0  0  0  0  0
  140.4270   77.6780  220.3380 C   0  0  0  0  0  0  0  0  0  0  0  0
  140.5160   76.1490  220.4370 C   0  0  0  0  0  0  0  0  0  0  0  0
  139.1010   75.7730  220.8100 C   0  0  1  0  0  0  0  0  0  0  0  0
  139.0440   74.8370  221.9200 N   0  0  0  0  0  0  0  0  0  0  0  0
  139.8990   73.6850  221.9210 C   0  0  0  0  0  0  0  0  0  0  0  0
  140.7230   73.4160  220.8980 N   0  0  0  0  0  0  0  0  0  0  0  0
  141.5150   72.3380  220.9120 C   0  0  0  0  0  0  0  0  0  0  0  0
  142.3970   72.0480  219.8220 N   0  0  0  0  0  0  0  0  0  0  0  0
  143.4340   72.9400  219.3840 C   0  0  0  0  0  0  0  0  0  0  0  0
  144.7380   72.2600  219.0820 C   0  0  0  0  0  0  0  0  0  0  0  0
  144.6930   70.7960  219.1800 C   0  0  0  0  0  0  0  0  0  0  0  0
  145.8910   70.1120  219.2560 C   0  0  0  0  0  0  0  0  0  0  0  0
  145.8800   68.7240  219.3500 C   0  0  0  0  0  0  0  0  0  0  0  0
  144.6940   68.0030  219.3700 C   0  0  0  0  0  0  0  0  0  0  0  0
  143.5080   68.6950  219.2940 C   0  0  0  0  0  0  0  0  0  0  0  0
  143.5350   70.0700  219.2010 C   0  0  0  0  0  0  0  0  0  0  0  0
  142.2410   70.7880  219.1210 C   0  0  0  0  0  0  0  0  0  0  0  0
  141.4820   71.5050  221.9760 N   0  0  0  0  0  0  0  0  0  0  0  0
  140.6590   71.7470  223.0300 C   0  0  0  0  0  0  0  0  0  0  0  0
  140.6050   70.8870  224.1630 N   0  0  0  0  0  0  0  0  0  0  0  0
  139.6240   69.8230  224.2060 C   0  0  0  0  0  0  0  0  0  0  0  0
  139.9860   68.9330  225.3810 C   0  0  0  0  0  0  0  0  0  0  0  0
  139.9480   69.8430  226.5750 C   0  0  0  0  0  0  0  0  0  0  0  0
  139.1580   69.5800  227.6740 C   0  0  0  0  0  0  0  0  0  0  0  0
  139.2190   70.5070  228.7100 C   0  0  0  0  0  0  0  0  0  0  0  0
  140.0210   71.6200  228.6390 C   0  0  0  0  0  0  0  0  0  0  0  0
  140.8080   71.8750  227.5360 C   0  0  0  0  0  0  0  0  0  0  0  0
  140.7530   70.9600  226.5050 C   0  0  0  0  0  0  0  0  0  0  0  0
  141.5560   71.1160  225.2500 C   0  0  0  0  0  0  0  0  0  0  0  0
  139.8820   72.8440  222.9690 N   0  0  0  0  0  0  0  0  0  0  0  0
  138.4190   77.0790  221.1480 C   0  0  0  0  0  0  0  0  0  0  0  0
  140.3240   80.1990  223.5000 C   0  0  0  0  0  0  0  0  0  0  0  0
  141.0730   81.2970  223.8260 C   0  0  0  0  0  0  0  0  0  0  0  0
  143.0522   82.1470  223.9780 H   0  0  0  0  0  0  0  0  0  0  0  0
  144.1365   80.0490  223.1744 H   0  0  0  0  0  0  0  0  0  0  0  0
  142.7759   78.0998  222.5964 H   0  0  0  0  0  0  0  0  0  0  0  0
  140.7900   76.9528  222.6385 H   0  0  0  0  0  0  0  0  0  0  0  0
  139.3216   77.6470  223.4151 H   0  0  0  0  0  0  0  0  0  0  0  0
  140.0342   77.9901  219.3591 H   0  0  0  0  0  0  0  0  0  0  0  0
  141.4015   78.1795  220.4322 H   0  0  0  0  0  0  0  0  0  0  0  0
  140.8072   75.7029  219.4746 H   0  0  0  0  0  0  0  0  0  0  0  0
  141.2715   75.7952  221.1539 H   0  0  0  0  0  0  0  0  0  0  0  0
  138.6020   75.2488  219.9816 H   0  0  0  0  0  0  0  0  0  0  0  0
  138.4020   74.9610  222.7340 H   0  0  0  0  0  0  0  0  0  0  0  0
  143.0899   73.4487  218.4715 H   0  0  0  0  0  0  0  0  0  0  0  0
  143.6239   73.6381  220.2126 H   0  0  0  0  0  0  0  0  0  0  0  0
  145.0370   72.5276  218.0578 H   0  0  0  0  0  0  0  0  0  0  0  0
  145.4560   72.6045  219.8409 H   0  0  0  0  0  0  0  0  0  0  0  0
  146.8448   70.6598  219.2423 H   0  0  0  0  0  0  0  0  0  0  0  0
  146.8363   68.1837  219.4101 H   0  0  0  0  0  0  0  0  0  0  0  0
  144.7026   66.9056  219.4447 H   0  0  0  0  0  0  0  0  0  0  0  0
  142.5485   68.1572  219.3073 H   0  0  0  0  0  0  0  0  0  0  0  0
  141.9790   70.9736  218.0689 H   0  0  0  0  0  0  0  0  0  0  0  0
  141.4373   70.1894  219.5746 H   0  0  0  0  0  0  0  0  0  0  0  0
  138.6171   70.2430  224.3463 H   0  0  0  0  0  0  0  0  0  0  0  0
  139.6233   69.2514  223.2661 H   0  0  0  0  0  0  0  0  0  0  0  0
  139.2546   68.1187  225.4905 H   0  0  0  0  0  0  0  0  0  0  0  0
  140.9684   68.4548  225.2535 H   0  0  0  0  0  0  0  0  0  0  0  0
  138.5162   68.6883  227.7287 H   0  0  0  0  0  0  0  0  0  0  0  0
  138.6084   70.3441  229.6103 H   0  0  0  0  0  0  0  0  0  0  0  0
  140.0357   72.3253  229.4830 H   0  0  0  0  0  0  0  0  0  0  0  0
  141.4499   72.7666  227.4806 H   0  0  0  0  0  0  0  0  0  0  0  0
  141.9805   72.1287  225.1857 H   0  0  0  0  0  0  0  0  0  0  0  0
  142.4042   70.4167  225.2119 H   0  0  0  0  0  0  0  0  0  0  0  0
  137.7941   77.4210  220.3098 H   0  0  0  0  0  0  0  0  0  0  0  0
  137.7476   76.9914  222.0149 H   0  0  0  0  0  0  0  0  0  0  0  0
  139.2303   80.2595  223.6003 H   0  0  0  0  0  0  0  0  0  0  0  0
  140.5742   82.2119  224.1783 H   0  0  0  0  0  0  0  0  0  0  0  0
  1  2  2  0
  2  3  1  0
  3  4  2  0
  4  5  1  0
  5  6  1  0
  6  7  1  0
  7  8  1  0
  8  9  1  0
  9 10  1  0
 10 11  1  0
 11 12  2  0
 12 13  1  0
 13 14  1  0
 14 15  1  0
 15 16  1  0
 16 17  1  0
 17 18  2  0
 18 19  1  0
 19 20  2  0
 20 21  1  0
 21 22  2  0
 22 23  1  0
 13 24  2  0
 24 25  1  0
 25 26  1  0
 26 27  1  0
 27 28  1  0
 28 29  1  0
 29 30  2  0
 30 31  1  0
 31 32  2  0
 32 33  1  0
 33 34  2  0
 34 35  1  0
 25 36  2  0
  9 37  1  0
  4 38  1  0
 38 39  2  0
 39  1  1  0
 37  6  1  0
 36 11  1  0
 23 14  1  0
 35 26  1  0
 22 17  1  0
 34 29  1  0
  1 40  1  0
  2 41  1  0
  3 42  1  0
  5 43  1  0
  5 44  1  0
  7 45  1  0
  7 46  1  0
  8 47  1  0
  8 48  1  0
  9 49  1  6
 10 50  1  0
 15 51  1  0
 15 52  1  0
 16 53  1  0
 16 54  1  0
 18 55  1  0
 19 56  1  0
 20 57  1  0
 21 58  1  0
 23 59  1  0
 23 60  1  0
 27 61  1  0
 27 62  1  0
 28 63  1  0
 28 64  1  0
 30 65  1  0
 31 66  1  0
 32 67  1  0
 33 68  1  0
 35 69  1  0
 35 70  1  0
 37 71  1  0
 37 72  1  0
 38 73  1  0
 39 74  1  0
M  END
>  <smiles>  (46) 
c1ccc(CN2CC[C@@H](Nc3nc(N4CCc5ccccc5C4)nc(N4CCc5ccccc5C4)n3)C2)cc1

>  <score_type>  (46) 
oracle

>  <origin>  (46) 
autodockgpu

>  <m_score__min__energy>  (46) 
-11.06

>  <m_primary>  (46) 
energy

>  <rmsd>  (46) 
3.305795695416513

>  <m_score__min__rmsd>  (46) 
3.305795695416513

>  <meeko>  (46) 
{"free_energy": -10.73, "intermolecular_energy": -12.52, "internal_energy": -1.39, "cluster_size": 8, "cluster_id": 1, "rank_in_cluster": 4}

>  <energy>  (46) 
-9.28

>  <cluster_rmsd>  (46) 
0.46

>  <cluster>  (46) 
6

$$$$

     RDKit          3D

 74 80  0  0  0  0  0  0  0  0999 V2000
  143.4220   77.1070  215.7930 C   0  0  0  0  0  0  0  0  0  0  0  0
  143.2530   77.5820  217.0810 C   0  0  0  0  0  0  0  0  0  0  0  0
  143.3090   76.7240  218.1460 C   0  0  0  0  0  0  0  0  0  0  0  0
  143.5340   75.3500  217.9930 C   0  0  0  0  0  0  0  0  0  0  0  0
  143.5990   74.4850  219.1860 C   0  0  0  0  0  0  0  0  0  0  0  0
  144.8090   73.7220  219.1710 N   0  0  0  0  0  0  0  0  0  0  0  0
  145.3750   73.6190  220.4740 C   0  0  0  0  0  0  0  0  0  0  0  0
  144.4030   72.6730  221.1900 C   0  0  0  0  0  0  0  0  0  0  0  0
  144.0250   71.7120  220.0870 C   0  0  1  0  0  0  0  0  0  0  0  0
  142.5910   71.4960  219.9980 N   0  0  0  0  0  0  0  0  0  0  0  0
  141.7110   72.2090  220.8780 C   0  0  0  0  0  0  0  0  0  0  0  0
  141.0660   71.5950  221.8790 N   0  0  0  0  0  0  0  0  0  0  0  0
  140.2470   72.2710  222.6930 C   0  0  0  0  0  0  0  0  0  0  0  0
  139.5560   71.6200  223.7650 N   0  0  0  0  0  0  0  0  0  0  0  0
  138.2460   71.0470  223.6290 C   0  0  0  0  0  0  0  0  0  0  0  0
  138.0960   69.7030  224.2810 C   0  0  0  0  0  0  0  0  0  0  0  0
  139.2760   69.2620  225.0340 C   0  0  0  0  0  0  0  0  0  0  0  0
  139.3680   67.9260  225.3750 C   0  0  0  0  0  0  0  0  0  0  0  0
  140.4750   67.4780  226.0890 C   0  0  0  0  0  0  0  0  0  0  0  0
  141.4950   68.3400  226.4700 C   0  0  0  0  0  0  0  0  0  0  0  0
  141.3940   69.6670  226.1230 C   0  0  0  0  0  0  0  0  0  0  0  0
  140.2900   70.0950  225.4170 C   0  0  0  0  0  0  0  0  0  0  0  0
  140.2080   71.5300  225.0570 C   0  0  0  0  0  0  0  0  0  0  0  0
  140.0690   73.5980  222.5010 N   0  0  0  0  0  0  0  0  0  0  0  0
  140.7080   74.2520  221.4960 C   0  0  0  0  0  0  0  0  0  0  0  0
  140.5380   75.6480  221.2710 N   0  0  0  0  0  0  0  0  0  0  0  0
  140.8700   76.2090  219.9790 C   0  0  0  0  0  0  0  0  0  0  0  0
  140.3380   77.6300  219.9620 C   0  0  0  0  0  0  0  0  0  0  0  0
  141.0230   78.3080  221.1120 C   0  0  0  0  0  0  0  0  0  0  0  0
  141.7670   79.4580  220.9510 C   0  0  0  0  0  0  0  0  0  0  0  0
  142.3480   79.9810  222.1020 C   0  0  0  0  0  0  0  0  0  0  0  0
  142.1870   79.3840  223.3280 C   0  0  0  0  0  0  0  0  0  0  0  0
  141.4410   78.2350  223.4820 C   0  0  0  0  0  0  0  0  0  0  0  0
  140.8620   77.7100  222.3450 C   0  0  0  0  0  0  0  0  0  0  0  0
  140.0280   76.4660  222.3700 C   0  0  0  0  0  0  0  0  0  0  0  0
  141.5200   73.5280  220.7040 N   0  0  0  0  0  0  0  0  0  0  0  0
  144.5760   72.3270  218.8200 C   0  0  0  0  0  0  0  0  0  0  0  0
  143.6970   74.9170  216.6970 C   0  0  0  0  0  0  0  0  0  0  0  0
  143.6450   75.7590  215.6190 C   0  0  0  0  0  0  0  0  0  0  0  0
  143.3794   77.7880  214.9302 H   0  0  0  0  0  0  0  0  0  0  0  0
  143.0728   78.6539  217.2502 H   0  0  0  0  0  0  0  0  0  0  0  0
  143.1722   77.1286  219.1597 H   0  0  0  0  0  0  0  0  0  0  0  0
  143.5734   75.1098  220.0910 H   0  0  0  0  0  0  0  0  0  0  0  0
  142.7391   73.7990  219.1822 H   0  0  0  0  0  0  0  0  0  0  0  0
  146.3876   73.1913  220.4339 H   0  0  0  0  0  0  0  0  0  0  0  0
  145.4900   74.5900  220.9780 H   0  0  0  0  0  0  0  0  0  0  0  0
  144.8956   72.1504  222.0232 H   0  0  0  0  0  0  0  0  0  0  0  0
  143.5421   73.1848  221.6449 H   0  0  0  0  0  0  0  0  0  0  0  0
  144.4417   70.7117  220.2761 H   0  0  0  0  0  0  0  0  0  0  0  0
  142.1580   70.8380  219.3130 H   0  0  0  0  0  0  0  0  0  0  0  0
  137.5186   71.7352  224.0842 H   0  0  0  0  0  0  0  0  0  0  0  0
  138.0738   70.8992  222.5527 H   0  0  0  0  0  0  0  0  0  0  0  0
  137.2428   69.7495  224.9738 H   0  0  0  0  0  0  0  0  0  0  0  0
  137.9492   68.9742  223.4703 H   0  0  0  0  0  0  0  0  0  0  0  0
  138.5733   67.2231  225.0846 H   0  0  0  0  0  0  0  0  0  0  0  0
  140.5440   66.4138  226.3586 H   0  0  0  0  0  0  0  0  0  0  0  0
  142.3629   67.9703  227.0358 H   0  0  0  0  0  0  0  0  0  0  0  0
  142.1844   70.3780  226.4053 H   0  0  0  0  0  0  0  0  0  0  0  0
  139.6212   72.0735  225.8122 H   0  0  0  0  0  0  0  0  0  0  0  0
  141.2125   71.9764  225.0154 H   0  0  0  0  0  0  0  0  0  0  0  0
  141.9609   76.2124  219.8377 H   0  0  0  0  0  0  0  0  0  0  0  0
  140.4262   75.6141  219.1671 H   0  0  0  0  0  0  0  0  0  0  0  0
  140.5895   78.1268  219.0134 H   0  0  0  0  0  0  0  0  0  0  0  0
  139.2422   77.6648  220.0517 H   0  0  0  0  0  0  0  0  0  0  0  0
  141.8939   79.9349  219.9679 H   0  0  0  0  0  0  0  0  0  0  0  0
  142.9524   80.8971  222.0278 H   0  0  0  0  0  0  0  0  0  0  0  0
  142.6657   79.8342  224.2101 H   0  0  0  0  0  0  0  0  0  0  0  0
  141.3133   77.7590  224.4654 H   0  0  0  0  0  0  0  0  0  0  0  0
  140.1450   75.9411  223.3296 H   0  0  0  0  0  0  0  0  0  0  0  0
  138.9556   76.6846  222.2599 H   0  0  0  0  0  0  0  0  0  0  0  0
  145.5156   71.8368  218.5252 H   0  0  0  0  0  0  0  0  0  0  0  0
  143.8915   72.2164  217.9660 H   0  0  0  0  0  0  0  0  0  0  0  0
  143.8771   73.8465  216.5194 H   0  0  0  0  0  0  0  0  0  0  0  0
  143.7825   75.3556  214.6049 H   0  0  0  0  0  0  0  0  0  0  0  0
  1  2  2  0
  2  3  1  0
  3  4  2  0
  4  5  1  0
  5  6  1  0
  6  7  1  0
  7  8  1  0
  8  9  1  0
  9 10  1  0
 10 11  1  0
 11 12  2  0
 12 13  1  0
 13 14  1  0
 14 15  1  0
 15 16  1  0
 16 17  1  0
 17 18  2  0
 18 19  1  0
 19 20  2  0
 20 21  1  0
 21 22  2  0
 22 23  1  0
 13 24  2  0
 24 25  1  0
 25 26  1  0
 26 27  1  0
 27 28  1  0
 28 29  1  0
 29 30  2  0
 30 31  1  0
 31 32  2  0
 32 33  1  0
 33 34  2  0
 34 35  1  0
 25 36  2  0
  9 37  1  0
  4 38  1  0
 38 39  2  0
 39  1  1  0
 37  6  1  0
 36 11  1  0
 23 14  1  0
 35 26  1  0
 22 17  1  0
 34 29  1  0
  1 40  1  0
  2 41  1  0
  3 42  1  0
  5 43  1  0
  5 44  1  0
  7 45  1  0
  7 46  1  0
  8 47  1  0
  8 48  1  0
  9 49  1  1
 10 50  1  0
 15 51  1  0
 15 52  1  0
 16 53  1  0
 16 54  1  0
 18 55  1  0
 19 56  1  0
 20 57  1  0
 21 58  1  0
 23 59  1  0
 23 60  1  0
 27 61  1  0
 27 62  1  0
 28 63  1  0
 28 64  1  0
 30 65  1  0
 31 66  1  0
 32 67  1  0
 33 68  1  0
 35 69  1  0
 35 70  1  0
 37 71  1  0
 37 72  1  0
 38 73  1  0
 39 74  1  0
M  END
>  <smiles>  (47) 
c1ccc(CN2CC[C@@H](Nc3nc(N4CCc5ccccc5C4)nc(N4CCc5ccccc5C4)n3)C2)cc1

>  <score_type>  (47) 
oracle

>  <origin>  (47) 
autodockgpu

>  <m_score__min__energy>  (47) 
-11.06

>  <m_primary>  (47) 
energy

>  <rmsd>  (47) 
7.099304145454681

>  <m_score__min__rmsd>  (47) 
7.099304145454681

>  <meeko>  (47) 
{"free_energy": -10.05, "intermolecular_energy": -11.84, "internal_energy": -2.17, "cluster_size": 10, "cluster_id": 3, "rank_in_cluster": 2}

>  <energy>  (47) 
-9.18

>  <cluster_rmsd>  (47) 
0.0

>  <cluster>  (47) 
7

$$$$

     RDKit          3D

 74 80  0  0  0  0  0  0  0  0999 V2000
  141.0080   69.1530  228.1660 C   0  0  0  0  0  0  0  0  0  0  0  0
  141.0020   70.5330  228.0630 C   0  0  0  0  0  0  0  0  0  0  0  0
  140.4400   71.1400  226.9720 C   0  0  0  0  0  0  0  0  0  0  0  0
  139.8540   70.4150  225.9270 C   0  0  0  0  0  0  0  0  0  0  0  0
  139.2510   71.1340  224.7890 C   0  0  0  0  0  0  0  0  0  0  0  0
  139.2700   70.3070  223.6230 N   0  0  0  0  0  0  0  0  0  0  0  0
  138.0400   69.6040  223.4640 C   0  0  0  0  0  0  0  0  0  0  0  0
  137.0660   70.7170  223.0580 C   0  0  0  0  0  0  0  0  0  0  0  0
  137.9360   71.6010  222.1940 C   0  0  1  0  0  0  0  0  0  0  0  0
  137.8240   73.0070  222.5400 N   0  0  0  0  0  0  0  0  0  0  0  0
  138.7560   73.9490  221.9890 C   0  0  0  0  0  0  0  0  0  0  0  0
  138.5980   75.2710  222.1460 N   0  0  0  0  0  0  0  0  0  0  0  0
  139.4750   76.1390  221.6270 C   0  0  0  0  0  0  0  0  0  0  0  0
  139.3110   77.5520  221.7920 N   0  0  0  0  0  0  0  0  0  0  0  0
  138.3870   78.1380  222.7220 C   0  0  0  0  0  0  0  0  0  0  0  0
  138.9460   79.3000  223.4900 C   0  0  0  0  0  0  0  0  0  0  0  0
  140.2970   79.7020  223.0790 C   0  0  0  0  0  0  0  0  0  0  0  0
  141.0200   80.5160  223.9290 C   0  0  0  0  0  0  0  0  0  0  0  0
  142.3040   80.9130  223.5670 C   0  0  0  0  0  0  0  0  0  0  0  0
  142.8810   80.5120  222.3690 C   0  0  0  0  0  0  0  0  0  0  0  0
  142.1510   79.7010  221.5310 C   0  0  0  0  0  0  0  0  0  0  0  0
  140.8810   79.3170  221.9050 C   0  0  0  0  0  0  0  0  0  0  0  0
  140.1190   78.4420  220.9820 C   0  0  0  0  0  0  0  0  0  0  0  0
  140.5370   75.6730  220.9340 N   0  0  0  0  0  0  0  0  0  0  0  0
  140.7280   74.3390  220.7560 C   0  0  0  0  0  0  0  0  0  0  0  0
  141.8390   73.8220  220.0300 N   0  0  0  0  0  0  0  0  0  0  0  0
  141.8280   72.4400  219.5970 C   0  0  0  0  0  0  0  0  0  0  0  0
  142.9910   72.2670  218.6390 C   0  0  0  0  0  0  0  0  0  0  0  0
  144.2040   72.6420  219.4390 C   0  0  0  0  0  0  0  0  0  0  0  0
  145.2740   71.7870  219.5980 C   0  0  0  0  0  0  0  0  0  0  0  0
  146.3330   72.2630  220.3650 C   0  0  0  0  0  0  0  0  0  0  0  0
  146.3110   73.5150  220.9300 C   0  0  0  0  0  0  0  0  0  0  0  0
  145.2380   74.3650  220.7650 C   0  0  0  0  0  0  0  0  0  0  0  0
  144.1850   73.8990  220.0060 C   0  0  0  0  0  0  0  0  0  0  0  0
  142.9570   74.7190  219.7490 C   0  0  0  0  0  0  0  0  0  0  0  0
  139.8190   73.5070  221.2960 N   0  0  0  0  0  0  0  0  0  0  0  0
  139.3440   71.0880  222.3950 C   0  0  0  0  0  0  0  0  0  0  0  0
  139.8810   69.0460  226.0670 C   0  0  0  0  0  0  0  0  0  0  0  0
  140.4370   68.4200  227.1500 C   0  0  0  0  0  0  0  0  0  0  0  0
  141.4575   68.6544  229.0374 H   0  0  0  0  0  0  0  0  0  0  0  0
  141.4502   71.1442  228.8602 H   0  0  0  0  0  0  0  0  0  0  0  0
  140.4491   72.2384  226.9141 H   0  0  0  0  0  0  0  0  0  0  0  0
  138.2108   71.3956  225.0332 H   0  0  0  0  0  0  0  0  0  0  0  0
  139.8293   72.0488  224.5924 H   0  0  0  0  0  0  0  0  0  0  0  0
  138.1189   68.8394  222.6772 H   0  0  0  0  0  0  0  0  0  0  0  0
  137.7285   69.0592  224.3674 H   0  0  0  0  0  0  0  0  0  0  0  0
  136.2154   70.3147  222.4882 H   0  0  0  0  0  0  0  0  0  0  0  0
  136.6131   71.2416  223.9122 H   0  0  0  0  0  0  0  0  0  0  0  0
  137.6246   71.5518  221.1401 H   0  0  0  0  0  0  0  0  0  0  0  0
  137.0870   73.3770  223.1800 H   0  0  0  0  0  0  0  0  0  0  0  0
  137.5064   78.4855  222.1618 H   0  0  0  0  0  0  0  0  0  0  0  0
  138.1410   77.3591  223.4588 H   0  0  0  0  0  0  0  0  0  0  0  0
  138.2738   80.1597  223.3519 H   0  0  0  0  0  0  0  0  0  0  0  0
  139.0186   78.9784  224.5394 H   0  0  0  0  0  0  0  0  0  0  0  0
  140.5850   80.8475  224.8834 H   0  0  0  0  0  0  0  0  0  0  0  0
  142.8764   81.5609  224.2471 H   0  0  0  0  0  0  0  0  0  0  0  0
  143.8967   80.8349  222.0968 H   0  0  0  0  0  0  0  0  0  0  0  0
  142.5756   79.3631  220.5742 H   0  0  0  0  0  0  0  0  0  0  0  0
  139.4718   79.0521  220.3348 H   0  0  0  0  0  0  0  0  0  0  0  0
  140.8030   77.8674  220.3401 H   0  0  0  0  0  0  0  0  0  0  0  0
  141.9487   71.7719  220.4625 H   0  0  0  0  0  0  0  0  0  0  0  0
  140.8753   72.1892  219.1077 H   0  0  0  0  0  0  0  0  0  0  0  0
  143.0595   71.2238  218.2968 H   0  0  0  0  0  0  0  0  0  0  0  0
  142.8812   72.8853  217.7359 H   0  0  0  0  0  0  0  0  0  0  0  0
  145.2896   70.7851  219.1441 H   0  0  0  0  0  0  0  0  0  0  0  0
  147.2111   71.6196  220.5231 H   0  0  0  0  0  0  0  0  0  0  0  0
  147.1713   73.8478  221.5293 H   0  0  0  0  0  0  0  0  0  0  0  0
  145.2226   75.3675  221.2174 H   0  0  0  0  0  0  0  0  0  0  0  0
  142.9288   75.5930  220.4163 H   0  0  0  0  0  0  0  0  0  0  0  0
  142.9270   75.1076  218.7204 H   0  0  0  0  0  0  0  0  0  0  0  0
  139.6531   70.4562  221.5493 H   0  0  0  0  0  0  0  0  0  0  0  0
  140.0828   71.9006  222.4573 H   0  0  0  0  0  0  0  0  0  0  0  0
  139.4361   68.4276  225.2735 H   0  0  0  0  0  0  0  0  0  0  0  0
  140.4275   67.3216  227.2090 H   0  0  0  0  0  0  0  0  0  0  0  0
  1  2  2  0
  2  3  1  0
  3  4  2  0
  4  5  1  0
  5  6  1  0
  6  7  1  0
  7  8  1  0
  8  9  1  0
  9 10  1  0
 10 11  1  0
 11 12  2  0
 12 13  1  0
 13 14  1  0
 14 15  1  0
 15 16  1  0
 16 17  1  0
 17 18  2  0
 18 19  1  0
 19 20  2  0
 20 21  1  0
 21 22  2  0
 22 23  1  0
 13 24  2  0
 24 25  1  0
 25 26  1  0
 26 27  1  0
 27 28  1  0
 28 29  1  0
 29 30  2  0
 30 31  1  0
 31 32  2  0
 32 33  1  0
 33 34  2  0
 34 35  1  0
 25 36  2  0
  9 37  1  0
  4 38  1  0
 38 39  2  0
 39  1  1  0
 37  6  1  0
 36 11  1  0
 23 14  1  0
 35 26  1  0
 22 17  1  0
 34 29  1  0
  1 40  1  0
  2 41  1  0
  3 42  1  0
  5 43  1  0
  5 44  1  0
  7 45  1  0
  7 46  1  0
  8 47  1  0
  8 48  1  0
  9 49  1  6
 10 50  1  0
 15 51  1  0
 15 52  1  0
 16 53  1  0
 16 54  1  0
 18 55  1  0
 19 56  1  0
 20 57  1  0
 21 58  1  0
 23 59  1  0
 23 60  1  0
 27 61  1  0
 27 62  1  0
 28 63  1  0
 28 64  1  0
 30 65  1  0
 31 66  1  0
 32 67  1  0
 33 68  1  0
 35 69  1  0
 35 70  1  0
 37 71  1  0
 37 72  1  0
 38 73  1  0
 39 74  1  0
M  END
>  <smiles>  (48) 
c1ccc(CN2CC[C@@H](Nc3nc(N4CCc5ccccc5C4)nc(N4CCc5ccccc5C4)n3)C2)cc1

>  <score_type>  (48) 
oracle

>  <origin>  (48) 
autodockgpu

>  <m_score__min__energy>  (48) 
-11.06

>  <m_primary>  (48) 
energy

>  <rmsd>  (48) 
10.727347979995265

>  <m_score__min__rmsd>  (48) 
10.727347979995265

>  <meeko>  (48) 
{"free_energy": -10.78, "intermolecular_energy": -12.57, "internal_energy": -1.35, "cluster_size": 14, "cluster_id": 2, "rank_in_cluster": 5}

>  <energy>  (48) 
-9.15

>  <cluster_rmsd>  (48) 
0.98

>  <cluster>  (48) 
7

$$$$

     RDKit          3D

 74 80  0  0  0  0  0  0  0  0999 V2000
  140.8220   68.6060  227.8850 C   0  0  0  0  0  0  0  0  0  0  0  0
  140.8910   69.9870  227.8590 C   0  0  0  0  0  0  0  0  0  0  0  0
  140.3200   70.6870  226.8310 C   0  0  0  0  0  0  0  0  0  0  0  0
  139.6490   70.0580  225.7750 C   0  0  0  0  0  0  0  0  0  0  0  0
  139.0410   70.8750  224.7080 C   0  0  0  0  0  0  0  0  0  0  0  0
  139.0090   70.1360  223.4840 N   0  0  0  0  0  0  0  0  0  0  0  0
  137.7310   69.5450  223.2660 C   0  0  0  0  0  0  0  0  0  0  0  0
  136.8510   70.7570  222.9360 C   0  0  0  0  0  0  0  0  0  0  0  0
  137.7980   71.6300  222.1450 C   0  0  1  0  0  0  0  0  0  0  0  0
  137.7920   73.0120  222.5920 N   0  0  0  0  0  0  0  0  0  0  0  0
  138.7200   73.9460  222.0230 C   0  0  0  0  0  0  0  0  0  0  0  0
  138.5590   75.2700  222.1530 N   0  0  0  0  0  0  0  0  0  0  0  0
  139.4320   76.1310  221.6180 C   0  0  0  0  0  0  0  0  0  0  0  0
  139.2640   77.5460  221.7550 N   0  0  0  0  0  0  0  0  0  0  0  0
  138.3340   78.1470  222.6700 C   0  0  0  0  0  0  0  0  0  0  0  0
  138.8870   79.3250  223.4180 C   0  0  0  0  0  0  0  0  0  0  0  0
  140.2390   79.7220  223.0050 C   0  0  0  0  0  0  0  0  0  0  0  0
  140.9560   80.5550  223.8430 C   0  0  0  0  0  0  0  0  0  0  0  0
  142.2400   80.9480  223.4790 C   0  0  0  0  0  0  0  0  0  0  0  0
  142.8240   80.5260  222.2920 C   0  0  0  0  0  0  0  0  0  0  0  0
  142.1000   79.6970  221.4670 C   0  0  0  0  0  0  0  0  0  0  0  0
  140.8290   79.3170  221.8410 C   0  0  0  0  0  0  0  0  0  0  0  0
  140.0740   78.4230  220.9320 C   0  0  0  0  0  0  0  0  0  0  0  0
  140.4960   75.6540  220.9330 N   0  0  0  0  0  0  0  0  0  0  0  0
  140.6910   74.3180  220.7810 C   0  0  0  0  0  0  0  0  0  0  0  0
  141.8020   73.7900  220.0650 N   0  0  0  0  0  0  0  0  0  0  0  0
  141.8140   72.3900  219.6950 C   0  0  0  0  0  0  0  0  0  0  0  0
  142.9690   72.1960  218.7300 C   0  0  0  0  0  0  0  0  0  0  0  0
  144.1840   72.6320  219.4970 C   0  0  0  0  0  0  0  0  0  0  0  0
  145.2720   71.8060  219.6800 C   0  0  0  0  0  0  0  0  0  0  0  0
  146.3310   72.3370  220.4100 C   0  0  0  0  0  0  0  0  0  0  0  0
  146.2910   73.6130  220.9180 C   0  0  0  0  0  0  0  0  0  0  0  0
  145.1990   74.4330  220.7290 C   0  0  0  0  0  0  0  0  0  0  0  0
  144.1460   73.9130  220.0060 C   0  0  0  0  0  0  0  0  0  0  0  0
  142.8990   74.6950  219.7280 C   0  0  0  0  0  0  0  0  0  0  0  0
  139.7840   73.4940  221.3380 N   0  0  0  0  0  0  0  0  0  0  0  0
  139.1590   70.9950  222.3170 C   0  0  0  0  0  0  0  0  0  0  0  0
  139.6020   68.6840  225.8360 C   0  0  0  0  0  0  0  0  0  0  0  0
  140.1670   67.9660  226.8560 C   0  0  0  0  0  0  0  0  0  0  0  0
  141.2783   68.0335  228.7060 H   0  0  0  0  0  0  0  0  0  0  0  0
  141.4070   70.5250  228.6679 H   0  0  0  0  0  0  0  0  0  0  0  0
  140.3908   71.7847  226.8343 H   0  0  0  0  0  0  0  0  0  0  0  0
  138.0148   71.1460  224.9968 H   0  0  0  0  0  0  0  0  0  0  0  0
  139.6411   71.7857  224.5643 H   0  0  0  0  0  0  0  0  0  0  0  0
  137.7602   68.8355  222.4259 H   0  0  0  0  0  0  0  0  0  0  0  0
  137.3672   68.9624  224.1252 H   0  0  0  0  0  0  0  0  0  0  0  0
  135.9790   70.4648  222.3325 H   0  0  0  0  0  0  0  0  0  0  0  0
  136.4290   71.2522  223.8230 H   0  0  0  0  0  0  0  0  0  0  0  0
  137.4964   71.6816  221.0884 H   0  0  0  0  0  0  0  0  0  0  0  0
  137.1340   73.3700  223.3200 H   0  0  0  0  0  0  0  0  0  0  0  0
  137.4549   78.4814  222.0996 H   0  0  0  0  0  0  0  0  0  0  0  0
  138.0866   77.3816  223.4203 H   0  0  0  0  0  0  0  0  0  0  0  0
  138.2135   80.1803  223.2604 H   0  0  0  0  0  0  0  0  0  0  0  0
  138.9556   79.0240  224.4738 H   0  0  0  0  0  0  0  0  0  0  0  0
  140.5157   80.9039  224.7887 H   0  0  0  0  0  0  0  0  0  0  0  0
  142.8075   81.6104  224.1492 H   0  0  0  0  0  0  0  0  0  0  0  0
  143.8400   80.8466  222.0183 H   0  0  0  0  0  0  0  0  0  0  0  0
  142.5306   79.3413  220.5193 H   0  0  0  0  0  0  0  0  0  0  0  0
  139.4283   79.0190  220.2703 H   0  0  0  0  0  0  0  0  0  0  0  0
  140.7626   77.8380  220.3046 H   0  0  0  0  0  0  0  0  0  0  0  0
  141.9588   71.7644  220.5882 H   0  0  0  0  0  0  0  0  0  0  0  0
  140.8607   72.0987  219.2299 H   0  0  0  0  0  0  0  0  0  0  0  0
  143.0548   71.1398  218.4351 H   0  0  0  0  0  0  0  0  0  0  0  0
  142.8356   72.7693  217.8007 H   0  0  0  0  0  0  0  0  0  0  0  0
  145.3016   70.7849  219.2721 H   0  0  0  0  0  0  0  0  0  0  0  0
  147.2238   71.7188  220.5850 H   0  0  0  0  0  0  0  0  0  0  0  0
  147.1519   73.9897  221.4898 H   0  0  0  0  0  0  0  0  0  0  0  0
  145.1690   75.4545  221.1360 H   0  0  0  0  0  0  0  0  0  0  0  0
  142.8614   75.5983  220.3546 H   0  0  0  0  0  0  0  0  0  0  0  0
  142.8485   75.0343  218.6829 H   0  0  0  0  0  0  0  0  0  0  0  0
  139.4283   70.4035  221.4295 H   0  0  0  0  0  0  0  0  0  0  0  0
  139.9582   71.7403  222.4429 H   0  0  0  0  0  0  0  0  0  0  0  0
  139.0883   68.1388  225.0305 H   0  0  0  0  0  0  0  0  0  0  0  0
  140.0972   66.8682  226.8536 H   0  0  0  0  0  0  0  0  0  0  0  0
  1  2  2  0
  2  3  1  0
  3  4  2  0
  4  5  1  0
  5  6  1  0
  6  7  1  0
  7  8  1  0
  8  9  1  0
  9 10  1  0
 10 11  1  0
 11 12  2  0
 12 13  1  0
 13 14  1  0
 14 15  1  0
 15 16  1  0
 16 17  1  0
 17 18  2  0
 18 19  1  0
 19 20  2  0
 20 21  1  0
 21 22  2  0
 22 23  1  0
 13 24  2  0
 24 25  1  0
 25 26  1  0
 26 27  1  0
 27 28  1  0
 28 29  1  0
 29 30  2  0
 30 31  1  0
 31 32  2  0
 32 33  1  0
 33 34  2  0
 34 35  1  0
 25 36  2  0
  9 37  1  0
  4 38  1  0
 38 39  2  0
 39  1  1  0
 37  6  1  0
 36 11  1  0
 23 14  1  0
 35 26  1  0
 22 17  1  0
 34 29  1  0
  1 40  1  0
  2 41  1  0
  3 42  1  0
  5 43  1  0
  5 44  1  0
  7 45  1  0
  7 46  1  0
  8 47  1  0
  8 48  1  0
  9 49  1  6
 10 50  1  0
 15 51  1  0
 15 52  1  0
 16 53  1  0
 16 54  1  0
 18 55  1  0
 19 56  1  0
 20 57  1  0
 21 58  1  0
 23 59  1  0
 23 60  1  0
 27 61  1  0
 27 62  1  0
 28 63  1  0
 28 64  1  0
 30 65  1  0
 31 66  1  0
 32 67  1  0
 33 68  1  0
 35 69  1  0
 35 70  1  0
 37 71  1  0
 37 72  1  0
 38 73  1  0
 39 74  1  0
M  END
>  <smiles>  (49) 
c1ccc(CN2CC[C@@H](Nc3nc(N4CCc5ccccc5C4)nc(N4CCc5ccccc5C4)n3)C2)cc1

>  <score_type>  (49) 
oracle

>  <origin>  (49) 
autodockgpu

>  <m_score__min__energy>  (49) 
-11.06

>  <m_primary>  (49) 
energy

>  <rmsd>  (49) 
10.91472409449798

>  <m_score__min__rmsd>  (49) 
10.91472409449798

>  <meeko>  (49) 
{"free_energy": -10.65, "intermolecular_energy": -12.44, "internal_energy": -1.41, "cluster_size": 14, "cluster_id": 2, "rank_in_cluster": 6}

>  <energy>  (49) 
-9.08

>  <cluster_rmsd>  (49) 
0.0

>  <cluster>  (49) 
8

$$$$

     RDKit          3D

 74 80  0  0  0  0  0  0  0  0999 V2000
  141.4690   69.3600  226.4070 C   0  0  0  0  0  0  0  0  0  0  0  0
  140.3620   68.5540  226.2100 C   0  0  0  0  0  0  0  0  0  0  0  0
  139.2950   69.0130  225.4850 C   0  0  0  0  0  0  0  0  0  0  0  0
  139.2670   70.2930  224.9180 C   0  0  0  0  0  0  0  0  0  0  0  0
  138.0920   70.7180  224.1340 C   0  0  0  0  0  0  0  0  0  0  0  0
  138.1750   70.1930  222.8060 N   0  0  0  0  0  0  0  0  0  0  0  0
  136.8940   70.1490  222.1840 C   0  0  0  0  0  0  0  0  0  0  0  0
  136.5920   71.6320  221.9290 C   0  0  0  0  0  0  0  0  0  0  0  0
  137.9570   72.1780  221.5780 C   0  0  1  0  0  0  0  0  0  0  0  0
  138.2730   73.4000  222.2960 N   0  0  0  0  0  0  0  0  0  0  0  0
  139.4120   74.1790  221.9040 C   0  0  0  0  0  0  0  0  0  0  0  0
  139.3560   75.5150  221.8110 N   0  0  0  0  0  0  0  0  0  0  0  0
  140.4260   76.2290  221.4440 C   0  0  0  0  0  0  0  0  0  0  0  0
  140.3700   77.6570  221.3440 N   0  0  0  0  0  0  0  0  0  0  0  0
  139.1570   78.4130  221.4820 C   0  0  0  0  0  0  0  0  0  0  0  0
  139.3000   79.6520  222.3170 C   0  0  0  0  0  0  0  0  0  0  0  0
  140.6740   79.9310  222.7530 C   0  0  0  0  0  0  0  0  0  0  0  0
  140.8580   80.8320  223.7840 C   0  0  0  0  0  0  0  0  0  0  0  0
  142.1480   81.1170  224.2200 C   0  0  0  0  0  0  0  0  0  0  0  0
  143.2610   80.5180  223.6450 C   0  0  0  0  0  0  0  0  0  0  0  0
  143.0650   79.6230  222.6200 C   0  0  0  0  0  0  0  0  0  0  0  0
  141.7800   79.3520  222.1990 C   0  0  0  0  0  0  0  0  0  0  0  0
  141.6000   78.3820  221.0930 C   0  0  0  0  0  0  0  0  0  0  0  0
  141.5830   75.5910  221.1620 N   0  0  0  0  0  0  0  0  0  0  0  0
  141.6770   74.2380  221.2470 C   0  0  0  0  0  0  0  0  0  0  0  0
  142.8840   73.5410  220.9550 N   0  0  0  0  0  0  0  0  0  0  0  0
  144.0360   74.2770  220.4800 C   0  0  0  0  0  0  0  0  0  0  0  0
  145.2170   73.3260  220.5190 C   0  0  0  0  0  0  0  0  0  0  0  0
  144.8170   72.1840  219.6310 C   0  0  0  0  0  0  0  0  0  0  0  0
  145.5830   71.7870  218.5550 C   0  0  0  0  0  0  0  0  0  0  0  0
  145.0940   70.7130  217.8160 C   0  0  0  0  0  0  0  0  0  0  0  0
  143.9160   70.0880  218.1410 C   0  0  0  0  0  0  0  0  0  0  0  0
  143.1570   70.4910  219.2190 C   0  0  0  0  0  0  0  0  0  0  0  0
  143.6350   71.5540  219.9570 C   0  0  0  0  0  0  0  0  0  0  0  0
  142.9090   72.0930  221.1510 C   0  0  0  0  0  0  0  0  0  0  0  0
  140.5730   73.5640  221.6190 N   0  0  0  0  0  0  0  0  0  0  0  0
  138.9260   71.0670  221.9150 C   0  0  0  0  0  0  0  0  0  0  0  0
  140.3870   71.0640  225.1370 C   0  0  0  0  0  0  0  0  0  0  0  0
  141.4630   70.6220  225.8580 C   0  0  0  0  0  0  0  0  0  0  0  0
  142.3318   69.0014  226.9875 H   0  0  0  0  0  0  0  0  0  0  0  0
  140.3389   67.5407  226.6374 H   0  0  0  0  0  0  0  0  0  0  0  0
  138.4276   68.3517  225.3427 H   0  0  0  0  0  0  0  0  0  0  0  0
  137.1771   70.3444  224.6170 H   0  0  0  0  0  0  0  0  0  0  0  0
  138.0668   71.8167  224.0874 H   0  0  0  0  0  0  0  0  0  0  0  0
  136.9300   69.5836  221.2411 H   0  0  0  0  0  0  0  0  0  0  0  0
  136.1293   69.6464  222.7944 H   0  0  0  0  0  0  0  0  0  0  0  0
  135.8853   71.7579  221.0955 H   0  0  0  0  0  0  0  0  0  0  0  0
  136.1184   72.1400  222.7820 H   0  0  0  0  0  0  0  0  0  0  0  0
  138.0070   72.4624  220.5166 H   0  0  0  0  0  0  0  0  0  0  0  0
  137.7040   73.7500  223.0990 H   0  0  0  0  0  0  0  0  0  0  0  0
  138.8186   78.7098  220.4783 H   0  0  0  0  0  0  0  0  0  0  0  0
  138.4349   77.7635  221.9984 H   0  0  0  0  0  0  0  0  0  0  0  0
  138.9455   80.5090  221.7255 H   0  0  0  0  0  0  0  0  0  0  0  0
  138.7072   79.4877  223.2289 H   0  0  0  0  0  0  0  0  0  0  0  0
  139.9923   81.3197  224.2559 H   0  0  0  0  0  0  0  0  0  0  0  0
  142.2899   81.8351  225.0411 H   0  0  0  0  0  0  0  0  0  0  0  0
  144.2748   80.7538  224.0009 H   0  0  0  0  0  0  0  0  0  0  0  0
  143.9232   79.1288  222.1412 H   0  0  0  0  0  0  0  0  0  0  0  0
  141.5323   78.9153  220.1333 H   0  0  0  0  0  0  0  0  0  0  0  0
  142.4537   77.6901  221.0422 H   0  0  0  0  0  0  0  0  0  0  0  0
  143.8643   74.6240  219.4504 H   0  0  0  0  0  0  0  0  0  0  0  0
  144.2230   75.1610  221.1074 H   0  0  0  0  0  0  0  0  0  0  0  0
  146.1232   73.8171  220.1347 H   0  0  0  0  0  0  0  0  0  0  0  0
  145.4511   72.9954  221.5417 H   0  0  0  0  0  0  0  0  0  0  0  0
  146.5262   72.2900  218.2955 H   0  0  0  0  0  0  0  0  0  0  0  0
  145.6674   70.3556  216.9480 H   0  0  0  0  0  0  0  0  0  0  0  0
  143.5689   69.2446  217.5260 H   0  0  0  0  0  0  0  0  0  0  0  0
  142.2138   69.9881  219.4787 H   0  0  0  0  0  0  0  0  0  0  0  0
  141.8861   71.6910  221.1958 H   0  0  0  0  0  0  0  0  0  0  0  0
  143.3989   71.8117  222.0948 H   0  0  0  0  0  0  0  0  0  0  0  0
  139.2317   70.5276  221.0064 H   0  0  0  0  0  0  0  0  0  0  0  0
  139.8518   71.4419  222.3757 H   0  0  0  0  0  0  0  0  0  0  0  0
  140.4180   72.0790  224.7141 H   0  0  0  0  0  0  0  0  0  0  0  0
  142.3315   71.2819  226.0001 H   0  0  0  0  0  0  0  0  0  0  0  0
  1  2  2  0
  2  3  1  0
  3  4  2  0
  4  5  1  0
  5  6  1  0
  6  7  1  0
  7  8  1  0
  8  9  1  0
  9 10  1  0
 10 11  1  0
 11 12  2  0
 12 13  1  0
 13 14  1  0
 14 15  1  0
 15 16  1  0
 16 17  1  0
 17 18  2  0
 18 19  1  0
 19 20  2  0
 20 21  1  0
 21 22  2  0
 22 23  1  0
 13 24  2  0
 24 25  1  0
 25 26  1  0
 26 27  1  0
 27 28  1  0
 28 29  1  0
 29 30  2  0
 30 31  1  0
 31 32  2  0
 32 33  1  0
 33 34  2  0
 34 35  1  0
 25 36  2  0
  9 37  1  0
  4 38  1  0
 38 39  2  0
 39  1  1  0
 37  6  1  0
 36 11  1  0
 23 14  1  0
 35 26  1  0
 22 17  1  0
 34 29  1  0
  1 40  1  0
  2 41  1  0
  3 42  1  0
  5 43  1  0
  5 44  1  0
  7 45  1  0
  7 46  1  0
  8 47  1  0
  8 48  1  0
  9 49  1  6
 10 50  1  0
 15 51  1  0
 15 52  1  0
 16 53  1  0
 16 54  1  0
 18 55  1  0
 19 56  1  0
 20 57  1  0
 21 58  1  0
 23 59  1  0
 23 60  1  0
 27 61  1  0
 27 62  1  0
 28 63  1  0
 28 64  1  0
 30 65  1  0
 31 66  1  0
 32 67  1  0
 33 68  1  0
 35 69  1  0
 35 70  1  0
 37 71  1  0
 37 72  1  0
 38 73  1  0
 39 74  1  0
M  END
>  <smiles>  (50) 
c1ccc(CN2CC[C@@H](Nc3nc(N4CCc5ccccc5C4)nc(N4CCc5ccccc5C4)n3)C2)cc1

>  <score_type>  (50) 
oracle

>  <origin>  (50) 
autodockgpu

>  <m_score__min__energy>  (50) 
-11.06

>  <m_primary>  (50) 
energy

>  <rmsd>  (50) 
10.42084552301334

>  <m_score__min__rmsd>  (50) 
10.42084552301334

>  <meeko>  (50) 
{"free_energy": -9.87, "intermolecular_energy": -11.66, "internal_energy": -1.76, "cluster_size": 14, "cluster_id": 2, "rank_in_cluster": 14}

>  <energy>  (50) 
-8.52

>  <cluster_rmsd>  (50) 
0.0

>  <cluster>  (50) 
9

$$$$
