@<TRIPOS>MOLECULE
*****
 60 64 0 0 0
SMALL
GASTEIGER

@<TRIPOS>ATOM
      1 O         137.4990   70.2120  221.9130 O.2     1  UNL1       -0.2702
      2 C         137.9860   70.9060  222.8570 C.2     1  UNL1        0.2442
      3 N         137.9040   72.3270  222.6650 N.am    1  UNL1       -0.3096
      4 C         137.2980   72.7920  221.4640 C.3     1  UNL1        0.0305
      5 C         138.2070   72.9520  220.2790 C.3     1  UNL1        0.0416
      6 C         137.7540   72.1660  219.0840 C.3     1  UNL1       -0.0314
      7 C         138.6960   71.0160  219.0150 C.3     1  UNL1       -0.0354
      8 C         139.9320   71.4460  219.6950 C.3     1  UNL1        0.0151
      9 N         139.5740   72.6350  220.5160 N.am    1  UNL1       -0.2957
     10 C         140.5950   73.1540  221.3460 C.2     1  UNL1        0.2330
     11 O         140.3320   72.8940  222.6210 O.2     1  UNL1       -0.2739
     12 C         141.8060   73.8760  221.1420 C.3     1  UNL1        0.0887
     13 N         141.8760   75.2880  221.3150 N.am    1  UNL1       -0.3015
     14 C         140.8570   76.0850  221.9350 C.2     1  UNL1        0.2628
     15 O         139.7920   75.5220  222.3660 O.2     1  UNL1       -0.2685
     16 C         141.0160   77.5330  222.0800 C.ar    1  UNL1        0.1260
     17 C         141.3980   78.0530  223.2960 C.ar    1  UNL1       -0.0306
     18 C         141.5680   79.4210  223.5020 C.ar    1  UNL1       -0.0503
     19 C         141.3320   80.2440  222.4140 C.ar    1  UNL1        0.0031
     20 C         141.4850   81.6080  222.5590 C.ar    1  UNL1       -0.0173
     21 C         141.2460   82.4130  221.4650 C.ar    1  UNL1        0.1241
     22 F         141.3940   83.7540  221.5990 F       1  UNL1       -0.2055
     23 C         140.8630   81.9290  220.2360 C.ar    1  UNL1       -0.0244
     24 C         140.7150   80.5570  220.1070 C.ar    1  UNL1       -0.0330
     25 C         140.9440   79.7160  221.1780 C.ar    1  UNL1        0.0720
     26 N         140.7990   78.3880  221.0500 N.ar    1  UNL1       -0.2421
     27 C         138.5770   70.2990  224.0330 C.ar    1  UNL1        0.0387
     28 C         138.4890   68.9650  224.3530 C.ar    1  UNL1       -0.0489
     29 C         139.0660   68.4160  225.4840 C.ar    1  UNL1       -0.0519
     30 C         139.7680   69.2400  226.3420 C.ar    1  UNL1        0.0004
     31 C         140.3410   68.6880  227.4680 C.ar    1  UNL1       -0.0511
     32 C         141.0570   69.5000  228.3520 C.ar    1  UNL1       -0.0430
     33 C         141.1280   70.8390  228.0040 C.ar    1  UNL1        0.0283
     34 N         140.5630   71.3470  226.9050 N.ar    1  UNL1       -0.2550
     35 C         139.8590   70.5790  226.0260 C.ar    1  UNL1        0.0717
     36 C         139.2810   71.1130  224.8950 C.ar    1  UNL1       -0.0236
     37 H         138.2950   72.9030  223.4340 H       1  UNL1        0.1491
     38 H         136.5096   72.0765  221.1875 H       1  UNL1        0.0480
     39 H         136.9327   73.8041  221.6924 H       1  UNL1        0.0480
     40 H         138.1394   74.0313  220.0779 H       1  UNL1        0.0516
     41 H         136.7205   71.8144  219.2190 H       1  UNL1        0.0284
     42 H         137.7589   72.7664  218.1623 H       1  UNL1        0.0284
     43 H         138.2661   70.1414  219.5252 H       1  UNL1        0.0281
     44 H         138.8953   70.7270  217.9725 H       1  UNL1        0.0281
     45 H         140.3106   70.6394  220.3400 H       1  UNL1        0.0465
     46 H         140.7209   71.6889  218.9679 H       1  UNL1        0.0465
     47 H         142.5439   73.4431  221.8334 H       1  UNL1        0.0558
     48 H         141.9637   73.7656  220.0590 H       1  UNL1        0.0558
     49 H         142.7170   75.8600  220.9880 H       1  UNL1        0.1496
     50 H         141.5754   77.3643  224.1351 H       1  UNL1        0.0641
     51 H         141.8737   79.8256  224.4781 H       1  UNL1        0.0625
     52 H         141.7898   82.0420  223.5227 H       1  UNL1        0.0653
     53 H         140.6811   82.6051  219.3876 H       1  UNL1        0.0647
     54 H         140.4111   80.1325  219.1388 H       1  UNL1        0.0640
     55 H         137.9319   68.3009  223.6758 H       1  UNL1        0.0625
     56 H         138.9674   67.3412  225.6965 H       1  UNL1        0.0624
     57 H         140.2350   67.6119  227.6700 H       1  UNL1        0.0625
     58 H         141.5315   69.1031  229.2616 H       1  UNL1        0.0633
     59 H         141.6793   71.5208  228.6683 H       1  UNL1        0.0830
     60 H         139.3810   72.1871  224.6800 H       1  UNL1        0.0646
@<TRIPOS>BOND
     1     1     2    2
     2     2     3   am
     3     3     4    1
     4     4     5    1
     5     5     6    1
     6     6     7    1
     7     7     8    1
     8     8     9    1
     9     9    10   am
    10    10    11    2
    11    10    12    1
    12    12    13    1
    13    13    14   am
    14    14    15    2
    15    14    16    1
    16    16    17   ar
    17    17    18   ar
    18    18    19   ar
    19    19    20   ar
    20    20    21   ar
    21    21    22    1
    22    21    23   ar
    23    23    24   ar
    24    24    25   ar
    25    25    26   ar
    26     2    27    1
    27    27    28   ar
    28    28    29   ar
    29    29    30   ar
    30    30    31   ar
    31    31    32   ar
    32    32    33   ar
    33    33    34   ar
    34    34    35   ar
    35    35    36   ar
    36     9     5    1
    37    26    16   ar
    38    36    27   ar
    39    25    19   ar
    40    35    30   ar
    41     3    37    1
    42     4    38    1
    43     4    39    1
    44     5    40    1
    45     6    41    1
    46     6    42    1
    47     7    43    1
    48     7    44    1
    49     8    45    1
    50     8    46    1
    51    12    47    1
    52    12    48    1
    53    13    49    1
    54    17    50    1
    55    18    51    1
    56    20    52    1
    57    23    53    1
    58    24    54    1
    59    28    55    1
    60    29    56    1
    61    31    57    1
    62    32    58    1
    63    33    59    1
    64    36    60    1
