
     RDKit          3D

 54 58  0  0  0  0  0  0  0  0999 V2000
  141.2070   71.9570  221.7420 O   0  0  0  0  0  0  0  0  0  0  0  0
  140.2920   72.0290  222.6080 C   0  0  0  0  0  0  0  0  0  0  0  0
  139.2790   73.0450  222.3890 N   0  0  0  0  0  0  0  0  0  0  0  0
  139.4320   73.8380  221.2260 C   0  0  0  0  0  0  0  0  0  0  0  0
  140.4350   74.8800  221.1580 C   0  0  0  0  0  0  0  0  0  0  0  0
  140.1750   75.9160  221.9130 O   0  0  0  0  0  0  0  0  0  0  0  0
  141.6470   74.9320  220.3970 N   0  0  0  0  0  0  0  0  0  0  0  0
  142.9320   74.3600  220.6430 C   0  0  0  0  0  0  0  0  0  0  0  0
  143.6890   74.4210  219.3530 C   0  0  0  0  0  0  0  0  0  0  0  0
  142.9380   75.3600  218.4750 C   0  0  0  0  0  0  0  0  0  0  0  0
  141.6800   75.7150  219.1560 C   0  0  2  0  0  0  0  0  0  0  0  0
  141.8000   77.2030  219.4930 C   0  0  0  0  0  0  0  0  0  0  0  0
  141.7830   77.8810  220.3980 N   0  0  0  0  0  0  0  0  0  0  0  0
  141.9020   79.2010  220.5110 C   0  0  0  0  0  0  0  0  0  0  0  0
  141.8590   79.9420  221.7770 C   0  0  0  0  0  0  0  0  0  0  0  0
  140.7120   80.5380  222.2610 C   0  0  0  0  0  0  0  0  0  0  0  0
  140.6660   81.2350  223.4480 C   0  0  0  0  0  0  0  0  0  0  0  0
  141.8200   81.3540  224.2110 C   0  0  0  0  0  0  0  0  0  0  0  0
  142.9940   80.7570  223.7400 C   0  0  0  0  0  0  0  0  0  0  0  0
  142.9920   80.0780  222.5590 C   0  0  0  0  0  0  0  0  0  0  0  0
  142.0750   79.8280  219.3040 C   0  0  0  0  0  0  0  0  0  0  0  0
  142.0490   78.4150  218.0820 S   0  0  0  0  0  0  0  0  0  0  0  0
  140.2170   71.1650  223.7750 C   0  0  0  0  0  0  0  0  0  0  0  0
  139.6210   69.9220  223.5870 C   0  0  0  0  0  0  0  0  0  0  0  0
  139.5290   69.0700  224.6730 C   0  0  0  0  0  0  0  0  0  0  0  0
  140.0120   69.4390  225.8970 C   0  0  0  0  0  0  0  0  0  0  0  0
  139.9190   68.5790  226.9950 C   0  0  0  0  0  0  0  0  0  0  0  0
  140.4230   69.0070  228.2050 C   0  0  0  0  0  0  0  0  0  0  0  0
  140.3290   68.1690  229.2630 F   0  0  0  0  0  0  0  0  0  0  0  0
  141.0090   70.2520  228.3550 C   0  0  0  0  0  0  0  0  0  0  0  0
  141.1000   71.0980  227.2690 C   0  0  0  0  0  0  0  0  0  0  0  0
  140.5980   70.6790  226.0530 C   0  0  0  0  0  0  0  0  0  0  0  0
  140.6820   71.5020  224.9880 N   0  0  0  0  0  0  0  0  0  0  0  0
  138.5430   73.0630  223.1090 H   0  0  0  0  0  0  0  0  0  0  0  0
  139.6468   73.1434  220.4005 H   0  0  0  0  0  0  0  0  0  0  0  0
  138.4911   74.4071  221.1971 H   0  0  0  0  0  0  0  0  0  0  0  0
  143.4596   74.9344  221.4188 H   0  0  0  0  0  0  0  0  0  0  0  0
  142.8401   73.3226  220.9970 H   0  0  0  0  0  0  0  0  0  0  0  0
  144.7090   74.7945  219.5266 H   0  0  0  0  0  0  0  0  0  0  0  0
  143.7777   73.4259  218.8927 H   0  0  0  0  0  0  0  0  0  0  0  0
  143.5362   76.2664  218.3002 H   0  0  0  0  0  0  0  0  0  0  0  0
  142.7263   74.8879  217.5043 H   0  0  0  0  0  0  0  0  0  0  0  0
  140.7782   75.5187  218.5574 H   0  0  0  0  0  0  0  0  0  0  0  0
  139.7887   80.4520  221.6693 H   0  0  0  0  0  0  0  0  0  0  0  0
  139.7252   81.6925  223.7879 H   0  0  0  0  0  0  0  0  0  0  0  0
  141.8112   81.9047  225.1632 H   0  0  0  0  0  0  0  0  0  0  0  0
  143.9220   80.8361  224.3252 H   0  0  0  0  0  0  0  0  0  0  0  0
  143.9299   79.6190  222.2130 H   0  0  0  0  0  0  0  0  0  0  0  0
  142.1990   80.9025  219.1037 H   0  0  0  0  0  0  0  0  0  0  0  0
  139.2334   69.6247  222.6014 H   0  0  0  0  0  0  0  0  0  0  0  0
  139.0608   68.0823  224.5497 H   0  0  0  0  0  0  0  0  0  0  0  0
  139.4557   67.5862  226.8963 H   0  0  0  0  0  0  0  0  0  0  0  0
  141.3999   70.5651  229.3344 H   0  0  0  0  0  0  0  0  0  0  0  0
  141.5648   72.0898  227.3702 H   0  0  0  0  0  0  0  0  0  0  0  0
  1  2  2  0
  2  3  1  0
  3  4  1  0
  4  5  1  0
  5  6  2  0
  5  7  1  0
  7  8  1  0
  8  9  1  0
  9 10  1  0
 10 11  1  0
 11 12  1  0
 12 13  2  0
 13 14  1  0
 14 15  1  0
 15 16  2  0
 16 17  1  0
 17 18  2  0
 18 19  1  0
 19 20  2  0
 14 21  2  0
 21 22  1  0
  2 23  1  0
 23 24  2  0
 24 25  1  0
 25 26  2  0
 26 27  1  0
 27 28  2  0
 28 29  1  0
 28 30  1  0
 30 31  2  0
 31 32  1  0
 32 33  2  0
 11  7  1  0
 22 12  1  0
 33 23  1  0
 20 15  1  0
 32 26  1  0
  3 34  1  0
  4 35  1  0
  4 36  1  0
  8 37  1  0
  8 38  1  0
  9 39  1  0
  9 40  1  0
 10 41  1  0
 10 42  1  0
 11 43  1  6
 16 44  1  0
 17 45  1  0
 18 46  1  0
 19 47  1  0
 20 48  1  0
 21 49  1  0
 24 50  1  0
 25 51  1  0
 27 52  1  0
 30 53  1  0
 31 54  1  0
M  END
