@<TRIPOS>MOLECULE
*****
 60 63 0 0 0
SMALL
GASTEIGER

@<TRIPOS>ATOM
      1 C         144.2240   73.9190  219.7600 C.3     1  UNL1       -0.0626
      2 C         143.0340   74.6200  220.4090 C.3     1  UNL1       -0.0446
      3 C         142.8030   75.9060  219.6880 C.3     1  UNL1       -0.0626
      4 C         141.9140   73.6440  220.3950 C.3     1  UNL1       -0.0252
      5 C         140.6630   74.0170  221.0880 C.3     1  UNL1        0.0836
      6 N         140.3410   73.3540  222.3000 N.am    1  UNL1       -0.3004
      7 C         140.6130   71.9410  222.3790 C.2     1  UNL1        0.2630
      8 O         141.1270   71.3300  221.3810 O.2     1  UNL1       -0.2685
      9 C         140.2940   71.2070  223.6210 C.ar    1  UNL1        0.1260
     10 C         139.5940   70.0240  223.5130 C.ar    1  UNL1       -0.0306
     11 C         139.3110   69.3610  224.6930 C.ar    1  UNL1       -0.0504
     12 C         139.7190   69.8730  225.9190 C.ar    1  UNL1        0.0004
     13 C         139.4400   69.2130  227.1110 C.ar    1  UNL1       -0.0526
     14 C         139.8640   69.7560  228.3170 C.ar    1  UNL1       -0.0611
     15 C         140.5620   70.9490  228.3340 C.ar    1  UNL1       -0.0597
     16 C         140.8500   71.6230  227.1540 C.ar    1  UNL1       -0.0357
     17 C         140.4180   71.0610  225.9730 C.ar    1  UNL1        0.0718
     18 N         140.6920   71.7070  224.8200 N.ar    1  UNL1       -0.2421
     19 C         139.5280   73.8600  220.1060 C.2     1  UNL1        0.1703
     20 O         139.6010   72.8380  219.4100 O.2     1  UNL1       -0.2938
     21 C         138.4360   74.8400  219.9960 C.3     1  UNL1        0.0723
     22 N         138.9180   76.1170  220.4740 N.am    1  UNL1       -0.3043
     23 C         139.0200   76.4030  221.8640 C.2     1  UNL1        0.2444
     24 O         138.6590   75.4570  222.6430 O.2     1  UNL1       -0.2702
     25 C         139.4980   77.6690  222.3920 C.ar    1  UNL1        0.0373
     26 C         138.6990   78.6360  222.9380 C.ar    1  UNL1       -0.0490
     27 C         139.2640   79.8050  223.4090 C.ar    1  UNL1       -0.0532
     28 C         140.6090   80.0480  223.3570 C.ar    1  UNL1       -0.0150
     29 C         141.1890   81.2060  223.8220 C.ar    1  UNL1       -0.0359
     30 C         142.5550   81.3610  223.7260 C.ar    1  UNL1        0.0281
     31 N         143.3400   80.4060  223.1860 N.ar    1  UNL1       -0.2626
     32 C         142.7890   79.2540  222.7200 C.ar    1  UNL1        0.0353
     33 C         141.4360   79.0740  222.8040 C.ar    1  UNL1        0.0009
     34 C         140.8570   77.9260  222.3430 C.ar    1  UNL1       -0.0405
     35 H         144.8900   73.5267  220.5427 H       1  UNL1        0.0232
     36 H         143.8641   73.0886  219.1347 H       1  UNL1        0.0232
     37 H         144.7758   74.6364  219.1347 H       1  UNL1        0.0232
     38 H         143.1815   74.9113  221.4594 H       1  UNL1        0.0296
     39 H         142.6576   76.7151  220.4189 H       1  UNL1        0.0232
     40 H         143.6745   76.1342  219.0568 H       1  UNL1        0.0232
     41 H         141.9065   75.8166  219.0568 H       1  UNL1        0.0232
     42 H         141.6604   73.4515  219.3421 H       1  UNL1        0.0290
     43 H         142.2944   72.7795  220.9588 H       1  UNL1        0.0290
     44 H         140.8297   75.0520  221.4212 H       1  UNL1        0.0578
     45 H         139.9300   73.7680  223.1590 H       1  UNL1        0.1498
     46 H         139.2766   69.6276  222.5372 H       1  UNL1        0.0641
     47 H         138.7540   68.4130  224.6608 H       1  UNL1        0.0625
     48 H         138.8850   68.2634  227.0986 H       1  UNL1        0.0624
     49 H         139.6439   69.2355  229.2607 H       1  UNL1        0.0618
     50 H         140.8937   71.3701  229.2945 H       1  UNL1        0.0618
     51 H         141.4042   72.5732  227.1625 H       1  UNL1        0.0639
     52 H         138.1229   74.9308  218.9454 H       1  UNL1        0.0541
     53 H         137.5736   74.5134  220.5956 H       1  UNL1        0.0541
     54 H         139.2090   76.8740  219.8230 H       1  UNL1        0.1494
     55 H         137.6115   78.4832  223.0016 H       1  UNL1        0.0625
     56 H         138.6056   80.5716  223.8435 H       1  UNL1        0.0624
     57 H         140.5692   81.9992  224.2655 H       1  UNL1        0.0639
     58 H         143.0169   82.2869  224.0991 H       1  UNL1        0.0830
     59 H         143.4261   78.4732  222.2791 H       1  UNL1        0.0836
     60 H         141.5117   77.1579  221.9055 H       1  UNL1        0.0632
@<TRIPOS>BOND
     1     1     2    1
     2     2     3    1
     3     2     4    1
     4     4     5    1
     5     5     6    1
     6     6     7   am
     7     7     8    2
     8     7     9    1
     9     9    10   ar
    10    10    11   ar
    11    11    12   ar
    12    12    13   ar
    13    13    14   ar
    14    14    15   ar
    15    15    16   ar
    16    16    17   ar
    17    17    18   ar
    18     5    19    1
    19    19    20    2
    20    19    21    1
    21    21    22    1
    22    22    23   am
    23    23    24    2
    24    23    25    1
    25    25    26   ar
    26    26    27   ar
    27    27    28   ar
    28    28    29   ar
    29    29    30   ar
    30    30    31   ar
    31    31    32   ar
    32    32    33   ar
    33    33    34   ar
    34    18     9   ar
    35    34    25   ar
    36    17    12   ar
    37    33    28   ar
    38     1    35    1
    39     1    36    1
    40     1    37    1
    41     2    38    1
    42     3    39    1
    43     3    40    1
    44     3    41    1
    45     4    42    1
    46     4    43    1
    47     5    44    1
    48     6    45    1
    49    10    46    1
    50    11    47    1
    51    13    48    1
    52    14    49    1
    53    15    50    1
    54    16    51    1
    55    21    52    1
    56    21    53    1
    57    22    54    1
    58    26    55    1
    59    27    56    1
    60    29    57    1
    61    30    58    1
    62    32    59    1
    63    34    60    1
