
     RDKit          3D

 58 61  0  0  0  0  0  0  0  0999 V2000
  142.9680   79.9640  222.5360 C   0  0  0  0  0  0  0  0  0  0  0  0
  141.7520   79.1810  222.9980 C   0  0  2  0  0  0  0  0  0  0  0  0
  141.6120   78.0750  222.0670 N   0  0  0  0  0  0  0  0  0  0  0  0
  141.3170   78.2600  220.6860 C   0  0  0  0  0  0  0  0  0  0  0  0
  141.1560   79.3860  220.1680 O   0  0  0  0  0  0  0  0  0  0  0  0
  141.2040   77.0150  219.8510 C   0  0  1  0  0  0  0  0  0  0  0  0
  142.3400   77.0340  218.8660 C   0  0  0  0  0  0  0  0  0  0  0  0
  142.8950   75.6290  218.9610 C   0  0  0  0  0  0  0  0  0  0  0  0
  142.7130   75.3720  220.4620 C   0  0  0  0  0  0  0  0  0  0  0  0
  141.3590   75.8440  220.6810 N   0  0  0  0  0  0  0  0  0  0  0  0
  140.3380   75.3210  221.5200 C   0  0  0  0  0  0  0  0  0  0  0  0
  139.9380   75.9230  222.5470 O   0  0  0  0  0  0  0  0  0  0  0  0
  139.7550   74.0060  221.1180 C   0  0  0  0  0  0  0  0  0  0  0  0
  139.5520   73.1870  222.2900 N   0  0  0  0  0  0  0  0  0  0  0  0
  140.4920   72.1410  222.5490 C   0  0  0  0  0  0  0  0  0  0  0  0
  141.4750   71.9440  221.7690 O   0  0  0  0  0  0  0  0  0  0  0  0
  140.3050   71.2970  223.7350 C   0  0  0  0  0  0  0  0  0  0  0  0
  139.6080   70.1080  223.6030 C   0  0  0  0  0  0  0  0  0  0  0  0
  139.3900   69.2580  224.6740 C   0  0  0  0  0  0  0  0  0  0  0  0
  139.8800   69.6020  225.9150 C   0  0  0  0  0  0  0  0  0  0  0  0
  139.6900   68.7880  227.0190 C   0  0  0  0  0  0  0  0  0  0  0  0
  140.1870   69.1490  228.2470 C   0  0  0  0  0  0  0  0  0  0  0  0
  139.9780   68.3220  229.3010 F   0  0  0  0  0  0  0  0  0  0  0  0
  140.8730   70.3280  228.3570 C   0  0  0  0  0  0  0  0  0  0  0  0
  141.0700   71.1490  227.2600 C   0  0  0  0  0  0  0  0  0  0  0  0
  140.5790   70.8100  226.0070 C   0  0  0  0  0  0  0  0  0  0  0  0
  140.7680   71.6060  224.9410 N   0  0  0  0  0  0  0  0  0  0  0  0
  140.5440   80.0480  223.0460 C   0  0  0  0  0  0  0  0  0  0  0  0
  139.4510   79.7010  223.8480 C   0  0  0  0  0  0  0  0  0  0  0  0
  138.3330   80.5080  223.8890 C   0  0  0  0  0  0  0  0  0  0  0  0
  138.2400   81.6670  223.1600 C   0  0  0  0  0  0  0  0  0  0  0  0
  139.3160   82.0280  222.3570 C   0  0  0  0  0  0  0  0  0  0  0  0
  140.4430   81.2190  222.3130 C   0  0  0  0  0  0  0  0  0  0  0  0
  143.5270   80.3239  223.4123 H   0  0  0  0  0  0  0  0  0  0  0  0
  143.6152   79.3125  221.9305 H   0  0  0  0  0  0  0  0  0  0  0  0
  142.6428   80.8228  221.9305 H   0  0  0  0  0  0  0  0  0  0  0  0
  141.8727   78.8024  224.0237 H   0  0  0  0  0  0  0  0  0  0  0  0
  141.7390   77.1170  222.4590 H   0  0  0  0  0  0  0  0  0  0  0  0
  140.2232   76.9840  219.3540 H   0  0  0  0  0  0  0  0  0  0  0  0
  141.9786   77.2486  217.8495 H   0  0  0  0  0  0  0  0  0  0  0  0
  143.0879   77.8115  219.0811 H   0  0  0  0  0  0  0  0  0  0  0  0
  142.3159   74.9192  218.3521 H   0  0  0  0  0  0  0  0  0  0  0  0
  143.9247   75.5116  218.5922 H   0  0  0  0  0  0  0  0  0  0  0  0
  142.8077   74.3022  220.6997 H   0  0  0  0  0  0  0  0  0  0  0  0
  143.4653   75.8672  221.0935 H   0  0  0  0  0  0  0  0  0  0  0  0
  138.7905   74.1715  220.6156 H   0  0  0  0  0  0  0  0  0  0  0  0
  140.4456   73.4952  220.4308 H   0  0  0  0  0  0  0  0  0  0  0  0
  138.7670   73.3040  222.9610 H   0  0  0  0  0  0  0  0  0  0  0  0
  139.2143   69.8294  222.6144 H   0  0  0  0  0  0  0  0  0  0  0  0
  138.8326   68.3198  224.5359 H   0  0  0  0  0  0  0  0  0  0  0  0
  139.1360   67.8438  226.9112 H   0  0  0  0  0  0  0  0  0  0  0  0
  141.2754   70.6290  229.3355 H   0  0  0  0  0  0  0  0  0  0  0  0
  141.6271   72.0893  227.3840 H   0  0  0  0  0  0  0  0  0  0  0  0
  139.4835   78.7801  224.4487 H   0  0  0  0  0  0  0  0  0  0  0  0
  137.4875   80.2126  224.5276 H   0  0  0  0  0  0  0  0  0  0  0  0
  137.3376   82.2941  223.2097 H   0  0  0  0  0  0  0  0  0  0  0  0
  139.2744   82.9505  221.7593 H   0  0  0  0  0  0  0  0  0  0  0  0
  141.2861   81.5185  221.6731 H   0  0  0  0  0  0  0  0  0  0  0  0
  1  2  1  0
  2  3  1  0
  3  4  1  0
  4  5  2  0
  4  6  1  0
  6  7  1  0
  7  8  1  0
  8  9  1  0
  9 10  1  0
 10 11  1  0
 11 12  2  0
 11 13  1  0
 13 14  1  0
 14 15  1  0
 15 16  2  0
 15 17  1  0
 17 18  2  0
 18 19  1  0
 19 20  2  0
 20 21  1  0
 21 22  2  0
 22 23  1  0
 22 24  1  0
 24 25  2  0
 25 26  1  0
 26 27  2  0
  2 28  1  0
 28 29  2  0
 29 30  1  0
 30 31  2  0
 31 32  1  0
 32 33  2  0
 10  6  1  0
 27 17  1  0
 33 28  1  0
 26 20  1  0
  1 34  1  0
  1 35  1  0
  1 36  1  0
  2 37  1  1
  3 38  1  0
  6 39  1  6
  7 40  1  0
  7 41  1  0
  8 42  1  0
  8 43  1  0
  9 44  1  0
  9 45  1  0
 13 46  1  0
 13 47  1  0
 14 48  1  0
 18 49  1  0
 19 50  1  0
 21 51  1  0
 24 52  1  0
 25 53  1  0
 29 54  1  0
 30 55  1  0
 31 56  1  0
 32 57  1  0
 33 58  1  0
M  END
