
 65 70  0  0  1  0  0  0  0  0999 V2000
  146.3230   68.9980  217.7960 C   0  0  0  0  0  0  0  0  0  0  0  0
  145.5210   68.1360  218.5090 C   0  0  0  0  0  0  0  0  0  0  0  0
  144.4500   68.5980  219.2450 C   0  0  0  0  0  0  0  0  0  0  0  0
  144.1250   69.9480  219.3070 C   0  0  0  0  0  0  0  0  0  0  0  0
  144.9460   70.7960  218.5820 C   0  0  0  0  0  0  0  0  0  0  0  0
  146.0190   70.3550  217.8410 C   0  0  0  0  0  0  0  0  0  0  0  0
  144.5860   72.2550  218.6550 C   0  0  0  0  0  0  0  0  0  0  0  0
  144.2780   72.5170  220.1140 C   0  0  0  0  0  0  0  0  0  0  0  0
  143.0790   71.7870  220.4800 N   0  0  0  0  0  0  0  0  0  0  0  0
  142.0000   72.3800  221.1930 C   0  0  0  0  0  0  0  0  0  0  0  0
  141.2460   71.7390  222.0820 N   0  0  0  0  0  0  0  0  0  0  0  0
  140.2240   72.3640  222.7340 C   0  0  0  0  0  0  0  0  0  0  0  0
  139.4030   71.6210  223.7190 C   0  0  0  0  0  0  0  0  0  0  0  0
  140.2750   70.6860  224.5670 C   0  0  1  0  0  0  0  0  0  0  0  0
  141.0130   71.5140  225.5440 C   0  0  0  0  0  0  0  0  0  0  0  0
  140.5990   71.2710  226.9790 C   0  0  0  0  0  0  0  0  0  0  0  0
  140.7840   69.7570  227.1590 C   0  0  0  0  0  0  0  0  0  0  0  0
  139.7360   69.1390  226.4370 N   0  0  0  0  0  0  0  0  0  0  0  0
  139.4740   69.5680  225.1240 C   0  0  0  0  0  0  0  0  0  0  0  0
  139.9900   73.6620  222.4550 N   0  0  0  0  0  0  0  0  0  0  0  0
  140.7310   74.3370  221.5630 C   0  0  0  0  0  0  0  0  0  0  0  0
  140.5100   75.7050  221.2470 N   0  0  0  0  0  0  0  0  0  0  0  0
  140.9670   76.3030  220.0060 C   0  0  0  0  0  0  0  0  0  0  0  0
  141.9310   77.4390  220.2520 C   0  0  0  0  0  0  0  0  0  0  0  0
  141.5510   78.2340  221.4410 C   0  0  0  0  0  0  0  0  0  0  0  0
  142.2200   79.4200  221.6580 C   0  0  0  0  0  0  0  0  0  0  0  0
  141.9020   80.1950  222.7500 C   0  0  0  0  0  0  0  0  0  0  0  0
  140.9280   79.8320  223.6530 C   0  0  0  0  0  0  0  0  0  0  0  0
  140.2490   78.6370  223.4400 C   0  0  0  0  0  0  0  0  0  0  0  0
  140.5770   77.8600  222.3340 C   0  0  0  0  0  0  0  0  0  0  0  0
  139.8030   76.5830  222.1680 C   0  0  0  0  0  0  0  0  0  0  0  0
  141.7290   73.6880  220.9410 N   0  0  0  0  0  0  0  0  0  0  0  0
  142.9770   70.3900  220.1040 C   0  0  0  0  0  0  0  0  0  0  0  0
  147.1763   68.6262  217.2098 H   0  0  0  0  0  0  0  0  0  0  0  0
  145.7385   67.0579  218.4915 H   0  0  0  0  0  0  0  0  0  0  0  0
  143.8338   67.8755  219.8003 H   0  0  0  0  0  0  0  0  0  0  0  0
  146.6362   71.0756  217.2844 H   0  0  0  0  0  0  0  0  0  0  0  0
  145.4294   72.8773  218.3213 H   0  0  0  0  0  0  0  0  0  0  0  0
  143.7332   72.5004  218.0050 H   0  0  0  0  0  0  0  0  0  0  0  0
  145.1202   72.1789  220.7356 H   0  0  0  0  0  0  0  0  0  0  0  0
  144.1219   73.5940  220.2742 H   0  0  0  0  0  0  0  0  0  0  0  0
  138.8970   72.3395  224.3806 H   0  0  0  0  0  0  0  0  0  0  0  0
  138.6653   71.0139  223.1738 H   0  0  0  0  0  0  0  0  0  0  0  0
  141.0344   70.1669  223.9638 H   0  0  0  0  0  0  0  0  0  0  0  0
  142.0859   71.2906  225.4490 H   0  0  0  0  0  0  0  0  0  0  0  0
  140.7827   72.5650  225.3153 H   0  0  0  0  0  0  0  0  0  0  0  0
  141.2432   71.8303  227.6734 H   0  0  0  0  0  0  0  0  0  0  0  0
  139.5715   71.6032  227.1887 H   0  0  0  0  0  0  0  0  0  0  0  0
  141.7591   69.4424  226.7587 H   0  0  0  0  0  0  0  0  0  0  0  0
  140.7569   69.4751  228.2219 H   0  0  0  0  0  0  0  0  0  0  0  0
  138.9110   68.8580  227.0010 H   0  0  0  0  0  0  0  0  0  0  0  0
  139.6249   68.7011  224.4639 H   0  0  0  0  0  0  0  0  0  0  0  0
  138.4514   69.9704  225.1733 H   0  0  0  0  0  0  0  0  0  0  0  0
  141.4709   75.5325  219.4040 H   0  0  0  0  0  0  0  0  0  0  0  0
  140.0905   76.7069  219.4782 H   0  0  0  0  0  0  0  0  0  0  0  0
  142.9378   77.0243  220.4078 H   0  0  0  0  0  0  0  0  0  0  0  0
  141.9084   78.1028  219.3751 H   0  0  0  0  0  0  0  0  0  0  0  0
  143.0056   79.7458  220.9604 H   0  0  0  0  0  0  0  0  0  0  0  0
  142.4455   81.1384  222.9070 H   0  0  0  0  0  0  0  0  0  0  0  0
  140.6935   80.4692  224.5185 H   0  0  0  0  0  0  0  0  0  0  0  0
  139.4630   78.3107  224.1370 H   0  0  0  0  0  0  0  0  0  0  0  0
  139.7016   76.0859  223.1440 H   0  0  0  0  0  0  0  0  0  0  0  0
  138.8040   76.8085  221.7666 H   0  0  0  0  0  0  0  0  0  0  0  0
  142.9236   69.7798  221.0177 H   0  0  0  0  0  0  0  0  0  0  0  0
  142.0722   70.2697  219.4901 H   0  0  0  0  0  0  0  0  0  0  0  0
  1  2  2  0
  2  3  1  0
  3  4  2  0
  4  5  1  0
  5  6  2  0
  5  7  1  0
  7  8  1  0
  8  9  1  0
  9 10  1  0
 10 11  2  0
 11 12  1  0
 12 13  1  0
 13 14  1  0
 14 15  1  0
 15 16  1  0
 16 17  1  0
 17 18  1  0
 18 19  1  0
 12 20  2  0
 20 21  1  0
 21 22  1  0
 22 23  1  0
 23 24  1  0
 24 25  1  0
 25 26  2  0
 26 27  1  0
 27 28  2  0
 28 29  1  0
 29 30  2  0
 30 31  1  0
 21 32  2  0
  9 33  1  0
  6  1  1  0
 32 10  1  0
 33  4  1  0
 19 14  1  0
 31 22  1  0
 30 25  1  0
  1 34  1  0
  2 35  1  0
  3 36  1  0
  6 37  1  0
  7 38  1  0
  7 39  1  0
  8 40  1  0
  8 41  1  0
 13 42  1  0
 13 43  1  0
 14 44  1  6
 15 45  1  0
 15 46  1  0
 16 47  1  0
 16 48  1  0
 17 49  1  0
 17 50  1  0
 18 51  1  0
 19 52  1  0
 19 53  1  0
 23 54  1  0
 23 55  1  0
 24 56  1  0
 24 57  1  0
 26 58  1  0
 27 59  1  0
 28 60  1  0
 29 61  1  0
 31 62  1  0
 31 63  1  0
 33 64  1  0
 33 65  1  0
M  END
