
     RDKit          3D

 68 73  0  0  1  0  0  0  0  0999 V2000
  140.3900   71.8390  228.2900 C   0  0  0  0  0  0  0  0  0  0  0  0
  140.8040   71.1440  227.0270 C   0  0  0  0  0  0  0  0  0  0  0  0
  139.8550   70.1470  226.5990 N   0  0  0  0  0  0  0  0  0  0  0  0
  139.5950   70.2570  225.1890 C   0  0  2  0  0  0  0  0  0  0  0  0
  140.3770   71.3700  224.5350 C   0  0  0  0  0  0  0  0  0  0  0  0
  139.7960   71.7630  223.2620 N   0  0  0  0  0  0  0  0  0  0  0  0
  140.5990   72.4540  222.3010 C   0  0  0  0  0  0  0  0  0  0  0  0
  141.3580   71.7590  221.4220 N   0  0  0  0  0  0  0  0  0  0  0  0
  142.1240   72.3590  220.5060 C   0  0  0  0  0  0  0  0  0  0  0  0
  142.9040   71.5820  219.6060 N   0  0  0  0  0  0  0  0  0  0  0  0
  143.9640   72.2050  218.8280 C   0  0  0  0  0  0  0  0  0  0  0  0
  145.2610   71.6460  219.3790 C   0  0  0  0  0  0  0  0  0  0  0  0
  145.1620   70.1650  219.2560 C   0  0  0  0  0  0  0  0  0  0  0  0
  146.3370   69.4380  219.0950 C   0  0  0  0  0  0  0  0  0  0  0  0
  146.3140   68.0450  218.9750 C   0  0  0  0  0  0  0  0  0  0  0  0
  145.1000   67.3680  219.0160 C   0  0  0  0  0  0  0  0  0  0  0  0
  143.9430   68.1060  219.1770 C   0  0  0  0  0  0  0  0  0  0  0  0
  143.9590   69.4880  219.2960 C   0  0  0  0  0  0  0  0  0  0  0  0
  142.6480   70.1690  219.4640 C   0  0  0  0  0  0  0  0  0  0  0  0
  142.1240   73.6990  220.4770 N   0  0  0  0  0  0  0  0  0  0  0  0
  141.3680   74.4050  221.3540 C   0  0  0  0  0  0  0  0  0  0  0  0
  141.4160   75.8370  221.2730 N   0  0  0  0  0  0  0  0  0  0  0  0
  142.0630   76.4320  220.1250 C   0  0  0  0  0  0  0  0  0  0  0  0
  141.3590   77.7330  219.8110 C   0  0  0  0  0  0  0  0  0  0  0  0
  141.4530   78.5780  221.0300 C   0  0  0  0  0  0  0  0  0  0  0  0
  141.8010   79.9200  220.9770 C   0  0  0  0  0  0  0  0  0  0  0  0
  141.8780   80.6820  222.1400 C   0  0  0  0  0  0  0  0  0  0  0  0
  141.6000   80.0610  223.3330 C   0  0  0  0  0  0  0  0  0  0  0  0
  141.2490   78.7310  223.4410 C   0  0  0  0  0  0  0  0  0  0  0  0
  141.1850   78.0140  222.2560 C   0  0  0  0  0  0  0  0  0  0  0  0
  140.8140   76.5940  222.3450 C   0  0  0  0  0  0  0  0  0  0  0  0
  140.6070   73.7760  222.2640 N   0  0  0  0  0  0  0  0  0  0  0  0
  138.4000   71.4680  222.9350 C   0  0  0  0  0  0  0  0  0  0  0  0
  138.0500   70.1560  223.6050 C   0  0  0  0  0  0  0  0  0  0  0  0
  138.2320   70.3740  224.9900 O   0  0  0  0  0  0  0  0  0  0  0  0
  140.7357   71.2586  229.1581 H   0  0  0  0  0  0  0  0  0  0  0  0
  140.8369   72.8437  228.3191 H   0  0  0  0  0  0  0  0  0  0  0  0
  139.2937   71.9244  228.3191 H   0  0  0  0  0  0  0  0  0  0  0  0
  140.9071   71.8955  226.2303 H   0  0  0  0  0  0  0  0  0  0  0  0
  141.7549   70.6295  227.2295 H   0  0  0  0  0  0  0  0  0  0  0  0
  139.0290   70.0730  227.2030 H   0  0  0  0  0  0  0  0  0  0  0  0
  139.9478   69.3406  224.6933 H   0  0  0  0  0  0  0  0  0  0  0  0
  140.3855   72.2412  225.2065 H   0  0  0  0  0  0  0  0  0  0  0  0
  141.3976   71.0055  224.3467 H   0  0  0  0  0  0  0  0  0  0  0  0
  143.8584   71.9503  217.7631 H   0  0  0  0  0  0  0  0  0  0  0  0
  143.9309   73.3020  218.9026 H   0  0  0  0  0  0  0  0  0  0  0  0
  146.1155   72.0206  218.7962 H   0  0  0  0  0  0  0  0  0  0  0  0
  145.4166   71.9514  220.4242 H   0  0  0  0  0  0  0  0  0  0  0  0
  147.3004   69.9678  219.0615 H   0  0  0  0  0  0  0  0  0  0  0  0
  147.2532   67.4865  218.8486 H   0  0  0  0  0  0  0  0  0  0  0  0
  145.0618   66.2726  218.9226 H   0  0  0  0  0  0  0  0  0  0  0  0
  142.9774   67.5803  219.2120 H   0  0  0  0  0  0  0  0  0  0  0  0
  142.0164   69.9893  218.5815 H   0  0  0  0  0  0  0  0  0  0  0  0
  142.1225   69.7813  220.3492 H   0  0  0  0  0  0  0  0  0  0  0  0
  143.1215   76.6263  220.3527 H   0  0  0  0  0  0  0  0  0  0  0  0
  142.0094   75.7518  219.2622 H   0  0  0  0  0  0  0  0  0  0  0  0
  141.8502   78.2344  218.9640 H   0  0  0  0  0  0  0  0  0  0  0  0
  140.3093   77.5565  219.5335 H   0  0  0  0  0  0  0  0  0  0  0  0
  142.0185   80.3874  220.0053 H   0  0  0  0  0  0  0  0  0  0  0  0
  142.1525   81.7466  222.1043 H   0  0  0  0  0  0  0  0  0  0  0  0
  141.6606   80.6579  224.2549 H   0  0  0  0  0  0  0  0  0  0  0  0
  141.0319   78.2652  224.4136 H   0  0  0  0  0  0  0  0  0  0  0  0
  141.1591   76.1911  223.3086 H   0  0  0  0  0  0  0  0  0  0  0  0
  139.7202   76.5103  222.2638 H   0  0  0  0  0  0  0  0  0  0  0  0
  137.7474   72.2693  223.3118 H   0  0  0  0  0  0  0  0  0  0  0  0
  138.2604   71.3994  221.8460 H   0  0  0  0  0  0  0  0  0  0  0  0
  137.0054   69.8838  223.3935 H   0  0  0  0  0  0  0  0  0  0  0  0
  138.6787   69.3316  223.2374 H   0  0  0  0  0  0  0  0  0  0  0  0
  1  2  1  0
  2  3  1  0
  3  4  1  0
  4  5  1  0
  5  6  1  0
  6  7  1  0
  7  8  2  0
  8  9  1  0
  9 10  1  0
 10 11  1  0
 11 12  1  0
 12 13  1  0
 13 14  2  0
 14 15  1  0
 15 16  2  0
 16 17  1  0
 17 18  2  0
 18 19  1  0
  9 20  2  0
 20 21  1  0
 21 22  1  0
 22 23  1  0
 23 24  1  0
 24 25  1  0
 25 26  2  0
 26 27  1  0
 27 28  2  0
 28 29  1  0
 29 30  2  0
 30 31  1  0
 21 32  2  0
  6 33  1  0
 33 34  1  0
 34 35  1  0
 35  4  1  0
 32  7  1  0
 19 10  1  0
 31 22  1  0
 18 13  1  0
 30 25  1  0
  1 36  1  0
  1 37  1  0
  1 38  1  0
  2 39  1  0
  2 40  1  0
  3 41  1  0
  4 42  1  6
  5 43  1  0
  5 44  1  0
 11 45  1  0
 11 46  1  0
 12 47  1  0
 12 48  1  0
 14 49  1  0
 15 50  1  0
 16 51  1  0
 17 52  1  0
 19 53  1  0
 19 54  1  0
 23 55  1  0
 23 56  1  0
 24 57  1  0
 24 58  1  0
 26 59  1  0
 27 60  1  0
 28 61  1  0
 29 62  1  0
 31 63  1  0
 31 64  1  0
 33 65  1  0
 33 66  1  0
 34 67  1  0
 34 68  1  0
M  END
>  <smiles>  (1) 
CCNC1CN(c2nc(N3CCc4ccccc4C3)nc(N3CCc4ccccc4C3)n2)CCO1

>  <score_type>  (1) 
oracle

>  <origin>  (1) 
autodockgpu

>  <m_score__min__energy>  (1) 
-9.6099999999999994

>  <m_primary>  (1) 
energy

>  <rmsd>  (1) 
8.245941583089468

>  <m_score__min__rmsd>  (1) 
8.245941583089468

>  <meeko>  (1) 
{"free_energy": -9.21, "intermolecular_energy": -10.7, "internal_energy": -1.04, "cluster_size": 7, "cluster_id": 2, "rank_in_cluster": 5}

>  <energy>  (1) 
-9.61

>  <cluster_rmsd>  (1) 
0.0

>  <cluster>  (1) 
1

$$$$

     RDKit          3D

 68 73  0  0  1  0  0  0  0  0999 V2000
  145.1390   74.7980  216.0090 C   0  0  0  0  0  0  0  0  0  0  0  0
  146.0950   73.6600  216.2050 C   0  0  0  0  0  0  0  0  0  0  0  0
  146.3250   73.3550  217.5950 N   0  0  0  0  0  0  0  0  0  0  0  0
  145.1980   72.6680  218.1630 C   0  0  2  0  0  0  0  0  0  0  0  0
  144.4960   73.4740  219.2290 C   0  0  0  0  0  0  0  0  0  0  0  0
  143.6750   72.6380  220.0870 N   0  0  0  0  0  0  0  0  0  0  0  0
  142.6130   73.2270  220.8440 C   0  0  0  0  0  0  0  0  0  0  0  0
  141.8040   72.4500  221.6010 N   0  0  0  0  0  0  0  0  0  0  0  0
  140.7990   72.9530  222.3240 C   0  0  0  0  0  0  0  0  0  0  0  0
  139.9770   72.0920  223.1010 N   0  0  0  0  0  0  0  0  0  0  0  0
  138.8020   71.4690  222.5110 C   0  0  0  0  0  0  0  0  0  0  0  0
  139.1200   69.9890  222.4310 C   0  0  0  0  0  0  0  0  0  0  0  0
  139.4450   69.5560  223.8180 C   0  0  0  0  0  0  0  0  0  0  0  0
  139.1850   68.2360  224.1740 C   0  0  0  0  0  0  0  0  0  0  0  0
  139.4680   67.7660  225.4600 C   0  0  0  0  0  0  0  0  0  0  0  0
  140.0190   68.6250  226.4040 C   0  0  0  0  0  0  0  0  0  0  0  0
  140.2710   69.9320  226.0330 C   0  0  0  0  0  0  0  0  0  0  0  0
  139.9920   70.4050  224.7600 C   0  0  0  0  0  0  0  0  0  0  0  0
  140.3070   71.8310  224.4810 C   0  0  0  0  0  0  0  0  0  0  0  0
  140.6060   74.2780  222.2810 N   0  0  0  0  0  0  0  0  0  0  0  0
  141.4100   75.0670  221.5260 C   0  0  0  0  0  0  0  0  0  0  0  0
  141.1470   76.4770  221.5210 N   0  0  0  0  0  0  0  0  0  0  0  0
  140.9940   77.1350  220.2430 C   0  0  0  0  0  0  0  0  0  0  0  0
  140.0050   78.2670  220.4130 C   0  0  0  0  0  0  0  0  0  0  0  0
  140.5540   79.1630  221.4630 C   0  0  0  0  0  0  0  0  0  0  0  0
  140.5740   80.5430  221.3240 C   0  0  0  0  0  0  0  0  0  0  0  0
  141.0960   81.3540  222.3290 C   0  0  0  0  0  0  0  0  0  0  0  0
  141.5870   80.7410  223.4560 C   0  0  0  0  0  0  0  0  0  0  0  0
  141.5910   79.3750  223.6450 C   0  0  0  0  0  0  0  0  0  0  0  0
  141.0610   78.6100  222.6170 C   0  0  0  0  0  0  0  0  0  0  0  0
  141.0540   77.1510  222.7940 C   0  0  0  0  0  0  0  0  0  0  0  0
  142.4130   74.5330  220.8080 N   0  0  0  0  0  0  0  0  0  0  0  0
  143.9080   71.1970  220.2000 C   0  0  0  0  0  0  0  0  0  0  0  0
  144.4080   70.7170  218.8540 C   0  0  0  0  0  0  0  0  0  0  0  0
  145.6070   71.4280  218.6170 O   0  0  0  0  0  0  0  0  0  0  0  0
  144.8180   75.1802  216.9893 H   0  0  0  0  0  0  0  0  0  0  0  0
  145.6365   75.6021  215.4470 H   0  0  0  0  0  0  0  0  0  0  0  0
  144.2611   74.4467  215.4470 H   0  0  0  0  0  0  0  0  0  0  0  0
  145.6831   72.7666  215.7129 H   0  0  0  0  0  0  0  0  0  0  0  0
  147.0592   73.9593  215.7683 H   0  0  0  0  0  0  0  0  0  0  0  0
  146.6900   74.1440  218.1390 H   0  0  0  0  0  0  0  0  0  0  0  0
  144.4416   72.5265  217.3769 H   0  0  0  0  0  0  0  0  0  0  0  0
  145.2516   73.9827  219.8457 H   0  0  0  0  0  0  0  0  0  0  0  0
  143.8378   74.2001  218.7295 H   0  0  0  0  0  0  0  0  0  0  0  0
  137.9190   71.6380  223.1449 H   0  0  0  0  0  0  0  0  0  0  0  0
  138.5732   71.8895  221.5207 H   0  0  0  0  0  0  0  0  0  0  0  0
  138.2501   69.4324  222.0522 H   0  0  0  0  0  0  0  0  0  0  0  0
  139.9583   69.7966  221.7452 H   0  0  0  0  0  0  0  0  0  0  0  0
  138.7497   67.5512  223.4314 H   0  0  0  0  0  0  0  0  0  0  0  0
  139.2553   66.7196  225.7241 H   0  0  0  0  0  0  0  0  0  0  0  0
  140.2486   68.2731  227.4206 H   0  0  0  0  0  0  0  0  0  0  0  0
  140.7074   70.6199  226.7721 H   0  0  0  0  0  0  0  0  0  0  0  0
  139.7112   72.4816  225.1381 H   0  0  0  0  0  0  0  0  0  0  0  0
  141.3721   72.0335  224.6670 H   0  0  0  0  0  0  0  0  0  0  0  0
  141.9637   77.5338  219.9104 H   0  0  0  0  0  0  0  0  0  0  0  0
  140.6312   76.4219  219.4881 H   0  0  0  0  0  0  0  0  0  0  0  0
  139.8926   78.8168  219.4669 H   0  0  0  0  0  0  0  0  0  0  0  0
  139.0137   77.8853  220.6988 H   0  0  0  0  0  0  0  0  0  0  0  0
  140.1727   81.0026  220.4088 H   0  0  0  0  0  0  0  0  0  0  0  0
  141.1144   82.4488  222.2237 H   0  0  0  0  0  0  0  0  0  0  0  0
  142.0006   81.3760  224.2533 H   0  0  0  0  0  0  0  0  0  0  0  0
  141.9926   78.9173  224.5611 H   0  0  0  0  0  0  0  0  0  0  0  0
  141.9111   76.8600  223.4190 H   0  0  0  0  0  0  0  0  0  0  0  0
  140.1096   76.8603  223.2773 H   0  0  0  0  0  0  0  0  0  0  0  0
  144.6622   70.9969  220.9753 H   0  0  0  0  0  0  0  0  0  0  0  0
  142.9829   70.6730  220.4822 H   0  0  0  0  0  0  0  0  0  0  0  0
  144.6025   69.6347  218.8805 H   0  0  0  0  0  0  0  0  0  0  0  0
  143.6678   70.8919  218.0594 H   0  0  0  0  0  0  0  0  0  0  0  0
  1  2  1  0
  2  3  1  0
  3  4  1  0
  4  5  1  0
  5  6  1  0
  6  7  1  0
  7  8  2  0
  8  9  1  0
  9 10  1  0
 10 11  1  0
 11 12  1  0
 12 13  1  0
 13 14  2  0
 14 15  1  0
 15 16  2  0
 16 17  1  0
 17 18  2  0
 18 19  1  0
  9 20  2  0
 20 21  1  0
 21 22  1  0
 22 23  1  0
 23 24  1  0
 24 25  1  0
 25 26  2  0
 26 27  1  0
 27 28  2  0
 28 29  1  0
 29 30  2  0
 30 31  1  0
 21 32  2  0
  6 33  1  0
 33 34  1  0
 34 35  1  0
 35  4  1  0
 32  7  1  0
 19 10  1  0
 31 22  1  0
 18 13  1  0
 30 25  1  0
  1 36  1  0
  1 37  1  0
  1 38  1  0
  2 39  1  0
  2 40  1  0
  3 41  1  0
  4 42  1  6
  5 43  1  0
  5 44  1  0
 11 45  1  0
 11 46  1  0
 12 47  1  0
 12 48  1  0
 14 49  1  0
 15 50  1  0
 16 51  1  0
 17 52  1  0
 19 53  1  0
 19 54  1  0
 23 55  1  0
 23 56  1  0
 24 57  1  0
 24 58  1  0
 26 59  1  0
 27 60  1  0
 28 61  1  0
 29 62  1  0
 31 63  1  0
 31 64  1  0
 33 65  1  0
 33 66  1  0
 34 67  1  0
 34 68  1  0
M  END
>  <smiles>  (2) 
CCNC1CN(c2nc(N3CCc4ccccc4C3)nc(N3CCc4ccccc4C3)n2)CCO1

>  <score_type>  (2) 
oracle

>  <origin>  (2) 
autodockgpu

>  <m_score__min__energy>  (2) 
-9.6099999999999994

>  <m_primary>  (2) 
energy

>  <rmsd>  (2) 
7.5047417197830715

>  <m_score__min__rmsd>  (2) 
7.5047417197830715

>  <meeko>  (2) 
{"free_energy": -9.52, "intermolecular_energy": -11.01, "internal_energy": -1.03, "cluster_size": 40, "cluster_id": 1, "rank_in_cluster": 7}

>  <energy>  (2) 
-9.55

>  <cluster_rmsd>  (2) 
0.07

>  <cluster>  (2) 
1

$$$$

     RDKit          3D

 68 73  0  0  1  0  0  0  0  0999 V2000
  145.9930   66.9150  218.9340 C   0  0  0  0  0  0  0  0  0  0  0  0
  145.3280   68.0780  219.6070 C   0  0  0  0  0  0  0  0  0  0  0  0
  145.9560   69.3390  219.2970 N   0  0  0  0  0  0  0  0  0  0  0  0
  144.9740   70.3310  218.9530 C   0  0  2  0  0  0  0  0  0  0  0  0
  144.0910   70.7100  220.1170 C   0  0  0  0  0  0  0  0  0  0  0  0
  142.8590   71.3420  219.6780 N   0  0  0  0  0  0  0  0  0  0  0  0
  142.1170   72.1560  220.5900 C   0  0  0  0  0  0  0  0  0  0  0  0
  141.3940   71.5840  221.5810 N   0  0  0  0  0  0  0  0  0  0  0  0
  140.6840   72.3020  222.4560 C   0  0  0  0  0  0  0  0  0  0  0  0
  139.9400   71.6520  223.4780 N   0  0  0  0  0  0  0  0  0  0  0  0
  138.7210   70.9290  223.1500 C   0  0  0  0  0  0  0  0  0  0  0  0
  139.0380   69.4650  223.3780 C   0  0  0  0  0  0  0  0  0  0  0  0
  139.4880   69.3500  224.7930 C   0  0  0  0  0  0  0  0  0  0  0  0
  139.2680   68.1490  225.4600 C   0  0  0  0  0  0  0  0  0  0  0  0
  139.6680   67.9770  226.7880 C   0  0  0  0  0  0  0  0  0  0  0  0
  140.2980   69.0180  227.4610 C   0  0  0  0  0  0  0  0  0  0  0  0
  140.5080   70.2040  226.7840 C   0  0  0  0  0  0  0  0  0  0  0  0
  140.1140   70.3820  225.4660 C   0  0  0  0  0  0  0  0  0  0  0  0
  140.3950   71.7040  224.8460 C   0  0  0  0  0  0  0  0  0  0  0  0
  140.7060   73.6360  222.3270 N   0  0  0  0  0  0  0  0  0  0  0  0
  141.4270   74.2200  221.3380 C   0  0  0  0  0  0  0  0  0  0  0  0
  141.4040   75.6520  221.2530 N   0  0  0  0  0  0  0  0  0  0  0  0
  142.0160   76.2740  220.1010 C   0  0  0  0  0  0  0  0  0  0  0  0
  141.2480   77.5390  219.7870 C   0  0  0  0  0  0  0  0  0  0  0  0
  141.3070   78.3910  221.0040 C   0  0  0  0  0  0  0  0  0  0  0  0
  141.5890   79.7480  220.9460 C   0  0  0  0  0  0  0  0  0  0  0  0
  141.6350   80.5160  222.1060 C   0  0  0  0  0  0  0  0  0  0  0  0
  141.3930   79.8860  223.3020 C   0  0  0  0  0  0  0  0  0  0  0  0
  141.1090   78.5410  223.4150 C   0  0  0  0  0  0  0  0  0  0  0  0
  141.0730   77.8180  222.2330 C   0  0  0  0  0  0  0  0  0  0  0  0
  140.7720   76.3820  222.3270 C   0  0  0  0  0  0  0  0  0  0  0  0
  142.1310   73.4730  220.4710 N   0  0  0  0  0  0  0  0  0  0  0  0
  142.3530   71.1650  218.3150 C   0  0  0  0  0  0  0  0  0  0  0  0
  143.5550   71.0330  217.4040 C   0  0  0  0  0  0  0  0  0  0  0  0
  144.2540   69.8910  217.8580 O   0  0  0  0  0  0  0  0  0  0  0  0
  146.3867   66.2264  219.6961 H   0  0  0  0  0  0  0  0  0  0  0  0
  145.2604   66.3868  218.3060 H   0  0  0  0  0  0  0  0  0  0  0  0
  146.8198   67.2785  218.3060 H   0  0  0  0  0  0  0  0  0  0  0  0
  144.2782   68.1190  219.2811 H   0  0  0  0  0  0  0  0  0  0  0  0
  145.4133   67.9244  220.6929 H   0  0  0  0  0  0  0  0  0  0  0  0
  146.7550   69.2590  218.6600 H   0  0  0  0  0  0  0  0  0  0  0  0
  145.4940   71.2624  218.6844 H   0  0  0  0  0  0  0  0  0  0  0  0
  143.8420   69.8016  220.6852 H   0  0  0  0  0  0  0  0  0  0  0  0
  144.6401   71.4299  220.7416 H   0  0  0  0  0  0  0  0  0  0  0  0
  137.8972   71.2494  223.8047 H   0  0  0  0  0  0  0  0  0  0  0  0
  138.4029   71.1188  222.1142 H   0  0  0  0  0  0  0  0  0  0  0  0
  138.1406   68.8508  223.2127 H   0  0  0  0  0  0  0  0  0  0  0  0
  139.8127   69.1107  222.6821 H   0  0  0  0  0  0  0  0  0  0  0  0
  138.7709   67.3210  224.9333 H   0  0  0  0  0  0  0  0  0  0  0  0
  139.4849   67.0205  227.2995 H   0  0  0  0  0  0  0  0  0  0  0  0
  140.6210   68.9003  228.5059 H   0  0  0  0  0  0  0  0  0  0  0  0
  141.0040   71.0346  227.3075 H   0  0  0  0  0  0  0  0  0  0  0  0
  139.8575   72.4948  225.3899 H   0  0  0  0  0  0  0  0  0  0  0  0
  141.4713   71.9275  224.8860 H   0  0  0  0  0  0  0  0  0  0  0  0
  143.0649   76.5199  220.3232 H   0  0  0  0  0  0  0  0  0  0  0  0
  141.9917   75.5896  219.2402 H   0  0  0  0  0  0  0  0  0  0  0  0
  141.7102   78.0613  218.9364 H   0  0  0  0  0  0  0  0  0  0  0  0
  140.2068   77.3112  219.5149 H   0  0  0  0  0  0  0  0  0  0  0  0
  141.7785   80.2227  219.9719 H   0  0  0  0  0  0  0  0  0  0  0  0
  141.8579   81.5924  222.0660 H   0  0  0  0  0  0  0  0  0  0  0  0
  141.4276   80.4881  224.2219 H   0  0  0  0  0  0  0  0  0  0  0  0
  140.9213   78.0679  224.3901 H   0  0  0  0  0  0  0  0  0  0  0  0
  141.1417   75.9987  223.2895 H   0  0  0  0  0  0  0  0  0  0  0  0
  139.6831   76.2453  222.2520 H   0  0  0  0  0  0  0  0  0  0  0  0
  141.7351   70.2567  218.2575 H   0  0  0  0  0  0  0  0  0  0  0  0
  141.7291   72.0203  218.0163 H   0  0  0  0  0  0  0  0  0  0  0  0
  143.2329   70.8964  216.3611 H   0  0  0  0  0  0  0  0  0  0  0  0
  144.1863   71.9334  217.4309 H   0  0  0  0  0  0  0  0  0  0  0  0
  1  2  1  0
  2  3  1  0
  3  4  1  0
  4  5  1  0
  5  6  1  0
  6  7  1  0
  7  8  2  0
  8  9  1  0
  9 10  1  0
 10 11  1  0
 11 12  1  0
 12 13  1  0
 13 14  2  0
 14 15  1  0
 15 16  2  0
 16 17  1  0
 17 18  2  0
 18 19  1  0
  9 20  2  0
 20 21  1  0
 21 22  1  0
 22 23  1  0
 23 24  1  0
 24 25  1  0
 25 26  2  0
 26 27  1  0
 27 28  2  0
 28 29  1  0
 29 30  2  0
 30 31  1  0
 21 32  2  0
  6 33  1  0
 33 34  1  0
 34 35  1  0
 35  4  1  0
 32  7  1  0
 19 10  1  0
 31 22  1  0
 18 13  1  0
 30 25  1  0
  1 36  1  0
  1 37  1  0
  1 38  1  0
  2 39  1  0
  2 40  1  0
  3 41  1  0
  4 42  1  6
  5 43  1  0
  5 44  1  0
 11 45  1  0
 11 46  1  0
 12 47  1  0
 12 48  1  0
 14 49  1  0
 15 50  1  0
 16 51  1  0
 17 52  1  0
 19 53  1  0
 19 54  1  0
 23 55  1  0
 23 56  1  0
 24 57  1  0
 24 58  1  0
 26 59  1  0
 27 60  1  0
 28 61  1  0
 29 62  1  0
 31 63  1  0
 31 64  1  0
 33 65  1  0
 33 66  1  0
 34 67  1  0
 34 68  1  0
M  END
>  <smiles>  (3) 
CCNC1CN(c2nc(N3CCc4ccccc4C3)nc(N3CCc4ccccc4C3)n2)CCO1

>  <score_type>  (3) 
oracle

>  <origin>  (3) 
autodockgpu

>  <m_score__min__energy>  (3) 
-9.6099999999999994

>  <m_primary>  (3) 
energy

>  <rmsd>  (3) 
9.66937752409569

>  <m_score__min__rmsd>  (3) 
9.66937752409569

>  <meeko>  (3) 
{"free_energy": -9.54, "intermolecular_energy": -11.03, "internal_energy": -1.03, "cluster_size": 40, "cluster_id": 1, "rank_in_cluster": 3}

>  <energy>  (3) 
-9.54

>  <cluster_rmsd>  (3) 
1.71

>  <cluster>  (3) 
1

$$$$

     RDKit          3D

 68 73  0  0  1  0  0  0  0  0999 V2000
  145.9150   66.6660  218.9270 C   0  0  0  0  0  0  0  0  0  0  0  0
  145.0380   67.8530  219.1910 C   0  0  0  0  0  0  0  0  0  0  0  0
  145.7810   69.0830  219.3140 N   0  0  0  0  0  0  0  0  0  0  0  0
  144.9560   70.2150  218.9920 C   0  0  2  0  0  0  0  0  0  0  0  0
  143.9940   70.5740  220.0980 C   0  0  0  0  0  0  0  0  0  0  0  0
  142.8940   71.3910  219.6150 N   0  0  0  0  0  0  0  0  0  0  0  0
  142.1460   72.1890  220.5380 C   0  0  0  0  0  0  0  0  0  0  0  0
  141.4230   71.5990  221.5180 N   0  0  0  0  0  0  0  0  0  0  0  0
  140.7090   72.3020  222.4030 C   0  0  0  0  0  0  0  0  0  0  0  0
  139.9650   71.6340  223.4130 N   0  0  0  0  0  0  0  0  0  0  0  0
  138.7350   70.9340  223.0760 C   0  0  0  0  0  0  0  0  0  0  0  0
  139.0370   69.4600  223.2640 C   0  0  0  0  0  0  0  0  0  0  0  0
  139.4970   69.3050  224.6720 C   0  0  0  0  0  0  0  0  0  0  0  0
  139.2680   68.0890  225.3090 C   0  0  0  0  0  0  0  0  0  0  0  0
  139.6760   67.8780  226.6290 C   0  0  0  0  0  0  0  0  0  0  0  0
  140.3220   68.8950  227.3240 C   0  0  0  0  0  0  0  0  0  0  0  0
  140.5420   70.0950  226.6760 C   0  0  0  0  0  0  0  0  0  0  0  0
  140.1390   70.3110  225.3670 C   0  0  0  0  0  0  0  0  0  0  0  0
  140.4310   71.6450  224.7790 C   0  0  0  0  0  0  0  0  0  0  0  0
  140.7260   73.6380  222.2930 N   0  0  0  0  0  0  0  0  0  0  0  0
  141.4470   74.2390  221.3150 C   0  0  0  0  0  0  0  0  0  0  0  0
  141.4190   75.6720  221.2510 N   0  0  0  0  0  0  0  0  0  0  0  0
  142.0130   76.3130  220.0990 C   0  0  0  0  0  0  0  0  0  0  0  0
  141.2370   77.5790  219.8130 C   0  0  0  0  0  0  0  0  0  0  0  0
  141.3100   78.4140  221.0410 C   0  0  0  0  0  0  0  0  0  0  0  0
  141.5870   79.7720  220.9990 C   0  0  0  0  0  0  0  0  0  0  0  0
  141.6470   80.5240  222.1690 C   0  0  0  0  0  0  0  0  0  0  0  0
  141.4230   79.8760  223.3590 C   0  0  0  0  0  0  0  0  0  0  0  0
  141.1440   78.5290  223.4570 C   0  0  0  0  0  0  0  0  0  0  0  0
  141.0950   77.8230  222.2650 C   0  0  0  0  0  0  0  0  0  0  0  0
  140.8000   76.3850  222.3430 C   0  0  0  0  0  0  0  0  0  0  0  0
  142.1550   73.5070  220.4390 N   0  0  0  0  0  0  0  0  0  0  0  0
  142.5270   71.4180  218.1980 C   0  0  0  0  0  0  0  0  0  0  0  0
  143.8020   71.2380  217.4020 C   0  0  0  0  0  0  0  0  0  0  0  0
  144.3190   69.9800  217.7880 O   0  0  0  0  0  0  0  0  0  0  0  0
  146.2380   66.2288  219.8833 H   0  0  0  0  0  0  0  0  0  0  0  0
  145.3529   65.9154  218.3520 H   0  0  0  0  0  0  0  0  0  0  0  0
  146.7976   66.9829  218.3520 H   0  0  0  0  0  0  0  0  0  0  0  0
  144.3255   67.9550  218.3592 H   0  0  0  0  0  0  0  0  0  0  0  0
  144.5263   67.6790  220.1491 H   0  0  0  0  0  0  0  0  0  0  0  0
  146.7020   69.0570  218.8660 H   0  0  0  0  0  0  0  0  0  0  0  0
  145.6007   71.1000  218.8864 H   0  0  0  0  0  0  0  0  0  0  0  0
  143.5864   69.6478  220.5294 H   0  0  0  0  0  0  0  0  0  0  0  0
  144.5440   71.1546  220.8532 H   0  0  0  0  0  0  0  0  0  0  0  0
  137.9200   71.2469  223.7452 H   0  0  0  0  0  0  0  0  0  0  0  0
  138.4112   71.1542  222.0481 H   0  0  0  0  0  0  0  0  0  0  0  0
  138.1313   68.8603  223.0908 H   0  0  0  0  0  0  0  0  0  0  0  0
  139.8015   69.1142  222.5528 H   0  0  0  0  0  0  0  0  0  0  0  0
  138.7576   67.2808  224.7647 H   0  0  0  0  0  0  0  0  0  0  0  0
  139.4868   66.9104  227.1168 H   0  0  0  0  0  0  0  0  0  0  0  0
  140.6495   68.7474  228.3637 H   0  0  0  0  0  0  0  0  0  0  0  0
  141.0535   70.9054  227.2160 H   0  0  0  0  0  0  0  0  0  0  0  0
  139.9071   72.4277  225.3473 H   0  0  0  0  0  0  0  0  0  0  0  0
  141.5102   71.8546  224.8162 H   0  0  0  0  0  0  0  0  0  0  0  0
  143.0640   76.5597  220.3103 H   0  0  0  0  0  0  0  0  0  0  0  0
  141.9788   75.6406  219.2291 H   0  0  0  0  0  0  0  0  0  0  0  0
  141.6859   78.1146  218.9636 H   0  0  0  0  0  0  0  0  0  0  0  0
  140.1930   77.3516  219.5517 H   0  0  0  0  0  0  0  0  0  0  0  0
  141.7615   80.2611  220.0293 H   0  0  0  0  0  0  0  0  0  0  0  0
  141.8665   81.6015  222.1413 H   0  0  0  0  0  0  0  0  0  0  0  0
  141.4687   80.4650  224.2869 H   0  0  0  0  0  0  0  0  0  0  0  0
  140.9699   78.0416  224.4276 H   0  0  0  0  0  0  0  0  0  0  0  0
  141.1842   75.9897  223.2949 H   0  0  0  0  0  0  0  0  0  0  0  0
  139.7106   76.2459  222.2808 H   0  0  0  0  0  0  0  0  0  0  0  0
  141.8249   70.6011  217.9749 H   0  0  0  0  0  0  0  0  0  0  0  0
  142.0362   72.3679  217.9397 H   0  0  0  0  0  0  0  0  0  0  0  0
  143.5858   71.2494  216.3235 H   0  0  0  0  0  0  0  0  0  0  0  0
  144.5196   72.0489  217.5956 H   0  0  0  0  0  0  0  0  0  0  0  0
  1  2  1  0
  2  3  1  0
  3  4  1  0
  4  5  1  0
  5  6  1  0
  6  7  1  0
  7  8  2  0
  8  9  1  0
  9 10  1  0
 10 11  1  0
 11 12  1  0
 12 13  1  0
 13 14  2  0
 14 15  1  0
 15 16  2  0
 16 17  1  0
 17 18  2  0
 18 19  1  0
  9 20  2  0
 20 21  1  0
 21 22  1  0
 22 23  1  0
 23 24  1  0
 24 25  1  0
 25 26  2  0
 26 27  1  0
 27 28  2  0
 28 29  1  0
 29 30  2  0
 30 31  1  0
 21 32  2  0
  6 33  1  0
 33 34  1  0
 34 35  1  0
 35  4  1  0
 32  7  1  0
 19 10  1  0
 31 22  1  0
 18 13  1  0
 30 25  1  0
  1 36  1  0
  1 37  1  0
  1 38  1  0
  2 39  1  0
  2 40  1  0
  3 41  1  0
  4 42  1  6
  5 43  1  0
  5 44  1  0
 11 45  1  0
 11 46  1  0
 12 47  1  0
 12 48  1  0
 14 49  1  0
 15 50  1  0
 16 51  1  0
 17 52  1  0
 19 53  1  0
 19 54  1  0
 23 55  1  0
 23 56  1  0
 24 57  1  0
 24 58  1  0
 26 59  1  0
 27 60  1  0
 28 61  1  0
 29 62  1  0
 31 63  1  0
 31 64  1  0
 33 65  1  0
 33 66  1  0
 34 67  1  0
 34 68  1  0
M  END
>  <smiles>  (4) 
CCNC1CN(c2nc(N3CCc4ccccc4C3)nc(N3CCc4ccccc4C3)n2)CCO1

>  <score_type>  (4) 
oracle

>  <origin>  (4) 
autodockgpu

>  <m_score__min__energy>  (4) 
-9.6099999999999994

>  <m_primary>  (4) 
energy

>  <rmsd>  (4) 
9.797111078605672

>  <m_score__min__rmsd>  (4) 
9.797111078605672

>  <meeko>  (4) 
{"free_energy": -9.51, "intermolecular_energy": -11.01, "internal_energy": -1.02, "cluster_size": 40, "cluster_id": 1, "rank_in_cluster": 9}

>  <energy>  (4) 
-9.54

>  <cluster_rmsd>  (4) 
0.25

>  <cluster>  (4) 
1

$$$$

     RDKit          3D

 68 73  0  0  1  0  0  0  0  0999 V2000
  145.9310   66.8880  218.8010 C   0  0  0  0  0  0  0  0  0  0  0  0
  145.6410   68.0770  219.6670 C   0  0  0  0  0  0  0  0  0  0  0  0
  145.9490   69.3300  219.0220 N   0  0  0  0  0  0  0  0  0  0  0  0
  144.7490   70.0710  218.7420 C   0  0  2  0  0  0  0  0  0  0  0  0
  144.0650   70.5720  219.9900 C   0  0  0  0  0  0  0  0  0  0  0  0
  142.6740   70.9100  219.7460 N   0  0  0  0  0  0  0  0  0  0  0  0
  141.9920   71.7940  220.6400 C   0  0  0  0  0  0  0  0  0  0  0  0
  141.2800   71.2970  221.6780 N   0  0  0  0  0  0  0  0  0  0  0  0
  140.6260   72.0830  222.5400 C   0  0  0  0  0  0  0  0  0  0  0  0
  139.8910   71.5100  223.6130 N   0  0  0  0  0  0  0  0  0  0  0  0
  138.6520   70.7930  223.3530 C   0  0  0  0  0  0  0  0  0  0  0  0
  138.9470   69.3380  223.6650 C   0  0  0  0  0  0  0  0  0  0  0  0
  139.4240   69.3020  225.0750 C   0  0  0  0  0  0  0  0  0  0  0  0
  139.1960   68.1480  225.8180 C   0  0  0  0  0  0  0  0  0  0  0  0
  139.6190   68.0490  227.1460 C   0  0  0  0  0  0  0  0  0  0  0  0
  140.2800   69.1170  227.7430 C   0  0  0  0  0  0  0  0  0  0  0  0
  140.4990   70.2550  226.9900 C   0  0  0  0  0  0  0  0  0  0  0  0
  140.0810   70.3600  225.6720 C   0  0  0  0  0  0  0  0  0  0  0  0
  140.3740   71.6360  224.9670 C   0  0  0  0  0  0  0  0  0  0  0  0
  140.6940   73.4070  222.3470 N   0  0  0  0  0  0  0  0  0  0  0  0
  141.4040   73.9160  221.3100 C   0  0  0  0  0  0  0  0  0  0  0  0
  141.4330   75.3420  221.1580 N   0  0  0  0  0  0  0  0  0  0  0  0
  142.1660   75.8920  220.0390 C   0  0  0  0  0  0  0  0  0  0  0  0
  141.4680   77.1590  219.5980 C   0  0  0  0  0  0  0  0  0  0  0  0
  141.4420   78.0670  220.7750 C   0  0  0  0  0  0  0  0  0  0  0  0
  141.7690   79.4120  220.6810 C   0  0  0  0  0  0  0  0  0  0  0  0
  141.7330   80.2340  221.8040 C   0  0  0  0  0  0  0  0  0  0  0  0
  141.3650   79.6690  223.0000 C   0  0  0  0  0  0  0  0  0  0  0  0
  141.0300   78.3400  223.1480 C   0  0  0  0  0  0  0  0  0  0  0  0
  141.0810   77.5610  222.0020 C   0  0  0  0  0  0  0  0  0  0  0  0
  140.7290   76.1400  222.1340 C   0  0  0  0  0  0  0  0  0  0  0  0
  142.0520   73.1030  220.4590 N   0  0  0  0  0  0  0  0  0  0  0  0
  141.9440   70.3650  218.5990 C   0  0  0  0  0  0  0  0  0  0  0  0
  142.9410   70.2030  217.4700 C   0  0  0  0  0  0  0  0  0  0  0  0
  143.9180   69.3010  217.9500 O   0  0  0  0  0  0  0  0  0  0  0  0
  146.1439   66.0152  219.4358 H   0  0  0  0  0  0  0  0  0  0  0  0
  145.0584   66.6754  218.1659 H   0  0  0  0  0  0  0  0  0  0  0  0
  146.8035   67.1010  218.1659 H   0  0  0  0  0  0  0  0  0  0  0  0
  144.5722   68.0695  219.9270 H   0  0  0  0  0  0  0  0  0  0  0  0
  146.2799   67.9992  220.5590 H   0  0  0  0  0  0  0  0  0  0  0  0
  146.6150   69.2440  218.2470 H   0  0  0  0  0  0  0  0  0  0  0  0
  145.0198   70.9826  218.1892 H   0  0  0  0  0  0  0  0  0  0  0  0
  144.1107   69.7877  220.7599 H   0  0  0  0  0  0  0  0  0  0  0  0
  144.5844   71.4833  220.3213 H   0  0  0  0  0  0  0  0  0  0  0  0
  137.8476   71.1691  224.0023 H   0  0  0  0  0  0  0  0  0  0  0  0
  138.3163   70.9256  222.3139 H   0  0  0  0  0  0  0  0  0  0  0  0
  138.0352   68.7325  223.5557 H   0  0  0  0  0  0  0  0  0  0  0  0
  139.7002   68.9261  222.9772 H   0  0  0  0  0  0  0  0  0  0  0  0
  138.6739   67.2993  225.3521 H   0  0  0  0  0  0  0  0  0  0  0  0
  139.4296   67.1286  227.7178 H   0  0  0  0  0  0  0  0  0  0  0  0
  140.6197   69.0575  228.7875 H   0  0  0  0  0  0  0  0  0  0  0  0
  141.0221   71.1055  227.4514 H   0  0  0  0  0  0  0  0  0  0  0  0
  139.8621   72.4688  225.4714 H   0  0  0  0  0  0  0  0  0  0  0  0
  141.4549   71.8402  224.9731 H   0  0  0  0  0  0  0  0  0  0  0  0
  143.1972   76.1216  220.3453 H   0  0  0  0  0  0  0  0  0  0  0  0
  142.1995   75.1675  219.2120 H   0  0  0  0  0  0  0  0  0  0  0  0
  142.0208   77.6275  218.7704 H   0  0  0  0  0  0  0  0  0  0  0  0
  140.4494   76.9451  219.2420 H   0  0  0  0  0  0  0  0  0  0  0  0
  142.0601   79.8339  219.7077 H   0  0  0  0  0  0  0  0  0  0  0  0
  141.9909   81.3011  221.7354 H   0  0  0  0  0  0  0  0  0  0  0  0
  141.3358   80.3135  223.8909 H   0  0  0  0  0  0  0  0  0  0  0  0
  140.7382   77.9204  224.1220 H   0  0  0  0  0  0  0  0  0  0  0  0
  140.9979   75.7946  223.1432 H   0  0  0  0  0  0  0  0  0  0  0  0
  139.6478   76.0286  221.9652 H   0  0  0  0  0  0  0  0  0  0  0  0
  141.5073   69.3895  218.8591 H   0  0  0  0  0  0  0  0  0  0  0  0
  141.1242   71.0361  218.3030 H   0  0  0  0  0  0  0  0  0  0  0  0
  142.4462   69.7933  216.5771 H   0  0  0  0  0  0  0  0  0  0  0  0
  143.3853   71.1663  217.1789 H   0  0  0  0  0  0  0  0  0  0  0  0
  1  2  1  0
  2  3  1  0
  3  4  1  0
  4  5  1  0
  5  6  1  0
  6  7  1  0
  7  8  2  0
  8  9  1  0
  9 10  1  0
 10 11  1  0
 11 12  1  0
 12 13  1  0
 13 14  2  0
 14 15  1  0
 15 16  2  0
 16 17  1  0
 17 18  2  0
 18 19  1  0
  9 20  2  0
 20 21  1  0
 21 22  1  0
 22 23  1  0
 23 24  1  0
 24 25  1  0
 25 26  2  0
 26 27  1  0
 27 28  2  0
 28 29  1  0
 29 30  2  0
 30 31  1  0
 21 32  2  0
  6 33  1  0
 33 34  1  0
 34 35  1  0
 35  4  1  0
 32  7  1  0
 19 10  1  0
 31 22  1  0
 18 13  1  0
 30 25  1  0
  1 36  1  0
  1 37  1  0
  1 38  1  0
  2 39  1  0
  2 40  1  0
  3 41  1  0
  4 42  1  6
  5 43  1  0
  5 44  1  0
 11 45  1  0
 11 46  1  0
 12 47  1  0
 12 48  1  0
 14 49  1  0
 15 50  1  0
 16 51  1  0
 17 52  1  0
 19 53  1  0
 19 54  1  0
 23 55  1  0
 23 56  1  0
 24 57  1  0
 24 58  1  0
 26 59  1  0
 27 60  1  0
 28 61  1  0
 29 62  1  0
 31 63  1  0
 31 64  1  0
 33 65  1  0
 33 66  1  0
 34 67  1  0
 34 68  1  0
M  END
>  <smiles>  (5) 
CCNC1CN(c2nc(N3CCc4ccccc4C3)nc(N3CCc4ccccc4C3)n2)CCO1

>  <score_type>  (5) 
oracle

>  <origin>  (5) 
autodockgpu

>  <m_score__min__energy>  (5) 
-9.6099999999999994

>  <m_primary>  (5) 
energy

>  <rmsd>  (5) 
9.802641161367093

>  <m_score__min__rmsd>  (5) 
9.802641161367093

>  <meeko>  (5) 
{"free_energy": -9.35, "intermolecular_energy": -10.84, "internal_energy": -1.04, "cluster_size": 40, "cluster_id": 1, "rank_in_cluster": 18}

>  <energy>  (5) 
-9.54

>  <cluster_rmsd>  (5) 
1.73

>  <cluster>  (5) 
1

$$$$

     RDKit          3D

 68 73  0  0  1  0  0  0  0  0999 V2000
  145.7180   66.6970  218.9790 C   0  0  0  0  0  0  0  0  0  0  0  0
  145.1240   67.9090  219.6310 C   0  0  0  0  0  0  0  0  0  0  0  0
  145.8390   69.1220  219.3190 N   0  0  0  0  0  0  0  0  0  0  0  0
  144.9290   70.1820  218.9810 C   0  0  2  0  0  0  0  0  0  0  0  0
  144.0250   70.5660  220.1260 C   0  0  0  0  0  0  0  0  0  0  0  0
  142.8490   71.2850  219.6690 N   0  0  0  0  0  0  0  0  0  0  0  0
  142.1180   72.1050  220.5870 C   0  0  0  0  0  0  0  0  0  0  0  0
  141.3960   71.5370  221.5810 N   0  0  0  0  0  0  0  0  0  0  0  0
  140.6980   72.2600  222.4620 C   0  0  0  0  0  0  0  0  0  0  0  0
  139.9550   71.6140  223.4870 N   0  0  0  0  0  0  0  0  0  0  0  0
  138.7350   70.8900  223.1630 C   0  0  0  0  0  0  0  0  0  0  0  0
  139.0530   69.4260  223.3990 C   0  0  0  0  0  0  0  0  0  0  0  0
  139.5040   69.3190  224.8140 C   0  0  0  0  0  0  0  0  0  0  0  0
  139.2850   68.1210  225.4860 C   0  0  0  0  0  0  0  0  0  0  0  0
  139.6860   67.9560  226.8150 C   0  0  0  0  0  0  0  0  0  0  0  0
  140.3150   69.0010  227.4830 C   0  0  0  0  0  0  0  0  0  0  0  0
  140.5250   70.1830  226.8000 C   0  0  0  0  0  0  0  0  0  0  0  0
  140.1290   70.3550  225.4820 C   0  0  0  0  0  0  0  0  0  0  0  0
  140.4100   71.6730  224.8550 C   0  0  0  0  0  0  0  0  0  0  0  0
  140.7300   73.5940  222.3350 N   0  0  0  0  0  0  0  0  0  0  0  0
  141.4500   74.1730  221.3420 C   0  0  0  0  0  0  0  0  0  0  0  0
  141.4390   75.6050  221.2600 N   0  0  0  0  0  0  0  0  0  0  0  0
  142.0530   76.2250  220.1060 C   0  0  0  0  0  0  0  0  0  0  0  0
  141.2950   77.4960  219.7960 C   0  0  0  0  0  0  0  0  0  0  0  0
  141.3630   78.3450  221.0140 C   0  0  0  0  0  0  0  0  0  0  0  0
  141.6560   79.7000  220.9570 C   0  0  0  0  0  0  0  0  0  0  0  0
  141.7110   80.4660  222.1180 C   0  0  0  0  0  0  0  0  0  0  0  0
  141.4670   79.8360  223.3140 C   0  0  0  0  0  0  0  0  0  0  0  0
  141.1710   78.4940  223.4260 C   0  0  0  0  0  0  0  0  0  0  0  0
  141.1280   77.7730  222.2430 C   0  0  0  0  0  0  0  0  0  0  0  0
  140.8150   76.3390  222.3360 C   0  0  0  0  0  0  0  0  0  0  0  0
  142.1420   73.4220  220.4700 N   0  0  0  0  0  0  0  0  0  0  0  0
  142.3870   71.1940  218.2830 C   0  0  0  0  0  0  0  0  0  0  0  0
  143.6150   71.0270  217.4120 C   0  0  0  0  0  0  0  0  0  0  0  0
  144.2280   69.8300  217.8430 O   0  0  0  0  0  0  0  0  0  0  0  0
  146.0618   65.9955  219.7534 H   0  0  0  0  0  0  0  0  0  0  0  0
  144.9576   66.2078  218.3526 H   0  0  0  0  0  0  0  0  0  0  0  0
  146.5705   66.9983  218.3526 H   0  0  0  0  0  0  0  0  0  0  0  0
  144.0840   68.0170  219.2894 H   0  0  0  0  0  0  0  0  0  0  0  0
  145.1844   67.7611  220.7193 H   0  0  0  0  0  0  0  0  0  0  0  0
  146.6270   68.9850  218.6770 H   0  0  0  0  0  0  0  0  0  0  0  0
  145.5121   71.0907  218.7706 H   0  0  0  0  0  0  0  0  0  0  0  0
  143.7031   69.6523  220.6470 H   0  0  0  0  0  0  0  0  0  0  0  0
  144.5895   71.2280  220.7992 H   0  0  0  0  0  0  0  0  0  0  0  0
  137.9115   71.2140  223.8164 H   0  0  0  0  0  0  0  0  0  0  0  0
  138.4158   71.0747  222.1266 H   0  0  0  0  0  0  0  0  0  0  0  0
  138.1557   68.8106  223.2377 H   0  0  0  0  0  0  0  0  0  0  0  0
  139.8273   69.0681  222.7045 H   0  0  0  0  0  0  0  0  0  0  0  0
  138.7884   67.2902  224.9634 H   0  0  0  0  0  0  0  0  0  0  0  0
  139.5044   67.0018  227.3312 H   0  0  0  0  0  0  0  0  0  0  0  0
  140.6371   68.8891  228.5288 H   0  0  0  0  0  0  0  0  0  0  0  0
  141.0228   71.0156  227.3186 H   0  0  0  0  0  0  0  0  0  0  0  0
  139.8727   72.4668  225.3946 H   0  0  0  0  0  0  0  0  0  0  0  0
  141.4864   71.8963  224.8937 H   0  0  0  0  0  0  0  0  0  0  0  0
  143.1044   76.4622  220.3256 H   0  0  0  0  0  0  0  0  0  0  0  0
  142.0202   75.5422  219.2442 H   0  0  0  0  0  0  0  0  0  0  0  0
  141.7598   78.0162  218.9455 H   0  0  0  0  0  0  0  0  0  0  0  0
  140.2515   77.2770  219.5255 H   0  0  0  0  0  0  0  0  0  0  0  0
  141.8470   80.1744  219.9831 H   0  0  0  0  0  0  0  0  0  0  0  0
  141.9423   81.5407  222.0790 H   0  0  0  0  0  0  0  0  0  0  0  0
  141.5102   80.4363  224.2348 H   0  0  0  0  0  0  0  0  0  0  0  0
  140.9795   78.0215  224.4007 H   0  0  0  0  0  0  0  0  0  0  0  0
  141.1832   75.9515  223.2974 H   0  0  0  0  0  0  0  0  0  0  0  0
  139.7249   76.2115  222.2628 H   0  0  0  0  0  0  0  0  0  0  0  0
  141.7199   70.3275  218.1642 H   0  0  0  0  0  0  0  0  0  0  0  0
  141.8258   72.0962  217.9982 H   0  0  0  0  0  0  0  0  0  0  0  0
  143.3270   70.9509  216.3531 H   0  0  0  0  0  0  0  0  0  0  0  0
  144.2956   71.8867  217.4999 H   0  0  0  0  0  0  0  0  0  0  0  0
  1  2  1  0
  2  3  1  0
  3  4  1  0
  4  5  1  0
  5  6  1  0
  6  7  1  0
  7  8  2  0
  8  9  1  0
  9 10  1  0
 10 11  1  0
 11 12  1  0
 12 13  1  0
 13 14  2  0
 14 15  1  0
 15 16  2  0
 16 17  1  0
 17 18  2  0
 18 19  1  0
  9 20  2  0
 20 21  1  0
 21 22  1  0
 22 23  1  0
 23 24  1  0
 24 25  1  0
 25 26  2  0
 26 27  1  0
 27 28  2  0
 28 29  1  0
 29 30  2  0
 30 31  1  0
 21 32  2  0
  6 33  1  0
 33 34  1  0
 34 35  1  0
 35  4  1  0
 32  7  1  0
 19 10  1  0
 31 22  1  0
 18 13  1  0
 30 25  1  0
  1 36  1  0
  1 37  1  0
  1 38  1  0
  2 39  1  0
  2 40  1  0
  3 41  1  0
  4 42  1  6
  5 43  1  0
  5 44  1  0
 11 45  1  0
 11 46  1  0
 12 47  1  0
 12 48  1  0
 14 49  1  0
 15 50  1  0
 16 51  1  0
 17 52  1  0
 19 53  1  0
 19 54  1  0
 23 55  1  0
 23 56  1  0
 24 57  1  0
 24 58  1  0
 26 59  1  0
 27 60  1  0
 28 61  1  0
 29 62  1  0
 31 63  1  0
 31 64  1  0
 33 65  1  0
 33 66  1  0
 34 67  1  0
 34 68  1  0
M  END
>  <smiles>  (6) 
CCNC1CN(c2nc(N3CCc4ccccc4C3)nc(N3CCc4ccccc4C3)n2)CCO1

>  <score_type>  (6) 
oracle

>  <origin>  (6) 
autodockgpu

>  <m_score__min__energy>  (6) 
-9.6099999999999994

>  <m_primary>  (6) 
energy

>  <rmsd>  (6) 
9.755172367584443

>  <m_score__min__rmsd>  (6) 
9.755172367584443

>  <meeko>  (6) 
{"free_energy": -9.52, "intermolecular_energy": -11.01, "internal_energy": -1.03, "cluster_size": 40, "cluster_id": 1, "rank_in_cluster": 6}

>  <energy>  (6) 
-9.52

>  <cluster_rmsd>  (6) 
1.77

>  <cluster>  (6) 
1

$$$$

     RDKit          3D

 68 73  0  0  1  0  0  0  0  0999 V2000
  140.7340   71.8680  227.9610 C   0  0  0  0  0  0  0  0  0  0  0  0
  141.0180   70.8500  226.8980 C   0  0  0  0  0  0  0  0  0  0  0  0
  139.8500   70.0920  226.5210 N   0  0  0  0  0  0  0  0  0  0  0  0
  139.5860   70.2220  225.1140 C   0  0  2  0  0  0  0  0  0  0  0  0
  140.3830   71.3290  224.4680 C   0  0  0  0  0  0  0  0  0  0  0  0
  139.8030   71.7450  223.2020 N   0  0  0  0  0  0  0  0  0  0  0  0
  140.6130   72.4330  222.2450 C   0  0  0  0  0  0  0  0  0  0  0  0
  141.3780   71.7360  221.3720 N   0  0  0  0  0  0  0  0  0  0  0  0
  142.1500   72.3340  220.4600 C   0  0  0  0  0  0  0  0  0  0  0  0
  142.9360   71.5550  219.5680 N   0  0  0  0  0  0  0  0  0  0  0  0
  144.0280   72.1670  218.8260 C   0  0  0  0  0  0  0  0  0  0  0  0
  145.2980   71.5720  219.4000 C   0  0  0  0  0  0  0  0  0  0  0  0
  145.1720   70.0950  219.2500 C   0  0  0  0  0  0  0  0  0  0  0  0
  146.3350   69.3460  219.1070 C   0  0  0  0  0  0  0  0  0  0  0  0
  146.2860   67.9560  218.9640 C   0  0  0  0  0  0  0  0  0  0  0  0
  145.0570   67.3050  218.9640 C   0  0  0  0  0  0  0  0  0  0  0  0
  143.9130   68.0640  219.1080 C   0  0  0  0  0  0  0  0  0  0  0  0
  143.9540   69.4440  219.2500 C   0  0  0  0  0  0  0  0  0  0  0  0
  142.6540   70.1500  219.3960 C   0  0  0  0  0  0  0  0  0  0  0  0
  142.1500   73.6740  220.4290 N   0  0  0  0  0  0  0  0  0  0  0  0
  141.3880   74.3820  221.2980 C   0  0  0  0  0  0  0  0  0  0  0  0
  141.4370   75.8140  221.2140 N   0  0  0  0  0  0  0  0  0  0  0  0
  142.0890   76.4060  220.0680 C   0  0  0  0  0  0  0  0  0  0  0  0
  141.3870   77.7070  219.7470 C   0  0  0  0  0  0  0  0  0  0  0  0
  141.4760   78.5540  220.9650 C   0  0  0  0  0  0  0  0  0  0  0  0
  141.8240   79.8960  220.9110 C   0  0  0  0  0  0  0  0  0  0  0  0
  141.8970   80.6610  222.0720 C   0  0  0  0  0  0  0  0  0  0  0  0
  141.6130   80.0420  223.2660 C   0  0  0  0  0  0  0  0  0  0  0  0
  141.2620   78.7130  223.3750 C   0  0  0  0  0  0  0  0  0  0  0  0
  141.2030   77.9930  222.1920 C   0  0  0  0  0  0  0  0  0  0  0  0
  140.8310   76.5740  222.2820 C   0  0  0  0  0  0  0  0  0  0  0  0
  140.6210   73.7550  222.2050 N   0  0  0  0  0  0  0  0  0  0  0  0
  138.4010   71.4750  222.8780 C   0  0  0  0  0  0  0  0  0  0  0  0
  138.0340   70.1610  223.5360 C   0  0  0  0  0  0  0  0  0  0  0  0
  138.2250   70.3620  224.9220 O   0  0  0  0  0  0  0  0  0  0  0  0
  140.8622   71.4086  228.9522 H   0  0  0  0  0  0  0  0  0  0  0  0
  141.4308   72.7126  227.8554 H   0  0  0  0  0  0  0  0  0  0  0  0
  139.7006   72.2299  227.8554 H   0  0  0  0  0  0  0  0  0  0  0  0
  141.4017   71.3697  226.0077 H   0  0  0  0  0  0  0  0  0  0  0  0
  141.7536   70.1418  227.3070 H   0  0  0  0  0  0  0  0  0  0  0  0
  139.0470   70.2310  227.1430 H   0  0  0  0  0  0  0  0  0  0  0  0
  139.9225   69.3057  224.6070 H   0  0  0  0  0  0  0  0  0  0  0  0
  140.4087   72.1928  225.1486 H   0  0  0  0  0  0  0  0  0  0  0  0
  141.3966   70.9498  224.2710 H   0  0  0  0  0  0  0  0  0  0  0  0
  143.9437   71.9307  217.7550 H   0  0  0  0  0  0  0  0  0  0  0  0
  144.0162   73.2632  218.9166 H   0  0  0  0  0  0  0  0  0  0  0  0
  146.1747   71.9379  218.8454 H   0  0  0  0  0  0  0  0  0  0  0  0
  145.4326   71.8571  220.4538 H   0  0  0  0  0  0  0  0  0  0  0  0
  147.3098   69.8557  219.1064 H   0  0  0  0  0  0  0  0  0  0  0  0
  147.2161   67.3795  218.8519 H   0  0  0  0  0  0  0  0  0  0  0  0
  144.9980   66.2123  218.8520 H   0  0  0  0  0  0  0  0  0  0  0  0
  142.9362   67.5581  219.1103 H   0  0  0  0  0  0  0  0  0  0  0  0
  142.0417   69.9981  218.4949 H   0  0  0  0  0  0  0  0  0  0  0  0
  142.0979   69.7594  220.2610 H   0  0  0  0  0  0  0  0  0  0  0  0
  143.1465   76.6005  220.3001 H   0  0  0  0  0  0  0  0  0  0  0  0
  142.0388   75.7236  219.2067 H   0  0  0  0  0  0  0  0  0  0  0  0
  141.8826   78.2063  218.9014 H   0  0  0  0  0  0  0  0  0  0  0  0
  140.3387   77.5308  219.4641 H   0  0  0  0  0  0  0  0  0  0  0  0
  142.0449   80.3613  219.9390 H   0  0  0  0  0  0  0  0  0  0  0  0
  142.1727   81.7252  222.0350 H   0  0  0  0  0  0  0  0  0  0  0  0
  141.6689   80.6409  224.1870 H   0  0  0  0  0  0  0  0  0  0  0  0
  141.0408   78.2494  224.3477 H   0  0  0  0  0  0  0  0  0  0  0  0
  141.1718   76.1728  223.2479 H   0  0  0  0  0  0  0  0  0  0  0  0
  139.7375   76.4911  222.1960 H   0  0  0  0  0  0  0  0  0  0  0  0
  137.7624   72.2821  223.2662 H   0  0  0  0  0  0  0  0  0  0  0  0
  138.2555   71.4203  221.7890 H   0  0  0  0  0  0  0  0  0  0  0  0
  136.9846   69.9067  223.3262 H   0  0  0  0  0  0  0  0  0  0  0  0
  138.6486   69.3311  223.1571 H   0  0  0  0  0  0  0  0  0  0  0  0
  1  2  1  0
  2  3  1  0
  3  4  1  0
  4  5  1  0
  5  6  1  0
  6  7  1  0
  7  8  2  0
  8  9  1  0
  9 10  1  0
 10 11  1  0
 11 12  1  0
 12 13  1  0
 13 14  2  0
 14 15  1  0
 15 16  2  0
 16 17  1  0
 17 18  2  0
 18 19  1  0
  9 20  2  0
 20 21  1  0
 21 22  1  0
 22 23  1  0
 23 24  1  0
 24 25  1  0
 25 26  2  0
 26 27  1  0
 27 28  2  0
 28 29  1  0
 29 30  2  0
 30 31  1  0
 21 32  2  0
  6 33  1  0
 33 34  1  0
 34 35  1  0
 35  4  1  0
 32  7  1  0
 19 10  1  0
 31 22  1  0
 18 13  1  0
 30 25  1  0
  1 36  1  0
  1 37  1  0
  1 38  1  0
  2 39  1  0
  2 40  1  0
  3 41  1  0
  4 42  1  6
  5 43  1  0
  5 44  1  0
 11 45  1  0
 11 46  1  0
 12 47  1  0
 12 48  1  0
 14 49  1  0
 15 50  1  0
 16 51  1  0
 17 52  1  0
 19 53  1  0
 19 54  1  0
 23 55  1  0
 23 56  1  0
 24 57  1  0
 24 58  1  0
 26 59  1  0
 27 60  1  0
 28 61  1  0
 29 62  1  0
 31 63  1  0
 31 64  1  0
 33 65  1  0
 33 66  1  0
 34 67  1  0
 34 68  1  0
M  END
>  <smiles>  (7) 
CCNC1CN(c2nc(N3CCc4ccccc4C3)nc(N3CCc4ccccc4C3)n2)CCO1

>  <score_type>  (7) 
oracle

>  <origin>  (7) 
autodockgpu

>  <m_score__min__energy>  (7) 
-9.6099999999999994

>  <m_primary>  (7) 
energy

>  <rmsd>  (7) 
8.157405773028442

>  <m_score__min__rmsd>  (7) 
8.157405773028442

>  <meeko>  (7) 
{"free_energy": -9.22, "intermolecular_energy": -10.71, "internal_energy": -1.05, "cluster_size": 7, "cluster_id": 2, "rank_in_cluster": 4}

>  <energy>  (7) 
-9.52

>  <cluster_rmsd>  (7) 
0.25

>  <cluster>  (7) 
1

$$$$

     RDKit          3D

 68 73  0  0  1  0  0  0  0  0999 V2000
  140.7300   71.7970  227.9640 C   0  0  0  0  0  0  0  0  0  0  0  0
  141.0360   70.7380  226.9470 C   0  0  0  0  0  0  0  0  0  0  0  0
  139.8760   69.9700  226.5690 N   0  0  0  0  0  0  0  0  0  0  0  0
  139.5710   70.1510  225.1760 C   0  0  2  0  0  0  0  0  0  0  0  0
  140.3930   71.2420  224.5330 C   0  0  0  0  0  0  0  0  0  0  0  0
  139.7900   71.7170  223.3000 N   0  0  0  0  0  0  0  0  0  0  0  0
  140.5970   72.3980  222.3340 C   0  0  0  0  0  0  0  0  0  0  0  0
  141.3520   71.6930  221.4590 N   0  0  0  0  0  0  0  0  0  0  0  0
  142.1220   72.2830  220.5400 C   0  0  0  0  0  0  0  0  0  0  0  0
  142.8970   71.4970  219.6450 N   0  0  0  0  0  0  0  0  0  0  0  0
  143.9590   72.1100  218.8610 C   0  0  0  0  0  0  0  0  0  0  0  0
  145.2540   71.5490  219.4150 C   0  0  0  0  0  0  0  0  0  0  0  0
  145.1500   70.0680  219.3030 C   0  0  0  0  0  0  0  0  0  0  0  0
  146.3220   69.3350  219.1460 C   0  0  0  0  0  0  0  0  0  0  0  0
  146.2920   67.9420  219.0360 C   0  0  0  0  0  0  0  0  0  0  0  0
  145.0760   67.2700  219.0840 C   0  0  0  0  0  0  0  0  0  0  0  0
  143.9220   68.0130  219.2410 C   0  0  0  0  0  0  0  0  0  0  0  0
  143.9430   69.3960  219.3500 C   0  0  0  0  0  0  0  0  0  0  0  0
  142.6360   70.0840  219.5140 C   0  0  0  0  0  0  0  0  0  0  0  0
  142.1280   73.6230  220.5030 N   0  0  0  0  0  0  0  0  0  0  0  0
  141.3750   74.3390  221.3740 C   0  0  0  0  0  0  0  0  0  0  0  0
  141.4310   75.7700  221.2840 N   0  0  0  0  0  0  0  0  0  0  0  0
  142.0930   76.3540  220.1390 C   0  0  0  0  0  0  0  0  0  0  0  0
  141.3990   77.6560  219.8090 C   0  0  0  0  0  0  0  0  0  0  0  0
  141.4830   78.5090  221.0230 C   0  0  0  0  0  0  0  0  0  0  0  0
  141.8380   79.8480  220.9650 C   0  0  0  0  0  0  0  0  0  0  0  0
  141.9060   80.6180  222.1230 C   0  0  0  0  0  0  0  0  0  0  0  0
  141.6120   80.0070  223.3180 C   0  0  0  0  0  0  0  0  0  0  0  0
  141.2540   78.6800  223.4310 C   0  0  0  0  0  0  0  0  0  0  0  0
  141.2000   77.9540  222.2510 C   0  0  0  0  0  0  0  0  0  0  0  0
  140.8210   76.5370  222.3450 C   0  0  0  0  0  0  0  0  0  0  0  0
  140.6110   73.7190  222.2890 N   0  0  0  0  0  0  0  0  0  0  0  0
  138.3680   71.5160  223.0170 C   0  0  0  0  0  0  0  0  0  0  0  0
  137.9660   70.2010  223.6510 C   0  0  0  0  0  0  0  0  0  0  0  0
  138.2110   70.3540  225.0340 O   0  0  0  0  0  0  0  0  0  0  0  0
  140.8504   71.3803  228.9749 H   0  0  0  0  0  0  0  0  0  0  0  0
  141.4204   72.6430  227.8315 H   0  0  0  0  0  0  0  0  0  0  0  0
  139.6947   72.1444  227.8315 H   0  0  0  0  0  0  0  0  0  0  0  0
  141.4441   71.2226  226.0478 H   0  0  0  0  0  0  0  0  0  0  0  0
  141.7576   70.0432  227.4015 H   0  0  0  0  0  0  0  0  0  0  0  0
  139.0870   70.0660  227.2170 H   0  0  0  0  0  0  0  0  0  0  0  0
  139.8506   69.2357  224.6338 H   0  0  0  0  0  0  0  0  0  0  0  0
  140.4780   72.0844  225.2352 H   0  0  0  0  0  0  0  0  0  0  0  0
  141.3826   70.8268  224.2915 H   0  0  0  0  0  0  0  0  0  0  0  0
  143.8512   71.8480  217.7981 H   0  0  0  0  0  0  0  0  0  0  0  0
  143.9308   73.2076  218.9273 H   0  0  0  0  0  0  0  0  0  0  0  0
  146.1095   71.9161  218.8290 H   0  0  0  0  0  0  0  0  0  0  0  0
  145.4107   71.8609  220.4581 H   0  0  0  0  0  0  0  0  0  0  0  0
  147.2878   69.8602  219.1078 H   0  0  0  0  0  0  0  0  0  0  0  0
  147.2286   67.3786  218.9117 H   0  0  0  0  0  0  0  0  0  0  0  0
  145.0338   66.1741  218.9991 H   0  0  0  0  0  0  0  0  0  0  0  0
  142.9546   67.4910  219.2809 H   0  0  0  0  0  0  0  0  0  0  0  0
  142.0028   69.9001  218.6335 H   0  0  0  0  0  0  0  0  0  0  0  0
  142.1104   69.7054  220.4031 H   0  0  0  0  0  0  0  0  0  0  0  0
  143.1500   76.5446  220.3765 H   0  0  0  0  0  0  0  0  0  0  0  0
  142.0452   75.6682  219.2803 H   0  0  0  0  0  0  0  0  0  0  0  0
  141.9020   78.1494  218.9643 H   0  0  0  0  0  0  0  0  0  0  0  0
  140.3516   77.4823  219.5213 H   0  0  0  0  0  0  0  0  0  0  0  0
  142.0687   80.3075  219.9925 H   0  0  0  0  0  0  0  0  0  0  0  0
  142.1860   81.6810  222.0825 H   0  0  0  0  0  0  0  0  0  0  0  0
  141.6652   80.6103  224.2363 H   0  0  0  0  0  0  0  0  0  0  0  0
  141.0238   78.2224  224.4044 H   0  0  0  0  0  0  0  0  0  0  0  0
  141.1537   76.1386  223.3148 H   0  0  0  0  0  0  0  0  0  0  0  0
  139.7277   76.4582  222.2525 H   0  0  0  0  0  0  0  0  0  0  0  0
  137.7781   72.3381  223.4484 H   0  0  0  0  0  0  0  0  0  0  0  0
  138.1847   71.4984  221.9325 H   0  0  0  0  0  0  0  0  0  0  0  0
  136.9001   69.9978  223.4703 H   0  0  0  0  0  0  0  0  0  0  0  0
  138.5310   69.3568  223.2290 H   0  0  0  0  0  0  0  0  0  0  0  0
  1  2  1  0
  2  3  1  0
  3  4  1  0
  4  5  1  0
  5  6  1  0
  6  7  1  0
  7  8  2  0
  8  9  1  0
  9 10  1  0
 10 11  1  0
 11 12  1  0
 12 13  1  0
 13 14  2  0
 14 15  1  0
 15 16  2  0
 16 17  1  0
 17 18  2  0
 18 19  1  0
  9 20  2  0
 20 21  1  0
 21 22  1  0
 22 23  1  0
 23 24  1  0
 24 25  1  0
 25 26  2  0
 26 27  1  0
 27 28  2  0
 28 29  1  0
 29 30  2  0
 30 31  1  0
 21 32  2  0
  6 33  1  0
 33 34  1  0
 34 35  1  0
 35  4  1  0
 32  7  1  0
 19 10  1  0
 31 22  1  0
 18 13  1  0
 30 25  1  0
  1 36  1  0
  1 37  1  0
  1 38  1  0
  2 39  1  0
  2 40  1  0
  3 41  1  0
  4 42  1  6
  5 43  1  0
  5 44  1  0
 11 45  1  0
 11 46  1  0
 12 47  1  0
 12 48  1  0
 14 49  1  0
 15 50  1  0
 16 51  1  0
 17 52  1  0
 19 53  1  0
 19 54  1  0
 23 55  1  0
 23 56  1  0
 24 57  1  0
 24 58  1  0
 26 59  1  0
 27 60  1  0
 28 61  1  0
 29 62  1  0
 31 63  1  0
 31 64  1  0
 33 65  1  0
 33 66  1  0
 34 67  1  0
 34 68  1  0
M  END
>  <smiles>  (8) 
CCNC1CN(c2nc(N3CCc4ccccc4C3)nc(N3CCc4ccccc4C3)n2)CCO1

>  <score_type>  (8) 
oracle

>  <origin>  (8) 
autodockgpu

>  <m_score__min__energy>  (8) 
-9.6099999999999994

>  <m_primary>  (8) 
energy

>  <rmsd>  (8) 
8.24512204255033

>  <m_score__min__rmsd>  (8) 
8.24512204255033

>  <meeko>  (8) 
{"free_energy": -9.22, "intermolecular_energy": -10.71, "internal_energy": -1.05, "cluster_size": 7, "cluster_id": 2, "rank_in_cluster": 2}

>  <energy>  (8) 
-9.51

>  <cluster_rmsd>  (8) 
0.1

>  <cluster>  (8) 
1

$$$$

     RDKit          3D

 68 73  0  0  1  0  0  0  0  0999 V2000
  145.7500   66.6280  219.2210 C   0  0  0  0  0  0  0  0  0  0  0  0
  145.0390   67.9010  218.8710 C   0  0  0  0  0  0  0  0  0  0  0  0
  145.7260   69.0770  219.3460 N   0  0  0  0  0  0  0  0  0  0  0  0
  144.9810   70.2670  219.0370 C   0  0  2  0  0  0  0  0  0  0  0  0
  143.9620   70.6120  220.0960 C   0  0  0  0  0  0  0  0  0  0  0  0
  142.9390   71.5110  219.5900 N   0  0  0  0  0  0  0  0  0  0  0  0
  142.1680   72.2930  220.5060 C   0  0  0  0  0  0  0  0  0  0  0  0
  141.4260   71.6880  221.4620 N   0  0  0  0  0  0  0  0  0  0  0  0
  140.6890   72.3760  222.3400 C   0  0  0  0  0  0  0  0  0  0  0  0
  139.9260   71.6910  223.3240 N   0  0  0  0  0  0  0  0  0  0  0  0
  138.7090   70.9870  222.9500 C   0  0  0  0  0  0  0  0  0  0  0  0
  139.0160   69.5130  223.1280 C   0  0  0  0  0  0  0  0  0  0  0  0
  139.4430   69.3440  224.5450 C   0  0  0  0  0  0  0  0  0  0  0  0
  139.2070   68.1200  225.1620 C   0  0  0  0  0  0  0  0  0  0  0  0
  139.5850   67.8960  226.4890 C   0  0  0  0  0  0  0  0  0  0  0  0
  140.2080   68.9090  227.2110 C   0  0  0  0  0  0  0  0  0  0  0  0
  140.4340   70.1170  226.5820 C   0  0  0  0  0  0  0  0  0  0  0  0
  140.0620   70.3470  225.2660 C   0  0  0  0  0  0  0  0  0  0  0  0
  140.3580   71.6900  224.7010 C   0  0  0  0  0  0  0  0  0  0  0  0
  140.7030   73.7130  222.2490 N   0  0  0  0  0  0  0  0  0  0  0  0
  141.4420   74.3300  221.2950 C   0  0  0  0  0  0  0  0  0  0  0  0
  141.4100   75.7630  221.2490 N   0  0  0  0  0  0  0  0  0  0  0  0
  141.9870   76.4200  220.0980 C   0  0  0  0  0  0  0  0  0  0  0  0
  141.2040   77.6880  219.8390 C   0  0  0  0  0  0  0  0  0  0  0  0
  141.2910   78.5070  221.0760 C   0  0  0  0  0  0  0  0  0  0  0  0
  141.5630   79.8670  221.0480 C   0  0  0  0  0  0  0  0  0  0  0  0
  141.6360   80.6040  222.2260 C   0  0  0  0  0  0  0  0  0  0  0  0
  141.4300   79.9400  223.4110 C   0  0  0  0  0  0  0  0  0  0  0  0
  141.1560   78.5910  223.4960 C   0  0  0  0  0  0  0  0  0  0  0  0
  141.0930   77.9000  222.2950 C   0  0  0  0  0  0  0  0  0  0  0  0
  140.8030   76.4610  222.3590 C   0  0  0  0  0  0  0  0  0  0  0  0
  142.1730   73.6130  220.4250 N   0  0  0  0  0  0  0  0  0  0  0  0
  142.6750   71.6370  218.1550 C   0  0  0  0  0  0  0  0  0  0  0  0
  143.9930   71.4360  217.4370 C   0  0  0  0  0  0  0  0  0  0  0  0
  144.4190   70.1340  217.7810 O   0  0  0  0  0  0  0  0  0  0  0  0
  145.8058   66.5281  220.3150 H   0  0  0  0  0  0  0  0  0  0  0  0
  145.1987   65.7731  218.8024 H   0  0  0  0  0  0  0  0  0  0  0  0
  146.7670   66.6490  218.8024 H   0  0  0  0  0  0  0  0  0  0  0  0
  144.9509   67.9642  217.7764 H   0  0  0  0  0  0  0  0  0  0  0  0
  144.0542   67.8741  219.3603 H   0  0  0  0  0  0  0  0  0  0  0  0
  146.7230   69.0980  219.1100 H   0  0  0  0  0  0  0  0  0  0  0  0
  145.6733   71.1217  219.0273 H   0  0  0  0  0  0  0  0  0  0  0  0
  143.4814   69.6852  220.4426 H   0  0  0  0  0  0  0  0  0  0  0  0
  144.4848   71.1194  220.9202 H   0  0  0  0  0  0  0  0  0  0  0  0
  137.8764   71.2869  223.6033 H   0  0  0  0  0  0  0  0  0  0  0  0
  138.4082   71.2170  221.9172 H   0  0  0  0  0  0  0  0  0  0  0  0
  138.1186   68.9098  222.9259 H   0  0  0  0  0  0  0  0  0  0  0  0
  139.7998   69.1805  222.4315 H   0  0  0  0  0  0  0  0  0  0  0  0
  138.7148   67.3151  224.5965 H   0  0  0  0  0  0  0  0  0  0  0  0
  139.3905   66.9217  226.9610 H   0  0  0  0  0  0  0  0  0  0  0  0
  140.5127   68.7515  228.2562 H   0  0  0  0  0  0  0  0  0  0  0  0
  140.9260   70.9246  227.1439 H   0  0  0  0  0  0  0  0  0  0  0  0
  139.8140   72.4620  225.2650 H   0  0  0  0  0  0  0  0  0  0  0  0
  141.4342   71.9076  224.7676 H   0  0  0  0  0  0  0  0  0  0  0  0
  143.0401   76.6665  220.2984 H   0  0  0  0  0  0  0  0  0  0  0  0
  141.9429   75.7589  219.2200 H   0  0  0  0  0  0  0  0  0  0  0  0
  141.6403   78.2358  218.9907 H   0  0  0  0  0  0  0  0  0  0  0  0
  140.1571   77.4611  219.5888 H   0  0  0  0  0  0  0  0  0  0  0  0
  141.7230   80.3691  220.0824 H   0  0  0  0  0  0  0  0  0  0  0  0
  141.8515   81.6825  222.2090 H   0  0  0  0  0  0  0  0  0  0  0  0
  141.4868   80.5174  224.3455 H   0  0  0  0  0  0  0  0  0  0  0  0
  140.9963   78.0908  224.4626 H   0  0  0  0  0  0  0  0  0  0  0  0
  141.2008   76.0549  223.3007 H   0  0  0  0  0  0  0  0  0  0  0  0
  139.7133   76.3195  222.3096 H   0  0  0  0  0  0  0  0  0  0  0  0
  141.9519   70.8718  217.8364 H   0  0  0  0  0  0  0  0  0  0  0  0
  142.2503   72.6245  217.9217 H   0  0  0  0  0  0  0  0  0  0  0  0
  143.8540   71.5195  216.3490 H   0  0  0  0  0  0  0  0  0  0  0  0
  144.7338   72.1960  217.7262 H   0  0  0  0  0  0  0  0  0  0  0  0
  1  2  1  0
  2  3  1  0
  3  4  1  0
  4  5  1  0
  5  6  1  0
  6  7  1  0
  7  8  2  0
  8  9  1  0
  9 10  1  0
 10 11  1  0
 11 12  1  0
 12 13  1  0
 13 14  2  0
 14 15  1  0
 15 16  2  0
 16 17  1  0
 17 18  2  0
 18 19  1  0
  9 20  2  0
 20 21  1  0
 21 22  1  0
 22 23  1  0
 23 24  1  0
 24 25  1  0
 25 26  2  0
 26 27  1  0
 27 28  2  0
 28 29  1  0
 29 30  2  0
 30 31  1  0
 21 32  2  0
  6 33  1  0
 33 34  1  0
 34 35  1  0
 35  4  1  0
 32  7  1  0
 19 10  1  0
 31 22  1  0
 18 13  1  0
 30 25  1  0
  1 36  1  0
  1 37  1  0
  1 38  1  0
  2 39  1  0
  2 40  1  0
  3 41  1  0
  4 42  1  6
  5 43  1  0
  5 44  1  0
 11 45  1  0
 11 46  1  0
 12 47  1  0
 12 48  1  0
 14 49  1  0
 15 50  1  0
 16 51  1  0
 17 52  1  0
 19 53  1  0
 19 54  1  0
 23 55  1  0
 23 56  1  0
 24 57  1  0
 24 58  1  0
 26 59  1  0
 27 60  1  0
 28 61  1  0
 29 62  1  0
 31 63  1  0
 31 64  1  0
 33 65  1  0
 33 66  1  0
 34 67  1  0
 34 68  1  0
M  END
>  <smiles>  (9) 
CCNC1CN(c2nc(N3CCc4ccccc4C3)nc(N3CCc4ccccc4C3)n2)CCO1

>  <score_type>  (9) 
oracle

>  <origin>  (9) 
autodockgpu

>  <m_score__min__energy>  (9) 
-9.6099999999999994

>  <m_primary>  (9) 
energy

>  <rmsd>  (9) 
9.773189841668971

>  <m_score__min__rmsd>  (9) 
9.773189841668971

>  <meeko>  (9) 
{"free_energy": -9.43, "intermolecular_energy": -10.92, "internal_energy": -1.01, "cluster_size": 40, "cluster_id": 1, "rank_in_cluster": 14}

>  <energy>  (9) 
-9.51

>  <cluster_rmsd>  (9) 
1.74

>  <cluster>  (9) 
1

$$$$

     RDKit          3D

 68 73  0  0  1  0  0  0  0  0999 V2000
  145.3500   74.5330  215.9920 C   0  0  0  0  0  0  0  0  0  0  0  0
  146.4500   73.6480  216.4990 C   0  0  0  0  0  0  0  0  0  0  0  0
  146.3210   73.3400  217.9020 N   0  0  0  0  0  0  0  0  0  0  0  0
  145.0230   72.7920  218.1890 C   0  0  2  0  0  0  0  0  0  0  0  0
  144.3730   73.4260  219.3950 C   0  0  0  0  0  0  0  0  0  0  0  0
  143.3130   72.5940  219.9370 N   0  0  0  0  0  0  0  0  0  0  0  0
  142.3050   73.1810  220.7650 C   0  0  0  0  0  0  0  0  0  0  0  0
  141.5640   72.4060  221.5910 N   0  0  0  0  0  0  0  0  0  0  0  0
  140.6110   72.9080  222.3820 C   0  0  0  0  0  0  0  0  0  0  0  0
  139.8600   72.0500  223.2300 N   0  0  0  0  0  0  0  0  0  0  0  0
  138.6520   71.4060  222.7370 C   0  0  0  0  0  0  0  0  0  0  0  0
  138.9810   69.9280  222.6530 C   0  0  0  0  0  0  0  0  0  0  0  0
  139.4130   69.5170  224.0170 C   0  0  0  0  0  0  0  0  0  0  0  0
  139.1970   68.2000  224.4090 C   0  0  0  0  0  0  0  0  0  0  0  0
  139.5810   67.7510  225.6760 C   0  0  0  0  0  0  0  0  0  0  0  0
  140.1910   68.6290  226.5650 C   0  0  0  0  0  0  0  0  0  0  0  0
  140.3990   69.9330  226.1590 C   0  0  0  0  0  0  0  0  0  0  0  0
  140.0200   70.3860  224.9040 C   0  0  0  0  0  0  0  0  0  0  0  0
  140.2960   71.8120  224.5850 C   0  0  0  0  0  0  0  0  0  0  0  0
  140.4010   74.2310  222.3380 N   0  0  0  0  0  0  0  0  0  0  0  0
  141.1370   75.0180  221.5140 C   0  0  0  0  0  0  0  0  0  0  0  0
  140.8600   76.4250  221.5120 N   0  0  0  0  0  0  0  0  0  0  0  0
  140.3970   77.0250  220.2810 C   0  0  0  0  0  0  0  0  0  0  0  0
  139.4600   78.1590  220.6340 C   0  0  0  0  0  0  0  0  0  0  0  0
  140.2290   79.1040  221.4850 C   0  0  0  0  0  0  0  0  0  0  0  0
  140.1950   80.4760  221.2860 C   0  0  0  0  0  0  0  0  0  0  0  0
  140.9280   81.3330  222.1020 C   0  0  0  0  0  0  0  0  0  0  0  0
  141.6820   80.7740  223.1050 C   0  0  0  0  0  0  0  0  0  0  0  0
  141.7520   79.4170  223.3450 C   0  0  0  0  0  0  0  0  0  0  0  0
  141.0040   78.6050  222.5070 C   0  0  0  0  0  0  0  0  0  0  0  0
  141.0620   77.1550  222.7420 C   0  0  0  0  0  0  0  0  0  0  0  0
  142.0890   74.4850  220.7290 N   0  0  0  0  0  0  0  0  0  0  0  0
  143.2480   71.1580  219.6570 C   0  0  0  0  0  0  0  0  0  0  0  0
  143.7970   70.9490  218.2610 C   0  0  0  0  0  0  0  0  0  0  0  0
  145.1300   71.4180  218.3020 O   0  0  0  0  0  0  0  0  0  0  0  0
  144.8080   74.9690  216.8441 H   0  0  0  0  0  0  0  0  0  0  0  0
  145.7807   75.3392  215.3800 H   0  0  0  0  0  0  0  0  0  0  0  0
  144.6547   73.9397  215.3800 H   0  0  0  0  0  0  0  0  0  0  0  0
  146.4335   72.7067  215.9301 H   0  0  0  0  0  0  0  0  0  0  0  0
  147.3977   74.1903  216.3659 H   0  0  0  0  0  0  0  0  0  0  0  0
  146.6370   74.0920  218.5220 H   0  0  0  0  0  0  0  0  0  0  0  0
  144.3484   73.0284  217.3529 H   0  0  0  0  0  0  0  0  0  0  0  0
  145.1369   73.5799  220.1714 H   0  0  0  0  0  0  0  0  0  0  0  0
  143.9298   74.3825  219.0809 H   0  0  0  0  0  0  0  0  0  0  0  0
  137.8164   71.5742  223.4324 H   0  0  0  0  0  0  0  0  0  0  0  0
  138.3454   71.8102  221.7610 H   0  0  0  0  0  0  0  0  0  0  0  0
  138.0921   69.3569  222.3469 H   0  0  0  0  0  0  0  0  0  0  0  0
  139.7687   69.7358  221.9097 H   0  0  0  0  0  0  0  0  0  0  0  0
  138.7159   67.4999  223.7102 H   0  0  0  0  0  0  0  0  0  0  0  0
  139.4011   66.7061  225.9688 H   0  0  0  0  0  0  0  0  0  0  0  0
  140.5001   68.2938  227.5661 H   0  0  0  0  0  0  0  0  0  0  0  0
  140.8814   70.6357  226.8544 H   0  0  0  0  0  0  0  0  0  0  0  0
  139.7431   72.4646  225.2767 H   0  0  0  0  0  0  0  0  0  0  0  0
  141.3693   72.0296  224.6886 H   0  0  0  0  0  0  0  0  0  0  0  0
  141.2535   77.4131  219.7102 H   0  0  0  0  0  0  0  0  0  0  0  0
  139.8754   76.2774  219.6654 H   0  0  0  0  0  0  0  0  0  0  0  0
  139.1178   78.6657  219.7196 H   0  0  0  0  0  0  0  0  0  0  0  0
  138.5712   77.7855  221.1636 H   0  0  0  0  0  0  0  0  0  0  0  0
  139.5813   80.8921  220.4734 H   0  0  0  0  0  0  0  0  0  0  0  0
  140.9042   82.4220  221.9487 H   0  0  0  0  0  0  0  0  0  0  0  0
  142.2629   81.4462  223.7536 H   0  0  0  0  0  0  0  0  0  0  0  0
  142.3676   79.0024  224.1568 H   0  0  0  0  0  0  0  0  0  0  0  0
  142.0476   76.8965  223.1565 H   0  0  0  0  0  0  0  0  0  0  0  0
  140.2643   76.8812  223.4482 H   0  0  0  0  0  0  0  0  0  0  0  0
  143.8552   70.6036  220.3877 H   0  0  0  0  0  0  0  0  0  0  0  0
  142.2130   70.7925  219.7285 H   0  0  0  0  0  0  0  0  0  0  0  0
  143.7735   69.8819  217.9950 H   0  0  0  0  0  0  0  0  0  0  0  0
  143.2012   71.4822  217.5055 H   0  0  0  0  0  0  0  0  0  0  0  0
  1  2  1  0
  2  3  1  0
  3  4  1  0
  4  5  1  0
  5  6  1  0
  6  7  1  0
  7  8  2  0
  8  9  1  0
  9 10  1  0
 10 11  1  0
 11 12  1  0
 12 13  1  0
 13 14  2  0
 14 15  1  0
 15 16  2  0
 16 17  1  0
 17 18  2  0
 18 19  1  0
  9 20  2  0
 20 21  1  0
 21 22  1  0
 22 23  1  0
 23 24  1  0
 24 25  1  0
 25 26  2  0
 26 27  1  0
 27 28  2  0
 28 29  1  0
 29 30  2  0
 30 31  1  0
 21 32  2  0
  6 33  1  0
 33 34  1  0
 34 35  1  0
 35  4  1  0
 32  7  1  0
 19 10  1  0
 31 22  1  0
 18 13  1  0
 30 25  1  0
  1 36  1  0
  1 37  1  0
  1 38  1  0
  2 39  1  0
  2 40  1  0
  3 41  1  0
  4 42  1  6
  5 43  1  0
  5 44  1  0
 11 45  1  0
 11 46  1  0
 12 47  1  0
 12 48  1  0
 14 49  1  0
 15 50  1  0
 16 51  1  0
 17 52  1  0
 19 53  1  0
 19 54  1  0
 23 55  1  0
 23 56  1  0
 24 57  1  0
 24 58  1  0
 26 59  1  0
 27 60  1  0
 28 61  1  0
 29 62  1  0
 31 63  1  0
 31 64  1  0
 33 65  1  0
 33 66  1  0
 34 67  1  0
 34 68  1  0
M  END
>  <smiles>  (10) 
CCNC1CN(c2nc(N3CCc4ccccc4C3)nc(N3CCc4ccccc4C3)n2)CCO1

>  <score_type>  (10) 
oracle

>  <origin>  (10) 
autodockgpu

>  <m_score__min__energy>  (10) 
-9.6099999999999994

>  <m_primary>  (10) 
energy

>  <rmsd>  (10) 
7.390351808702457

>  <m_score__min__rmsd>  (10) 
7.390351808702457

>  <meeko>  (10) 
{"free_energy": -9.32, "intermolecular_energy": -10.81, "internal_energy": -1.03, "cluster_size": 40, "cluster_id": 1, "rank_in_cluster": 20}

>  <energy>  (10) 
-9.5

>  <cluster_rmsd>  (10) 
0.25

>  <cluster>  (10) 
1

$$$$

     RDKit          3D

 68 73  0  0  1  0  0  0  0  0999 V2000
  144.4290   67.3560  219.3460 C   0  0  0  0  0  0  0  0  0  0  0  0
  144.2590   68.8290  219.5640 C   0  0  0  0  0  0  0  0  0  0  0  0
  145.4770   69.5720  219.3540 N   0  0  0  0  0  0  0  0  0  0  0  0
  145.2650   70.9770  219.5710 C   0  0  2  0  0  0  0  0  0  0  0  0
  143.8920   71.2850  220.1180 C   0  0  0  0  0  0  0  0  0  0  0  0
  143.5280   72.6770  219.9130 N   0  0  0  0  0  0  0  0  0  0  0  0
  142.5070   73.2680  220.7220 C   0  0  0  0  0  0  0  0  0  0  0  0
  141.7260   72.4910  221.5090 N   0  0  0  0  0  0  0  0  0  0  0  0
  140.7600   72.9970  222.2810 C   0  0  0  0  0  0  0  0  0  0  0  0
  139.9660   72.1370  223.0880 N   0  0  0  0  0  0  0  0  0  0  0  0
  138.7670   71.5190  222.5440 C   0  0  0  0  0  0  0  0  0  0  0  0
  139.0760   70.0380  222.4460 C   0  0  0  0  0  0  0  0  0  0  0  0
  139.4540   69.6000  223.8180 C   0  0  0  0  0  0  0  0  0  0  0  0
  139.2040   68.2800  224.1800 C   0  0  0  0  0  0  0  0  0  0  0  0
  139.5370   67.8050  225.4520 C   0  0  0  0  0  0  0  0  0  0  0  0
  140.1290   68.6590  226.3770 C   0  0  0  0  0  0  0  0  0  0  0  0
  140.3700   69.9660  226.0000 C   0  0  0  0  0  0  0  0  0  0  0  0
  140.0420   70.4440  224.7400 C   0  0  0  0  0  0  0  0  0  0  0  0
  140.3510   71.8700  224.4540 C   0  0  0  0  0  0  0  0  0  0  0  0
  140.5770   74.3240  222.2580 N   0  0  0  0  0  0  0  0  0  0  0  0
  141.3530   75.1120  221.4740 C   0  0  0  0  0  0  0  0  0  0  0  0
  141.1030   76.5240  221.4920 N   0  0  0  0  0  0  0  0  0  0  0  0
  140.9160   77.1980  220.2260 C   0  0  0  0  0  0  0  0  0  0  0  0
  139.9430   78.3360  220.4390 C   0  0  0  0  0  0  0  0  0  0  0  0
  140.5320   79.2160  221.4820 C   0  0  0  0  0  0  0  0  0  0  0  0
  140.5600   80.5980  221.3570 C   0  0  0  0  0  0  0  0  0  0  0  0
  141.1190   81.3920  222.3540 C   0  0  0  0  0  0  0  0  0  0  0  0
  141.6390   80.7630  223.4590 C   0  0  0  0  0  0  0  0  0  0  0  0
  141.6360   79.3950  223.6330 C   0  0  0  0  0  0  0  0  0  0  0  0
  141.0690   78.6460  222.6140 C   0  0  0  0  0  0  0  0  0  0  0  0
  141.0540   77.1850  222.7750 C   0  0  0  0  0  0  0  0  0  0  0  0
  142.3170   74.5760  220.7070 N   0  0  0  0  0  0  0  0  0  0  0  0
  144.1840   73.4970  218.8930 C   0  0  0  0  0  0  0  0  0  0  0  0
  145.6170   73.0180  218.7870 C   0  0  0  0  0  0  0  0  0  0  0  0
  145.5380   71.6610  218.4020 O   0  0  0  0  0  0  0  0  0  0  0  0
  144.4879   66.8458  220.3187 H   0  0  0  0  0  0  0  0  0  0  0  0
  143.5697   66.9676  218.7796 H   0  0  0  0  0  0  0  0  0  0  0  0
  145.3542   67.1735  218.7796 H   0  0  0  0  0  0  0  0  0  0  0  0
  143.4958   69.2014  218.8648 H   0  0  0  0  0  0  0  0  0  0  0  0
  143.9601   68.9750  220.6125 H   0  0  0  0  0  0  0  0  0  0  0  0
  145.9720   69.3210  218.4920 H   0  0  0  0  0  0  0  0  0  0  0  0
  145.9596   71.3196  220.3522 H   0  0  0  0  0  0  0  0  0  0  0  0
  143.1549   70.6459  219.6098 H   0  0  0  0  0  0  0  0  0  0  0  0
  143.9044   71.0912  221.2007 H   0  0  0  0  0  0  0  0  0  0  0  0
  137.9108   71.6885  223.2135 H   0  0  0  0  0  0  0  0  0  0  0  0
  138.5005   71.9434  221.5648 H   0  0  0  0  0  0  0  0  0  0  0  0
  138.1897   69.4858  222.1002 H   0  0  0  0  0  0  0  0  0  0  0  0
  139.8853   69.8445  221.7266 H   0  0  0  0  0  0  0  0  0  0  0  0
  138.7367   67.5990  223.4534 H   0  0  0  0  0  0  0  0  0  0  0  0
  139.3314   66.7584  225.7208 H   0  0  0  0  0  0  0  0  0  0  0  0
  140.3982   68.3028  227.3823 H   0  0  0  0  0  0  0  0  0  0  0  0
  140.8376   70.6504  226.7232 H   0  0  0  0  0  0  0  0  0  0  0  0
  139.7846   72.5204  225.1368 H   0  0  0  0  0  0  0  0  0  0  0  0
  141.4234   72.0683  224.5979 H   0  0  0  0  0  0  0  0  0  0  0  0
  141.8784   77.5924  219.8678 H   0  0  0  0  0  0  0  0  0  0  0  0
  140.5236   76.4965  219.4750 H   0  0  0  0  0  0  0  0  0  0  0  0
  139.8064   78.8974  219.5030 H   0  0  0  0  0  0  0  0  0  0  0  0
  138.9578   77.9593  220.7511 H   0  0  0  0  0  0  0  0  0  0  0  0
  140.1354   81.0713  220.4594 H   0  0  0  0  0  0  0  0  0  0  0  0
  141.1436   82.4877  222.2602 H   0  0  0  0  0  0  0  0  0  0  0  0
  142.0829   81.3857  224.2497 H   0  0  0  0  0  0  0  0  0  0  0  0
  142.0606   78.9238  224.5317 H   0  0  0  0  0  0  0  0  0  0  0  0
  141.9267   76.8795  223.3709 H   0  0  0  0  0  0  0  0  0  0  0  0
  140.1217   76.8972  223.2829 H   0  0  0  0  0  0  0  0  0  0  0  0
  143.6735   73.3757  217.9262 H   0  0  0  0  0  0  0  0  0  0  0  0
  144.1474   74.5622  219.1652 H   0  0  0  0  0  0  0  0  0  0  0  0
  146.1613   73.6008  218.0293 H   0  0  0  0  0  0  0  0  0  0  0  0
  146.1576   73.1400  219.7372 H   0  0  0  0  0  0  0  0  0  0  0  0
  1  2  1  0
  2  3  1  0
  3  4  1  0
  4  5  1  0
  5  6  1  0
  6  7  1  0
  7  8  2  0
  8  9  1  0
  9 10  1  0
 10 11  1  0
 11 12  1  0
 12 13  1  0
 13 14  2  0
 14 15  1  0
 15 16  2  0
 16 17  1  0
 17 18  2  0
 18 19  1  0
  9 20  2  0
 20 21  1  0
 21 22  1  0
 22 23  1  0
 23 24  1  0
 24 25  1  0
 25 26  2  0
 26 27  1  0
 27 28  2  0
 28 29  1  0
 29 30  2  0
 30 31  1  0
 21 32  2  0
  6 33  1  0
 33 34  1  0
 34 35  1  0
 35  4  1  0
 32  7  1  0
 19 10  1  0
 31 22  1  0
 18 13  1  0
 30 25  1  0
  1 36  1  0
  1 37  1  0
  1 38  1  0
  2 39  1  0
  2 40  1  0
  3 41  1  0
  4 42  1  1
  5 43  1  0
  5 44  1  0
 11 45  1  0
 11 46  1  0
 12 47  1  0
 12 48  1  0
 14 49  1  0
 15 50  1  0
 16 51  1  0
 17 52  1  0
 19 53  1  0
 19 54  1  0
 23 55  1  0
 23 56  1  0
 24 57  1  0
 24 58  1  0
 26 59  1  0
 27 60  1  0
 28 61  1  0
 29 62  1  0
 31 63  1  0
 31 64  1  0
 33 65  1  0
 33 66  1  0
 34 67  1  0
 34 68  1  0
M  END
>  <smiles>  (11) 
CCNC1CN(c2nc(N3CCc4ccccc4C3)nc(N3CCc4ccccc4C3)n2)CCO1

>  <score_type>  (11) 
oracle

>  <origin>  (11) 
autodockgpu

>  <m_score__min__energy>  (11) 
-9.6099999999999994

>  <m_primary>  (11) 
energy

>  <rmsd>  (11) 
9.195794307598213

>  <m_score__min__rmsd>  (11) 
9.195794307598213

>  <meeko>  (11) 
{"free_energy": -8.99, "intermolecular_energy": -10.48, "internal_energy": -1.07, "cluster_size": 40, "cluster_id": 1, "rank_in_cluster": 40}

>  <energy>  (11) 
-9.5

>  <cluster_rmsd>  (11) 
1.74

>  <cluster>  (11) 
1

$$$$

     RDKit          3D

 68 73  0  0  1  0  0  0  0  0999 V2000
  145.6400   66.5760  218.9460 C   0  0  0  0  0  0  0  0  0  0  0  0
  144.8300   67.8200  219.1610 C   0  0  0  0  0  0  0  0  0  0  0  0
  145.6450   68.9950  219.3490 N   0  0  0  0  0  0  0  0  0  0  0  0
  144.9040   70.1880  219.0410 C   0  0  2  0  0  0  0  0  0  0  0  0
  143.9040   70.5490  220.1120 C   0  0  0  0  0  0  0  0  0  0  0  0
  142.8800   71.4510  219.6130 N   0  0  0  0  0  0  0  0  0  0  0  0
  142.1280   72.2470  220.5340 C   0  0  0  0  0  0  0  0  0  0  0  0
  141.4020   71.6550  221.5110 N   0  0  0  0  0  0  0  0  0  0  0  0
  140.6830   72.3560  222.3940 C   0  0  0  0  0  0  0  0  0  0  0  0
  139.9360   71.6850  223.3990 N   0  0  0  0  0  0  0  0  0  0  0  0
  138.7150   70.9740  223.0540 C   0  0  0  0  0  0  0  0  0  0  0  0
  139.0270   69.5030  223.2510 C   0  0  0  0  0  0  0  0  0  0  0  0
  139.4750   69.3570  224.6640 C   0  0  0  0  0  0  0  0  0  0  0  0
  139.2510   68.1420  225.3030 C   0  0  0  0  0  0  0  0  0  0  0  0
  139.6490   67.9390  226.6280 C   0  0  0  0  0  0  0  0  0  0  0  0
  140.2800   68.9640  227.3250 C   0  0  0  0  0  0  0  0  0  0  0  0
  140.4950   70.1630  226.6740 C   0  0  0  0  0  0  0  0  0  0  0  0
  140.1030   70.3720  225.3600 C   0  0  0  0  0  0  0  0  0  0  0  0
  140.3880   71.7060  224.7690 C   0  0  0  0  0  0  0  0  0  0  0  0
  140.7000   73.6920  222.2870 N   0  0  0  0  0  0  0  0  0  0  0  0
  141.4240   74.2950  221.3130 C   0  0  0  0  0  0  0  0  0  0  0  0
  141.3950   75.7280  221.2510 N   0  0  0  0  0  0  0  0  0  0  0  0
  141.9740   76.3710  220.0920 C   0  0  0  0  0  0  0  0  0  0  0  0
  141.1940   77.6380  219.8200 C   0  0  0  0  0  0  0  0  0  0  0  0
  141.2840   78.4700  221.0480 C   0  0  0  0  0  0  0  0  0  0  0  0
  141.5610   79.8290  221.0040 C   0  0  0  0  0  0  0  0  0  0  0  0
  141.6370   80.5790  222.1740 C   0  0  0  0  0  0  0  0  0  0  0  0
  141.4290   79.9290  223.3670 C   0  0  0  0  0  0  0  0  0  0  0  0
  141.1510   78.5820  223.4660 C   0  0  0  0  0  0  0  0  0  0  0  0
  141.0860   77.8780  222.2740 C   0  0  0  0  0  0  0  0  0  0  0  0
  140.7910   76.4390  222.3530 C   0  0  0  0  0  0  0  0  0  0  0  0
  142.1370   73.5660  220.4380 N   0  0  0  0  0  0  0  0  0  0  0  0
  142.5950   71.5680  218.1820 C   0  0  0  0  0  0  0  0  0  0  0  0
  143.9010   71.3520  217.4460 C   0  0  0  0  0  0  0  0  0  0  0  0
  144.3230   70.0490  217.7940 O   0  0  0  0  0  0  0  0  0  0  0  0
  145.9191   66.1473  219.9198 H   0  0  0  0  0  0  0  0  0  0  0  0
  145.0448   65.8441  218.3803 H   0  0  0  0  0  0  0  0  0  0  0  0
  146.5501   66.8243  218.3803 H   0  0  0  0  0  0  0  0  0  0  0  0
  144.1866   67.9760  218.2826 H   0  0  0  0  0  0  0  0  0  0  0  0
  144.2415   67.6761  220.0791 H   0  0  0  0  0  0  0  0  0  0  0  0
  146.5770   68.9240  218.9280 H   0  0  0  0  0  0  0  0  0  0  0  0
  145.6019   71.0379  219.0139 H   0  0  0  0  0  0  0  0  0  0  0  0
  143.4221   69.6287  220.4738 H   0  0  0  0  0  0  0  0  0  0  0  0
  144.4425   71.0593  220.9242 H   0  0  0  0  0  0  0  0  0  0  0  0
  137.8915   71.2832  223.7145 H   0  0  0  0  0  0  0  0  0  0  0  0
  138.3987   71.1873  222.0223 H   0  0  0  0  0  0  0  0  0  0  0  0
  138.1277   68.8954  223.0717 H   0  0  0  0  0  0  0  0  0  0  0  0
  139.8010   69.1606  222.5484 H   0  0  0  0  0  0  0  0  0  0  0  0
  138.7526   67.3274  224.7570 H   0  0  0  0  0  0  0  0  0  0  0  0
  139.4636   66.9716  227.1177 H   0  0  0  0  0  0  0  0  0  0  0  0
  140.5996   68.8233  228.3681 H   0  0  0  0  0  0  0  0  0  0  0  0
  140.9940   70.9799  227.2160 H   0  0  0  0  0  0  0  0  0  0  0  0
  139.8511   72.4861  225.3286 H   0  0  0  0  0  0  0  0  0  0  0  0
  141.4648   71.9258  224.8159 H   0  0  0  0  0  0  0  0  0  0  0  0
  143.0278   76.6169  220.2894 H   0  0  0  0  0  0  0  0  0  0  0  0
  141.9283   75.7005  219.2211 H   0  0  0  0  0  0  0  0  0  0  0  0
  141.6310   78.1756  218.9656 H   0  0  0  0  0  0  0  0  0  0  0  0
  140.1464   77.4110  219.5731 H   0  0  0  0  0  0  0  0  0  0  0  0
  141.7225   80.3195  220.0327 H   0  0  0  0  0  0  0  0  0  0  0  0
  141.8563   81.6565  222.1448 H   0  0  0  0  0  0  0  0  0  0  0  0
  141.4876   80.5164  224.2952 H   0  0  0  0  0  0  0  0  0  0  0  0
  140.9896   78.0930  224.4380 H   0  0  0  0  0  0  0  0  0  0  0  0
  141.1877   76.0414  223.2988 H   0  0  0  0  0  0  0  0  0  0  0  0
  139.7008   76.3006  222.3052 H   0  0  0  0  0  0  0  0  0  0  0  0
  141.8618   70.8056  217.8802 H   0  0  0  0  0  0  0  0  0  0  0  0
  142.1735   72.5566  217.9474 H   0  0  0  0  0  0  0  0  0  0  0  0
  143.7465   71.4281  216.3596 H   0  0  0  0  0  0  0  0  0  0  0  0
  144.6513   72.1089  217.7182 H   0  0  0  0  0  0  0  0  0  0  0  0
  1  2  1  0
  2  3  1  0
  3  4  1  0
  4  5  1  0
  5  6  1  0
  6  7  1  0
  7  8  2  0
  8  9  1  0
  9 10  1  0
 10 11  1  0
 11 12  1  0
 12 13  1  0
 13 14  2  0
 14 15  1  0
 15 16  2  0
 16 17  1  0
 17 18  2  0
 18 19  1  0
  9 20  2  0
 20 21  1  0
 21 22  1  0
 22 23  1  0
 23 24  1  0
 24 25  1  0
 25 26  2  0
 26 27  1  0
 27 28  2  0
 28 29  1  0
 29 30  2  0
 30 31  1  0
 21 32  2  0
  6 33  1  0
 33 34  1  0
 34 35  1  0
 35  4  1  0
 32  7  1  0
 19 10  1  0
 31 22  1  0
 18 13  1  0
 30 25  1  0
  1 36  1  0
  1 37  1  0
  1 38  1  0
  2 39  1  0
  2 40  1  0
  3 41  1  0
  4 42  1  6
  5 43  1  0
  5 44  1  0
 11 45  1  0
 11 46  1  0
 12 47  1  0
 12 48  1  0
 14 49  1  0
 15 50  1  0
 16 51  1  0
 17 52  1  0
 19 53  1  0
 19 54  1  0
 23 55  1  0
 23 56  1  0
 24 57  1  0
 24 58  1  0
 26 59  1  0
 27 60  1  0
 28 61  1  0
 29 62  1  0
 31 63  1  0
 31 64  1  0
 33 65  1  0
 33 66  1  0
 34 67  1  0
 34 68  1  0
M  END
>  <smiles>  (12) 
CCNC1CN(c2nc(N3CCc4ccccc4C3)nc(N3CCc4ccccc4C3)n2)CCO1

>  <score_type>  (12) 
oracle

>  <origin>  (12) 
autodockgpu

>  <m_score__min__energy>  (12) 
-9.6099999999999994

>  <m_primary>  (12) 
energy

>  <rmsd>  (12) 
9.79281540136095

>  <m_score__min__rmsd>  (12) 
9.79281540136095

>  <meeko>  (12) 
{"free_energy": -9.48, "intermolecular_energy": -10.97, "internal_energy": -1.02, "cluster_size": 40, "cluster_id": 1, "rank_in_cluster": 12}

>  <energy>  (12) 
-9.48

>  <cluster_rmsd>  (12) 
1.75

>  <cluster>  (12) 
1

$$$$

     RDKit          3D

 68 73  0  0  1  0  0  0  0  0999 V2000
  145.0040   68.9660  219.2920 C   0  0  0  0  0  0  0  0  0  0  0  0
  145.9150   69.6300  218.3040 C   0  0  0  0  0  0  0  0  0  0  0  0
  145.5200   70.9830  217.9990 N   0  0  0  0  0  0  0  0  0  0  0  0
  145.3320   71.7470  219.2020 C   0  0  2  0  0  0  0  0  0  0  0  0
  143.9430   72.3240  219.3190 C   0  0  0  0  0  0  0  0  0  0  0  0
  143.8940   73.4270  220.2640 N   0  0  0  0  0  0  0  0  0  0  0  0
  142.6420   73.8070  220.8440 C   0  0  0  0  0  0  0  0  0  0  0  0
  142.2760   75.1090  220.8810 N   0  0  0  0  0  0  0  0  0  0  0  0
  141.1180   75.5130  221.4120 C   0  0  0  0  0  0  0  0  0  0  0  0
  140.7810   76.8940  221.4270 N   0  0  0  0  0  0  0  0  0  0  0  0
  139.4040   77.3110  221.6420 C   0  0  0  0  0  0  0  0  0  0  0  0
  139.3860   77.9800  223.0020 C   0  0  0  0  0  0  0  0  0  0  0  0
  140.3860   79.0820  222.9390 C   0  0  0  0  0  0  0  0  0  0  0  0
  140.1830   80.2020  223.7400 C   0  0  0  0  0  0  0  0  0  0  0  0
  141.0850   81.2700  223.7280 C   0  0  0  0  0  0  0  0  0  0  0  0
  142.2060   81.2200  222.9060 C   0  0  0  0  0  0  0  0  0  0  0  0
  142.3910   80.1010  222.1180 C   0  0  0  0  0  0  0  0  0  0  0  0
  141.5000   79.0370  222.1240 C   0  0  0  0  0  0  0  0  0  0  0  0
  141.8080   77.8890  221.2310 C   0  0  0  0  0  0  0  0  0  0  0  0
  140.3080   74.5750  221.9210 N   0  0  0  0  0  0  0  0  0  0  0  0
  140.6650   73.2670  221.8900 C   0  0  0  0  0  0  0  0  0  0  0  0
  139.7540   72.3140  222.4550 N   0  0  0  0  0  0  0  0  0  0  0  0
  138.3370   72.5300  222.2620 C   0  0  0  0  0  0  0  0  0  0  0  0
  137.6630   71.1790  222.1780 C   0  0  0  0  0  0  0  0  0  0  0  0
  137.9720   70.4640  223.4440 C   0  0  0  0  0  0  0  0  0  0  0  0
  137.0050   69.7780  224.1640 C   0  0  0  0  0  0  0  0  0  0  0  0
  137.3290   69.1190  225.3460 C   0  0  0  0  0  0  0  0  0  0  0  0
  138.6350   69.1710  225.7710 C   0  0  0  0  0  0  0  0  0  0  0  0
  139.6350   69.8380  225.0940 C   0  0  0  0  0  0  0  0  0  0  0  0
  139.2620   70.4790  223.9220 C   0  0  0  0  0  0  0  0  0  0  0  0
  140.3100   71.1970  223.1820 C   0  0  0  0  0  0  0  0  0  0  0  0
  141.8350   72.8890  221.3500 N   0  0  0  0  0  0  0  0  0  0  0  0
  145.1000   74.1660  220.6410 C   0  0  0  0  0  0  0  0  0  0  0  0
  146.2530   73.1850  220.6130 C   0  0  0  0  0  0  0  0  0  0  0  0
  146.3190   72.7110  219.2830 O   0  0  0  0  0  0  0  0  0  0  0  0
  145.3336   69.2062  220.3136 H   0  0  0  0  0  0  0  0  0  0  0  0
  143.9759   69.3281  219.1437 H   0  0  0  0  0  0  0  0  0  0  0  0
  145.0340   67.8765  219.1437 H   0  0  0  0  0  0  0  0  0  0  0  0
  146.9328   69.6468  218.7210 H   0  0  0  0  0  0  0  0  0  0  0  0
  145.8657   69.0526  217.3690 H   0  0  0  0  0  0  0  0  0  0  0  0
  144.7690   71.0500  217.3040 H   0  0  0  0  0  0  0  0  0  0  0  0
  145.4253   71.0714  220.0651 H   0  0  0  0  0  0  0  0  0  0  0  0
  143.6241   72.6874  218.3309 H   0  0  0  0  0  0  0  0  0  0  0  0
  143.2734   71.5313  219.6841 H   0  0  0  0  0  0  0  0  0  0  0  0
  139.0917   78.0203  220.8614 H   0  0  0  0  0  0  0  0  0  0  0  0
  138.7102   76.4585  221.5995 H   0  0  0  0  0  0  0  0  0  0  0  0
  138.3855   78.3852  223.2139 H   0  0  0  0  0  0  0  0  0  0  0  0
  139.6284   77.2654  223.8024 H   0  0  0  0  0  0  0  0  0  0  0  0
  139.2988   80.2475  224.3928 H   0  0  0  0  0  0  0  0  0  0  0  0
  140.9087   82.1478  224.3671 H   0  0  0  0  0  0  0  0  0  0  0  0
  142.9268   82.0506  222.8842 H   0  0  0  0  0  0  0  0  0  0  0  0
  143.2740   80.0514  221.4638 H   0  0  0  0  0  0  0  0  0  0  0  0
  141.8132   78.2208  220.1822 H   0  0  0  0  0  0  0  0  0  0  0  0
  142.7985   77.4724  221.4661 H   0  0  0  0  0  0  0  0  0  0  0  0
  137.9277   73.0988  223.1099 H   0  0  0  0  0  0  0  0  0  0  0  0
  138.1609   73.1018  221.3389 H   0  0  0  0  0  0  0  0  0  0  0  0
  136.5755   71.3047  222.0700 H   0  0  0  0  0  0  0  0  0  0  0  0
  138.0236   70.6121  221.3070 H   0  0  0  0  0  0  0  0  0  0  0  0
  135.9687   69.7546  223.7959 H   0  0  0  0  0  0  0  0  0  0  0  0
  136.5654   68.5747  225.9210 H   0  0  0  0  0  0  0  0  0  0  0  0
  138.8979   68.6512  226.7041 H   0  0  0  0  0  0  0  0  0  0  0  0
  140.6709   69.8602  225.4633 H   0  0  0  0  0  0  0  0  0  0  0  0
  141.0626   71.5687  223.8929 H   0  0  0  0  0  0  0  0  0  0  0  0
  140.7704   70.5036  222.4628 H   0  0  0  0  0  0  0  0  0  0  0  0
  145.2815   74.9815  219.9254 H   0  0  0  0  0  0  0  0  0  0  0  0
  144.9893   74.6101  221.6413 H   0  0  0  0  0  0  0  0  0  0  0  0
  147.1917   73.6883  220.8879 H   0  0  0  0  0  0  0  0  0  0  0  0
  146.1053   72.3640  221.3300 H   0  0  0  0  0  0  0  0  0  0  0  0
  1  2  1  0
  2  3  1  0
  3  4  1  0
  4  5  1  0
  5  6  1  0
  6  7  1  0
  7  8  2  0
  8  9  1  0
  9 10  1  0
 10 11  1  0
 11 12  1  0
 12 13  1  0
 13 14  2  0
 14 15  1  0
 15 16  2  0
 16 17  1  0
 17 18  2  0
 18 19  1  0
  9 20  2  0
 20 21  1  0
 21 22  1  0
 22 23  1  0
 23 24  1  0
 24 25  1  0
 25 26  2  0
 26 27  1  0
 27 28  2  0
 28 29  1  0
 29 30  2  0
 30 31  1  0
 21 32  2  0
  6 33  1  0
 33 34  1  0
 34 35  1  0
 35  4  1  0
 32  7  1  0
 19 10  1  0
 31 22  1  0
 18 13  1  0
 30 25  1  0
  1 36  1  0
  1 37  1  0
  1 38  1  0
  2 39  1  0
  2 40  1  0
  3 41  1  0
  4 42  1  1
  5 43  1  0
  5 44  1  0
 11 45  1  0
 11 46  1  0
 12 47  1  0
 12 48  1  0
 14 49  1  0
 15 50  1  0
 16 51  1  0
 17 52  1  0
 19 53  1  0
 19 54  1  0
 23 55  1  0
 23 56  1  0
 24 57  1  0
 24 58  1  0
 26 59  1  0
 27 60  1  0
 28 61  1  0
 29 62  1  0
 31 63  1  0
 31 64  1  0
 33 65  1  0
 33 66  1  0
 34 67  1  0
 34 68  1  0
M  END
>  <smiles>  (13) 
CCNC1CN(c2nc(N3CCc4ccccc4C3)nc(N3CCc4ccccc4C3)n2)CCO1

>  <score_type>  (13) 
oracle

>  <origin>  (13) 
autodockgpu

>  <m_score__min__energy>  (13) 
-9.6099999999999994

>  <m_primary>  (13) 
energy

>  <rmsd>  (13) 
8.836464481479094

>  <m_score__min__rmsd>  (13) 
8.836464481479094

>  <meeko>  (13) 
{"free_energy": -9.3, "intermolecular_energy": -10.79, "internal_energy": -1.04, "cluster_size": 40, "cluster_id": 1, "rank_in_cluster": 21}

>  <energy>  (13) 
-9.43

>  <cluster_rmsd>  (13) 
1.91

>  <cluster>  (13) 
1

$$$$

     RDKit          3D

 68 73  0  0  1  0  0  0  0  0999 V2000
  140.7830   71.8880  228.0080 C   0  0  0  0  0  0  0  0  0  0  0  0
  141.0150   70.7860  227.0170 C   0  0  0  0  0  0  0  0  0  0  0  0
  139.8050   70.0880  226.6610 N   0  0  0  0  0  0  0  0  0  0  0  0
  139.5650   70.1680  225.2450 C   0  0  2  0  0  0  0  0  0  0  0  0
  140.3380   71.2810  224.5820 C   0  0  0  0  0  0  0  0  0  0  0  0
  139.7700   71.6400  223.2930 N   0  0  0  0  0  0  0  0  0  0  0  0
  140.5760   72.3270  222.3310 C   0  0  0  0  0  0  0  0  0  0  0  0
  141.3310   71.6270  221.4520 N   0  0  0  0  0  0  0  0  0  0  0  0
  142.1000   72.2230  220.5350 C   0  0  0  0  0  0  0  0  0  0  0  0
  142.8760   71.4420  219.6360 N   0  0  0  0  0  0  0  0  0  0  0  0
  143.9170   72.0650  218.8340 C   0  0  0  0  0  0  0  0  0  0  0  0
  145.2280   71.5280  219.3750 C   0  0  0  0  0  0  0  0  0  0  0  0
  145.1450   70.0440  219.2750 C   0  0  0  0  0  0  0  0  0  0  0  0
  146.3260   69.3280  219.1090 C   0  0  0  0  0  0  0  0  0  0  0  0
  146.3160   67.9330  219.0090 C   0  0  0  0  0  0  0  0  0  0  0  0
  145.1110   67.2430  219.0780 C   0  0  0  0  0  0  0  0  0  0  0  0
  143.9480   67.9710  219.2440 C   0  0  0  0  0  0  0  0  0  0  0  0
  143.9490   69.3540  219.3430 C   0  0  0  0  0  0  0  0  0  0  0  0
  142.6340   70.0240  219.5190 C   0  0  0  0  0  0  0  0  0  0  0  0
  142.1050   73.5630  220.5050 N   0  0  0  0  0  0  0  0  0  0  0  0
  141.3520   74.2730  221.3810 C   0  0  0  0  0  0  0  0  0  0  0  0
  141.4060   75.7050  221.2980 N   0  0  0  0  0  0  0  0  0  0  0  0
  142.1170   76.2950  220.1860 C   0  0  0  0  0  0  0  0  0  0  0  0
  141.4340   77.5960  219.8290 C   0  0  0  0  0  0  0  0  0  0  0  0
  141.4610   78.4450  221.0490 C   0  0  0  0  0  0  0  0  0  0  0  0
  141.8130   79.7860  221.0120 C   0  0  0  0  0  0  0  0  0  0  0  0
  141.8270   80.5520  222.1740 C   0  0  0  0  0  0  0  0  0  0  0  0
  141.4820   79.9350  223.3520 C   0  0  0  0  0  0  0  0  0  0  0  0
  141.1240   78.6060  223.4450 C   0  0  0  0  0  0  0  0  0  0  0  0
  141.1250   77.8850  222.2610 C   0  0  0  0  0  0  0  0  0  0  0  0
  140.7480   76.4660  222.3330 C   0  0  0  0  0  0  0  0  0  0  0  0
  140.5890   73.6480  222.2930 N   0  0  0  0  0  0  0  0  0  0  0  0
  138.3840   71.3160  222.9520 C   0  0  0  0  0  0  0  0  0  0  0  0
  138.0460   70.0110  223.6410 C   0  0  0  0  0  0  0  0  0  0  0  0
  138.2030   70.2580  225.0240 O   0  0  0  0  0  0  0  0  0  0  0  0
  140.8674   71.4869  229.0288 H   0  0  0  0  0  0  0  0  0  0  0  0
  141.5346   72.6776  227.8609 H   0  0  0  0  0  0  0  0  0  0  0  0
  139.7768   72.3076  227.8609 H   0  0  0  0  0  0  0  0  0  0  0  0
  141.4511   71.2200  226.1052 H   0  0  0  0  0  0  0  0  0  0  0  0
  141.6910   70.0564  227.4868 H   0  0  0  0  0  0  0  0  0  0  0  0
  139.0060   70.3080  227.2640 H   0  0  0  0  0  0  0  0  0  0  0  0
  139.9410   69.2491  224.7714 H   0  0  0  0  0  0  0  0  0  0  0  0
  140.3217   72.1648  225.2367 H   0  0  0  0  0  0  0  0  0  0  0  0
  141.3674   70.9304  224.4161 H   0  0  0  0  0  0  0  0  0  0  0  0
  143.7992   71.7934  217.7746 H   0  0  0  0  0  0  0  0  0  0  0  0
  143.8726   73.1625  218.8925 H   0  0  0  0  0  0  0  0  0  0  0  0
  146.0700   71.9037  218.7751 H   0  0  0  0  0  0  0  0  0  0  0  0
  145.3938   71.8501  220.4136 H   0  0  0  0  0  0  0  0  0  0  0  0
  147.2831   69.8676  219.0555 H   0  0  0  0  0  0  0  0  0  0  0  0
  147.2593   67.3831  218.8761 H   0  0  0  0  0  0  0  0  0  0  0  0
  145.0839   66.1459  219.0024 H   0  0  0  0  0  0  0  0  0  0  0  0
  142.9890   67.4350  219.2995 H   0  0  0  0  0  0  0  0  0  0  0  0
  141.9922   69.8241  218.6483 H   0  0  0  0  0  0  0  0  0  0  0  0
  142.1256   69.6446  220.4176 H   0  0  0  0  0  0  0  0  0  0  0  0
  143.1615   76.4884  220.4717 H   0  0  0  0  0  0  0  0  0  0  0  0
  142.1104   75.6119  219.3238 H   0  0  0  0  0  0  0  0  0  0  0  0
  141.9727   78.0939  219.0093 H   0  0  0  0  0  0  0  0  0  0  0  0
  140.4012   77.4202  219.4936 H   0  0  0  0  0  0  0  0  0  0  0  0
  142.0845   80.2500  220.0523 H   0  0  0  0  0  0  0  0  0  0  0  0
  142.1050   81.6160  222.1499 H   0  0  0  0  0  0  0  0  0  0  0  0
  141.4918   80.5351  224.2739 H   0  0  0  0  0  0  0  0  0  0  0  0
  140.8527   78.1439  224.4057 H   0  0  0  0  0  0  0  0  0  0  0  0
  141.0394   76.0653  223.3151 H   0  0  0  0  0  0  0  0  0  0  0  0
  139.6602   76.3838  222.1919 H   0  0  0  0  0  0  0  0  0  0  0  0
  137.7130   72.1131  223.3048 H   0  0  0  0  0  0  0  0  0  0  0  0
  138.2612   71.2253  221.8626 H   0  0  0  0  0  0  0  0  0  0  0  0
  137.0095   69.7170  223.4189 H   0  0  0  0  0  0  0  0  0  0  0  0
  138.6940   69.1908  223.2985 H   0  0  0  0  0  0  0  0  0  0  0  0
  1  2  1  0
  2  3  1  0
  3  4  1  0
  4  5  1  0
  5  6  1  0
  6  7  1  0
  7  8  2  0
  8  9  1  0
  9 10  1  0
 10 11  1  0
 11 12  1  0
 12 13  1  0
 13 14  2  0
 14 15  1  0
 15 16  2  0
 16 17  1  0
 17 18  2  0
 18 19  1  0
  9 20  2  0
 20 21  1  0
 21 22  1  0
 22 23  1  0
 23 24  1  0
 24 25  1  0
 25 26  2  0
 26 27  1  0
 27 28  2  0
 28 29  1  0
 29 30  2  0
 30 31  1  0
 21 32  2  0
  6 33  1  0
 33 34  1  0
 34 35  1  0
 35  4  1  0
 32  7  1  0
 19 10  1  0
 31 22  1  0
 18 13  1  0
 30 25  1  0
  1 36  1  0
  1 37  1  0
  1 38  1  0
  2 39  1  0
  2 40  1  0
  3 41  1  0
  4 42  1  6
  5 43  1  0
  5 44  1  0
 11 45  1  0
 11 46  1  0
 12 47  1  0
 12 48  1  0
 14 49  1  0
 15 50  1  0
 16 51  1  0
 17 52  1  0
 19 53  1  0
 19 54  1  0
 23 55  1  0
 23 56  1  0
 24 57  1  0
 24 58  1  0
 26 59  1  0
 27 60  1  0
 28 61  1  0
 29 62  1  0
 31 63  1  0
 31 64  1  0
 33 65  1  0
 33 66  1  0
 34 67  1  0
 34 68  1  0
M  END
>  <smiles>  (14) 
CCNC1CN(c2nc(N3CCc4ccccc4C3)nc(N3CCc4ccccc4C3)n2)CCO1

>  <score_type>  (14) 
oracle

>  <origin>  (14) 
autodockgpu

>  <m_score__min__energy>  (14) 
-9.6099999999999994

>  <m_primary>  (14) 
energy

>  <rmsd>  (14) 
8.237086279079453

>  <m_score__min__rmsd>  (14) 
8.237086279079453

>  <meeko>  (14) 
{"free_energy": -9.22, "intermolecular_energy": -10.71, "internal_energy": -1.05, "cluster_size": 7, "cluster_id": 2, "rank_in_cluster": 3}

>  <energy>  (14) 
-9.43

>  <cluster_rmsd>  (14) 
1.71

>  <cluster>  (14) 
1

$$$$

     RDKit          3D

 68 73  0  0  1  0  0  0  0  0999 V2000
  145.2230   74.5200  215.9870 C   0  0  0  0  0  0  0  0  0  0  0  0
  146.4610   73.7700  216.3790 C   0  0  0  0  0  0  0  0  0  0  0  0
  146.4690   73.3900  217.7710 N   0  0  0  0  0  0  0  0  0  0  0  0
  145.2180   72.7900  218.1460 C   0  0  2  0  0  0  0  0  0  0  0  0
  144.5620   73.4860  219.3140 C   0  0  0  0  0  0  0  0  0  0  0  0
  143.5720   72.6410  219.9600 N   0  0  0  0  0  0  0  0  0  0  0  0
  142.5520   73.2370  220.7680 C   0  0  0  0  0  0  0  0  0  0  0  0
  141.7570   72.4610  221.5420 N   0  0  0  0  0  0  0  0  0  0  0  0
  140.7920   72.9700  222.3130 C   0  0  0  0  0  0  0  0  0  0  0  0
  139.9840   72.1120  223.1070 N   0  0  0  0  0  0  0  0  0  0  0  0
  138.7920   71.4970  222.5430 C   0  0  0  0  0  0  0  0  0  0  0  0
  139.0990   70.0160  222.4500 C   0  0  0  0  0  0  0  0  0  0  0  0
  139.4540   69.5760  223.8280 C   0  0  0  0  0  0  0  0  0  0  0  0
  139.1960   68.2560  224.1850 C   0  0  0  0  0  0  0  0  0  0  0  0
  139.5070   67.7800  225.4620 C   0  0  0  0  0  0  0  0  0  0  0  0
  140.0850   68.6330  226.3960 C   0  0  0  0  0  0  0  0  0  0  0  0
  140.3360   69.9390  226.0240 C   0  0  0  0  0  0  0  0  0  0  0  0
  140.0290   70.4190  224.7590 C   0  0  0  0  0  0  0  0  0  0  0  0
  140.3460   71.8440  224.4780 C   0  0  0  0  0  0  0  0  0  0  0  0
  140.6240   74.3000  222.3010 N   0  0  0  0  0  0  0  0  0  0  0  0
  141.4140   75.0860  221.5290 C   0  0  0  0  0  0  0  0  0  0  0  0
  141.1790   76.5010  221.5590 N   0  0  0  0  0  0  0  0  0  0  0  0
  141.0740   77.2000  220.2970 C   0  0  0  0  0  0  0  0  0  0  0  0
  140.1030   78.3460  220.4750 C   0  0  0  0  0  0  0  0  0  0  0  0
  140.6410   79.2000  221.5660 C   0  0  0  0  0  0  0  0  0  0  0  0
  140.6920   80.5830  221.4690 C   0  0  0  0  0  0  0  0  0  0  0  0
  141.2020   81.3530  222.5110 C   0  0  0  0  0  0  0  0  0  0  0  0
  141.6500   80.6970  223.6320 C   0  0  0  0  0  0  0  0  0  0  0  0
  141.6210   79.3260  223.7800 C   0  0  0  0  0  0  0  0  0  0  0  0
  141.1050   78.6030  222.7160 C   0  0  0  0  0  0  0  0  0  0  0  0
  141.0640   77.1390  222.8490 C   0  0  0  0  0  0  0  0  0  0  0  0
  142.3770   74.5470  220.7630 N   0  0  0  0  0  0  0  0  0  0  0  0
  143.5900   71.1860  219.8050 C   0  0  0  0  0  0  0  0  0  0  0  0
  144.1130   70.8900  218.4150 C   0  0  0  0  0  0  0  0  0  0  0  0
  145.4140   71.4410  218.3710 O   0  0  0  0  0  0  0  0  0  0  0  0
  144.6884   74.8438  216.8922 H   0  0  0  0  0  0  0  0  0  0  0  0
  145.5016   75.4013  215.3906 H   0  0  0  0  0  0  0  0  0  0  0  0
  144.5709   73.8650  215.3906 H   0  0  0  0  0  0  0  0  0  0  0  0
  146.5287   72.8592  215.7659 H   0  0  0  0  0  0  0  0  0  0  0  0
  147.3187   74.4386  216.2139 H   0  0  0  0  0  0  0  0  0  0  0  0
  146.8230   74.1190  218.3980 H   0  0  0  0  0  0  0  0  0  0  0  0
  144.5074   72.9104  217.3150 H   0  0  0  0  0  0  0  0  0  0  0  0
  145.3355   73.7537  220.0489 H   0  0  0  0  0  0  0  0  0  0  0  0
  144.0501   74.3824  218.9338 H   0  0  0  0  0  0  0  0  0  0  0  0
  137.9254   71.6685  223.1983 H   0  0  0  0  0  0  0  0  0  0  0  0
  138.5425   71.9222  221.5597 H   0  0  0  0  0  0  0  0  0  0  0  0
  138.2171   69.4660  222.0898 H   0  0  0  0  0  0  0  0  0  0  0  0
  139.9196   69.8211  221.7439 H   0  0  0  0  0  0  0  0  0  0  0  0
  138.7399   67.5761  223.4504 H   0  0  0  0  0  0  0  0  0  0  0  0
  139.2952   66.7337  225.7274 H   0  0  0  0  0  0  0  0  0  0  0  0
  140.3360   68.2763  227.4058 H   0  0  0  0  0  0  0  0  0  0  0  0
  140.7945   70.6213  226.7549 H   0  0  0  0  0  0  0  0  0  0  0  0
  139.7703   72.4957  225.1517 H   0  0  0  0  0  0  0  0  0  0  0  0
  141.4164   72.0395  224.6391 H   0  0  0  0  0  0  0  0  0  0  0  0
  142.0600   77.5888  220.0028 H   0  0  0  0  0  0  0  0  0  0  0  0
  140.7184   76.5173  219.5112 H   0  0  0  0  0  0  0  0  0  0  0  0
  140.0266   78.9256  219.5432 H   0  0  0  0  0  0  0  0  0  0  0  0
  139.0973   77.9759  220.7233 H   0  0  0  0  0  0  0  0  0  0  0  0
  140.3250   81.0774  220.5575 H   0  0  0  0  0  0  0  0  0  0  0  0
  141.2448   82.4498  222.4391 H   0  0  0  0  0  0  0  0  0  0  0  0
  142.0548   81.2995  224.4585 H   0  0  0  0  0  0  0  0  0  0  0  0
  141.9874   78.8333  224.6927 H   0  0  0  0  0  0  0  0  0  0  0  0
  141.8974   76.8120  223.4881 H   0  0  0  0  0  0  0  0  0  0  0  0
  140.1010   76.8537  223.2975 H   0  0  0  0  0  0  0  0  0  0  0  0
  144.2504   70.7347  220.5601 H   0  0  0  0  0  0  0  0  0  0  0  0
  142.5822   70.7665  219.9405 H   0  0  0  0  0  0  0  0  0  0  0  0
  144.1502   69.8043  218.2422 H   0  0  0  0  0  0  0  0  0  0  0  0
  143.4639   71.3183  217.6370 H   0  0  0  0  0  0  0  0  0  0  0  0
  1  2  1  0
  2  3  1  0
  3  4  1  0
  4  5  1  0
  5  6  1  0
  6  7  1  0
  7  8  2  0
  8  9  1  0
  9 10  1  0
 10 11  1  0
 11 12  1  0
 12 13  1  0
 13 14  2  0
 14 15  1  0
 15 16  2  0
 16 17  1  0
 17 18  2  0
 18 19  1  0
  9 20  2  0
 20 21  1  0
 21 22  1  0
 22 23  1  0
 23 24  1  0
 24 25  1  0
 25 26  2  0
 26 27  1  0
 27 28  2  0
 28 29  1  0
 29 30  2  0
 30 31  1  0
 21 32  2  0
  6 33  1  0
 33 34  1  0
 34 35  1  0
 35  4  1  0
 32  7  1  0
 19 10  1  0
 31 22  1  0
 18 13  1  0
 30 25  1  0
  1 36  1  0
  1 37  1  0
  1 38  1  0
  2 39  1  0
  2 40  1  0
  3 41  1  0
  4 42  1  6
  5 43  1  0
  5 44  1  0
 11 45  1  0
 11 46  1  0
 12 47  1  0
 12 48  1  0
 14 49  1  0
 15 50  1  0
 16 51  1  0
 17 52  1  0
 19 53  1  0
 19 54  1  0
 23 55  1  0
 23 56  1  0
 24 57  1  0
 24 58  1  0
 26 59  1  0
 27 60  1  0
 28 61  1  0
 29 62  1  0
 31 63  1  0
 31 64  1  0
 33 65  1  0
 33 66  1  0
 34 67  1  0
 34 68  1  0
M  END
>  <smiles>  (15) 
CCNC1CN(c2nc(N3CCc4ccccc4C3)nc(N3CCc4ccccc4C3)n2)CCO1

>  <score_type>  (15) 
oracle

>  <origin>  (15) 
autodockgpu

>  <m_score__min__energy>  (15) 
-9.6099999999999994

>  <m_primary>  (15) 
energy

>  <rmsd>  (15) 
7.496389737642753

>  <m_score__min__rmsd>  (15) 
7.496389737642753

>  <meeko>  (15) 
{"free_energy": -9.39, "intermolecular_energy": -10.88, "internal_energy": -1.05, "cluster_size": 40, "cluster_id": 1, "rank_in_cluster": 16}

>  <energy>  (15) 
-9.41

>  <cluster_rmsd>  (15) 
1.63

>  <cluster>  (15) 
1

$$$$

     RDKit          3D

 68 73  0  0  1  0  0  0  0  0999 V2000
  145.8980   68.4930  219.2920 C   0  0  0  0  0  0  0  0  0  0  0  0
  144.9630   69.4350  218.5950 C   0  0  0  0  0  0  0  0  0  0  0  0
  145.5650   70.7140  218.3100 N   0  0  0  0  0  0  0  0  0  0  0  0
  145.3720   71.6270  219.4030 C   0  0  2  0  0  0  0  0  0  0  0  0
  143.9580   72.1480  219.4900 C   0  0  0  0  0  0  0  0  0  0  0  0
  143.8780   73.3670  220.2760 N   0  0  0  0  0  0  0  0  0  0  0  0
  142.6260   73.7630  220.8440 C   0  0  0  0  0  0  0  0  0  0  0  0
  142.2680   75.0680  220.8610 N   0  0  0  0  0  0  0  0  0  0  0  0
  141.1100   75.4860  221.3800 C   0  0  0  0  0  0  0  0  0  0  0  0
  140.7830   76.8700  221.3750 N   0  0  0  0  0  0  0  0  0  0  0  0
  139.4030   77.2980  221.5450 C   0  0  0  0  0  0  0  0  0  0  0  0
  139.3490   77.9770  222.9000 C   0  0  0  0  0  0  0  0  0  0  0  0
  140.3570   79.0710  222.8590 C   0  0  0  0  0  0  0  0  0  0  0  0
  140.1390   80.1980  223.6460 C   0  0  0  0  0  0  0  0  0  0  0  0
  141.0480   81.2590  223.6550 C   0  0  0  0  0  0  0  0  0  0  0  0
  142.1930   81.1960  222.8670 C   0  0  0  0  0  0  0  0  0  0  0  0
  142.3940   80.0700  222.0930 C   0  0  0  0  0  0  0  0  0  0  0  0
  141.4960   79.0130  222.0790 C   0  0  0  0  0  0  0  0  0  0  0  0
  141.8220   77.8560  221.2040 C   0  0  0  0  0  0  0  0  0  0  0  0
  140.2900   74.5600  221.8950 N   0  0  0  0  0  0  0  0  0  0  0  0
  140.6380   73.2500  221.8830 C   0  0  0  0  0  0  0  0  0  0  0  0
  139.7170   72.3100  222.4550 N   0  0  0  0  0  0  0  0  0  0  0  0
  138.3020   72.5650  222.3000 C   0  0  0  0  0  0  0  0  0  0  0  0
  137.5920   71.2320  222.2100 C   0  0  0  0  0  0  0  0  0  0  0  0
  137.9130   70.4890  223.4560 C   0  0  0  0  0  0  0  0  0  0  0  0
  136.9460   69.8150  224.1880 C   0  0  0  0  0  0  0  0  0  0  0  0
  137.2820   69.1280  225.3510 C   0  0  0  0  0  0  0  0  0  0  0  0
  138.5980   69.1410  225.7450 C   0  0  0  0  0  0  0  0  0  0  0  0
  139.5980   69.7940  225.0550 C   0  0  0  0  0  0  0  0  0  0  0  0
  139.2150   70.4640  223.9040 C   0  0  0  0  0  0  0  0  0  0  0  0
  140.2620   71.1680  223.1500 C   0  0  0  0  0  0  0  0  0  0  0  0
  141.8100   72.8570  221.3550 N   0  0  0  0  0  0  0  0  0  0  0  0
  145.0550   74.2080  220.5040 C   0  0  0  0  0  0  0  0  0  0  0  0
  146.2570   73.2890  220.5700 C   0  0  0  0  0  0  0  0  0  0  0  0
  146.3090   72.6400  219.3150 O   0  0  0  0  0  0  0  0  0  0  0  0
  145.7870   68.6048  220.3807 H   0  0  0  0  0  0  0  0  0  0  0  0
  145.6591   67.4588  219.0034 H   0  0  0  0  0  0  0  0  0  0  0  0
  146.9340   68.7242  219.0034 H   0  0  0  0  0  0  0  0  0  0  0  0
  144.6459   68.9771  217.6465 H   0  0  0  0  0  0  0  0  0  0  0  0
  144.1114   69.6134  219.2680 H   0  0  0  0  0  0  0  0  0  0  0  0
  145.3440   71.0780  217.3770 H   0  0  0  0  0  0  0  0  0  0  0  0
  145.5256   71.0824  220.3463 H   0  0  0  0  0  0  0  0  0  0  0  0
  143.5921   72.3554  218.4736 H   0  0  0  0  0  0  0  0  0  0  0  0
  143.3420   71.3823  219.9842 H   0  0  0  0  0  0  0  0  0  0  0  0
  139.1196   78.0040  220.7505 H   0  0  0  0  0  0  0  0  0  0  0  0
  138.7045   76.4502  221.4871 H   0  0  0  0  0  0  0  0  0  0  0  0
  138.3454   78.3902  223.0793 H   0  0  0  0  0  0  0  0  0  0  0  0
  139.5626   77.2666  223.7122 H   0  0  0  0  0  0  0  0  0  0  0  0
  139.2359   80.2543  224.2714 H   0  0  0  0  0  0  0  0  0  0  0  0
  140.8589   82.1418  224.2834 H   0  0  0  0  0  0  0  0  0  0  0  0
  142.9195   82.0219  222.8607 H   0  0  0  0  0  0  0  0  0  0  0  0
  143.2963   80.0094  221.4668 H   0  0  0  0  0  0  0  0  0  0  0  0
  141.8616   78.1802  220.1536 H   0  0  0  0  0  0  0  0  0  0  0  0
  142.8016   77.4339  221.4727 H   0  0  0  0  0  0  0  0  0  0  0  0
  137.9276   73.1293  223.1668 H   0  0  0  0  0  0  0  0  0  0  0  0
  138.1185   73.1570  221.3912 H   0  0  0  0  0  0  0  0  0  0  0  0
  136.5058   71.3862  222.1304 H   0  0  0  0  0  0  0  0  0  0  0  0
  137.9172   70.6711  221.3214 H   0  0  0  0  0  0  0  0  0  0  0  0
  135.9009   69.8237  223.8450 H   0  0  0  0  0  0  0  0  0  0  0  0
  136.5192   68.5925  225.9352 H   0  0  0  0  0  0  0  0  0  0  0  0
  138.8698   68.5997  226.6632 H   0  0  0  0  0  0  0  0  0  0  0  0
  140.6426   69.7835  225.3996 H   0  0  0  0  0  0  0  0  0  0  0  0
  141.0408   71.5092  223.8479 H   0  0  0  0  0  0  0  0  0  0  0  0
  140.6870   70.4754  222.4086 H   0  0  0  0  0  0  0  0  0  0  0  0
  145.1727   74.9235  219.6768 H   0  0  0  0  0  0  0  0  0  0  0  0
  144.9503   74.7810  221.4371 H   0  0  0  0  0  0  0  0  0  0  0  0
  147.1755   73.8699  220.7402 H   0  0  0  0  0  0  0  0  0  0  0  0
  146.1738   72.5689  221.3974 H   0  0  0  0  0  0  0  0  0  0  0  0
  1  2  1  0
  2  3  1  0
  3  4  1  0
  4  5  1  0
  5  6  1  0
  6  7  1  0
  7  8  2  0
  8  9  1  0
  9 10  1  0
 10 11  1  0
 11 12  1  0
 12 13  1  0
 13 14  2  0
 14 15  1  0
 15 16  2  0
 16 17  1  0
 17 18  2  0
 18 19  1  0
  9 20  2  0
 20 21  1  0
 21 22  1  0
 22 23  1  0
 23 24  1  0
 24 25  1  0
 25 26  2  0
 26 27  1  0
 27 28  2  0
 28 29  1  0
 29 30  2  0
 30 31  1  0
 21 32  2  0
  6 33  1  0
 33 34  1  0
 34 35  1  0
 35  4  1  0
 32  7  1  0
 19 10  1  0
 31 22  1  0
 18 13  1  0
 30 25  1  0
  1 36  1  0
  1 37  1  0
  1 38  1  0
  2 39  1  0
  2 40  1  0
  3 41  1  0
  4 42  1  1
  5 43  1  0
  5 44  1  0
 11 45  1  0
 11 46  1  0
 12 47  1  0
 12 48  1  0
 14 49  1  0
 15 50  1  0
 16 51  1  0
 17 52  1  0
 19 53  1  0
 19 54  1  0
 23 55  1  0
 23 56  1  0
 24 57  1  0
 24 58  1  0
 26 59  1  0
 27 60  1  0
 28 61  1  0
 29 62  1  0
 31 63  1  0
 31 64  1  0
 33 65  1  0
 33 66  1  0
 34 67  1  0
 34 68  1  0
M  END
>  <smiles>  (16) 
CCNC1CN(c2nc(N3CCc4ccccc4C3)nc(N3CCc4ccccc4C3)n2)CCO1

>  <score_type>  (16) 
oracle

>  <origin>  (16) 
autodockgpu

>  <m_score__min__energy>  (16) 
-9.6099999999999994

>  <m_primary>  (16) 
energy

>  <rmsd>  (16) 
9.039100418740645

>  <m_score__min__rmsd>  (16) 
9.039100418740645

>  <meeko>  (16) 
{"free_energy": -9.36, "intermolecular_energy": -10.86, "internal_energy": -1.03, "cluster_size": 40, "cluster_id": 1, "rank_in_cluster": 17}

>  <energy>  (16) 
-9.39

>  <cluster_rmsd>  (16) 
0.27

>  <cluster>  (16) 
1

$$$$

     RDKit          3D

 68 73  0  0  1  0  0  0  0  0999 V2000
  142.3590   79.8330  223.0300 C   0  0  0  0  0  0  0  0  0  0  0  0
  141.6940   80.0200  221.6990 C   0  0  0  0  0  0  0  0  0  0  0  0
  141.6970   78.8210  220.8980 N   0  0  0  0  0  0  0  0  0  0  0  0
  140.9000   77.7930  221.5100 C   0  0  2  0  0  0  0  0  0  0  0  0
  141.3970   76.4030  221.1980 C   0  0  0  0  0  0  0  0  0  0  0  0
  140.3730   75.3980  221.4250 N   0  0  0  0  0  0  0  0  0  0  0  0
  140.7510   74.0320  221.6210 C   0  0  0  0  0  0  0  0  0  0  0  0
  141.4850   73.3880  220.6840 N   0  0  0  0  0  0  0  0  0  0  0  0
  141.8620   72.1130  220.8230 C   0  0  0  0  0  0  0  0  0  0  0  0
  142.6320   71.4810  219.8080 N   0  0  0  0  0  0  0  0  0  0  0  0
  143.5920   72.2490  219.0310 C   0  0  0  0  0  0  0  0  0  0  0  0
  144.9580   71.7400  219.4480 C   0  0  0  0  0  0  0  0  0  0  0  0
  144.9530   70.2730  219.1900 C   0  0  0  0  0  0  0  0  0  0  0  0
  146.1620   69.6530  218.8910 C   0  0  0  0  0  0  0  0  0  0  0  0
  146.2260   68.2790  218.6400 C   0  0  0  0  0  0  0  0  0  0  0  0
  145.0670   67.5130  218.6890 C   0  0  0  0  0  0  0  0  0  0  0  0
  143.8750   68.1450  218.9880 C   0  0  0  0  0  0  0  0  0  0  0  0
  143.8040   69.5080  219.2380 C   0  0  0  0  0  0  0  0  0  0  0  0
  142.4640   70.0720  219.5470 C   0  0  0  0  0  0  0  0  0  0  0  0
  141.4860   71.4720  221.9380 N   0  0  0  0  0  0  0  0  0  0  0  0
  140.7500   72.1080  222.8820 C   0  0  0  0  0  0  0  0  0  0  0  0
  140.3780   71.3630  224.0510 N   0  0  0  0  0  0  0  0  0  0  0  0
  139.3390   70.3660  223.9190 C   0  0  0  0  0  0  0  0  0  0  0  0
  139.6400   69.2440  224.8870 C   0  0  0  0  0  0  0  0  0  0  0  0
  139.6930   69.8490  226.2440 C   0  0  0  0  0  0  0  0  0  0  0  0
  139.0650   69.2720  227.3380 C   0  0  0  0  0  0  0  0  0  0  0  0
  139.1350   69.8650  228.5950 C   0  0  0  0  0  0  0  0  0  0  0  0
  139.8440   71.0360  228.7120 C   0  0  0  0  0  0  0  0  0  0  0  0
  140.4870   71.6510  227.6580 C   0  0  0  0  0  0  0  0  0  0  0  0
  140.3880   71.0220  226.4270 C   0  0  0  0  0  0  0  0  0  0  0  0
  141.0640   71.6580  225.2870 C   0  0  0  0  0  0  0  0  0  0  0  0
  140.3850   73.3900  222.7170 N   0  0  0  0  0  0  0  0  0  0  0  0
  138.9520   75.7500  221.4570 C   0  0  0  0  0  0  0  0  0  0  0  0
  138.8480   77.1450  222.0360 C   0  0  0  0  0  0  0  0  0  0  0  0
  139.5760   77.9770  221.1550 O   0  0  0  0  0  0  0  0  0  0  0  0
  141.6355   80.0365  223.8332 H   0  0  0  0  0  0  0  0  0  0  0  0
  142.7215   78.7981  223.1166 H   0  0  0  0  0  0  0  0  0  0  0  0
  143.2078   80.5273  223.1166 H   0  0  0  0  0  0  0  0  0  0  0  0
  140.6513   80.3272  221.8675 H   0  0  0  0  0  0  0  0  0  0  0  0
  142.2622   80.7856  221.1503 H   0  0  0  0  0  0  0  0  0  0  0  0
  142.6290   78.5370  220.5800 H   0  0  0  0  0  0  0  0  0  0  0  0
  140.9903   77.8829  222.6026 H   0  0  0  0  0  0  0  0  0  0  0  0
  141.7057   76.3642  220.1429 H   0  0  0  0  0  0  0  0  0  0  0  0
  142.2427   76.1852  221.8669 H   0  0  0  0  0  0  0  0  0  0  0  0
  143.4335   72.0848  217.9549 H   0  0  0  0  0  0  0  0  0  0  0  0
  143.4888   73.3292  219.2112 H   0  0  0  0  0  0  0  0  0  0  0  0
  145.7444   72.2287  218.8540 H   0  0  0  0  0  0  0  0  0  0  0  0
  145.1609   71.9595  220.5066 H   0  0  0  0  0  0  0  0  0  0  0  0
  147.0827   70.2536  218.8514 H   0  0  0  0  0  0  0  0  0  0  0  0
  147.1906   67.8056  218.4045 H   0  0  0  0  0  0  0  0  0  0  0  0
  145.0979   66.4308  218.4946 H   0  0  0  0  0  0  0  0  0  0  0  0
  142.9521   67.5479  219.0292 H   0  0  0  0  0  0  0  0  0  0  0  0
  141.7897   69.9273  218.6900 H   0  0  0  0  0  0  0  0  0  0  0  0
  142.0252   69.5675  220.4204 H   0  0  0  0  0  0  0  0  0  0  0  0
  138.3619   70.8118  224.1569 H   0  0  0  0  0  0  0  0  0  0  0  0
  139.3071   69.9825  222.8885 H   0  0  0  0  0  0  0  0  0  0  0  0
  138.8471   68.4828  224.8426 H   0  0  0  0  0  0  0  0  0  0  0  0
  140.5916   68.7522  224.6370 H   0  0  0  0  0  0  0  0  0  0  0  0
  138.5047   68.3340  227.2104 H   0  0  0  0  0  0  0  0  0  0  0  0
  138.6392   69.4113  229.4659 H   0  0  0  0  0  0  0  0  0  0  0  0
  139.9022   71.5102  229.7028 H   0  0  0  0  0  0  0  0  0  0  0  0
  141.0473   72.5887  227.7873 H   0  0  0  0  0  0  0  0  0  0  0  0
  141.0792   72.7473  225.4393 H   0  0  0  0  0  0  0  0  0  0  0  0
  142.0892   71.2647  225.2224 H   0  0  0  0  0  0  0  0  0  0  0  0
  138.5367   75.7330  220.4385 H   0  0  0  0  0  0  0  0  0  0  0  0
  138.3858   75.0312  222.0675 H   0  0  0  0  0  0  0  0  0  0  0  0
  137.7962   77.4635  222.0839 H   0  0  0  0  0  0  0  0  0  0  0  0
  139.2448   77.1911  223.0609 H   0  0  0  0  0  0  0  0  0  0  0  0
  1  2  1  0
  2  3  1  0
  3  4  1  0
  4  5  1  0
  5  6  1  0
  6  7  1  0
  7  8  2  0
  8  9  1  0
  9 10  1  0
 10 11  1  0
 11 12  1  0
 12 13  1  0
 13 14  2  0
 14 15  1  0
 15 16  2  0
 16 17  1  0
 17 18  2  0
 18 19  1  0
  9 20  2  0
 20 21  1  0
 21 22  1  0
 22 23  1  0
 23 24  1  0
 24 25  1  0
 25 26  2  0
 26 27  1  0
 27 28  2  0
 28 29  1  0
 29 30  2  0
 30 31  1  0
 21 32  2  0
  6 33  1  0
 33 34  1  0
 34 35  1  0
 35  4  1  0
 32  7  1  0
 19 10  1  0
 31 22  1  0
 18 13  1  0
 30 25  1  0
  1 36  1  0
  1 37  1  0
  1 38  1  0
  2 39  1  0
  2 40  1  0
  3 41  1  0
  4 42  1  1
  5 43  1  0
  5 44  1  0
 11 45  1  0
 11 46  1  0
 12 47  1  0
 12 48  1  0
 14 49  1  0
 15 50  1  0
 16 51  1  0
 17 52  1  0
 19 53  1  0
 19 54  1  0
 23 55  1  0
 23 56  1  0
 24 57  1  0
 24 58  1  0
 26 59  1  0
 27 60  1  0
 28 61  1  0
 29 62  1  0
 31 63  1  0
 31 64  1  0
 33 65  1  0
 33 66  1  0
 34 67  1  0
 34 68  1  0
M  END
>  <smiles>  (17) 
CCNC1CN(c2nc(N3CCc4ccccc4C3)nc(N3CCc4ccccc4C3)n2)CCO1

>  <score_type>  (17) 
oracle

>  <origin>  (17) 
autodockgpu

>  <m_score__min__energy>  (17) 
-9.6099999999999994

>  <m_primary>  (17) 
energy

>  <rmsd>  (17) 
2.389790153284375

>  <m_score__min__rmsd>  (17) 
2.389790153284375

>  <meeko>  (17) 
{"free_energy": -9.03, "intermolecular_energy": -10.53, "internal_energy": -1.01, "cluster_size": 2, "cluster_id": 4, "rank_in_cluster": 1}

>  <energy>  (17) 
-9.36

>  <cluster_rmsd>  (17) 
1.56

>  <cluster>  (17) 
1

$$$$

     RDKit          3D

 68 73  0  0  1  0  0  0  0  0999 V2000
  145.0240   74.5410  216.0660 C   0  0  0  0  0  0  0  0  0  0  0  0
  146.2260   73.7710  216.5260 C   0  0  0  0  0  0  0  0  0  0  0  0
  146.1490   73.3880  217.9140 N   0  0  0  0  0  0  0  0  0  0  0  0
  144.9210   72.6910  218.1870 C   0  0  2  0  0  0  0  0  0  0  0  0
  144.2620   73.1440  219.4660 C   0  0  0  0  0  0  0  0  0  0  0  0
  143.3070   72.1670  219.9580 N   0  0  0  0  0  0  0  0  0  0  0  0
  142.2810   72.5740  220.8680 C   0  0  0  0  0  0  0  0  0  0  0  0
  141.7180   73.8000  220.7560 N   0  0  0  0  0  0  0  0  0  0  0  0
  140.7570   74.2250  221.5810 C   0  0  0  0  0  0  0  0  0  0  0  0
  140.2000   75.5230  221.4210 N   0  0  0  0  0  0  0  0  0  0  0  0
  138.7570   75.7070  221.4180 C   0  0  0  0  0  0  0  0  0  0  0  0
  138.4360   76.4590  222.6950 C   0  0  0  0  0  0  0  0  0  0  0  0
  139.2400   77.7120  222.6540 C   0  0  0  0  0  0  0  0  0  0  0  0
  138.7450   78.8330  223.3120 C   0  0  0  0  0  0  0  0  0  0  0  0
  139.4520   80.0400  223.3130 C   0  0  0  0  0  0  0  0  0  0  0  0
  140.6710   80.1280  222.6490 C   0  0  0  0  0  0  0  0  0  0  0  0
  141.1470   79.0040  222.0020 C   0  0  0  0  0  0  0  0  0  0  0  0
  140.4510   77.8040  221.9950 C   0  0  0  0  0  0  0  0  0  0  0  0
  141.0670   76.6660  221.2630 C   0  0  0  0  0  0  0  0  0  0  0  0
  140.3540   73.3890  222.5480 N   0  0  0  0  0  0  0  0  0  0  0  0
  140.9110   72.1590  222.6710 C   0  0  0  0  0  0  0  0  0  0  0  0
  140.4380   71.3150  223.7290 N   0  0  0  0  0  0  0  0  0  0  0  0
  139.1440   70.6880  223.5720 C   0  0  0  0  0  0  0  0  0  0  0  0
  139.1830   69.3480  224.2730 C   0  0  0  0  0  0  0  0  0  0  0  0
  139.5270   69.6170  225.6940 C   0  0  0  0  0  0  0  0  0  0  0  0
  138.8530   69.0150  226.7460 C   0  0  0  0  0  0  0  0  0  0  0  0
  139.2020   69.2880  228.0660 C   0  0  0  0  0  0  0  0  0  0  0  0
  140.2310   70.1700  228.2870 C   0  0  0  0  0  0  0  0  0  0  0  0
  140.9340   70.7960  227.2780 C   0  0  0  0  0  0  0  0  0  0  0  0
  140.5500   70.4910  225.9810 C   0  0  0  0  0  0  0  0  0  0  0  0
  141.2830   71.1460  224.8880 C   0  0  0  0  0  0  0  0  0  0  0  0
  141.8760   71.7580  221.8260 N   0  0  0  0  0  0  0  0  0  0  0  0
  143.3660   70.7640  219.5430 C   0  0  0  0  0  0  0  0  0  0  0  0
  143.8780   70.7390  218.1180 C   0  0  0  0  0  0  0  0  0  0  0  0
  145.1610   71.3300  218.1630 O   0  0  0  0  0  0  0  0  0  0  0  0
  144.4623   74.9008  216.9406 H   0  0  0  0  0  0  0  0  0  0  0  0
  145.3485   75.3997  215.4600 H   0  0  0  0  0  0  0  0  0  0  0  0
  144.3796   73.8872  215.4600 H   0  0  0  0  0  0  0  0  0  0  0  0
  146.3147   72.8606  215.9150 H   0  0  0  0  0  0  0  0  0  0  0  0
  147.1017   74.4269  216.4124 H   0  0  0  0  0  0  0  0  0  0  0  0
  146.3920   74.1400  218.5660 H   0  0  0  0  0  0  0  0  0  0  0  0
  144.1943   72.9367  217.3986 H   0  0  0  0  0  0  0  0  0  0  0  0
  145.0378   73.2993  220.2303 H   0  0  0  0  0  0  0  0  0  0  0  0
  143.7185   74.0774  219.2577 H   0  0  0  0  0  0  0  0  0  0  0  0
  138.4470   76.2926  220.5399 H   0  0  0  0  0  0  0  0  0  0  0  0
  138.2254   74.7452  221.3689 H   0  0  0  0  0  0  0  0  0  0  0  0
  137.3627   76.6961  222.7381 H   0  0  0  0  0  0  0  0  0  0  0  0
  138.6761   75.8582  223.5846 H   0  0  0  0  0  0  0  0  0  0  0  0
  137.7821   78.7694  223.8400 H   0  0  0  0  0  0  0  0  0  0  0  0
  139.0450   80.9171  223.8375 H   0  0  0  0  0  0  0  0  0  0  0  0
  141.2414   81.0685  222.6393 H   0  0  0  0  0  0  0  0  0  0  0  0
  142.1105   79.0625  221.4745 H   0  0  0  0  0  0  0  0  0  0  0  0
  141.1666   76.9163  220.1965 H   0  0  0  0  0  0  0  0  0  0  0  0
  142.0689   76.4481  221.6615 H   0  0  0  0  0  0  0  0  0  0  0  0
  138.3656   71.3217  224.0220 H   0  0  0  0  0  0  0  0  0  0  0  0
  138.9126   70.5534  222.5051 H   0  0  0  0  0  0  0  0  0  0  0  0
  138.2006   68.8575  224.2074 H   0  0  0  0  0  0  0  0  0  0  0  0
  139.9226   68.6801  223.8073 H   0  0  0  0  0  0  0  0  0  0  0  0
  138.0326   68.3132  226.5350 H   0  0  0  0  0  0  0  0  0  0  0  0
  138.6710   68.8129  228.9040 H   0  0  0  0  0  0  0  0  0  0  0  0
  140.5109   70.3901  229.3278 H   0  0  0  0  0  0  0  0  0  0  0  0
  141.7536   71.4981  227.4908 H   0  0  0  0  0  0  0  0  0  0  0  0
  141.6298   72.1331  225.2278 H   0  0  0  0  0  0  0  0  0  0  0  0
  142.1384   70.5129  224.6098 H   0  0  0  0  0  0  0  0  0  0  0  0
  144.0500   70.2055  220.1990 H   0  0  0  0  0  0  0  0  0  0  0  0
  142.3730   70.2954  219.6091 H   0  0  0  0  0  0  0  0  0  0  0  0
  143.9451   69.7037  217.7525 H   0  0  0  0  0  0  0  0  0  0  0  0
  143.2056   71.2790  217.4351 H   0  0  0  0  0  0  0  0  0  0  0  0
  1  2  1  0
  2  3  1  0
  3  4  1  0
  4  5  1  0
  5  6  1  0
  6  7  1  0
  7  8  2  0
  8  9  1  0
  9 10  1  0
 10 11  1  0
 11 12  1  0
 12 13  1  0
 13 14  2  0
 14 15  1  0
 15 16  2  0
 16 17  1  0
 17 18  2  0
 18 19  1  0
  9 20  2  0
 20 21  1  0
 21 22  1  0
 22 23  1  0
 23 24  1  0
 24 25  1  0
 25 26  2  0
 26 27  1  0
 27 28  2  0
 28 29  1  0
 29 30  2  0
 30 31  1  0
 21 32  2  0
  6 33  1  0
 33 34  1  0
 34 35  1  0
 35  4  1  0
 32  7  1  0
 19 10  1  0
 31 22  1  0
 18 13  1  0
 30 25  1  0
  1 36  1  0
  1 37  1  0
  1 38  1  0
  2 39  1  0
  2 40  1  0
  3 41  1  0
  4 42  1  6
  5 43  1  0
  5 44  1  0
 11 45  1  0
 11 46  1  0
 12 47  1  0
 12 48  1  0
 14 49  1  0
 15 50  1  0
 16 51  1  0
 17 52  1  0
 19 53  1  0
 19 54  1  0
 23 55  1  0
 23 56  1  0
 24 57  1  0
 24 58  1  0
 26 59  1  0
 27 60  1  0
 28 61  1  0
 29 62  1  0
 31 63  1  0
 31 64  1  0
 33 65  1  0
 33 66  1  0
 34 67  1  0
 34 68  1  0
M  END
>  <smiles>  (18) 
CCNC1CN(c2nc(N3CCc4ccccc4C3)nc(N3CCc4ccccc4C3)n2)CCO1

>  <score_type>  (18) 
oracle

>  <origin>  (18) 
autodockgpu

>  <m_score__min__energy>  (18) 
-9.6099999999999994

>  <m_primary>  (18) 
energy

>  <rmsd>  (18) 
7.402554452547109

>  <m_score__min__rmsd>  (18) 
7.402554452547109

>  <meeko>  (18) 
{"free_energy": -9.28, "intermolecular_energy": -10.77, "internal_energy": -1.02, "cluster_size": 40, "cluster_id": 1, "rank_in_cluster": 26}

>  <energy>  (18) 
-9.35

>  <cluster_rmsd>  (18) 
1.87

>  <cluster>  (18) 
1

$$$$

     RDKit          3D

 68 73  0  0  1  0  0  0  0  0999 V2000
  146.9680   74.3400  215.6400 C   0  0  0  0  0  0  0  0  0  0  0  0
  146.2490   73.1950  216.2890 C   0  0  0  0  0  0  0  0  0  0  0  0
  146.0010   73.4110  217.6930 N   0  0  0  0  0  0  0  0  0  0  0  0
  144.9140   72.5910  218.1540 C   0  0  2  0  0  0  0  0  0  0  0  0
  144.2150   73.1690  219.3610 C   0  0  0  0  0  0  0  0  0  0  0  0
  143.4480   72.1620  220.0740 N   0  0  0  0  0  0  0  0  0  0  0  0
  142.3890   72.5660  220.9470 C   0  0  0  0  0  0  0  0  0  0  0  0
  141.8080   73.7800  220.7970 N   0  0  0  0  0  0  0  0  0  0  0  0
  140.8160   74.2020  221.5870 C   0  0  0  0  0  0  0  0  0  0  0  0
  140.2420   75.4870  221.3890 N   0  0  0  0  0  0  0  0  0  0  0  0
  138.7980   75.6570  221.4180 C   0  0  0  0  0  0  0  0  0  0  0  0
  138.5050   76.4590  222.6710 C   0  0  0  0  0  0  0  0  0  0  0  0
  139.2950   77.7160  222.5570 C   0  0  0  0  0  0  0  0  0  0  0  0
  138.8070   78.8590  223.1820 C   0  0  0  0  0  0  0  0  0  0  0  0
  139.5020   80.0710  223.1140 C   0  0  0  0  0  0  0  0  0  0  0  0
  140.7010   80.1420  222.4140 C   0  0  0  0  0  0  0  0  0  0  0  0
  141.1710   78.9970  221.8000 C   0  0  0  0  0  0  0  0  0  0  0  0
  140.4870   77.7920  221.8620 C   0  0  0  0  0  0  0  0  0  0  0  0
  141.0930   76.6300  221.1610 C   0  0  0  0  0  0  0  0  0  0  0  0
  140.3980   73.3740  222.5540 N   0  0  0  0  0  0  0  0  0  0  0  0
  140.9720   72.1560  222.7130 C   0  0  0  0  0  0  0  0  0  0  0  0
  140.4810   71.3200  223.7710 N   0  0  0  0  0  0  0  0  0  0  0  0
  139.1830   70.7050  223.6040 C   0  0  0  0  0  0  0  0  0  0  0  0
  139.2020   69.3680  224.3100 C   0  0  0  0  0  0  0  0  0  0  0  0
  139.5360   69.6370  225.7330 C   0  0  0  0  0  0  0  0  0  0  0  0
  138.8470   69.0460  226.7810 C   0  0  0  0  0  0  0  0  0  0  0  0
  139.1870   69.3210  228.1030 C   0  0  0  0  0  0  0  0  0  0  0  0
  140.2230   70.1940  228.3300 C   0  0  0  0  0  0  0  0  0  0  0  0
  140.9410   70.8080  227.3250 C   0  0  0  0  0  0  0  0  0  0  0  0
  140.5650   70.5030  226.0260 C   0  0  0  0  0  0  0  0  0  0  0  0
  141.3140   71.1460  224.9370 C   0  0  0  0  0  0  0  0  0  0  0  0
  141.9690   71.7580  221.9050 N   0  0  0  0  0  0  0  0  0  0  0  0
  143.7330   70.7340  219.9230 C   0  0  0  0  0  0  0  0  0  0  0  0
  144.2110   70.5200  218.5020 C   0  0  0  0  0  0  0  0  0  0  0  0
  145.3770   71.3070  218.3690 O   0  0  0  0  0  0  0  0  0  0  0  0
  147.3825   75.0000  216.4163 H   0  0  0  0  0  0  0  0  0  0  0  0
  147.7851   73.9523  215.0138 H   0  0  0  0  0  0  0  0  0  0  0  0
  146.2638   74.9075  215.0138 H   0  0  0  0  0  0  0  0  0  0  0  0
  145.2842   73.0527  215.7801 H   0  0  0  0  0  0  0  0  0  0  0  0
  146.8935   72.3080  216.2005 H   0  0  0  0  0  0  0  0  0  0  0  0
  145.9620   74.4000  217.9590 H   0  0  0  0  0  0  0  0  0  0  0  0
  144.1402   72.5615  217.3727 H   0  0  0  0  0  0  0  0  0  0  0  0
  144.9695   73.5900  220.0418 H   0  0  0  0  0  0  0  0  0  0  0  0
  143.5187   73.9463  219.0132 H   0  0  0  0  0  0  0  0  0  0  0  0
  138.4579   76.2022  220.5252 H   0  0  0  0  0  0  0  0  0  0  0  0
  138.2751   74.6893  221.4235 H   0  0  0  0  0  0  0  0  0  0  0  0
  137.4310   76.6885  222.7339 H   0  0  0  0  0  0  0  0  0  0  0  0
  138.7756   75.8976  223.5774 H   0  0  0  0  0  0  0  0  0  0  0  0
  137.8595   78.8089  223.7386 H   0  0  0  0  0  0  0  0  0  0  0  0
  139.1009   80.9655  223.6130 H   0  0  0  0  0  0  0  0  0  0  0  0
  141.2616   81.0863  222.3505 H   0  0  0  0  0  0  0  0  0  0  0  0
  142.1189   79.0426  221.2437 H   0  0  0  0  0  0  0  0  0  0  0  0
  141.1613   76.8370  220.0828 H   0  0  0  0  0  0  0  0  0  0  0  0
  142.1071   76.4370  221.5410 H   0  0  0  0  0  0  0  0  0  0  0  0
  138.4065   71.3479  224.0440 H   0  0  0  0  0  0  0  0  0  0  0  0
  138.9608   70.5684  222.5354 H   0  0  0  0  0  0  0  0  0  0  0  0
  138.2152   68.8875  224.2372 H   0  0  0  0  0  0  0  0  0  0  0  0
  139.9393   68.6915  223.8532 H   0  0  0  0  0  0  0  0  0  0  0  0
  138.0217   68.3514  226.5655 H   0  0  0  0  0  0  0  0  0  0  0  0
  138.6438   68.8545  228.9381 H   0  0  0  0  0  0  0  0  0  0  0  0
  140.4955   70.4160  229.3723 H   0  0  0  0  0  0  0  0  0  0  0  0
  141.7666   71.5016  227.5423 H   0  0  0  0  0  0  0  0  0  0  0  0
  141.6687   72.1304  225.2762 H   0  0  0  0  0  0  0  0  0  0  0  0
  142.1647   70.5026  224.6681 H   0  0  0  0  0  0  0  0  0  0  0  0
  144.5152   70.4287  220.6336 H   0  0  0  0  0  0  0  0  0  0  0  0
  142.8346   70.1330  220.1272 H   0  0  0  0  0  0  0  0  0  0  0  0
  144.4431   69.4584  218.3310 H   0  0  0  0  0  0  0  0  0  0  0  0
  143.4429   70.8044  217.7678 H   0  0  0  0  0  0  0  0  0  0  0  0
  1  2  1  0
  2  3  1  0
  3  4  1  0
  4  5  1  0
  5  6  1  0
  6  7  1  0
  7  8  2  0
  8  9  1  0
  9 10  1  0
 10 11  1  0
 11 12  1  0
 12 13  1  0
 13 14  2  0
 14 15  1  0
 15 16  2  0
 16 17  1  0
 17 18  2  0
 18 19  1  0
  9 20  2  0
 20 21  1  0
 21 22  1  0
 22 23  1  0
 23 24  1  0
 24 25  1  0
 25 26  2  0
 26 27  1  0
 27 28  2  0
 28 29  1  0
 29 30  2  0
 30 31  1  0
 21 32  2  0
  6 33  1  0
 33 34  1  0
 34 35  1  0
 35  4  1  0
 32  7  1  0
 19 10  1  0
 31 22  1  0
 18 13  1  0
 30 25  1  0
  1 36  1  0
  1 37  1  0
  1 38  1  0
  2 39  1  0
  2 40  1  0
  3 41  1  0
  4 42  1  6
  5 43  1  0
  5 44  1  0
 11 45  1  0
 11 46  1  0
 12 47  1  0
 12 48  1  0
 14 49  1  0
 15 50  1  0
 16 51  1  0
 17 52  1  0
 19 53  1  0
 19 54  1  0
 23 55  1  0
 23 56  1  0
 24 57  1  0
 24 58  1  0
 26 59  1  0
 27 60  1  0
 28 61  1  0
 29 62  1  0
 31 63  1  0
 31 64  1  0
 33 65  1  0
 33 66  1  0
 34 67  1  0
 34 68  1  0
M  END
>  <smiles>  (19) 
CCNC1CN(c2nc(N3CCc4ccccc4C3)nc(N3CCc4ccccc4C3)n2)CCO1

>  <score_type>  (19) 
oracle

>  <origin>  (19) 
autodockgpu

>  <m_score__min__energy>  (19) 
-9.6099999999999994

>  <m_primary>  (19) 
energy

>  <rmsd>  (19) 
7.824784190262339

>  <m_score__min__rmsd>  (19) 
7.824784190262339

>  <meeko>  (19) 
{"free_energy": -9.18, "intermolecular_energy": -10.67, "internal_energy": -0.96, "cluster_size": 40, "cluster_id": 1, "rank_in_cluster": 35}

>  <energy>  (19) 
-9.34

>  <cluster_rmsd>  (19) 
1.33

>  <cluster>  (19) 
1

$$$$

     RDKit          3D

 68 73  0  0  1  0  0  0  0  0999 V2000
  145.6720   67.7910  219.7190 C   0  0  0  0  0  0  0  0  0  0  0  0
  145.9530   68.7260  218.5820 C   0  0  0  0  0  0  0  0  0  0  0  0
  144.8950   69.6810  218.3660 N   0  0  0  0  0  0  0  0  0  0  0  0
  144.9580   70.7440  219.3330 C   0  0  2  0  0  0  0  0  0  0  0  0
  143.6170   71.3890  219.5840 C   0  0  0  0  0  0  0  0  0  0  0  0
  143.7530   72.7030  220.1870 N   0  0  0  0  0  0  0  0  0  0  0  0
  142.6500   73.2750  220.8970 C   0  0  0  0  0  0  0  0  0  0  0  0
  141.8330   72.4870  221.6340 N   0  0  0  0  0  0  0  0  0  0  0  0
  140.7910   72.9750  222.3140 C   0  0  0  0  0  0  0  0  0  0  0  0
  139.9620   72.1040  223.0720 N   0  0  0  0  0  0  0  0  0  0  0  0
  138.8100   71.4650  222.4550 C   0  0  0  0  0  0  0  0  0  0  0  0
  139.1490   69.9890  222.3840 C   0  0  0  0  0  0  0  0  0  0  0  0
  139.4470   69.5610  223.7790 C   0  0  0  0  0  0  0  0  0  0  0  0
  139.1960   68.2380  224.1300 C   0  0  0  0  0  0  0  0  0  0  0  0
  139.4550   67.7730  225.4230 C   0  0  0  0  0  0  0  0  0  0  0  0
  139.9720   68.6410  226.3800 C   0  0  0  0  0  0  0  0  0  0  0  0
  140.2150   69.9500  226.0130 C   0  0  0  0  0  0  0  0  0  0  0  0
  139.9600   70.4190  224.7330 C   0  0  0  0  0  0  0  0  0  0  0  0
  140.2630   71.8490  224.4600 C   0  0  0  0  0  0  0  0  0  0  0  0
  140.5670   74.2940  222.2460 N   0  0  0  0  0  0  0  0  0  0  0  0
  141.3790   75.0930  221.5100 C   0  0  0  0  0  0  0  0  0  0  0  0
  141.0830   76.4960  221.4770 N   0  0  0  0  0  0  0  0  0  0  0  0
  140.8160   77.1040  220.1920 C   0  0  0  0  0  0  0  0  0  0  0  0
  139.8150   78.2190  220.4000 C   0  0  0  0  0  0  0  0  0  0  0  0
  140.4220   79.1650  221.3730 C   0  0  0  0  0  0  0  0  0  0  0  0
  140.3980   80.5390  221.1840 C   0  0  0  0  0  0  0  0  0  0  0  0
  140.9760   81.3970  222.1170 C   0  0  0  0  0  0  0  0  0  0  0  0
  141.5670   80.8360  223.2230 C   0  0  0  0  0  0  0  0  0  0  0  0
  141.6180   79.4780  223.4580 C   0  0  0  0  0  0  0  0  0  0  0  0
  141.0300   78.6660  222.5020 C   0  0  0  0  0  0  0  0  0  0  0  0
  141.0720   77.2140  222.7300 C   0  0  0  0  0  0  0  0  0  0  0  0
  142.4210   74.5760  220.8360 N   0  0  0  0  0  0  0  0  0  0  0  0
  145.0000   73.4640  220.0880 C   0  0  0  0  0  0  0  0  0  0  0  0
  146.1370   72.4640  220.0790 C   0  0  0  0  0  0  0  0  0  0  0  0
  145.9220   71.6530  218.9420 O   0  0  0  0  0  0  0  0  0  0  0  0
  145.8297   68.3158  220.6728 H   0  0  0  0  0  0  0  0  0  0  0  0
  144.6299   67.4440  219.6594 H   0  0  0  0  0  0  0  0  0  0  0  0
  146.3501   66.9270  219.6594 H   0  0  0  0  0  0  0  0  0  0  0  0
  146.8815   69.2742  218.7997 H   0  0  0  0  0  0  0  0  0  0  0  0
  146.0405   68.1185  217.6692 H   0  0  0  0  0  0  0  0  0  0  0  0
  143.9730   69.2550  218.2280 H   0  0  0  0  0  0  0  0  0  0  0  0
  145.2470   70.3173  220.3048 H   0  0  0  0  0  0  0  0  0  0  0  0
  143.0862   71.4905  218.6259 H   0  0  0  0  0  0  0  0  0  0  0  0
  143.0563   70.7498  220.2819 H   0  0  0  0  0  0  0  0  0  0  0  0
  137.9100   71.6228  223.0675 H   0  0  0  0  0  0  0  0  0  0  0  0
  138.5995   71.8817  221.4590 H   0  0  0  0  0  0  0  0  0  0  0  0
  138.2955   69.4209  221.9854 H   0  0  0  0  0  0  0  0  0  0  0  0
  140.0056   69.8071  221.7184 H   0  0  0  0  0  0  0  0  0  0  0  0
  138.7872   67.5469  223.3782 H   0  0  0  0  0  0  0  0  0  0  0  0
  139.2506   66.7239  225.6830 H   0  0  0  0  0  0  0  0  0  0  0  0
  140.1817   68.2935  227.4024 H   0  0  0  0  0  0  0  0  0  0  0  0
  140.6247   70.6443  226.7614 H   0  0  0  0  0  0  0  0  0  0  0  0
  139.6435   72.4924  225.1020 H   0  0  0  0  0  0  0  0  0  0  0  0
  141.3206   72.0658  224.6710 H   0  0  0  0  0  0  0  0  0  0  0  0
  141.7470   77.5121  219.7717 H   0  0  0  0  0  0  0  0  0  0  0  0
  140.4145   76.3564  219.4921 H   0  0  0  0  0  0  0  0  0  0  0  0
  139.6157   78.7316  219.4473 H   0  0  0  0  0  0  0  0  0  0  0  0
  138.8587   77.8260  220.7755 H   0  0  0  0  0  0  0  0  0  0  0  0
  139.9169   80.9560  220.2869 H   0  0  0  0  0  0  0  0  0  0  0  0
  140.9597   82.4874  221.9729 H   0  0  0  0  0  0  0  0  0  0  0  0
  142.0256   81.5081  223.9632 H   0  0  0  0  0  0  0  0  0  0  0  0
  142.0993   79.0623  224.3555 H   0  0  0  0  0  0  0  0  0  0  0  0
  141.9815   76.9644  223.2961 H   0  0  0  0  0  0  0  0  0  0  0  0
  140.1751   76.9208  223.2954 H   0  0  0  0  0  0  0  0  0  0  0  0
  145.0091   74.0529  219.1590 H   0  0  0  0  0  0  0  0  0  0  0  0
  145.0999   74.1604  220.9336 H   0  0  0  0  0  0  0  0  0  0  0  0
  147.1039   72.9829  220.0030 H   0  0  0  0  0  0  0  0  0  0  0  0
  146.1626   71.8691  221.0039 H   0  0  0  0  0  0  0  0  0  0  0  0
  1  2  1  0
  2  3  1  0
  3  4  1  0
  4  5  1  0
  5  6  1  0
  6  7  1  0
  7  8  2  0
  8  9  1  0
  9 10  1  0
 10 11  1  0
 11 12  1  0
 12 13  1  0
 13 14  2  0
 14 15  1  0
 15 16  2  0
 16 17  1  0
 17 18  2  0
 18 19  1  0
  9 20  2  0
 20 21  1  0
 21 22  1  0
 22 23  1  0
 23 24  1  0
 24 25  1  0
 25 26  2  0
 26 27  1  0
 27 28  2  0
 28 29  1  0
 29 30  2  0
 30 31  1  0
 21 32  2  0
  6 33  1  0
 33 34  1  0
 34 35  1  0
 35  4  1  0
 32  7  1  0
 19 10  1  0
 31 22  1  0
 18 13  1  0
 30 25  1  0
  1 36  1  0
  1 37  1  0
  1 38  1  0
  2 39  1  0
  2 40  1  0
  3 41  1  0
  4 42  1  1
  5 43  1  0
  5 44  1  0
 11 45  1  0
 11 46  1  0
 12 47  1  0
 12 48  1  0
 14 49  1  0
 15 50  1  0
 16 51  1  0
 17 52  1  0
 19 53  1  0
 19 54  1  0
 23 55  1  0
 23 56  1  0
 24 57  1  0
 24 58  1  0
 26 59  1  0
 27 60  1  0
 28 61  1  0
 29 62  1  0
 31 63  1  0
 31 64  1  0
 33 65  1  0
 33 66  1  0
 34 67  1  0
 34 68  1  0
M  END
>  <smiles>  (20) 
CCNC1CN(c2nc(N3CCc4ccccc4C3)nc(N3CCc4ccccc4C3)n2)CCO1

>  <score_type>  (20) 
oracle

>  <origin>  (20) 
autodockgpu

>  <m_score__min__energy>  (20) 
-9.6099999999999994

>  <m_primary>  (20) 
energy

>  <rmsd>  (20) 
9.400566591145113

>  <m_score__min__rmsd>  (20) 
9.400566591145113

>  <meeko>  (20) 
{"free_energy": -9.18, "intermolecular_energy": -10.67, "internal_energy": -1.01, "cluster_size": 40, "cluster_id": 1, "rank_in_cluster": 33}

>  <energy>  (20) 
-9.32

>  <cluster_rmsd>  (20) 
0.36

>  <cluster>  (20) 
1

$$$$

     RDKit          3D

 68 73  0  0  1  0  0  0  0  0999 V2000
  147.0540   74.7230  215.6750 C   0  0  0  0  0  0  0  0  0  0  0  0
  146.0080   73.8290  216.2710 C   0  0  0  0  0  0  0  0  0  0  0  0
  146.3240   73.4160  217.6170 N   0  0  0  0  0  0  0  0  0  0  0  0
  145.2180   72.7150  218.2110 C   0  0  2  0  0  0  0  0  0  0  0  0
  144.4920   73.5360  219.2480 C   0  0  0  0  0  0  0  0  0  0  0  0
  143.6990   72.7050  220.1370 N   0  0  0  0  0  0  0  0  0  0  0  0
  142.6190   73.2870  220.8740 C   0  0  0  0  0  0  0  0  0  0  0  0
  141.8100   72.5060  221.6280 N   0  0  0  0  0  0  0  0  0  0  0  0
  140.7900   73.0020  222.3330 C   0  0  0  0  0  0  0  0  0  0  0  0
  139.9690   72.1380  223.1080 N   0  0  0  0  0  0  0  0  0  0  0  0
  138.8040   71.5020  222.5110 C   0  0  0  0  0  0  0  0  0  0  0  0
  139.1350   70.0240  222.4400 C   0  0  0  0  0  0  0  0  0  0  0  0
  139.4530   69.6000  223.8320 C   0  0  0  0  0  0  0  0  0  0  0  0
  139.2020   68.2800  224.1910 C   0  0  0  0  0  0  0  0  0  0  0  0
  139.4790   67.8180  225.4810 C   0  0  0  0  0  0  0  0  0  0  0  0
  140.0150   68.6850  226.4260 C   0  0  0  0  0  0  0  0  0  0  0  0
  140.2590   69.9920  226.0520 C   0  0  0  0  0  0  0  0  0  0  0  0
  139.9860   70.4580  224.7740 C   0  0  0  0  0  0  0  0  0  0  0  0
  140.2910   71.8860  224.4920 C   0  0  0  0  0  0  0  0  0  0  0  0
  140.5800   74.3240  222.2750 N   0  0  0  0  0  0  0  0  0  0  0  0
  141.3840   75.1160  221.5230 C   0  0  0  0  0  0  0  0  0  0  0  0
  141.1020   76.5230  221.5020 N   0  0  0  0  0  0  0  0  0  0  0  0
  140.8650   77.1490  220.2200 C   0  0  0  0  0  0  0  0  0  0  0  0
  139.8730   78.2730  220.4230 C   0  0  0  0  0  0  0  0  0  0  0  0
  140.4710   79.2000  221.4190 C   0  0  0  0  0  0  0  0  0  0  0  0
  140.4650   80.5770  221.2470 C   0  0  0  0  0  0  0  0  0  0  0  0
  141.0340   81.4170  222.2000 C   0  0  0  0  0  0  0  0  0  0  0  0
  141.5980   80.8360  223.3100 C   0  0  0  0  0  0  0  0  0  0  0  0
  141.6320   79.4750  223.5300 C   0  0  0  0  0  0  0  0  0  0  0  0
  141.0520   78.6800  222.5530 C   0  0  0  0  0  0  0  0  0  0  0  0
  141.0750   77.2260  222.7630 C   0  0  0  0  0  0  0  0  0  0  0  0
  142.4030   74.5900  220.8240 N   0  0  0  0  0  0  0  0  0  0  0  0
  143.9770   71.2770  220.3000 C   0  0  0  0  0  0  0  0  0  0  0  0
  144.4910   70.7660  218.9710 C   0  0  0  0  0  0  0  0  0  0  0  0
  145.6660   71.5050  218.7070 O   0  0  0  0  0  0  0  0  0  0  0  0
  147.6231   75.2094  216.4809 H   0  0  0  0  0  0  0  0  0  0  0  0
  147.7366   74.1249  215.0534 H   0  0  0  0  0  0  0  0  0  0  0  0
  146.5696   75.4905  215.0534 H   0  0  0  0  0  0  0  0  0  0  0  0
  145.0504   74.3701  216.2854 H   0  0  0  0  0  0  0  0  0  0  0  0
  145.9560   72.9221  215.6507 H   0  0  0  0  0  0  0  0  0  0  0  0
  146.7460   74.1540  218.1890 H   0  0  0  0  0  0  0  0  0  0  0  0
  144.4651   72.5227  217.4324 H   0  0  0  0  0  0  0  0  0  0  0  0
  145.2315   74.0905  219.8445 H   0  0  0  0  0  0  0  0  0  0  0  0
  143.8107   74.2226  218.7242 H   0  0  0  0  0  0  0  0  0  0  0  0
  137.9144   71.6662  223.1369 H   0  0  0  0  0  0  0  0  0  0  0  0
  138.5800   71.9162  221.5169 H   0  0  0  0  0  0  0  0  0  0  0  0
  138.2727   69.4585  222.0571 H   0  0  0  0  0  0  0  0  0  0  0  0
  139.9800   69.8355  221.7615 H   0  0  0  0  0  0  0  0  0  0  0  0
  138.7786   67.5883  223.4478 H   0  0  0  0  0  0  0  0  0  0  0  0
  139.2733   66.7708  225.7476 H   0  0  0  0  0  0  0  0  0  0  0  0
  140.2392   68.3390  227.4458 H   0  0  0  0  0  0  0  0  0  0  0  0
  140.6838   70.6864  226.7918 H   0  0  0  0  0  0  0  0  0  0  0  0
  139.6846   72.5341  225.1418 H   0  0  0  0  0  0  0  0  0  0  0  0
  141.3527   72.0989  224.6857 H   0  0  0  0  0  0  0  0  0  0  0  0
  141.8080   77.5512  219.8213 H   0  0  0  0  0  0  0  0  0  0  0  0
  140.4677   76.4142  219.5043 H   0  0  0  0  0  0  0  0  0  0  0  0
  139.6980   78.7995  219.4732 H   0  0  0  0  0  0  0  0  0  0  0  0
  138.9055   77.8862  220.7755 H   0  0  0  0  0  0  0  0  0  0  0  0
  140.0050   81.0100  220.3465 H   0  0  0  0  0  0  0  0  0  0  0  0
  141.0322   82.5092  222.0689 H   0  0  0  0  0  0  0  0  0  0  0  0
  142.0486   81.4946  224.0671 H   0  0  0  0  0  0  0  0  0  0  0  0
  142.0936   79.0439  224.4306 H   0  0  0  0  0  0  0  0  0  0  0  0
  141.9712   76.9601  223.3427 H   0  0  0  0  0  0  0  0  0  0  0  0
  140.1645   76.9354  223.3076 H   0  0  0  0  0  0  0  0  0  0  0  0
  144.7375   71.1279  221.0806 H   0  0  0  0  0  0  0  0  0  0  0  0
  143.0689   70.7346  220.6019 H   0  0  0  0  0  0  0  0  0  0  0  0
  144.7195   69.6919  219.0353 H   0  0  0  0  0  0  0  0  0  0  0  0
  143.7451   70.8895  218.1720 H   0  0  0  0  0  0  0  0  0  0  0  0
  1  2  1  0
  2  3  1  0
  3  4  1  0
  4  5  1  0
  5  6  1  0
  6  7  1  0
  7  8  2  0
  8  9  1  0
  9 10  1  0
 10 11  1  0
 11 12  1  0
 12 13  1  0
 13 14  2  0
 14 15  1  0
 15 16  2  0
 16 17  1  0
 17 18  2  0
 18 19  1  0
  9 20  2  0
 20 21  1  0
 21 22  1  0
 22 23  1  0
 23 24  1  0
 24 25  1  0
 25 26  2  0
 26 27  1  0
 27 28  2  0
 28 29  1  0
 29 30  2  0
 30 31  1  0
 21 32  2  0
  6 33  1  0
 33 34  1  0
 34 35  1  0
 35  4  1  0
 32  7  1  0
 19 10  1  0
 31 22  1  0
 18 13  1  0
 30 25  1  0
  1 36  1  0
  1 37  1  0
  1 38  1  0
  2 39  1  0
  2 40  1  0
  3 41  1  0
  4 42  1  6
  5 43  1  0
  5 44  1  0
 11 45  1  0
 11 46  1  0
 12 47  1  0
 12 48  1  0
 14 49  1  0
 15 50  1  0
 16 51  1  0
 17 52  1  0
 19 53  1  0
 19 54  1  0
 23 55  1  0
 23 56  1  0
 24 57  1  0
 24 58  1  0
 26 59  1  0
 27 60  1  0
 28 61  1  0
 29 62  1  0
 31 63  1  0
 31 64  1  0
 33 65  1  0
 33 66  1  0
 34 67  1  0
 34 68  1  0
M  END
>  <smiles>  (21) 
CCNC1CN(c2nc(N3CCc4ccccc4C3)nc(N3CCc4ccccc4C3)n2)CCO1

>  <score_type>  (21) 
oracle

>  <origin>  (21) 
autodockgpu

>  <m_score__min__energy>  (21) 
-9.6099999999999994

>  <m_primary>  (21) 
energy

>  <rmsd>  (21) 
7.6949522903805985

>  <m_score__min__rmsd>  (21) 
7.6949522903805985

>  <meeko>  (21) 
{"free_energy": -9.51, "intermolecular_energy": -11.01, "internal_energy": -0.98, "cluster_size": 40, "cluster_id": 1, "rank_in_cluster": 8}

>  <energy>  (21) 
-9.3

>  <cluster_rmsd>  (21) 
1.55

>  <cluster>  (21) 
1

$$$$

     RDKit          3D

 68 73  0  0  1  0  0  0  0  0999 V2000
  145.9460   67.5490  219.2370 C   0  0  0  0  0  0  0  0  0  0  0  0
  144.8360   68.5250  219.4880 C   0  0  0  0  0  0  0  0  0  0  0  0
  144.9130   69.6920  218.6440 N   0  0  0  0  0  0  0  0  0  0  0  0
  144.9350   70.8940  219.4320 C   0  0  2  0  0  0  0  0  0  0  0  0
  143.5540   71.4160  219.7440 C   0  0  0  0  0  0  0  0  0  0  0  0
  143.5800   72.8170  220.1290 N   0  0  0  0  0  0  0  0  0  0  0  0
  142.4890   73.3660  220.8750 C   0  0  0  0  0  0  0  0  0  0  0  0
  141.7010   72.5600  221.6240 N   0  0  0  0  0  0  0  0  0  0  0  0
  140.6710   73.0260  222.3370 C   0  0  0  0  0  0  0  0  0  0  0  0
  139.8730   72.1360  223.1060 N   0  0  0  0  0  0  0  0  0  0  0  0
  138.7230   71.4780  222.5070 C   0  0  0  0  0  0  0  0  0  0  0  0
  139.0890   70.0090  222.4230 C   0  0  0  0  0  0  0  0  0  0  0  0
  139.4200   69.5810  223.8100 C   0  0  0  0  0  0  0  0  0  0  0  0
  139.2020   68.2520  224.1600 C   0  0  0  0  0  0  0  0  0  0  0  0
  139.4930   67.7870  225.4450 C   0  0  0  0  0  0  0  0  0  0  0  0
  140.0100   68.6600  226.3960 C   0  0  0  0  0  0  0  0  0  0  0  0
  140.2220   69.9750  226.0320 C   0  0  0  0  0  0  0  0  0  0  0  0
  139.9350   70.4440  224.7580 C   0  0  0  0  0  0  0  0  0  0  0  0
  140.2050   71.8810  224.4870 C   0  0  0  0  0  0  0  0  0  0  0  0
  140.4310   74.3440  222.2910 N   0  0  0  0  0  0  0  0  0  0  0  0
  141.2130   75.1610  221.5440 C   0  0  0  0  0  0  0  0  0  0  0  0
  140.8990   76.5610  221.5350 N   0  0  0  0  0  0  0  0  0  0  0  0
  140.4210   77.1430  220.3010 C   0  0  0  0  0  0  0  0  0  0  0  0
  139.4550   78.2530  220.6490 C   0  0  0  0  0  0  0  0  0  0  0  0
  140.2000   79.2220  221.4950 C   0  0  0  0  0  0  0  0  0  0  0  0
  140.1300   80.5920  221.2910 C   0  0  0  0  0  0  0  0  0  0  0  0
  140.8400   81.4710  222.1030 C   0  0  0  0  0  0  0  0  0  0  0  0
  141.6080   80.9360  223.1090 C   0  0  0  0  0  0  0  0  0  0  0  0
  141.7130   79.5830  223.3550 C   0  0  0  0  0  0  0  0  0  0  0  0
  140.9870   78.7480  222.5200 C   0  0  0  0  0  0  0  0  0  0  0  0
  141.0820   77.3010  222.7620 C   0  0  0  0  0  0  0  0  0  0  0  0
  142.2420   74.6650  220.8370 N   0  0  0  0  0  0  0  0  0  0  0  0
  144.7010   73.6880  219.7720 C   0  0  0  0  0  0  0  0  0  0  0  0
  145.9510   72.8330  219.7740 C   0  0  0  0  0  0  0  0  0  0  0  0
  145.7300   71.8330  218.8000 O   0  0  0  0  0  0  0  0  0  0  0  0
  146.3479   67.1957  220.1981 H   0  0  0  0  0  0  0  0  0  0  0  0
  145.5592   66.6931  218.6644 H   0  0  0  0  0  0  0  0  0  0  0  0
  146.7453   68.0421  218.6644 H   0  0  0  0  0  0  0  0  0  0  0  0
  143.8763   68.0204  219.3025 H   0  0  0  0  0  0  0  0  0  0  0  0
  144.9250   68.8651  220.5303 H   0  0  0  0  0  0  0  0  0  0  0  0
  144.2520   69.6810  217.8610 H   0  0  0  0  0  0  0  0  0  0  0  0
  145.3726   70.6620  220.4142 H   0  0  0  0  0  0  0  0  0  0  0  0
  142.9211   71.3039  218.8513 H   0  0  0  0  0  0  0  0  0  0  0  0
  143.1528   70.8370  220.5889 H   0  0  0  0  0  0  0  0  0  0  0  0
  137.8314   71.6158  223.1363 H   0  0  0  0  0  0  0  0  0  0  0  0
  138.4866   71.8949  221.5169 H   0  0  0  0  0  0  0  0  0  0  0  0
  138.2396   69.4263  222.0370 H   0  0  0  0  0  0  0  0  0  0  0  0
  139.9369   69.8465  221.7413 H   0  0  0  0  0  0  0  0  0  0  0  0
  138.7937   67.5559  223.4125 H   0  0  0  0  0  0  0  0  0  0  0  0
  139.3136   66.7330  225.7038 H   0  0  0  0  0  0  0  0  0  0  0  0
  140.2442   68.3117  227.4128 H   0  0  0  0  0  0  0  0  0  0  0  0
  140.6318   70.6736  226.7763 H   0  0  0  0  0  0  0  0  0  0  0  0
  139.5852   72.5092  225.1437 H   0  0  0  0  0  0  0  0  0  0  0  0
  141.2618   72.1179  224.6797 H   0  0  0  0  0  0  0  0  0  0  0  0
  141.2672   77.5508  219.7286 H   0  0  0  0  0  0  0  0  0  0  0  0
  139.9196   76.3793  219.6883 H   0  0  0  0  0  0  0  0  0  0  0  0
  139.0989   78.7462  219.7325 H   0  0  0  0  0  0  0  0  0  0  0  0
  138.5765   77.8590  221.1809 H   0  0  0  0  0  0  0  0  0  0  0  0
  139.5054   80.9887  220.4771 H   0  0  0  0  0  0  0  0  0  0  0  0
  140.7882   82.5583  221.9448 H   0  0  0  0  0  0  0  0  0  0  0  0
  142.1710   81.6259  223.7547 H   0  0  0  0  0  0  0  0  0  0  0  0
  142.3385   79.1882  224.1691 H   0  0  0  0  0  0  0  0  0  0  0  0
  142.0737   77.0696  223.1779 H   0  0  0  0  0  0  0  0  0  0  0  0
  140.2917   77.0100  223.4696 H   0  0  0  0  0  0  0  0  0  0  0  0
  144.5404   74.1184  218.7725 H   0  0  0  0  0  0  0  0  0  0  0  0
  144.7943   74.5176  220.4883 H   0  0  0  0  0  0  0  0  0  0  0  0
  146.8306   73.4384  219.5098 H   0  0  0  0  0  0  0  0  0  0  0  0
  146.1451   72.3988  220.7659 H   0  0  0  0  0  0  0  0  0  0  0  0
  1  2  1  0
  2  3  1  0
  3  4  1  0
  4  5  1  0
  5  6  1  0
  6  7  1  0
  7  8  2  0
  8  9  1  0
  9 10  1  0
 10 11  1  0
 11 12  1  0
 12 13  1  0
 13 14  2  0
 14 15  1  0
 15 16  2  0
 16 17  1  0
 17 18  2  0
 18 19  1  0
  9 20  2  0
 20 21  1  0
 21 22  1  0
 22 23  1  0
 23 24  1  0
 24 25  1  0
 25 26  2  0
 26 27  1  0
 27 28  2  0
 28 29  1  0
 29 30  2  0
 30 31  1  0
 21 32  2  0
  6 33  1  0
 33 34  1  0
 34 35  1  0
 35  4  1  0
 32  7  1  0
 19 10  1  0
 31 22  1  0
 18 13  1  0
 30 25  1  0
  1 36  1  0
  1 37  1  0
  1 38  1  0
  2 39  1  0
  2 40  1  0
  3 41  1  0
  4 42  1  1
  5 43  1  0
  5 44  1  0
 11 45  1  0
 11 46  1  0
 12 47  1  0
 12 48  1  0
 14 49  1  0
 15 50  1  0
 16 51  1  0
 17 52  1  0
 19 53  1  0
 19 54  1  0
 23 55  1  0
 23 56  1  0
 24 57  1  0
 24 58  1  0
 26 59  1  0
 27 60  1  0
 28 61  1  0
 29 62  1  0
 31 63  1  0
 31 64  1  0
 33 65  1  0
 33 66  1  0
 34 67  1  0
 34 68  1  0
M  END
>  <smiles>  (22) 
CCNC1CN(c2nc(N3CCc4ccccc4C3)nc(N3CCc4ccccc4C3)n2)CCO1

>  <score_type>  (22) 
oracle

>  <origin>  (22) 
autodockgpu

>  <m_score__min__energy>  (22) 
-9.6099999999999994

>  <m_primary>  (22) 
energy

>  <rmsd>  (22) 
9.386808298193037

>  <m_score__min__rmsd>  (22) 
9.386808298193037

>  <meeko>  (22) 
{"free_energy": -9.27, "intermolecular_energy": -10.76, "internal_energy": -1.01, "cluster_size": 40, "cluster_id": 1, "rank_in_cluster": 28}

>  <energy>  (22) 
-9.3

>  <cluster_rmsd>  (22) 
1.2

>  <cluster>  (22) 
1

$$$$

     RDKit          3D

 68 73  0  0  1  0  0  0  0  0999 V2000
  145.9250   67.6350  219.4020 C   0  0  0  0  0  0  0  0  0  0  0  0
  144.6740   68.4600  219.3410 C   0  0  0  0  0  0  0  0  0  0  0  0
  144.8250   69.6490  218.5390 N   0  0  0  0  0  0  0  0  0  0  0  0
  144.8770   70.8230  219.3680 C   0  0  2  0  0  0  0  0  0  0  0  0
  143.5100   71.3840  219.6770 C   0  0  0  0  0  0  0  0  0  0  0  0
  143.5790   72.7680  220.1100 N   0  0  0  0  0  0  0  0  0  0  0  0
  142.4960   73.3320  220.8570 C   0  0  0  0  0  0  0  0  0  0  0  0
  141.7020   72.5360  221.6110 N   0  0  0  0  0  0  0  0  0  0  0  0
  140.6800   73.0150  222.3250 C   0  0  0  0  0  0  0  0  0  0  0  0
  139.8750   72.1350  223.0990 N   0  0  0  0  0  0  0  0  0  0  0  0
  138.7080   71.4980  222.5100 C   0  0  0  0  0  0  0  0  0  0  0  0
  139.0490   70.0240  222.4170 C   0  0  0  0  0  0  0  0  0  0  0  0
  139.3860   69.5850  223.8000 C   0  0  0  0  0  0  0  0  0  0  0  0
  139.1490   68.2590  224.1460 C   0  0  0  0  0  0  0  0  0  0  0  0
  139.4460   67.7840  225.4270 C   0  0  0  0  0  0  0  0  0  0  0  0
  139.9880   68.6450  226.3760 C   0  0  0  0  0  0  0  0  0  0  0  0
  140.2170   69.9580  226.0140 C   0  0  0  0  0  0  0  0  0  0  0  0
  139.9250   70.4370  224.7450 C   0  0  0  0  0  0  0  0  0  0  0  0
  140.2160   71.8700  224.4760 C   0  0  0  0  0  0  0  0  0  0  0  0
  140.4520   74.3350  222.2760 N   0  0  0  0  0  0  0  0  0  0  0  0
  141.2410   75.1410  221.5240 C   0  0  0  0  0  0  0  0  0  0  0  0
  140.9410   76.5440  221.5120 N   0  0  0  0  0  0  0  0  0  0  0  0
  140.5440   77.1440  220.2580 C   0  0  0  0  0  0  0  0  0  0  0  0
  139.5690   78.2600  220.5600 C   0  0  0  0  0  0  0  0  0  0  0  0
  140.2710   79.2130  221.4600 C   0  0  0  0  0  0  0  0  0  0  0  0
  140.2260   80.5850  221.2660 C   0  0  0  0  0  0  0  0  0  0  0  0
  140.8950   81.4490  222.1290 C   0  0  0  0  0  0  0  0  0  0  0  0
  141.5970   80.8960  223.1730 C   0  0  0  0  0  0  0  0  0  0  0  0
  141.6730   79.5390  223.4100 C   0  0  0  0  0  0  0  0  0  0  0  0
  140.9910   78.7200  222.5240 C   0  0  0  0  0  0  0  0  0  0  0  0
  141.0570   77.2700  222.7550 C   0  0  0  0  0  0  0  0  0  0  0  0
  142.2630   74.6320  220.8150 N   0  0  0  0  0  0  0  0  0  0  0  0
  144.7360   73.6100  219.8000 C   0  0  0  0  0  0  0  0  0  0  0  0
  145.9550   72.7110  219.7910 C   0  0  0  0  0  0  0  0  0  0  0  0
  145.7140   71.7530  218.7810 O   0  0  0  0  0  0  0  0  0  0  0  0
  146.1956   67.4565  220.4531 H   0  0  0  0  0  0  0  0  0  0  0  0
  145.7540   66.6719  218.8988 H   0  0  0  0  0  0  0  0  0  0  0  0
  146.7429   68.1715  218.8988 H   0  0  0  0  0  0  0  0  0  0  0  0
  143.8692   67.8460  218.9105 H   0  0  0  0  0  0  0  0  0  0  0  0
  144.4396   68.7810  220.3667 H   0  0  0  0  0  0  0  0  0  0  0  0
  144.1870   69.6940  217.7380 H   0  0  0  0  0  0  0  0  0  0  0  0
  145.2905   70.5422  220.3479 H   0  0  0  0  0  0  0  0  0  0  0  0
  142.8882   71.3251  218.7715 H   0  0  0  0  0  0  0  0  0  0  0  0
  143.0750   70.7916  220.4954 H   0  0  0  0  0  0  0  0  0  0  0  0
  137.8255   71.6480  223.1493 H   0  0  0  0  0  0  0  0  0  0  0  0
  138.4679   71.9224  221.5240 H   0  0  0  0  0  0  0  0  0  0  0  0
  138.1866   69.4568  222.0368 H   0  0  0  0  0  0  0  0  0  0  0  0
  139.8877   69.8503  221.7268 H   0  0  0  0  0  0  0  0  0  0  0  0
  138.7211   67.5731  223.4000 H   0  0  0  0  0  0  0  0  0  0  0  0
  139.2516   66.7322  225.6839 H   0  0  0  0  0  0  0  0  0  0  0  0
  140.2280   68.2891  227.3888 H   0  0  0  0  0  0  0  0  0  0  0  0
  140.6453   70.6472  226.7567 H   0  0  0  0  0  0  0  0  0  0  0  0
  139.6129   72.5061  225.1406 H   0  0  0  0  0  0  0  0  0  0  0  0
  141.2783   72.0888  224.6592 H   0  0  0  0  0  0  0  0  0  0  0  0
  141.4270   77.5495  219.7424 H   0  0  0  0  0  0  0  0  0  0  0  0
  140.0735   76.3921  219.6074 H   0  0  0  0  0  0  0  0  0  0  0  0
  139.2730   78.7663  219.6294 H   0  0  0  0  0  0  0  0  0  0  0  0
  138.6566   77.8691  221.0340 H   0  0  0  0  0  0  0  0  0  0  0  0
  139.6550   80.9959  220.4203 H   0  0  0  0  0  0  0  0  0  0  0  0
  140.8627   82.5384  221.9800 H   0  0  0  0  0  0  0  0  0  0  0  0
  142.1281   81.5733  223.8581 H   0  0  0  0  0  0  0  0  0  0  0  0
  142.2439   79.1293  224.2563 H   0  0  0  0  0  0  0  0  0  0  0  0
  142.0196   77.0240  223.2272 H   0  0  0  0  0  0  0  0  0  0  0  0
  140.2223   76.9803  223.4103 H   0  0  0  0  0  0  0  0  0  0  0  0
  144.6068   74.0796  218.8137 H   0  0  0  0  0  0  0  0  0  0  0  0
  144.8470   74.4108  220.5459 H   0  0  0  0  0  0  0  0  0  0  0  0
  146.8594   73.2930  219.5601 H   0  0  0  0  0  0  0  0  0  0  0  0
  146.1182   72.2373  220.7703 H   0  0  0  0  0  0  0  0  0  0  0  0
  1  2  1  0
  2  3  1  0
  3  4  1  0
  4  5  1  0
  5  6  1  0
  6  7  1  0
  7  8  2  0
  8  9  1  0
  9 10  1  0
 10 11  1  0
 11 12  1  0
 12 13  1  0
 13 14  2  0
 14 15  1  0
 15 16  2  0
 16 17  1  0
 17 18  2  0
 18 19  1  0
  9 20  2  0
 20 21  1  0
 21 22  1  0
 22 23  1  0
 23 24  1  0
 24 25  1  0
 25 26  2  0
 26 27  1  0
 27 28  2  0
 28 29  1  0
 29 30  2  0
 30 31  1  0
 21 32  2  0
  6 33  1  0
 33 34  1  0
 34 35  1  0
 35  4  1  0
 32  7  1  0
 19 10  1  0
 31 22  1  0
 18 13  1  0
 30 25  1  0
  1 36  1  0
  1 37  1  0
  1 38  1  0
  2 39  1  0
  2 40  1  0
  3 41  1  0
  4 42  1  1
  5 43  1  0
  5 44  1  0
 11 45  1  0
 11 46  1  0
 12 47  1  0
 12 48  1  0
 14 49  1  0
 15 50  1  0
 16 51  1  0
 17 52  1  0
 19 53  1  0
 19 54  1  0
 23 55  1  0
 23 56  1  0
 24 57  1  0
 24 58  1  0
 26 59  1  0
 27 60  1  0
 28 61  1  0
 29 62  1  0
 31 63  1  0
 31 64  1  0
 33 65  1  0
 33 66  1  0
 34 67  1  0
 34 68  1  0
M  END
>  <smiles>  (23) 
CCNC1CN(c2nc(N3CCc4ccccc4C3)nc(N3CCc4ccccc4C3)n2)CCO1

>  <score_type>  (23) 
oracle

>  <origin>  (23) 
autodockgpu

>  <m_score__min__energy>  (23) 
-9.6099999999999994

>  <m_primary>  (23) 
energy

>  <rmsd>  (23) 
9.375986363366033

>  <m_score__min__rmsd>  (23) 
9.375986363366033

>  <meeko>  (23) 
{"free_energy": -9.26, "intermolecular_energy": -10.76, "internal_energy": -1.02, "cluster_size": 40, "cluster_id": 1, "rank_in_cluster": 29}

>  <energy>  (23) 
-9.3

>  <cluster_rmsd>  (23) 
1.6

>  <cluster>  (23) 
1

$$$$

     RDKit          3D

 68 73  0  0  1  0  0  0  0  0999 V2000
  147.3690   74.1420  216.4070 C   0  0  0  0  0  0  0  0  0  0  0  0
  146.0780   73.4860  216.7960 C   0  0  0  0  0  0  0  0  0  0  0  0
  145.9610   73.2800  218.2190 N   0  0  0  0  0  0  0  0  0  0  0  0
  144.7260   72.6200  218.5420 C   0  0  2  0  0  0  0  0  0  0  0  0
  144.0280   73.2310  219.7330 C   0  0  0  0  0  0  0  0  0  0  0  0
  143.0580   72.3210  220.3170 N   0  0  0  0  0  0  0  0  0  0  0  0
  142.0060   72.8390  221.1370 C   0  0  0  0  0  0  0  0  0  0  0  0
  141.3300   72.0190  221.9750 N   0  0  0  0  0  0  0  0  0  0  0  0
  140.3400   72.4550  222.7590 C   0  0  0  0  0  0  0  0  0  0  0  0
  139.6600   71.5520  223.6210 N   0  0  0  0  0  0  0  0  0  0  0  0
  138.6380   70.6620  223.0930 C   0  0  0  0  0  0  0  0  0  0  0  0
  139.2200   69.2650  223.1900 C   0  0  0  0  0  0  0  0  0  0  0  0
  139.5690   69.0580  224.6230 C   0  0  0  0  0  0  0  0  0  0  0  0
  139.5390   67.7620  225.1280 C   0  0  0  0  0  0  0  0  0  0  0  0
  139.8580   67.4990  226.4630 C   0  0  0  0  0  0  0  0  0  0  0  0
  140.2130   68.5460  227.3080 C   0  0  0  0  0  0  0  0  0  0  0  0
  140.2380   69.8260  226.7900 C   0  0  0  0  0  0  0  0  0  0  0  0
  139.9220   70.0940  225.4660 C   0  0  0  0  0  0  0  0  0  0  0  0
  139.9850   71.5130  225.0270 C   0  0  0  0  0  0  0  0  0  0  0  0
  140.0240   73.7560  222.6950 N   0  0  0  0  0  0  0  0  0  0  0  0
  140.6940   74.5860  221.8590 C   0  0  0  0  0  0  0  0  0  0  0  0
  140.3040   75.9660  221.8350 N   0  0  0  0  0  0  0  0  0  0  0  0
  139.2130   76.3500  220.9680 C   0  0  0  0  0  0  0  0  0  0  0  0
  138.4730   77.4960  221.6220 C   0  0  0  0  0  0  0  0  0  0  0  0
  139.4620   78.5870  221.8240 C   0  0  0  0  0  0  0  0  0  0  0  0
  139.1820   79.9090  221.5120 C   0  0  0  0  0  0  0  0  0  0  0  0
  140.1330   80.9060  221.7140 C   0  0  0  0  0  0  0  0  0  0  0  0
  141.3500   80.5350  222.2310 C   0  0  0  0  0  0  0  0  0  0  0  0
  141.6800   79.2370  222.5580 C   0  0  0  0  0  0  0  0  0  0  0  0
  140.7010   78.2790  222.3390 C   0  0  0  0  0  0  0  0  0  0  0  0
  141.0280   76.8870  222.6800 C   0  0  0  0  0  0  0  0  0  0  0  0
  141.6860   74.1200  221.0810 N   0  0  0  0  0  0  0  0  0  0  0  0
  143.1300   70.8770  220.0870 C   0  0  0  0  0  0  0  0  0  0  0  0
  143.6830   70.6720  218.6930 C   0  0  0  0  0  0  0  0  0  0  0  0
  144.9650   71.2680  218.7000 O   0  0  0  0  0  0  0  0  0  0  0  0
  147.9246   74.4243  217.3135 H   0  0  0  0  0  0  0  0  0  0  0  0
  147.9716   73.4408  215.8111 H   0  0  0  0  0  0  0  0  0  0  0  0
  147.1579   75.0422  215.8111 H   0  0  0  0  0  0  0  0  0  0  0  0
  145.2458   74.1240  216.4639 H   0  0  0  0  0  0  0  0  0  0  0  0
  146.0517   72.4969  216.3154 H   0  0  0  0  0  0  0  0  0  0  0  0
  146.1860   74.1090  218.7780 H   0  0  0  0  0  0  0  0  0  0  0  0
  144.0243   72.7607  217.7067 H   0  0  0  0  0  0  0  0  0  0  0  0
  144.7802   73.4856  220.4942 H   0  0  0  0  0  0  0  0  0  0  0  0
  143.4913   74.1281  219.3908 H   0  0  0  0  0  0  0  0  0  0  0  0
  137.7181   70.7366  223.6915 H   0  0  0  0  0  0  0  0  0  0  0  0
  138.3712   70.9195  222.0574 H   0  0  0  0  0  0  0  0  0  0  0  0
  138.4783   68.5198  222.8668 H   0  0  0  0  0  0  0  0  0  0  0  0
  140.1023   69.1528  222.5427 H   0  0  0  0  0  0  0  0  0  0  0  0
  139.2594   66.9299  224.4651 H   0  0  0  0  0  0  0  0  0  0  0  0
  139.8286   66.4677  226.8445 H   0  0  0  0  0  0  0  0  0  0  0  0
  140.4672   68.3589  228.3617 H   0  0  0  0  0  0  0  0  0  0  0  0
  140.5178   70.6609  227.4492 H   0  0  0  0  0  0  0  0  0  0  0  0
  139.2601   72.1138  225.5959 H   0  0  0  0  0  0  0  0  0  0  0  0
  140.9893   71.9263  225.2020 H   0  0  0  0  0  0  0  0  0  0  0  0
  139.6072   76.6695  219.9920 H   0  0  0  0  0  0  0  0  0  0  0  0
  138.5342   75.4989  220.8104 H   0  0  0  0  0  0  0  0  0  0  0  0
  137.6569   77.8408  220.9701 H   0  0  0  0  0  0  0  0  0  0  0  0
  138.0290   77.1840  222.5788 H   0  0  0  0  0  0  0  0  0  0  0  0
  138.1969   80.1732  221.1000 H   0  0  0  0  0  0  0  0  0  0  0  0
  139.9166   81.9560  221.4676 H   0  0  0  0  0  0  0  0  0  0  0  0
  142.1048   81.3185  222.3935 H   0  0  0  0  0  0  0  0  0  0  0  0
  142.6658   78.9753  222.9701 H   0  0  0  0  0  0  0  0  0  0  0  0
  142.1079   76.7271  222.5447 H   0  0  0  0  0  0  0  0  0  0  0  0
  140.7408   76.7045  223.7260 H   0  0  0  0  0  0  0  0  0  0  0  0
  143.7950   70.4101  220.8285 H   0  0  0  0  0  0  0  0  0  0  0  0
  142.1358   70.4164  220.1839 H   0  0  0  0  0  0  0  0  0  0  0  0
  143.7600   69.5987  218.4646 H   0  0  0  0  0  0  0  0  0  0  0  0
  143.0313   71.1183  217.9274 H   0  0  0  0  0  0  0  0  0  0  0  0
  1  2  1  0
  2  3  1  0
  3  4  1  0
  4  5  1  0
  5  6  1  0
  6  7  1  0
  7  8  2  0
  8  9  1  0
  9 10  1  0
 10 11  1  0
 11 12  1  0
 12 13  1  0
 13 14  2  0
 14 15  1  0
 15 16  2  0
 16 17  1  0
 17 18  2  0
 18 19  1  0
  9 20  2  0
 20 21  1  0
 21 22  1  0
 22 23  1  0
 23 24  1  0
 24 25  1  0
 25 26  2  0
 26 27  1  0
 27 28  2  0
 28 29  1  0
 29 30  2  0
 30 31  1  0
 21 32  2  0
  6 33  1  0
 33 34  1  0
 34 35  1  0
 35  4  1  0
 32  7  1  0
 19 10  1  0
 31 22  1  0
 18 13  1  0
 30 25  1  0
  1 36  1  0
  1 37  1  0
  1 38  1  0
  2 39  1  0
  2 40  1  0
  3 41  1  0
  4 42  1  6
  5 43  1  0
  5 44  1  0
 11 45  1  0
 11 46  1  0
 12 47  1  0
 12 48  1  0
 14 49  1  0
 15 50  1  0
 16 51  1  0
 17 52  1  0
 19 53  1  0
 19 54  1  0
 23 55  1  0
 23 56  1  0
 24 57  1  0
 24 58  1  0
 26 59  1  0
 27 60  1  0
 28 61  1  0
 29 62  1  0
 31 63  1  0
 31 64  1  0
 33 65  1  0
 33 66  1  0
 34 67  1  0
 34 68  1  0
M  END
>  <smiles>  (24) 
CCNC1CN(c2nc(N3CCc4ccccc4C3)nc(N3CCc4ccccc4C3)n2)CCO1

>  <score_type>  (24) 
oracle

>  <origin>  (24) 
autodockgpu

>  <m_score__min__energy>  (24) 
-9.6099999999999994

>  <m_primary>  (24) 
energy

>  <rmsd>  (24) 
7.476645269471394

>  <m_score__min__rmsd>  (24) 
7.476645269471394

>  <meeko>  (24) 
{"free_energy": -9.23, "intermolecular_energy": -10.73, "internal_energy": -0.96, "cluster_size": 40, "cluster_id": 1, "rank_in_cluster": 31}

>  <energy>  (24) 
-9.29

>  <cluster_rmsd>  (24) 
1.38

>  <cluster>  (24) 
1

$$$$

     RDKit          3D

 68 73  0  0  1  0  0  0  0  0999 V2000
  145.5320   67.2300  219.3210 C   0  0  0  0  0  0  0  0  0  0  0  0
  145.9720   68.6620  219.2680 C   0  0  0  0  0  0  0  0  0  0  0  0
  144.9530   69.5430  218.7530 N   0  0  0  0  0  0  0  0  0  0  0  0
  144.9740   70.8070  219.4380 C   0  0  2  0  0  0  0  0  0  0  0  0
  143.5930   71.3050  219.7920 C   0  0  0  0  0  0  0  0  0  0  0  0
  143.5860   72.7330  220.0600 N   0  0  0  0  0  0  0  0  0  0  0  0
  142.5200   73.3040  220.8240 C   0  0  0  0  0  0  0  0  0  0  0  0
  141.7320   72.5140  221.5910 N   0  0  0  0  0  0  0  0  0  0  0  0
  140.7250   73.0010  222.3220 C   0  0  0  0  0  0  0  0  0  0  0  0
  139.9260   72.1280  223.1090 N   0  0  0  0  0  0  0  0  0  0  0  0
  138.7460   71.4980  222.5370 C   0  0  0  0  0  0  0  0  0  0  0  0
  139.0750   70.0210  222.4410 C   0  0  0  0  0  0  0  0  0  0  0  0
  139.4300   69.5810  223.8180 C   0  0  0  0  0  0  0  0  0  0  0  0
  139.1890   68.2570  224.1700 C   0  0  0  0  0  0  0  0  0  0  0  0
  139.5020   67.7810  225.4470 C   0  0  0  0  0  0  0  0  0  0  0  0
  140.0630   68.6390  226.3860 C   0  0  0  0  0  0  0  0  0  0  0  0
  140.2960   69.9500  226.0200 C   0  0  0  0  0  0  0  0  0  0  0  0
  139.9890   70.4300  224.7550 C   0  0  0  0  0  0  0  0  0  0  0  0
  140.2850   71.8600  224.4810 C   0  0  0  0  0  0  0  0  0  0  0  0
  140.5070   74.3220  222.2770 N   0  0  0  0  0  0  0  0  0  0  0  0
  141.2900   75.1230  221.5130 C   0  0  0  0  0  0  0  0  0  0  0  0
  141.0010   76.5280  221.5060 N   0  0  0  0  0  0  0  0  0  0  0  0
  140.6690   77.1490  220.2430 C   0  0  0  0  0  0  0  0  0  0  0  0
  139.6890   78.2680  220.5130 C   0  0  0  0  0  0  0  0  0  0  0  0
  140.3530   79.2030  221.4590 C   0  0  0  0  0  0  0  0  0  0  0  0
  140.3280   80.5780  221.2830 C   0  0  0  0  0  0  0  0  0  0  0  0
  140.9610   81.4250  222.1900 C   0  0  0  0  0  0  0  0  0  0  0  0
  141.6070   80.8510  223.2580 C   0  0  0  0  0  0  0  0  0  0  0  0
  141.6620   79.4910  223.4790 C   0  0  0  0  0  0  0  0  0  0  0  0
  141.0170   78.6900  222.5500 C   0  0  0  0  0  0  0  0  0  0  0  0
  141.0620   77.2360  222.7640 C   0  0  0  0  0  0  0  0  0  0  0  0
  142.2960   74.6060  220.7870 N   0  0  0  0  0  0  0  0  0  0  0  0
  144.6480   73.6090  219.5650 C   0  0  0  0  0  0  0  0  0  0  0  0
  145.9290   72.8020  219.5580 C   0  0  0  0  0  0  0  0  0  0  0  0
  145.6910   71.7170  218.6840 O   0  0  0  0  0  0  0  0  0  0  0  0
  145.4351   66.9148  220.3704 H   0  0  0  0  0  0  0  0  0  0  0  0
  144.5605   67.1260  218.8157 H   0  0  0  0  0  0  0  0  0  0  0  0
  146.2775   66.5984  218.8157 H   0  0  0  0  0  0  0  0  0  0  0  0
  146.2350   68.9864  220.2857 H   0  0  0  0  0  0  0  0  0  0  0  0
  146.8328   68.7180  218.5855 H   0  0  0  0  0  0  0  0  0  0  0  0
  144.0330   69.1010  218.6550 H   0  0  0  0  0  0  0  0  0  0  0  0
  145.4786   70.6730  220.4062 H   0  0  0  0  0  0  0  0  0  0  0  0
  142.9136   71.0971  218.9523 H   0  0  0  0  0  0  0  0  0  0  0  0
  143.2656   70.7846  220.7041 H   0  0  0  0  0  0  0  0  0  0  0  0
  137.8736   71.6550  223.1884 H   0  0  0  0  0  0  0  0  0  0  0  0
  138.4954   71.9228  221.5538 H   0  0  0  0  0  0  0  0  0  0  0  0
  138.2027   69.4596  222.0749 H   0  0  0  0  0  0  0  0  0  0  0  0
  139.9019   69.8407  221.7383 H   0  0  0  0  0  0  0  0  0  0  0  0
  138.7449   67.5732  223.4316 H   0  0  0  0  0  0  0  0  0  0  0  0
  139.3049   66.7307  225.7078 H   0  0  0  0  0  0  0  0  0  0  0  0
  140.3151   68.2824  227.3956 H   0  0  0  0  0  0  0  0  0  0  0  0
  140.7398   70.6366  226.7559 H   0  0  0  0  0  0  0  0  0  0  0  0
  139.6958   72.5001  225.1542 H   0  0  0  0  0  0  0  0  0  0  0  0
  141.3515   72.0713  224.6482 H   0  0  0  0  0  0  0  0  0  0  0  0
  141.5788   77.5547  219.7764 H   0  0  0  0  0  0  0  0  0  0  0  0
  140.2248   76.4099  219.5601 H   0  0  0  0  0  0  0  0  0  0  0  0
  139.4422   78.7892  219.5763 H   0  0  0  0  0  0  0  0  0  0  0  0
  138.7520   77.8777  220.9369 H   0  0  0  0  0  0  0  0  0  0  0  0
  139.8019   81.0053  220.4166 H   0  0  0  0  0  0  0  0  0  0  0  0
  140.9441   82.5166  222.0556 H   0  0  0  0  0  0  0  0  0  0  0  0
  142.1090   81.5141  223.9779 H   0  0  0  0  0  0  0  0  0  0  0  0
  142.1891   79.0651  224.3455 H   0  0  0  0  0  0  0  0  0  0  0  0
  141.9990   76.9764  223.2784 H   0  0  0  0  0  0  0  0  0  0  0  0
  140.1950   76.9434  223.3746 H   0  0  0  0  0  0  0  0  0  0  0  0
  144.4114   73.9489  218.5459 H   0  0  0  0  0  0  0  0  0  0  0  0
  144.7505   74.4977  220.2052 H   0  0  0  0  0  0  0  0  0  0  0  0
  146.7661   73.4140  219.1910 H   0  0  0  0  0  0  0  0  0  0  0  0
  146.1991   72.4591  220.5677 H   0  0  0  0  0  0  0  0  0  0  0  0
  1  2  1  0
  2  3  1  0
  3  4  1  0
  4  5  1  0
  5  6  1  0
  6  7  1  0
  7  8  2  0
  8  9  1  0
  9 10  1  0
 10 11  1  0
 11 12  1  0
 12 13  1  0
 13 14  2  0
 14 15  1  0
 15 16  2  0
 16 17  1  0
 17 18  2  0
 18 19  1  0
  9 20  2  0
 20 21  1  0
 21 22  1  0
 22 23  1  0
 23 24  1  0
 24 25  1  0
 25 26  2  0
 26 27  1  0
 27 28  2  0
 28 29  1  0
 29 30  2  0
 30 31  1  0
 21 32  2  0
  6 33  1  0
 33 34  1  0
 34 35  1  0
 35  4  1  0
 32  7  1  0
 19 10  1  0
 31 22  1  0
 18 13  1  0
 30 25  1  0
  1 36  1  0
  1 37  1  0
  1 38  1  0
  2 39  1  0
  2 40  1  0
  3 41  1  0
  4 42  1  1
  5 43  1  0
  5 44  1  0
 11 45  1  0
 11 46  1  0
 12 47  1  0
 12 48  1  0
 14 49  1  0
 15 50  1  0
 16 51  1  0
 17 52  1  0
 19 53  1  0
 19 54  1  0
 23 55  1  0
 23 56  1  0
 24 57  1  0
 24 58  1  0
 26 59  1  0
 27 60  1  0
 28 61  1  0
 29 62  1  0
 31 63  1  0
 31 64  1  0
 33 65  1  0
 33 66  1  0
 34 67  1  0
 34 68  1  0
M  END
>  <smiles>  (25) 
CCNC1CN(c2nc(N3CCc4ccccc4C3)nc(N3CCc4ccccc4C3)n2)CCO1

>  <score_type>  (25) 
oracle

>  <origin>  (25) 
autodockgpu

>  <m_score__min__energy>  (25) 
-9.6099999999999994

>  <m_primary>  (25) 
energy

>  <rmsd>  (25) 
9.474478858270013

>  <m_score__min__rmsd>  (25) 
9.474478858270013

>  <meeko>  (25) 
{"free_energy": -9.28, "intermolecular_energy": -10.77, "internal_energy": -0.98, "cluster_size": 40, "cluster_id": 1, "rank_in_cluster": 27}

>  <energy>  (25) 
-9.28

>  <cluster_rmsd>  (25) 
1.42

>  <cluster>  (25) 
1

$$$$

     RDKit          3D

 68 73  0  0  1  0  0  0  0  0999 V2000
  145.0050   74.7150  216.0680 C   0  0  0  0  0  0  0  0  0  0  0  0
  146.1280   73.7420  216.2650 C   0  0  0  0  0  0  0  0  0  0  0  0
  146.3280   73.3880  217.6490 N   0  0  0  0  0  0  0  0  0  0  0  0
  145.1730   72.7140  218.1780 C   0  0  2  0  0  0  0  0  0  0  0  0
  144.4800   73.5030  219.2620 C   0  0  0  0  0  0  0  0  0  0  0  0
  143.6240   72.6610  220.0800 N   0  0  0  0  0  0  0  0  0  0  0  0
  142.5690   73.2530  220.8440 C   0  0  0  0  0  0  0  0  0  0  0  0
  141.7670   72.4790  221.6110 N   0  0  0  0  0  0  0  0  0  0  0  0
  140.7690   72.9850  222.3420 C   0  0  0  0  0  0  0  0  0  0  0  0
  139.9530   72.1280  223.1300 N   0  0  0  0  0  0  0  0  0  0  0  0
  138.7760   71.4990  222.5520 C   0  0  0  0  0  0  0  0  0  0  0  0
  139.0960   70.0190  222.4780 C   0  0  0  0  0  0  0  0  0  0  0  0
  139.4310   69.5950  223.8660 C   0  0  0  0  0  0  0  0  0  0  0  0
  139.1760   68.2770  224.2320 C   0  0  0  0  0  0  0  0  0  0  0  0
  139.4690   67.8150  225.5190 C   0  0  0  0  0  0  0  0  0  0  0  0
  140.0250   68.6810  226.4540 C   0  0  0  0  0  0  0  0  0  0  0  0
  140.2720   69.9860  226.0730 C   0  0  0  0  0  0  0  0  0  0  0  0
  139.9840   70.4510  224.7990 C   0  0  0  0  0  0  0  0  0  0  0  0
  140.2940   71.8760  224.5090 C   0  0  0  0  0  0  0  0  0  0  0  0
  140.5760   74.3100  222.2950 N   0  0  0  0  0  0  0  0  0  0  0  0
  141.3730   75.0950  221.5290 C   0  0  0  0  0  0  0  0  0  0  0  0
  141.1110   76.5060  221.5210 N   0  0  0  0  0  0  0  0  0  0  0  0
  140.9340   77.1570  220.2420 C   0  0  0  0  0  0  0  0  0  0  0  0
  139.9490   78.2900  220.4240 C   0  0  0  0  0  0  0  0  0  0  0  0
  140.5170   79.1920  221.4590 C   0  0  0  0  0  0  0  0  0  0  0  0
  140.5350   80.5710  221.3120 C   0  0  0  0  0  0  0  0  0  0  0  0
  141.0750   81.3870  222.3020 C   0  0  0  0  0  0  0  0  0  0  0  0
  141.5860   80.7810  223.4240 C   0  0  0  0  0  0  0  0  0  0  0  0
  141.5930   79.4160  223.6200 C   0  0  0  0  0  0  0  0  0  0  0  0
  141.0450   78.6450  222.6070 C   0  0  0  0  0  0  0  0  0  0  0  0
  141.0410   77.1870  222.7920 C   0  0  0  0  0  0  0  0  0  0  0  0
  142.3690   74.5590  220.8050 N   0  0  0  0  0  0  0  0  0  0  0  0
  143.8140   71.2100  220.1440 C   0  0  0  0  0  0  0  0  0  0  0  0
  144.3180   70.7640  218.7870 C   0  0  0  0  0  0  0  0  0  0  0  0
  145.5400   71.4470  218.5910 O   0  0  0  0  0  0  0  0  0  0  0  0
  144.6273   75.0423  217.0479 H   0  0  0  0  0  0  0  0  0  0  0  0
  145.3699   75.5872  215.5058 H   0  0  0  0  0  0  0  0  0  0  0  0
  144.1937   74.2296  215.5058 H   0  0  0  0  0  0  0  0  0  0  0  0
  145.9030   72.8268  215.6977 H   0  0  0  0  0  0  0  0  0  0  0  0
  147.0502   74.2265  215.9117 H   0  0  0  0  0  0  0  0  0  0  0  0
  146.7040   74.1500  218.2220 H   0  0  0  0  0  0  0  0  0  0  0  0
  144.4228   72.6219  217.3788 H   0  0  0  0  0  0  0  0  0  0  0  0
  145.2412   73.9683  219.9054 H   0  0  0  0  0  0  0  0  0  0  0  0
  143.8497   74.2648  218.7800 H   0  0  0  0  0  0  0  0  0  0  0  0
  137.8971   71.6698  223.1910 H   0  0  0  0  0  0  0  0  0  0  0  0
  138.5399   71.9133  221.5607 H   0  0  0  0  0  0  0  0  0  0  0  0
  138.2246   69.4587  222.1082 H   0  0  0  0  0  0  0  0  0  0  0  0
  139.9298   69.8238  221.7876 H   0  0  0  0  0  0  0  0  0  0  0  0
  138.7366   67.5869  223.4967 H   0  0  0  0  0  0  0  0  0  0  0  0
  139.2603   66.7697  225.7908 H   0  0  0  0  0  0  0  0  0  0  0  0
  140.2622   68.3360  227.4712 H   0  0  0  0  0  0  0  0  0  0  0  0
  140.7119   70.6793  226.8050 H   0  0  0  0  0  0  0  0  0  0  0  0
  139.7019   72.5294  225.1666 H   0  0  0  0  0  0  0  0  0  0  0  0
  141.3601   72.0817  224.6857 H   0  0  0  0  0  0  0  0  0  0  0  0
  141.8974   77.5535  219.8890 H   0  0  0  0  0  0  0  0  0  0  0  0
  140.5567   76.4397  219.4982 H   0  0  0  0  0  0  0  0  0  0  0  0
  139.8194   78.8346  219.4771 H   0  0  0  0  0  0  0  0  0  0  0  0
  138.9632   77.9100  220.7302 H   0  0  0  0  0  0  0  0  0  0  0  0
  140.1173   81.0256  220.4016 H   0  0  0  0  0  0  0  0  0  0  0  0
  141.0920   82.4811  222.1896 H   0  0  0  0  0  0  0  0  0  0  0  0
  142.0136   81.4205  224.2102 H   0  0  0  0  0  0  0  0  0  0  0  0
  142.0110   78.9635  224.5313 H   0  0  0  0  0  0  0  0  0  0  0  0
  141.9092   76.8992  223.4030 H   0  0  0  0  0  0  0  0  0  0  0  0
  140.1054   76.8991  223.2938 H   0  0  0  0  0  0  0  0  0  0  0  0
  144.5518   70.9604  220.9207 H   0  0  0  0  0  0  0  0  0  0  0  0
  142.8707   70.7034  220.3960 H   0  0  0  0  0  0  0  0  0  0  0  0
  144.4804   69.6761  218.7765 H   0  0  0  0  0  0  0  0  0  0  0  0
  143.5939   70.9893  217.9902 H   0  0  0  0  0  0  0  0  0  0  0  0
  1  2  1  0
  2  3  1  0
  3  4  1  0
  4  5  1  0
  5  6  1  0
  6  7  1  0
  7  8  2  0
  8  9  1  0
  9 10  1  0
 10 11  1  0
 11 12  1  0
 12 13  1  0
 13 14  2  0
 14 15  1  0
 15 16  2  0
 16 17  1  0
 17 18  2  0
 18 19  1  0
  9 20  2  0
 20 21  1  0
 21 22  1  0
 22 23  1  0
 23 24  1  0
 24 25  1  0
 25 26  2  0
 26 27  1  0
 27 28  2  0
 28 29  1  0
 29 30  2  0
 30 31  1  0
 21 32  2  0
  6 33  1  0
 33 34  1  0
 34 35  1  0
 35  4  1  0
 32  7  1  0
 19 10  1  0
 31 22  1  0
 18 13  1  0
 30 25  1  0
  1 36  1  0
  1 37  1  0
  1 38  1  0
  2 39  1  0
  2 40  1  0
  3 41  1  0
  4 42  1  6
  5 43  1  0
  5 44  1  0
 11 45  1  0
 11 46  1  0
 12 47  1  0
 12 48  1  0
 14 49  1  0
 15 50  1  0
 16 51  1  0
 17 52  1  0
 19 53  1  0
 19 54  1  0
 23 55  1  0
 23 56  1  0
 24 57  1  0
 24 58  1  0
 26 59  1  0
 27 60  1  0
 28 61  1  0
 29 62  1  0
 31 63  1  0
 31 64  1  0
 33 65  1  0
 33 66  1  0
 34 67  1  0
 34 68  1  0
M  END
>  <smiles>  (26) 
CCNC1CN(c2nc(N3CCc4ccccc4C3)nc(N3CCc4ccccc4C3)n2)CCO1

>  <score_type>  (26) 
oracle

>  <origin>  (26) 
autodockgpu

>  <m_score__min__energy>  (26) 
-9.6099999999999994

>  <m_primary>  (26) 
energy

>  <rmsd>  (26) 
7.462507367673191

>  <m_score__min__rmsd>  (26) 
7.462507367673191

>  <meeko>  (26) 
{"free_energy": -9.54, "intermolecular_energy": -11.03, "internal_energy": -1.04, "cluster_size": 40, "cluster_id": 1, "rank_in_cluster": 4}

>  <energy>  (26) 
-9.28

>  <cluster_rmsd>  (26) 
1.38

>  <cluster>  (26) 
1

$$$$

     RDKit          3D

 68 73  0  0  1  0  0  0  0  0999 V2000
  145.9810   66.8880  218.9240 C   0  0  0  0  0  0  0  0  0  0  0  0
  145.3450   68.0540  219.6170 C   0  0  0  0  0  0  0  0  0  0  0  0
  145.9600   69.3130  219.2770 N   0  0  0  0  0  0  0  0  0  0  0  0
  144.9660   70.2950  218.9370 C   0  0  2  0  0  0  0  0  0  0  0  0
  144.0970   70.6800  220.1090 C   0  0  0  0  0  0  0  0  0  0  0  0
  142.8550   71.2990  219.6810 N   0  0  0  0  0  0  0  0  0  0  0  0
  142.1200   72.1180  220.5950 C   0  0  0  0  0  0  0  0  0  0  0  0
  141.3920   71.5500  221.5850 N   0  0  0  0  0  0  0  0  0  0  0  0
  140.6890   72.2720  222.4620 C   0  0  0  0  0  0  0  0  0  0  0  0
  139.9400   71.6260  223.4830 N   0  0  0  0  0  0  0  0  0  0  0  0
  138.7150   70.9140  223.1550 C   0  0  0  0  0  0  0  0  0  0  0  0
  139.0220   69.4460  223.3810 C   0  0  0  0  0  0  0  0  0  0  0  0
  139.4710   69.3270  224.7960 C   0  0  0  0  0  0  0  0  0  0  0  0
  139.2420   68.1260  225.4610 C   0  0  0  0  0  0  0  0  0  0  0  0
  139.6410   67.9490  226.7890 C   0  0  0  0  0  0  0  0  0  0  0  0
  140.2790   68.9850  227.4630 C   0  0  0  0  0  0  0  0  0  0  0  0
  140.4980   70.1700  226.7870 C   0  0  0  0  0  0  0  0  0  0  0  0
  140.1050   70.3530  225.4700 C   0  0  0  0  0  0  0  0  0  0  0  0
  140.3960   71.6730  224.8520 C   0  0  0  0  0  0  0  0  0  0  0  0
  140.7220   73.6060  222.3360 N   0  0  0  0  0  0  0  0  0  0  0  0
  141.4470   74.1860  221.3480 C   0  0  0  0  0  0  0  0  0  0  0  0
  141.4360   75.6180  221.2650 N   0  0  0  0  0  0  0  0  0  0  0  0
  142.0530   76.2380  220.1130 C   0  0  0  0  0  0  0  0  0  0  0  0
  141.2950   77.5090  219.8020 C   0  0  0  0  0  0  0  0  0  0  0  0
  141.3620   78.3580  221.0200 C   0  0  0  0  0  0  0  0  0  0  0  0
  141.6540   79.7130  220.9650 C   0  0  0  0  0  0  0  0  0  0  0  0
  141.7080   80.4790  222.1260 C   0  0  0  0  0  0  0  0  0  0  0  0
  141.4610   79.8480  223.3210 C   0  0  0  0  0  0  0  0  0  0  0  0
  141.1650   78.5060  223.4320 C   0  0  0  0  0  0  0  0  0  0  0  0
  141.1240   77.7850  222.2490 C   0  0  0  0  0  0  0  0  0  0  0  0
  140.8110   76.3520  222.3400 C   0  0  0  0  0  0  0  0  0  0  0  0
  142.1440   73.4350  220.4790 N   0  0  0  0  0  0  0  0  0  0  0  0
  142.3310   71.1050  218.3270 C   0  0  0  0  0  0  0  0  0  0  0  0
  143.5210   70.9710  217.4010 C   0  0  0  0  0  0  0  0  0  0  0  0
  144.2330   69.8390  217.8570 O   0  0  0  0  0  0  0  0  0  0  0  0
  146.3664   66.1815  219.6738 H   0  0  0  0  0  0  0  0  0  0  0  0
  145.2333   66.3831  218.2947 H   0  0  0  0  0  0  0  0  0  0  0  0
  146.8103   67.2433  218.2947 H   0  0  0  0  0  0  0  0  0  0  0  0
  144.2830   68.0943  219.3332 H   0  0  0  0  0  0  0  0  0  0  0  0
  145.4744   67.9052  220.6992 H   0  0  0  0  0  0  0  0  0  0  0  0
  146.7470   69.2280  218.6260 H   0  0  0  0  0  0  0  0  0  0  0  0
  145.4762   71.2268  218.6516 H   0  0  0  0  0  0  0  0  0  0  0  0
  143.8622   69.7759  220.6899 H   0  0  0  0  0  0  0  0  0  0  0  0
  144.6498   71.4100  220.7184 H   0  0  0  0  0  0  0  0  0  0  0  0
  137.8943   71.2399  223.8110 H   0  0  0  0  0  0  0  0  0  0  0  0
  138.3966   71.1081  222.1201 H   0  0  0  0  0  0  0  0  0  0  0  0
  138.1204   68.8382  223.2149 H   0  0  0  0  0  0  0  0  0  0  0  0
  139.7939   69.0867  222.6846 H   0  0  0  0  0  0  0  0  0  0  0  0
  138.7388   67.3026  224.9329 H   0  0  0  0  0  0  0  0  0  0  0  0
  139.4510   66.9933  227.2994 H   0  0  0  0  0  0  0  0  0  0  0  0
  140.6011   68.8640  228.5078 H   0  0  0  0  0  0  0  0  0  0  0  0
  141.0010   70.9959  227.3113 H   0  0  0  0  0  0  0  0  0  0  0  0
  139.8647   72.4672  225.3969 H   0  0  0  0  0  0  0  0  0  0  0  0
  141.4740   71.8883  224.8922 H   0  0  0  0  0  0  0  0  0  0  0  0
  143.1038   76.4753  220.3353 H   0  0  0  0  0  0  0  0  0  0  0  0
  142.0231   75.5555  219.2509 H   0  0  0  0  0  0  0  0  0  0  0  0
  141.7605   78.0291  218.9518 H   0  0  0  0  0  0  0  0  0  0  0  0
  140.2518   77.2900  219.5305 H   0  0  0  0  0  0  0  0  0  0  0  0
  141.8453   80.1882  219.9915 H   0  0  0  0  0  0  0  0  0  0  0  0
  141.9406   81.5534  222.0879 H   0  0  0  0  0  0  0  0  0  0  0  0
  141.5017   80.4478  224.2422 H   0  0  0  0  0  0  0  0  0  0  0  0
  140.9719   78.0333  224.4063 H   0  0  0  0  0  0  0  0  0  0  0  0
  141.1776   75.9638  223.3017 H   0  0  0  0  0  0  0  0  0  0  0  0
  139.7210   76.2252  222.2644 H   0  0  0  0  0  0  0  0  0  0  0  0
  141.7180   70.1925  218.2873 H   0  0  0  0  0  0  0  0  0  0  0  0
  141.6976   71.9533  218.0283 H   0  0  0  0  0  0  0  0  0  0  0  0
  143.1855   70.8213  216.3641 H   0  0  0  0  0  0  0  0  0  0  0  0
  144.1468   71.8756  217.4097 H   0  0  0  0  0  0  0  0  0  0  0  0
  1  2  1  0
  2  3  1  0
  3  4  1  0
  4  5  1  0
  5  6  1  0
  6  7  1  0
  7  8  2  0
  8  9  1  0
  9 10  1  0
 10 11  1  0
 11 12  1  0
 12 13  1  0
 13 14  2  0
 14 15  1  0
 15 16  2  0
 16 17  1  0
 17 18  2  0
 18 19  1  0
  9 20  2  0
 20 21  1  0
 21 22  1  0
 22 23  1  0
 23 24  1  0
 24 25  1  0
 25 26  2  0
 26 27  1  0
 27 28  2  0
 28 29  1  0
 29 30  2  0
 30 31  1  0
 21 32  2  0
  6 33  1  0
 33 34  1  0
 34 35  1  0
 35  4  1  0
 32  7  1  0
 19 10  1  0
 31 22  1  0
 18 13  1  0
 30 25  1  0
  1 36  1  0
  1 37  1  0
  1 38  1  0
  2 39  1  0
  2 40  1  0
  3 41  1  0
  4 42  1  6
  5 43  1  0
  5 44  1  0
 11 45  1  0
 11 46  1  0
 12 47  1  0
 12 48  1  0
 14 49  1  0
 15 50  1  0
 16 51  1  0
 17 52  1  0
 19 53  1  0
 19 54  1  0
 23 55  1  0
 23 56  1  0
 24 57  1  0
 24 58  1  0
 26 59  1  0
 27 60  1  0
 28 61  1  0
 29 62  1  0
 31 63  1  0
 31 64  1  0
 33 65  1  0
 33 66  1  0
 34 67  1  0
 34 68  1  0
M  END
>  <smiles>  (27) 
CCNC1CN(c2nc(N3CCc4ccccc4C3)nc(N3CCc4ccccc4C3)n2)CCO1

>  <score_type>  (27) 
oracle

>  <origin>  (27) 
autodockgpu

>  <m_score__min__energy>  (27) 
-9.6099999999999994

>  <m_primary>  (27) 
energy

>  <rmsd>  (27) 
9.694312820486646

>  <m_score__min__rmsd>  (27) 
9.694312820486646

>  <meeko>  (27) 
{"free_energy": -9.54, "intermolecular_energy": -11.03, "internal_energy": -1.03, "cluster_size": 40, "cluster_id": 1, "rank_in_cluster": 5}

>  <energy>  (27) 
-9.28

>  <cluster_rmsd>  (27) 
1.45

>  <cluster>  (27) 
1

$$$$

     RDKit          3D

 68 73  0  0  1  0  0  0  0  0999 V2000
  140.6850   71.5520  227.9500 C   0  0  0  0  0  0  0  0  0  0  0  0
  140.9820   70.5680  226.8590 C   0  0  0  0  0  0  0  0  0  0  0  0
  139.8230   69.8110  226.4550 N   0  0  0  0  0  0  0  0  0  0  0  0
  139.4890   70.0750  225.0820 C   0  0  2  0  0  0  0  0  0  0  0  0
  140.3530   71.1480  224.4650 C   0  0  0  0  0  0  0  0  0  0  0  0
  139.7430   71.7150  223.2750 N   0  0  0  0  0  0  0  0  0  0  0  0
  140.5590   72.3960  222.3170 C   0  0  0  0  0  0  0  0  0  0  0  0
  141.3200   71.6920  221.4470 N   0  0  0  0  0  0  0  0  0  0  0  0
  142.0980   72.2830  220.5350 C   0  0  0  0  0  0  0  0  0  0  0  0
  142.8790   71.4970  219.6450 N   0  0  0  0  0  0  0  0  0  0  0  0
  143.9470   72.1090  218.8700 C   0  0  0  0  0  0  0  0  0  0  0  0
  145.2370   71.5460  219.4330 C   0  0  0  0  0  0  0  0  0  0  0  0
  145.1320   70.0650  219.3170 C   0  0  0  0  0  0  0  0  0  0  0  0
  146.3040   69.3300  219.1680 C   0  0  0  0  0  0  0  0  0  0  0  0
  146.2730   67.9370  219.0560 C   0  0  0  0  0  0  0  0  0  0  0  0
  145.0550   67.2670  219.0930 C   0  0  0  0  0  0  0  0  0  0  0  0
  143.9020   68.0120  219.2420 C   0  0  0  0  0  0  0  0  0  0  0  0
  143.9240   69.3940  219.3540 C   0  0  0  0  0  0  0  0  0  0  0  0
  142.6160   70.0840  219.5090 C   0  0  0  0  0  0  0  0  0  0  0  0
  142.1070   73.6220  220.5010 N   0  0  0  0  0  0  0  0  0  0  0  0
  141.3490   74.3380  221.3680 C   0  0  0  0  0  0  0  0  0  0  0  0
  141.4080   75.7690  221.2810 N   0  0  0  0  0  0  0  0  0  0  0  0
  142.0670   76.3540  220.1350 C   0  0  0  0  0  0  0  0  0  0  0  0
  141.3750   77.6590  219.8120 C   0  0  0  0  0  0  0  0  0  0  0  0
  141.4670   78.5080  221.0280 C   0  0  0  0  0  0  0  0  0  0  0  0
  141.8250   79.8470  220.9720 C   0  0  0  0  0  0  0  0  0  0  0  0
  141.9020   80.6140  222.1320 C   0  0  0  0  0  0  0  0  0  0  0  0
  141.6110   80.0000  223.3260 C   0  0  0  0  0  0  0  0  0  0  0  0
  141.2500   78.6730  223.4370 C   0  0  0  0  0  0  0  0  0  0  0  0
  141.1880   77.9510  222.2550 C   0  0  0  0  0  0  0  0  0  0  0  0
  140.8060   76.5350  222.3470 C   0  0  0  0  0  0  0  0  0  0  0  0
  140.5760   73.7170  222.2750 N   0  0  0  0  0  0  0  0  0  0  0  0
  138.3040   71.6060  223.0270 C   0  0  0  0  0  0  0  0  0  0  0  0
  137.8470   70.2860  223.6110 C   0  0  0  0  0  0  0  0  0  0  0  0
  138.1400   70.3590  224.9920 O   0  0  0  0  0  0  0  0  0  0  0  0
  140.8305   71.0700  228.9280 H   0  0  0  0  0  0  0  0  0  0  0  0
  141.3631   72.4136  227.8613 H   0  0  0  0  0  0  0  0  0  0  0  0
  139.6435   71.8945  227.8613 H   0  0  0  0  0  0  0  0  0  0  0  0
  141.3645   71.1169  225.9858 H   0  0  0  0  0  0  0  0  0  0  0  0
  141.7221   69.8546  227.2505 H   0  0  0  0  0  0  0  0  0  0  0  0
  139.0450   69.8560  227.1220 H   0  0  0  0  0  0  0  0  0  0  0  0
  139.7005   69.1727  224.4894 H   0  0  0  0  0  0  0  0  0  0  0  0
  140.5062   71.9495  225.2027 H   0  0  0  0  0  0  0  0  0  0  0  0
  141.3098   70.6903  224.1733 H   0  0  0  0  0  0  0  0  0  0  0  0
  143.8468   71.8481  217.8061 H   0  0  0  0  0  0  0  0  0  0  0  0
  143.9197   73.2066  218.9372 H   0  0  0  0  0  0  0  0  0  0  0  0
  146.0975   71.9134  218.8545 H   0  0  0  0  0  0  0  0  0  0  0  0
  145.3862   71.8558  220.4779 H   0  0  0  0  0  0  0  0  0  0  0  0
  147.2708   69.8537  219.1378 H   0  0  0  0  0  0  0  0  0  0  0  0
  147.2097   67.3722  218.9389 H   0  0  0  0  0  0  0  0  0  0  0  0
  145.0112   66.1713  219.0058 H   0  0  0  0  0  0  0  0  0  0  0  0
  142.9333   67.4917  219.2729 H   0  0  0  0  0  0  0  0  0  0  0  0
  141.9896   69.9030  218.6231 H   0  0  0  0  0  0  0  0  0  0  0  0
  142.0823   69.7044  220.3928 H   0  0  0  0  0  0  0  0  0  0  0  0
  143.1255   76.5409  220.3685 H   0  0  0  0  0  0  0  0  0  0  0  0
  142.0139   75.6708  219.2745 H   0  0  0  0  0  0  0  0  0  0  0  0
  141.8755   78.1535  218.9665 H   0  0  0  0  0  0  0  0  0  0  0  0
  140.3258   77.4890  219.5285 H   0  0  0  0  0  0  0  0  0  0  0  0
  142.0509   80.3087  219.9995 H   0  0  0  0  0  0  0  0  0  0  0  0
  142.1863   81.6759  222.0934 H   0  0  0  0  0  0  0  0  0  0  0  0
  141.6691   80.6005  224.2458 H   0  0  0  0  0  0  0  0  0  0  0  0
  141.0237   78.2129  224.4102 H   0  0  0  0  0  0  0  0  0  0  0  0
  141.1428   76.1331  223.3140 H   0  0  0  0  0  0  0  0  0  0  0  0
  139.7121   76.4595  222.2598 H   0  0  0  0  0  0  0  0  0  0  0  0
  137.7737   72.4374  223.5144 H   0  0  0  0  0  0  0  0  0  0  0  0
  138.0893   71.6509  221.9491 H   0  0  0  0  0  0  0  0  0  0  0  0
  136.7667   70.1504  223.4544 H   0  0  0  0  0  0  0  0  0  0  0  0
  138.3510   69.4333  223.1327 H   0  0  0  0  0  0  0  0  0  0  0  0
  1  2  1  0
  2  3  1  0
  3  4  1  0
  4  5  1  0
  5  6  1  0
  6  7  1  0
  7  8  2  0
  8  9  1  0
  9 10  1  0
 10 11  1  0
 11 12  1  0
 12 13  1  0
 13 14  2  0
 14 15  1  0
 15 16  2  0
 16 17  1  0
 17 18  2  0
 18 19  1  0
  9 20  2  0
 20 21  1  0
 21 22  1  0
 22 23  1  0
 23 24  1  0
 24 25  1  0
 25 26  2  0
 26 27  1  0
 27 28  2  0
 28 29  1  0
 29 30  2  0
 30 31  1  0
 21 32  2  0
  6 33  1  0
 33 34  1  0
 34 35  1  0
 35  4  1  0
 32  7  1  0
 19 10  1  0
 31 22  1  0
 18 13  1  0
 30 25  1  0
  1 36  1  0
  1 37  1  0
  1 38  1  0
  2 39  1  0
  2 40  1  0
  3 41  1  0
  4 42  1  6
  5 43  1  0
  5 44  1  0
 11 45  1  0
 11 46  1  0
 12 47  1  0
 12 48  1  0
 14 49  1  0
 15 50  1  0
 16 51  1  0
 17 52  1  0
 19 53  1  0
 19 54  1  0
 23 55  1  0
 23 56  1  0
 24 57  1  0
 24 58  1  0
 26 59  1  0
 27 60  1  0
 28 61  1  0
 29 62  1  0
 31 63  1  0
 31 64  1  0
 33 65  1  0
 33 66  1  0
 34 67  1  0
 34 68  1  0
M  END
>  <smiles>  (28) 
CCNC1CN(c2nc(N3CCc4ccccc4C3)nc(N3CCc4ccccc4C3)n2)CCO1

>  <score_type>  (28) 
oracle

>  <origin>  (28) 
autodockgpu

>  <m_score__min__energy>  (28) 
-9.6099999999999994

>  <m_primary>  (28) 
energy

>  <rmsd>  (28) 
8.324487165660102

>  <m_score__min__rmsd>  (28) 
8.324487165660102

>  <meeko>  (28) 
{"free_energy": -9.17, "intermolecular_energy": -10.67, "internal_energy": -1.05, "cluster_size": 7, "cluster_id": 2, "rank_in_cluster": 6}

>  <energy>  (28) 
-9.27

>  <cluster_rmsd>  (28) 
1.36

>  <cluster>  (28) 
1

$$$$

     RDKit          3D

 68 73  0  0  1  0  0  0  0  0999 V2000
  145.9590   67.6950  219.7300 C   0  0  0  0  0  0  0  0  0  0  0  0
  144.7160   67.0280  219.2220 C   0  0  0  0  0  0  0  0  0  0  0  0
  143.7520   67.9630  218.6960 N   0  0  0  0  0  0  0  0  0  0  0  0
  144.0420   69.3010  219.1370 C   0  0  2  0  0  0  0  0  0  0  0  0
  142.8360   70.0030  219.7110 C   0  0  0  0  0  0  0  0  0  0  0  0
  143.0080   71.4450  219.7310 N   0  0  0  0  0  0  0  0  0  0  0  0
  142.2120   72.2410  220.6140 C   0  0  0  0  0  0  0  0  0  0  0  0
  141.4630   71.6510  221.5740 N   0  0  0  0  0  0  0  0  0  0  0  0
  140.7040   72.3520  222.4220 C   0  0  0  0  0  0  0  0  0  0  0  0
  139.9340   71.6830  223.4120 N   0  0  0  0  0  0  0  0  0  0  0  0
  138.7150   70.9810  223.0420 C   0  0  0  0  0  0  0  0  0  0  0  0
  139.0140   69.5080  223.2400 C   0  0  0  0  0  0  0  0  0  0  0  0
  139.4350   69.3540  224.6600 C   0  0  0  0  0  0  0  0  0  0  0  0
  139.1920   68.1380  225.2920 C   0  0  0  0  0  0  0  0  0  0  0  0
  139.5640   67.9290  226.6230 C   0  0  0  0  0  0  0  0  0  0  0  0
  140.1890   68.9480  227.3340 C   0  0  0  0  0  0  0  0  0  0  0  0
  140.4230   70.1480  226.6910 C   0  0  0  0  0  0  0  0  0  0  0  0
  140.0560   70.3630  225.3710 C   0  0  0  0  0  0  0  0  0  0  0  0
  140.3620   71.6970  224.7900 C   0  0  0  0  0  0  0  0  0  0  0  0
  140.7020   73.6860  222.2960 N   0  0  0  0  0  0  0  0  0  0  0  0
  141.4480   74.2880  221.3370 C   0  0  0  0  0  0  0  0  0  0  0  0
  141.3980   75.7190  221.2540 N   0  0  0  0  0  0  0  0  0  0  0  0
  141.9620   76.3520  220.0820 C   0  0  0  0  0  0  0  0  0  0  0  0
  141.1620   77.6030  219.7930 C   0  0  0  0  0  0  0  0  0  0  0  0
  141.2450   78.4560  221.0080 C   0  0  0  0  0  0  0  0  0  0  0  0
  141.5010   79.8180  220.9410 C   0  0  0  0  0  0  0  0  0  0  0  0
  141.5710   80.5870  222.0990 C   0  0  0  0  0  0  0  0  0  0  0  0
  141.3780   79.9530  223.3030 C   0  0  0  0  0  0  0  0  0  0  0  0
  141.1210   78.6030  223.4250 C   0  0  0  0  0  0  0  0  0  0  0  0
  141.0600   77.8790  222.2440 C   0  0  0  0  0  0  0  0  0  0  0  0
  140.7880   76.4390  222.3470 C   0  0  0  0  0  0  0  0  0  0  0  0
  142.2020   73.5580  220.4980 N   0  0  0  0  0  0  0  0  0  0  0  0
  143.9830   72.1110  218.8650 C   0  0  0  0  0  0  0  0  0  0  0  0
  145.1540   71.1650  218.6980 C   0  0  0  0  0  0  0  0  0  0  0  0
  144.6220   70.0020  218.0960 O   0  0  0  0  0  0  0  0  0  0  0  0
  145.9534   67.6920  220.8300 H   0  0  0  0  0  0  0  0  0  0  0  0
  146.8425   67.1498  219.3664 H   0  0  0  0  0  0  0  0  0  0  0  0
  145.9931   68.7326  219.3664 H   0  0  0  0  0  0  0  0  0  0  0  0
  144.9960   66.3258  218.4229 H   0  0  0  0  0  0  0  0  0  0  0  0
  144.2462   66.5134  220.0732 H   0  0  0  0  0  0  0  0  0  0  0  0
  142.7790   67.6580  218.7990 H   0  0  0  0  0  0  0  0  0  0  0  0
  144.7566   69.2493  219.9717 H   0  0  0  0  0  0  0  0  0  0  0  0
  141.9564   69.7581  219.0975 H   0  0  0  0  0  0  0  0  0  0  0  0
  142.7035   69.6608  220.7480 H   0  0  0  0  0  0  0  0  0  0  0  0
  137.8813   71.2934  223.6881 H   0  0  0  0  0  0  0  0  0  0  0  0
  138.4192   71.1996  222.0053 H   0  0  0  0  0  0  0  0  0  0  0  0
  138.1143   68.9068  223.0422 H   0  0  0  0  0  0  0  0  0  0  0  0
  139.7989   69.1633  222.5507 H   0  0  0  0  0  0  0  0  0  0  0  0
  138.6989   67.3279  224.7347 H   0  0  0  0  0  0  0  0  0  0  0  0
  139.3631   66.9617  227.1067 H   0  0  0  0  0  0  0  0  0  0  0  0
  140.4894   68.8020  228.3821 H   0  0  0  0  0  0  0  0  0  0  0  0
  140.9170   70.9602  227.2445 H   0  0  0  0  0  0  0  0  0  0  0  0
  139.8212   72.4795  225.3425 H   0  0  0  0  0  0  0  0  0  0  0  0
  141.4393   71.9089  224.8571 H   0  0  0  0  0  0  0  0  0  0  0  0
  143.0129   76.6167  220.2704 H   0  0  0  0  0  0  0  0  0  0  0  0
  141.9221   75.6669  219.2223 H   0  0  0  0  0  0  0  0  0  0  0  0
  141.5874   78.1332  218.9282 H   0  0  0  0  0  0  0  0  0  0  0  0
  140.1169   77.3568  219.5541 H   0  0  0  0  0  0  0  0  0  0  0  0
  141.6504   80.2956  219.9614 H   0  0  0  0  0  0  0  0  0  0  0  0
  141.7742   81.6671  222.0521 H   0  0  0  0  0  0  0  0  0  0  0  0
  141.4315   80.5561  224.2214 H   0  0  0  0  0  0  0  0  0  0  0  0
  140.9726   78.1270  224.4055 H   0  0  0  0  0  0  0  0  0  0  0  0
  141.1947   76.0629  223.2973 H   0  0  0  0  0  0  0  0  0  0  0  0
  139.6998   76.2835  222.3059 H   0  0  0  0  0  0  0  0  0  0  0  0
  143.5311   72.3278  217.8858 H   0  0  0  0  0  0  0  0  0  0  0  0
  144.3107   73.0637  219.3066 H   0  0  0  0  0  0  0  0  0  0  0  0
  145.9216   71.6150  218.0513 H   0  0  0  0  0  0  0  0  0  0  0  0
  145.6355   70.9402  219.6611 H   0  0  0  0  0  0  0  0  0  0  0  0
  1  2  1  0
  2  3  1  0
  3  4  1  0
  4  5  1  0
  5  6  1  0
  6  7  1  0
  7  8  2  0
  8  9  1  0
  9 10  1  0
 10 11  1  0
 11 12  1  0
 12 13  1  0
 13 14  2  0
 14 15  1  0
 15 16  2  0
 16 17  1  0
 17 18  2  0
 18 19  1  0
  9 20  2  0
 20 21  1  0
 21 22  1  0
 22 23  1  0
 23 24  1  0
 24 25  1  0
 25 26  2  0
 26 27  1  0
 27 28  2  0
 28 29  1  0
 29 30  2  0
 30 31  1  0
 21 32  2  0
  6 33  1  0
 33 34  1  0
 34 35  1  0
 35  4  1  0
 32  7  1  0
 19 10  1  0
 31 22  1  0
 18 13  1  0
 30 25  1  0
  1 36  1  0
  1 37  1  0
  1 38  1  0
  2 39  1  0
  2 40  1  0
  3 41  1  0
  4 42  1  1
  5 43  1  0
  5 44  1  0
 11 45  1  0
 11 46  1  0
 12 47  1  0
 12 48  1  0
 14 49  1  0
 15 50  1  0
 16 51  1  0
 17 52  1  0
 19 53  1  0
 19 54  1  0
 23 55  1  0
 23 56  1  0
 24 57  1  0
 24 58  1  0
 26 59  1  0
 27 60  1  0
 28 61  1  0
 29 62  1  0
 31 63  1  0
 31 64  1  0
 33 65  1  0
 33 66  1  0
 34 67  1  0
 34 68  1  0
M  END
>  <smiles>  (29) 
CCNC1CN(c2nc(N3CCc4ccccc4C3)nc(N3CCc4ccccc4C3)n2)CCO1

>  <score_type>  (29) 
oracle

>  <origin>  (29) 
autodockgpu

>  <m_score__min__energy>  (29) 
-9.6099999999999994

>  <m_primary>  (29) 
energy

>  <rmsd>  (29) 
9.742299474733084

>  <m_score__min__rmsd>  (29) 
9.742299474733084

>  <meeko>  (29) 
{"free_energy": -9.14, "intermolecular_energy": -10.64, "internal_energy": -1.05, "cluster_size": 1, "cluster_id": 3, "rank_in_cluster": 1}

>  <energy>  (29) 
-9.26

>  <cluster_rmsd>  (29) 
1.36

>  <cluster>  (29) 
1

$$$$

     RDKit          3D

 68 73  0  0  1  0  0  0  0  0999 V2000
  145.2080   74.6490  215.9700 C   0  0  0  0  0  0  0  0  0  0  0  0
  146.2410   73.6170  216.3060 C   0  0  0  0  0  0  0  0  0  0  0  0
  146.3310   73.3520  217.7210 N   0  0  0  0  0  0  0  0  0  0  0  0
  145.1470   72.6880  218.1950 C   0  0  2  0  0  0  0  0  0  0  0  0
  144.4540   73.4430  219.3030 C   0  0  0  0  0  0  0  0  0  0  0  0
  143.5590   72.5870  220.0620 N   0  0  0  0  0  0  0  0  0  0  0  0
  142.5060   73.1720  220.8340 C   0  0  0  0  0  0  0  0  0  0  0  0
  141.7250   72.3950  221.6200 N   0  0  0  0  0  0  0  0  0  0  0  0
  140.7290   72.8940  222.3580 C   0  0  0  0  0  0  0  0  0  0  0  0
  139.9380   72.0340  223.1670 N   0  0  0  0  0  0  0  0  0  0  0  0
  138.7640   71.3790  222.6110 C   0  0  0  0  0  0  0  0  0  0  0  0
  139.1070   69.9030  222.5510 C   0  0  0  0  0  0  0  0  0  0  0  0
  139.4650   69.5020  223.9400 C   0  0  0  0  0  0  0  0  0  0  0  0
  139.2360   68.1850  224.3250 C   0  0  0  0  0  0  0  0  0  0  0  0
  139.5520   67.7440  225.6130 C   0  0  0  0  0  0  0  0  0  0  0  0
  140.1050   68.6300  226.5310 C   0  0  0  0  0  0  0  0  0  0  0  0
  140.3260   69.9340  226.1320 C   0  0  0  0  0  0  0  0  0  0  0  0
  140.0150   70.3790  224.8550 C   0  0  0  0  0  0  0  0  0  0  0  0
  140.2990   71.8050  224.5450 C   0  0  0  0  0  0  0  0  0  0  0  0
  140.5160   74.2160  222.3000 N   0  0  0  0  0  0  0  0  0  0  0  0
  141.2920   75.0040  221.5160 C   0  0  0  0  0  0  0  0  0  0  0  0
  141.0080   76.4100  221.4960 N   0  0  0  0  0  0  0  0  0  0  0  0
  140.6810   77.0200  220.2260 C   0  0  0  0  0  0  0  0  0  0  0  0
  139.7050   78.1460  220.4830 C   0  0  0  0  0  0  0  0  0  0  0  0
  140.3700   79.0860  221.4220 C   0  0  0  0  0  0  0  0  0  0  0  0
  140.3500   80.4600  221.2340 C   0  0  0  0  0  0  0  0  0  0  0  0
  140.9830   81.3130  222.1340 C   0  0  0  0  0  0  0  0  0  0  0  0
  141.6250   80.7470  223.2090 C   0  0  0  0  0  0  0  0  0  0  0  0
  141.6740   79.3890  223.4430 C   0  0  0  0  0  0  0  0  0  0  0  0
  141.0290   78.5810  222.5190 C   0  0  0  0  0  0  0  0  0  0  0  0
  141.0680   77.1290  222.7460 C   0  0  0  0  0  0  0  0  0  0  0  0
  142.2860   74.4750  220.7830 N   0  0  0  0  0  0  0  0  0  0  0  0
  143.7080   71.1310  220.0600 C   0  0  0  0  0  0  0  0  0  0  0  0
  144.2270   70.7360  218.6930 C   0  0  0  0  0  0  0  0  0  0  0  0
  145.4710   71.3920  218.5530 O   0  0  0  0  0  0  0  0  0  0  0  0
  144.7907   75.0659  216.8985 H   0  0  0  0  0  0  0  0  0  0  0  0
  145.6722   75.4548  215.3824 H   0  0  0  0  0  0  0  0  0  0  0  0
  144.4027   74.1840  215.3824 H   0  0  0  0  0  0  0  0  0  0  0  0
  145.9827   72.6808  215.7894 H   0  0  0  0  0  0  0  0  0  0  0  0
  147.2163   74.0085  215.9811 H   0  0  0  0  0  0  0  0  0  0  0  0
  146.6450   74.1560  218.2740 H   0  0  0  0  0  0  0  0  0  0  0  0
  144.4104   72.6573  217.3787 H   0  0  0  0  0  0  0  0  0  0  0  0
  145.2144   73.8548  219.9829 H   0  0  0  0  0  0  0  0  0  0  0  0
  143.8549   74.2450  218.8472 H   0  0  0  0  0  0  0  0  0  0  0  0
  137.8902   71.5436  223.2586 H   0  0  0  0  0  0  0  0  0  0  0  0
  138.5093   71.7772  221.6177 H   0  0  0  0  0  0  0  0  0  0  0  0
  138.2404   69.3243  222.1985 H   0  0  0  0  0  0  0  0  0  0  0  0
  139.9355   69.7124  221.8530 H   0  0  0  0  0  0  0  0  0  0  0  0
  138.7989   67.4789  223.6036 H   0  0  0  0  0  0  0  0  0  0  0  0
  139.3638   66.6989  225.8998 H   0  0  0  0  0  0  0  0  0  0  0  0
  140.3600   68.3009  227.5492 H   0  0  0  0  0  0  0  0  0  0  0  0
  140.7630   70.6431  226.8505 H   0  0  0  0  0  0  0  0  0  0  0  0
  139.7041   72.4569  225.2016 H   0  0  0  0  0  0  0  0  0  0  0  0
  141.3634   72.0302  224.7073 H   0  0  0  0  0  0  0  0  0  0  0  0
  141.5934   77.4172  219.7572 H   0  0  0  0  0  0  0  0  0  0  0  0
  140.2349   76.2760  219.5496 H   0  0  0  0  0  0  0  0  0  0  0  0
  139.4633   78.6598  219.5409 H   0  0  0  0  0  0  0  0  0  0  0  0
  138.7650   77.7638  220.9076 H   0  0  0  0  0  0  0  0  0  0  0  0
  139.8273   80.8812  220.3626 H   0  0  0  0  0  0  0  0  0  0  0  0
  140.9696   82.4034  221.9894 H   0  0  0  0  0  0  0  0  0  0  0  0
  142.1284   81.4151  223.9234 H   0  0  0  0  0  0  0  0  0  0  0  0
  142.1964   78.9694  224.3154 H   0  0  0  0  0  0  0  0  0  0  0  0
  142.0026   76.8707  223.2654 H   0  0  0  0  0  0  0  0  0  0  0  0
  140.1979   76.8454  223.3564 H   0  0  0  0  0  0  0  0  0  0  0  0
  144.4229   70.8242  220.8377 H   0  0  0  0  0  0  0  0  0  0  0  0
  142.7464   70.6397  220.2696 H   0  0  0  0  0  0  0  0  0  0  0  0
  144.3593   69.6456  218.6332 H   0  0  0  0  0  0  0  0  0  0  0  0
  143.5258   71.0199  217.8945 H   0  0  0  0  0  0  0  0  0  0  0  0
  1  2  1  0
  2  3  1  0
  3  4  1  0
  4  5  1  0
  5  6  1  0
  6  7  1  0
  7  8  2  0
  8  9  1  0
  9 10  1  0
 10 11  1  0
 11 12  1  0
 12 13  1  0
 13 14  2  0
 14 15  1  0
 15 16  2  0
 16 17  1  0
 17 18  2  0
 18 19  1  0
  9 20  2  0
 20 21  1  0
 21 22  1  0
 22 23  1  0
 23 24  1  0
 24 25  1  0
 25 26  2  0
 26 27  1  0
 27 28  2  0
 28 29  1  0
 29 30  2  0
 30 31  1  0
 21 32  2  0
  6 33  1  0
 33 34  1  0
 34 35  1  0
 35  4  1  0
 32  7  1  0
 19 10  1  0
 31 22  1  0
 18 13  1  0
 30 25  1  0
  1 36  1  0
  1 37  1  0
  1 38  1  0
  2 39  1  0
  2 40  1  0
  3 41  1  0
  4 42  1  6
  5 43  1  0
  5 44  1  0
 11 45  1  0
 11 46  1  0
 12 47  1  0
 12 48  1  0
 14 49  1  0
 15 50  1  0
 16 51  1  0
 17 52  1  0
 19 53  1  0
 19 54  1  0
 23 55  1  0
 23 56  1  0
 24 57  1  0
 24 58  1  0
 26 59  1  0
 27 60  1  0
 28 61  1  0
 29 62  1  0
 31 63  1  0
 31 64  1  0
 33 65  1  0
 33 66  1  0
 34 67  1  0
 34 68  1  0
M  END
>  <smiles>  (30) 
CCNC1CN(c2nc(N3CCc4ccccc4C3)nc(N3CCc4ccccc4C3)n2)CCO1

>  <score_type>  (30) 
oracle

>  <origin>  (30) 
autodockgpu

>  <m_score__min__energy>  (30) 
-9.6099999999999994

>  <m_primary>  (30) 
energy

>  <rmsd>  (30) 
7.502862284044717

>  <m_score__min__rmsd>  (30) 
7.502862284044717

>  <meeko>  (30) 
{"free_energy": -9.5, "intermolecular_energy": -10.99, "internal_energy": -1.03, "cluster_size": 40, "cluster_id": 1, "rank_in_cluster": 10}

>  <energy>  (30) 
-9.26

>  <cluster_rmsd>  (30) 
1.4

>  <cluster>  (30) 
1

$$$$

     RDKit          3D

 68 73  0  0  1  0  0  0  0  0999 V2000
  145.4600   67.4470  219.3630 C   0  0  0  0  0  0  0  0  0  0  0  0
  145.9450   68.7930  218.9130 C   0  0  0  0  0  0  0  0  0  0  0  0
  144.8690   69.6880  218.5640 N   0  0  0  0  0  0  0  0  0  0  0  0
  144.9030   70.8730  219.3770 C   0  0  2  0  0  0  0  0  0  0  0  0
  143.5270   71.4100  219.6870 C   0  0  0  0  0  0  0  0  0  0  0  0
  143.5710   72.8010  220.1030 N   0  0  0  0  0  0  0  0  0  0  0  0
  142.4820   73.3530  220.8490 C   0  0  0  0  0  0  0  0  0  0  0  0
  141.6980   72.5480  221.6040 N   0  0  0  0  0  0  0  0  0  0  0  0
  140.6700   73.0160  222.3180 C   0  0  0  0  0  0  0  0  0  0  0  0
  139.8760   72.1280  223.0940 N   0  0  0  0  0  0  0  0  0  0  0  0
  138.7070   71.4880  222.5100 C   0  0  0  0  0  0  0  0  0  0  0  0
  139.0550   70.0160  222.4060 C   0  0  0  0  0  0  0  0  0  0  0  0
  139.4060   69.5720  223.7830 C   0  0  0  0  0  0  0  0  0  0  0  0
  139.1780   68.2430  224.1250 C   0  0  0  0  0  0  0  0  0  0  0  0
  139.4870   67.7620  225.4010 C   0  0  0  0  0  0  0  0  0  0  0  0
  140.0320   68.6200  226.3500 C   0  0  0  0  0  0  0  0  0  0  0  0
  140.2520   69.9370  225.9930 C   0  0  0  0  0  0  0  0  0  0  0  0
  139.9470   70.4210  224.7290 C   0  0  0  0  0  0  0  0  0  0  0  0
  140.2290   71.8570  224.4660 C   0  0  0  0  0  0  0  0  0  0  0  0
  140.4270   74.3330  222.2670 N   0  0  0  0  0  0  0  0  0  0  0  0
  141.2060   75.1480  221.5140 C   0  0  0  0  0  0  0  0  0  0  0  0
  140.8890   76.5470  221.5000 N   0  0  0  0  0  0  0  0  0  0  0  0
  140.4200   77.1260  220.2610 C   0  0  0  0  0  0  0  0  0  0  0  0
  139.4490   78.2360  220.5990 C   0  0  0  0  0  0  0  0  0  0  0  0
  140.1860   79.2070  221.4500 C   0  0  0  0  0  0  0  0  0  0  0  0
  140.1150   80.5770  221.2420 C   0  0  0  0  0  0  0  0  0  0  0  0
  140.8180   81.4590  222.0580 C   0  0  0  0  0  0  0  0  0  0  0  0
  141.5790   80.9270  223.0710 C   0  0  0  0  0  0  0  0  0  0  0  0
  141.6830   79.5750  223.3210 C   0  0  0  0  0  0  0  0  0  0  0  0
  140.9660   78.7370  222.4810 C   0  0  0  0  0  0  0  0  0  0  0  0
  141.0610   77.2900  222.7270 C   0  0  0  0  0  0  0  0  0  0  0  0
  142.2330   74.6500  220.8060 N   0  0  0  0  0  0  0  0  0  0  0  0
  144.7100   73.6620  219.7750 C   0  0  0  0  0  0  0  0  0  0  0  0
  145.9460   72.7860  219.7710 C   0  0  0  0  0  0  0  0  0  0  0  0
  145.7180   71.8110  218.7730 O   0  0  0  0  0  0  0  0  0  0  0  0
  145.4469   67.4107  220.4623 H   0  0  0  0  0  0  0  0  0  0  0  0
  144.4437   67.2760  218.9784 H   0  0  0  0  0  0  0  0  0  0  0  0
  146.1337   66.6671  218.9784 H   0  0  0  0  0  0  0  0  0  0  0  0
  146.5288   69.2464  219.7276 H   0  0  0  0  0  0  0  0  0  0  0  0
  146.5541   68.6401  218.0099 H   0  0  0  0  0  0  0  0  0  0  0  0
  143.9570   69.2270  218.4790 H   0  0  0  0  0  0  0  0  0  0  0  0
  145.3280   70.6142  220.3580 H   0  0  0  0  0  0  0  0  0  0  0  0
  142.9015   71.3276  218.7859 H   0  0  0  0  0  0  0  0  0  0  0  0
  143.1083   70.8190  220.5149 H   0  0  0  0  0  0  0  0  0  0  0  0
  137.8287   71.6298  223.1569 H   0  0  0  0  0  0  0  0  0  0  0  0
  138.4571   71.9167  221.5283 H   0  0  0  0  0  0  0  0  0  0  0  0
  138.1924   69.4462  222.0303 H   0  0  0  0  0  0  0  0  0  0  0  0
  139.8885   69.8503  221.7076 H   0  0  0  0  0  0  0  0  0  0  0  0
  138.7473   67.5589  223.3790 H   0  0  0  0  0  0  0  0  0  0  0  0
  139.2995   66.7079  225.6534 H   0  0  0  0  0  0  0  0  0  0  0  0
  140.2816   68.2598  227.3589 H   0  0  0  0  0  0  0  0  0  0  0  0
  140.6833   70.6243  226.7357 H   0  0  0  0  0  0  0  0  0  0  0  0
  139.6282   72.4864  225.1390 H   0  0  0  0  0  0  0  0  0  0  0  0
  141.2917   72.0800  224.6421 H   0  0  0  0  0  0  0  0  0  0  0  0
  141.2702   77.5339  219.6947 H   0  0  0  0  0  0  0  0  0  0  0  0
  139.9245   76.3603  219.6460 H   0  0  0  0  0  0  0  0  0  0  0  0
  139.1003   78.7274  219.6787 H   0  0  0  0  0  0  0  0  0  0  0  0
  138.5661   77.8420  221.1237 H   0  0  0  0  0  0  0  0  0  0  0  0
  139.4958   80.9709  220.4226 H   0  0  0  0  0  0  0  0  0  0  0  0
  140.7660   82.5459  221.8972 H   0  0  0  0  0  0  0  0  0  0  0  0
  142.1368   81.6189  223.7192 H   0  0  0  0  0  0  0  0  0  0  0  0
  142.3011   79.1828  224.1421 H   0  0  0  0  0  0  0  0  0  0  0  0
  142.0496   77.0608  223.1515 H   0  0  0  0  0  0  0  0  0  0  0  0
  140.2653   76.9994  223.4288 H   0  0  0  0  0  0  0  0  0  0  0  0
  144.5663   74.1159  218.7833 H   0  0  0  0  0  0  0  0  0  0  0  0
  144.8096   74.4751  220.5092 H   0  0  0  0  0  0  0  0  0  0  0  0
  146.8382   73.3820  219.5287 H   0  0  0  0  0  0  0  0  0  0  0  0
  146.1229   72.3274  220.7551 H   0  0  0  0  0  0  0  0  0  0  0  0
  1  2  1  0
  2  3  1  0
  3  4  1  0
  4  5  1  0
  5  6  1  0
  6  7  1  0
  7  8  2  0
  8  9  1  0
  9 10  1  0
 10 11  1  0
 11 12  1  0
 12 13  1  0
 13 14  2  0
 14 15  1  0
 15 16  2  0
 16 17  1  0
 17 18  2  0
 18 19  1  0
  9 20  2  0
 20 21  1  0
 21 22  1  0
 22 23  1  0
 23 24  1  0
 24 25  1  0
 25 26  2  0
 26 27  1  0
 27 28  2  0
 28 29  1  0
 29 30  2  0
 30 31  1  0
 21 32  2  0
  6 33  1  0
 33 34  1  0
 34 35  1  0
 35  4  1  0
 32  7  1  0
 19 10  1  0
 31 22  1  0
 18 13  1  0
 30 25  1  0
  1 36  1  0
  1 37  1  0
  1 38  1  0
  2 39  1  0
  2 40  1  0
  3 41  1  0
  4 42  1  1
  5 43  1  0
  5 44  1  0
 11 45  1  0
 11 46  1  0
 12 47  1  0
 12 48  1  0
 14 49  1  0
 15 50  1  0
 16 51  1  0
 17 52  1  0
 19 53  1  0
 19 54  1  0
 23 55  1  0
 23 56  1  0
 24 57  1  0
 24 58  1  0
 26 59  1  0
 27 60  1  0
 28 61  1  0
 29 62  1  0
 31 63  1  0
 31 64  1  0
 33 65  1  0
 33 66  1  0
 34 67  1  0
 34 68  1  0
M  END
>  <smiles>  (31) 
CCNC1CN(c2nc(N3CCc4ccccc4C3)nc(N3CCc4ccccc4C3)n2)CCO1

>  <score_type>  (31) 
oracle

>  <origin>  (31) 
autodockgpu

>  <m_score__min__energy>  (31) 
-9.6099999999999994

>  <m_primary>  (31) 
energy

>  <rmsd>  (31) 
9.389811614419063

>  <m_score__min__rmsd>  (31) 
9.389811614419063

>  <meeko>  (31) 
{"free_energy": -9.28, "intermolecular_energy": -10.78, "internal_energy": -0.98, "cluster_size": 40, "cluster_id": 1, "rank_in_cluster": 25}

>  <energy>  (31) 
-9.23

>  <cluster_rmsd>  (31) 
0.93

>  <cluster>  (31) 
1

$$$$

     RDKit          3D

 68 73  0  0  1  0  0  0  0  0999 V2000
  145.9380   67.8790  219.3770 C   0  0  0  0  0  0  0  0  0  0  0  0
  144.6480   68.5760  219.0610 C   0  0  0  0  0  0  0  0  0  0  0  0
  144.8420   69.8400  218.3950 N   0  0  0  0  0  0  0  0  0  0  0  0
  144.8720   70.9210  219.3430 C   0  0  2  0  0  0  0  0  0  0  0  0
  143.5080   71.5110  219.6030 C   0  0  0  0  0  0  0  0  0  0  0  0
  143.5940   72.8400  220.1820 N   0  0  0  0  0  0  0  0  0  0  0  0
  142.4770   73.3750  220.8980 C   0  0  0  0  0  0  0  0  0  0  0  0
  141.6870   72.5590  221.6350 N   0  0  0  0  0  0  0  0  0  0  0  0
  140.6330   73.0120  222.3200 C   0  0  0  0  0  0  0  0  0  0  0  0
  139.8330   72.1130  223.0770 N   0  0  0  0  0  0  0  0  0  0  0  0
  138.7050   71.4340  222.4570 C   0  0  0  0  0  0  0  0  0  0  0  0
  139.0950   69.9710  222.3860 C   0  0  0  0  0  0  0  0  0  0  0  0
  139.4040   69.5530  223.7820 C   0  0  0  0  0  0  0  0  0  0  0  0
  139.1990   68.2230  224.1320 C   0  0  0  0  0  0  0  0  0  0  0  0
  139.4710   67.7660  225.4250 C   0  0  0  0  0  0  0  0  0  0  0  0
  139.9550   68.6510  226.3830 C   0  0  0  0  0  0  0  0  0  0  0  0
  140.1540   69.9680  226.0180 C   0  0  0  0  0  0  0  0  0  0  0  0
  139.8860   70.4280  224.7370 C   0  0  0  0  0  0  0  0  0  0  0  0
  140.1400   71.8670  224.4650 C   0  0  0  0  0  0  0  0  0  0  0  0
  140.3700   74.3240  222.2600 N   0  0  0  0  0  0  0  0  0  0  0  0
  141.1550   75.1510  221.5260 C   0  0  0  0  0  0  0  0  0  0  0  0
  140.8170   76.5440  221.5010 N   0  0  0  0  0  0  0  0  0  0  0  0
  140.3300   77.1040  220.2600 C   0  0  0  0  0  0  0  0  0  0  0  0
  139.3440   78.2010  220.5940 C   0  0  0  0  0  0  0  0  0  0  0  0
  140.0710   79.1930  221.4300 C   0  0  0  0  0  0  0  0  0  0  0  0
  139.9780   80.5590  221.2090 C   0  0  0  0  0  0  0  0  0  0  0  0
  140.6720   81.4600  222.0120 C   0  0  0  0  0  0  0  0  0  0  0  0
  141.4490   80.9500  223.0240 C   0  0  0  0  0  0  0  0  0  0  0  0
  141.5760   79.6010  223.2860 C   0  0  0  0  0  0  0  0  0  0  0  0
  140.8660   78.7440  222.4600 C   0  0  0  0  0  0  0  0  0  0  0  0
  140.9860   77.3020  222.7190 C   0  0  0  0  0  0  0  0  0  0  0  0
  142.2090   74.6680  220.8460 N   0  0  0  0  0  0  0  0  0  0  0  0
  144.8050   73.6530  220.0510 C   0  0  0  0  0  0  0  0  0  0  0  0
  145.9840   72.7040  220.0420 C   0  0  0  0  0  0  0  0  0  0  0  0
  145.7900   71.8650  218.9220 O   0  0  0  0  0  0  0  0  0  0  0  0
  146.0611   67.8125  220.4681 H   0  0  0  0  0  0  0  0  0  0  0  0
  145.9225   66.8665  218.9473 H   0  0  0  0  0  0  0  0  0  0  0  0
  146.7764   68.4469  218.9473 H   0  0  0  0  0  0  0  0  0  0  0  0
  144.0474   67.9244  218.4093 H   0  0  0  0  0  0  0  0  0  0  0  0
  144.1405   68.7801  220.0154 H   0  0  0  0  0  0  0  0  0  0  0  0
  144.2370   69.9760  217.5790 H   0  0  0  0  0  0  0  0  0  0  0  0
  145.1932   70.5243  220.3174 H   0  0  0  0  0  0  0  0  0  0  0  0
  142.9599   71.5726  218.6513 H   0  0  0  0  0  0  0  0  0  0  0  0
  142.9861   70.8601  220.3199 H   0  0  0  0  0  0  0  0  0  0  0  0
  137.7988   71.5601  223.0676 H   0  0  0  0  0  0  0  0  0  0  0  0
  138.4826   71.8435  221.4606 H   0  0  0  0  0  0  0  0  0  0  0  0
  138.2628   69.3739  221.9849 H   0  0  0  0  0  0  0  0  0  0  0  0
  139.9590   69.8191  221.7224 H   0  0  0  0  0  0  0  0  0  0  0  0
  138.8164   67.5185  223.3788 H   0  0  0  0  0  0  0  0  0  0  0  0
  139.3028   66.7102  225.6839 H   0  0  0  0  0  0  0  0  0  0  0  0
  140.1738   68.3103  227.4058 H   0  0  0  0  0  0  0  0  0  0  0  0
  140.5377   70.6756  226.7678 H   0  0  0  0  0  0  0  0  0  0  0  0
  139.4977   72.4884  225.1064 H   0  0  0  0  0  0  0  0  0  0  0  0
  141.1893   72.1194  224.6776 H   0  0  0  0  0  0  0  0  0  0  0  0
  141.1696   77.5202  219.6840 H   0  0  0  0  0  0  0  0  0  0  0  0
  139.8425   76.3247  219.6558 H   0  0  0  0  0  0  0  0  0  0  0  0
  138.9807   78.6772  219.6714 H   0  0  0  0  0  0  0  0  0  0  0  0
  138.4717   77.7978  221.1293 H   0  0  0  0  0  0  0  0  0  0  0  0
  139.3482   80.9351  220.3893 H   0  0  0  0  0  0  0  0  0  0  0  0
  140.6007   82.5444  221.8419 H   0  0  0  0  0  0  0  0  0  0  0  0
  142.0009   81.6567  223.6612 H   0  0  0  0  0  0  0  0  0  0  0  0
  142.2065   79.2263  224.1058 H   0  0  0  0  0  0  0  0  0  0  0  0
  141.9813   77.0929  223.1382 H   0  0  0  0  0  0  0  0  0  0  0  0
  140.2001   77.0058  223.4293 H   0  0  0  0  0  0  0  0  0  0  0  0
  144.7748   74.2251  219.1119 H   0  0  0  0  0  0  0  0  0  0  0  0
  144.8864   74.3681  220.8828 H   0  0  0  0  0  0  0  0  0  0  0  0
  146.9260   73.2634  219.9437 H   0  0  0  0  0  0  0  0  0  0  0  0
  146.0479   72.1265  220.9760 H   0  0  0  0  0  0  0  0  0  0  0  0
  1  2  1  0
  2  3  1  0
  3  4  1  0
  4  5  1  0
  5  6  1  0
  6  7  1  0
  7  8  2  0
  8  9  1  0
  9 10  1  0
 10 11  1  0
 11 12  1  0
 12 13  1  0
 13 14  2  0
 14 15  1  0
 15 16  2  0
 16 17  1  0
 17 18  2  0
 18 19  1  0
  9 20  2  0
 20 21  1  0
 21 22  1  0
 22 23  1  0
 23 24  1  0
 24 25  1  0
 25 26  2  0
 26 27  1  0
 27 28  2  0
 28 29  1  0
 29 30  2  0
 30 31  1  0
 21 32  2  0
  6 33  1  0
 33 34  1  0
 34 35  1  0
 35  4  1  0
 32  7  1  0
 19 10  1  0
 31 22  1  0
 18 13  1  0
 30 25  1  0
  1 36  1  0
  1 37  1  0
  1 38  1  0
  2 39  1  0
  2 40  1  0
  3 41  1  0
  4 42  1  1
  5 43  1  0
  5 44  1  0
 11 45  1  0
 11 46  1  0
 12 47  1  0
 12 48  1  0
 14 49  1  0
 15 50  1  0
 16 51  1  0
 17 52  1  0
 19 53  1  0
 19 54  1  0
 23 55  1  0
 23 56  1  0
 24 57  1  0
 24 58  1  0
 26 59  1  0
 27 60  1  0
 28 61  1  0
 29 62  1  0
 31 63  1  0
 31 64  1  0
 33 65  1  0
 33 66  1  0
 34 67  1  0
 34 68  1  0
M  END
>  <smiles>  (32) 
CCNC1CN(c2nc(N3CCc4ccccc4C3)nc(N3CCc4ccccc4C3)n2)CCO1

>  <score_type>  (32) 
oracle

>  <origin>  (32) 
autodockgpu

>  <m_score__min__energy>  (32) 
-9.6099999999999994

>  <m_primary>  (32) 
energy

>  <rmsd>  (32) 
9.304150818271527

>  <m_score__min__rmsd>  (32) 
9.304150818271527

>  <meeko>  (32) 
{"free_energy": -9.18, "intermolecular_energy": -10.67, "internal_energy": -1.02, "cluster_size": 40, "cluster_id": 1, "rank_in_cluster": 34}

>  <energy>  (32) 
-9.22

>  <cluster_rmsd>  (32) 
1.4

>  <cluster>  (32) 
1

$$$$

     RDKit          3D

 68 73  0  0  1  0  0  0  0  0999 V2000
  145.8830   68.2240  219.3010 C   0  0  0  0  0  0  0  0  0  0  0  0
  144.9630   69.3960  219.1260 C   0  0  0  0  0  0  0  0  0  0  0  0
  145.6500   70.5880  218.6950 N   0  0  0  0  0  0  0  0  0  0  0  0
  145.4310   71.6690  219.6180 C   0  0  2  0  0  0  0  0  0  0  0  0
  143.9800   72.0740  219.7110 C   0  0  0  0  0  0  0  0  0  0  0  0
  143.8250   73.4070  220.2690 N   0  0  0  0  0  0  0  0  0  0  0  0
  142.5740   73.7930  220.8440 C   0  0  0  0  0  0  0  0  0  0  0  0
  142.2170   75.0980  220.8860 N   0  0  0  0  0  0  0  0  0  0  0  0
  141.0600   75.5070  221.4130 C   0  0  0  0  0  0  0  0  0  0  0  0
  140.7330   76.8910  221.4340 N   0  0  0  0  0  0  0  0  0  0  0  0
  139.3570   77.3170  221.6360 C   0  0  0  0  0  0  0  0  0  0  0  0
  139.3290   77.9770  223.0010 C   0  0  0  0  0  0  0  0  0  0  0  0
  140.3370   79.0720  222.9570 C   0  0  0  0  0  0  0  0  0  0  0  0
  140.1340   80.1870  223.7630 C   0  0  0  0  0  0  0  0  0  0  0  0
  141.0440   81.2480  223.7690 C   0  0  0  0  0  0  0  0  0  0  0  0
  142.1740   81.1950  222.9590 C   0  0  0  0  0  0  0  0  0  0  0  0
  142.3590   80.0800  222.1660 C   0  0  0  0  0  0  0  0  0  0  0  0
  141.4600   79.0240  222.1540 C   0  0  0  0  0  0  0  0  0  0  0  0
  141.7700   77.8790  221.2570 C   0  0  0  0  0  0  0  0  0  0  0  0
  140.2390   74.5720  221.9130 N   0  0  0  0  0  0  0  0  0  0  0  0
  140.5870   73.2620  221.8760 C   0  0  0  0  0  0  0  0  0  0  0  0
  139.6660   72.3130  222.4310 N   0  0  0  0  0  0  0  0  0  0  0  0
  138.2550   72.5090  222.1840 C   0  0  0  0  0  0  0  0  0  0  0  0
  137.5970   71.1490  222.1080 C   0  0  0  0  0  0  0  0  0  0  0  0
  137.8680   70.4680  223.4000 C   0  0  0  0  0  0  0  0  0  0  0  0
  136.8820   69.7890  224.1020 C   0  0  0  0  0  0  0  0  0  0  0  0
  137.1710   69.1610  225.3100 C   0  0  0  0  0  0  0  0  0  0  0  0
  138.4600   69.2370  225.7800 C   0  0  0  0  0  0  0  0  0  0  0  0
  139.4770   69.8990  225.1230 C   0  0  0  0  0  0  0  0  0  0  0  0
  139.1400   70.5080  223.9240 C   0  0  0  0  0  0  0  0  0  0  0  0
  140.2070   71.2200  223.2050 C   0  0  0  0  0  0  0  0  0  0  0  0
  141.7570   72.8790  221.3400 N   0  0  0  0  0  0  0  0  0  0  0  0
  144.9250   74.3730  220.2560 C   0  0  0  0  0  0  0  0  0  0  0  0
  146.2130   73.5880  220.3990 C   0  0  0  0  0  0  0  0  0  0  0  0
  146.2580   72.7240  219.2820 O   0  0  0  0  0  0  0  0  0  0  0  0
  146.0332   68.0327  220.3738 H   0  0  0  0  0  0  0  0  0  0  0  0
  145.4387   67.3354  218.8288 H   0  0  0  0  0  0  0  0  0  0  0  0
  146.8517   68.4445  218.8288 H   0  0  0  0  0  0  0  0  0  0  0  0
  144.2035   69.1370  218.3736 H   0  0  0  0  0  0  0  0  0  0  0  0
  144.5114   69.6108  220.1058 H   0  0  0  0  0  0  0  0  0  0  0  0
  145.5140   70.8100  217.7040 H   0  0  0  0  0  0  0  0  0  0  0  0
  145.6900   71.3247  220.6301 H   0  0  0  0  0  0  0  0  0  0  0  0
  143.5405   72.0570  218.7027 H   0  0  0  0  0  0  0  0  0  0  0  0
  143.4694   71.3635  220.3776 H   0  0  0  0  0  0  0  0  0  0  0  0
  139.0590   78.0341  220.8569 H   0  0  0  0  0  0  0  0  0  0  0  0
  138.6570   76.4704  221.5795 H   0  0  0  0  0  0  0  0  0  0  0  0
  138.3292   78.3878  223.2049 H   0  0  0  0  0  0  0  0  0  0  0  0
  139.5578   77.2550  223.7987 H   0  0  0  0  0  0  0  0  0  0  0  0
  139.2429   80.2347  224.4062 H   0  0  0  0  0  0  0  0  0  0  0  0
  140.8672   82.1225  224.4124 H   0  0  0  0  0  0  0  0  0  0  0  0
  142.9013   82.0202  222.9506 H   0  0  0  0  0  0  0  0  0  0  0  0
  143.2493   80.0275  221.5221 H   0  0  0  0  0  0  0  0  0  0  0  0
  141.7906   78.2175  220.2106 H   0  0  0  0  0  0  0  0  0  0  0  0
  142.7543   77.4531  221.5014 H   0  0  0  0  0  0  0  0  0  0  0  0
  137.8107   73.0927  223.0037 H   0  0  0  0  0  0  0  0  0  0  0  0
  138.1059   73.0573  221.2421 H   0  0  0  0  0  0  0  0  0  0  0  0
  136.5129   71.2607  221.9590 H   0  0  0  0  0  0  0  0  0  0  0  0
  137.9932   70.5656  221.2638 H   0  0  0  0  0  0  0  0  0  0  0  0
  135.8595   69.7466  223.6987 H   0  0  0  0  0  0  0  0  0  0  0  0
  136.3930   68.6215  225.8701 H   0  0  0  0  0  0  0  0  0  0  0  0
  138.6944   68.7421  226.7340 H   0  0  0  0  0  0  0  0  0  0  0  0
  140.4988   69.9412  225.5283 H   0  0  0  0  0  0  0  0  0  0  0  0
  140.9292   71.6173  223.9334 H   0  0  0  0  0  0  0  0  0  0  0  0
  140.7007   70.5148  222.5202 H   0  0  0  0  0  0  0  0  0  0  0  0
  144.9264   74.9297  219.3073 H   0  0  0  0  0  0  0  0  0  0  0  0
  144.8170   75.0985  221.0758 H   0  0  0  0  0  0  0  0  0  0  0  0
  147.0787   74.2666  220.3945 H   0  0  0  0  0  0  0  0  0  0  0  0
  146.2463   73.0301  221.3464 H   0  0  0  0  0  0  0  0  0  0  0  0
  1  2  1  0
  2  3  1  0
  3  4  1  0
  4  5  1  0
  5  6  1  0
  6  7  1  0
  7  8  2  0
  8  9  1  0
  9 10  1  0
 10 11  1  0
 11 12  1  0
 12 13  1  0
 13 14  2  0
 14 15  1  0
 15 16  2  0
 16 17  1  0
 17 18  2  0
 18 19  1  0
  9 20  2  0
 20 21  1  0
 21 22  1  0
 22 23  1  0
 23 24  1  0
 24 25  1  0
 25 26  2  0
 26 27  1  0
 27 28  2  0
 28 29  1  0
 29 30  2  0
 30 31  1  0
 21 32  2  0
  6 33  1  0
 33 34  1  0
 34 35  1  0
 35  4  1  0
 32  7  1  0
 19 10  1  0
 31 22  1  0
 18 13  1  0
 30 25  1  0
  1 36  1  0
  1 37  1  0
  1 38  1  0
  2 39  1  0
  2 40  1  0
  3 41  1  0
  4 42  1  1
  5 43  1  0
  5 44  1  0
 11 45  1  0
 11 46  1  0
 12 47  1  0
 12 48  1  0
 14 49  1  0
 15 50  1  0
 16 51  1  0
 17 52  1  0
 19 53  1  0
 19 54  1  0
 23 55  1  0
 23 56  1  0
 24 57  1  0
 24 58  1  0
 26 59  1  0
 27 60  1  0
 28 61  1  0
 29 62  1  0
 31 63  1  0
 31 64  1  0
 33 65  1  0
 33 66  1  0
 34 67  1  0
 34 68  1  0
M  END
>  <smiles>  (33) 
CCNC1CN(c2nc(N3CCc4ccccc4C3)nc(N3CCc4ccccc4C3)n2)CCO1

>  <score_type>  (33) 
oracle

>  <origin>  (33) 
autodockgpu

>  <m_score__min__energy>  (33) 
-9.6099999999999994

>  <m_primary>  (33) 
energy

>  <rmsd>  (33) 
9.040666660332104

>  <m_score__min__rmsd>  (33) 
9.040666660332104

>  <meeko>  (33) 
{"free_energy": -9.3, "intermolecular_energy": -10.79, "internal_energy": -1.02, "cluster_size": 40, "cluster_id": 1, "rank_in_cluster": 23}

>  <energy>  (33) 
-9.18

>  <cluster_rmsd>  (33) 
1.42

>  <cluster>  (33) 
1

$$$$

     RDKit          3D

 68 73  0  0  1  0  0  0  0  0999 V2000
  140.6860   71.8930  228.0090 C   0  0  0  0  0  0  0  0  0  0  0  0
  141.0390   70.8840  226.9570 C   0  0  0  0  0  0  0  0  0  0  0  0
  139.9190   70.0600  226.5730 N   0  0  0  0  0  0  0  0  0  0  0  0
  139.6230   70.2160  225.1740 C   0  0  2  0  0  0  0  0  0  0  0  0
  140.4260   71.3170  224.5250 C   0  0  0  0  0  0  0  0  0  0  0  0
  139.8240   71.7620  223.2800 N   0  0  0  0  0  0  0  0  0  0  0  0
  140.6240   72.4490  222.3120 C   0  0  0  0  0  0  0  0  0  0  0  0
  141.3770   71.7490  221.4310 N   0  0  0  0  0  0  0  0  0  0  0  0
  142.1400   72.3450  220.5100 C   0  0  0  0  0  0  0  0  0  0  0  0
  142.9130   71.5640  219.6090 N   0  0  0  0  0  0  0  0  0  0  0  0
  143.9710   72.1820  218.8240 C   0  0  0  0  0  0  0  0  0  0  0  0
  145.2690   71.6210  219.3710 C   0  0  0  0  0  0  0  0  0  0  0  0
  145.1660   70.1400  219.2520 C   0  0  0  0  0  0  0  0  0  0  0  0
  146.3390   69.4090  219.0880 C   0  0  0  0  0  0  0  0  0  0  0  0
  146.3110   68.0160  218.9710 C   0  0  0  0  0  0  0  0  0  0  0  0
  145.0950   67.3420  219.0200 C   0  0  0  0  0  0  0  0  0  0  0  0
  143.9410   68.0830  219.1840 C   0  0  0  0  0  0  0  0  0  0  0  0
  143.9610   69.4660  219.3000 C   0  0  0  0  0  0  0  0  0  0  0  0
  142.6530   70.1510  219.4720 C   0  0  0  0  0  0  0  0  0  0  0  0
  142.1420   73.6850  220.4780 N   0  0  0  0  0  0  0  0  0  0  0  0
  141.3910   74.3960  221.3550 C   0  0  0  0  0  0  0  0  0  0  0  0
  141.4420   75.8270  221.2700 N   0  0  0  0  0  0  0  0  0  0  0  0
  142.1120   76.4170  220.1320 C   0  0  0  0  0  0  0  0  0  0  0  0
  141.4150   77.7170  219.8000 C   0  0  0  0  0  0  0  0  0  0  0  0
  141.4860   78.5670  221.0170 C   0  0  0  0  0  0  0  0  0  0  0  0
  141.8360   79.9080  220.9660 C   0  0  0  0  0  0  0  0  0  0  0  0
  141.8910   80.6750  222.1270 C   0  0  0  0  0  0  0  0  0  0  0  0
  141.5890   80.0590  223.3170 C   0  0  0  0  0  0  0  0  0  0  0  0
  141.2360   78.7300  223.4230 C   0  0  0  0  0  0  0  0  0  0  0  0
  141.1940   78.0080  222.2410 C   0  0  0  0  0  0  0  0  0  0  0  0
  140.8200   76.5890  222.3270 C   0  0  0  0  0  0  0  0  0  0  0  0
  140.6340   73.7700  222.2720 N   0  0  0  0  0  0  0  0  0  0  0  0
  138.4090   71.5260  222.9870 C   0  0  0  0  0  0  0  0  0  0  0  0
  138.0310   70.2100  223.6350 C   0  0  0  0  0  0  0  0  0  0  0  0
  138.2600   70.3870  225.0180 O   0  0  0  0  0  0  0  0  0  0  0  0
  140.8399   71.4530  229.0054 H   0  0  0  0  0  0  0  0  0  0  0  0
  141.3274   72.7796  227.8966 H   0  0  0  0  0  0  0  0  0  0  0  0
  139.6318   72.1864  227.8966 H   0  0  0  0  0  0  0  0  0  0  0  0
  141.4040   71.4176  226.0670 H   0  0  0  0  0  0  0  0  0  0  0  0
  141.8079   70.2207  227.3798 H   0  0  0  0  0  0  0  0  0  0  0  0
  139.1190   70.1240  227.2100 H   0  0  0  0  0  0  0  0  0  0  0  0
  139.9280   69.3006  224.6457 H   0  0  0  0  0  0  0  0  0  0  0  0
  140.4848   72.1701  225.2169 H   0  0  0  0  0  0  0  0  0  0  0  0
  141.4273   70.9218  224.2985 H   0  0  0  0  0  0  0  0  0  0  0  0
  143.8599   71.9243  217.7604 H   0  0  0  0  0  0  0  0  0  0  0  0
  143.9411   73.2793  218.8951 H   0  0  0  0  0  0  0  0  0  0  0  0
  146.1219   71.9921  218.7838 H   0  0  0  0  0  0  0  0  0  0  0  0
  145.4295   71.9285  220.4149 H   0  0  0  0  0  0  0  0  0  0  0  0
  147.3039   69.9358  219.0498 H   0  0  0  0  0  0  0  0  0  0  0  0
  147.2479   67.4546  218.8405 H   0  0  0  0  0  0  0  0  0  0  0  0
  145.0536   66.2464  218.9304 H   0  0  0  0  0  0  0  0  0  0  0  0
  142.9742   67.5598  219.2240 H   0  0  0  0  0  0  0  0  0  0  0  0
  142.0170   69.9705  218.5929 H   0  0  0  0  0  0  0  0  0  0  0  0
  142.1307   69.7672  220.3608 H   0  0  0  0  0  0  0  0  0  0  0  0
  143.1661   76.6114  220.3793 H   0  0  0  0  0  0  0  0  0  0  0  0
  142.0750   75.7335  219.2709 H   0  0  0  0  0  0  0  0  0  0  0  0
  141.9225   78.2148  218.9606 H   0  0  0  0  0  0  0  0  0  0  0  0
  140.3706   77.5397  219.5036 H   0  0  0  0  0  0  0  0  0  0  0  0
  142.0730   80.3713  219.9969 H   0  0  0  0  0  0  0  0  0  0  0  0
  142.1672   81.7392  222.0922 H   0  0  0  0  0  0  0  0  0  0  0  0
  141.6311   80.6597  224.2375 H   0  0  0  0  0  0  0  0  0  0  0  0
  141.0005   78.2682  224.3932 H   0  0  0  0  0  0  0  0  0  0  0  0
  141.1454   76.1891  223.2987 H   0  0  0  0  0  0  0  0  0  0  0  0
  139.7280   76.5066  222.2237 H   0  0  0  0  0  0  0  0  0  0  0  0
  137.7971   72.3402  223.4026 H   0  0  0  0  0  0  0  0  0  0  0  0
  138.2356   71.4908  221.9013 H   0  0  0  0  0  0  0  0  0  0  0  0
  136.9717   69.9802  223.4476 H   0  0  0  0  0  0  0  0  0  0  0  0
  138.6186   69.3733  223.2293 H   0  0  0  0  0  0  0  0  0  0  0  0
  1  2  1  0
  2  3  1  0
  3  4  1  0
  4  5  1  0
  5  6  1  0
  6  7  1  0
  7  8  2  0
  8  9  1  0
  9 10  1  0
 10 11  1  0
 11 12  1  0
 12 13  1  0
 13 14  2  0
 14 15  1  0
 15 16  2  0
 16 17  1  0
 17 18  2  0
 18 19  1  0
  9 20  2  0
 20 21  1  0
 21 22  1  0
 22 23  1  0
 23 24  1  0
 24 25  1  0
 25 26  2  0
 26 27  1  0
 27 28  2  0
 28 29  1  0
 29 30  2  0
 30 31  1  0
 21 32  2  0
  6 33  1  0
 33 34  1  0
 34 35  1  0
 35  4  1  0
 32  7  1  0
 19 10  1  0
 31 22  1  0
 18 13  1  0
 30 25  1  0
  1 36  1  0
  1 37  1  0
  1 38  1  0
  2 39  1  0
  2 40  1  0
  3 41  1  0
  4 42  1  6
  5 43  1  0
  5 44  1  0
 11 45  1  0
 11 46  1  0
 12 47  1  0
 12 48  1  0
 14 49  1  0
 15 50  1  0
 16 51  1  0
 17 52  1  0
 19 53  1  0
 19 54  1  0
 23 55  1  0
 23 56  1  0
 24 57  1  0
 24 58  1  0
 26 59  1  0
 27 60  1  0
 28 61  1  0
 29 62  1  0
 31 63  1  0
 31 64  1  0
 33 65  1  0
 33 66  1  0
 34 67  1  0
 34 68  1  0
M  END
>  <smiles>  (34) 
CCNC1CN(c2nc(N3CCc4ccccc4C3)nc(N3CCc4ccccc4C3)n2)CCO1

>  <score_type>  (34) 
oracle

>  <origin>  (34) 
autodockgpu

>  <m_score__min__energy>  (34) 
-9.6099999999999994

>  <m_primary>  (34) 
energy

>  <rmsd>  (34) 
8.190251736764347

>  <m_score__min__rmsd>  (34) 
8.190251736764347

>  <meeko>  (34) 
{"free_energy": -9.23, "intermolecular_energy": -10.72, "internal_energy": -1.05, "cluster_size": 7, "cluster_id": 2, "rank_in_cluster": 1}

>  <energy>  (34) 
-9.18

>  <cluster_rmsd>  (34) 
1.32

>  <cluster>  (34) 
1

$$$$

     RDKit          3D

 68 73  0  0  1  0  0  0  0  0999 V2000
  140.6570   67.9210  226.5170 C   0  0  0  0  0  0  0  0  0  0  0  0
  140.0030   68.9450  227.3950 C   0  0  0  0  0  0  0  0  0  0  0  0
  140.0730   70.2780  226.8500 N   0  0  0  0  0  0  0  0  0  0  0  0
  139.8230   70.2680  225.4350 C   0  0  2  0  0  0  0  0  0  0  0  0
  140.5280   71.3870  224.7070 C   0  0  0  0  0  0  0  0  0  0  0  0
  139.9360   71.6430  223.4060 N   0  0  0  0  0  0  0  0  0  0  0  0
  140.6970   72.3220  222.4030 C   0  0  0  0  0  0  0  0  0  0  0  0
  141.4300   71.6170  221.5100 N   0  0  0  0  0  0  0  0  0  0  0  0
  142.1570   72.2060  220.5560 C   0  0  0  0  0  0  0  0  0  0  0  0
  142.9120   71.4190  219.6440 N   0  0  0  0  0  0  0  0  0  0  0  0
  143.9570   72.0310  218.8370 C   0  0  0  0  0  0  0  0  0  0  0  0
  145.2620   71.4670  219.3620 C   0  0  0  0  0  0  0  0  0  0  0  0
  145.1530   69.9860  219.2510 C   0  0  0  0  0  0  0  0  0  0  0  0
  146.3200   69.2510  219.0680 C   0  0  0  0  0  0  0  0  0  0  0  0
  146.2850   67.8580  218.9580 C   0  0  0  0  0  0  0  0  0  0  0  0
  145.0690   67.1880  219.0310 C   0  0  0  0  0  0  0  0  0  0  0  0
  143.9200   67.9340  219.2140 C   0  0  0  0  0  0  0  0  0  0  0  0
  143.9470   69.3160  219.3230 C   0  0  0  0  0  0  0  0  0  0  0  0
  142.6440   70.0070  219.5170 C   0  0  0  0  0  0  0  0  0  0  0  0
  142.1420   73.5450  220.5010 N   0  0  0  0  0  0  0  0  0  0  0  0
  141.4110   74.2620  221.3900 C   0  0  0  0  0  0  0  0  0  0  0  0
  141.4420   75.6920  221.2800 N   0  0  0  0  0  0  0  0  0  0  0  0
  142.0840   76.2710  220.1210 C   0  0  0  0  0  0  0  0  0  0  0  0
  141.3650   77.5570  219.7790 C   0  0  0  0  0  0  0  0  0  0  0  0
  141.4470   78.4270  220.9810 C   0  0  0  0  0  0  0  0  0  0  0  0
  141.7790   79.7720  220.9010 C   0  0  0  0  0  0  0  0  0  0  0  0
  141.8460   80.5590  222.0480 C   0  0  0  0  0  0  0  0  0  0  0  0
  141.5730   79.9590  223.2530 C   0  0  0  0  0  0  0  0  0  0  0  0
  141.2390   78.6280  223.3880 C   0  0  0  0  0  0  0  0  0  0  0  0
  141.1850   77.8860  222.2190 C   0  0  0  0  0  0  0  0  0  0  0  0
  140.8300   76.4640  222.3360 C   0  0  0  0  0  0  0  0  0  0  0  0
  140.6900   73.6430  222.3400 N   0  0  0  0  0  0  0  0  0  0  0  0
  138.5690   71.2210  223.0910 C   0  0  0  0  0  0  0  0  0  0  0  0
  138.3100   69.9370  223.8510 C   0  0  0  0  0  0  0  0  0  0  0  0
  138.4580   70.2670  225.2180 O   0  0  0  0  0  0  0  0  0  0  0  0
  141.1439   67.1586  227.1428 H   0  0  0  0  0  0  0  0  0  0  0  0
  139.8965   67.4431  225.8819 H   0  0  0  0  0  0  0  0  0  0  0  0
  141.4104   68.4099  225.8819 H   0  0  0  0  0  0  0  0  0  0  0  0
  138.9448   68.6732  227.5231 H   0  0  0  0  0  0  0  0  0  0  0  0
  140.5428   68.9514  228.3534 H   0  0  0  0  0  0  0  0  0  0  0  0
  140.8950   70.8090  227.1570 H   0  0  0  0  0  0  0  0  0  0  0  0
  140.2498   69.3477  225.0096 H   0  0  0  0  0  0  0  0  0  0  0  0
  140.4634   72.3023  225.3136 H   0  0  0  0  0  0  0  0  0  0  0  0
  141.5750   71.0873  224.5525 H   0  0  0  0  0  0  0  0  0  0  0  0
  143.8252   71.7702  217.7765 H   0  0  0  0  0  0  0  0  0  0  0  0
  143.9322   73.1287  218.9043 H   0  0  0  0  0  0  0  0  0  0  0  0
  146.1053   71.8330  218.7580 H   0  0  0  0  0  0  0  0  0  0  0  0
  145.4417   71.7775  220.4019 H   0  0  0  0  0  0  0  0  0  0  0  0
  147.2857   69.7745  219.0089 H   0  0  0  0  0  0  0  0  0  0  0  0
  147.2177   67.2930  218.8139 H   0  0  0  0  0  0  0  0  0  0  0  0
  145.0226   66.0923  218.9453 H   0  0  0  0  0  0  0  0  0  0  0  0
  142.9524   67.4143  219.2752 H   0  0  0  0  0  0  0  0  0  0  0  0
  141.9910   69.8259  218.6505 H   0  0  0  0  0  0  0  0  0  0  0  0
  142.1368   69.6283  220.4166 H   0  0  0  0  0  0  0  0  0  0  0  0
  143.1397   76.4826  220.3463 H   0  0  0  0  0  0  0  0  0  0  0  0
  142.0401   75.5726  219.2723 H   0  0  0  0  0  0  0  0  0  0  0  0
  141.8518   78.0470  218.9229 H   0  0  0  0  0  0  0  0  0  0  0  0
  140.3181   77.3627  219.5029 H   0  0  0  0  0  0  0  0  0  0  0  0
  141.9918   80.2219  219.9200 H   0  0  0  0  0  0  0  0  0  0  0  0
  142.1088   81.6256  221.9908 H   0  0  0  0  0  0  0  0  0  0  0  0
  141.6237   80.5756  224.1625 H   0  0  0  0  0  0  0  0  0  0  0  0
  141.0270   78.1798  224.3699 H   0  0  0  0  0  0  0  0  0  0  0  0
  141.1783   76.0845  223.3079 H   0  0  0  0  0  0  0  0  0  0  0  0
  139.7373   76.3665  222.2550 H   0  0  0  0  0  0  0  0  0  0  0  0
  137.8538   71.9955  223.4049 H   0  0  0  0  0  0  0  0  0  0  0  0
  138.4482   71.0652  222.0088 H   0  0  0  0  0  0  0  0  0  0  0  0
  137.2915   69.5721  223.6523 H   0  0  0  0  0  0  0  0  0  0  0  0
  139.0030   69.1382  223.5481 H   0  0  0  0  0  0  0  0  0  0  0  0
  1  2  1  0
  2  3  1  0
  3  4  1  0
  4  5  1  0
  5  6  1  0
  6  7  1  0
  7  8  2  0
  8  9  1  0
  9 10  1  0
 10 11  1  0
 11 12  1  0
 12 13  1  0
 13 14  2  0
 14 15  1  0
 15 16  2  0
 16 17  1  0
 17 18  2  0
 18 19  1  0
  9 20  2  0
 20 21  1  0
 21 22  1  0
 22 23  1  0
 23 24  1  0
 24 25  1  0
 25 26  2  0
 26 27  1  0
 27 28  2  0
 28 29  1  0
 29 30  2  0
 30 31  1  0
 21 32  2  0
  6 33  1  0
 33 34  1  0
 34 35  1  0
 35  4  1  0
 32  7  1  0
 19 10  1  0
 31 22  1  0
 18 13  1  0
 30 25  1  0
  1 36  1  0
  1 37  1  0
  1 38  1  0
  2 39  1  0
  2 40  1  0
  3 41  1  0
  4 42  1  6
  5 43  1  0
  5 44  1  0
 11 45  1  0
 11 46  1  0
 12 47  1  0
 12 48  1  0
 14 49  1  0
 15 50  1  0
 16 51  1  0
 17 52  1  0
 19 53  1  0
 19 54  1  0
 23 55  1  0
 23 56  1  0
 24 57  1  0
 24 58  1  0
 26 59  1  0
 27 60  1  0
 28 61  1  0
 29 62  1  0
 31 63  1  0
 31 64  1  0
 33 65  1  0
 33 66  1  0
 34 67  1  0
 34 68  1  0
M  END
>  <smiles>  (35) 
CCNC1CN(c2nc(N3CCc4ccccc4C3)nc(N3CCc4ccccc4C3)n2)CCO1

>  <score_type>  (35) 
oracle

>  <origin>  (35) 
autodockgpu

>  <m_score__min__energy>  (35) 
-9.6099999999999994

>  <m_primary>  (35) 
energy

>  <rmsd>  (35) 
9.421683141499217

>  <m_score__min__rmsd>  (35) 
9.421683141499217

>  <meeko>  (35) 
{"free_energy": -9.09, "intermolecular_energy": -10.59, "internal_energy": -1.03, "cluster_size": 7, "cluster_id": 2, "rank_in_cluster": 7}

>  <energy>  (35) 
-9.18

>  <cluster_rmsd>  (35) 
1.35

>  <cluster>  (35) 
1

$$$$

     RDKit          3D

 68 73  0  0  1  0  0  0  0  0999 V2000
  145.5840   67.7870  219.6870 C   0  0  0  0  0  0  0  0  0  0  0  0
  145.9260   68.8370  218.6730 C   0  0  0  0  0  0  0  0  0  0  0  0
  144.8410   69.7550  218.4280 N   0  0  0  0  0  0  0  0  0  0  0  0
  144.8870   70.8600  219.3460 C   0  0  2  0  0  0  0  0  0  0  0  0
  143.5250   71.4540  219.6160 C   0  0  0  0  0  0  0  0  0  0  0  0
  143.6200   72.7980  220.1580 N   0  0  0  0  0  0  0  0  0  0  0  0
  142.5150   73.3500  220.8800 C   0  0  0  0  0  0  0  0  0  0  0  0
  141.7180   72.5470  221.6240 N   0  0  0  0  0  0  0  0  0  0  0  0
  140.6750   73.0150  222.3150 C   0  0  0  0  0  0  0  0  0  0  0  0
  139.8680   72.1290  223.0790 N   0  0  0  0  0  0  0  0  0  0  0  0
  138.7260   71.4660  222.4690 C   0  0  0  0  0  0  0  0  0  0  0  0
  139.0940   69.9970  222.3970 C   0  0  0  0  0  0  0  0  0  0  0  0
  139.4080   69.5770  223.7910 C   0  0  0  0  0  0  0  0  0  0  0  0
  139.1850   68.2490  224.1440 C   0  0  0  0  0  0  0  0  0  0  0  0
  139.4600   67.7910  225.4360 C   0  0  0  0  0  0  0  0  0  0  0  0
  139.9660   68.6690  226.3880 C   0  0  0  0  0  0  0  0  0  0  0  0
  140.1810   69.9830  226.0200 C   0  0  0  0  0  0  0  0  0  0  0  0
  139.9090   70.4450  224.7410 C   0  0  0  0  0  0  0  0  0  0  0  0
  140.1820   71.8810  224.4650 C   0  0  0  0  0  0  0  0  0  0  0  0
  140.4300   74.3310  222.2540 N   0  0  0  0  0  0  0  0  0  0  0  0
  141.2220   75.1450  221.5130 C   0  0  0  0  0  0  0  0  0  0  0  0
  140.9030   76.5430  221.4870 N   0  0  0  0  0  0  0  0  0  0  0  0
  140.4460   77.1140  220.2390 C   0  0  0  0  0  0  0  0  0  0  0  0
  139.4690   78.2230  220.5600 C   0  0  0  0  0  0  0  0  0  0  0  0
  140.1940   79.2010  221.4120 C   0  0  0  0  0  0  0  0  0  0  0  0
  140.1220   80.5700  221.1960 C   0  0  0  0  0  0  0  0  0  0  0  0
  140.8140   81.4580  222.0150 C   0  0  0  0  0  0  0  0  0  0  0  0
  141.5640   80.9340  223.0390 C   0  0  0  0  0  0  0  0  0  0  0  0
  141.6690   79.5830  223.2980 C   0  0  0  0  0  0  0  0  0  0  0  0
  140.9630   78.7390  222.4560 C   0  0  0  0  0  0  0  0  0  0  0  0
  141.0590   77.2940  222.7110 C   0  0  0  0  0  0  0  0  0  0  0  0
  142.2640   74.6470  220.8270 N   0  0  0  0  0  0  0  0  0  0  0  0
  144.8260   73.6100  219.9830 C   0  0  0  0  0  0  0  0  0  0  0  0
  146.0070   72.6630  219.9770 C   0  0  0  0  0  0  0  0  0  0  0  0
  145.7940   71.7940  218.8830 O   0  0  0  0  0  0  0  0  0  0  0  0
  145.7176   68.1972  220.6989 H   0  0  0  0  0  0  0  0  0  0  0  0
  144.5378   67.4749  219.5530 H   0  0  0  0  0  0  0  0  0  0  0  0
  146.2457   66.9186  219.5530 H   0  0  0  0  0  0  0  0  0  0  0  0
  146.7930   69.4076  219.0373 H   0  0  0  0  0  0  0  0  0  0  0  0
  146.1434   68.3224  217.7254 H   0  0  0  0  0  0  0  0  0  0  0  0
  143.9300   69.2990  218.3180 H   0  0  0  0  0  0  0  0  0  0  0  0
  145.2284   70.4903  220.3242 H   0  0  0  0  0  0  0  0  0  0  0  0
  142.9589   71.4895  218.6735 H   0  0  0  0  0  0  0  0  0  0  0  0
  143.0174   70.8211  220.3588 H   0  0  0  0  0  0  0  0  0  0  0  0
  137.8265   71.6061  223.0864 H   0  0  0  0  0  0  0  0  0  0  0  0
  138.5019   71.8774  221.4737 H   0  0  0  0  0  0  0  0  0  0  0  0
  138.2499   69.4115  222.0036 H   0  0  0  0  0  0  0  0  0  0  0  0
  139.9502   69.8313  221.7266 H   0  0  0  0  0  0  0  0  0  0  0  0
  138.7863   67.5492  223.3948 H   0  0  0  0  0  0  0  0  0  0  0  0
  139.2765   66.7387  225.6987 H   0  0  0  0  0  0  0  0  0  0  0  0
  140.1896   68.3258  227.4089 H   0  0  0  0  0  0  0  0  0  0  0  0
  140.5810   70.6858  226.7657 H   0  0  0  0  0  0  0  0  0  0  0  0
  139.5536   72.5125  225.1102 H   0  0  0  0  0  0  0  0  0  0  0  0
  141.2363   72.1188  224.6695 H   0  0  0  0  0  0  0  0  0  0  0  0
  141.3014   77.5209  219.6797 H   0  0  0  0  0  0  0  0  0  0  0  0
  139.9593   76.3436  219.6229 H   0  0  0  0  0  0  0  0  0  0  0  0
  139.1285   78.7077  219.6331 H   0  0  0  0  0  0  0  0  0  0  0  0
  138.5820   77.8297  221.0781 H   0  0  0  0  0  0  0  0  0  0  0  0
  139.5109   80.9581  220.3678 H   0  0  0  0  0  0  0  0  0  0  0  0
  140.7617   82.5439  221.8473 H   0  0  0  0  0  0  0  0  0  0  0  0
  142.1122   81.6311  223.6898 H   0  0  0  0  0  0  0  0  0  0  0  0
  142.2797   79.1970  224.1275 H   0  0  0  0  0  0  0  0  0  0  0  0
  142.0433   77.0700  223.1479 H   0  0  0  0  0  0  0  0  0  0  0  0
  140.2559   77.0055  223.4051 H   0  0  0  0  0  0  0  0  0  0  0  0
  144.7769   74.1570  219.0299 H   0  0  0  0  0  0  0  0  0  0  0  0
  144.9211   74.3473  220.7938 H   0  0  0  0  0  0  0  0  0  0  0  0
  146.9458   73.2213  219.8464 H   0  0  0  0  0  0  0  0  0  0  0  0
  146.0896   72.1105  220.9246 H   0  0  0  0  0  0  0  0  0  0  0  0
  1  2  1  0
  2  3  1  0
  3  4  1  0
  4  5  1  0
  5  6  1  0
  6  7  1  0
  7  8  2  0
  8  9  1  0
  9 10  1  0
 10 11  1  0
 11 12  1  0
 12 13  1  0
 13 14  2  0
 14 15  1  0
 15 16  2  0
 16 17  1  0
 17 18  2  0
 18 19  1  0
  9 20  2  0
 20 21  1  0
 21 22  1  0
 22 23  1  0
 23 24  1  0
 24 25  1  0
 25 26  2  0
 26 27  1  0
 27 28  2  0
 28 29  1  0
 29 30  2  0
 30 31  1  0
 21 32  2  0
  6 33  1  0
 33 34  1  0
 34 35  1  0
 35  4  1  0
 32  7  1  0
 19 10  1  0
 31 22  1  0
 18 13  1  0
 30 25  1  0
  1 36  1  0
  1 37  1  0
  1 38  1  0
  2 39  1  0
  2 40  1  0
  3 41  1  0
  4 42  1  1
  5 43  1  0
  5 44  1  0
 11 45  1  0
 11 46  1  0
 12 47  1  0
 12 48  1  0
 14 49  1  0
 15 50  1  0
 16 51  1  0
 17 52  1  0
 19 53  1  0
 19 54  1  0
 23 55  1  0
 23 56  1  0
 24 57  1  0
 24 58  1  0
 26 59  1  0
 27 60  1  0
 28 61  1  0
 29 62  1  0
 31 63  1  0
 31 64  1  0
 33 65  1  0
 33 66  1  0
 34 67  1  0
 34 68  1  0
M  END
>  <smiles>  (36) 
CCNC1CN(c2nc(N3CCc4ccccc4C3)nc(N3CCc4ccccc4C3)n2)CCO1

>  <score_type>  (36) 
oracle

>  <origin>  (36) 
autodockgpu

>  <m_score__min__energy>  (36) 
-9.6099999999999994

>  <m_primary>  (36) 
energy

>  <rmsd>  (36) 
9.299873803109955

>  <m_score__min__rmsd>  (36) 
9.299873803109955

>  <meeko>  (36) 
{"free_energy": -9.22, "intermolecular_energy": -10.71, "internal_energy": -1.0, "cluster_size": 40, "cluster_id": 1, "rank_in_cluster": 32}

>  <energy>  (36) 
-9.16

>  <cluster_rmsd>  (36) 
1.77

>  <cluster>  (36) 
1

$$$$

     RDKit          3D

 68 73  0  0  1  0  0  0  0  0999 V2000
  147.1930   74.6240  215.7220 C   0  0  0  0  0  0  0  0  0  0  0  0
  146.0930   73.7630  216.2680 C   0  0  0  0  0  0  0  0  0  0  0  0
  146.3240   73.3560  217.6320 N   0  0  0  0  0  0  0  0  0  0  0  0
  145.1750   72.6790  218.1670 C   0  0  2  0  0  0  0  0  0  0  0  0
  144.4770   73.4710  219.2460 C   0  0  0  0  0  0  0  0  0  0  0  0
  143.6280   72.6290  220.0710 N   0  0  0  0  0  0  0  0  0  0  0  0
  142.5700   73.2190  220.8310 C   0  0  0  0  0  0  0  0  0  0  0  0
  141.7670   72.4440  221.5980 N   0  0  0  0  0  0  0  0  0  0  0  0
  140.7660   72.9490  222.3250 C   0  0  0  0  0  0  0  0  0  0  0  0
  139.9510   72.0910  223.1130 N   0  0  0  0  0  0  0  0  0  0  0  0
  138.7850   71.4480  222.5290 C   0  0  0  0  0  0  0  0  0  0  0  0
  139.1180   69.9700  222.4700 C   0  0  0  0  0  0  0  0  0  0  0  0
  139.4440   69.5590  223.8640 C   0  0  0  0  0  0  0  0  0  0  0  0
  139.1970   68.2420  224.2380 C   0  0  0  0  0  0  0  0  0  0  0  0
  139.4820   67.7930  225.5310 C   0  0  0  0  0  0  0  0  0  0  0  0
  140.0230   68.6710  226.4640 C   0  0  0  0  0  0  0  0  0  0  0  0
  140.2620   69.9750  226.0760 C   0  0  0  0  0  0  0  0  0  0  0  0
  139.9810   70.4280  224.7950 C   0  0  0  0  0  0  0  0  0  0  0  0
  140.2820   71.8530  224.4970 C   0  0  0  0  0  0  0  0  0  0  0  0
  140.5700   74.2740  222.2760 N   0  0  0  0  0  0  0  0  0  0  0  0
  141.3670   75.0600  221.5110 C   0  0  0  0  0  0  0  0  0  0  0  0
  141.1010   76.4690  221.5000 N   0  0  0  0  0  0  0  0  0  0  0  0
  140.8830   77.1100  220.2220 C   0  0  0  0  0  0  0  0  0  0  0  0
  139.9010   78.2420  220.4270 C   0  0  0  0  0  0  0  0  0  0  0  0
  140.4990   79.1540  221.4360 C   0  0  0  0  0  0  0  0  0  0  0  0
  140.5090   80.5320  221.2770 C   0  0  0  0  0  0  0  0  0  0  0  0
  141.0780   81.3570  222.2440 C   0  0  0  0  0  0  0  0  0  0  0  0
  141.6260   80.7610  223.3530 C   0  0  0  0  0  0  0  0  0  0  0  0
  141.6420   79.3970  223.5600 C   0  0  0  0  0  0  0  0  0  0  0  0
  141.0640   78.6180  222.5710 C   0  0  0  0  0  0  0  0  0  0  0  0
  141.0700   77.1610  222.7680 C   0  0  0  0  0  0  0  0  0  0  0  0
  142.3670   74.5250  220.7900 N   0  0  0  0  0  0  0  0  0  0  0  0
  143.8290   71.1800  220.1460 C   0  0  0  0  0  0  0  0  0  0  0  0
  144.3350   70.7270  218.7930 C   0  0  0  0  0  0  0  0  0  0  0  0
  145.5510   71.4180  218.5900 O   0  0  0  0  0  0  0  0  0  0  0  0
  147.7592   75.0672  216.5544 H   0  0  0  0  0  0  0  0  0  0  0  0
  147.8669   74.0109  215.1056 H   0  0  0  0  0  0  0  0  0  0  0  0
  146.7597   75.4254  215.1056 H   0  0  0  0  0  0  0  0  0  0  0  0
  145.1505   74.3285  216.2252 H   0  0  0  0  0  0  0  0  0  0  0  0
  146.0514   72.8514  215.6539 H   0  0  0  0  0  0  0  0  0  0  0  0
  146.7260   74.0930  218.2220 H   0  0  0  0  0  0  0  0  0  0  0  0
  144.4251   72.5763  217.3688 H   0  0  0  0  0  0  0  0  0  0  0  0
  145.2353   73.9467  219.8853 H   0  0  0  0  0  0  0  0  0  0  0  0
  143.8406   74.2245  218.7589 H   0  0  0  0  0  0  0  0  0  0  0  0
  137.8986   71.6166  223.1582 H   0  0  0  0  0  0  0  0  0  0  0  0
  138.5549   71.8524  221.5323 H   0  0  0  0  0  0  0  0  0  0  0  0
  138.2546   69.3997  222.0968 H   0  0  0  0  0  0  0  0  0  0  0  0
  139.9599   69.7767  221.7889 H   0  0  0  0  0  0  0  0  0  0  0  0
  138.7704   67.5423  223.5042 H   0  0  0  0  0  0  0  0  0  0  0  0
  139.2789   66.7484  225.8095 H   0  0  0  0  0  0  0  0  0  0  0  0
  140.2548   68.3354  227.4856 H   0  0  0  0  0  0  0  0  0  0  0  0
  140.6892   70.6775  226.8068 H   0  0  0  0  0  0  0  0  0  0  0  0
  139.6788   72.5066  225.1442 H   0  0  0  0  0  0  0  0  0  0  0  0
  141.3446   72.0691  224.6817 H   0  0  0  0  0  0  0  0  0  0  0  0
  141.8339   77.5063  219.8363 H   0  0  0  0  0  0  0  0  0  0  0  0
  140.4851   76.3866  219.4951 H   0  0  0  0  0  0  0  0  0  0  0  0
  139.7394   78.7787  219.4805 H   0  0  0  0  0  0  0  0  0  0  0  0
  138.9269   77.8616  220.7681 H   0  0  0  0  0  0  0  0  0  0  0  0
  140.0622   80.9784  220.3764 H   0  0  0  0  0  0  0  0  0  0  0  0
  141.0881   82.4503  222.1233 H   0  0  0  0  0  0  0  0  0  0  0  0
  142.0778   81.4076  224.1197 H   0  0  0  0  0  0  0  0  0  0  0  0
  142.0893   78.9523  224.4612 H   0  0  0  0  0  0  0  0  0  0  0  0
  141.9582   76.8804  223.3531 H   0  0  0  0  0  0  0  0  0  0  0  0
  140.1518   76.8749  223.3020 H   0  0  0  0  0  0  0  0  0  0  0  0
  144.5693   70.9421  220.9241 H   0  0  0  0  0  0  0  0  0  0  0  0
  142.8896   70.6685  220.4025 H   0  0  0  0  0  0  0  0  0  0  0  0
  144.5062   69.6404  218.7914 H   0  0  0  0  0  0  0  0  0  0  0  0
  143.6083   70.9398  217.9951 H   0  0  0  0  0  0  0  0  0  0  0  0
  1  2  1  0
  2  3  1  0
  3  4  1  0
  4  5  1  0
  5  6  1  0
  6  7  1  0
  7  8  2  0
  8  9  1  0
  9 10  1  0
 10 11  1  0
 11 12  1  0
 12 13  1  0
 13 14  2  0
 14 15  1  0
 15 16  2  0
 16 17  1  0
 17 18  2  0
 18 19  1  0
  9 20  2  0
 20 21  1  0
 21 22  1  0
 22 23  1  0
 23 24  1  0
 24 25  1  0
 25 26  2  0
 26 27  1  0
 27 28  2  0
 28 29  1  0
 29 30  2  0
 30 31  1  0
 21 32  2  0
  6 33  1  0
 33 34  1  0
 34 35  1  0
 35  4  1  0
 32  7  1  0
 19 10  1  0
 31 22  1  0
 18 13  1  0
 30 25  1  0
  1 36  1  0
  1 37  1  0
  1 38  1  0
  2 39  1  0
  2 40  1  0
  3 41  1  0
  4 42  1  6
  5 43  1  0
  5 44  1  0
 11 45  1  0
 11 46  1  0
 12 47  1  0
 12 48  1  0
 14 49  1  0
 15 50  1  0
 16 51  1  0
 17 52  1  0
 19 53  1  0
 19 54  1  0
 23 55  1  0
 23 56  1  0
 24 57  1  0
 24 58  1  0
 26 59  1  0
 27 60  1  0
 28 61  1  0
 29 62  1  0
 31 63  1  0
 31 64  1  0
 33 65  1  0
 33 66  1  0
 34 67  1  0
 34 68  1  0
M  END
>  <smiles>  (37) 
CCNC1CN(c2nc(N3CCc4ccccc4C3)nc(N3CCc4ccccc4C3)n2)CCO1

>  <score_type>  (37) 
oracle

>  <origin>  (37) 
autodockgpu

>  <m_score__min__energy>  (37) 
-9.6099999999999994

>  <m_primary>  (37) 
energy

>  <rmsd>  (37) 
7.707021210045963

>  <m_score__min__rmsd>  (37) 
7.707021210045963

>  <meeko>  (37) 
{"free_energy": -9.61, "intermolecular_energy": -11.1, "internal_energy": -0.98, "cluster_size": 40, "cluster_id": 1, "rank_in_cluster": 1}

>  <energy>  (37) 
-9.12

>  <cluster_rmsd>  (37) 
1.35

>  <cluster>  (37) 
1

$$$$

     RDKit          3D

 68 73  0  0  1  0  0  0  0  0999 V2000
  147.6050   74.5980  216.0950 C   0  0  0  0  0  0  0  0  0  0  0  0
  146.4270   73.7170  216.3810 C   0  0  0  0  0  0  0  0  0  0  0  0
  146.3220   73.3550  217.7740 N   0  0  0  0  0  0  0  0  0  0  0  0
  145.0750   72.6910  218.0390 C   0  0  2  0  0  0  0  0  0  0  0  0
  144.4260   73.1540  219.3210 C   0  0  0  0  0  0  0  0  0  0  0  0
  143.4430   72.2000  219.8040 N   0  0  0  0  0  0  0  0  0  0  0  0
  142.4270   72.6300  220.7150 C   0  0  0  0  0  0  0  0  0  0  0  0
  141.9130   73.8790  220.6220 N   0  0  0  0  0  0  0  0  0  0  0  0
  140.9640   74.3260  221.4490 C   0  0  0  0  0  0  0  0  0  0  0  0
  140.4580   75.6480  221.3100 N   0  0  0  0  0  0  0  0  0  0  0  0
  139.0270   75.8970  221.3800 C   0  0  0  0  0  0  0  0  0  0  0  0
  138.8070   76.6680  222.6670 C   0  0  0  0  0  0  0  0  0  0  0  0
  139.6640   77.8830  222.5770 C   0  0  0  0  0  0  0  0  0  0  0  0
  139.2550   79.0280  223.2530 C   0  0  0  0  0  0  0  0  0  0  0  0
  140.0160   80.2000  223.2100 C   0  0  0  0  0  0  0  0  0  0  0  0
  141.2010   80.2300  222.4840 C   0  0  0  0  0  0  0  0  0  0  0  0
  141.5920   79.0840  221.8200 C   0  0  0  0  0  0  0  0  0  0  0  0
  140.8420   77.9170  221.8570 C   0  0  0  0  0  0  0  0  0  0  0  0
  141.3670   76.7490  221.1010 C   0  0  0  0  0  0  0  0  0  0  0  0
  140.5210   73.4890  222.3980 N   0  0  0  0  0  0  0  0  0  0  0  0
  141.0290   72.2360  222.5000 C   0  0  0  0  0  0  0  0  0  0  0  0
  140.5150   71.3910  223.5390 N   0  0  0  0  0  0  0  0  0  0  0  0
  139.1830   70.8510  223.3800 C   0  0  0  0  0  0  0  0  0  0  0  0
  139.1460   69.4910  224.0400 C   0  0  0  0  0  0  0  0  0  0  0  0
  139.5210   69.6940  225.4640 C   0  0  0  0  0  0  0  0  0  0  0  0
  138.8220   69.1030  226.5070 C   0  0  0  0  0  0  0  0  0  0  0  0
  139.2020   69.3140  227.8290 C   0  0  0  0  0  0  0  0  0  0  0  0
  140.2870   70.1230  228.0630 C   0  0  0  0  0  0  0  0  0  0  0  0
  141.0160   70.7340  227.0640 C   0  0  0  0  0  0  0  0  0  0  0  0
  140.6000   70.4940  225.7640 C   0  0  0  0  0  0  0  0  0  0  0  0
  141.3610   71.1340  224.6810 C   0  0  0  0  0  0  0  0  0  0  0  0
  141.9840   71.8120  221.6550 N   0  0  0  0  0  0  0  0  0  0  0  0
  143.4650   70.7990  219.3810 C   0  0  0  0  0  0  0  0  0  0  0  0
  143.9780   70.7690  217.9570 C   0  0  0  0  0  0  0  0  0  0  0  0
  145.2770   71.3240  218.0080 O   0  0  0  0  0  0  0  0  0  0  0  0
  148.0517   74.9321  217.0431 H   0  0  0  0  0  0  0  0  0  0  0  0
  148.3519   74.0350  215.5160 H   0  0  0  0  0  0  0  0  0  0  0  0
  147.2761   75.4735  215.5160 H   0  0  0  0  0  0  0  0  0  0  0  0
  145.5106   74.2496  216.0867 H   0  0  0  0  0  0  0  0  0  0  0  0
  146.5624   72.7881  215.8077 H   0  0  0  0  0  0  0  0  0  0  0  0
  146.5740   74.1110  218.4180 H   0  0  0  0  0  0  0  0  0  0  0  0
  144.3580   72.9617  217.2500 H   0  0  0  0  0  0  0  0  0  0  0  0
  145.2042   73.2822  220.0878 H   0  0  0  0  0  0  0  0  0  0  0  0
  143.9094   74.1039  219.1187 H   0  0  0  0  0  0  0  0  0  0  0  0
  138.6986   76.4924  220.5153 H   0  0  0  0  0  0  0  0  0  0  0  0
  138.4507   74.9602  221.3645 H   0  0  0  0  0  0  0  0  0  0  0  0
  137.7493   76.9541  222.7638 H   0  0  0  0  0  0  0  0  0  0  0  0
  139.0654   76.0603  223.5468 H   0  0  0  0  0  0  0  0  0  0  0  0
  138.3187   79.0110  223.8301 H   0  0  0  0  0  0  0  0  0  0  0  0
  139.6776   81.0968  223.7497 H   0  0  0  0  0  0  0  0  0  0  0  0
  141.8120   81.1436  222.4395 H   0  0  0  0  0  0  0  0  0  0  0  0
  142.5284   79.0966  221.2430 H   0  0  0  0  0  0  0  0  0  0  0  0
  141.4230   76.9906  220.0293 H   0  0  0  0  0  0  0  0  0  0  0  0
  142.3770   76.4867  221.4489 H   0  0  0  0  0  0  0  0  0  0  0  0
  138.4507   71.5178  223.8586 H   0  0  0  0  0  0  0  0  0  0  0  0
  138.9319   70.7637  222.3126 H   0  0  0  0  0  0  0  0  0  0  0  0
  138.1343   69.0645  223.9720 H   0  0  0  0  0  0  0  0  0  0  0  0
  139.8379   68.7934  223.5454 H   0  0  0  0  0  0  0  0  0  0  0  0
  137.9572   68.4600  226.2862 H   0  0  0  0  0  0  0  0  0  0  0  0
  138.6514   68.8481  228.6595 H   0  0  0  0  0  0  0  0  0  0  0  0
  140.5919   70.2933  229.1061 H   0  0  0  0  0  0  0  0  0  0  0  0
  141.8804   71.3767  227.2870 H   0  0  0  0  0  0  0  0  0  0  0  0
  141.7739   72.0864  225.0450 H   0  0  0  0  0  0  0  0  0  0  0  0
  142.1712   70.4568  224.3729 H   0  0  0  0  0  0  0  0  0  0  0  0
  144.1329   70.2185  220.0344 H   0  0  0  0  0  0  0  0  0  0  0  0
  142.4598   70.3567  219.4432 H   0  0  0  0  0  0  0  0  0  0  0  0
  144.0170   69.7346  217.5848 H   0  0  0  0  0  0  0  0  0  0  0  0
  143.3219   71.3317  217.2766 H   0  0  0  0  0  0  0  0  0  0  0  0
  1  2  1  0
  2  3  1  0
  3  4  1  0
  4  5  1  0
  5  6  1  0
  6  7  1  0
  7  8  2  0
  8  9  1  0
  9 10  1  0
 10 11  1  0
 11 12  1  0
 12 13  1  0
 13 14  2  0
 14 15  1  0
 15 16  2  0
 16 17  1  0
 17 18  2  0
 18 19  1  0
  9 20  2  0
 20 21  1  0
 21 22  1  0
 22 23  1  0
 23 24  1  0
 24 25  1  0
 25 26  2  0
 26 27  1  0
 27 28  2  0
 28 29  1  0
 29 30  2  0
 30 31  1  0
 21 32  2  0
  6 33  1  0
 33 34  1  0
 34 35  1  0
 35  4  1  0
 32  7  1  0
 19 10  1  0
 31 22  1  0
 18 13  1  0
 30 25  1  0
  1 36  1  0
  1 37  1  0
  1 38  1  0
  2 39  1  0
  2 40  1  0
  3 41  1  0
  4 42  1  6
  5 43  1  0
  5 44  1  0
 11 45  1  0
 11 46  1  0
 12 47  1  0
 12 48  1  0
 14 49  1  0
 15 50  1  0
 16 51  1  0
 17 52  1  0
 19 53  1  0
 19 54  1  0
 23 55  1  0
 23 56  1  0
 24 57  1  0
 24 58  1  0
 26 59  1  0
 27 60  1  0
 28 61  1  0
 29 62  1  0
 31 63  1  0
 31 64  1  0
 33 65  1  0
 33 66  1  0
 34 67  1  0
 34 68  1  0
M  END
>  <smiles>  (38) 
CCNC1CN(c2nc(N3CCc4ccccc4C3)nc(N3CCc4ccccc4C3)n2)CCO1

>  <score_type>  (38) 
oracle

>  <origin>  (38) 
autodockgpu

>  <m_score__min__energy>  (38) 
-9.6099999999999994

>  <m_primary>  (38) 
energy

>  <rmsd>  (38) 
7.645618943215958

>  <m_score__min__rmsd>  (38) 
7.645618943215958

>  <meeko>  (38) 
{"free_energy": -9.3, "intermolecular_energy": -10.79, "internal_energy": -0.96, "cluster_size": 40, "cluster_id": 1, "rank_in_cluster": 22}

>  <energy>  (38) 
-9.08

>  <cluster_rmsd>  (38) 
1.95

>  <cluster>  (38) 
1

$$$$

     RDKit          3D

 68 73  0  0  1  0  0  0  0  0999 V2000
  146.1430   66.6540  218.9560 C   0  0  0  0  0  0  0  0  0  0  0  0
  145.5540   67.8340  219.6700 C   0  0  0  0  0  0  0  0  0  0  0  0
  144.3820   68.3600  219.0130 N   0  0  0  0  0  0  0  0  0  0  0  0
  144.3490   69.7950  219.0950 C   0  0  2  0  0  0  0  0  0  0  0  0
  143.1740   70.3090  219.8900 C   0  0  0  0  0  0  0  0  0  0  0  0
  142.8930   71.7040  219.6000 N   0  0  0  0  0  0  0  0  0  0  0  0
  142.1450   72.4860  220.5350 C   0  0  0  0  0  0  0  0  0  0  0  0
  141.4130   71.8790  221.4990 N   0  0  0  0  0  0  0  0  0  0  0  0
  140.6980   72.5660  222.3950 C   0  0  0  0  0  0  0  0  0  0  0  0
  139.9450   71.8800  223.3860 N   0  0  0  0  0  0  0  0  0  0  0  0
  138.7120   71.1960  223.0270 C   0  0  0  0  0  0  0  0  0  0  0  0
  139.0040   69.7160  223.1840 C   0  0  0  0  0  0  0  0  0  0  0  0
  139.4560   69.5260  224.5900 C   0  0  0  0  0  0  0  0  0  0  0  0
  139.2170   68.2980  225.1980 C   0  0  0  0  0  0  0  0  0  0  0  0
  139.6170   68.0550  226.5150 C   0  0  0  0  0  0  0  0  0  0  0  0
  140.2660   69.0510  227.2360 C   0  0  0  0  0  0  0  0  0  0  0  0
  140.4960   70.2640  226.6160 C   0  0  0  0  0  0  0  0  0  0  0  0
  140.1010   70.5130  225.3100 C   0  0  0  0  0  0  0  0  0  0  0  0
  140.4040   71.8580  224.7540 C   0  0  0  0  0  0  0  0  0  0  0  0
  140.7230   73.9040  222.3150 N   0  0  0  0  0  0  0  0  0  0  0  0
  141.4520   74.5220  221.3530 C   0  0  0  0  0  0  0  0  0  0  0  0
  141.4320   75.9560  221.3210 N   0  0  0  0  0  0  0  0  0  0  0  0
  141.9060   76.6160  220.1240 C   0  0  0  0  0  0  0  0  0  0  0  0
  141.1170   77.8940  219.9490 C   0  0  0  0  0  0  0  0  0  0  0  0
  141.3300   78.7030  221.1780 C   0  0  0  0  0  0  0  0  0  0  0  0
  141.6140   80.0600  221.1330 C   0  0  0  0  0  0  0  0  0  0  0  0
  141.8070   80.7870  222.3040 C   0  0  0  0  0  0  0  0  0  0  0  0
  141.7050   80.1160  223.4990 C   0  0  0  0  0  0  0  0  0  0  0  0
  141.4240   78.7700  223.6000 C   0  0  0  0  0  0  0  0  0  0  0  0
  141.2410   78.0890  222.4060 C   0  0  0  0  0  0  0  0  0  0  0  0
  140.9410   76.6520  222.4870 C   0  0  0  0  0  0  0  0  0  0  0  0
  142.1620   73.8070  220.4650 N   0  0  0  0  0  0  0  0  0  0  0  0
  143.3600   72.3370  218.3640 C   0  0  0  0  0  0  0  0  0  0  0  0
  144.6820   71.6920  218.0020 C   0  0  0  0  0  0  0  0  0  0  0  0
  144.3980   70.3200  217.8170 O   0  0  0  0  0  0  0  0  0  0  0  0
  146.5075   65.9237  219.6934 H   0  0  0  0  0  0  0  0  0  0  0  0
  145.3732   66.1853  218.3254 H   0  0  0  0  0  0  0  0  0  0  0  0
  146.9804   66.9875  218.3254 H   0  0  0  0  0  0  0  0  0  0  0  0
  145.2765   67.5252  220.6887 H   0  0  0  0  0  0  0  0  0  0  0  0
  146.3140   68.6293  219.6761 H   0  0  0  0  0  0  0  0  0  0  0  0
  143.5140   67.8760  219.2640 H   0  0  0  0  0  0  0  0  0  0  0  0
  145.2334   70.1360  219.6532 H   0  0  0  0  0  0  0  0  0  0  0  0
  142.2865   69.7083  219.6418 H   0  0  0  0  0  0  0  0  0  0  0  0
  143.4226   70.2261  220.9583 H   0  0  0  0  0  0  0  0  0  0  0  0
  137.8954   71.4993  223.6987 H   0  0  0  0  0  0  0  0  0  0  0  0
  138.3948   71.4411  222.0027 H   0  0  0  0  0  0  0  0  0  0  0  0
  138.0954   69.1262  222.9930 H   0  0  0  0  0  0  0  0  0  0  0  0
  139.7702   69.3816  222.4691 H   0  0  0  0  0  0  0  0  0  0  0  0
  138.7048   67.5052  224.6331 H   0  0  0  0  0  0  0  0  0  0  0  0
  139.4188   67.0780  226.9800 H   0  0  0  0  0  0  0  0  0  0  0  0
  140.5881   68.8777  228.2734 H   0  0  0  0  0  0  0  0  0  0  0  0
  141.0095   71.0588  227.1768 H   0  0  0  0  0  0  0  0  0  0  0  0
  139.8818   72.6309  225.3370 H   0  0  0  0  0  0  0  0  0  0  0  0
  141.4842   72.0605  224.8016 H   0  0  0  0  0  0  0  0  0  0  0  0
  142.9761   76.8494  220.2257 H   0  0  0  0  0  0  0  0  0  0  0  0
  141.7718   75.9623  219.2496 H   0  0  0  0  0  0  0  0  0  0  0  0
  141.4774   78.4436  219.0669 H   0  0  0  0  0  0  0  0  0  0  0  0
  140.0486   77.6803  219.7978 H   0  0  0  0  0  0  0  0  0  0  0  0
  141.6876   80.5677  220.1599 H   0  0  0  0  0  0  0  0  0  0  0  0
  142.0337   81.8630  222.2740 H   0  0  0  0  0  0  0  0  0  0  0  0
  141.8562   80.6853  224.4280 H   0  0  0  0  0  0  0  0  0  0  0  0
  141.3491   78.2642  224.5740 H   0  0  0  0  0  0  0  0  0  0  0  0
  141.4207   76.2341  223.3843 H   0  0  0  0  0  0  0  0  0  0  0  0
  139.8498   76.5234  222.5391 H   0  0  0  0  0  0  0  0  0  0  0  0
  142.6287   72.1755  217.5583 H   0  0  0  0  0  0  0  0  0  0  0  0
  143.4797   73.4217  218.5020 H   0  0  0  0  0  0  0  0  0  0  0  0
  145.0817   72.1296  217.0753 H   0  0  0  0  0  0  0  0  0  0  0  0
  145.4390   71.8488  218.7846 H   0  0  0  0  0  0  0  0  0  0  0  0
  1  2  1  0
  2  3  1  0
  3  4  1  0
  4  5  1  0
  5  6  1  0
  6  7  1  0
  7  8  2  0
  8  9  1  0
  9 10  1  0
 10 11  1  0
 11 12  1  0
 12 13  1  0
 13 14  2  0
 14 15  1  0
 15 16  2  0
 16 17  1  0
 17 18  2  0
 18 19  1  0
  9 20  2  0
 20 21  1  0
 21 22  1  0
 22 23  1  0
 23 24  1  0
 24 25  1  0
 25 26  2  0
 26 27  1  0
 27 28  2  0
 28 29  1  0
 29 30  2  0
 30 31  1  0
 21 32  2  0
  6 33  1  0
 33 34  1  0
 34 35  1  0
 35  4  1  0
 32  7  1  0
 19 10  1  0
 31 22  1  0
 18 13  1  0
 30 25  1  0
  1 36  1  0
  1 37  1  0
  1 38  1  0
  2 39  1  0
  2 40  1  0
  3 41  1  0
  4 42  1  1
  5 43  1  0
  5 44  1  0
 11 45  1  0
 11 46  1  0
 12 47  1  0
 12 48  1  0
 14 49  1  0
 15 50  1  0
 16 51  1  0
 17 52  1  0
 19 53  1  0
 19 54  1  0
 23 55  1  0
 23 56  1  0
 24 57  1  0
 24 58  1  0
 26 59  1  0
 27 60  1  0
 28 61  1  0
 29 62  1  0
 31 63  1  0
 31 64  1  0
 33 65  1  0
 33 66  1  0
 34 67  1  0
 34 68  1  0
M  END
>  <smiles>  (39) 
CCNC1CN(c2nc(N3CCc4ccccc4C3)nc(N3CCc4ccccc4C3)n2)CCO1

>  <score_type>  (39) 
oracle

>  <origin>  (39) 
autodockgpu

>  <m_score__min__energy>  (39) 
-9.6099999999999994

>  <m_primary>  (39) 
energy

>  <rmsd>  (39) 
9.870176612097964

>  <m_score__min__rmsd>  (39) 
9.870176612097964

>  <meeko>  (39) 
{"free_energy": -9.08, "intermolecular_energy": -10.57, "internal_energy": -0.99, "cluster_size": 40, "cluster_id": 1, "rank_in_cluster": 38}

>  <energy>  (39) 
-9.01

>  <cluster_rmsd>  (39) 
1.29

>  <cluster>  (39) 
1

$$$$

     RDKit          3D

 68 73  0  0  1  0  0  0  0  0999 V2000
  147.0060   73.4770  215.4390 C   0  0  0  0  0  0  0  0  0  0  0  0
  145.8450   73.7800  216.3370 C   0  0  0  0  0  0  0  0  0  0  0  0
  146.0670   73.3660  217.7000 N   0  0  0  0  0  0  0  0  0  0  0  0
  144.9830   72.5470  218.1710 C   0  0  2  0  0  0  0  0  0  0  0  0
  144.2820   73.1360  219.3710 C   0  0  0  0  0  0  0  0  0  0  0  0
  143.5190   72.1340  220.0960 N   0  0  0  0  0  0  0  0  0  0  0  0
  142.4570   72.5440  220.9630 C   0  0  0  0  0  0  0  0  0  0  0  0
  141.8790   73.7580  220.8060 N   0  0  0  0  0  0  0  0  0  0  0  0
  140.8850   74.1850  221.5900 C   0  0  0  0  0  0  0  0  0  0  0  0
  140.3130   75.4700  221.3840 N   0  0  0  0  0  0  0  0  0  0  0  0
  138.8690   75.6410  221.4000 C   0  0  0  0  0  0  0  0  0  0  0  0
  138.5650   76.4460  222.6480 C   0  0  0  0  0  0  0  0  0  0  0  0
  139.3570   77.7030  222.5380 C   0  0  0  0  0  0  0  0  0  0  0  0
  138.8640   78.8480  223.1560 C   0  0  0  0  0  0  0  0  0  0  0  0
  139.5600   80.0590  223.0910 C   0  0  0  0  0  0  0  0  0  0  0  0
  140.7660   80.1280  222.4010 C   0  0  0  0  0  0  0  0  0  0  0  0
  141.2400   78.9810  221.7940 C   0  0  0  0  0  0  0  0  0  0  0  0
  140.5550   77.7760  221.8530 C   0  0  0  0  0  0  0  0  0  0  0  0
  141.1660   76.6120  221.1600 C   0  0  0  0  0  0  0  0  0  0  0  0
  140.4630   73.3630  222.5610 N   0  0  0  0  0  0  0  0  0  0  0  0
  141.0350   72.1450  222.7280 C   0  0  0  0  0  0  0  0  0  0  0  0
  140.5390   71.3150  223.7880 N   0  0  0  0  0  0  0  0  0  0  0  0
  139.2400   70.7020  223.6210 C   0  0  0  0  0  0  0  0  0  0  0  0
  139.2550   69.3680  224.3340 C   0  0  0  0  0  0  0  0  0  0  0  0
  139.5870   69.6440  225.7560 C   0  0  0  0  0  0  0  0  0  0  0  0
  138.8940   69.0590  226.8060 C   0  0  0  0  0  0  0  0  0  0  0  0
  139.2310   69.3390  228.1270 C   0  0  0  0  0  0  0  0  0  0  0  0
  140.2690   70.2110  228.3520 C   0  0  0  0  0  0  0  0  0  0  0  0
  140.9900   70.8190  227.3460 C   0  0  0  0  0  0  0  0  0  0  0  0
  140.6170   70.5090  226.0470 C   0  0  0  0  0  0  0  0  0  0  0  0
  141.3700   71.1450  224.9570 C   0  0  0  0  0  0  0  0  0  0  0  0
  142.0330   71.7410  221.9240 N   0  0  0  0  0  0  0  0  0  0  0  0
  143.8100   70.7060  219.9620 C   0  0  0  0  0  0  0  0  0  0  0  0
  144.2890   70.4770  218.5440 C   0  0  0  0  0  0  0  0  0  0  0  0
  145.4520   71.2670  218.4020 O   0  0  0  0  0  0  0  0  0  0  0  0
  147.8913   73.2459  216.0496 H   0  0  0  0  0  0  0  0  0  0  0  0
  146.7626   72.6123  214.8041 H   0  0  0  0  0  0  0  0  0  0  0  0
  147.2162   74.3504  214.8041 H   0  0  0  0  0  0  0  0  0  0  0  0
  145.6655   74.8652  216.3246 H   0  0  0  0  0  0  0  0  0  0  0  0
  144.9790   73.2175  215.9581 H   0  0  0  0  0  0  0  0  0  0  0  0
  146.3570   74.1260  218.3230 H   0  0  0  0  0  0  0  0  0  0  0  0
  144.2094   72.5051  217.3901 H   0  0  0  0  0  0  0  0  0  0  0  0
  145.0349   73.5679  220.0467 H   0  0  0  0  0  0  0  0  0  0  0  0
  143.5825   73.9064  219.0143 H   0  0  0  0  0  0  0  0  0  0  0  0
  138.5372   76.1842  220.5029 H   0  0  0  0  0  0  0  0  0  0  0  0
  138.3456   74.6735  221.4035 H   0  0  0  0  0  0  0  0  0  0  0  0
  137.4906   76.6761  222.7005 H   0  0  0  0  0  0  0  0  0  0  0  0
  138.8271   75.8867  223.5582 H   0  0  0  0  0  0  0  0  0  0  0  0
  137.9117   78.7998  223.7044 H   0  0  0  0  0  0  0  0  0  0  0  0
  139.1549   80.9549  223.5842 H   0  0  0  0  0  0  0  0  0  0  0  0
  141.3279   81.0717  222.3402 H   0  0  0  0  0  0  0  0  0  0  0  0
  142.1925   79.0246  221.2455 H   0  0  0  0  0  0  0  0  0  0  0  0
  141.2431   76.8162  220.0819 H   0  0  0  0  0  0  0  0  0  0  0  0
  142.1769   76.4196  221.5488 H   0  0  0  0  0  0  0  0  0  0  0  0
  138.4638   71.3487  224.0561 H   0  0  0  0  0  0  0  0  0  0  0  0
  139.0197   70.5607  222.5526 H   0  0  0  0  0  0  0  0  0  0  0  0
  138.2673   68.8891  224.2619 H   0  0  0  0  0  0  0  0  0  0  0  0
  139.9916   68.6875  223.8820 H   0  0  0  0  0  0  0  0  0  0  0  0
  138.0678   68.3651  226.5917 H   0  0  0  0  0  0  0  0  0  0  0  0
  138.6848   68.8777  228.9630 H   0  0  0  0  0  0  0  0  0  0  0  0
  140.5402   70.4368  229.3939 H   0  0  0  0  0  0  0  0  0  0  0  0
  141.8162   71.5123  227.5623 H   0  0  0  0  0  0  0  0  0  0  0  0
  141.7261   72.1303  225.2922 H   0  0  0  0  0  0  0  0  0  0  0  0
  142.2202   70.4988  224.6932 H   0  0  0  0  0  0  0  0  0  0  0  0
  144.5934   70.4125  220.6763 H   0  0  0  0  0  0  0  0  0  0  0  0
  142.9141   70.1038  220.1732 H   0  0  0  0  0  0  0  0  0  0  0  0
  144.5253   69.4144  218.3857 H   0  0  0  0  0  0  0  0  0  0  0  0
  143.5200   70.7496  217.8062 H   0  0  0  0  0  0  0  0  0  0  0  0
  1  2  1  0
  2  3  1  0
  3  4  1  0
  4  5  1  0
  5  6  1  0
  6  7  1  0
  7  8  2  0
  8  9  1  0
  9 10  1  0
 10 11  1  0
 11 12  1  0
 12 13  1  0
 13 14  2  0
 14 15  1  0
 15 16  2  0
 16 17  1  0
 17 18  2  0
 18 19  1  0
  9 20  2  0
 20 21  1  0
 21 22  1  0
 22 23  1  0
 23 24  1  0
 24 25  1  0
 25 26  2  0
 26 27  1  0
 27 28  2  0
 28 29  1  0
 29 30  2  0
 30 31  1  0
 21 32  2  0
  6 33  1  0
 33 34  1  0
 34 35  1  0
 35  4  1  0
 32  7  1  0
 19 10  1  0
 31 22  1  0
 18 13  1  0
 30 25  1  0
  1 36  1  0
  1 37  1  0
  1 38  1  0
  2 39  1  0
  2 40  1  0
  3 41  1  0
  4 42  1  6
  5 43  1  0
  5 44  1  0
 11 45  1  0
 11 46  1  0
 12 47  1  0
 12 48  1  0
 14 49  1  0
 15 50  1  0
 16 51  1  0
 17 52  1  0
 19 53  1  0
 19 54  1  0
 23 55  1  0
 23 56  1  0
 24 57  1  0
 24 58  1  0
 26 59  1  0
 27 60  1  0
 28 61  1  0
 29 62  1  0
 31 63  1  0
 31 64  1  0
 33 65  1  0
 33 66  1  0
 34 67  1  0
 34 68  1  0
M  END
>  <smiles>  (40) 
CCNC1CN(c2nc(N3CCc4ccccc4C3)nc(N3CCc4ccccc4C3)n2)CCO1

>  <score_type>  (40) 
oracle

>  <origin>  (40) 
autodockgpu

>  <m_score__min__energy>  (40) 
-9.6099999999999994

>  <m_primary>  (40) 
energy

>  <rmsd>  (40) 
8.012673059794151

>  <m_score__min__rmsd>  (40) 
8.012673059794151

>  <meeko>  (40) 
{"free_energy": -9.12, "intermolecular_energy": -10.61, "internal_energy": -0.98, "cluster_size": 40, "cluster_id": 1, "rank_in_cluster": 37}

>  <energy>  (40) 
-8.99

>  <cluster_rmsd>  (40) 
1.29

>  <cluster>  (40) 
1

$$$$

     RDKit          3D

 68 73  0  0  1  0  0  0  0  0999 V2000
  145.6160   66.6310  218.9230 C   0  0  0  0  0  0  0  0  0  0  0  0
  144.8910   67.8650  219.3690 C   0  0  0  0  0  0  0  0  0  0  0  0
  145.7150   69.0470  219.3210 N   0  0  0  0  0  0  0  0  0  0  0  0
  144.9290   70.2080  219.0030 C   0  0  2  0  0  0  0  0  0  0  0  0
  143.9470   70.5670  220.0910 C   0  0  0  0  0  0  0  0  0  0  0  0
  142.8820   71.4230  219.5970 N   0  0  0  0  0  0  0  0  0  0  0  0
  142.1300   72.2200  220.5170 C   0  0  0  0  0  0  0  0  0  0  0  0
  141.4020   71.6280  221.4930 N   0  0  0  0  0  0  0  0  0  0  0  0
  140.6830   72.3290  222.3750 C   0  0  0  0  0  0  0  0  0  0  0  0
  139.9340   71.6590  223.3800 N   0  0  0  0  0  0  0  0  0  0  0  0
  138.6940   70.9780  223.0390 C   0  0  0  0  0  0  0  0  0  0  0  0
  138.9790   69.4990  223.2100 C   0  0  0  0  0  0  0  0  0  0  0  0
  139.4400   69.3220  224.6150 C   0  0  0  0  0  0  0  0  0  0  0  0
  139.1990   68.1020  225.2390 C   0  0  0  0  0  0  0  0  0  0  0  0
  139.6080   67.8710  226.5560 C   0  0  0  0  0  0  0  0  0  0  0  0
  140.2690   68.8720  227.2600 C   0  0  0  0  0  0  0  0  0  0  0  0
  140.5010   70.0770  226.6240 C   0  0  0  0  0  0  0  0  0  0  0  0
  140.0970   70.3130  225.3180 C   0  0  0  0  0  0  0  0  0  0  0  0
  140.4030   71.6500  224.7440 C   0  0  0  0  0  0  0  0  0  0  0  0
  140.7000   73.6650  222.2680 N   0  0  0  0  0  0  0  0  0  0  0  0
  141.4260   74.2680  221.2940 C   0  0  0  0  0  0  0  0  0  0  0  0
  141.3980   75.7010  221.2330 N   0  0  0  0  0  0  0  0  0  0  0  0
  141.9810   76.3440  220.0760 C   0  0  0  0  0  0  0  0  0  0  0  0
  141.2030   77.6110  219.8010 C   0  0  0  0  0  0  0  0  0  0  0  0
  141.2880   78.4430  221.0290 C   0  0  0  0  0  0  0  0  0  0  0  0
  141.5660   79.8020  220.9870 C   0  0  0  0  0  0  0  0  0  0  0  0
  141.6380   80.5520  222.1570 C   0  0  0  0  0  0  0  0  0  0  0  0
  141.4250   79.9020  223.3490 C   0  0  0  0  0  0  0  0  0  0  0  0
  141.1460   78.5550  223.4470 C   0  0  0  0  0  0  0  0  0  0  0  0
  141.0850   77.8510  222.2540 C   0  0  0  0  0  0  0  0  0  0  0  0
  140.7900   76.4130  222.3330 C   0  0  0  0  0  0  0  0  0  0  0  0
  142.1390   73.5380  220.4210 N   0  0  0  0  0  0  0  0  0  0  0  0
  142.5560   71.4930  218.1710 C   0  0  0  0  0  0  0  0  0  0  0  0
  143.8480   71.2980  217.4060 C   0  0  0  0  0  0  0  0  0  0  0  0
  144.3210   70.0180  217.7760 O   0  0  0  0  0  0  0  0  0  0  0  0
  145.9496   66.0631  219.8040 H   0  0  0  0  0  0  0  0  0  0  0  0
  144.9408   66.0072  218.3189 H   0  0  0  0  0  0  0  0  0  0  0  0
  146.4896   66.9171  218.3189 H   0  0  0  0  0  0  0  0  0  0  0  0
  144.0205   68.0169  218.7139 H   0  0  0  0  0  0  0  0  0  0  0  0
  144.5926   67.7125  220.4167 H   0  0  0  0  0  0  0  0  0  0  0  0
  146.5790   68.9290  218.7820 H   0  0  0  0  0  0  0  0  0  0  0  0
  145.5984   71.0783  218.9357 H   0  0  0  0  0  0  0  0  0  0  0  0
  143.5043   69.6425  220.4900 H   0  0  0  0  0  0  0  0  0  0  0  0
  144.4906   71.1157  220.8742 H   0  0  0  0  0  0  0  0  0  0  0  0
  137.8848   71.2934  223.7141 H   0  0  0  0  0  0  0  0  0  0  0  0
  138.3694   71.2135  222.0147 H   0  0  0  0  0  0  0  0  0  0  0  0
  138.0659   68.9121  223.0319 H   0  0  0  0  0  0  0  0  0  0  0  0
  139.7383   69.1526  222.4934 H   0  0  0  0  0  0  0  0  0  0  0  0
  138.6780   67.3059  224.6870 H   0  0  0  0  0  0  0  0  0  0  0  0
  139.4076   66.9007  227.0338 H   0  0  0  0  0  0  0  0  0  0  0  0
  140.5987   68.7088  228.2966 H   0  0  0  0  0  0  0  0  0  0  0  0
  141.0233   70.8754  227.1715 H   0  0  0  0  0  0  0  0  0  0  0  0
  139.8894   72.4324  225.3220 H   0  0  0  0  0  0  0  0  0  0  0  0
  141.4846   71.8470  224.7810 H   0  0  0  0  0  0  0  0  0  0  0  0
  143.0343   76.5894  220.2770 H   0  0  0  0  0  0  0  0  0  0  0  0
  141.9376   75.6735  219.2051 H   0  0  0  0  0  0  0  0  0  0  0  0
  141.6438   78.1484  218.9484 H   0  0  0  0  0  0  0  0  0  0  0  0
  140.1563   77.3844  219.5499 H   0  0  0  0  0  0  0  0  0  0  0  0
  141.7315   80.2926  220.0165 H   0  0  0  0  0  0  0  0  0  0  0  0
  141.8581   81.6294  222.1287 H   0  0  0  0  0  0  0  0  0  0  0  0
  141.4802   80.4894  224.2774 H   0  0  0  0  0  0  0  0  0  0  0  0
  140.9809   78.0659  224.4184 H   0  0  0  0  0  0  0  0  0  0  0  0
  141.1836   76.0161  223.2804 H   0  0  0  0  0  0  0  0  0  0  0  0
  139.7000   76.2745  222.2817 H   0  0  0  0  0  0  0  0  0  0  0  0
  141.8396   70.7005  217.9089 H   0  0  0  0  0  0  0  0  0  0  0  0
  142.0975   72.4615  217.9225 H   0  0  0  0  0  0  0  0  0  0  0  0
  143.6626   71.3402  216.3226 H   0  0  0  0  0  0  0  0  0  0  0  0
  144.5807   72.0849  217.6384 H   0  0  0  0  0  0  0  0  0  0  0  0
  1  2  1  0
  2  3  1  0
  3  4  1  0
  4  5  1  0
  5  6  1  0
  6  7  1  0
  7  8  2  0
  8  9  1  0
  9 10  1  0
 10 11  1  0
 11 12  1  0
 12 13  1  0
 13 14  2  0
 14 15  1  0
 15 16  2  0
 16 17  1  0
 17 18  2  0
 18 19  1  0
  9 20  2  0
 20 21  1  0
 21 22  1  0
 22 23  1  0
 23 24  1  0
 24 25  1  0
 25 26  2  0
 26 27  1  0
 27 28  2  0
 28 29  1  0
 29 30  2  0
 30 31  1  0
 21 32  2  0
  6 33  1  0
 33 34  1  0
 34 35  1  0
 35  4  1  0
 32  7  1  0
 19 10  1  0
 31 22  1  0
 18 13  1  0
 30 25  1  0
  1 36  1  0
  1 37  1  0
  1 38  1  0
  2 39  1  0
  2 40  1  0
  3 41  1  0
  4 42  1  6
  5 43  1  0
  5 44  1  0
 11 45  1  0
 11 46  1  0
 12 47  1  0
 12 48  1  0
 14 49  1  0
 15 50  1  0
 16 51  1  0
 17 52  1  0
 19 53  1  0
 19 54  1  0
 23 55  1  0
 23 56  1  0
 24 57  1  0
 24 58  1  0
 26 59  1  0
 27 60  1  0
 28 61  1  0
 29 62  1  0
 31 63  1  0
 31 64  1  0
 33 65  1  0
 33 66  1  0
 34 67  1  0
 34 68  1  0
M  END
>  <smiles>  (41) 
CCNC1CN(c2nc(N3CCc4ccccc4C3)nc(N3CCc4ccccc4C3)n2)CCO1

>  <score_type>  (41) 
oracle

>  <origin>  (41) 
autodockgpu

>  <m_score__min__energy>  (41) 
-9.6099999999999994

>  <m_primary>  (41) 
energy

>  <rmsd>  (41) 
9.763452676949143

>  <m_score__min__rmsd>  (41) 
9.763452676949143

>  <meeko>  (41) 
{"free_energy": -9.5, "intermolecular_energy": -10.99, "internal_energy": -1.03, "cluster_size": 40, "cluster_id": 1, "rank_in_cluster": 11}

>  <energy>  (41) 
-9.23

>  <cluster_rmsd>  (41) 
0.0

>  <cluster>  (41) 
2

$$$$

     RDKit          3D

 68 73  0  0  1  0  0  0  0  0999 V2000
  145.3940   68.4660  219.3180 C   0  0  0  0  0  0  0  0  0  0  0  0
  146.3250   69.5810  218.9460 C   0  0  0  0  0  0  0  0  0  0  0  0
  145.6340   70.7430  218.4410 N   0  0  0  0  0  0  0  0  0  0  0  0
  145.4260   71.7100  219.4840 C   0  0  2  0  0  0  0  0  0  0  0  0
  143.9950   72.1840  219.5660 C   0  0  0  0  0  0  0  0  0  0  0  0
  143.8840   73.4430  220.2830 N   0  0  0  0  0  0  0  0  0  0  0  0
  142.6270   73.8260  220.8490 C   0  0  0  0  0  0  0  0  0  0  0  0
  142.2620   75.1290  220.8780 N   0  0  0  0  0  0  0  0  0  0  0  0
  141.0990   75.5360  221.3960 C   0  0  0  0  0  0  0  0  0  0  0  0
  140.7640   76.9170  221.4030 N   0  0  0  0  0  0  0  0  0  0  0  0
  139.3820   77.3360  221.5830 C   0  0  0  0  0  0  0  0  0  0  0  0
  139.3300   78.0040  222.9430 C   0  0  0  0  0  0  0  0  0  0  0  0
  140.3330   79.1050  222.9050 C   0  0  0  0  0  0  0  0  0  0  0  0
  140.1120   80.2250  223.7010 C   0  0  0  0  0  0  0  0  0  0  0  0
  141.0150   81.2920  223.7120 C   0  0  0  0  0  0  0  0  0  0  0  0
  142.1560   81.2410  222.9190 C   0  0  0  0  0  0  0  0  0  0  0  0
  142.3590   80.1210  222.1350 C   0  0  0  0  0  0  0  0  0  0  0  0
  141.4670   79.0590  222.1180 C   0  0  0  0  0  0  0  0  0  0  0  0
  141.7960   77.9110  221.2330 C   0  0  0  0  0  0  0  0  0  0  0  0
  140.2820   74.6000  221.9000 N   0  0  0  0  0  0  0  0  0  0  0  0
  140.6380   73.2920  221.8770 C   0  0  0  0  0  0  0  0  0  0  0  0
  139.7210   72.3410  222.4360 N   0  0  0  0  0  0  0  0  0  0  0  0
  138.3070   72.5490  222.2140 C   0  0  0  0  0  0  0  0  0  0  0  0
  137.6400   71.1940  222.1330 C   0  0  0  0  0  0  0  0  0  0  0  0
  137.9280   70.4960  223.4130 C   0  0  0  0  0  0  0  0  0  0  0  0
  136.9500   69.8150  224.1230 C   0  0  0  0  0  0  0  0  0  0  0  0
  137.2550   69.1710  225.3190 C   0  0  0  0  0  0  0  0  0  0  0  0
  138.5520   69.2340  225.7680 C   0  0  0  0  0  0  0  0  0  0  0  0
  139.5620   69.8970  225.1020 C   0  0  0  0  0  0  0  0  0  0  0  0
  139.2090   70.5220  223.9160 C   0  0  0  0  0  0  0  0  0  0  0  0
  140.2680   71.2360  223.1870 C   0  0  0  0  0  0  0  0  0  0  0  0
  141.8140   72.9110  221.3500 N   0  0  0  0  0  0  0  0  0  0  0  0
  145.0320   74.3370  220.4410 C   0  0  0  0  0  0  0  0  0  0  0  0
  146.2680   73.4670  220.5370 C   0  0  0  0  0  0  0  0  0  0  0  0
  146.3230   72.7490  219.3210 O   0  0  0  0  0  0  0  0  0  0  0  0
  145.3312   68.3908  220.4136 H   0  0  0  0  0  0  0  0  0  0  0  0
  144.3945   68.6702  218.9066 H   0  0  0  0  0  0  0  0  0  0  0  0
  145.7733   67.5190  218.9066 H   0  0  0  0  0  0  0  0  0  0  0  0
  146.8975   69.8732  219.8387 H   0  0  0  0  0  0  0  0  0  0  0  0
  146.9800   69.2110  218.1435 H   0  0  0  0  0  0  0  0  0  0  0  0
  144.8160   70.5210  217.8650 H   0  0  0  0  0  0  0  0  0  0  0  0
  145.6156   71.2271  220.4540 H   0  0  0  0  0  0  0  0  0  0  0  0
  143.6058   72.3195  218.5461 H   0  0  0  0  0  0  0  0  0  0  0  0
  143.4146   71.4265  220.1132 H   0  0  0  0  0  0  0  0  0  0  0  0
  139.0909   78.0465  220.7953 H   0  0  0  0  0  0  0  0  0  0  0  0
  138.6882   76.4845  221.5219 H   0  0  0  0  0  0  0  0  0  0  0  0
  138.3250   78.4102  223.1299 H   0  0  0  0  0  0  0  0  0  0  0  0
  139.5508   77.2888  223.7491 H   0  0  0  0  0  0  0  0  0  0  0  0
  139.2120   80.2714  224.3318 H   0  0  0  0  0  0  0  0  0  0  0  0
  140.8234   82.1699  224.3465 H   0  0  0  0  0  0  0  0  0  0  0  0
  142.8784   82.0705  222.9157 H   0  0  0  0  0  0  0  0  0  0  0  0
  143.2581   80.0702  221.5033 H   0  0  0  0  0  0  0  0  0  0  0  0
  141.8276   78.2429  220.1848 H   0  0  0  0  0  0  0  0  0  0  0  0
  142.7800   77.4935  221.4928 H   0  0  0  0  0  0  0  0  0  0  0  0
  137.8796   73.1258  223.0474 H   0  0  0  0  0  0  0  0  0  0  0  0
  138.1460   73.1095  221.2813 H   0  0  0  0  0  0  0  0  0  0  0  0
  136.5543   71.3136  222.0029 H   0  0  0  0  0  0  0  0  0  0  0  0
  138.0190   70.6183  221.2757 H   0  0  0  0  0  0  0  0  0  0  0  0
  135.9207   69.7834  223.7362 H   0  0  0  0  0  0  0  0  0  0  0  0
  136.4832   68.6296  225.8857 H   0  0  0  0  0  0  0  0  0  0  0  0
  138.7991   68.7269  226.7123 H   0  0  0  0  0  0  0  0  0  0  0  0
  140.5906   69.9280  225.4906 H   0  0  0  0  0  0  0  0  0  0  0  0
  141.0053   71.6200  223.9074 H   0  0  0  0  0  0  0  0  0  0  0  0
  140.7452   70.5360  222.4854 H   0  0  0  0  0  0  0  0  0  0  0  0
  145.1097   75.0075  219.5724 H   0  0  0  0  0  0  0  0  0  0  0  0
  144.9214   74.9587  221.3417 H   0  0  0  0  0  0  0  0  0  0  0  0
  147.1672   74.0893  220.6565 H   0  0  0  0  0  0  0  0  0  0  0  0
  146.2251   72.7935  221.4057 H   0  0  0  0  0  0  0  0  0  0  0  0
  1  2  1  0
  2  3  1  0
  3  4  1  0
  4  5  1  0
  5  6  1  0
  6  7  1  0
  7  8  2  0
  8  9  1  0
  9 10  1  0
 10 11  1  0
 11 12  1  0
 12 13  1  0
 13 14  2  0
 14 15  1  0
 15 16  2  0
 16 17  1  0
 17 18  2  0
 18 19  1  0
  9 20  2  0
 20 21  1  0
 21 22  1  0
 22 23  1  0
 23 24  1  0
 24 25  1  0
 25 26  2  0
 26 27  1  0
 27 28  2  0
 28 29  1  0
 29 30  2  0
 30 31  1  0
 21 32  2  0
  6 33  1  0
 33 34  1  0
 34 35  1  0
 35  4  1  0
 32  7  1  0
 19 10  1  0
 31 22  1  0
 18 13  1  0
 30 25  1  0
  1 36  1  0
  1 37  1  0
  1 38  1  0
  2 39  1  0
  2 40  1  0
  3 41  1  0
  4 42  1  1
  5 43  1  0
  5 44  1  0
 11 45  1  0
 11 46  1  0
 12 47  1  0
 12 48  1  0
 14 49  1  0
 15 50  1  0
 16 51  1  0
 17 52  1  0
 19 53  1  0
 19 54  1  0
 23 55  1  0
 23 56  1  0
 24 57  1  0
 24 58  1  0
 26 59  1  0
 27 60  1  0
 28 61  1  0
 29 62  1  0
 31 63  1  0
 31 64  1  0
 33 65  1  0
 33 66  1  0
 34 67  1  0
 34 68  1  0
M  END
>  <smiles>  (42) 
CCNC1CN(c2nc(N3CCc4ccccc4C3)nc(N3CCc4ccccc4C3)n2)CCO1

>  <score_type>  (42) 
oracle

>  <origin>  (42) 
autodockgpu

>  <m_score__min__energy>  (42) 
-9.6099999999999994

>  <m_primary>  (42) 
energy

>  <rmsd>  (42) 
8.976481912511305

>  <m_score__min__rmsd>  (42) 
8.976481912511305

>  <meeko>  (42) 
{"free_energy": -9.41, "intermolecular_energy": -10.9, "internal_energy": -1.0, "cluster_size": 40, "cluster_id": 1, "rank_in_cluster": 15}

>  <energy>  (42) 
-9.22

>  <cluster_rmsd>  (42) 
0.08

>  <cluster>  (42) 
2

$$$$

     RDKit          3D

 68 73  0  0  1  0  0  0  0  0999 V2000
  147.4500   74.5000  216.1420 C   0  0  0  0  0  0  0  0  0  0  0  0
  146.2480   73.6880  216.5210 C   0  0  0  0  0  0  0  0  0  0  0  0
  146.2190   73.3490  217.9220 N   0  0  0  0  0  0  0  0  0  0  0  0
  145.0290   72.6120  218.2480 C   0  0  2  0  0  0  0  0  0  0  0  0
  144.3480   73.1190  219.4950 C   0  0  0  0  0  0  0  0  0  0  0  0
  143.4440   72.1300  220.0580 N   0  0  0  0  0  0  0  0  0  0  0  0
  142.3990   72.5480  220.9420 C   0  0  0  0  0  0  0  0  0  0  0  0
  141.8380   73.7720  220.8030 N   0  0  0  0  0  0  0  0  0  0  0  0
  140.8600   74.2060  221.6030 C   0  0  0  0  0  0  0  0  0  0  0  0
  140.3060   75.5020  221.4160 N   0  0  0  0  0  0  0  0  0  0  0  0
  138.8640   75.6930  221.4360 C   0  0  0  0  0  0  0  0  0  0  0  0
  138.5720   76.4830  222.6960 C   0  0  0  0  0  0  0  0  0  0  0  0
  139.3810   77.7300  222.6040 C   0  0  0  0  0  0  0  0  0  0  0  0
  138.9050   78.8730  223.2380 C   0  0  0  0  0  0  0  0  0  0  0  0
  139.6170   80.0750  223.1910 C   0  0  0  0  0  0  0  0  0  0  0  0
  140.8230   80.1380  222.5000 C   0  0  0  0  0  0  0  0  0  0  0  0
  141.2810   78.9930  221.8770 C   0  0  0  0  0  0  0  0  0  0  0  0
  140.5790   77.7970  221.9190 C   0  0  0  0  0  0  0  0  0  0  0  0
  141.1750   76.6350  221.2080 C   0  0  0  0  0  0  0  0  0  0  0  0
  140.4370   73.3810  222.5710 N   0  0  0  0  0  0  0  0  0  0  0  0
  140.9920   72.1530  222.7200 C   0  0  0  0  0  0  0  0  0  0  0  0
  140.4970   71.3210  223.7780 N   0  0  0  0  0  0  0  0  0  0  0  0
  139.1950   70.7130  223.6120 C   0  0  0  0  0  0  0  0  0  0  0  0
  139.2070   69.3760  224.3190 C   0  0  0  0  0  0  0  0  0  0  0  0
  139.5430   69.6450  225.7410 C   0  0  0  0  0  0  0  0  0  0  0  0
  138.8510   69.0580  226.7900 C   0  0  0  0  0  0  0  0  0  0  0  0
  139.1930   69.3320  228.1120 C   0  0  0  0  0  0  0  0  0  0  0  0
  140.2350   70.1990  228.3380 C   0  0  0  0  0  0  0  0  0  0  0  0
  140.9550   70.8090  227.3320 C   0  0  0  0  0  0  0  0  0  0  0  0
  140.5770   70.5050  226.0330 C   0  0  0  0  0  0  0  0  0  0  0  0
  141.3300   71.1430  224.9440 C   0  0  0  0  0  0  0  0  0  0  0  0
  141.9750   71.7420  221.9000 N   0  0  0  0  0  0  0  0  0  0  0  0
  143.5750   70.7070  219.7420 C   0  0  0  0  0  0  0  0  0  0  0  0
  144.0870   70.6090  218.3200 C   0  0  0  0  0  0  0  0  0  0  0  0
  145.3380   71.2660  218.3190 O   0  0  0  0  0  0  0  0  0  0  0  0
  147.9612   74.8453  217.0527 H   0  0  0  0  0  0  0  0  0  0  0  0
  148.1381   73.8810  215.5476 H   0  0  0  0  0  0  0  0  0  0  0  0
  147.1326   75.3694  215.5476 H   0  0  0  0  0  0  0  0  0  0  0  0
  145.3437   74.2666  216.2811 H   0  0  0  0  0  0  0  0  0  0  0  0
  146.2938   72.7463  215.9544 H   0  0  0  0  0  0  0  0  0  0  0  0
  146.4450   74.1330  218.5430 H   0  0  0  0  0  0  0  0  0  0  0  0
  144.2908   72.7651  217.4470 H   0  0  0  0  0  0  0  0  0  0  0  0
  145.1150   73.3669  220.2435 H   0  0  0  0  0  0  0  0  0  0  0  0
  143.7572   74.0065  219.2244 H   0  0  0  0  0  0  0  0  0  0  0  0
  138.5392   76.2543  220.5475 H   0  0  0  0  0  0  0  0  0  0  0  0
  138.3273   74.7329  221.4254 H   0  0  0  0  0  0  0  0  0  0  0  0
  137.5009   76.7271  222.7529 H   0  0  0  0  0  0  0  0  0  0  0  0
  138.8268   75.9066  223.5975 H   0  0  0  0  0  0  0  0  0  0  0  0
  137.9520   78.8302  223.7857 H   0  0  0  0  0  0  0  0  0  0  0  0
  139.2250   80.9685  223.6988 H   0  0  0  0  0  0  0  0  0  0  0  0
  141.3969   81.0751  222.4510 H   0  0  0  0  0  0  0  0  0  0  0  0
  142.2342   79.0309  221.3293 H   0  0  0  0  0  0  0  0  0  0  0  0
  141.2546   76.8540  220.1330 H   0  0  0  0  0  0  0  0  0  0  0  0
  142.1836   76.4233  221.5927 H   0  0  0  0  0  0  0  0  0  0  0  0
  138.4223   71.3605  224.0521 H   0  0  0  0  0  0  0  0  0  0  0  0
  138.9714   70.5770  222.5436 H   0  0  0  0  0  0  0  0  0  0  0  0
  138.2176   68.9008  224.2471 H   0  0  0  0  0  0  0  0  0  0  0  0
  139.9401   68.6948  223.8624 H   0  0  0  0  0  0  0  0  0  0  0  0
  138.0220   68.3676  226.5752 H   0  0  0  0  0  0  0  0  0  0  0  0
  138.6471   68.8697  228.9476 H   0  0  0  0  0  0  0  0  0  0  0  0
  140.5104   70.4189  229.3800 H   0  0  0  0  0  0  0  0  0  0  0  0
  141.7839   71.4990  227.5484 H   0  0  0  0  0  0  0  0  0  0  0  0
  141.6905   72.1255  225.2826 H   0  0  0  0  0  0  0  0  0  0  0  0
  142.1773   70.4950  224.6754 H   0  0  0  0  0  0  0  0  0  0  0  0
  144.2872   70.2317  220.4325 H   0  0  0  0  0  0  0  0  0  0  0  0
  142.6076   70.1936  219.8448 H   0  0  0  0  0  0  0  0  0  0  0  0
  144.2066   69.5555  218.0270 H   0  0  0  0  0  0  0  0  0  0  0  0
  143.3877   71.0653  217.6039 H   0  0  0  0  0  0  0  0  0  0  0  0
  1  2  1  0
  2  3  1  0
  3  4  1  0
  4  5  1  0
  5  6  1  0
  6  7  1  0
  7  8  2  0
  8  9  1  0
  9 10  1  0
 10 11  1  0
 11 12  1  0
 12 13  1  0
 13 14  2  0
 14 15  1  0
 15 16  2  0
 16 17  1  0
 17 18  2  0
 18 19  1  0
  9 20  2  0
 20 21  1  0
 21 22  1  0
 22 23  1  0
 23 24  1  0
 24 25  1  0
 25 26  2  0
 26 27  1  0
 27 28  2  0
 28 29  1  0
 29 30  2  0
 30 31  1  0
 21 32  2  0
  6 33  1  0
 33 34  1  0
 34 35  1  0
 35  4  1  0
 32  7  1  0
 19 10  1  0
 31 22  1  0
 18 13  1  0
 30 25  1  0
  1 36  1  0
  1 37  1  0
  1 38  1  0
  2 39  1  0
  2 40  1  0
  3 41  1  0
  4 42  1  6
  5 43  1  0
  5 44  1  0
 11 45  1  0
 11 46  1  0
 12 47  1  0
 12 48  1  0
 14 49  1  0
 15 50  1  0
 16 51  1  0
 17 52  1  0
 19 53  1  0
 19 54  1  0
 23 55  1  0
 23 56  1  0
 24 57  1  0
 24 58  1  0
 26 59  1  0
 27 60  1  0
 28 61  1  0
 29 62  1  0
 31 63  1  0
 31 64  1  0
 33 65  1  0
 33 66  1  0
 34 67  1  0
 34 68  1  0
M  END
>  <smiles>  (43) 
CCNC1CN(c2nc(N3CCc4ccccc4C3)nc(N3CCc4ccccc4C3)n2)CCO1

>  <score_type>  (43) 
oracle

>  <origin>  (43) 
autodockgpu

>  <m_score__min__energy>  (43) 
-9.6099999999999994

>  <m_primary>  (43) 
energy

>  <rmsd>  (43) 
7.647104905378575

>  <m_score__min__rmsd>  (43) 
7.647104905378575

>  <meeko>  (43) 
{"free_energy": -9.34, "intermolecular_energy": -10.83, "internal_energy": -0.96, "cluster_size": 40, "cluster_id": 1, "rank_in_cluster": 19}

>  <energy>  (43) 
-9.22

>  <cluster_rmsd>  (43) 
0.14

>  <cluster>  (43) 
2

$$$$

     RDKit          3D

 68 73  0  0  1  0  0  0  0  0999 V2000
  145.9140   66.6990  218.8930 C   0  0  0  0  0  0  0  0  0  0  0  0
  145.4740   67.8720  219.7160 C   0  0  0  0  0  0  0  0  0  0  0  0
  145.9110   69.1340  219.1740 N   0  0  0  0  0  0  0  0  0  0  0  0
  144.7880   69.9710  218.8500 C   0  0  2  0  0  0  0  0  0  0  0  0
  144.0470   70.4560  220.0730 C   0  0  0  0  0  0  0  0  0  0  0  0
  142.7030   70.9020  219.7490 N   0  0  0  0  0  0  0  0  0  0  0  0
  142.0170   71.7860  220.6400 C   0  0  0  0  0  0  0  0  0  0  0  0
  141.3010   71.2890  221.6760 N   0  0  0  0  0  0  0  0  0  0  0  0
  140.6430   72.0750  222.5340 C   0  0  0  0  0  0  0  0  0  0  0  0
  139.9040   71.5020  223.6050 N   0  0  0  0  0  0  0  0  0  0  0  0
  138.6660   70.7850  223.3400 C   0  0  0  0  0  0  0  0  0  0  0  0
  138.9600   69.3310  223.6530 C   0  0  0  0  0  0  0  0  0  0  0  0
  139.4310   69.2940  225.0650 C   0  0  0  0  0  0  0  0  0  0  0  0
  139.2000   68.1400  225.8070 C   0  0  0  0  0  0  0  0  0  0  0  0
  139.6190   68.0410  227.1370 C   0  0  0  0  0  0  0  0  0  0  0  0
  140.2780   69.1100  227.7360 C   0  0  0  0  0  0  0  0  0  0  0  0
  140.5000   70.2470  226.9840 C   0  0  0  0  0  0  0  0  0  0  0  0
  140.0870   70.3530  225.6640 C   0  0  0  0  0  0  0  0  0  0  0  0
  140.3820   71.6290  224.9600 C   0  0  0  0  0  0  0  0  0  0  0  0
  140.7100   73.3990  222.3410 N   0  0  0  0  0  0  0  0  0  0  0  0
  141.4250   73.9080  221.3060 C   0  0  0  0  0  0  0  0  0  0  0  0
  141.4530   75.3340  221.1530 N   0  0  0  0  0  0  0  0  0  0  0  0
  142.2010   75.8840  220.0450 C   0  0  0  0  0  0  0  0  0  0  0  0
  141.5070   77.1500  219.5920 C   0  0  0  0  0  0  0  0  0  0  0  0
  141.4620   78.0590  220.7670 C   0  0  0  0  0  0  0  0  0  0  0  0
  141.7870   79.4040  220.6770 C   0  0  0  0  0  0  0  0  0  0  0  0
  141.7330   80.2280  221.7990 C   0  0  0  0  0  0  0  0  0  0  0  0
  141.3480   79.6630  222.9900 C   0  0  0  0  0  0  0  0  0  0  0  0
  141.0140   78.3330  223.1350 C   0  0  0  0  0  0  0  0  0  0  0  0
  141.0830   77.5530  221.9900 C   0  0  0  0  0  0  0  0  0  0  0  0
  140.7330   76.1310  222.1180 C   0  0  0  0  0  0  0  0  0  0  0  0
  142.0760   73.0950  220.4580 N   0  0  0  0  0  0  0  0  0  0  0  0
  142.0270   70.4670  218.5260 C   0  0  0  0  0  0  0  0  0  0  0  0
  143.0910   70.2920  217.4630 C   0  0  0  0  0  0  0  0  0  0  0  0
  143.9680   69.3010  217.9610 O   0  0  0  0  0  0  0  0  0  0  0  0
  146.2216   65.8789  219.5585 H   0  0  0  0  0  0  0  0  0  0  0  0
  145.0807   66.3632  218.2583 H   0  0  0  0  0  0  0  0  0  0  0  0
  146.7626   66.9941  218.2583 H   0  0  0  0  0  0  0  0  0  0  0  0
  144.3751   67.8732  219.7657 H   0  0  0  0  0  0  0  0  0  0  0  0
  145.9292   67.7655  220.7117 H   0  0  0  0  0  0  0  0  0  0  0  0
  146.6290   69.0470  218.4470 H   0  0  0  0  0  0  0  0  0  0  0  0
  145.1599   70.8872  218.3679 H   0  0  0  0  0  0  0  0  0  0  0  0
  143.9833   69.6331  220.8001 H   0  0  0  0  0  0  0  0  0  0  0  0
  144.5993   71.3110  220.4902 H   0  0  0  0  0  0  0  0  0  0  0  0
  137.8590   71.1610  223.9861 H   0  0  0  0  0  0  0  0  0  0  0  0
  138.3343   70.9177  222.2996 H   0  0  0  0  0  0  0  0  0  0  0  0
  138.0488   68.7253  223.5395 H   0  0  0  0  0  0  0  0  0  0  0  0
  139.7166   68.9199  222.9685 H   0  0  0  0  0  0  0  0  0  0  0  0
  138.6790   67.2915  225.3394 H   0  0  0  0  0  0  0  0  0  0  0  0
  139.4282   67.1206  227.7083 H   0  0  0  0  0  0  0  0  0  0  0  0
  140.6137   69.0511  228.7819 H   0  0  0  0  0  0  0  0  0  0  0  0
  141.0219   71.0972  227.4475 H   0  0  0  0  0  0  0  0  0  0  0  0
  139.8679   72.4617  225.4623 H   0  0  0  0  0  0  0  0  0  0  0  0
  141.4627   71.8341  224.9701 H   0  0  0  0  0  0  0  0  0  0  0  0
  143.2272   76.1158  220.3663 H   0  0  0  0  0  0  0  0  0  0  0  0
  142.2480   75.1587  219.2193 H   0  0  0  0  0  0  0  0  0  0  0  0
  142.0712   77.6185  218.7721 H   0  0  0  0  0  0  0  0  0  0  0  0
  140.4942   76.9339  219.2212 H   0  0  0  0  0  0  0  0  0  0  0  0
  142.0912   79.8256  219.7076 H   0  0  0  0  0  0  0  0  0  0  0  0
  141.9901   81.2955  221.7331 H   0  0  0  0  0  0  0  0  0  0  0  0
  141.3035   80.3086  223.8795 H   0  0  0  0  0  0  0  0  0  0  0  0
  140.7096   77.9136  224.1053 H   0  0  0  0  0  0  0  0  0  0  0  0
  140.9882   75.7871  223.1312 H   0  0  0  0  0  0  0  0  0  0  0  0
  139.6546   76.0166  221.9335 H   0  0  0  0  0  0  0  0  0  0  0  0
  141.5089   69.5126  218.7011 H   0  0  0  0  0  0  0  0  0  0  0  0
  141.2779   71.2079  218.2098 H   0  0  0  0  0  0  0  0  0  0  0  0
  142.6374   69.9626  216.5165 H   0  0  0  0  0  0  0  0  0  0  0  0
  143.6183   71.2350  217.2564 H   0  0  0  0  0  0  0  0  0  0  0  0
  1  2  1  0
  2  3  1  0
  3  4  1  0
  4  5  1  0
  5  6  1  0
  6  7  1  0
  7  8  2  0
  8  9  1  0
  9 10  1  0
 10 11  1  0
 11 12  1  0
 12 13  1  0
 13 14  2  0
 14 15  1  0
 15 16  2  0
 16 17  1  0
 17 18  2  0
 18 19  1  0
  9 20  2  0
 20 21  1  0
 21 22  1  0
 22 23  1  0
 23 24  1  0
 24 25  1  0
 25 26  2  0
 26 27  1  0
 27 28  2  0
 28 29  1  0
 29 30  2  0
 30 31  1  0
 21 32  2  0
  6 33  1  0
 33 34  1  0
 34 35  1  0
 35  4  1  0
 32  7  1  0
 19 10  1  0
 31 22  1  0
 18 13  1  0
 30 25  1  0
  1 36  1  0
  1 37  1  0
  1 38  1  0
  2 39  1  0
  2 40  1  0
  3 41  1  0
  4 42  1  6
  5 43  1  0
  5 44  1  0
 11 45  1  0
 11 46  1  0
 12 47  1  0
 12 48  1  0
 14 49  1  0
 15 50  1  0
 16 51  1  0
 17 52  1  0
 19 53  1  0
 19 54  1  0
 23 55  1  0
 23 56  1  0
 24 57  1  0
 24 58  1  0
 26 59  1  0
 27 60  1  0
 28 61  1  0
 29 62  1  0
 31 63  1  0
 31 64  1  0
 33 65  1  0
 33 66  1  0
 34 67  1  0
 34 68  1  0
M  END
>  <smiles>  (44) 
CCNC1CN(c2nc(N3CCc4ccccc4C3)nc(N3CCc4ccccc4C3)n2)CCO1

>  <score_type>  (44) 
oracle

>  <origin>  (44) 
autodockgpu

>  <m_score__min__energy>  (44) 
-9.6099999999999994

>  <m_primary>  (44) 
energy

>  <rmsd>  (44) 
9.88631123931749

>  <m_score__min__rmsd>  (44) 
9.88631123931749

>  <meeko>  (44) 
{"free_energy": -9.43, "intermolecular_energy": -10.92, "internal_energy": -1.03, "cluster_size": 40, "cluster_id": 1, "rank_in_cluster": 13}

>  <energy>  (44) 
-9.22

>  <cluster_rmsd>  (44) 
0.07

>  <cluster>  (44) 
2

$$$$

     RDKit          3D

 68 73  0  0  1  0  0  0  0  0999 V2000
  142.3480   79.9270  223.3760 C   0  0  0  0  0  0  0  0  0  0  0  0
  141.5650   79.7330  222.1110 C   0  0  0  0  0  0  0  0  0  0  0  0
  141.8610   78.4840  221.4550 N   0  0  0  0  0  0  0  0  0  0  0  0
  140.8640   77.4950  221.7600 C   0  0  2  0  0  0  0  0  0  0  0  0
  141.3370   76.0860  221.4980 C   0  0  0  0  0  0  0  0  0  0  0  0
  140.2260   75.1570  221.3730 N   0  0  0  0  0  0  0  0  0  0  0  0
  140.4480   73.7580  221.5690 C   0  0  0  0  0  0  0  0  0  0  0  0
  140.0110   73.1500  222.6970 N   0  0  0  0  0  0  0  0  0  0  0  0
  140.1950   71.8460  222.9250 C   0  0  0  0  0  0  0  0  0  0  0  0
  139.7180   71.2570  224.1270 N   0  0  0  0  0  0  0  0  0  0  0  0
  138.6100   70.3140  224.0930 C   0  0  0  0  0  0  0  0  0  0  0  0
  139.2050   68.9690  224.4600 C   0  0  0  0  0  0  0  0  0  0  0  0
  139.8520   69.1470  225.7890 C   0  0  0  0  0  0  0  0  0  0  0  0
  139.9360   68.0450  226.6340 C   0  0  0  0  0  0  0  0  0  0  0  0
  140.5330   68.1450  227.8940 C   0  0  0  0  0  0  0  0  0  0  0  0
  141.0550   69.3630  228.3170 C   0  0  0  0  0  0  0  0  0  0  0  0
  140.9640   70.4460  227.4650 C   0  0  0  0  0  0  0  0  0  0  0  0
  140.3730   70.3540  226.2140 C   0  0  0  0  0  0  0  0  0  0  0  0
  140.3340   71.5900  225.3890 C   0  0  0  0  0  0  0  0  0  0  0  0
  140.8370   71.1360  221.9870 N   0  0  0  0  0  0  0  0  0  0  0  0
  141.2790   71.7340  220.8540 C   0  0  0  0  0  0  0  0  0  0  0  0
  141.9630   70.9180  219.8920 N   0  0  0  0  0  0  0  0  0  0  0  0
  141.2050   70.4060  218.7730 C   0  0  0  0  0  0  0  0  0  0  0  0
  142.1300   70.3140  217.5810 C   0  0  0  0  0  0  0  0  0  0  0  0
  143.2530   69.4230  217.9750 C   0  0  0  0  0  0  0  0  0  0  0  0
  143.7260   68.4160  217.1480 C   0  0  0  0  0  0  0  0  0  0  0  0
  144.7800   67.6000  217.5490 C   0  0  0  0  0  0  0  0  0  0  0  0
  145.3310   67.8270  218.7870 C   0  0  0  0  0  0  0  0  0  0  0  0
  144.8990   68.8140  219.6480 C   0  0  0  0  0  0  0  0  0  0  0  0
  143.8470   69.6000  219.2040 C   0  0  0  0  0  0  0  0  0  0  0  0
  143.3680   70.6590  220.1040 C   0  0  0  0  0  0  0  0  0  0  0  0
  141.0810   73.0480  220.6510 N   0  0  0  0  0  0  0  0  0  0  0  0
  138.8750   75.6200  221.0500 C   0  0  0  0  0  0  0  0  0  0  0  0
  138.7090   76.9900  221.6740 C   0  0  0  0  0  0  0  0  0  0  0  0
  139.7010   77.8020  221.0790 O   0  0  0  0  0  0  0  0  0  0  0  0
  141.6906   79.7641  224.2428 H   0  0  0  0  0  0  0  0  0  0  0  0
  143.1797   79.2078  223.4064 H   0  0  0  0  0  0  0  0  0  0  0  0
  142.7478   80.9513  223.4064 H   0  0  0  0  0  0  0  0  0  0  0  0
  140.4926   79.7561  222.3548 H   0  0  0  0  0  0  0  0  0  0  0  0
  141.8451   80.5430  221.4214 H   0  0  0  0  0  0  0  0  0  0  0  0
  142.8360   78.1840  221.5550 H   0  0  0  0  0  0  0  0  0  0  0  0
  140.6601   77.5237  222.8405 H   0  0  0  0  0  0  0  0  0  0  0  0
  141.9181   76.0736  220.5641 H   0  0  0  0  0  0  0  0  0  0  0  0
  141.9533   75.7684  222.3520 H   0  0  0  0  0  0  0  0  0  0  0  0
  137.8377   70.6033  224.8209 H   0  0  0  0  0  0  0  0  0  0  0  0
  138.1283   70.2888  223.1044 H   0  0  0  0  0  0  0  0  0  0  0  0
  138.4145   68.2065  224.5203 H   0  0  0  0  0  0  0  0  0  0  0  0
  139.9300   68.6329  223.7041 H   0  0  0  0  0  0  0  0  0  0  0  0
  139.5258   67.0788  226.3051 H   0  0  0  0  0  0  0  0  0  0  0  0
  140.5898   67.2631  228.5491 H   0  0  0  0  0  0  0  0  0  0  0  0
  141.5283   69.4610  229.3051 H   0  0  0  0  0  0  0  0  0  0  0  0
  141.3740   71.4138  227.7895 H   0  0  0  0  0  0  0  0  0  0  0  0
  139.7434   72.3637  225.9014 H   0  0  0  0  0  0  0  0  0  0  0  0
  141.3506   71.9790  225.2303 H   0  0  0  0  0  0  0  0  0  0  0  0
  140.8096   69.4086  219.0158 H   0  0  0  0  0  0  0  0  0  0  0  0
  140.3598   71.0732  218.5485 H   0  0  0  0  0  0  0  0  0  0  0  0
  141.5950   69.8898  216.7186 H   0  0  0  0  0  0  0  0  0  0  0  0
  142.4992   71.3087  217.2908 H   0  0  0  0  0  0  0  0  0  0  0  0
  143.2626   68.2599  216.1626 H   0  0  0  0  0  0  0  0  0  0  0  0
  145.1592   66.7999  216.8963 H   0  0  0  0  0  0  0  0  0  0  0  0
  146.1639   67.1851  219.1098 H   0  0  0  0  0  0  0  0  0  0  0  0
  145.3637   68.9690  220.6329 H   0  0  0  0  0  0  0  0  0  0  0  0
  143.5229   70.3434  221.1463 H   0  0  0  0  0  0  0  0  0  0  0  0
  143.9311   71.5803  219.8942 H   0  0  0  0  0  0  0  0  0  0  0  0
  138.7499   75.6853  219.9591 H   0  0  0  0  0  0  0  0  0  0  0  0
  138.1198   74.9206  221.4378 H   0  0  0  0  0  0  0  0  0  0  0  0
  137.7068   77.3900  221.4608 H   0  0  0  0  0  0  0  0  0  0  0  0
  138.8152   76.9541  222.7683 H   0  0  0  0  0  0  0  0  0  0  0  0
  1  2  1  0
  2  3  1  0
  3  4  1  0
  4  5  1  0
  5  6  1  0
  6  7  1  0
  7  8  2  0
  8  9  1  0
  9 10  1  0
 10 11  1  0
 11 12  1  0
 12 13  1  0
 13 14  2  0
 14 15  1  0
 15 16  2  0
 16 17  1  0
 17 18  2  0
 18 19  1  0
  9 20  2  0
 20 21  1  0
 21 22  1  0
 22 23  1  0
 23 24  1  0
 24 25  1  0
 25 26  2  0
 26 27  1  0
 27 28  2  0
 28 29  1  0
 29 30  2  0
 30 31  1  0
 21 32  2  0
  6 33  1  0
 33 34  1  0
 34 35  1  0
 35  4  1  0
 32  7  1  0
 19 10  1  0
 31 22  1  0
 18 13  1  0
 30 25  1  0
  1 36  1  0
  1 37  1  0
  1 38  1  0
  2 39  1  0
  2 40  1  0
  3 41  1  0
  4 42  1  1
  5 43  1  0
  5 44  1  0
 11 45  1  0
 11 46  1  0
 12 47  1  0
 12 48  1  0
 14 49  1  0
 15 50  1  0
 16 51  1  0
 17 52  1  0
 19 53  1  0
 19 54  1  0
 23 55  1  0
 23 56  1  0
 24 57  1  0
 24 58  1  0
 26 59  1  0
 27 60  1  0
 28 61  1  0
 29 62  1  0
 31 63  1  0
 31 64  1  0
 33 65  1  0
 33 66  1  0
 34 67  1  0
 34 68  1  0
M  END
>  <smiles>  (45) 
CCNC1CN(c2nc(N3CCc4ccccc4C3)nc(N3CCc4ccccc4C3)n2)CCO1

>  <score_type>  (45) 
oracle

>  <origin>  (45) 
autodockgpu

>  <m_score__min__energy>  (45) 
-9.6099999999999994

>  <m_primary>  (45) 
energy

>  <rmsd>  (45) 
2.1678169209263474

>  <m_score__min__rmsd>  (45) 
2.1678169209263474

>  <meeko>  (45) 
{"free_energy": -8.95, "intermolecular_energy": -10.45, "internal_energy": -0.97, "cluster_size": 2, "cluster_id": 4, "rank_in_cluster": 2}

>  <energy>  (45) 
-9.21

>  <cluster_rmsd>  (45) 
0.1

>  <cluster>  (45) 
2

$$$$

     RDKit          3D

 68 73  0  0  1  0  0  0  0  0999 V2000
  147.1130   74.6450  215.6530 C   0  0  0  0  0  0  0  0  0  0  0  0
  146.0210   73.8150  216.2600 C   0  0  0  0  0  0  0  0  0  0  0  0
  146.3280   73.3770  217.5990 N   0  0  0  0  0  0  0  0  0  0  0  0
  145.2110   72.6830  218.1810 C   0  0  2  0  0  0  0  0  0  0  0  0
  144.4960   73.5000  219.2290 C   0  0  0  0  0  0  0  0  0  0  0  0
  143.6880   72.6680  220.1050 N   0  0  0  0  0  0  0  0  0  0  0  0
  142.6160   73.2550  220.8490 C   0  0  0  0  0  0  0  0  0  0  0  0
  141.8060   72.4770  221.6040 N   0  0  0  0  0  0  0  0  0  0  0  0
  140.7920   72.9780  222.3150 C   0  0  0  0  0  0  0  0  0  0  0  0
  139.9680   72.1170  223.0910 N   0  0  0  0  0  0  0  0  0  0  0  0
  138.8000   71.4880  222.4960 C   0  0  0  0  0  0  0  0  0  0  0  0
  139.1240   70.0080  222.4230 C   0  0  0  0  0  0  0  0  0  0  0  0
  139.4420   69.5810  223.8140 C   0  0  0  0  0  0  0  0  0  0  0  0
  139.1850   68.2620  224.1720 C   0  0  0  0  0  0  0  0  0  0  0  0
  139.4620   67.7970  225.4610 C   0  0  0  0  0  0  0  0  0  0  0  0
  140.0050   68.6620  226.4060 C   0  0  0  0  0  0  0  0  0  0  0  0
  140.2540   69.9680  226.0320 C   0  0  0  0  0  0  0  0  0  0  0  0
  139.9810   70.4360  224.7550 C   0  0  0  0  0  0  0  0  0  0  0  0
  140.2920   71.8630  224.4740 C   0  0  0  0  0  0  0  0  0  0  0  0
  140.5910   74.3020  222.2630 N   0  0  0  0  0  0  0  0  0  0  0  0
  141.3970   75.0910  221.5100 C   0  0  0  0  0  0  0  0  0  0  0  0
  141.1260   76.5000  221.4950 N   0  0  0  0  0  0  0  0  0  0  0  0
  140.9300   77.1400  220.2130 C   0  0  0  0  0  0  0  0  0  0  0  0
  139.9400   78.2690  220.3990 C   0  0  0  0  0  0  0  0  0  0  0  0
  140.5150   79.1820  221.4200 C   0  0  0  0  0  0  0  0  0  0  0  0
  140.5230   80.5600  221.2630 C   0  0  0  0  0  0  0  0  0  0  0  0
  141.0700   81.3870  222.2400 C   0  0  0  0  0  0  0  0  0  0  0  0
  141.5980   80.7910  223.3600 C   0  0  0  0  0  0  0  0  0  0  0  0
  141.6150   79.4280  223.5670 C   0  0  0  0  0  0  0  0  0  0  0  0
  141.0600   78.6470  222.5650 C   0  0  0  0  0  0  0  0  0  0  0  0
  141.0670   77.1900  222.7620 C   0  0  0  0  0  0  0  0  0  0  0  0
  142.4090   74.5600  220.8040 N   0  0  0  0  0  0  0  0  0  0  0  0
  143.9450   71.2340  220.2470 C   0  0  0  0  0  0  0  0  0  0  0  0
  144.4530   70.7340  218.9110 C   0  0  0  0  0  0  0  0  0  0  0  0
  145.6400   71.4590  218.6590 O   0  0  0  0  0  0  0  0  0  0  0  0
  147.7141   75.1018  216.4530 H   0  0  0  0  0  0  0  0  0  0  0  0
  147.7564   74.0059  215.0304 H   0  0  0  0  0  0  0  0  0  0  0  0
  146.6694   75.4360  215.0304 H   0  0  0  0  0  0  0  0  0  0  0  0
  145.0993   74.4147  216.2895 H   0  0  0  0  0  0  0  0  0  0  0  0
  145.9044   72.9160  215.6370 H   0  0  0  0  0  0  0  0  0  0  0  0
  146.7610   74.0990  218.1830 H   0  0  0  0  0  0  0  0  0  0  0  0
  144.4564   72.5126  217.3990 H   0  0  0  0  0  0  0  0  0  0  0  0
  145.2430   74.0340  219.8347 H   0  0  0  0  0  0  0  0  0  0  0  0
  143.8264   74.2049  218.7143 H   0  0  0  0  0  0  0  0  0  0  0  0
  137.9123   71.6559  223.1236 H   0  0  0  0  0  0  0  0  0  0  0  0
  138.5761   71.9043  221.5027 H   0  0  0  0  0  0  0  0  0  0  0  0
  138.2585   69.4470  222.0408 H   0  0  0  0  0  0  0  0  0  0  0  0
  139.9672   69.8162  221.7431 H   0  0  0  0  0  0  0  0  0  0  0  0
  138.7568   67.5733  223.4288 H   0  0  0  0  0  0  0  0  0  0  0  0
  139.2514   66.7507  225.7273 H   0  0  0  0  0  0  0  0  0  0  0  0
  140.2302   68.3145  227.4251 H   0  0  0  0  0  0  0  0  0  0  0  0
  140.6831   70.6602  226.7714 H   0  0  0  0  0  0  0  0  0  0  0  0
  139.6899   72.5133  225.1256 H   0  0  0  0  0  0  0  0  0  0  0  0
  141.3549   72.0713  224.6659 H   0  0  0  0  0  0  0  0  0  0  0  0
  141.8867   77.5395  219.8453 H   0  0  0  0  0  0  0  0  0  0  0  0
  140.5484   76.4150  219.4790 H   0  0  0  0  0  0  0  0  0  0  0  0
  139.7954   78.8058  219.4498 H   0  0  0  0  0  0  0  0  0  0  0  0
  138.9605   77.8853  220.7203 H   0  0  0  0  0  0  0  0  0  0  0  0
  140.0914   81.0053  220.3545 H   0  0  0  0  0  0  0  0  0  0  0  0
  141.0793   82.4804  222.1196 H   0  0  0  0  0  0  0  0  0  0  0  0
  142.0321   81.4386  224.1360 H   0  0  0  0  0  0  0  0  0  0  0  0
  142.0453   78.9846  224.4771 H   0  0  0  0  0  0  0  0  0  0  0  0
  141.9441   76.9121  223.3648 H   0  0  0  0  0  0  0  0  0  0  0  0
  140.1396   76.9002  223.2776 H   0  0  0  0  0  0  0  0  0  0  0  0
  144.7024   71.0625  221.0260 H   0  0  0  0  0  0  0  0  0  0  0  0
  143.0285   70.7009  220.5398 H   0  0  0  0  0  0  0  0  0  0  0  0
  144.6650   69.6557  218.9602 H   0  0  0  0  0  0  0  0  0  0  0  0
  143.7101   70.8802  218.1130 H   0  0  0  0  0  0  0  0  0  0  0  0
  1  2  1  0
  2  3  1  0
  3  4  1  0
  4  5  1  0
  5  6  1  0
  6  7  1  0
  7  8  2  0
  8  9  1  0
  9 10  1  0
 10 11  1  0
 11 12  1  0
 12 13  1  0
 13 14  2  0
 14 15  1  0
 15 16  2  0
 16 17  1  0
 17 18  2  0
 18 19  1  0
  9 20  2  0
 20 21  1  0
 21 22  1  0
 22 23  1  0
 23 24  1  0
 24 25  1  0
 25 26  2  0
 26 27  1  0
 27 28  2  0
 28 29  1  0
 29 30  2  0
 30 31  1  0
 21 32  2  0
  6 33  1  0
 33 34  1  0
 34 35  1  0
 35  4  1  0
 32  7  1  0
 19 10  1  0
 31 22  1  0
 18 13  1  0
 30 25  1  0
  1 36  1  0
  1 37  1  0
  1 38  1  0
  2 39  1  0
  2 40  1  0
  3 41  1  0
  4 42  1  6
  5 43  1  0
  5 44  1  0
 11 45  1  0
 11 46  1  0
 12 47  1  0
 12 48  1  0
 14 49  1  0
 15 50  1  0
 16 51  1  0
 17 52  1  0
 19 53  1  0
 19 54  1  0
 23 55  1  0
 23 56  1  0
 24 57  1  0
 24 58  1  0
 26 59  1  0
 27 60  1  0
 28 61  1  0
 29 62  1  0
 31 63  1  0
 31 64  1  0
 33 65  1  0
 33 66  1  0
 34 67  1  0
 34 68  1  0
M  END
>  <smiles>  (46) 
CCNC1CN(c2nc(N3CCc4ccccc4C3)nc(N3CCc4ccccc4C3)n2)CCO1

>  <score_type>  (46) 
oracle

>  <origin>  (46) 
autodockgpu

>  <m_score__min__energy>  (46) 
-9.6099999999999994

>  <m_primary>  (46) 
energy

>  <rmsd>  (46) 
7.727212881556957

>  <m_score__min__rmsd>  (46) 
7.727212881556957

>  <meeko>  (46) 
{"free_energy": -9.55, "intermolecular_energy": -11.05, "internal_energy": -0.98, "cluster_size": 40, "cluster_id": 1, "rank_in_cluster": 2}

>  <energy>  (46) 
-9.17

>  <cluster_rmsd>  (46) 
0.14

>  <cluster>  (46) 
2

$$$$

     RDKit          3D

 68 73  0  0  1  0  0  0  0  0999 V2000
  145.9100   67.4950  219.3300 C   0  0  0  0  0  0  0  0  0  0  0  0
  144.6910   68.3680  219.3760 C   0  0  0  0  0  0  0  0  0  0  0  0
  144.8090   69.5400  218.5430 N   0  0  0  0  0  0  0  0  0  0  0  0
  144.8710   70.7330  219.3420 C   0  0  2  0  0  0  0  0  0  0  0  0
  143.5080   71.2920  219.6690 C   0  0  0  0  0  0  0  0  0  0  0  0
  143.5760   72.6870  220.0670 N   0  0  0  0  0  0  0  0  0  0  0  0
  142.5060   73.2600  220.8250 C   0  0  0  0  0  0  0  0  0  0  0  0
  141.7200   72.4730  221.5960 N   0  0  0  0  0  0  0  0  0  0  0  0
  140.7090   72.9620  222.3210 C   0  0  0  0  0  0  0  0  0  0  0  0
  139.9110   72.0920  223.1130 N   0  0  0  0  0  0  0  0  0  0  0  0
  138.7360   71.4520  222.5430 C   0  0  0  0  0  0  0  0  0  0  0  0
  139.0730   69.9760  222.4600 C   0  0  0  0  0  0  0  0  0  0  0  0
  139.4260   69.5500  223.8430 C   0  0  0  0  0  0  0  0  0  0  0  0
  139.1900   68.2280  224.2060 C   0  0  0  0  0  0  0  0  0  0  0  0
  139.5000   67.7650  225.4880 C   0  0  0  0  0  0  0  0  0  0  0  0
  140.0540   68.6340  226.4220 C   0  0  0  0  0  0  0  0  0  0  0  0
  140.2820   69.9430  226.0440 C   0  0  0  0  0  0  0  0  0  0  0  0
  139.9770   70.4100  224.7740 C   0  0  0  0  0  0  0  0  0  0  0  0
  140.2670   71.8390  224.4880 C   0  0  0  0  0  0  0  0  0  0  0  0
  140.4870   74.2830  222.2660 N   0  0  0  0  0  0  0  0  0  0  0  0
  141.2680   75.0800  221.4970 C   0  0  0  0  0  0  0  0  0  0  0  0
  140.9750   76.4840  221.4790 N   0  0  0  0  0  0  0  0  0  0  0  0
  140.6180   77.0880  220.2140 C   0  0  0  0  0  0  0  0  0  0  0  0
  139.6390   78.2080  220.4890 C   0  0  0  0  0  0  0  0  0  0  0  0
  140.3170   79.1560  221.4110 C   0  0  0  0  0  0  0  0  0  0  0  0
  140.2840   80.5290  221.2200 C   0  0  0  0  0  0  0  0  0  0  0  0
  140.9300   81.3880  222.1050 C   0  0  0  0  0  0  0  0  0  0  0  0
  141.5970   80.8300  223.1670 C   0  0  0  0  0  0  0  0  0  0  0  0
  141.6610   79.4730  223.4040 C   0  0  0  0  0  0  0  0  0  0  0  0
  141.0030   78.6580  222.4960 C   0  0  0  0  0  0  0  0  0  0  0  0
  141.0560   77.2070  222.7260 C   0  0  0  0  0  0  0  0  0  0  0  0
  142.2780   74.5620  220.7770 N   0  0  0  0  0  0  0  0  0  0  0  0
  144.7200   73.5290  219.7110 C   0  0  0  0  0  0  0  0  0  0  0  0
  145.9440   72.6380  219.6960 C   0  0  0  0  0  0  0  0  0  0  0  0
  145.6880   71.6540  218.7140 O   0  0  0  0  0  0  0  0  0  0  0  0
  146.2338   67.2631  220.3554 H   0  0  0  0  0  0  0  0  0  0  0  0
  145.6721   66.5607  218.8005 H   0  0  0  0  0  0  0  0  0  0  0  0
  146.7180   68.0211  218.8005 H   0  0  0  0  0  0  0  0  0  0  0  0
  143.8255   67.7808  219.0353 H   0  0  0  0  0  0  0  0  0  0  0  0
  144.5693   68.7112  220.4140 H   0  0  0  0  0  0  0  0  0  0  0  0
  144.1500   69.5590  217.7590 H   0  0  0  0  0  0  0  0  0  0  0  0
  145.3082   70.4786  220.3188 H   0  0  0  0  0  0  0  0  0  0  0  0
  142.8660   71.2068  218.7799 H   0  0  0  0  0  0  0  0  0  0  0  0
  143.0968   70.7168  220.5116 H   0  0  0  0  0  0  0  0  0  0  0  0
  137.8610   71.6099  223.1906 H   0  0  0  0  0  0  0  0  0  0  0  0
  138.4857   71.8677  221.5558 H   0  0  0  0  0  0  0  0  0  0  0  0
  138.2049   69.4069  222.0959 H   0  0  0  0  0  0  0  0  0  0  0  0
  139.9027   69.7938  221.7612 H   0  0  0  0  0  0  0  0  0  0  0  0
  138.7522   67.5355  223.4720 H   0  0  0  0  0  0  0  0  0  0  0  0
  139.3063   66.7162  225.7574 H   0  0  0  0  0  0  0  0  0  0  0  0
  140.3042   68.2878  227.4357 H   0  0  0  0  0  0  0  0  0  0  0  0
  140.7202   70.6385  226.7749 H   0  0  0  0  0  0  0  0  0  0  0  0
  139.6726   72.4824  225.1534 H   0  0  0  0  0  0  0  0  0  0  0  0
  141.3318   72.0574  224.6568 H   0  0  0  0  0  0  0  0  0  0  0  0
  141.5177   77.4905  219.7257 H   0  0  0  0  0  0  0  0  0  0  0  0
  140.1640   76.3392  219.5483 H   0  0  0  0  0  0  0  0  0  0  0  0
  139.3733   78.7172  219.5509 H   0  0  0  0  0  0  0  0  0  0  0  0
  138.7113   77.8200  220.9349 H   0  0  0  0  0  0  0  0  0  0  0  0
  139.7407   80.9447  220.3586 H   0  0  0  0  0  0  0  0  0  0  0  0
  140.9066   82.4779  221.9580 H   0  0  0  0  0  0  0  0  0  0  0  0
  142.1098   81.5038  223.8692 H   0  0  0  0  0  0  0  0  0  0  0  0
  142.2045   79.0598  224.2665 H   0  0  0  0  0  0  0  0  0  0  0  0
  142.0027   76.9562  223.2268 H   0  0  0  0  0  0  0  0  0  0  0  0
  140.2005   76.9196  223.3549 H   0  0  0  0  0  0  0  0  0  0  0  0
  144.5656   73.9740  218.7170 H   0  0  0  0  0  0  0  0  0  0  0  0
  144.8422   74.3483  220.4348 H   0  0  0  0  0  0  0  0  0  0  0  0
  146.8391   73.2201  219.4316 H   0  0  0  0  0  0  0  0  0  0  0  0
  146.1314   72.1885  220.6823 H   0  0  0  0  0  0  0  0  0  0  0  0
  1  2  1  0
  2  3  1  0
  3  4  1  0
  4  5  1  0
  5  6  1  0
  6  7  1  0
  7  8  2  0
  8  9  1  0
  9 10  1  0
 10 11  1  0
 11 12  1  0
 12 13  1  0
 13 14  2  0
 14 15  1  0
 15 16  2  0
 16 17  1  0
 17 18  2  0
 18 19  1  0
  9 20  2  0
 20 21  1  0
 21 22  1  0
 22 23  1  0
 23 24  1  0
 24 25  1  0
 25 26  2  0
 26 27  1  0
 27 28  2  0
 28 29  1  0
 29 30  2  0
 30 31  1  0
 21 32  2  0
  6 33  1  0
 33 34  1  0
 34 35  1  0
 35  4  1  0
 32  7  1  0
 19 10  1  0
 31 22  1  0
 18 13  1  0
 30 25  1  0
  1 36  1  0
  1 37  1  0
  1 38  1  0
  2 39  1  0
  2 40  1  0
  3 41  1  0
  4 42  1  1
  5 43  1  0
  5 44  1  0
 11 45  1  0
 11 46  1  0
 12 47  1  0
 12 48  1  0
 14 49  1  0
 15 50  1  0
 16 51  1  0
 17 52  1  0
 19 53  1  0
 19 54  1  0
 23 55  1  0
 23 56  1  0
 24 57  1  0
 24 58  1  0
 26 59  1  0
 27 60  1  0
 28 61  1  0
 29 62  1  0
 31 63  1  0
 31 64  1  0
 33 65  1  0
 33 66  1  0
 34 67  1  0
 34 68  1  0
M  END
>  <smiles>  (47) 
CCNC1CN(c2nc(N3CCc4ccccc4C3)nc(N3CCc4ccccc4C3)n2)CCO1

>  <score_type>  (47) 
oracle

>  <origin>  (47) 
autodockgpu

>  <m_score__min__energy>  (47) 
-9.6099999999999994

>  <m_primary>  (47) 
energy

>  <rmsd>  (47) 
9.451014537471218

>  <m_score__min__rmsd>  (47) 
9.451014537471218

>  <meeko>  (47) 
{"free_energy": -9.29, "intermolecular_energy": -10.79, "internal_energy": -1.01, "cluster_size": 40, "cluster_id": 1, "rank_in_cluster": 24}

>  <energy>  (47) 
-9.09

>  <cluster_rmsd>  (47) 
0.71

>  <cluster>  (47) 
2

$$$$

     RDKit          3D

 68 73  0  0  1  0  0  0  0  0999 V2000
  144.5440   75.7480  215.4180 C   0  0  0  0  0  0  0  0  0  0  0  0
  144.4900   74.3310  215.9070 C   0  0  0  0  0  0  0  0  0  0  0  0
  145.6050   73.9870  216.7540 N   0  0  0  0  0  0  0  0  0  0  0  0
  145.1520   73.3870  217.9800 C   0  0  2  0  0  0  0  0  0  0  0  0
  144.0510   74.1750  218.6460 C   0  0  0  0  0  0  0  0  0  0  0  0
  143.9160   73.8340  220.0520 N   0  0  0  0  0  0  0  0  0  0  0  0
  142.6910   74.1150  220.7340 C   0  0  0  0  0  0  0  0  0  0  0  0
  142.2260   75.3840  220.8060 N   0  0  0  0  0  0  0  0  0  0  0  0
  141.0880   75.6960  221.4330 C   0  0  0  0  0  0  0  0  0  0  0  0
  140.6450   77.0460  221.4810 N   0  0  0  0  0  0  0  0  0  0  0  0
  140.0150   77.5690  222.6830 C   0  0  0  0  0  0  0  0  0  0  0  0
  140.9950   78.5730  223.2560 C   0  0  0  0  0  0  0  0  0  0  0  0
  141.2460   79.5720  222.1810 C   0  0  0  0  0  0  0  0  0  0  0  0
  141.5770   80.8710  222.5520 C   0  0  0  0  0  0  0  0  0  0  0  0
  141.8260   81.8550  221.5910 C   0  0  0  0  0  0  0  0  0  0  0  0
  141.7460   81.5380  220.2390 C   0  0  0  0  0  0  0  0  0  0  0  0
  141.4180   80.2430  219.8890 C   0  0  0  0  0  0  0  0  0  0  0  0
  141.1680   79.2610  220.8370 C   0  0  0  0  0  0  0  0  0  0  0  0
  140.8230   77.9050  220.3350 C   0  0  0  0  0  0  0  0  0  0  0  0
  140.3990   74.6970  222.0020 N   0  0  0  0  0  0  0  0  0  0  0  0
  140.8550   73.4220  221.9370 C   0  0  0  0  0  0  0  0  0  0  0  0
  140.0720   72.4010  222.5700 N   0  0  0  0  0  0  0  0  0  0  0  0
  138.6630   72.3280  222.2520 C   0  0  0  0  0  0  0  0  0  0  0  0
  138.2410   70.8770  222.3190 C   0  0  0  0  0  0  0  0  0  0  0  0
  138.5490   70.4030  223.6930 C   0  0  0  0  0  0  0  0  0  0  0  0
  137.6500   69.6520  224.4370 C   0  0  0  0  0  0  0  0  0  0  0  0
  137.9710   69.2240  225.7220 C   0  0  0  0  0  0  0  0  0  0  0  0
  139.2030   69.5690  226.2240 C   0  0  0  0  0  0  0  0  0  0  0  0
  140.1320   70.3120  225.5270 C   0  0  0  0  0  0  0  0  0  0  0  0
  139.7670   70.7160  224.2520 C   0  0  0  0  0  0  0  0  0  0  0  0
  140.7410   71.5100  223.4890 C   0  0  0  0  0  0  0  0  0  0  0  0
  142.0030   73.1370  221.3000 N   0  0  0  0  0  0  0  0  0  0  0  0
  145.0110   73.2060  220.7940 C   0  0  0  0  0  0  0  0  0  0  0  0
  145.7610   72.3200  219.8220 C   0  0  0  0  0  0  0  0  0  0  0  0
  146.2380   73.1830  218.8100 O   0  0  0  0  0  0  0  0  0  0  0  0
  144.5701   76.4322  216.2789 H   0  0  0  0  0  0  0  0  0  0  0  0
  145.4483   75.8913  214.8082 H   0  0  0  0  0  0  0  0  0  0  0  0
  143.6533   75.9597  214.8082 H   0  0  0  0  0  0  0  0  0  0  0  0
  143.5598   74.1917  216.4774 H   0  0  0  0  0  0  0  0  0  0  0  0
  144.5311   73.6754  215.0246 H   0  0  0  0  0  0  0  0  0  0  0  0
  146.2990   74.7360  216.8510 H   0  0  0  0  0  0  0  0  0  0  0  0
  144.6957   72.4136  217.7471 H   0  0  0  0  0  0  0  0  0  0  0  0
  144.2793   75.2476  218.5604 H   0  0  0  0  0  0  0  0  0  0  0  0
  143.1038   73.9302  218.1430 H   0  0  0  0  0  0  0  0  0  0  0  0
  139.0632   78.0611  222.4341 H   0  0  0  0  0  0  0  0  0  0  0  0
  139.7862   76.7689  223.4024 H   0  0  0  0  0  0  0  0  0  0  0  0
  140.5631   79.0650  224.1400 H   0  0  0  0  0  0  0  0  0  0  0  0
  141.9280   78.0846  223.5738 H   0  0  0  0  0  0  0  0  0  0  0  0
  141.6439   81.1282  223.6194 H   0  0  0  0  0  0  0  0  0  0  0  0
  142.0846   82.8776  221.9032 H   0  0  0  0  0  0  0  0  0  0  0  0
  141.9390   82.2991  219.4686 H   0  0  0  0  0  0  0  0  0  0  0  0
  141.3527   79.9811  218.8226 H   0  0  0  0  0  0  0  0  0  0  0  0
  139.8923   77.9474  219.7502 H   0  0  0  0  0  0  0  0  0  0  0  0
  141.6221   77.5197  219.6846 H   0  0  0  0  0  0  0  0  0  0  0  0
  138.0856   72.9182  222.9788 H   0  0  0  0  0  0  0  0  0  0  0  0
  138.4777   72.7328  221.2461 H   0  0  0  0  0  0  0  0  0  0  0  0
  137.1629   70.7867  222.1201 H   0  0  0  0  0  0  0  0  0  0  0  0
  138.7724   70.2764  221.5661 H   0  0  0  0  0  0  0  0  0  0  0  0
  136.6719   69.3918  224.0061 H   0  0  0  0  0  0  0  0  0  0  0  0
  137.2618   68.6291  226.3163 H   0  0  0  0  0  0  0  0  0  0  0  0
  139.4625   69.2335  227.2389 H   0  0  0  0  0  0  0  0  0  0  0  0
  141.1100   70.5703  225.9592 H   0  0  0  0  0  0  0  0  0  0  0  0
  141.3486   72.1034  224.1881 H   0  0  0  0  0  0  0  0  0  0  0  0
  141.3790   70.8242  222.9123 H   0  0  0  0  0  0  0  0  0  0  0  0
  145.6839   73.9772  221.1972 H   0  0  0  0  0  0  0  0  0  0  0  0
  144.6231   72.6178  221.6387 H   0  0  0  0  0  0  0  0  0  0  0  0
  146.6005   71.8203  220.3275 H   0  0  0  0  0  0  0  0  0  0  0  0
  145.1157   71.5295  219.4114 H   0  0  0  0  0  0  0  0  0  0  0  0
  1  2  1  0
  2  3  1  0
  3  4  1  0
  4  5  1  0
  5  6  1  0
  6  7  1  0
  7  8  2  0
  8  9  1  0
  9 10  1  0
 10 11  1  0
 11 12  1  0
 12 13  1  0
 13 14  2  0
 14 15  1  0
 15 16  2  0
 16 17  1  0
 17 18  2  0
 18 19  1  0
  9 20  2  0
 20 21  1  0
 21 22  1  0
 22 23  1  0
 23 24  1  0
 24 25  1  0
 25 26  2  0
 26 27  1  0
 27 28  2  0
 28 29  1  0
 29 30  2  0
 30 31  1  0
 21 32  2  0
  6 33  1  0
 33 34  1  0
 34 35  1  0
 35  4  1  0
 32  7  1  0
 19 10  1  0
 31 22  1  0
 18 13  1  0
 30 25  1  0
  1 36  1  0
  1 37  1  0
  1 38  1  0
  2 39  1  0
  2 40  1  0
  3 41  1  0
  4 42  1  6
  5 43  1  0
  5 44  1  0
 11 45  1  0
 11 46  1  0
 12 47  1  0
 12 48  1  0
 14 49  1  0
 15 50  1  0
 16 51  1  0
 17 52  1  0
 19 53  1  0
 19 54  1  0
 23 55  1  0
 23 56  1  0
 24 57  1  0
 24 58  1  0
 26 59  1  0
 27 60  1  0
 28 61  1  0
 29 62  1  0
 31 63  1  0
 31 64  1  0
 33 65  1  0
 33 66  1  0
 34 67  1  0
 34 68  1  0
M  END
>  <smiles>  (48) 
CCNC1CN(c2nc(N3CCc4ccccc4C3)nc(N3CCc4ccccc4C3)n2)CCO1

>  <score_type>  (48) 
oracle

>  <origin>  (48) 
autodockgpu

>  <m_score__min__energy>  (48) 
-9.6099999999999994

>  <m_primary>  (48) 
energy

>  <rmsd>  (48) 
7.250951086086789

>  <m_score__min__rmsd>  (48) 
7.250951086086789

>  <meeko>  (48) 
{"free_energy": -9.01, "intermolecular_energy": -10.5, "internal_energy": -1.02, "cluster_size": 40, "cluster_id": 1, "rank_in_cluster": 39}

>  <energy>  (48) 
-9.14

>  <cluster_rmsd>  (48) 
0.0

>  <cluster>  (48) 
3

$$$$

     RDKit          3D

 68 73  0  0  1  0  0  0  0  0999 V2000
  145.9610   67.7920  219.7110 C   0  0  0  0  0  0  0  0  0  0  0  0
  144.6220   68.2470  219.2110 C   0  0  0  0  0  0  0  0  0  0  0  0
  144.6970   69.4600  218.4350 N   0  0  0  0  0  0  0  0  0  0  0  0
  144.8050   70.6110  219.2890 C   0  0  2  0  0  0  0  0  0  0  0  0
  143.4670   71.2300  219.6110 C   0  0  0  0  0  0  0  0  0  0  0  0
  143.6030   72.6000  220.0750 N   0  0  0  0  0  0  0  0  0  0  0  0
  142.5480   73.1980  220.8350 C   0  0  0  0  0  0  0  0  0  0  0  0
  141.7530   72.4320  221.6170 N   0  0  0  0  0  0  0  0  0  0  0  0
  140.7560   72.9440  222.3440 C   0  0  0  0  0  0  0  0  0  0  0  0
  139.9480   72.0950  223.1490 N   0  0  0  0  0  0  0  0  0  0  0  0
  138.7750   71.4470  222.5830 C   0  0  0  0  0  0  0  0  0  0  0  0
  139.1070   69.9680  222.5360 C   0  0  0  0  0  0  0  0  0  0  0  0
  139.4460   69.5710  223.9300 C   0  0  0  0  0  0  0  0  0  0  0  0
  139.2020   68.2580  224.3200 C   0  0  0  0  0  0  0  0  0  0  0  0
  139.5000   67.8220  225.6140 C   0  0  0  0  0  0  0  0  0  0  0  0
  140.0500   68.7090  226.5330 C   0  0  0  0  0  0  0  0  0  0  0  0
  140.2860   70.0090  226.1290 C   0  0  0  0  0  0  0  0  0  0  0  0
  139.9930   70.4490  224.8470 C   0  0  0  0  0  0  0  0  0  0  0  0
  140.2920   71.8710  224.5320 C   0  0  0  0  0  0  0  0  0  0  0  0
  140.5570   74.2680  222.2800 N   0  0  0  0  0  0  0  0  0  0  0  0
  141.3470   75.0450  221.4990 C   0  0  0  0  0  0  0  0  0  0  0  0
  141.0780   76.4540  221.4720 N   0  0  0  0  0  0  0  0  0  0  0  0
  140.8610   77.0800  220.1860 C   0  0  0  0  0  0  0  0  0  0  0  0
  139.8760   78.2120  220.3760 C   0  0  0  0  0  0  0  0  0  0  0  0
  140.4710   79.1370  221.3760 C   0  0  0  0  0  0  0  0  0  0  0  0
  140.4780   80.5130  221.2020 C   0  0  0  0  0  0  0  0  0  0  0  0
  141.0440   81.3500  222.1600 C   0  0  0  0  0  0  0  0  0  0  0  0
  141.5900   80.7670  223.2780 C   0  0  0  0  0  0  0  0  0  0  0  0
  141.6090   79.4060  223.5000 C   0  0  0  0  0  0  0  0  0  0  0  0
  141.0350   78.6140  222.5180 C   0  0  0  0  0  0  0  0  0  0  0  0
  141.0430   77.1600  222.7310 C   0  0  0  0  0  0  0  0  0  0  0  0
  142.3430   74.5030  220.7780 N   0  0  0  0  0  0  0  0  0  0  0  0
  144.8000   73.3910  219.7830 C   0  0  0  0  0  0  0  0  0  0  0  0
  145.9730   72.4350  219.7530 C   0  0  0  0  0  0  0  0  0  0  0  0
  145.6870   71.5120  218.7220 O   0  0  0  0  0  0  0  0  0  0  0  0
  145.9610   67.7920  220.8110 H   0  0  0  0  0  0  0  0  0  0  0  0
  146.1630   66.7748  219.3443 H   0  0  0  0  0  0  0  0  0  0  0  0
  146.7409   68.4756  219.3443 H   0  0  0  0  0  0  0  0  0  0  0  0
  144.1938   67.4531  218.5814 H   0  0  0  0  0  0  0  0  0  0  0  0
  143.9939   68.4549  220.0898 H   0  0  0  0  0  0  0  0  0  0  0  0
  143.9950   69.5190  217.6900 H   0  0  0  0  0  0  0  0  0  0  0  0
  145.2036   70.2896  220.2626 H   0  0  0  0  0  0  0  0  0  0  0  0
  142.8436   71.2214  218.7048 H   0  0  0  0  0  0  0  0  0  0  0  0
  143.0032   70.6412  220.4161 H   0  0  0  0  0  0  0  0  0  0  0  0
  137.8951   71.6227  223.2193 H   0  0  0  0  0  0  0  0  0  0  0  0
  138.5348   71.8415  221.5847 H   0  0  0  0  0  0  0  0  0  0  0  0
  138.2399   69.3943  222.1768 H   0  0  0  0  0  0  0  0  0  0  0  0
  139.9424   69.7676  221.8490 H   0  0  0  0  0  0  0  0  0  0  0  0
  138.7673   67.5512  223.5979 H   0  0  0  0  0  0  0  0  0  0  0  0
  139.3000   66.7801  225.9047 H   0  0  0  0  0  0  0  0  0  0  0  0
  140.2911   68.3838  227.5558 H   0  0  0  0  0  0  0  0  0  0  0  0
  140.7208   70.7186  226.8483 H   0  0  0  0  0  0  0  0  0  0  0  0
  139.6953   72.5315  225.1783 H   0  0  0  0  0  0  0  0  0  0  0  0
  141.3564   72.0885  224.7046 H   0  0  0  0  0  0  0  0  0  0  0  0
  141.8118   77.4740  219.7977 H   0  0  0  0  0  0  0  0  0  0  0  0
  140.4662   76.3473  219.4667 H   0  0  0  0  0  0  0  0  0  0  0  0
  139.7149   78.7375  219.4232 H   0  0  0  0  0  0  0  0  0  0  0  0
  138.9019   77.8336  220.7195 H   0  0  0  0  0  0  0  0  0  0  0  0
  140.0310   80.9484  220.2961 H   0  0  0  0  0  0  0  0  0  0  0  0
  141.0537   82.4418  222.0262 H   0  0  0  0  0  0  0  0  0  0  0  0
  142.0374   81.4231  224.0392 H   0  0  0  0  0  0  0  0  0  0  0  0
  142.0554   78.9726  224.4071 H   0  0  0  0  0  0  0  0  0  0  0  0
  141.9303   76.8876  223.3213 H   0  0  0  0  0  0  0  0  0  0  0  0
  140.1239   76.8786  223.2658 H   0  0  0  0  0  0  0  0  0  0  0  0
  144.6942   73.8882  218.8075 H   0  0  0  0  0  0  0  0  0  0  0  0
  144.9498   74.1684  220.5467 H   0  0  0  0  0  0  0  0  0  0  0  0
  146.9046   72.9776  219.5346 H   0  0  0  0  0  0  0  0  0  0  0  0
  146.1121   71.9321  220.7214 H   0  0  0  0  0  0  0  0  0  0  0  0
  1  2  1  0
  2  3  1  0
  3  4  1  0
  4  5  1  0
  5  6  1  0
  6  7  1  0
  7  8  2  0
  8  9  1  0
  9 10  1  0
 10 11  1  0
 11 12  1  0
 12 13  1  0
 13 14  2  0
 14 15  1  0
 15 16  2  0
 16 17  1  0
 17 18  2  0
 18 19  1  0
  9 20  2  0
 20 21  1  0
 21 22  1  0
 22 23  1  0
 23 24  1  0
 24 25  1  0
 25 26  2  0
 26 27  1  0
 27 28  2  0
 28 29  1  0
 29 30  2  0
 30 31  1  0
 21 32  2  0
  6 33  1  0
 33 34  1  0
 34 35  1  0
 35  4  1  0
 32  7  1  0
 19 10  1  0
 31 22  1  0
 18 13  1  0
 30 25  1  0
  1 36  1  0
  1 37  1  0
  1 38  1  0
  2 39  1  0
  2 40  1  0
  3 41  1  0
  4 42  1  1
  5 43  1  0
  5 44  1  0
 11 45  1  0
 11 46  1  0
 12 47  1  0
 12 48  1  0
 14 49  1  0
 15 50  1  0
 16 51  1  0
 17 52  1  0
 19 53  1  0
 19 54  1  0
 23 55  1  0
 23 56  1  0
 24 57  1  0
 24 58  1  0
 26 59  1  0
 27 60  1  0
 28 61  1  0
 29 62  1  0
 31 63  1  0
 31 64  1  0
 33 65  1  0
 33 66  1  0
 34 67  1  0
 34 68  1  0
M  END
>  <smiles>  (49) 
CCNC1CN(c2nc(N3CCc4ccccc4C3)nc(N3CCc4ccccc4C3)n2)CCO1

>  <score_type>  (49) 
oracle

>  <origin>  (49) 
autodockgpu

>  <m_score__min__energy>  (49) 
-9.6099999999999994

>  <m_primary>  (49) 
energy

>  <rmsd>  (49) 
9.398729959338029

>  <m_score__min__rmsd>  (49) 
9.398729959338029

>  <meeko>  (49) 
{"free_energy": -9.26, "intermolecular_energy": -10.75, "internal_energy": -1.04, "cluster_size": 40, "cluster_id": 1, "rank_in_cluster": 30}

>  <energy>  (49) 
-9.03

>  <cluster_rmsd>  (49) 
0.0

>  <cluster>  (49) 
4

$$$$

     RDKit          3D

 68 73  0  0  1  0  0  0  0  0999 V2000
  145.4240   67.3980  219.4380 C   0  0  0  0  0  0  0  0  0  0  0  0
  144.8680   68.7890  219.3800 C   0  0  0  0  0  0  0  0  0  0  0  0
  145.8400   69.7650  218.9530 N   0  0  0  0  0  0  0  0  0  0  0  0
  145.4390   71.0910  219.3370 C   0  0  2  0  0  0  0  0  0  0  0  0
  144.0500   71.1360  219.9250 C   0  0  0  0  0  0  0  0  0  0  0  0
  143.4910   72.4760  219.8890 N   0  0  0  0  0  0  0  0  0  0  0  0
  142.4160   72.8190  220.7690 C   0  0  0  0  0  0  0  0  0  0  0  0
  141.8200   74.0310  220.6760 N   0  0  0  0  0  0  0  0  0  0  0  0
  140.8130   74.3970  221.4760 C   0  0  0  0  0  0  0  0  0  0  0  0
  140.2230   75.6820  221.3390 N   0  0  0  0  0  0  0  0  0  0  0  0
  138.7760   75.8250  221.3030 C   0  0  0  0  0  0  0  0  0  0  0  0
  138.4010   76.5300  222.5920 C   0  0  0  0  0  0  0  0  0  0  0  0
  139.1700   77.8050  222.6090 C   0  0  0  0  0  0  0  0  0  0  0  0
  138.6260   78.8920  223.2860 C   0  0  0  0  0  0  0  0  0  0  0  0
  139.2980   80.1170  223.3420 C   0  0  0  0  0  0  0  0  0  0  0  0
  140.5300   80.2590  222.7130 C   0  0  0  0  0  0  0  0  0  0  0  0
  141.0550   79.1700  222.0460 C   0  0  0  0  0  0  0  0  0  0  0  0
  140.3940   77.9510  221.9860 C   0  0  0  0  0  0  0  0  0  0  0  0
  141.0600   76.8530  221.2370 C   0  0  0  0  0  0  0  0  0  0  0  0
  140.3970   73.5130  222.3930 N   0  0  0  0  0  0  0  0  0  0  0  0
  140.9860   72.2970  222.4950 C   0  0  0  0  0  0  0  0  0  0  0  0
  140.4950   71.4000  223.5010 N   0  0  0  0  0  0  0  0  0  0  0  0
  139.1870   70.8130  223.3100 C   0  0  0  0  0  0  0  0  0  0  0  0
  139.1970   69.4320  223.9270 C   0  0  0  0  0  0  0  0  0  0  0  0
  139.5500   69.6040  225.3600 C   0  0  0  0  0  0  0  0  0  0  0  0
  138.8640   68.9540  226.3750 C   0  0  0  0  0  0  0  0  0  0  0  0
  139.2210   69.1380  227.7080 C   0  0  0  0  0  0  0  0  0  0  0  0
  140.2710   69.9810  227.9800 C   0  0  0  0  0  0  0  0  0  0  0  0
  140.9860   70.6510  227.0090 C   0  0  0  0  0  0  0  0  0  0  0  0
  140.5930   70.4360  225.6970 C   0  0  0  0  0  0  0  0  0  0  0  0
  141.3390   71.1400  224.6440 C   0  0  0  0  0  0  0  0  0  0  0  0
  141.9970   71.9550  221.6780 N   0  0  0  0  0  0  0  0  0  0  0  0
  144.0020   73.4930  218.9680 C   0  0  0  0  0  0  0  0  0  0  0  0
  145.4850   73.2380  218.7970 C   0  0  0  0  0  0  0  0  0  0  0  0
  145.5870   71.9380  218.2540 O   0  0  0  0  0  0  0  0  0  0  0  0
  145.5451   67.0950  220.4885 H   0  0  0  0  0  0  0  0  0  0  0  0
  144.7334   66.7058  218.9340 H   0  0  0  0  0  0  0  0  0  0  0  0
  146.4014   67.3725  218.9340 H   0  0  0  0  0  0  0  0  0  0  0  0
  144.0251   68.8008  218.6733 H   0  0  0  0  0  0  0  0  0  0  0  0
  144.5527   69.0610  220.3982 H   0  0  0  0  0  0  0  0  0  0  0  0
  146.1420   69.6510  217.9800 H   0  0  0  0  0  0  0  0  0  0  0  0
  146.0961   71.4353  220.1492 H   0  0  0  0  0  0  0  0  0  0  0  0
  143.3979   70.4628  219.3492 H   0  0  0  0  0  0  0  0  0  0  0  0
  144.1142   70.8210  220.9770 H   0  0  0  0  0  0  0  0  0  0  0  0
  138.4716   76.4269  220.4341 H   0  0  0  0  0  0  0  0  0  0  0  0
  138.2739   74.8505  221.2124 H   0  0  0  0  0  0  0  0  0  0  0  0
  137.3207   76.7363  222.6131 H   0  0  0  0  0  0  0  0  0  0  0  0
  138.6349   75.9099  223.4699 H   0  0  0  0  0  0  0  0  0  0  0  0
  137.6516   78.7860  223.7852 H   0  0  0  0  0  0  0  0  0  0  0  0
  138.8533   80.9659  223.8821 H   0  0  0  0  0  0  0  0  0  0  0  0
  141.0728   81.2152  222.7460 H   0  0  0  0  0  0  0  0  0  0  0  0
  142.0293   79.2719  221.5457 H   0  0  0  0  0  0  0  0  0  0  0  0
  141.1787   77.1379  220.1812 H   0  0  0  0  0  0  0  0  0  0  0  0
  142.0574   76.6513  221.6547 H   0  0  0  0  0  0  0  0  0  0  0  0
  138.4239   71.4351  223.8006 H   0  0  0  0  0  0  0  0  0  0  0  0
  138.9507   70.7495  222.2376 H   0  0  0  0  0  0  0  0  0  0  0  0
  138.2035   68.9689  223.8348 H   0  0  0  0  0  0  0  0  0  0  0  0
  139.9205   68.7779  223.4183 H   0  0  0  0  0  0  0  0  0  0  0  0
  138.0277   68.2850  226.1238 H   0  0  0  0  0  0  0  0  0  0  0  0
  138.6800   68.6252  228.5169 H   0  0  0  0  0  0  0  0  0  0  0  0
  140.5578   70.1302  229.0314 H   0  0  0  0  0  0  0  0  0  0  0  0
  141.8223   71.3193  227.2619 H   0  0  0  0  0  0  0  0  0  0  0  0
  141.7099   72.0957  225.0428 H   0  0  0  0  0  0  0  0  0  0  0  0
  142.1788   70.5057  224.3240 H   0  0  0  0  0  0  0  0  0  0  0  0
  143.4914   73.4127  217.9970 H   0  0  0  0  0  0  0  0  0  0  0  0
  143.8227   74.5035  219.3638 H   0  0  0  0  0  0  0  0  0  0  0  0
  145.9249   73.9764  218.1105 H   0  0  0  0  0  0  0  0  0  0  0  0
  146.0254   73.3240  219.7513 H   0  0  0  0  0  0  0  0  0  0  0  0
  1  2  1  0
  2  3  1  0
  3  4  1  0
  4  5  1  0
  5  6  1  0
  6  7  1  0
  7  8  2  0
  8  9  1  0
  9 10  1  0
 10 11  1  0
 11 12  1  0
 12 13  1  0
 13 14  2  0
 14 15  1  0
 15 16  2  0
 16 17  1  0
 17 18  2  0
 18 19  1  0
  9 20  2  0
 20 21  1  0
 21 22  1  0
 22 23  1  0
 23 24  1  0
 24 25  1  0
 25 26  2  0
 26 27  1  0
 27 28  2  0
 28 29  1  0
 29 30  2  0
 30 31  1  0
 21 32  2  0
  6 33  1  0
 33 34  1  0
 34 35  1  0
 35  4  1  0
 32  7  1  0
 19 10  1  0
 31 22  1  0
 18 13  1  0
 30 25  1  0
  1 36  1  0
  1 37  1  0
  1 38  1  0
  2 39  1  0
  2 40  1  0
  3 41  1  0
  4 42  1  1
  5 43  1  0
  5 44  1  0
 11 45  1  0
 11 46  1  0
 12 47  1  0
 12 48  1  0
 14 49  1  0
 15 50  1  0
 16 51  1  0
 17 52  1  0
 19 53  1  0
 19 54  1  0
 23 55  1  0
 23 56  1  0
 24 57  1  0
 24 58  1  0
 26 59  1  0
 27 60  1  0
 28 61  1  0
 29 62  1  0
 31 63  1  0
 31 64  1  0
 33 65  1  0
 33 66  1  0
 34 67  1  0
 34 68  1  0
M  END
>  <smiles>  (50) 
CCNC1CN(c2nc(N3CCc4ccccc4C3)nc(N3CCc4ccccc4C3)n2)CCO1

>  <score_type>  (50) 
oracle

>  <origin>  (50) 
autodockgpu

>  <m_score__min__energy>  (50) 
-9.6099999999999994

>  <m_primary>  (50) 
energy

>  <rmsd>  (50) 
9.261681435995278

>  <m_score__min__rmsd>  (50) 
9.261681435995278

>  <meeko>  (50) 
{"free_energy": -9.16, "intermolecular_energy": -10.65, "internal_energy": -1.03, "cluster_size": 40, "cluster_id": 1, "rank_in_cluster": 36}

>  <energy>  (50) 
-8.95

>  <cluster_rmsd>  (50) 
1.02

>  <cluster>  (50) 
4

$$$$

     RDKit          3D

 68 73  0  0  1  0  0  0  0  0999 V2000
  146.9910   74.1060  216.0500 C   0  0  0  0  0  0  0  0  0  0  0  0
  145.5220   73.7790  215.8000 C   0  0  0  0  0  0  0  0  0  0  0  0
  145.0770   72.8550  216.8240 N   0  0  0  0  0  0  0  0  0  0  0  0
  145.1700   73.3920  218.1630 C   0  0  1  0  0  0  0  0  0  0  0  0
  143.7750   73.6490  218.6400 C   0  0  0  0  0  0  0  0  0  0  0  0
  143.3510   72.6390  219.5680 N   0  0  0  0  0  0  0  0  0  0  0  0
  142.3390   72.9230  220.5550 C   0  0  0  0  0  0  0  0  0  0  0  0
  141.9250   71.9770  221.4300 N   0  0  0  0  0  0  0  0  0  0  0  0
  140.9870   72.2680  222.3340 C   0  0  0  0  0  0  0  0  0  0  0  0
  140.4910   71.3360  223.2930 N   0  0  0  0  0  0  0  0  0  0  0  0
  139.5120   70.3330  222.9430 C   0  0  0  0  0  0  0  0  0  0  0  0
  138.4620   70.3450  224.0580 C   0  0  0  0  0  0  0  0  0  0  0  0
  139.1930   69.7960  225.2560 C   0  0  0  0  0  0  0  0  0  0  0  0
  138.6430   68.8070  226.0400 C   0  0  0  0  0  0  0  0  0  0  0  0
  139.3260   68.3190  227.1290 C   0  0  0  0  0  0  0  0  0  0  0  0
  140.5750   68.8560  227.4060 C   0  0  0  0  0  0  0  0  0  0  0  0
  141.1210   69.8550  226.6060 C   0  0  0  0  0  0  0  0  0  0  0  0
  140.4330   70.3550  225.4990 C   0  0  0  0  0  0  0  0  0  0  0  0
  140.9910   71.4100  224.6420 C   0  0  0  0  0  0  0  0  0  0  0  0
  140.4680   73.5270  222.3480 N   0  0  0  0  0  0  0  0  0  0  0  0
  140.8600   74.4720  221.4980 C   0  0  0  0  0  0  0  0  0  0  0  0
  140.3280   75.8020  221.4950 N   0  0  0  0  0  0  0  0  0  0  0  0
  138.8990   76.0320  221.4690 C   0  0  0  0  0  0  0  0  0  0  0  0
  138.4520   76.7900  222.7200 C   0  0  0  0  0  0  0  0  0  0  0  0
  139.3110   78.0020  222.7720 C   0  0  0  0  0  0  0  0  0  0  0  0
  138.7960   79.1090  223.4070 C   0  0  0  0  0  0  0  0  0  0  0  0
  139.5140   80.2800  223.5070 C   0  0  0  0  0  0  0  0  0  0  0  0
  140.7950   80.3640  222.9590 C   0  0  0  0  0  0  0  0  0  0  0  0
  141.3060   79.2490  222.3230 C   0  0  0  0  0  0  0  0  0  0  0  0
  140.5730   78.0660  222.2250 C   0  0  0  0  0  0  0  0  0  0  0  0
  141.2280   76.9370  221.5190 C   0  0  0  0  0  0  0  0  0  0  0  0
  141.8070   74.1500  220.5980 N   0  0  0  0  0  0  0  0  0  0  0  0
  143.9610   71.3340  219.4880 C   0  0  0  0  0  0  0  0  0  0  0  0
  145.4630   71.4090  219.3430 C   0  0  0  0  0  0  0  0  0  0  0  0
  145.9340   72.6450  219.0080 O   0  0  0  0  0  0  0  0  0  0  0  0
  147.1782   74.1477  217.1332 H   0  0  0  0  0  0  0  0  0  0  0  0
  147.6222   73.3264  215.5986 H   0  0  0  0  0  0  0  0  0  0  0  0
  147.2319   75.0797  215.5986 H   0  0  0  0  0  0  0  0  0  0  0  0
  144.9234   74.7007  215.8461 H   0  0  0  0  0  0  0  0  0  0  0  0
  145.4002   73.3266  214.8048 H   0  0  0  0  0  0  0  0  0  0  0  0
  144.1780   72.4160  216.6160 H   0  0  0  0  0  0  0  0  0  0  0  0
  145.7235   74.3425  218.1467 H   0  0  0  0  0  0  0  0  0  0  0  0
  143.7402   74.6301  219.1363 H   0  0  0  0  0  0  0  0  0  0  0  0
  143.1002   73.6305  217.7715 H   0  0  0  0  0  0  0  0  0  0  0  0
  139.0447   70.5782  221.9779 H   0  0  0  0  0  0  0  0  0  0  0  0
  139.9762   69.3407  222.8434 H   0  0  0  0  0  0  0  0  0  0  0  0
  138.1090   71.3688  224.2512 H   0  0  0  0  0  0  0  0  0  0  0  0
  137.5679   69.7573  223.8027 H   0  0  0  0  0  0  0  0  0  0  0  0
  137.6496   68.4041  225.7933 H   0  0  0  0  0  0  0  0  0  0  0  0
  138.8958   67.5278  227.7607 H   0  0  0  0  0  0  0  0  0  0  0  0
  141.1429   68.4859  228.2723 H   0  0  0  0  0  0  0  0  0  0  0  0
  142.1145   70.2588  226.8507 H   0  0  0  0  0  0  0  0  0  0  0  0
  140.7235   72.3892  225.0658 H   0  0  0  0  0  0  0  0  0  0  0  0
  142.0820   71.2742  224.6059 H   0  0  0  0  0  0  0  0  0  0  0  0
  138.6445   76.6240  220.5775 H   0  0  0  0  0  0  0  0  0  0  0  0
  138.3843   75.0603  221.4407 H   0  0  0  0  0  0  0  0  0  0  0  0
  137.3918   77.0723  222.6412 H   0  0  0  0  0  0  0  0  0  0  0  0
  138.5516   76.1774  223.6282 H   0  0  0  0  0  0  0  0  0  0  0  0
  137.7881   79.0574  223.8446 H   0  0  0  0  0  0  0  0  0  0  0  0
  139.0775   81.1500  224.0193 H   0  0  0  0  0  0  0  0  0  0  0  0
  141.3812   81.2919  223.0315 H   0  0  0  0  0  0  0  0  0  0  0  0
  142.3135   79.2951  221.8840 H   0  0  0  0  0  0  0  0  0  0  0  0
  141.4683   77.2376  220.4885 H   0  0  0  0  0  0  0  0  0  0  0  0
  142.1550   76.6618  222.0434 H   0  0  0  0  0  0  0  0  0  0  0  0
  143.7219   70.7754  220.4049 H   0  0  0  0  0  0  0  0  0  0  0  0
  143.5622   70.8312  218.5946 H   0  0  0  0  0  0  0  0  0  0  0  0
  145.9166   71.1156  220.3012 H   0  0  0  0  0  0  0  0  0  0  0  0
  145.7337   70.7345  218.5173 H   0  0  0  0  0  0  0  0  0  0  0  0
  1  2  1  0
  2  3  1  0
  3  4  1  0
  4  5  1  0
  5  6  1  0
  6  7  1  0
  7  8  2  0
  8  9  1  0
  9 10  1  0
 10 11  1  0
 11 12  1  0
 12 13  1  0
 13 14  2  0
 14 15  1  0
 15 16  2  0
 16 17  1  0
 17 18  2  0
 18 19  1  0
  9 20  2  0
 20 21  1  0
 21 22  1  0
 22 23  1  0
 23 24  1  0
 24 25  1  0
 25 26  2  0
 26 27  1  0
 27 28  2  0
 28 29  1  0
 29 30  2  0
 30 31  1  0
 21 32  2  0
  6 33  1  0
 33 34  1  0
 34 35  1  0
 35  4  1  0
 32  7  1  0
 19 10  1  0
 31 22  1  0
 18 13  1  0
 30 25  1  0
  1 36  1  0
  1 37  1  0
  1 38  1  0
  2 39  1  0
  2 40  1  0
  3 41  1  0
  4 42  1  6
  5 43  1  0
  5 44  1  0
 11 45  1  0
 11 46  1  0
 12 47  1  0
 12 48  1  0
 14 49  1  0
 15 50  1  0
 16 51  1  0
 17 52  1  0
 19 53  1  0
 19 54  1  0
 23 55  1  0
 23 56  1  0
 24 57  1  0
 24 58  1  0
 26 59  1  0
 27 60  1  0
 28 61  1  0
 29 62  1  0
 31 63  1  0
 31 64  1  0
 33 65  1  0
 33 66  1  0
 34 67  1  0
 34 68  1  0
M  END
>  <smiles>  (51) 
CCNC1CN(c2nc(N3CCc4ccccc4C3)nc(N3CCc4ccccc4C3)n2)CCO1

>  <score_type>  (51) 
oracle

>  <origin>  (51) 
autodockgpu

>  <m_score__min__energy>  (51) 
-9.5500000000000007

>  <m_primary>  (51) 
energy

>  <rmsd>  (51) 
7.667690342507324

>  <m_score__min__rmsd>  (51) 
7.667690342507324

>  <meeko>  (51) 
{"free_energy": -9.06, "intermolecular_energy": -10.55, "internal_energy": -1.0, "cluster_size": 45, "cluster_id": 1, "rank_in_cluster": 29}

>  <energy>  (51) 
-9.55

>  <cluster_rmsd>  (51) 
0.0

>  <cluster>  (51) 
1

$$$$

     RDKit          3D

 68 73  0  0  1  0  0  0  0  0999 V2000
  145.5500   68.1420  219.6600 C   0  0  0  0  0  0  0  0  0  0  0  0
  146.3190   69.1250  218.7810 C   0  0  0  0  0  0  0  0  0  0  0  0
  145.9300   70.4710  219.1490 N   0  0  0  0  0  0  0  0  0  0  0  0
  144.5730   70.8010  218.7730 C   0  0  1  0  0  0  0  0  0  0  0  0
  143.8490   71.2040  220.0190 C   0  0  0  0  0  0  0  0  0  0  0  0
  143.6890   72.6290  220.0870 N   0  0  0  0  0  0  0  0  0  0  0  0
  142.6050   73.2150  220.8370 C   0  0  0  0  0  0  0  0  0  0  0  0
  142.3510   74.5420  220.7840 N   0  0  0  0  0  0  0  0  0  0  0  0
  141.3410   75.0570  221.4890 C   0  0  0  0  0  0  0  0  0  0  0  0
  141.0010   76.4420  221.4940 N   0  0  0  0  0  0  0  0  0  0  0  0
  140.6050   77.1340  220.2890 C   0  0  0  0  0  0  0  0  0  0  0  0
  141.3690   78.4610  220.2800 C   0  0  0  0  0  0  0  0  0  0  0  0
  140.7600   79.2430  221.4140 C   0  0  0  0  0  0  0  0  0  0  0  0
  140.3670   80.5540  221.2510 C   0  0  0  0  0  0  0  0  0  0  0  0
  139.8120   81.2510  222.2980 C   0  0  0  0  0  0  0  0  0  0  0  0
  139.6660   80.5930  223.5120 C   0  0  0  0  0  0  0  0  0  0  0  0
  140.0650   79.2690  223.6640 C   0  0  0  0  0  0  0  0  0  0  0  0
  140.6290   78.5550  222.6050 C   0  0  0  0  0  0  0  0  0  0  0  0
  141.0580   77.1570  222.7440 C   0  0  0  0  0  0  0  0  0  0  0  0
  140.5850   74.2180  222.2500 N   0  0  0  0  0  0  0  0  0  0  0  0
  140.8170   72.9090  222.3150 C   0  0  0  0  0  0  0  0  0  0  0  0
  140.0360   72.0080  223.1090 N   0  0  0  0  0  0  0  0  0  0  0  0
  138.9380   71.2650  222.5280 C   0  0  0  0  0  0  0  0  0  0  0  0
  139.1920   69.7600  222.6340 C   0  0  0  0  0  0  0  0  0  0  0  0
  139.4660   69.5090  224.0730 C   0  0  0  0  0  0  0  0  0  0  0  0
  139.1720   68.2550  224.5570 C   0  0  0  0  0  0  0  0  0  0  0  0
  139.3900   67.9240  225.8770 C   0  0  0  0  0  0  0  0  0  0  0  0
  139.9210   68.8690  226.7560 C   0  0  0  0  0  0  0  0  0  0  0  0
  140.2140   70.1250  226.2630 C   0  0  0  0  0  0  0  0  0  0  0  0
  139.9900   70.4540  224.9250 C   0  0  0  0  0  0  0  0  0  0  0  0
  140.3450   71.8350  224.5140 C   0  0  0  0  0  0  0  0  0  0  0  0
  141.8420   72.4180  221.5950 N   0  0  0  0  0  0  0  0  0  0  0  0
  144.6390   73.4600  219.3870 C   0  0  0  0  0  0  0  0  0  0  0  0
  144.9170   72.9630  217.9880 C   0  0  0  0  0  0  0  0  0  0  0  0
  144.4840   71.6930  217.7460 O   0  0  0  0  0  0  0  0  0  0  0  0
  145.7332   68.3762  220.7190 H   0  0  0  0  0  0  0  0  0  0  0  0
  144.4739   68.2241  219.4472 H   0  0  0  0  0  0  0  0  0  0  0  0
  145.8887   67.1173  219.4472 H   0  0  0  0  0  0  0  0  0  0  0  0
  147.4001   68.9953  218.9371 H   0  0  0  0  0  0  0  0  0  0  0  0
  146.0893   68.9425  217.7208 H   0  0  0  0  0  0  0  0  0  0  0  0
  146.1620   70.7150  220.1140 H   0  0  0  0  0  0  0  0  0  0  0  0
  144.0788   69.9178  218.3421 H   0  0  0  0  0  0  0  0  0  0  0  0
  142.8562   70.7304  220.0265 H   0  0  0  0  0  0  0  0  0  0  0  0
  144.4403   70.8775  220.8872 H   0  0  0  0  0  0  0  0  0  0  0  0
  140.8692   76.5372  219.4036 H   0  0  0  0  0  0  0  0  0  0  0  0
  139.5179   77.3002  220.2642 H   0  0  0  0  0  0  0  0  0  0  0  0
  142.4426   78.2947  220.4526 H   0  0  0  0  0  0  0  0  0  0  0  0
  141.2925   78.9857  219.3163 H   0  0  0  0  0  0  0  0  0  0  0  0
  140.4984   81.0462  220.2761 H   0  0  0  0  0  0  0  0  0  0  0  0
  139.4936   82.2970  222.1778 H   0  0  0  0  0  0  0  0  0  0  0  0
  139.2276   81.1275  224.3677 H   0  0  0  0  0  0  0  0  0  0  0  0
  139.9335   78.7748  224.6379 H   0  0  0  0  0  0  0  0  0  0  0  0
  142.0934   77.1396  223.1149 H   0  0  0  0  0  0  0  0  0  0  0  0
  140.3719   76.6621  223.4471 H   0  0  0  0  0  0  0  0  0  0  0  0
  138.0097   71.5137  223.0631 H   0  0  0  0  0  0  0  0  0  0  0  0
  138.8485   71.5361  221.4657 H   0  0  0  0  0  0  0  0  0  0  0  0
  138.3064   69.1958  222.3063 H   0  0  0  0  0  0  0  0  0  0  0  0
  140.0281   69.4392  221.9953 H   0  0  0  0  0  0  0  0  0  0  0  0
  138.7537   67.4999  223.8753 H   0  0  0  0  0  0  0  0  0  0  0  0
  139.1453   66.9142  226.2380 H   0  0  0  0  0  0  0  0  0  0  0  0
  140.1011   68.6201  227.8122 H   0  0  0  0  0  0  0  0  0  0  0  0
  140.6335   70.8837  226.9400 H   0  0  0  0  0  0  0  0  0  0  0  0
  139.7663   72.5564  225.1096 H   0  0  0  0  0  0  0  0  0  0  0  0
  141.4189   72.0056  224.6800 H   0  0  0  0  0  0  0  0  0  0  0  0
  144.2366   74.4819  219.3255 H   0  0  0  0  0  0  0  0  0  0  0  0
  145.5854   73.4327  219.9471 H   0  0  0  0  0  0  0  0  0  0  0  0
  144.4179   73.6381  217.2773 H   0  0  0  0  0  0  0  0  0  0  0  0
  146.0106   72.9500  217.8705 H   0  0  0  0  0  0  0  0  0  0  0  0
  1  2  1  0
  2  3  1  0
  3  4  1  0
  4  5  1  0
  5  6  1  0
  6  7  1  0
  7  8  2  0
  8  9  1  0
  9 10  1  0
 10 11  1  0
 11 12  1  0
 12 13  1  0
 13 14  2  0
 14 15  1  0
 15 16  2  0
 16 17  1  0
 17 18  2  0
 18 19  1  0
  9 20  2  0
 20 21  1  0
 21 22  1  0
 22 23  1  0
 23 24  1  0
 24 25  1  0
 25 26  2  0
 26 27  1  0
 27 28  2  0
 28 29  1  0
 29 30  2  0
 30 31  1  0
 21 32  2  0
  6 33  1  0
 33 34  1  0
 34 35  1  0
 35  4  1  0
 32  7  1  0
 19 10  1  0
 31 22  1  0
 18 13  1  0
 30 25  1  0
  1 36  1  0
  1 37  1  0
  1 38  1  0
  2 39  1  0
  2 40  1  0
  3 41  1  0
  4 42  1  6
  5 43  1  0
  5 44  1  0
 11 45  1  0
 11 46  1  0
 12 47  1  0
 12 48  1  0
 14 49  1  0
 15 50  1  0
 16 51  1  0
 17 52  1  0
 19 53  1  0
 19 54  1  0
 23 55  1  0
 23 56  1  0
 24 57  1  0
 24 58  1  0
 26 59  1  0
 27 60  1  0
 28 61  1  0
 29 62  1  0
 31 63  1  0
 31 64  1  0
 33 65  1  0
 33 66  1  0
 34 67  1  0
 34 68  1  0
M  END
>  <smiles>  (52) 
CCNC1CN(c2nc(N3CCc4ccccc4C3)nc(N3CCc4ccccc4C3)n2)CCO1

>  <score_type>  (52) 
oracle

>  <origin>  (52) 
autodockgpu

>  <m_score__min__energy>  (52) 
-9.5500000000000007

>  <m_primary>  (52) 
energy

>  <rmsd>  (52) 
9.013356959746858

>  <m_score__min__rmsd>  (52) 
9.013356959746858

>  <meeko>  (52) 
{"free_energy": -8.76, "intermolecular_energy": -10.25, "internal_energy": -1.0, "cluster_size": 45, "cluster_id": 1, "rank_in_cluster": 40}

>  <energy>  (52) 
-9.55

>  <cluster_rmsd>  (52) 
0.08

>  <cluster>  (52) 
1

$$$$

     RDKit          3D

 68 73  0  0  1  0  0  0  0  0999 V2000
  145.2950   74.9230  215.9390 C   0  0  0  0  0  0  0  0  0  0  0  0
  144.7980   74.0700  217.1020 C   0  0  0  0  0  0  0  0  0  0  0  0
  145.9350   73.3910  217.6920 N   0  0  0  0  0  0  0  0  0  0  0  0
  145.8210   73.2180  219.1240 C   0  0  1  0  0  0  0  0  0  0  0  0
  144.5030   73.7890  219.5400 C   0  0  0  0  0  0  0  0  0  0  0  0
  143.5470   72.7500  219.8010 N   0  0  0  0  0  0  0  0  0  0  0  0
  142.4460   72.9700  220.7060 C   0  0  0  0  0  0  0  0  0  0  0  0
  142.0010   71.9880  221.5230 N   0  0  0  0  0  0  0  0  0  0  0  0
  140.9800   72.2210  222.3510 C   0  0  0  0  0  0  0  0  0  0  0  0
  140.4450   71.2470  223.2450 N   0  0  0  0  0  0  0  0  0  0  0  0
  139.3750   70.3580  222.8530 C   0  0  0  0  0  0  0  0  0  0  0  0
  138.3720   70.3510  224.0090 C   0  0  0  0  0  0  0  0  0  0  0  0
  139.0980   69.6410  225.1210 C   0  0  0  0  0  0  0  0  0  0  0  0
  138.4990   68.6300  225.8400 C   0  0  0  0  0  0  0  0  0  0  0  0
  139.1790   67.9950  226.8510 C   0  0  0  0  0  0  0  0  0  0  0  0
  140.4780   68.4070  227.1190 C   0  0  0  0  0  0  0  0  0  0  0  0
  141.0730   69.4290  226.3870 C   0  0  0  0  0  0  0  0  0  0  0  0
  140.3880   70.0780  225.3590 C   0  0  0  0  0  0  0  0  0  0  0  0
  140.9980   71.1590  224.5730 C   0  0  0  0  0  0  0  0  0  0  0  0
  140.4090   73.4570  222.3470 N   0  0  0  0  0  0  0  0  0  0  0  0
  140.8320   74.4370  221.5530 C   0  0  0  0  0  0  0  0  0  0  0  0
  140.2470   75.7440  221.5320 N   0  0  0  0  0  0  0  0  0  0  0  0
  138.8120   75.9170  221.4590 C   0  0  0  0  0  0  0  0  0  0  0  0
  138.2940   76.6550  222.6950 C   0  0  0  0  0  0  0  0  0  0  0  0
  139.1020   77.9000  222.7750 C   0  0  0  0  0  0  0  0  0  0  0  0
  138.5220   78.9840  223.3930 C   0  0  0  0  0  0  0  0  0  0  0  0
  139.1890   80.1830  223.5170 C   0  0  0  0  0  0  0  0  0  0  0  0
  140.4830   80.3190  223.0110 C   0  0  0  0  0  0  0  0  0  0  0  0
  141.0590   79.2260  222.3930 C   0  0  0  0  0  0  0  0  0  0  0  0
  140.3770   78.0150  222.2700 C   0  0  0  0  0  0  0  0  0  0  0  0
  141.0990   76.9150  221.5860 C   0  0  0  0  0  0  0  0  0  0  0  0
  141.8630   74.1740  220.7280 N   0  0  0  0  0  0  0  0  0  0  0  0
  143.7160   71.4810  219.1350 C   0  0  0  0  0  0  0  0  0  0  0  0
  145.1450   70.9930  219.1790 C   0  0  0  0  0  0  0  0  0  0  0  0
  146.0520   71.9430  219.5470 O   0  0  0  0  0  0  0  0  0  0  0  0
  145.8125   75.8112  216.3306 H   0  0  0  0  0  0  0  0  0  0  0  0
  145.9915   74.3343  215.3239 H   0  0  0  0  0  0  0  0  0  0  0  0
  144.4394   75.2386  215.3239 H   0  0  0  0  0  0  0  0  0  0  0  0
  144.3176   74.7123  217.8548 H   0  0  0  0  0  0  0  0  0  0  0  0
  144.0635   73.3339  216.7432 H   0  0  0  0  0  0  0  0  0  0  0  0
  146.2080   72.5430  217.1940 H   0  0  0  0  0  0  0  0  0  0  0  0
  146.6251   73.7692  219.6335 H   0  0  0  0  0  0  0  0  0  0  0  0
  144.6426   74.3860  220.4533 H   0  0  0  0  0  0  0  0  0  0  0  0
  144.1210   74.4167  218.7214 H   0  0  0  0  0  0  0  0  0  0  0  0
  138.8937   70.7243  221.9342 H   0  0  0  0  0  0  0  0  0  0  0  0
  139.7533   69.3457  222.6478 H   0  0  0  0  0  0  0  0  0  0  0  0
  138.1112   71.3776  224.3059 H   0  0  0  0  0  0  0  0  0  0  0  0
  137.4243   69.8602  223.7427 H   0  0  0  0  0  0  0  0  0  0  0  0
  137.4680   68.3287  225.6028 H   0  0  0  0  0  0  0  0  0  0  0  0
  138.7095   67.1860  227.4298 H   0  0  0  0  0  0  0  0  0  0  0  0
  141.0457   67.9168  227.9236 H   0  0  0  0  0  0  0  0  0  0  0  0
  142.1039   69.7317  226.6231 H   0  0  0  0  0  0  0  0  0  0  0  0
  140.8269   72.1138  225.0917 H   0  0  0  0  0  0  0  0  0  0  0  0
  142.0720   70.9415  224.4772 H   0  0  0  0  0  0  0  0  0  0  0  0
  138.5636   76.4997  220.5597 H   0  0  0  0  0  0  0  0  0  0  0  0
  138.3376   74.9256  221.4137 H   0  0  0  0  0  0  0  0  0  0  0  0
  137.2265   76.8950  222.5814 H   0  0  0  0  0  0  0  0  0  0  0  0
  138.3878   76.0457  223.6060 H   0  0  0  0  0  0  0  0  0  0  0  0
  137.5031   78.8911  223.7970 H   0  0  0  0  0  0  0  0  0  0  0  0
  138.7015   81.0340  224.0152 H   0  0  0  0  0  0  0  0  0  0  0  0
  141.0286   81.2698  223.1019 H   0  0  0  0  0  0  0  0  0  0  0  0
  142.0784   79.3123  221.9887 H   0  0  0  0  0  0  0  0  0  0  0  0
  141.3605   77.2267  220.5640 H   0  0  0  0  0  0  0  0  0  0  0  0
  142.0184   76.6766  222.1408 H   0  0  0  0  0  0  0  0  0  0  0  0
  143.0730   70.7359  219.6263 H   0  0  0  0  0  0  0  0  0  0  0  0
  143.4407   71.6174  218.0788 H   0  0  0  0  0  0  0  0  0  0  0  0
  145.2037   70.1636  219.8991 H   0  0  0  0  0  0  0  0  0  0  0  0
  145.4056   70.6892  218.1544 H   0  0  0  0  0  0  0  0  0  0  0  0
  1  2  1  0
  2  3  1  0
  3  4  1  0
  4  5  1  0
  5  6  1  0
  6  7  1  0
  7  8  2  0
  8  9  1  0
  9 10  1  0
 10 11  1  0
 11 12  1  0
 12 13  1  0
 13 14  2  0
 14 15  1  0
 15 16  2  0
 16 17  1  0
 17 18  2  0
 18 19  1  0
  9 20  2  0
 20 21  1  0
 21 22  1  0
 22 23  1  0
 23 24  1  0
 24 25  1  0
 25 26  2  0
 26 27  1  0
 27 28  2  0
 28 29  1  0
 29 30  2  0
 30 31  1  0
 21 32  2  0
  6 33  1  0
 33 34  1  0
 34 35  1  0
 35  4  1  0
 32  7  1  0
 19 10  1  0
 31 22  1  0
 18 13  1  0
 30 25  1  0
  1 36  1  0
  1 37  1  0
  1 38  1  0
  2 39  1  0
  2 40  1  0
  3 41  1  0
  4 42  1  1
  5 43  1  0
  5 44  1  0
 11 45  1  0
 11 46  1  0
 12 47  1  0
 12 48  1  0
 14 49  1  0
 15 50  1  0
 16 51  1  0
 17 52  1  0
 19 53  1  0
 19 54  1  0
 23 55  1  0
 23 56  1  0
 24 57  1  0
 24 58  1  0
 26 59  1  0
 27 60  1  0
 28 61  1  0
 29 62  1  0
 31 63  1  0
 31 64  1  0
 33 65  1  0
 33 66  1  0
 34 67  1  0
 34 68  1  0
M  END
>  <smiles>  (53) 
CCNC1CN(c2nc(N3CCc4ccccc4C3)nc(N3CCc4ccccc4C3)n2)CCO1

>  <score_type>  (53) 
oracle

>  <origin>  (53) 
autodockgpu

>  <m_score__min__energy>  (53) 
-9.5500000000000007

>  <m_primary>  (53) 
energy

>  <rmsd>  (53) 
7.171142690703885

>  <m_score__min__rmsd>  (53) 
7.171142690703885

>  <meeko>  (53) 
{"free_energy": -9.24, "intermolecular_energy": -10.73, "internal_energy": -1.02, "cluster_size": 45, "cluster_id": 1, "rank_in_cluster": 15}

>  <energy>  (53) 
-9.51

>  <cluster_rmsd>  (53) 
0.3

>  <cluster>  (53) 
1

$$$$

     RDKit          3D

 68 73  0  0  1  0  0  0  0  0999 V2000
  145.9480   67.5860  219.4430 C   0  0  0  0  0  0  0  0  0  0  0  0
  145.9650   68.3930  218.1480 C   0  0  0  0  0  0  0  0  0  0  0  0
  144.9660   69.4390  218.2460 N   0  0  0  0  0  0  0  0  0  0  0  0
  143.9690   69.1880  219.2630 C   0  0  1  0  0  0  0  0  0  0  0  0
  143.7940   70.4540  220.0400 C   0  0  0  0  0  0  0  0  0  0  0  0
  142.5830   71.1280  219.6680 N   0  0  0  0  0  0  0  0  0  0  0  0
  141.9170   72.0130  220.5930 C   0  0  0  0  0  0  0  0  0  0  0  0
  141.8840   73.3490  220.3860 N   0  0  0  0  0  0  0  0  0  0  0  0
  141.2600   74.1450  221.2590 C   0  0  0  0  0  0  0  0  0  0  0  0
  141.1760   75.5610  221.1220 N   0  0  0  0  0  0  0  0  0  0  0  0
  141.2290   76.2060  219.8300 C   0  0  0  0  0  0  0  0  0  0  0  0
  142.1870   77.3920  219.9770 C   0  0  0  0  0  0  0  0  0  0  0  0
  141.4520   78.3500  220.8760 C   0  0  0  0  0  0  0  0  0  0  0  0
  141.3470   79.6880  220.5670 C   0  0  0  0  0  0  0  0  0  0  0  0
  140.6710   80.5460  221.4010 C   0  0  0  0  0  0  0  0  0  0  0  0
  140.1060   80.0200  222.5550 C   0  0  0  0  0  0  0  0  0  0  0  0
  140.2180   78.6670  222.8570 C   0  0  0  0  0  0  0  0  0  0  0  0
  140.9020   77.7900  222.0150 C   0  0  0  0  0  0  0  0  0  0  0  0
  141.0330   76.3570  222.3150 C   0  0  0  0  0  0  0  0  0  0  0  0
  140.6680   73.5770  222.3460 N   0  0  0  0  0  0  0  0  0  0  0  0
  140.6880   72.2650  222.5680 C   0  0  0  0  0  0  0  0  0  0  0  0
  140.0720   71.6480  223.7040 N   0  0  0  0  0  0  0  0  0  0  0  0
  138.8950   70.8190  223.5540 C   0  0  0  0  0  0  0  0  0  0  0  0
  139.1780   69.3910  224.0250 C   0  0  0  0  0  0  0  0  0  0  0  0
  139.7100   69.5320  225.4050 C   0  0  0  0  0  0  0  0  0  0  0  0
  139.5210   68.4710  226.2610 C   0  0  0  0  0  0  0  0  0  0  0  0
  139.9760   68.5050  227.5600 C   0  0  0  0  0  0  0  0  0  0  0  0
  140.6490   69.6320  228.0370 C   0  0  0  0  0  0  0  0  0  0  0  0
  140.8350   70.6930  227.1720 C   0  0  0  0  0  0  0  0  0  0  0  0
  140.3700   70.6530  225.8570 C   0  0  0  0  0  0  0  0  0  0  0  0
  140.6310   71.8530  225.0250 C   0  0  0  0  0  0  0  0  0  0  0  0
  141.3240   71.4890  221.6710 N   0  0  0  0  0  0  0  0  0  0  0  0
  142.0480   70.8990  218.3480 C   0  0  0  0  0  0  0  0  0  0  0  0
  142.0490   69.4360  217.9720 C   0  0  0  0  0  0  0  0  0  0  0  0
  142.8120   68.6480  218.7830 O   0  0  0  0  0  0  0  0  0  0  0  0
  145.9624   68.2720  220.3027 H   0  0  0  0  0  0  0  0  0  0  0  0
  145.0367   66.9710  219.4799 H   0  0  0  0  0  0  0  0  0  0  0  0
  146.8326   66.9332  219.4799 H   0  0  0  0  0  0  0  0  0  0  0  0
  146.9590   68.8413  218.0029 H   0  0  0  0  0  0  0  0  0  0  0  0
  145.7432   67.7382  217.2924 H   0  0  0  0  0  0  0  0  0  0  0  0
  145.3610   70.3800  218.2780 H   0  0  0  0  0  0  0  0  0  0  0  0
  144.3187   68.3966  219.9422 H   0  0  0  0  0  0  0  0  0  0  0  0
  143.7561   70.2142  221.1129 H   0  0  0  0  0  0  0  0  0  0  0  0
  144.6434   71.1176  219.8206 H   0  0  0  0  0  0  0  0  0  0  0  0
  141.6052   75.5052  219.0702 H   0  0  0  0  0  0  0  0  0  0  0  0
  140.2306   76.5376  219.5089 H   0  0  0  0  0  0  0  0  0  0  0  0
  143.1342   77.0739  220.4369 H   0  0  0  0  0  0  0  0  0  0  0  0
  142.4529   77.8418  219.0090 H   0  0  0  0  0  0  0  0  0  0  0  0
  141.8079   80.0730  219.6454 H   0  0  0  0  0  0  0  0  0  0  0  0
  140.5804   81.6158  221.1618 H   0  0  0  0  0  0  0  0  0  0  0  0
  139.5608   80.6842  223.2417 H   0  0  0  0  0  0  0  0  0  0  0  0
  139.7579   78.2807  223.7784 H   0  0  0  0  0  0  0  0  0  0  0  0
  141.9196   76.2075  222.9488 H   0  0  0  0  0  0  0  0  0  0  0  0
  140.1148   76.0344  222.8277 H   0  0  0  0  0  0  0  0  0  0  0  0
  138.0761   71.2420  224.1544 H   0  0  0  0  0  0  0  0  0  0  0  0
  138.6133   70.7924  222.4910 H   0  0  0  0  0  0  0  0  0  0  0  0
  138.2531   68.7956  224.0275 H   0  0  0  0  0  0  0  0  0  0  0  0
  139.8876   68.8735  223.3626 H   0  0  0  0  0  0  0  0  0  0  0  0
  138.9945   67.5756  225.8991 H   0  0  0  0  0  0  0  0  0  0  0  0
  139.8092   67.6433  228.2231 H   0  0  0  0  0  0  0  0  0  0  0  0
  141.0203   69.6736  229.0716 H   0  0  0  0  0  0  0  0  0  0  0  0
  141.3621   71.5904  227.5282 H   0  0  0  0  0  0  0  0  0  0  0  0
  140.1620   72.7324  225.4905 H   0  0  0  0  0  0  0  0  0  0  0  0
  141.7155   72.0187  224.9456 H   0  0  0  0  0  0  0  0  0  0  0  0
  141.0133   71.2710  218.3168 H   0  0  0  0  0  0  0  0  0  0  0  0
  142.6893   71.4304  217.6294 H   0  0  0  0  0  0  0  0  0  0  0  0
  141.0126   69.0695  218.0117 H   0  0  0  0  0  0  0  0  0  0  0  0
  142.4879   69.3700  216.9655 H   0  0  0  0  0  0  0  0  0  0  0  0
  1  2  1  0
  2  3  1  0
  3  4  1  0
  4  5  1  0
  5  6  1  0
  6  7  1  0
  7  8  2  0
  8  9  1  0
  9 10  1  0
 10 11  1  0
 11 12  1  0
 12 13  1  0
 13 14  2  0
 14 15  1  0
 15 16  2  0
 16 17  1  0
 17 18  2  0
 18 19  1  0
  9 20  2  0
 20 21  1  0
 21 22  1  0
 22 23  1  0
 23 24  1  0
 24 25  1  0
 25 26  2  0
 26 27  1  0
 27 28  2  0
 28 29  1  0
 29 30  2  0
 30 31  1  0
 21 32  2  0
  6 33  1  0
 33 34  1  0
 34 35  1  0
 35  4  1  0
 32  7  1  0
 19 10  1  0
 31 22  1  0
 18 13  1  0
 30 25  1  0
  1 36  1  0
  1 37  1  0
  1 38  1  0
  2 39  1  0
  2 40  1  0
  3 41  1  0
  4 42  1  1
  5 43  1  0
  5 44  1  0
 11 45  1  0
 11 46  1  0
 12 47  1  0
 12 48  1  0
 14 49  1  0
 15 50  1  0
 16 51  1  0
 17 52  1  0
 19 53  1  0
 19 54  1  0
 23 55  1  0
 23 56  1  0
 24 57  1  0
 24 58  1  0
 26 59  1  0
 27 60  1  0
 28 61  1  0
 29 62  1  0
 31 63  1  0
 31 64  1  0
 33 65  1  0
 33 66  1  0
 34 67  1  0
 34 68  1  0
M  END
>  <smiles>  (54) 
CCNC1CN(c2nc(N3CCc4ccccc4C3)nc(N3CCc4ccccc4C3)n2)CCO1

>  <score_type>  (54) 
oracle

>  <origin>  (54) 
autodockgpu

>  <m_score__min__energy>  (54) 
-9.5500000000000007

>  <m_primary>  (54) 
energy

>  <rmsd>  (54) 
9.450751176023632

>  <m_score__min__rmsd>  (54) 
9.450751176023632

>  <meeko>  (54) 
{"free_energy": -8.54, "intermolecular_energy": -10.03, "internal_energy": -1.01, "cluster_size": 1, "cluster_id": 4, "rank_in_cluster": 1}

>  <energy>  (54) 
-9.48

>  <cluster_rmsd>  (54) 
0.61

>  <cluster>  (54) 
1

$$$$

     RDKit          3D

 68 73  0  0  1  0  0  0  0  0999 V2000
  147.7210   74.3620  216.2800 C   0  0  0  0  0  0  0  0  0  0  0  0
  146.6810   73.2600  216.4580 C   0  0  0  0  0  0  0  0  0  0  0  0
  145.5530   73.8080  217.1850 N   0  0  0  0  0  0  0  0  0  0  0  0
  145.4830   73.3630  218.5590 C   0  0  1  0  0  0  0  0  0  0  0  0
  144.3200   74.0560  219.1960 C   0  0  0  0  0  0  0  0  0  0  0  0
  143.2000   73.1690  219.3320 N   0  0  0  0  0  0  0  0  0  0  0  0
  142.2090   73.3850  220.3580 C   0  0  0  0  0  0  0  0  0  0  0  0
  141.8290   72.3870  221.1890 N   0  0  0  0  0  0  0  0  0  0  0  0
  140.9090   72.6160  222.1300 C   0  0  0  0  0  0  0  0  0  0  0  0
  140.4490   71.6260  223.0470 N   0  0  0  0  0  0  0  0  0  0  0  0
  139.7540   70.4400  222.6020 C   0  0  0  0  0  0  0  0  0  0  0  0
  138.5500   70.2680  223.5320 C   0  0  0  0  0  0  0  0  0  0  0  0
  139.1600   69.9050  224.8600 C   0  0  0  0  0  0  0  0  0  0  0  0
  138.6880   68.8440  225.6010 C   0  0  0  0  0  0  0  0  0  0  0  0
  139.2590   68.5280  226.8100 C   0  0  0  0  0  0  0  0  0  0  0  0
  140.3170   69.3100  227.2530 C   0  0  0  0  0  0  0  0  0  0  0  0
  140.7860   70.3790  226.4960 C   0  0  0  0  0  0  0  0  0  0  0  0
  140.2110   70.7050  225.2680 C   0  0  0  0  0  0  0  0  0  0  0  0
  140.6910   71.8300  224.4530 C   0  0  0  0  0  0  0  0  0  0  0  0
  140.3750   73.8650  222.2250 N   0  0  0  0  0  0  0  0  0  0  0  0
  140.7350   74.8600  221.4190 C   0  0  0  0  0  0  0  0  0  0  0  0
  140.1860   76.1810  221.5020 N   0  0  0  0  0  0  0  0  0  0  0  0
  138.7570   76.3980  221.4440 C   0  0  0  0  0  0  0  0  0  0  0  0
  138.2590   77.0520  222.7350 C   0  0  0  0  0  0  0  0  0  0  0  0
  139.1000   78.2630  222.9110 C   0  0  0  0  0  0  0  0  0  0  0  0
  138.5500   79.3120  223.6120 C   0  0  0  0  0  0  0  0  0  0  0  0
  139.2500   80.4790  223.8280 C   0  0  0  0  0  0  0  0  0  0  0  0
  140.5480   80.6180  223.3320 C   0  0  0  0  0  0  0  0  0  0  0  0
  141.0930   79.5620  222.6290 C   0  0  0  0  0  0  0  0  0  0  0  0
  140.3790   78.3830  222.4140 C   0  0  0  0  0  0  0  0  0  0  0  0
  141.0710   77.3200  221.6450 C   0  0  0  0  0  0  0  0  0  0  0  0
  141.6640   74.6010  220.4800 N   0  0  0  0  0  0  0  0  0  0  0  0
  143.0900   72.0570  218.4200 C   0  0  0  0  0  0  0  0  0  0  0  0
  144.4010   71.3280  218.2390 C   0  0  0  0  0  0  0  0  0  0  0  0
  145.4900   72.0070  218.7030 O   0  0  0  0  0  0  0  0  0  0  0  0
  148.0540   74.7148  217.2672 H   0  0  0  0  0  0  0  0  0  0  0  0
  148.5826   73.9664  215.7222 H   0  0  0  0  0  0  0  0  0  0  0  0
  147.2762   75.1993  215.7222 H   0  0  0  0  0  0  0  0  0  0  0  0
  146.3487   72.9003  215.4730 H   0  0  0  0  0  0  0  0  0  0  0  0
  147.1156   72.4167  217.0148 H   0  0  0  0  0  0  0  0  0  0  0  0
  145.4440   74.8170  217.0720 H   0  0  0  0  0  0  0  0  0  0  0  0
  146.4028   73.6470  219.0913 H   0  0  0  0  0  0  0  0  0  0  0  0
  144.6174   74.4143  220.1926 H   0  0  0  0  0  0  0  0  0  0  0  0
  144.0220   74.8986  218.5547 H   0  0  0  0  0  0  0  0  0  0  0  0
  139.4166   70.5646  221.5625 H   0  0  0  0  0  0  0  0  0  0  0  0
  140.4108   69.5582  222.6338 H   0  0  0  0  0  0  0  0  0  0  0  0
  137.9784   71.2047  223.6079 H   0  0  0  0  0  0  0  0  0  0  0  0
  137.8428   69.5070  223.1704 H   0  0  0  0  0  0  0  0  0  0  0  0
  137.8471   68.2449  225.2216 H   0  0  0  0  0  0  0  0  0  0  0  0
  138.8895   67.6820  227.4081 H   0  0  0  0  0  0  0  0  0  0  0  0
  140.7923   69.0808  228.2182 H   0  0  0  0  0  0  0  0  0  0  0  0
  141.6271   70.9790  226.8736 H   0  0  0  0  0  0  0  0  0  0  0  0
  140.1720   72.7457  224.7726 H   0  0  0  0  0  0  0  0  0  0  0  0
  141.7779   71.9138  224.5999 H   0  0  0  0  0  0  0  0  0  0  0  0
  138.5254   77.0554  220.5930 H   0  0  0  0  0  0  0  0  0  0  0  0
  138.2553   75.4267  221.3219 H   0  0  0  0  0  0  0  0  0  0  0  0
  137.1987   77.3296  222.6420 H   0  0  0  0  0  0  0  0  0  0  0  0
  138.3357   76.3711  223.5955 H   0  0  0  0  0  0  0  0  0  0  0  0
  137.5285   79.2166  224.0088 H   0  0  0  0  0  0  0  0  0  0  0  0
  138.7860   81.3018  224.3916 H   0  0  0  0  0  0  0  0  0  0  0  0
  141.1202   81.5429  223.4968 H   0  0  0  0  0  0  0  0  0  0  0  0
  142.1138   79.6524  222.2292 H   0  0  0  0  0  0  0  0  0  0  0  0
  141.3414   77.7028  220.6499 H   0  0  0  0  0  0  0  0  0  0  0  0
  141.9836   77.0139  222.1774 H   0  0  0  0  0  0  0  0  0  0  0  0
  142.3443   71.3503  218.8131 H   0  0  0  0  0  0  0  0  0  0  0  0
  142.7902   72.4559  217.4397 H   0  0  0  0  0  0  0  0  0  0  0  0
  144.3389   70.3693  218.7747 H   0  0  0  0  0  0  0  0  0  0  0  0
  144.5454   71.2039  217.1556 H   0  0  0  0  0  0  0  0  0  0  0  0
  1  2  1  0
  2  3  1  0
  3  4  1  0
  4  5  1  0
  5  6  1  0
  6  7  1  0
  7  8  2  0
  8  9  1  0
  9 10  1  0
 10 11  1  0
 11 12  1  0
 12 13  1  0
 13 14  2  0
 14 15  1  0
 15 16  2  0
 16 17  1  0
 17 18  2  0
 18 19  1  0
  9 20  2  0
 20 21  1  0
 21 22  1  0
 22 23  1  0
 23 24  1  0
 24 25  1  0
 25 26  2  0
 26 27  1  0
 27 28  2  0
 28 29  1  0
 29 30  2  0
 30 31  1  0
 21 32  2  0
  6 33  1  0
 33 34  1  0
 34 35  1  0
 35  4  1  0
 32  7  1  0
 19 10  1  0
 31 22  1  0
 18 13  1  0
 30 25  1  0
  1 36  1  0
  1 37  1  0
  1 38  1  0
  2 39  1  0
  2 40  1  0
  3 41  1  0
  4 42  1  1
  5 43  1  0
  5 44  1  0
 11 45  1  0
 11 46  1  0
 12 47  1  0
 12 48  1  0
 14 49  1  0
 15 50  1  0
 16 51  1  0
 17 52  1  0
 19 53  1  0
 19 54  1  0
 23 55  1  0
 23 56  1  0
 24 57  1  0
 24 58  1  0
 26 59  1  0
 27 60  1  0
 28 61  1  0
 29 62  1  0
 31 63  1  0
 31 64  1  0
 33 65  1  0
 33 66  1  0
 34 67  1  0
 34 68  1  0
M  END
>  <smiles>  (55) 
CCNC1CN(c2nc(N3CCc4ccccc4C3)nc(N3CCc4ccccc4C3)n2)CCO1

>  <score_type>  (55) 
oracle

>  <origin>  (55) 
autodockgpu

>  <m_score__min__energy>  (55) 
-9.5500000000000007

>  <m_primary>  (55) 
energy

>  <rmsd>  (55) 
7.459707487846787

>  <m_score__min__rmsd>  (55) 
7.459707487846787

>  <meeko>  (55) 
{"free_energy": -9.21, "intermolecular_energy": -10.7, "internal_energy": -0.96, "cluster_size": 45, "cluster_id": 1, "rank_in_cluster": 17}

>  <energy>  (55) 
-9.47

>  <cluster_rmsd>  (55) 
0.51

>  <cluster>  (55) 
1

$$$$

     RDKit          3D

 68 73  0  0  1  0  0  0  0  0999 V2000
  146.8310   73.2490  215.2970 C   0  0  0  0  0  0  0  0  0  0  0  0
  146.9470   73.7670  216.7280 C   0  0  0  0  0  0  0  0  0  0  0  0
  145.6140   73.8770  217.2850 N   0  0  0  0  0  0  0  0  0  0  0  0
  145.5180   73.3940  218.6450 C   0  0  1  0  0  0  0  0  0  0  0  0
  144.3610   74.0940  219.2870 C   0  0  0  0  0  0  0  0  0  0  0  0
  143.2210   73.2270  219.3840 N   0  0  0  0  0  0  0  0  0  0  0  0
  142.2210   73.4350  220.4030 C   0  0  0  0  0  0  0  0  0  0  0  0
  141.8400   72.4320  221.2280 N   0  0  0  0  0  0  0  0  0  0  0  0
  140.9130   72.6530  222.1630 C   0  0  0  0  0  0  0  0  0  0  0  0
  140.4500   71.6580  223.0730 N   0  0  0  0  0  0  0  0  0  0  0  0
  139.7420   70.4830  222.6210 C   0  0  0  0  0  0  0  0  0  0  0  0
  138.5430   70.3120  223.5590 C   0  0  0  0  0  0  0  0  0  0  0  0
  139.1610   69.9290  224.8780 C   0  0  0  0  0  0  0  0  0  0  0  0
  138.6840   68.8640  225.6110 C   0  0  0  0  0  0  0  0  0  0  0  0
  139.2620   68.5300  226.8130 C   0  0  0  0  0  0  0  0  0  0  0  0
  140.3300   69.2980  227.2560 C   0  0  0  0  0  0  0  0  0  0  0  0
  140.8040   70.3710  226.5070 C   0  0  0  0  0  0  0  0  0  0  0  0
  140.2220   70.7150  225.2860 C   0  0  0  0  0  0  0  0  0  0  0  0
  140.7050   71.8440  224.4790 C   0  0  0  0  0  0  0  0  0  0  0  0
  140.3720   73.8990  222.2590 N   0  0  0  0  0  0  0  0  0  0  0  0
  140.7320   74.8990  221.4590 C   0  0  0  0  0  0  0  0  0  0  0  0
  140.1760   76.2160  221.5420 N   0  0  0  0  0  0  0  0  0  0  0  0
  138.7450   76.4260  221.4880 C   0  0  0  0  0  0  0  0  0  0  0  0
  138.2470   77.0770  222.7800 C   0  0  0  0  0  0  0  0  0  0  0  0
  139.0820   78.2940  222.9520 C   0  0  0  0  0  0  0  0  0  0  0  0
  138.5280   79.3400  223.6540 C   0  0  0  0  0  0  0  0  0  0  0  0
  139.2210   80.5100  223.8680 C   0  0  0  0  0  0  0  0  0  0  0  0
  140.5170   80.6570  223.3690 C   0  0  0  0  0  0  0  0  0  0  0  0
  141.0670   79.6030  222.6650 C   0  0  0  0  0  0  0  0  0  0  0  0
  140.3590   78.4200  222.4520 C   0  0  0  0  0  0  0  0  0  0  0  0
  141.0550   77.3600  221.6820 C   0  0  0  0  0  0  0  0  0  0  0  0
  141.6690   74.6470  220.5260 N   0  0  0  0  0  0  0  0  0  0  0  0
  143.1000   72.1440  218.4380 C   0  0  0  0  0  0  0  0  0  0  0  0
  144.3970   71.3940  218.2530 C   0  0  0  0  0  0  0  0  0  0  0  0
  145.4940   72.0360  218.7500 O   0  0  0  0  0  0  0  0  0  0  0  0
  146.5906   72.1757  215.3139 H   0  0  0  0  0  0  0  0  0  0  0  0
  146.0329   73.7953  214.7729 H   0  0  0  0  0  0  0  0  0  0  0  0
  147.7858   73.4027  214.7729 H   0  0  0  0  0  0  0  0  0  0  0  0
  147.5441   73.0658  217.3295 H   0  0  0  0  0  0  0  0  0  0  0  0
  147.4413   74.7496  216.7349 H   0  0  0  0  0  0  0  0  0  0  0  0
  145.1850   74.7930  217.1410 H   0  0  0  0  0  0  0  0  0  0  0  0
  146.4371   73.6419  219.1962 H   0  0  0  0  0  0  0  0  0  0  0  0
  144.6527   74.4181  220.2969 H   0  0  0  0  0  0  0  0  0  0  0  0
  144.0889   74.9604  218.6662 H   0  0  0  0  0  0  0  0  0  0  0  0
  139.3980   70.6212  221.5854 H   0  0  0  0  0  0  0  0  0  0  0  0
  140.3913   69.5953  222.6384 H   0  0  0  0  0  0  0  0  0  0  0  0
  137.9807   71.2531  223.6497 H   0  0  0  0  0  0  0  0  0  0  0  0
  137.8255   69.5619  223.1950 H   0  0  0  0  0  0  0  0  0  0  0  0
  137.8347   68.2768  225.2317 H   0  0  0  0  0  0  0  0  0  0  0  0
  138.8897   67.6809  227.4050 H   0  0  0  0  0  0  0  0  0  0  0  0
  140.8099   69.0544  228.2154 H   0  0  0  0  0  0  0  0  0  0  0  0
  141.6535   70.9591  226.8845 H   0  0  0  0  0  0  0  0  0  0  0  0
  140.1968   72.7607  224.8127 H   0  0  0  0  0  0  0  0  0  0  0  0
  141.7939   71.9161  224.6176 H   0  0  0  0  0  0  0  0  0  0  0  0
  138.5078   77.0824  220.6378 H   0  0  0  0  0  0  0  0  0  0  0  0
  138.2480   75.4521  221.3672 H   0  0  0  0  0  0  0  0  0  0  0  0
  137.1847   77.3479  222.6905 H   0  0  0  0  0  0  0  0  0  0  0  0
  138.3302   76.3971  223.6407 H   0  0  0  0  0  0  0  0  0  0  0  0
  137.5080   79.2388  224.0533 H   0  0  0  0  0  0  0  0  0  0  0  0
  138.7534   81.3301  224.4327 H   0  0  0  0  0  0  0  0  0  0  0  0
  141.0839   81.5855  223.5318 H   0  0  0  0  0  0  0  0  0  0  0  0
  142.0865   79.6989  222.2633 H   0  0  0  0  0  0  0  0  0  0  0  0
  141.3209   77.7435  220.6859 H   0  0  0  0  0  0  0  0  0  0  0  0
  141.9705   77.0593  222.2124 H   0  0  0  0  0  0  0  0  0  0  0  0
  142.3346   71.4420  218.8006 H   0  0  0  0  0  0  0  0  0  0  0  0
  142.8215   72.5772  217.4660 H   0  0  0  0  0  0  0  0  0  0  0  0
  144.3079   70.4219  218.7600 H   0  0  0  0  0  0  0  0  0  0  0  0
  144.5531   71.2984  217.1683 H   0  0  0  0  0  0  0  0  0  0  0  0
  1  2  1  0
  2  3  1  0
  3  4  1  0
  4  5  1  0
  5  6  1  0
  6  7  1  0
  7  8  2  0
  8  9  1  0
  9 10  1  0
 10 11  1  0
 11 12  1  0
 12 13  1  0
 13 14  2  0
 14 15  1  0
 15 16  2  0
 16 17  1  0
 17 18  2  0
 18 19  1  0
  9 20  2  0
 20 21  1  0
 21 22  1  0
 22 23  1  0
 23 24  1  0
 24 25  1  0
 25 26  2  0
 26 27  1  0
 27 28  2  0
 28 29  1  0
 29 30  2  0
 30 31  1  0
 21 32  2  0
  6 33  1  0
 33 34  1  0
 34 35  1  0
 35  4  1  0
 32  7  1  0
 19 10  1  0
 31 22  1  0
 18 13  1  0
 30 25  1  0
  1 36  1  0
  1 37  1  0
  1 38  1  0
  2 39  1  0
  2 40  1  0
  3 41  1  0
  4 42  1  1
  5 43  1  0
  5 44  1  0
 11 45  1  0
 11 46  1  0
 12 47  1  0
 12 48  1  0
 14 49  1  0
 15 50  1  0
 16 51  1  0
 17 52  1  0
 19 53  1  0
 19 54  1  0
 23 55  1  0
 23 56  1  0
 24 57  1  0
 24 58  1  0
 26 59  1  0
 27 60  1  0
 28 61  1  0
 29 62  1  0
 31 63  1  0
 31 64  1  0
 33 65  1  0
 33 66  1  0
 34 67  1  0
 34 68  1  0
M  END
>  <smiles>  (56) 
CCNC1CN(c2nc(N3CCc4ccccc4C3)nc(N3CCc4ccccc4C3)n2)CCO1

>  <score_type>  (56) 
oracle

>  <origin>  (56) 
autodockgpu

>  <m_score__min__energy>  (56) 
-9.5500000000000007

>  <m_primary>  (56) 
energy

>  <rmsd>  (56) 
7.753667683622915

>  <m_score__min__rmsd>  (56) 
7.753667683622915

>  <meeko>  (56) 
{"free_energy": -9.04, "intermolecular_energy": -10.53, "internal_energy": -0.98, "cluster_size": 45, "cluster_id": 1, "rank_in_cluster": 34}

>  <energy>  (56) 
-9.43

>  <cluster_rmsd>  (56) 
0.53

>  <cluster>  (56) 
1

$$$$

     RDKit          3D

 68 73  0  0  1  0  0  0  0  0999 V2000
  145.1540   75.1920  215.8230 C   0  0  0  0  0  0  0  0  0  0  0  0
  146.0570   74.0210  216.1990 C   0  0  0  0  0  0  0  0  0  0  0  0
  145.2950   73.0970  217.0140 N   0  0  0  0  0  0  0  0  0  0  0  0
  145.3700   73.3810  218.4300 C   0  0  1  0  0  0  0  0  0  0  0  0
  143.9940   73.7510  218.8850 C   0  0  0  0  0  0  0  0  0  0  0  0
  143.3780   72.6700  219.6020 N   0  0  0  0  0  0  0  0  0  0  0  0
  142.3500   72.9260  220.5810 C   0  0  0  0  0  0  0  0  0  0  0  0
  141.9650   71.9730  221.4600 N   0  0  0  0  0  0  0  0  0  0  0  0
  141.0110   72.2370  222.3570 C   0  0  0  0  0  0  0  0  0  0  0  0
  140.5420   71.2950  223.3190 N   0  0  0  0  0  0  0  0  0  0  0  0
  139.6100   70.2490  222.9690 C   0  0  0  0  0  0  0  0  0  0  0  0
  138.5470   70.2290  224.0710 C   0  0  0  0  0  0  0  0  0  0  0  0
  139.2840   69.7230  225.2830 C   0  0  0  0  0  0  0  0  0  0  0  0
  138.7660   68.7200  226.0720 C   0  0  0  0  0  0  0  0  0  0  0  0
  139.4550   68.2720  227.1740 C   0  0  0  0  0  0  0  0  0  0  0  0
  140.6780   68.8640  227.4600 C   0  0  0  0  0  0  0  0  0  0  0  0
  141.1920   69.8760  226.6560 C   0  0  0  0  0  0  0  0  0  0  0  0
  140.4980   70.3350  225.5360 C   0  0  0  0  0  0  0  0  0  0  0  0
  141.0220   71.4040  224.6740 C   0  0  0  0  0  0  0  0  0  0  0  0
  140.4480   73.4770  222.3580 N   0  0  0  0  0  0  0  0  0  0  0  0
  140.8120   74.4290  221.5030 C   0  0  0  0  0  0  0  0  0  0  0  0
  140.2330   75.7390  221.4870 N   0  0  0  0  0  0  0  0  0  0  0  0
  138.7970   75.9190  221.4480 C   0  0  0  0  0  0  0  0  0  0  0  0
  138.3140   76.6690  222.6900 C   0  0  0  0  0  0  0  0  0  0  0  0
  139.1290   77.9100  222.7400 C   0  0  0  0  0  0  0  0  0  0  0  0
  138.5700   79.0020  223.3640 C   0  0  0  0  0  0  0  0  0  0  0  0
  139.2450   80.1990  223.4610 C   0  0  0  0  0  0  0  0  0  0  0  0
  140.5270   80.3240  222.9230 C   0  0  0  0  0  0  0  0  0  0  0  0
  141.0820   79.2240  222.2990 C   0  0  0  0  0  0  0  0  0  0  0  0
  140.3920   78.0150  222.2020 C   0  0  0  0  0  0  0  0  0  0  0  0
  141.0920   76.9060  221.5100 C   0  0  0  0  0  0  0  0  0  0  0  0
  141.7760   74.1340  220.6110 N   0  0  0  0  0  0  0  0  0  0  0  0
  143.8120   71.3240  219.3190 C   0  0  0  0  0  0  0  0  0  0  0  0
  145.3160   71.2060  219.2520 C   0  0  0  0  0  0  0  0  0  0  0  0
  145.9700   72.4000  219.1610 O   0  0  0  0  0  0  0  0  0  0  0  0
  144.7809   75.6758  216.7377 H   0  0  0  0  0  0  0  0  0  0  0  0
  145.7263   75.9207  215.2301 H   0  0  0  0  0  0  0  0  0  0  0  0
  144.3038   74.8238  215.2301 H   0  0  0  0  0  0  0  0  0  0  0  0
  146.4043   73.5125  215.2875 H   0  0  0  0  0  0  0  0  0  0  0  0
  146.9321   74.3839  216.7581 H   0  0  0  0  0  0  0  0  0  0  0  0
  144.3440   72.9400  216.6740 H   0  0  0  0  0  0  0  0  0  0  0  0
  146.0454   74.2312  218.6060 H   0  0  0  0  0  0  0  0  0  0  0  0
  144.0577   74.6292  219.5444 H   0  0  0  0  0  0  0  0  0  0  0  0
  143.3820   73.9760  217.9991 H   0  0  0  0  0  0  0  0  0  0  0  0
  139.1447   70.4643  221.9958 H   0  0  0  0  0  0  0  0  0  0  0  0
  140.1161   69.2759  222.8861 H   0  0  0  0  0  0  0  0  0  0  0  0
  138.1500   71.2393  224.2490 H   0  0  0  0  0  0  0  0  0  0  0  0
  137.6812   69.6022  223.8111 H   0  0  0  0  0  0  0  0  0  0  0  0
  137.7931   68.2738  225.8183 H   0  0  0  0  0  0  0  0  0  0  0  0
  139.0503   67.4701  227.8090 H   0  0  0  0  0  0  0  0  0  0  0  0
  141.2500   68.5270  228.3371 H   0  0  0  0  0  0  0  0  0  0  0  0
  142.1648   70.3233  226.9082 H   0  0  0  0  0  0  0  0  0  0  0  0
  140.7084   72.3754  225.0839 H   0  0  0  0  0  0  0  0  0  0  0  0
  142.1181   71.3138  224.6524 H   0  0  0  0  0  0  0  0  0  0  0  0
  138.5293   76.4960  220.5505 H   0  0  0  0  0  0  0  0  0  0  0  0
  138.3165   74.9299  221.4222 H   0  0  0  0  0  0  0  0  0  0  0  0
  137.2451   76.9133  222.6012 H   0  0  0  0  0  0  0  0  0  0  0  0
  138.4279   76.0664  223.6032 H   0  0  0  0  0  0  0  0  0  0  0  0
  137.5615   78.9171  223.7950 H   0  0  0  0  0  0  0  0  0  0  0  0
  138.7734   81.0568  223.9627 H   0  0  0  0  0  0  0  0  0  0  0  0
  141.0798   81.2723  222.9941 H   0  0  0  0  0  0  0  0  0  0  0  0
  142.0912   79.3027  221.8685 H   0  0  0  0  0  0  0  0  0  0  0  0
  141.3299   77.2077  220.4793 H   0  0  0  0  0  0  0  0  0  0  0  0
  142.0238   76.6677  222.0439 H   0  0  0  0  0  0  0  0  0  0  0  0
  143.4405   70.6589  220.1125 H   0  0  0  0  0  0  0  0  0  0  0  0
  143.4093   71.0418  218.3350 H   0  0  0  0  0  0  0  0  0  0  0  0
  145.6620   70.6923  220.1611 H   0  0  0  0  0  0  0  0  0  0  0  0
  145.5473   70.6496  218.3317 H   0  0  0  0  0  0  0  0  0  0  0  0
  1  2  1  0
  2  3  1  0
  3  4  1  0
  4  5  1  0
  5  6  1  0
  6  7  1  0
  7  8  2  0
  8  9  1  0
  9 10  1  0
 10 11  1  0
 11 12  1  0
 12 13  1  0
 13 14  2  0
 14 15  1  0
 15 16  2  0
 16 17  1  0
 17 18  2  0
 18 19  1  0
  9 20  2  0
 20 21  1  0
 21 22  1  0
 22 23  1  0
 23 24  1  0
 24 25  1  0
 25 26  2  0
 26 27  1  0
 27 28  2  0
 28 29  1  0
 29 30  2  0
 30 31  1  0
 21 32  2  0
  6 33  1  0
 33 34  1  0
 34 35  1  0
 35  4  1  0
 32  7  1  0
 19 10  1  0
 31 22  1  0
 18 13  1  0
 30 25  1  0
  1 36  1  0
  1 37  1  0
  1 38  1  0
  2 39  1  0
  2 40  1  0
  3 41  1  0
  4 42  1  6
  5 43  1  0
  5 44  1  0
 11 45  1  0
 11 46  1  0
 12 47  1  0
 12 48  1  0
 14 49  1  0
 15 50  1  0
 16 51  1  0
 17 52  1  0
 19 53  1  0
 19 54  1  0
 23 55  1  0
 23 56  1  0
 24 57  1  0
 24 58  1  0
 26 59  1  0
 27 60  1  0
 28 61  1  0
 29 62  1  0
 31 63  1  0
 31 64  1  0
 33 65  1  0
 33 66  1  0
 34 67  1  0
 34 68  1  0
M  END
>  <smiles>  (57) 
CCNC1CN(c2nc(N3CCc4ccccc4C3)nc(N3CCc4ccccc4C3)n2)CCO1

>  <score_type>  (57) 
oracle

>  <origin>  (57) 
autodockgpu

>  <m_score__min__energy>  (57) 
-9.5500000000000007

>  <m_primary>  (57) 
energy

>  <rmsd>  (57) 
7.405149225584477

>  <m_score__min__rmsd>  (57) 
7.405149225584477

>  <meeko>  (57) 
{"free_energy": -9.09, "intermolecular_energy": -10.58, "internal_energy": -0.99, "cluster_size": 45, "cluster_id": 1, "rank_in_cluster": 24}

>  <energy>  (57) 
-9.4

>  <cluster_rmsd>  (57) 
0.56

>  <cluster>  (57) 
1

$$$$

     RDKit          3D

 68 73  0  0  1  0  0  0  0  0999 V2000
  145.4750   73.6550  216.6230 C   0  0  0  0  0  0  0  0  0  0  0  0
  145.0840   73.3730  218.0710 C   0  0  0  0  0  0  0  0  0  0  0  0
  145.5640   72.0530  218.4260 N   0  0  0  0  0  0  0  0  0  0  0  0
  145.0990   71.6010  219.7190 C   0  0  1  0  0  0  0  0  0  0  0  0
  144.1860   72.6560  220.2600 C   0  0  0  0  0  0  0  0  0  0  0  0
  142.8110   72.2620  220.1390 N   0  0  0  0  0  0  0  0  0  0  0  0
  141.8110   72.7920  221.0330 C   0  0  0  0  0  0  0  0  0  0  0  0
  141.4720   74.1010  221.0120 N   0  0  0  0  0  0  0  0  0  0  0  0
  140.5420   74.5640  221.8510 C   0  0  0  0  0  0  0  0  0  0  0  0
  140.1240   75.9260  221.9000 N   0  0  0  0  0  0  0  0  0  0  0  0
  140.9130   76.9870  221.3170 C   0  0  0  0  0  0  0  0  0  0  0  0
  140.9470   78.1190  222.3480 C   0  0  0  0  0  0  0  0  0  0  0  0
  139.5320   78.6350  222.3720 C   0  0  0  0  0  0  0  0  0  0  0  0
  139.2590   79.9830  222.2980 C   0  0  0  0  0  0  0  0  0  0  0  0
  137.9610   80.4350  222.3210 C   0  0  0  0  0  0  0  0  0  0  0  0
  136.9470   79.4920  222.4230 C   0  0  0  0  0  0  0  0  0  0  0  0
  137.2350   78.1330  222.4970 C   0  0  0  0  0  0  0  0  0  0  0  0
  138.5500   77.6680  222.4740 C   0  0  0  0  0  0  0  0  0  0  0  0
  138.8770   76.2370  222.5510 C   0  0  0  0  0  0  0  0  0  0  0  0
  139.9550   73.6900  222.7150 N   0  0  0  0  0  0  0  0  0  0  0  0
  140.2720   72.3990  222.7520 C   0  0  0  0  0  0  0  0  0  0  0  0
  139.6670   71.4630  223.6520 N   0  0  0  0  0  0  0  0  0  0  0  0
  138.6840   70.5090  223.1850 C   0  0  0  0  0  0  0  0  0  0  0  0
  139.1760   69.0770  223.4070 C   0  0  0  0  0  0  0  0  0  0  0  0
  139.5290   69.0030  224.8480 C   0  0  0  0  0  0  0  0  0  0  0  0
  139.4510   67.7670  225.4490 C   0  0  0  0  0  0  0  0  0  0  0  0
  139.7580   67.5940  226.7810 C   0  0  0  0  0  0  0  0  0  0  0  0
  140.1600   68.6860  227.5530 C   0  0  0  0  0  0  0  0  0  0  0  0
  140.2350   69.9230  226.9430 C   0  0  0  0  0  0  0  0  0  0  0  0
  139.9220   70.0910  225.5940 C   0  0  0  0  0  0  0  0  0  0  0  0
  140.0420   71.4670  225.0520 C   0  0  0  0  0  0  0  0  0  0  0  0
  141.2130   71.9610  221.8950 N   0  0  0  0  0  0  0  0  0  0  0  0
  142.4540   71.3240  219.1020 C   0  0  0  0  0  0  0  0  0  0  0  0
  143.4110   70.1580  219.0270 C   0  0  0  0  0  0  0  0  0  0  0  0
  144.5760   70.3420  219.7110 O   0  0  0  0  0  0  0  0  0  0  0  0
  146.3670   74.2983  216.6027 H   0  0  0  0  0  0  0  0  0  0  0  0
  145.6953   72.7065  216.1113 H   0  0  0  0  0  0  0  0  0  0  0  0
  144.6445   74.1634  216.1113 H   0  0  0  0  0  0  0  0  0  0  0  0
  145.5405   74.1244  218.7321 H   0  0  0  0  0  0  0  0  0  0  0  0
  143.9907   73.4202  218.1831 H   0  0  0  0  0  0  0  0  0  0  0  0
  145.4510   71.3620  217.6820 H   0  0  0  0  0  0  0  0  0  0  0  0
  145.9526   71.4816  220.4024 H   0  0  0  0  0  0  0  0  0  0  0  0
  144.4196   72.8231  221.3218 H   0  0  0  0  0  0  0  0  0  0  0  0
  144.3370   73.5788  219.6807 H   0  0  0  0  0  0  0  0  0  0  0  0
  141.9330   76.6318  221.1086 H   0  0  0  0  0  0  0  0  0  0  0  0
  140.4801   77.3282  220.3651 H   0  0  0  0  0  0  0  0  0  0  0  0
  141.2407   77.7379  223.3372 H   0  0  0  0  0  0  0  0  0  0  0  0
  141.6778   78.9008  222.0934 H   0  0  0  0  0  0  0  0  0  0  0  0
  140.0863   80.7037  222.2199 H   0  0  0  0  0  0  0  0  0  0  0  0
  137.7329   81.5094  222.2605 H   0  0  0  0  0  0  0  0  0  0  0  0
  135.8988   79.8249  222.4457 H   0  0  0  0  0  0  0  0  0  0  0  0
  136.4092   77.4106  222.5752 H   0  0  0  0  0  0  0  0  0  0  0  0
  138.9484   75.9468  223.6096 H   0  0  0  0  0  0  0  0  0  0  0  0
  138.0800   75.6812  222.0353 H   0  0  0  0  0  0  0  0  0  0  0  0
  137.7445   70.6582  223.7372 H   0  0  0  0  0  0  0  0  0  0  0  0
  138.5213   70.6654  222.1084 H   0  0  0  0  0  0  0  0  0  0  0  0
  138.3814   68.3551  223.1674 H   0  0  0  0  0  0  0  0  0  0  0  0
  140.0328   68.8330  222.7617 H   0  0  0  0  0  0  0  0  0  0  0  0
  139.1365   66.8980  224.8525 H   0  0  0  0  0  0  0  0  0  0  0  0
  139.6864   66.5953  227.2365 H   0  0  0  0  0  0  0  0  0  0  0  0
  140.4100   68.5645  228.6173 H   0  0  0  0  0  0  0  0  0  0  0  0
  140.5488   70.7957  227.5345 H   0  0  0  0  0  0  0  0  0  0  0  0
  139.3752   72.1413  225.6094 H   0  0  0  0  0  0  0  0  0  0  0  0
  141.0803   71.8152  225.1551 H   0  0  0  0  0  0  0  0  0  0  0  0
  141.4437   70.9395  219.3058 H   0  0  0  0  0  0  0  0  0  0  0  0
  142.4961   71.8553  218.1397 H   0  0  0  0  0  0  0  0  0  0  0  0
  142.9064   69.2715  219.4387 H   0  0  0  0  0  0  0  0  0  0  0  0
  143.6833   70.0423  217.9675 H   0  0  0  0  0  0  0  0  0  0  0  0
  1  2  1  0
  2  3  1  0
  3  4  1  0
  4  5  1  0
  5  6  1  0
  6  7  1  0
  7  8  2  0
  8  9  1  0
  9 10  1  0
 10 11  1  0
 11 12  1  0
 12 13  1  0
 13 14  2  0
 14 15  1  0
 15 16  2  0
 16 17  1  0
 17 18  2  0
 18 19  1  0
  9 20  2  0
 20 21  1  0
 21 22  1  0
 22 23  1  0
 23 24  1  0
 24 25  1  0
 25 26  2  0
 26 27  1  0
 27 28  2  0
 28 29  1  0
 29 30  2  0
 30 31  1  0
 21 32  2  0
  6 33  1  0
 33 34  1  0
 34 35  1  0
 35  4  1  0
 32  7  1  0
 19 10  1  0
 31 22  1  0
 18 13  1  0
 30 25  1  0
  1 36  1  0
  1 37  1  0
  1 38  1  0
  2 39  1  0
  2 40  1  0
  3 41  1  0
  4 42  1  1
  5 43  1  0
  5 44  1  0
 11 45  1  0
 11 46  1  0
 12 47  1  0
 12 48  1  0
 14 49  1  0
 15 50  1  0
 16 51  1  0
 17 52  1  0
 19 53  1  0
 19 54  1  0
 23 55  1  0
 23 56  1  0
 24 57  1  0
 24 58  1  0
 26 59  1  0
 27 60  1  0
 28 61  1  0
 29 62  1  0
 31 63  1  0
 31 64  1  0
 33 65  1  0
 33 66  1  0
 34 67  1  0
 34 68  1  0
M  END
>  <smiles>  (58) 
CCNC1CN(c2nc(N3CCc4ccccc4C3)nc(N3CCc4ccccc4C3)n2)CCO1

>  <score_type>  (58) 
oracle

>  <origin>  (58) 
autodockgpu

>  <m_score__min__energy>  (58) 
-9.5500000000000007

>  <m_primary>  (58) 
energy

>  <rmsd>  (58) 
7.257583548025385

>  <m_score__min__rmsd>  (58) 
7.257583548025385

>  <meeko>  (58) 
{"free_energy": -8.54, "intermolecular_energy": -10.03, "internal_energy": -1.04, "cluster_size": 45, "cluster_id": 1, "rank_in_cluster": 45}

>  <energy>  (58) 
-9.39

>  <cluster_rmsd>  (58) 
0.56

>  <cluster>  (58) 
1

$$$$

     RDKit          3D

 68 73  0  0  1  0  0  0  0  0999 V2000
  146.3200   73.4200  216.2760 C   0  0  0  0  0  0  0  0  0  0  0  0
  145.4100   73.0280  217.4370 C   0  0  0  0  0  0  0  0  0  0  0  0
  145.8540   71.7490  217.9550 N   0  0  0  0  0  0  0  0  0  0  0  0
  145.5250   71.5480  219.3490 C   0  0  1  0  0  0  0  0  0  0  0  0
  144.6000   72.6530  219.7540 C   0  0  0  0  0  0  0  0  0  0  0  0
  143.2440   72.1880  219.8410 N   0  0  0  0  0  0  0  0  0  0  0  0
  142.2930   72.8460  220.7020 C   0  0  0  0  0  0  0  0  0  0  0  0
  142.1060   74.1840  220.6490 N   0  0  0  0  0  0  0  0  0  0  0  0
  141.2180   74.7670  221.4580 C   0  0  0  0  0  0  0  0  0  0  0  0
  140.9560   76.1690  221.4720 N   0  0  0  0  0  0  0  0  0  0  0  0
  140.5810   76.8850  220.2740 C   0  0  0  0  0  0  0  0  0  0  0  0
  141.4180   78.1680  220.2580 C   0  0  0  0  0  0  0  0  0  0  0  0
  140.8690   78.9790  221.4020 C   0  0  0  0  0  0  0  0  0  0  0  0
  140.5480   80.3100  221.2480 C   0  0  0  0  0  0  0  0  0  0  0  0
  140.0480   81.0330  222.3050 C   0  0  0  0  0  0  0  0  0  0  0  0
  139.8830   80.3800  223.5190 C   0  0  0  0  0  0  0  0  0  0  0  0
  140.2100   79.0350  223.6620 C   0  0  0  0  0  0  0  0  0  0  0  0
  140.7180   78.2950  222.5940 C   0  0  0  0  0  0  0  0  0  0  0  0
  141.0710   76.8750  222.7230 C   0  0  0  0  0  0  0  0  0  0  0  0
  140.5170   73.9840  222.3240 N   0  0  0  0  0  0  0  0  0  0  0  0
  140.6840   72.6660  222.3920 C   0  0  0  0  0  0  0  0  0  0  0  0
  139.9590   71.8230  223.2950 N   0  0  0  0  0  0  0  0  0  0  0  0
  138.8200   71.0530  222.8430 C   0  0  0  0  0  0  0  0  0  0  0  0
  139.0750   69.5560  223.0270 C   0  0  0  0  0  0  0  0  0  0  0  0
  139.4500   69.3950  224.4550 C   0  0  0  0  0  0  0  0  0  0  0  0
  139.1870   68.1770  225.0390 C   0  0  0  0  0  0  0  0  0  0  0  0
  139.4970   67.9280  226.3580 C   0  0  0  0  0  0  0  0  0  0  0  0
  140.0940   68.9230  227.1350 C   0  0  0  0  0  0  0  0  0  0  0  0
  140.3560   70.1430  226.5420 C   0  0  0  0  0  0  0  0  0  0  0  0
  140.0380   70.3880  225.2060 C   0  0  0  0  0  0  0  0  0  0  0  0
  140.3670   71.7370  224.6830 C   0  0  0  0  0  0  0  0  0  0  0  0
  141.5870   72.1060  221.5650 N   0  0  0  0  0  0  0  0  0  0  0  0
  142.8580   71.0470  219.0460 C   0  0  0  0  0  0  0  0  0  0  0  0
  143.8720   69.9290  219.1140 C   0  0  0  0  0  0  0  0  0  0  0  0
  145.0770   70.2940  219.6380 O   0  0  0  0  0  0  0  0  0  0  0  0
  147.2631   73.8263  216.6703 H   0  0  0  0  0  0  0  0  0  0  0  0
  146.5317   72.5333  215.6605 H   0  0  0  0  0  0  0  0  0  0  0  0
  145.8210   74.1830  215.6605 H   0  0  0  0  0  0  0  0  0  0  0  0
  145.4684   73.7898  218.2284 H   0  0  0  0  0  0  0  0  0  0  0  0
  144.3680   72.9549  217.0923 H   0  0  0  0  0  0  0  0  0  0  0  0
  145.6120   70.9580  217.3560 H   0  0  0  0  0  0  0  0  0  0  0  0
  146.4381   71.6027  219.9599 H   0  0  0  0  0  0  0  0  0  0  0  0
  144.9107   73.0396  220.7359 H   0  0  0  0  0  0  0  0  0  0  0  0
  144.6489   73.4455  218.9927 H   0  0  0  0  0  0  0  0  0  0  0  0
  140.7990   76.2772  219.3834 H   0  0  0  0  0  0  0  0  0  0  0  0
  139.5044   77.1107  220.2644 H   0  0  0  0  0  0  0  0  0  0  0  0
  142.4828   77.9415  220.4155 H   0  0  0  0  0  0  0  0  0  0  0  0
  141.3579   78.6993  219.2967 H   0  0  0  0  0  0  0  0  0  0  0  0
  140.6928   80.7975  220.2726 H   0  0  0  0  0  0  0  0  0  0  0  0
  139.7869   82.0956  222.1924 H   0  0  0  0  0  0  0  0  0  0  0  0
  139.4872   80.9351  224.3822 H   0  0  0  0  0  0  0  0  0  0  0  0
  140.0651   78.5456  224.6364 H   0  0  0  0  0  0  0  0  0  0  0  0
  142.1093   76.7991  223.0783 H   0  0  0  0  0  0  0  0  0  0  0  0
  140.3692   76.4162  223.4351 H   0  0  0  0  0  0  0  0  0  0  0  0
  137.9333   71.3430  223.4258 H   0  0  0  0  0  0  0  0  0  0  0  0
  138.6561   71.2561  221.7744 H   0  0  0  0  0  0  0  0  0  0  0  0
  138.1661   68.9796  222.8000 H   0  0  0  0  0  0  0  0  0  0  0  0
  139.8620   69.1881  222.3523 H   0  0  0  0  0  0  0  0  0  0  0  0
  138.7182   67.3835  224.4385 H   0  0  0  0  0  0  0  0  0  0  0  0
  139.2742   66.9453  226.7992 H   0  0  0  0  0  0  0  0  0  0  0  0
  140.3485   68.7405  228.1895 H   0  0  0  0  0  0  0  0  0  0  0  0
  140.8263   70.9397  227.1371 H   0  0  0  0  0  0  0  0  0  0  0  0
  139.8346   72.4993  225.2708 H   0  0  0  0  0  0  0  0  0  0  0  0
  141.4507   71.9092  224.7608 H   0  0  0  0  0  0  0  0  0  0  0  0
  141.8919   70.6707  219.4136 H   0  0  0  0  0  0  0  0  0  0  0  0
  142.7900   71.3753  217.9983 H   0  0  0  0  0  0  0  0  0  0  0  0
  143.4554   69.1238  219.7369 H   0  0  0  0  0  0  0  0  0  0  0  0
  144.0623   69.6136  218.0775 H   0  0  0  0  0  0  0  0  0  0  0  0
  1  2  1  0
  2  3  1  0
  3  4  1  0
  4  5  1  0
  5  6  1  0
  6  7  1  0
  7  8  2  0
  8  9  1  0
  9 10  1  0
 10 11  1  0
 11 12  1  0
 12 13  1  0
 13 14  2  0
 14 15  1  0
 15 16  2  0
 16 17  1  0
 17 18  2  0
 18 19  1  0
  9 20  2  0
 20 21  1  0
 21 22  1  0
 22 23  1  0
 23 24  1  0
 24 25  1  0
 25 26  2  0
 26 27  1  0
 27 28  2  0
 28 29  1  0
 29 30  2  0
 30 31  1  0
 21 32  2  0
  6 33  1  0
 33 34  1  0
 34 35  1  0
 35  4  1  0
 32  7  1  0
 19 10  1  0
 31 22  1  0
 18 13  1  0
 30 25  1  0
  1 36  1  0
  1 37  1  0
  1 38  1  0
  2 39  1  0
  2 40  1  0
  3 41  1  0
  4 42  1  1
  5 43  1  0
  5 44  1  0
 11 45  1  0
 11 46  1  0
 12 47  1  0
 12 48  1  0
 14 49  1  0
 15 50  1  0
 16 51  1  0
 17 52  1  0
 19 53  1  0
 19 54  1  0
 23 55  1  0
 23 56  1  0
 24 57  1  0
 24 58  1  0
 26 59  1  0
 27 60  1  0
 28 61  1  0
 29 62  1  0
 31 63  1  0
 31 64  1  0
 33 65  1  0
 33 66  1  0
 34 67  1  0
 34 68  1  0
M  END
>  <smiles>  (59) 
CCNC1CN(c2nc(N3CCc4ccccc4C3)nc(N3CCc4ccccc4C3)n2)CCO1

>  <score_type>  (59) 
oracle

>  <origin>  (59) 
autodockgpu

>  <m_score__min__energy>  (59) 
-9.5500000000000007

>  <m_primary>  (59) 
energy

>  <rmsd>  (59) 
7.746211711725162

>  <m_score__min__rmsd>  (59) 
7.746211711725162

>  <meeko>  (59) 
{"free_energy": -8.67, "intermolecular_energy": -10.16, "internal_energy": -1.03, "cluster_size": 45, "cluster_id": 1, "rank_in_cluster": 42}

>  <energy>  (59) 
-9.38

>  <cluster_rmsd>  (59) 
0.57

>  <cluster>  (59) 
1

$$$$

     RDKit          3D

 68 73  0  0  1  0  0  0  0  0999 V2000
  145.3990   74.8220  215.8270 C   0  0  0  0  0  0  0  0  0  0  0  0
  144.8450   74.1180  217.0620 C   0  0  0  0  0  0  0  0  0  0  0  0
  145.8600   73.2170  217.5710 N   0  0  0  0  0  0  0  0  0  0  0  0
  145.7760   73.0050  218.9990 C   0  0  1  0  0  0  0  0  0  0  0  0
  144.5030   73.6330  219.4710 C   0  0  0  0  0  0  0  0  0  0  0  0
  143.4980   72.6400  219.7270 N   0  0  0  0  0  0  0  0  0  0  0  0
  142.4360   72.8910  220.6700 C   0  0  0  0  0  0  0  0  0  0  0  0
  142.0360   71.9420  221.5460 N   0  0  0  0  0  0  0  0  0  0  0  0
  141.0500   72.2020  222.4080 C   0  0  0  0  0  0  0  0  0  0  0  0
  140.5640   71.2640  223.3660 N   0  0  0  0  0  0  0  0  0  0  0  0
  139.6990   70.1700  222.9880 C   0  0  0  0  0  0  0  0  0  0  0  0
  138.5730   70.1290  224.0250 C   0  0  0  0  0  0  0  0  0  0  0  0
  139.2560   69.6860  225.2920 C   0  0  0  0  0  0  0  0  0  0  0  0
  138.7330   68.6800  226.0740 C   0  0  0  0  0  0  0  0  0  0  0  0
  139.3720   68.2890  227.2270 C   0  0  0  0  0  0  0  0  0  0  0  0
  140.5490   68.9400  227.5700 C   0  0  0  0  0  0  0  0  0  0  0  0
  141.0680   69.9550  226.7720 C   0  0  0  0  0  0  0  0  0  0  0  0
  140.4250   70.3560  225.6000 C   0  0  0  0  0  0  0  0  0  0  0  0
  140.9550   71.4250  224.7430 C   0  0  0  0  0  0  0  0  0  0  0  0
  140.4690   73.4340  222.3780 N   0  0  0  0  0  0  0  0  0  0  0  0
  140.8480   74.3820  221.5240 C   0  0  0  0  0  0  0  0  0  0  0  0
  140.2510   75.6830  221.4750 N   0  0  0  0  0  0  0  0  0  0  0  0
  138.8360   75.8440  221.2150 C   0  0  0  0  0  0  0  0  0  0  0  0
  138.1460   76.5280  222.3970 C   0  0  0  0  0  0  0  0  0  0  0  0
  138.9160   77.7760  222.6320 C   0  0  0  0  0  0  0  0  0  0  0  0
  138.2420   78.8290  223.2070 C   0  0  0  0  0  0  0  0  0  0  0  0
  138.8680   80.0290  223.4650 C   0  0  0  0  0  0  0  0  0  0  0  0
  140.2160   80.1980  223.1440 C   0  0  0  0  0  0  0  0  0  0  0  0
  140.8860   79.1360  222.5680 C   0  0  0  0  0  0  0  0  0  0  0  0
  140.2460   77.9240  222.3090 C   0  0  0  0  0  0  0  0  0  0  0  0
  141.0710   76.8590  221.6870 C   0  0  0  0  0  0  0  0  0  0  0  0
  141.8440   74.0910  220.6670 N   0  0  0  0  0  0  0  0  0  0  0  0
  143.5780   71.3860  219.0180 C   0  0  0  0  0  0  0  0  0  0  0  0
  144.9780   70.8190  219.0060 C   0  0  0  0  0  0  0  0  0  0  0  0
  145.9460   71.7060  219.3770 O   0  0  0  0  0  0  0  0  0  0  0  0
  146.0513   75.6509  216.1391 H   0  0  0  0  0  0  0  0  0  0  0  0
  145.9784   74.1059  215.2257 H   0  0  0  0  0  0  0  0  0  0  0  0
  144.5668   75.2168  215.2257 H   0  0  0  0  0  0  0  0  0  0  0  0
  144.5903   74.8625  217.8307 H   0  0  0  0  0  0  0  0  0  0  0  0
  143.9375   73.5544  216.7996 H   0  0  0  0  0  0  0  0  0  0  0  0
  145.9510   72.3560  217.0300 H   0  0  0  0  0  0  0  0  0  0  0  0
  146.6239   73.4951  219.4999 H   0  0  0  0  0  0  0  0  0  0  0  0
  144.7004   74.1911  220.3981 H   0  0  0  0  0  0  0  0  0  0  0  0
  144.1342   74.3070  218.6837 H   0  0  0  0  0  0  0  0  0  0  0  0
  139.2848   70.3424  221.9837 H   0  0  0  0  0  0  0  0  0  0  0  0
  140.2497   69.2182  222.9604 H   0  0  0  0  0  0  0  0  0  0  0  0
  138.1226   71.1245  224.1518 H   0  0  0  0  0  0  0  0  0  0  0  0
  137.7526   69.4578  223.7309 H   0  0  0  0  0  0  0  0  0  0  0  0
  137.7972   68.1857  225.7739 H   0  0  0  0  0  0  0  0  0  0  0  0
  138.9634   67.4857  227.8577 H   0  0  0  0  0  0  0  0  0  0  0  0
  141.0804   68.6487  228.4880 H   0  0  0  0  0  0  0  0  0  0  0  0
  142.0033   70.4510  227.0707 H   0  0  0  0  0  0  0  0  0  0  0  0
  140.5769   72.3914  225.1077 H   0  0  0  0  0  0  0  0  0  0  0  0
  142.0532   71.3810  224.7891 H   0  0  0  0  0  0  0  0  0  0  0  0
  138.7018   76.4589  220.3128 H   0  0  0  0  0  0  0  0  0  0  0  0
  138.3869   74.8506  221.0685 H   0  0  0  0  0  0  0  0  0  0  0  0
  137.0999   76.7615  222.1499 H   0  0  0  0  0  0  0  0  0  0  0  0
  138.1264   75.8843  223.2888 H   0  0  0  0  0  0  0  0  0  0  0  0
  137.1797   78.7100  223.4665 H   0  0  0  0  0  0  0  0  0  0  0  0
  138.3049   80.8548  223.9244 H   0  0  0  0  0  0  0  0  0  0  0  0
  140.7301   81.1497  223.3440 H   0  0  0  0  0  0  0  0  0  0  0  0
  141.9488   79.2488  222.3076 H   0  0  0  0  0  0  0  0  0  0  0  0
  141.4624   77.2133  220.7220 H   0  0  0  0  0  0  0  0  0  0  0  0
  141.9118   76.6083  222.3504 H   0  0  0  0  0  0  0  0  0  0  0  0
  142.9079   70.6619  219.5044 H   0  0  0  0  0  0  0  0  0  0  0  0
  143.2825   71.5714  217.9748 H   0  0  0  0  0  0  0  0  0  0  0  0
  145.0097   69.9648  219.6984 H   0  0  0  0  0  0  0  0  0  0  0  0
  145.1937   70.5341  217.9656 H   0  0  0  0  0  0  0  0  0  0  0  0
  1  2  1  0
  2  3  1  0
  3  4  1  0
  4  5  1  0
  5  6  1  0
  6  7  1  0
  7  8  2  0
  8  9  1  0
  9 10  1  0
 10 11  1  0
 11 12  1  0
 12 13  1  0
 13 14  2  0
 14 15  1  0
 15 16  2  0
 16 17  1  0
 17 18  2  0
 18 19  1  0
  9 20  2  0
 20 21  1  0
 21 22  1  0
 22 23  1  0
 23 24  1  0
 24 25  1  0
 25 26  2  0
 26 27  1  0
 27 28  2  0
 28 29  1  0
 29 30  2  0
 30 31  1  0
 21 32  2  0
  6 33  1  0
 33 34  1  0
 34 35  1  0
 35  4  1  0
 32  7  1  0
 19 10  1  0
 31 22  1  0
 18 13  1  0
 30 25  1  0
  1 36  1  0
  1 37  1  0
  1 38  1  0
  2 39  1  0
  2 40  1  0
  3 41  1  0
  4 42  1  1
  5 43  1  0
  5 44  1  0
 11 45  1  0
 11 46  1  0
 12 47  1  0
 12 48  1  0
 14 49  1  0
 15 50  1  0
 16 51  1  0
 17 52  1  0
 19 53  1  0
 19 54  1  0
 23 55  1  0
 23 56  1  0
 24 57  1  0
 24 58  1  0
 26 59  1  0
 27 60  1  0
 28 61  1  0
 29 62  1  0
 31 63  1  0
 31 64  1  0
 33 65  1  0
 33 66  1  0
 34 67  1  0
 34 68  1  0
M  END
>  <smiles>  (60) 
CCNC1CN(c2nc(N3CCc4ccccc4C3)nc(N3CCc4ccccc4C3)n2)CCO1

>  <score_type>  (60) 
oracle

>  <origin>  (60) 
autodockgpu

>  <m_score__min__energy>  (60) 
-9.5500000000000007

>  <m_primary>  (60) 
energy

>  <rmsd>  (60) 
7.248872481183176

>  <m_score__min__rmsd>  (60) 
7.248872481183176

>  <meeko>  (60) 
{"free_energy": -9.05, "intermolecular_energy": -10.54, "internal_energy": -1.01, "cluster_size": 45, "cluster_id": 1, "rank_in_cluster": 32}

>  <energy>  (60) 
-9.37

>  <cluster_rmsd>  (60) 
0.57

>  <cluster>  (60) 
1

$$$$

     RDKit          3D

 68 73  0  0  1  0  0  0  0  0999 V2000
  145.9610   68.4760  219.3430 C   0  0  0  0  0  0  0  0  0  0  0  0
  145.6750   69.6400  218.3970 C   0  0  0  0  0  0  0  0  0  0  0  0
  146.0830   70.8690  219.0470 N   0  0  0  0  0  0  0  0  0  0  0  0
  145.2460   72.0000  218.7150 C   0  0  1  0  0  0  0  0  0  0  0  0
  143.9550   71.8340  219.4540 C   0  0  0  0  0  0  0  0  0  0  0  0
  143.8940   72.7060  220.5920 N   0  0  0  0  0  0  0  0  0  0  0  0
  142.6240   73.1420  221.1190 C   0  0  0  0  0  0  0  0  0  0  0  0
  141.8090   72.2900  221.7830 N   0  0  0  0  0  0  0  0  0  0  0  0
  140.6390   72.7210  222.2600 C   0  0  0  0  0  0  0  0  0  0  0  0
  139.7180   71.8960  222.9710 N   0  0  0  0  0  0  0  0  0  0  0  0
  140.0940   71.2050  224.1830 C   0  0  0  0  0  0  0  0  0  0  0  0
  139.5590   69.7760  224.0500 C   0  0  0  0  0  0  0  0  0  0  0  0
  138.0630   69.9360  224.1230 C   0  0  0  0  0  0  0  0  0  0  0  0
  137.2950   69.1390  224.9440 C   0  0  0  0  0  0  0  0  0  0  0  0
  135.9310   69.3010  224.9960 C   0  0  0  0  0  0  0  0  0  0  0  0
  135.3630   70.2850  224.1990 C   0  0  0  0  0  0  0  0  0  0  0  0
  136.1480   71.0840  223.3740 C   0  0  0  0  0  0  0  0  0  0  0  0
  137.5330   70.9250  223.3160 C   0  0  0  0  0  0  0  0  0  0  0  0
  138.3810   71.7580  222.4520 C   0  0  0  0  0  0  0  0  0  0  0  0
  140.2970   74.0250  222.0620 N   0  0  0  0  0  0  0  0  0  0  0  0
  141.0840   74.8790  221.4130 C   0  0  0  0  0  0  0  0  0  0  0  0
  140.7440   76.2530  221.1920 N   0  0  0  0  0  0  0  0  0  0  0  0
  139.9210   76.9780  222.1370 C   0  0  0  0  0  0  0  0  0  0  0  0
  140.6900   78.1650  222.7200 C   0  0  0  0  0  0  0  0  0  0  0  0
  141.1720   78.9350  221.5450 C   0  0  0  0  0  0  0  0  0  0  0  0
  141.3790   80.2840  221.7210 C   0  0  0  0  0  0  0  0  0  0  0  0
  141.8250   81.0850  220.6930 C   0  0  0  0  0  0  0  0  0  0  0  0
  142.0790   80.5320  219.4360 C   0  0  0  0  0  0  0  0  0  0  0  0
  141.8690   79.1770  219.2660 C   0  0  0  0  0  0  0  0  0  0  0  0
  141.4160   78.3720  220.3120 C   0  0  0  0  0  0  0  0  0  0  0  0
  141.2290   76.9320  220.0080 C   0  0  0  0  0  0  0  0  0  0  0  0
  142.2570   74.4170  220.9420 N   0  0  0  0  0  0  0  0  0  0  0  0
  145.1320   73.1360  221.1950 C   0  0  0  0  0  0  0  0  0  0  0  0
  146.1500   73.5750  220.1690 C   0  0  0  0  0  0  0  0  0  0  0  0
  145.8520   73.2090  218.8890 O   0  0  0  0  0  0  0  0  0  0  0  0
  145.8764   68.8204  220.3842 H   0  0  0  0  0  0  0  0  0  0  0  0
  145.2341   67.6702  219.1631 H   0  0  0  0  0  0  0  0  0  0  0  0
  146.9785   68.0988  219.1631 H   0  0  0  0  0  0  0  0  0  0  0  0
  146.2416   69.5078  217.4635 H   0  0  0  0  0  0  0  0  0  0  0  0
  144.6020   69.6774  218.1577 H   0  0  0  0  0  0  0  0  0  0  0  0
  146.2580   70.7640  220.0480 H   0  0  0  0  0  0  0  0  0  0  0  0
  145.0417   72.0083  217.6342 H   0  0  0  0  0  0  0  0  0  0  0  0
  143.1208   72.0689  218.7766 H   0  0  0  0  0  0  0  0  0  0  0  0
  143.8863   70.7944  219.8070 H   0  0  0  0  0  0  0  0  0  0  0  0
  141.1887   71.1929  224.2900 H   0  0  0  0  0  0  0  0  0  0  0  0
  139.6803   71.7045  225.0714 H   0  0  0  0  0  0  0  0  0  0  0  0
  139.8581   69.3349  223.0877 H   0  0  0  0  0  0  0  0  0  0  0  0
  139.9504   69.1043  224.8282 H   0  0  0  0  0  0  0  0  0  0  0  0
  137.7771   68.3675  225.5623 H   0  0  0  0  0  0  0  0  0  0  0  0
  135.3093   68.6706  225.6487 H   0  0  0  0  0  0  0  0  0  0  0  0
  134.2736   70.4357  224.2200 H   0  0  0  0  0  0  0  0  0  0  0  0
  135.6675   71.8562  222.7553 H   0  0  0  0  0  0  0  0  0  0  0  0
  138.4339   71.2953  221.4554 H   0  0  0  0  0  0  0  0  0  0  0  0
  137.9321   72.7611  222.4045 H   0  0  0  0  0  0  0  0  0  0  0  0
  139.0208   77.3472  221.6238 H   0  0  0  0  0  0  0  0  0  0  0  0
  139.6404   76.3000  222.9564 H   0  0  0  0  0  0  0  0  0  0  0  0
  140.0277   78.7853  223.3418 H   0  0  0  0  0  0  0  0  0  0  0  0
  141.5193   77.8394  223.3651 H   0  0  0  0  0  0  0  0  0  0  0  0
  141.1837   80.7333  222.7059 H   0  0  0  0  0  0  0  0  0  0  0  0
  141.9812   82.1606  220.8622 H   0  0  0  0  0  0  0  0  0  0  0  0
  142.4362   81.1576  218.6047 H   0  0  0  0  0  0  0  0  0  0  0  0
  142.0634   78.7223  218.2834 H   0  0  0  0  0  0  0  0  0  0  0  0
  140.4974   76.8200  219.1943 H   0  0  0  0  0  0  0  0  0  0  0  0
  142.1886   76.4927  219.6977 H   0  0  0  0  0  0  0  0  0  0  0  0
  144.9225   73.9801  221.8685 H   0  0  0  0  0  0  0  0  0  0  0  0
  145.5542   72.2798  221.7415 H   0  0  0  0  0  0  0  0  0  0  0  0
  146.2242   74.6719  220.2051 H   0  0  0  0  0  0  0  0  0  0  0  0
  147.0941   73.0734  220.4279 H   0  0  0  0  0  0  0  0  0  0  0  0
  1  2  1  0
  2  3  1  0
  3  4  1  0
  4  5  1  0
  5  6  1  0
  6  7  1  0
  7  8  2  0
  8  9  1  0
  9 10  1  0
 10 11  1  0
 11 12  1  0
 12 13  1  0
 13 14  2  0
 14 15  1  0
 15 16  2  0
 16 17  1  0
 17 18  2  0
 18 19  1  0
  9 20  2  0
 20 21  1  0
 21 22  1  0
 22 23  1  0
 23 24  1  0
 24 25  1  0
 25 26  2  0
 26 27  1  0
 27 28  2  0
 28 29  1  0
 29 30  2  0
 30 31  1  0
 21 32  2  0
  6 33  1  0
 33 34  1  0
 34 35  1  0
 35  4  1  0
 32  7  1  0
 19 10  1  0
 31 22  1  0
 18 13  1  0
 30 25  1  0
  1 36  1  0
  1 37  1  0
  1 38  1  0
  2 39  1  0
  2 40  1  0
  3 41  1  0
  4 42  1  6
  5 43  1  0
  5 44  1  0
 11 45  1  0
 11 46  1  0
 12 47  1  0
 12 48  1  0
 14 49  1  0
 15 50  1  0
 16 51  1  0
 17 52  1  0
 19 53  1  0
 19 54  1  0
 23 55  1  0
 23 56  1  0
 24 57  1  0
 24 58  1  0
 26 59  1  0
 27 60  1  0
 28 61  1  0
 29 62  1  0
 31 63  1  0
 31 64  1  0
 33 65  1  0
 33 66  1  0
 34 67  1  0
 34 68  1  0
M  END
>  <smiles>  (61) 
CCNC1CN(c2nc(N3CCc4ccccc4C3)nc(N3CCc4ccccc4C3)n2)CCO1

>  <score_type>  (61) 
oracle

>  <origin>  (61) 
autodockgpu

>  <m_score__min__energy>  (61) 
-9.5500000000000007

>  <m_primary>  (61) 
energy

>  <rmsd>  (61) 
9.100460199759098

>  <m_score__min__rmsd>  (61) 
9.100460199759098

>  <meeko>  (61) 
{"free_energy": -8.77, "intermolecular_energy": -10.26, "internal_energy": -1.0, "cluster_size": 1, "cluster_id": 2, "rank_in_cluster": 1}

>  <energy>  (61) 
-9.34

>  <cluster_rmsd>  (61) 
1.43

>  <cluster>  (61) 
1

$$$$

     RDKit          3D

 68 73  0  0  1  0  0  0  0  0999 V2000
  146.1320   68.2110  219.3530 C   0  0  0  0  0  0  0  0  0  0  0  0
  145.1540   69.3160  218.9630 C   0  0  0  0  0  0  0  0  0  0  0  0
  145.8400   70.5890  219.0530 N   0  0  0  0  0  0  0  0  0  0  0  0
  145.0020   71.7180  218.7140 C   0  0  1  0  0  0  0  0  0  0  0  0
  143.7580   71.6160  219.5390 C   0  0  0  0  0  0  0  0  0  0  0  0
  143.7830   72.5470  220.6320 N   0  0  0  0  0  0  0  0  0  0  0  0
  142.5560   73.0350  221.2120 C   0  0  0  0  0  0  0  0  0  0  0  0
  142.1420   74.3070  221.0120 N   0  0  0  0  0  0  0  0  0  0  0  0
  141.0010   74.7320  221.5610 C   0  0  0  0  0  0  0  0  0  0  0  0
  140.4880   76.0530  221.4040 N   0  0  0  0  0  0  0  0  0  0  0  0
  139.7110   76.4360  220.2470 C   0  0  0  0  0  0  0  0  0  0  0  0
  140.2600   77.7890  219.7860 C   0  0  0  0  0  0  0  0  0  0  0  0
  139.8540   78.7420  220.8780 C   0  0  0  0  0  0  0  0  0  0  0  0
  139.2580   79.9510  220.5910 C   0  0  0  0  0  0  0  0  0  0  0  0
  138.8940   80.8070  221.6030 C   0  0  0  0  0  0  0  0  0  0  0  0
  139.1480   80.4140  222.9100 C   0  0  0  0  0  0  0  0  0  0  0  0
  139.7500   79.1910  223.1880 C   0  0  0  0  0  0  0  0  0  0  0  0
  140.1220   78.3170  222.1660 C   0  0  0  0  0  0  0  0  0  0  0  0
  140.7590   77.0210  222.4370 C   0  0  0  0  0  0  0  0  0  0  0  0
  140.2800   73.8590  222.3180 N   0  0  0  0  0  0  0  0  0  0  0  0
  140.6690   72.6040  222.5280 C   0  0  0  0  0  0  0  0  0  0  0  0
  139.9270   71.6690  223.3200 N   0  0  0  0  0  0  0  0  0  0  0  0
  138.8850   70.8560  222.7310 C   0  0  0  0  0  0  0  0  0  0  0  0
  139.2230   69.3700  222.8620 C   0  0  0  0  0  0  0  0  0  0  0  0
  139.4850   69.1540  224.3080 C   0  0  0  0  0  0  0  0  0  0  0  0
  139.2550   67.8910  224.8050 C   0  0  0  0  0  0  0  0  0  0  0  0
  139.4680   67.5900  226.1320 C   0  0  0  0  0  0  0  0  0  0  0  0
  139.9280   68.5760  227.0080 C   0  0  0  0  0  0  0  0  0  0  0  0
  140.1570   69.8410  226.5020 C   0  0  0  0  0  0  0  0  0  0  0  0
  139.9390   70.1390  225.1560 C   0  0  0  0  0  0  0  0  0  0  0  0
  140.2200   71.5320  224.7320 C   0  0  0  0  0  0  0  0  0  0  0  0
  141.8230   72.2030  221.9610 N   0  0  0  0  0  0  0  0  0  0  0  0
  145.0640   72.9820  221.1330 C   0  0  0  0  0  0  0  0  0  0  0  0
  146.0230   73.3470  220.0250 C   0  0  0  0  0  0  0  0  0  0  0  0
  145.6390   72.9210  218.7870 O   0  0  0  0  0  0  0  0  0  0  0  0
  146.1913   68.1440  220.4494 H   0  0  0  0  0  0  0  0  0  0  0  0
  145.7822   67.2511  218.9454 H   0  0  0  0  0  0  0  0  0  0  0  0
  147.1273   68.4416  218.9454 H   0  0  0  0  0  0  0  0  0  0  0  0
  144.8038   69.1551  217.9327 H   0  0  0  0  0  0  0  0  0  0  0  0
  144.2857   69.3069  219.6383 H   0  0  0  0  0  0  0  0  0  0  0  0
  146.3660   70.7100  219.9200 H   0  0  0  0  0  0  0  0  0  0  0  0
  144.7290   71.6753  217.6493 H   0  0  0  0  0  0  0  0  0  0  0  0
  142.8868   71.8322  218.9031 H   0  0  0  0  0  0  0  0  0  0  0  0
  143.6945   70.5976  219.9498 H   0  0  0  0  0  0  0  0  0  0  0  0
  139.8235   75.6878  219.4485 H   0  0  0  0  0  0  0  0  0  0  0  0
  138.6402   76.5020  220.4899 H   0  0  0  0  0  0  0  0  0  0  0  0
  141.3549   77.7527  219.6867 H   0  0  0  0  0  0  0  0  0  0  0  0
  139.8735   78.0875  218.8003 H   0  0  0  0  0  0  0  0  0  0  0  0
  139.0722   80.2331  219.5442 H   0  0  0  0  0  0  0  0  0  0  0  0
  138.4163   81.7734  221.3840 H   0  0  0  0  0  0  0  0  0  0  0  0
  138.8687   81.0805  223.7393 H   0  0  0  0  0  0  0  0  0  0  0  0
  139.9364   78.9074  224.2343 H   0  0  0  0  0  0  0  0  0  0  0  0
  141.8468   77.1690  222.5069 H   0  0  0  0  0  0  0  0  0  0  0  0
  140.3456   76.6328  223.3796 H   0  0  0  0  0  0  0  0  0  0  0  0
  137.9344   71.0574  223.2466 H   0  0  0  0  0  0  0  0  0  0  0  0
  138.7996   71.1076  221.6636 H   0  0  0  0  0  0  0  0  0  0  0  0
  138.3773   68.7515  222.5270 H   0  0  0  0  0  0  0  0  0  0  0  0
  140.0874   69.0897  222.2421 H   0  0  0  0  0  0  0  0  0  0  0  0
  138.8929   67.1043  224.1268 H   0  0  0  0  0  0  0  0  0  0  0  0
  139.2757   66.5722  226.5023 H   0  0  0  0  0  0  0  0  0  0  0  0
  140.1029   68.3516  228.0706 H   0  0  0  0  0  0  0  0  0  0  0  0
  140.5195   70.6316  227.1755 H   0  0  0  0  0  0  0  0  0  0  0  0
  139.5896   72.2259  225.3075 H   0  0  0  0  0  0  0  0  0  0  0  0
  141.2791   71.7669  224.9139 H   0  0  0  0  0  0  0  0  0  0  0  0
  144.9119   73.8637  221.7730 H   0  0  0  0  0  0  0  0  0  0  0  0
  145.5050   72.1460  221.6957 H   0  0  0  0  0  0  0  0  0  0  0  0
  146.1176   74.4426  219.9983 H   0  0  0  0  0  0  0  0  0  0  0  0
  146.9732   72.8412  220.2515 H   0  0  0  0  0  0  0  0  0  0  0  0
  1  2  1  0
  2  3  1  0
  3  4  1  0
  4  5  1  0
  5  6  1  0
  6  7  1  0
  7  8  2  0
  8  9  1  0
  9 10  1  0
 10 11  1  0
 11 12  1  0
 12 13  1  0
 13 14  2  0
 14 15  1  0
 15 16  2  0
 16 17  1  0
 17 18  2  0
 18 19  1  0
  9 20  2  0
 20 21  1  0
 21 22  1  0
 22 23  1  0
 23 24  1  0
 24 25  1  0
 25 26  2  0
 26 27  1  0
 27 28  2  0
 28 29  1  0
 29 30  2  0
 30 31  1  0
 21 32  2  0
  6 33  1  0
 33 34  1  0
 34 35  1  0
 35  4  1  0
 32  7  1  0
 19 10  1  0
 31 22  1  0
 18 13  1  0
 30 25  1  0
  1 36  1  0
  1 37  1  0
  1 38  1  0
  2 39  1  0
  2 40  1  0
  3 41  1  0
  4 42  1  6
  5 43  1  0
  5 44  1  0
 11 45  1  0
 11 46  1  0
 12 47  1  0
 12 48  1  0
 14 49  1  0
 15 50  1  0
 16 51  1  0
 17 52  1  0
 19 53  1  0
 19 54  1  0
 23 55  1  0
 23 56  1  0
 24 57  1  0
 24 58  1  0
 26 59  1  0
 27 60  1  0
 28 61  1  0
 29 62  1  0
 31 63  1  0
 31 64  1  0
 33 65  1  0
 33 66  1  0
 34 67  1  0
 34 68  1  0
M  END
>  <smiles>  (62) 
CCNC1CN(c2nc(N3CCc4ccccc4C3)nc(N3CCc4ccccc4C3)n2)CCO1

>  <score_type>  (62) 
oracle

>  <origin>  (62) 
autodockgpu

>  <m_score__min__energy>  (62) 
-9.5500000000000007

>  <m_primary>  (62) 
energy

>  <rmsd>  (62) 
9.166816909076534

>  <m_score__min__rmsd>  (62) 
9.166816909076534

>  <meeko>  (62) 
{"free_energy": -9.04, "intermolecular_energy": -10.53, "internal_energy": -0.98, "cluster_size": 45, "cluster_id": 1, "rank_in_cluster": 33}

>  <energy>  (62) 
-9.25

>  <cluster_rmsd>  (62) 
1.33

>  <cluster>  (62) 
1

$$$$

     RDKit          3D

 68 73  0  0  1  0  0  0  0  0999 V2000
  146.3400   73.7720  221.0160 C   0  0  0  0  0  0  0  0  0  0  0  0
  146.3060   72.5490  220.1030 C   0  0  0  0  0  0  0  0  0  0  0  0
  145.9170   72.9790  218.7750 N   0  0  0  0  0  0  0  0  0  0  0  0
  144.5300   72.7050  218.4660 C   0  0  1  0  0  0  0  0  0  0  0  0
  143.7950   72.5970  219.7650 C   0  0  0  0  0  0  0  0  0  0  0  0
  143.0270   73.7820  220.0250 N   0  0  0  0  0  0  0  0  0  0  0  0
  141.8530   73.7300  220.8620 C   0  0  0  0  0  0  0  0  0  0  0  0
  141.5890   72.6520  221.6350 N   0  0  0  0  0  0  0  0  0  0  0  0
  140.4950   72.6310  222.4010 C   0  0  0  0  0  0  0  0  0  0  0  0
  140.1370   71.5390  223.2450 N   0  0  0  0  0  0  0  0  0  0  0  0
  139.2460   70.4930  222.8000 C   0  0  0  0  0  0  0  0  0  0  0  0
  138.2520   70.2560  223.9410 C   0  0  0  0  0  0  0  0  0  0  0  0
  139.0860   69.6390  225.0320 C   0  0  0  0  0  0  0  0  0  0  0  0
  138.6720   68.5060  225.6990 C   0  0  0  0  0  0  0  0  0  0  0  0
  139.4490   67.9580  226.6920 C   0  0  0  0  0  0  0  0  0  0  0  0
  140.6510   68.5820  226.9960 C   0  0  0  0  0  0  0  0  0  0  0  0
  141.0590   69.7250  226.3150 C   0  0  0  0  0  0  0  0  0  0  0  0
  140.2760   70.2860  225.3060 C   0  0  0  0  0  0  0  0  0  0  0  0
  140.6880   71.4930  224.5760 C   0  0  0  0  0  0  0  0  0  0  0  0
  139.6670   73.7130  222.3790 N   0  0  0  0  0  0  0  0  0  0  0  0
  139.9090   74.7830  221.6270 C   0  0  0  0  0  0  0  0  0  0  0  0
  139.0520   75.9300  221.5890 N   0  0  0  0  0  0  0  0  0  0  0  0
  137.6720   75.8160  221.1670 C   0  0  0  0  0  0  0  0  0  0  0  0
  136.7280   76.2310  222.2970 C   0  0  0  0  0  0  0  0  0  0  0  0
  137.1780   77.5860  222.7060 C   0  0  0  0  0  0  0  0  0  0  0  0
  136.2340   78.4200  223.2600 C   0  0  0  0  0  0  0  0  0  0  0  0
  136.5530   79.6960  223.6710 C   0  0  0  0  0  0  0  0  0  0  0  0
  137.8580   80.1700  223.5310 C   0  0  0  0  0  0  0  0  0  0  0  0
  138.8010   79.3280  222.9740 C   0  0  0  0  0  0  0  0  0  0  0  0
  138.4710   78.0370  222.5590 C   0  0  0  0  0  0  0  0  0  0  0  0
  139.5690   77.2270  221.9760 C   0  0  0  0  0  0  0  0  0  0  0  0
  141.0180   74.7760  220.8650 N   0  0  0  0  0  0  0  0  0  0  0  0
  143.4570   75.0230  219.4300 C   0  0  0  0  0  0  0  0  0  0  0  0
  143.8240   74.8660  217.9730 C   0  0  0  0  0  0  0  0  0  0  0  0
  143.9820   73.5730  217.5690 O   0  0  0  0  0  0  0  0  0  0  0  0
  146.3309   73.4457  222.0665 H   0  0  0  0  0  0  0  0  0  0  0  0
  147.2546   74.3508  220.8197 H   0  0  0  0  0  0  0  0  0  0  0  0
  145.4590   74.4007  220.8197 H   0  0  0  0  0  0  0  0  0  0  0  0
  147.3028   72.0854  220.0661 H   0  0  0  0  0  0  0  0  0  0  0  0
  145.5861   71.8112  220.4869 H   0  0  0  0  0  0  0  0  0  0  0  0
  146.2100   73.9320  218.5510 H   0  0  0  0  0  0  0  0  0  0  0  0
  144.4472   71.7487  217.9287 H   0  0  0  0  0  0  0  0  0  0  0  0
  143.1172   71.7317  219.7233 H   0  0  0  0  0  0  0  0  0  0  0  0
  144.5308   72.4735  220.5733 H   0  0  0  0  0  0  0  0  0  0  0  0
  138.7132   70.8085  221.8909 H   0  0  0  0  0  0  0  0  0  0  0  0
  139.8000   69.5743  222.5570 H   0  0  0  0  0  0  0  0  0  0  0  0
  137.8097   71.2054  224.2771 H   0  0  0  0  0  0  0  0  0  0  0  0
  137.4092   69.6161  223.6407 H   0  0  0  0  0  0  0  0  0  0  0  0
  137.7128   68.0368  225.4348 H   0  0  0  0  0  0  0  0  0  0  0  0
  139.1281   67.0531  227.2289 H   0  0  0  0  0  0  0  0  0  0  0  0
  141.2914   68.1664  227.7879 H   0  0  0  0  0  0  0  0  0  0  0  0
  142.0180   70.1954  226.5776 H   0  0  0  0  0  0  0  0  0  0  0  0
  140.3449   72.3778  225.1322 H   0  0  0  0  0  0  0  0  0  0  0  0
  141.7843   71.4762  224.4872 H   0  0  0  0  0  0  0  0  0  0  0  0
  137.5045   76.4690  220.2978 H   0  0  0  0  0  0  0  0  0  0  0  0
  137.4677   74.7685  220.9006 H   0  0  0  0  0  0  0  0  0  0  0  0
  135.6884   76.2621  221.9387 H   0  0  0  0  0  0  0  0  0  0  0  0
  136.7545   75.5196  223.1356 H   0  0  0  0  0  0  0  0  0  0  0  0
  135.2013   78.0599  223.3774 H   0  0  0  0  0  0  0  0  0  0  0  0
  135.7781   80.3417  224.1099 H   0  0  0  0  0  0  0  0  0  0  0  0
  138.1283   81.1858  223.8551 H   0  0  0  0  0  0  0  0  0  0  0  0
  139.8353   79.6831  222.8549 H   0  0  0  0  0  0  0  0  0  0  0  0
  139.9747   77.7400  221.0915 H   0  0  0  0  0  0  0  0  0  0  0  0
  140.3683   77.0985  222.7207 H   0  0  0  0  0  0  0  0  0  0  0  0
  142.6405   75.7556  219.5117 H   0  0  0  0  0  0  0  0  0  0  0  0
  144.3555   75.3594  219.9680 H   0  0  0  0  0  0  0  0  0  0  0  0
  143.0274   75.3213  217.3663 H   0  0  0  0  0  0  0  0  0  0  0  0
  144.7985   75.3585  217.8394 H   0  0  0  0  0  0  0  0  0  0  0  0
  1  2  1  0
  2  3  1  0
  3  4  1  0
  4  5  1  0
  5  6  1  0
  6  7  1  0
  7  8  2  0
  8  9  1  0
  9 10  1  0
 10 11  1  0
 11 12  1  0
 12 13  1  0
 13 14  2  0
 14 15  1  0
 15 16  2  0
 16 17  1  0
 17 18  2  0
 18 19  1  0
  9 20  2  0
 20 21  1  0
 21 22  1  0
 22 23  1  0
 23 24  1  0
 24 25  1  0
 25 26  2  0
 26 27  1  0
 27 28  2  0
 28 29  1  0
 29 30  2  0
 30 31  1  0
 21 32  2  0
  6 33  1  0
 33 34  1  0
 34 35  1  0
 35  4  1  0
 32  7  1  0
 19 10  1  0
 31 22  1  0
 18 13  1  0
 30 25  1  0
  1 36  1  0
  1 37  1  0
  1 38  1  0
  2 39  1  0
  2 40  1  0
  3 41  1  0
  4 42  1  6
  5 43  1  0
  5 44  1  0
 11 45  1  0
 11 46  1  0
 12 47  1  0
 12 48  1  0
 14 49  1  0
 15 50  1  0
 16 51  1  0
 17 52  1  0
 19 53  1  0
 19 54  1  0
 23 55  1  0
 23 56  1  0
 24 57  1  0
 24 58  1  0
 26 59  1  0
 27 60  1  0
 28 61  1  0
 29 62  1  0
 31 63  1  0
 31 64  1  0
 33 65  1  0
 33 66  1  0
 34 67  1  0
 34 68  1  0
M  END
>  <smiles>  (63) 
CCNC1CN(c2nc(N3CCc4ccccc4C3)nc(N3CCc4ccccc4C3)n2)CCO1

>  <score_type>  (63) 
oracle

>  <origin>  (63) 
autodockgpu

>  <m_score__min__energy>  (63) 
-9.5500000000000007

>  <m_primary>  (63) 
energy

>  <rmsd>  (63) 
6.231234821210663

>  <m_score__min__rmsd>  (63) 
6.231234821210663

>  <meeko>  (63) 
{"free_energy": -9.55, "intermolecular_energy": -11.05, "internal_energy": -0.99, "cluster_size": 45, "cluster_id": 1, "rank_in_cluster": 1}

>  <energy>  (63) 
-9.24

>  <cluster_rmsd>  (63) 
1.34

>  <cluster>  (63) 
1

$$$$

     RDKit          3D

 68 73  0  0  1  0  0  0  0  0999 V2000
  146.2730   73.7540  220.9980 C   0  0  0  0  0  0  0  0  0  0  0  0
  145.9330   72.5440  220.1320 C   0  0  0  0  0  0  0  0  0  0  0  0
  145.6280   73.0090  218.7940 N   0  0  0  0  0  0  0  0  0  0  0  0
  144.2200   72.9410  218.4690 C   0  0  1  0  0  0  0  0  0  0  0  0
  143.4880   72.5850  219.7240 C   0  0  0  0  0  0  0  0  0  0  0  0
  142.8340   73.7320  220.2860 N   0  0  0  0  0  0  0  0  0  0  0  0
  141.6670   73.5810  221.1200 C   0  0  0  0  0  0  0  0  0  0  0  0
  141.5180   72.5090  221.9320 N   0  0  0  0  0  0  0  0  0  0  0  0
  140.4270   72.3950  222.6930 C   0  0  0  0  0  0  0  0  0  0  0  0
  140.1860   71.3020  223.5770 N   0  0  0  0  0  0  0  0  0  0  0  0
  139.5560   70.0830  223.1240 C   0  0  0  0  0  0  0  0  0  0  0  0
  138.5050   69.7220  224.1770 C   0  0  0  0  0  0  0  0  0  0  0  0
  139.3140   69.3340  225.3870 C   0  0  0  0  0  0  0  0  0  0  0  0
  139.0450   68.1810  226.0910 C   0  0  0  0  0  0  0  0  0  0  0  0
  139.7950   67.8450  227.1920 C   0  0  0  0  0  0  0  0  0  0  0  0
  140.8210   68.7020  227.5650 C   0  0  0  0  0  0  0  0  0  0  0  0
  141.0840   69.8630  226.8460 C   0  0  0  0  0  0  0  0  0  0  0  0
  140.3270   70.2110  225.7270 C   0  0  0  0  0  0  0  0  0  0  0  0
  140.5870   71.4330  224.9540 C   0  0  0  0  0  0  0  0  0  0  0  0
  139.4850   73.3760  222.6290 N   0  0  0  0  0  0  0  0  0  0  0  0
  139.6120   74.4390  221.8380 C   0  0  0  0  0  0  0  0  0  0  0  0
  138.6330   75.4820  221.7550 N   0  0  0  0  0  0  0  0  0  0  0  0
  137.2430   75.1790  221.4900 C   0  0  0  0  0  0  0  0  0  0  0  0
  136.3620   75.6370  222.6540 C   0  0  0  0  0  0  0  0  0  0  0  0
  136.6940   77.0710  222.8570 C   0  0  0  0  0  0  0  0  0  0  0  0
  135.7160   77.8700  223.4030 C   0  0  0  0  0  0  0  0  0  0  0  0
  135.9260   79.2120  223.6300 C   0  0  0  0  0  0  0  0  0  0  0  0
  137.1540   79.7920  223.3050 C   0  0  0  0  0  0  0  0  0  0  0  0
  138.1310   78.9840  222.7570 C   0  0  0  0  0  0  0  0  0  0  0  0
  137.9110   77.6250  222.5290 C   0  0  0  0  0  0  0  0  0  0  0  0
  139.0360   76.8620  221.9360 C   0  0  0  0  0  0  0  0  0  0  0  0
  140.7210   74.5270  221.0820 N   0  0  0  0  0  0  0  0  0  0  0  0
  143.3720   75.0390  219.9960 C   0  0  0  0  0  0  0  0  0  0  0  0
  143.7120   75.2110  218.5340 C   0  0  0  0  0  0  0  0  0  0  0  0
  143.7470   74.0460  217.8250 O   0  0  0  0  0  0  0  0  0  0  0  0
  146.1955   73.4782  222.0600 H   0  0  0  0  0  0  0  0  0  0  0  0
  147.2989   74.0850  220.7790 H   0  0  0  0  0  0  0  0  0  0  0  0
  145.5696   74.5709  220.7790 H   0  0  0  0  0  0  0  0  0  0  0  0
  146.7918   71.8574  220.0997 H   0  0  0  0  0  0  0  0  0  0  0  0
  145.0680   72.0101  220.5524 H   0  0  0  0  0  0  0  0  0  0  0  0
  146.0630   73.9040  218.5620 H   0  0  0  0  0  0  0  0  0  0  0  0
  144.0461   72.1554  217.7189 H   0  0  0  0  0  0  0  0  0  0  0  0
  142.7334   71.8184  219.4941 H   0  0  0  0  0  0  0  0  0  0  0  0
  144.2158   72.2053  220.4562 H   0  0  0  0  0  0  0  0  0  0  0  0
  139.0763   70.2430  222.1471 H   0  0  0  0  0  0  0  0  0  0  0  0
  140.2925   69.2750  223.0025 H   0  0  0  0  0  0  0  0  0  0  0  0
  137.8615   70.5862  224.3985 H   0  0  0  0  0  0  0  0  0  0  0  0
  137.8327   68.9178  223.8435 H   0  0  0  0  0  0  0  0  0  0  0  0
  138.2234   67.5242  225.7692 H   0  0  0  0  0  0  0  0  0  0  0  0
  139.5888   66.9258  227.7599 H   0  0  0  0  0  0  0  0  0  0  0  0
  141.4363   68.4589  228.4438 H   0  0  0  0  0  0  0  0  0  0  0  0
  141.9058   70.5204  227.1661 H   0  0  0  0  0  0  0  0  0  0  0  0
  140.0284   72.2648  225.4079 H   0  0  0  0  0  0  0  0  0  0  0  0
  141.6708   71.6204  224.9735 H   0  0  0  0  0  0  0  0  0  0  0  0
  136.9283   75.6975  220.5723 H   0  0  0  0  0  0  0  0  0  0  0  0
  137.1335   74.0912  221.3683 H   0  0  0  0  0  0  0  0  0  0  0  0
  135.2979   75.5200  222.4010 H   0  0  0  0  0  0  0  0  0  0  0  0
  136.5407   75.0424  223.5620 H   0  0  0  0  0  0  0  0  0  0  0  0
  134.7438   77.4266  223.6643 H   0  0  0  0  0  0  0  0  0  0  0  0
  135.1260   79.8273  224.0675 H   0  0  0  0  0  0  0  0  0  0  0  0
  137.3380   80.8622  223.4805 H   0  0  0  0  0  0  0  0  0  0  0  0
  139.1052   79.4220  222.4942 H   0  0  0  0  0  0  0  0  0  0  0  0
  139.3033   77.2980  220.9621 H   0  0  0  0  0  0  0  0  0  0  0  0
  139.9072   76.9076  222.6060 H   0  0  0  0  0  0  0  0  0  0  0  0
  142.6269   75.7979  220.2770 H   0  0  0  0  0  0  0  0  0  0  0  0
  144.3019   75.1541  220.5722 H   0  0  0  0  0  0  0  0  0  0  0  0
  142.9561   75.8683  218.0795 H   0  0  0  0  0  0  0  0  0  0  0  0
  144.7264   75.6346  218.4942 H   0  0  0  0  0  0  0  0  0  0  0  0
  1  2  1  0
  2  3  1  0
  3  4  1  0
  4  5  1  0
  5  6  1  0
  6  7  1  0
  7  8  2  0
  8  9  1  0
  9 10  1  0
 10 11  1  0
 11 12  1  0
 12 13  1  0
 13 14  2  0
 14 15  1  0
 15 16  2  0
 16 17  1  0
 17 18  2  0
 18 19  1  0
  9 20  2  0
 20 21  1  0
 21 22  1  0
 22 23  1  0
 23 24  1  0
 24 25  1  0
 25 26  2  0
 26 27  1  0
 27 28  2  0
 28 29  1  0
 29 30  2  0
 30 31  1  0
 21 32  2  0
  6 33  1  0
 33 34  1  0
 34 35  1  0
 35  4  1  0
 32  7  1  0
 19 10  1  0
 31 22  1  0
 18 13  1  0
 30 25  1  0
  1 36  1  0
  1 37  1  0
  1 38  1  0
  2 39  1  0
  2 40  1  0
  3 41  1  0
  4 42  1  6
  5 43  1  0
  5 44  1  0
 11 45  1  0
 11 46  1  0
 12 47  1  0
 12 48  1  0
 14 49  1  0
 15 50  1  0
 16 51  1  0
 17 52  1  0
 19 53  1  0
 19 54  1  0
 23 55  1  0
 23 56  1  0
 24 57  1  0
 24 58  1  0
 26 59  1  0
 27 60  1  0
 28 61  1  0
 29 62  1  0
 31 63  1  0
 31 64  1  0
 33 65  1  0
 33 66  1  0
 34 67  1  0
 34 68  1  0
M  END
>  <smiles>  (64) 
CCNC1CN(c2nc(N3CCc4ccccc4C3)nc(N3CCc4ccccc4C3)n2)CCO1

>  <score_type>  (64) 
oracle

>  <origin>  (64) 
autodockgpu

>  <m_score__min__energy>  (64) 
-9.5500000000000007

>  <m_primary>  (64) 
energy

>  <rmsd>  (64) 
6.158867677945821

>  <m_score__min__rmsd>  (64) 
6.158867677945821

>  <meeko>  (64) 
{"free_energy": -9.39, "intermolecular_energy": -10.88, "internal_energy": -1.05, "cluster_size": 45, "cluster_id": 1, "rank_in_cluster": 8}

>  <energy>  (64) 
-9.24

>  <cluster_rmsd>  (64) 
1.46

>  <cluster>  (64) 
1

$$$$

     RDKit          3D

 68 73  0  0  1  0  0  0  0  0999 V2000
  146.6220   74.5980  215.9620 C   0  0  0  0  0  0  0  0  0  0  0  0
  146.3250   73.1040  216.0520 C   0  0  0  0  0  0  0  0  0  0  0  0
  145.1120   72.9230  216.8230 N   0  0  0  0  0  0  0  0  0  0  0  0
  145.2230   73.3890  218.1880 C   0  0  1  0  0  0  0  0  0  0  0  0
  143.8400   73.6960  218.6690 C   0  0  0  0  0  0  0  0  0  0  0  0
  143.3550   72.6660  219.5440 N   0  0  0  0  0  0  0  0  0  0  0  0
  142.3520   72.9560  220.5390 C   0  0  0  0  0  0  0  0  0  0  0  0
  141.9450   72.0150  221.4210 N   0  0  0  0  0  0  0  0  0  0  0  0
  141.0150   72.3110  222.3320 C   0  0  0  0  0  0  0  0  0  0  0  0
  140.5260   71.3840  223.2990 N   0  0  0  0  0  0  0  0  0  0  0  0
  139.5950   70.3360  222.9470 C   0  0  0  0  0  0  0  0  0  0  0  0
  138.5140   70.3350  224.0310 C   0  0  0  0  0  0  0  0  0  0  0  0
  139.2290   69.8420  225.2620 C   0  0  0  0  0  0  0  0  0  0  0  0
  138.6940   68.8510  226.0550 C   0  0  0  0  0  0  0  0  0  0  0  0
  139.3630   68.4150  227.1740 C   0  0  0  0  0  0  0  0  0  0  0  0
  140.5830   69.0060  227.4730 C   0  0  0  0  0  0  0  0  0  0  0  0
  141.1140   70.0060  226.6640 C   0  0  0  0  0  0  0  0  0  0  0  0
  140.4410   70.4530  225.5270 C   0  0  0  0  0  0  0  0  0  0  0  0
  140.9840   71.5080  224.6600 C   0  0  0  0  0  0  0  0  0  0  0  0
  140.4970   73.5710  222.3460 N   0  0  0  0  0  0  0  0  0  0  0  0
  140.8830   74.5110  221.4880 C   0  0  0  0  0  0  0  0  0  0  0  0
  140.3520   75.8410  221.4840 N   0  0  0  0  0  0  0  0  0  0  0  0
  138.9240   76.0730  221.4730 C   0  0  0  0  0  0  0  0  0  0  0  0
  138.4930   76.8390  222.7260 C   0  0  0  0  0  0  0  0  0  0  0  0
  139.3540   78.0500  222.7600 C   0  0  0  0  0  0  0  0  0  0  0  0
  138.8480   79.1610  223.3950 C   0  0  0  0  0  0  0  0  0  0  0  0
  139.5680   80.3320  223.4790 C   0  0  0  0  0  0  0  0  0  0  0  0
  140.8430   80.4110  222.9150 C   0  0  0  0  0  0  0  0  0  0  0  0
  141.3440   79.2920  222.2790 C   0  0  0  0  0  0  0  0  0  0  0  0
  140.6090   78.1090  222.1970 C   0  0  0  0  0  0  0  0  0  0  0  0
  141.2540   76.9760  221.4900 C   0  0  0  0  0  0  0  0  0  0  0  0
  141.8220   74.1840  220.5810 N   0  0  0  0  0  0  0  0  0  0  0  0
  143.8950   71.3360  219.4030 C   0  0  0  0  0  0  0  0  0  0  0  0
  145.4000   71.3370  219.2700 C   0  0  0  0  0  0  0  0  0  0  0  0
  145.9390   72.5610  218.9990 O   0  0  0  0  0  0  0  0  0  0  0  0
  146.7053   75.0170  216.9757 H   0  0  0  0  0  0  0  0  0  0  0  0
  147.5683   74.7519  215.4227 H   0  0  0  0  0  0  0  0  0  0  0  0
  145.8065   75.1021  215.4227 H   0  0  0  0  0  0  0  0  0  0  0  0
  146.1877   72.6913  215.0416 H   0  0  0  0  0  0  0  0  0  0  0  0
  147.1623   72.5815  216.5377 H   0  0  0  0  0  0  0  0  0  0  0  0
  144.2700   73.2470  216.3430 H   0  0  0  0  0  0  0  0  0  0  0  0
  145.8262   74.3082  218.2220 H   0  0  0  0  0  0  0  0  0  0  0  0
  143.8530   74.6522  219.2127 H   0  0  0  0  0  0  0  0  0  0  0  0
  143.1725   73.7554  217.7967 H   0  0  0  0  0  0  0  0  0  0  0  0
  139.1469   70.5400  221.9633 H   0  0  0  0  0  0  0  0  0  0  0  0
  140.0985   69.3599  222.8855 H   0  0  0  0  0  0  0  0  0  0  0  0
  138.1184   71.3492  224.1890 H   0  0  0  0  0  0  0  0  0  0  0  0
  137.6499   69.7084  223.7651 H   0  0  0  0  0  0  0  0  0  0  0  0
  137.7238   68.4049  225.7908 H   0  0  0  0  0  0  0  0  0  0  0  0
  138.9448   67.6228  227.8123 H   0  0  0  0  0  0  0  0  0  0  0  0
  141.1390   68.6785  228.3639 H   0  0  0  0  0  0  0  0  0  0  0  0
  142.0842   70.4530  226.9265 H   0  0  0  0  0  0  0  0  0  0  0  0
  140.6684   72.4861  225.0522 H   0  0  0  0  0  0  0  0  0  0  0  0
  142.0798   71.4121  224.6575 H   0  0  0  0  0  0  0  0  0  0  0  0
  138.6601   76.6607  220.5814 H   0  0  0  0  0  0  0  0  0  0  0  0
  138.4071   75.1021  221.4556 H   0  0  0  0  0  0  0  0  0  0  0  0
  137.4322   77.1221  222.6588 H   0  0  0  0  0  0  0  0  0  0  0  0
  138.6030   76.2316  223.6365 H   0  0  0  0  0  0  0  0  0  0  0  0
  137.8458   79.1127  223.8457 H   0  0  0  0  0  0  0  0  0  0  0  0
  139.1384   81.2058  223.9908 H   0  0  0  0  0  0  0  0  0  0  0  0
  141.4317   81.3382  222.9755 H   0  0  0  0  0  0  0  0  0  0  0  0
  142.3458   79.3345  221.8266 H   0  0  0  0  0  0  0  0  0  0  0  0
  141.4817   77.2702  220.4548 H   0  0  0  0  0  0  0  0  0  0  0  0
  142.1873   76.7031  222.0044 H   0  0  0  0  0  0  0  0  0  0  0  0
  143.6191   70.7467  220.2899 H   0  0  0  0  0  0  0  0  0  0  0  0
  143.4772   70.8999  218.4836 H   0  0  0  0  0  0  0  0  0  0  0  0
  145.8296   70.9730  220.2150 H   0  0  0  0  0  0  0  0  0  0  0  0
  145.6410   70.6901  218.4136 H   0  0  0  0  0  0  0  0  0  0  0  0
  1  2  1  0
  2  3  1  0
  3  4  1  0
  4  5  1  0
  5  6  1  0
  6  7  1  0
  7  8  2  0
  8  9  1  0
  9 10  1  0
 10 11  1  0
 11 12  1  0
 12 13  1  0
 13 14  2  0
 14 15  1  0
 15 16  2  0
 16 17  1  0
 17 18  2  0
 18 19  1  0
  9 20  2  0
 20 21  1  0
 21 22  1  0
 22 23  1  0
 23 24  1  0
 24 25  1  0
 25 26  2  0
 26 27  1  0
 27 28  2  0
 28 29  1  0
 29 30  2  0
 30 31  1  0
 21 32  2  0
  6 33  1  0
 33 34  1  0
 34 35  1  0
 35  4  1  0
 32  7  1  0
 19 10  1  0
 31 22  1  0
 18 13  1  0
 30 25  1  0
  1 36  1  0
  1 37  1  0
  1 38  1  0
  2 39  1  0
  2 40  1  0
  3 41  1  0
  4 42  1  6
  5 43  1  0
  5 44  1  0
 11 45  1  0
 11 46  1  0
 12 47  1  0
 12 48  1  0
 14 49  1  0
 15 50  1  0
 16 51  1  0
 17 52  1  0
 19 53  1  0
 19 54  1  0
 23 55  1  0
 23 56  1  0
 24 57  1  0
 24 58  1  0
 26 59  1  0
 27 60  1  0
 28 61  1  0
 29 62  1  0
 31 63  1  0
 31 64  1  0
 33 65  1  0
 33 66  1  0
 34 67  1  0
 34 68  1  0
M  END
>  <smiles>  (65) 
CCNC1CN(c2nc(N3CCc4ccccc4C3)nc(N3CCc4ccccc4C3)n2)CCO1

>  <score_type>  (65) 
oracle

>  <origin>  (65) 
autodockgpu

>  <m_score__min__energy>  (65) 
-9.5500000000000007

>  <m_primary>  (65) 
energy

>  <rmsd>  (65) 
7.701252950497141

>  <m_score__min__rmsd>  (65) 
7.701252950497141

>  <meeko>  (65) 
{"free_energy": -9.05, "intermolecular_energy": -10.54, "internal_energy": -0.99, "cluster_size": 45, "cluster_id": 1, "rank_in_cluster": 31}

>  <energy>  (65) 
-9.24

>  <cluster_rmsd>  (65) 
1.33

>  <cluster>  (65) 
1

$$$$

     RDKit          3D

 68 73  0  0  1  0  0  0  0  0999 V2000
  146.2570   73.8170  216.3250 C   0  0  0  0  0  0  0  0  0  0  0  0
  145.3510   73.3630  217.4660 C   0  0  0  0  0  0  0  0  0  0  0  0
  145.8750   72.1230  218.0020 N   0  0  0  0  0  0  0  0  0  0  0  0
  145.5670   71.9260  219.4020 C   0  0  1  0  0  0  0  0  0  0  0  0
  144.5490   72.9540  219.7840 C   0  0  0  0  0  0  0  0  0  0  0  0
  143.2400   72.3750  219.8870 N   0  0  0  0  0  0  0  0  0  0  0  0
  142.2360   72.9660  220.7360 C   0  0  0  0  0  0  0  0  0  0  0  0
  141.9590   74.2890  220.6800 N   0  0  0  0  0  0  0  0  0  0  0  0
  141.0240   74.8100  221.4780 C   0  0  0  0  0  0  0  0  0  0  0  0
  140.6670   76.1910  221.4880 N   0  0  0  0  0  0  0  0  0  0  0  0
  139.9230   76.7920  220.4050 C   0  0  0  0  0  0  0  0  0  0  0  0
  140.6200   78.1180  220.0850 C   0  0  0  0  0  0  0  0  0  0  0  0
  140.3450   78.9780  221.2910 C   0  0  0  0  0  0  0  0  0  0  0  0
  139.8910   80.2720  221.1610 C   0  0  0  0  0  0  0  0  0  0  0  0
  139.6450   81.0400  222.2730 C   0  0  0  0  0  0  0  0  0  0  0  0
  139.8720   80.4710  223.5190 C   0  0  0  0  0  0  0  0  0  0  0  0
  140.3300   79.1620  223.6380 C   0  0  0  0  0  0  0  0  0  0  0  0
  140.5810   78.3770  222.5130 C   0  0  0  0  0  0  0  0  0  0  0  0
  141.0660   76.9930  222.6160 C   0  0  0  0  0  0  0  0  0  0  0  0
  140.3680   73.9810  222.3370 N   0  0  0  0  0  0  0  0  0  0  0  0
  140.6240   72.6770  222.4080 C   0  0  0  0  0  0  0  0  0  0  0  0
  139.9470   71.7870  223.3030 N   0  0  0  0  0  0  0  0  0  0  0  0
  138.8170   71.0000  222.8580 C   0  0  0  0  0  0  0  0  0  0  0  0
  139.1170   69.5060  222.9870 C   0  0  0  0  0  0  0  0  0  0  0  0
  139.5370   69.3110  224.3990 C   0  0  0  0  0  0  0  0  0  0  0  0
  139.3230   68.0680  224.9500 C   0  0  0  0  0  0  0  0  0  0  0  0
  139.6760   67.7890  226.2520 C   0  0  0  0  0  0  0  0  0  0  0  0
  140.2670   68.7750  227.0440 C   0  0  0  0  0  0  0  0  0  0  0  0
  140.4790   70.0200  226.4830 C   0  0  0  0  0  0  0  0  0  0  0  0
  140.1170   70.2970  225.1640 C   0  0  0  0  0  0  0  0  0  0  0  0
  140.3950   71.6700  224.6760 C   0  0  0  0  0  0  0  0  0  0  0  0
  141.5720   72.1800  221.5910 N   0  0  0  0  0  0  0  0  0  0  0  0
  142.9540   71.1870  219.1190 C   0  0  0  0  0  0  0  0  0  0  0  0
  144.0610   70.1630  219.2090 C   0  0  0  0  0  0  0  0  0  0  0  0
  145.2310   70.6440  219.7200 O   0  0  0  0  0  0  0  0  0  0  0  0
  147.1679   74.2735  216.7395 H   0  0  0  0  0  0  0  0  0  0  0  0
  146.5304   72.9494  215.7065 H   0  0  0  0  0  0  0  0  0  0  0  0
  145.7257   74.5554  215.7065 H   0  0  0  0  0  0  0  0  0  0  0  0
  145.3337   74.1302  218.2541 H   0  0  0  0  0  0  0  0  0  0  0  0
  144.3261   73.2112  217.0966 H   0  0  0  0  0  0  0  0  0  0  0  0
  145.6790   71.3090  217.4180 H   0  0  0  0  0  0  0  0  0  0  0  0
  146.4721   72.0749  220.0091 H   0  0  0  0  0  0  0  0  0  0  0  0
  144.8260   73.3897  220.7553 H   0  0  0  0  0  0  0  0  0  0  0  0
  144.5267   73.7288  219.0035 H   0  0  0  0  0  0  0  0  0  0  0  0
  139.9350   76.1336  219.5239 H   0  0  0  0  0  0  0  0  0  0  0  0
  138.8711   76.9517  220.6842 H   0  0  0  0  0  0  0  0  0  0  0  0
  141.7014   77.9682  219.9506 H   0  0  0  0  0  0  0  0  0  0  0  0
  140.2563   78.5716  219.1512 H   0  0  0  0  0  0  0  0  0  0  0  0
  139.7241   80.6937  220.1588 H   0  0  0  0  0  0  0  0  0  0  0  0
  139.2797   82.0733  222.1793 H   0  0  0  0  0  0  0  0  0  0  0  0
  139.6869   81.0642  224.4267 H   0  0  0  0  0  0  0  0  0  0  0  0
  140.4973   78.7383  224.6393 H   0  0  0  0  0  0  0  0  0  0  0  0
  142.1646   77.0058  222.6706 H   0  0  0  0  0  0  0  0  0  0  0  0
  140.6253   76.5472  223.5199 H   0  0  0  0  0  0  0  0  0  0  0  0
  137.9396   71.2470  223.4738 H   0  0  0  0  0  0  0  0  0  0  0  0
  138.6178   71.2316  221.8013 H   0  0  0  0  0  0  0  0  0  0  0  0
  138.2177   68.9120  222.7670 H   0  0  0  0  0  0  0  0  0  0  0  0
  139.8940   69.1811  222.2794 H   0  0  0  0  0  0  0  0  0  0  0  0
  138.8601   67.2803  224.3374 H   0  0  0  0  0  0  0  0  0  0  0  0
  139.4919   66.7876  226.6683 H   0  0  0  0  0  0  0  0  0  0  0  0
  140.5557   68.5669  228.0849 H   0  0  0  0  0  0  0  0  0  0  0  0
  140.9438   70.8109  227.0901 H   0  0  0  0  0  0  0  0  0  0  0  0
  139.8584   72.3986  225.3015 H   0  0  0  0  0  0  0  0  0  0  0  0
  141.4752   71.8702  224.7308 H   0  0  0  0  0  0  0  0  0  0  0  0
  142.0246   70.7367  219.4977 H   0  0  0  0  0  0  0  0  0  0  0  0
  142.8571   71.4845  218.0644 H   0  0  0  0  0  0  0  0  0  0  0  0
  143.7170   69.3395  219.8521 H   0  0  0  0  0  0  0  0  0  0  0  0
  144.2761   69.8405  218.1795 H   0  0  0  0  0  0  0  0  0  0  0  0
  1  2  1  0
  2  3  1  0
  3  4  1  0
  4  5  1  0
  5  6  1  0
  6  7  1  0
  7  8  2  0
  8  9  1  0
  9 10  1  0
 10 11  1  0
 11 12  1  0
 12 13  1  0
 13 14  2  0
 14 15  1  0
 15 16  2  0
 16 17  1  0
 17 18  2  0
 18 19  1  0
  9 20  2  0
 20 21  1  0
 21 22  1  0
 22 23  1  0
 23 24  1  0
 24 25  1  0
 25 26  2  0
 26 27  1  0
 27 28  2  0
 28 29  1  0
 29 30  2  0
 30 31  1  0
 21 32  2  0
  6 33  1  0
 33 34  1  0
 34 35  1  0
 35  4  1  0
 32  7  1  0
 19 10  1  0
 31 22  1  0
 18 13  1  0
 30 25  1  0
  1 36  1  0
  1 37  1  0
  1 38  1  0
  2 39  1  0
  2 40  1  0
  3 41  1  0
  4 42  1  1
  5 43  1  0
  5 44  1  0
 11 45  1  0
 11 46  1  0
 12 47  1  0
 12 48  1  0
 14 49  1  0
 15 50  1  0
 16 51  1  0
 17 52  1  0
 19 53  1  0
 19 54  1  0
 23 55  1  0
 23 56  1  0
 24 57  1  0
 24 58  1  0
 26 59  1  0
 27 60  1  0
 28 61  1  0
 29 62  1  0
 31 63  1  0
 31 64  1  0
 33 65  1  0
 33 66  1  0
 34 67  1  0
 34 68  1  0
M  END
>  <smiles>  (66) 
CCNC1CN(c2nc(N3CCc4ccccc4C3)nc(N3CCc4ccccc4C3)n2)CCO1

>  <score_type>  (66) 
oracle

>  <origin>  (66) 
autodockgpu

>  <m_score__min__energy>  (66) 
-9.5500000000000007

>  <m_primary>  (66) 
energy

>  <rmsd>  (66) 
7.534933934491975

>  <m_score__min__rmsd>  (66) 
7.534933934491975

>  <meeko>  (66) 
{"free_energy": -8.69, "intermolecular_energy": -10.19, "internal_energy": -1.02, "cluster_size": 45, "cluster_id": 1, "rank_in_cluster": 41}

>  <energy>  (66) 
-9.23

>  <cluster_rmsd>  (66) 
1.34

>  <cluster>  (66) 
1

$$$$

     RDKit          3D

 68 73  0  0  1  0  0  0  0  0999 V2000
  146.3120   73.7550  221.2110 C   0  0  0  0  0  0  0  0  0  0  0  0
  146.2590   72.5780  220.2400 C   0  0  0  0  0  0  0  0  0  0  0  0
  145.8840   73.0790  218.9330 N   0  0  0  0  0  0  0  0  0  0  0  0
  144.5050   72.8110  218.5880 C   0  0  1  0  0  0  0  0  0  0  0  0
  143.7550   72.6150  219.8680 C   0  0  0  0  0  0  0  0  0  0  0  0
  142.9710   73.7730  220.1910 N   0  0  0  0  0  0  0  0  0  0  0  0
  141.7870   73.6570  221.0080 C   0  0  0  0  0  0  0  0  0  0  0  0
  141.5790   72.5750  221.7930 N   0  0  0  0  0  0  0  0  0  0  0  0
  140.4740   72.4950  222.5390 C   0  0  0  0  0  0  0  0  0  0  0  0
  140.1720   71.3950  223.3950 N   0  0  0  0  0  0  0  0  0  0  0  0
  139.4470   70.2380  222.9210 C   0  0  0  0  0  0  0  0  0  0  0  0
  138.3930   69.9210  223.9860 C   0  0  0  0  0  0  0  0  0  0  0  0
  139.1960   69.4390  225.1650 C   0  0  0  0  0  0  0  0  0  0  0  0
  138.8580   68.2870  225.8410 C   0  0  0  0  0  0  0  0  0  0  0  0
  139.6040   67.8640  226.9150 C   0  0  0  0  0  0  0  0  0  0  0  0
  140.6970   68.6330  227.2900 C   0  0  0  0  0  0  0  0  0  0  0  0
  141.0290   69.7950  226.6000 C   0  0  0  0  0  0  0  0  0  0  0  0
  140.2760   70.2300  225.5090 C   0  0  0  0  0  0  0  0  0  0  0  0
  140.6090   71.4540  224.7670 C   0  0  0  0  0  0  0  0  0  0  0  0
  139.5780   73.5190  222.4850 N   0  0  0  0  0  0  0  0  0  0  0  0
  139.7640   74.5920  221.7200 C   0  0  0  0  0  0  0  0  0  0  0  0
  138.8350   75.6800  221.6480 N   0  0  0  0  0  0  0  0  0  0  0  0
  137.4520   75.4560  221.2870 C   0  0  0  0  0  0  0  0  0  0  0  0
  136.5230   75.8800  222.4270 C   0  0  0  0  0  0  0  0  0  0  0  0
  136.9000   77.2830  222.7380 C   0  0  0  0  0  0  0  0  0  0  0  0
  135.9250   78.0900  223.2790 C   0  0  0  0  0  0  0  0  0  0  0  0
  136.1760   79.4050  223.6010 C   0  0  0  0  0  0  0  0  0  0  0  0
  137.4430   79.9490  223.3830 C   0  0  0  0  0  0  0  0  0  0  0  0
  138.4180   79.1340  222.8410 C   0  0  0  0  0  0  0  0  0  0  0  0
  138.1560   77.8020  222.5150 C   0  0  0  0  0  0  0  0  0  0  0  0
  139.2820   77.0270  221.9390 C   0  0  0  0  0  0  0  0  0  0  0  0
  140.8860   74.6460  220.9790 N   0  0  0  0  0  0  0  0  0  0  0  0
  143.3950   75.0530  219.6800 C   0  0  0  0  0  0  0  0  0  0  0  0
  143.7820   74.9910  218.2210 C   0  0  0  0  0  0  0  0  0  0  0  0
  143.9580   73.7270  217.7400 O   0  0  0  0  0  0  0  0  0  0  0  0
  146.2951   73.3788  222.2445 H   0  0  0  0  0  0  0  0  0  0  0  0
  147.2368   74.3267  221.0440 H   0  0  0  0  0  0  0  0  0  0  0  0
  145.4423   74.4075  221.0440 H   0  0  0  0  0  0  0  0  0  0  0  0
  147.2471   72.0978  220.1842 H   0  0  0  0  0  0  0  0  0  0  0  0
  145.5238   71.8363  220.5854 H   0  0  0  0  0  0  0  0  0  0  0  0
  146.1720   74.0450  218.7660 H   0  0  0  0  0  0  0  0  0  0  0  0
  144.4407   71.8900  217.9900 H   0  0  0  0  0  0  0  0  0  0  0  0
  143.0874   71.7470  219.7637 H   0  0  0  0  0  0  0  0  0  0  0  0
  144.4821   72.4491  220.6766 H   0  0  0  0  0  0  0  0  0  0  0  0
  138.9611   70.4612  221.9597 H   0  0  0  0  0  0  0  0  0  0  0  0
  140.1210   69.3836  222.7607 H   0  0  0  0  0  0  0  0  0  0  0  0
  137.8183   70.8219  224.2470 H   0  0  0  0  0  0  0  0  0  0  0  0
  137.6573   69.1781  223.6441 H   0  0  0  0  0  0  0  0  0  0  0  0
  137.9844   67.7014  225.5187 H   0  0  0  0  0  0  0  0  0  0  0  0
  139.3431   66.9450  227.4602 H   0  0  0  0  0  0  0  0  0  0  0  0
  141.3110   68.3187  228.1469 H   0  0  0  0  0  0  0  0  0  0  0  0
  141.9022   70.3820  226.9210 H   0  0  0  0  0  0  0  0  0  0  0  0
  140.1214   72.3093  225.2576 H   0  0  0  0  0  0  0  0  0  0  0  0
  141.7036   71.5623  224.7683 H   0  0  0  0  0  0  0  0  0  0  0  0
  137.2131   76.0436  220.3883 H   0  0  0  0  0  0  0  0  0  0  0  0
  137.3058   74.3837  221.0901 H   0  0  0  0  0  0  0  0  0  0  0  0
  135.4717   75.8251  222.1081 H   0  0  0  0  0  0  0  0  0  0  0  0
  136.6239   75.2239  223.3041 H   0  0  0  0  0  0  0  0  0  0  0  0
  134.9222   77.6748  223.4582 H   0  0  0  0  0  0  0  0  0  0  0  0
  135.3773   80.0276  224.0305 H   0  0  0  0  0  0  0  0  0  0  0  0
  137.6591   80.9975  223.6358 H   0  0  0  0  0  0  0  0  0  0  0  0
  139.4231   79.5437  222.6623 H   0  0  0  0  0  0  0  0  0  0  0  0
  139.6239   77.5094  221.0114 H   0  0  0  0  0  0  0  0  0  0  0  0
  140.1129   76.9927  222.6590 H   0  0  0  0  0  0  0  0  0  0  0  0
  142.5697   75.7708  219.7964 H   0  0  0  0  0  0  0  0  0  0  0  0
  144.2831   75.3641  220.2497 H   0  0  0  0  0  0  0  0  0  0  0  0
  142.9886   75.4758  217.6333 H   0  0  0  0  0  0  0  0  0  0  0  0
  144.7528   75.5002  218.1308 H   0  0  0  0  0  0  0  0  0  0  0  0
  1  2  1  0
  2  3  1  0
  3  4  1  0
  4  5  1  0
  5  6  1  0
  6  7  1  0
  7  8  2  0
  8  9  1  0
  9 10  1  0
 10 11  1  0
 11 12  1  0
 12 13  1  0
 13 14  2  0
 14 15  1  0
 15 16  2  0
 16 17  1  0
 17 18  2  0
 18 19  1  0
  9 20  2  0
 20 21  1  0
 21 22  1  0
 22 23  1  0
 23 24  1  0
 24 25  1  0
 25 26  2  0
 26 27  1  0
 27 28  2  0
 28 29  1  0
 29 30  2  0
 30 31  1  0
 21 32  2  0
  6 33  1  0
 33 34  1  0
 34 35  1  0
 35  4  1  0
 32  7  1  0
 19 10  1  0
 31 22  1  0
 18 13  1  0
 30 25  1  0
  1 36  1  0
  1 37  1  0
  1 38  1  0
  2 39  1  0
  2 40  1  0
  3 41  1  0
  4 42  1  6
  5 43  1  0
  5 44  1  0
 11 45  1  0
 11 46  1  0
 12 47  1  0
 12 48  1  0
 14 49  1  0
 15 50  1  0
 16 51  1  0
 17 52  1  0
 19 53  1  0
 19 54  1  0
 23 55  1  0
 23 56  1  0
 24 57  1  0
 24 58  1  0
 26 59  1  0
 27 60  1  0
 28 61  1  0
 29 62  1  0
 31 63  1  0
 31 64  1  0
 33 65  1  0
 33 66  1  0
 34 67  1  0
 34 68  1  0
M  END
>  <smiles>  (67) 
CCNC1CN(c2nc(N3CCc4ccccc4C3)nc(N3CCc4ccccc4C3)n2)CCO1

>  <score_type>  (67) 
oracle

>  <origin>  (67) 
autodockgpu

>  <m_score__min__energy>  (67) 
-9.5500000000000007

>  <m_primary>  (67) 
energy

>  <rmsd>  (67) 
6.174584649278614

>  <m_score__min__rmsd>  (67) 
6.174584649278614

>  <meeko>  (67) 
{"free_energy": -9.51, "intermolecular_energy": -11.0, "internal_energy": -1.01, "cluster_size": 45, "cluster_id": 1, "rank_in_cluster": 3}

>  <energy>  (67) 
-9.21

>  <cluster_rmsd>  (67) 
1.48

>  <cluster>  (67) 
1

$$$$

     RDKit          3D

 68 73  0  0  1  0  0  0  0  0999 V2000
  145.2060   75.1470  215.8110 C   0  0  0  0  0  0  0  0  0  0  0  0
  146.1480   74.0720  216.3460 C   0  0  0  0  0  0  0  0  0  0  0  0
  145.3710   73.1230  217.1160 N   0  0  0  0  0  0  0  0  0  0  0  0
  145.4200   73.3620  218.5420 C   0  0  1  0  0  0  0  0  0  0  0  0
  144.0430   73.7530  218.9770 C   0  0  0  0  0  0  0  0  0  0  0  0
  143.3830   72.6670  219.6460 N   0  0  0  0  0  0  0  0  0  0  0  0
  142.3390   72.9190  220.6090 C   0  0  0  0  0  0  0  0  0  0  0  0
  141.9230   71.9560  221.4620 N   0  0  0  0  0  0  0  0  0  0  0  0
  140.9550   72.2180  222.3440 C   0  0  0  0  0  0  0  0  0  0  0  0
  140.4550   71.2650  223.2800 N   0  0  0  0  0  0  0  0  0  0  0  0
  139.3630   70.3770  222.9520 C   0  0  0  0  0  0  0  0  0  0  0  0
  138.4110   70.3990  224.1520 C   0  0  0  0  0  0  0  0  0  0  0  0
  139.1820   69.7050  225.2440 C   0  0  0  0  0  0  0  0  0  0  0  0
  138.6080   68.7130  226.0080 C   0  0  0  0  0  0  0  0  0  0  0  0
  139.3290   68.0910  227.0000 C   0  0  0  0  0  0  0  0  0  0  0  0
  140.6400   68.4980  227.2020 C   0  0  0  0  0  0  0  0  0  0  0  0
  141.2090   69.5020  226.4250 C   0  0  0  0  0  0  0  0  0  0  0  0
  140.4840   70.1360  225.4160 C   0  0  0  0  0  0  0  0  0  0  0  0
  141.0650   71.1990  224.5830 C   0  0  0  0  0  0  0  0  0  0  0  0
  140.4090   73.4650  222.3570 N   0  0  0  0  0  0  0  0  0  0  0  0
  140.8030   74.4270  221.5270 C   0  0  0  0  0  0  0  0  0  0  0  0
  140.2420   75.7450  221.5230 N   0  0  0  0  0  0  0  0  0  0  0  0
  138.8100   75.9450  221.4600 C   0  0  0  0  0  0  0  0  0  0  0  0
  138.3130   76.6800  222.7060 C   0  0  0  0  0  0  0  0  0  0  0  0
  139.1440   77.9080  222.7940 C   0  0  0  0  0  0  0  0  0  0  0  0
  138.5880   78.9970  223.4260 C   0  0  0  0  0  0  0  0  0  0  0  0
  139.2770   80.1820  223.5580 C   0  0  0  0  0  0  0  0  0  0  0  0
  140.5710   80.3000  223.0460 C   0  0  0  0  0  0  0  0  0  0  0  0
  141.1230   79.2030  222.4130 C   0  0  0  0  0  0  0  0  0  0  0  0
  140.4180   78.0050  222.2820 C   0  0  0  0  0  0  0  0  0  0  0  0
  141.1160   76.8990  221.5830 C   0  0  0  0  0  0  0  0  0  0  0  0
  141.7800   74.1350  220.6490 N   0  0  0  0  0  0  0  0  0  0  0  0
  143.7890   71.3190  219.3300 C   0  0  0  0  0  0  0  0  0  0  0  0
  145.2910   71.1640  219.2940 C   0  0  0  0  0  0  0  0  0  0  0  0
  145.9770   72.3430  219.2550 O   0  0  0  0  0  0  0  0  0  0  0  0
  144.7401   75.6787  216.6538 H   0  0  0  0  0  0  0  0  0  0  0  0
  145.7750   75.8605  215.1968 H   0  0  0  0  0  0  0  0  0  0  0  0
  144.4240   74.6766  215.1968 H   0  0  0  0  0  0  0  0  0  0  0  0
  146.6377   73.5565  215.5067 H   0  0  0  0  0  0  0  0  0  0  0  0
  146.9210   74.5297  216.9807 H   0  0  0  0  0  0  0  0  0  0  0  0
  144.4270   72.9770  216.7540 H   0  0  0  0  0  0  0  0  0  0  0  0
  146.1121   74.1887  218.7598 H   0  0  0  0  0  0  0  0  0  0  0  0
  144.1131   74.6087  219.6646 H   0  0  0  0  0  0  0  0  0  0  0  0
  143.4579   74.0202  218.0846 H   0  0  0  0  0  0  0  0  0  0  0  0
  138.8442   70.7298  222.0485 H   0  0  0  0  0  0  0  0  0  0  0  0
  139.7251   69.3583  222.7493 H   0  0  0  0  0  0  0  0  0  0  0  0
  138.1698   71.4327  224.4404 H   0  0  0  0  0  0  0  0  0  0  0  0
  137.4492   69.9101  223.9375 H   0  0  0  0  0  0  0  0  0  0  0  0
  137.5651   68.4161  225.8232 H   0  0  0  0  0  0  0  0  0  0  0  0
  138.8806   67.2960  227.6140 H   0  0  0  0  0  0  0  0  0  0  0  0
  141.2396   68.0187  227.9899 H   0  0  0  0  0  0  0  0  0  0  0  0
  142.2511   69.8017  226.6100 H   0  0  0  0  0  0  0  0  0  0  0  0
  140.9218   72.1645  225.0903 H   0  0  0  0  0  0  0  0  0  0  0  0
  142.1327   70.9734  224.4445 H   0  0  0  0  0  0  0  0  0  0  0  0
  138.5673   76.5411  220.5679 H   0  0  0  0  0  0  0  0  0  0  0  0
  138.3171   74.9630  221.4077 H   0  0  0  0  0  0  0  0  0  0  0  0
  137.2496   76.9411  222.6009 H   0  0  0  0  0  0  0  0  0  0  0  0
  138.4005   76.0598  223.6103 H   0  0  0  0  0  0  0  0  0  0  0  0
  137.5699   78.9190  223.8350 H   0  0  0  0  0  0  0  0  0  0  0  0
  138.8076   81.0366  224.0673 H   0  0  0  0  0  0  0  0  0  0  0  0
  141.1346   81.2395  223.1439 H   0  0  0  0  0  0  0  0  0  0  0  0
  142.1411   79.2751  222.0029 H   0  0  0  0  0  0  0  0  0  0  0  0
  141.3772   77.2158  220.5625 H   0  0  0  0  0  0  0  0  0  0  0  0
  142.0344   76.6384  222.1295 H   0  0  0  0  0  0  0  0  0  0  0  0
  143.3818   70.6393  220.0930 H   0  0  0  0  0  0  0  0  0  0  0  0
  143.4027   71.0782  218.3286 H   0  0  0  0  0  0  0  0  0  0  0  0
  145.6021   70.6142  220.1945 H   0  0  0  0  0  0  0  0  0  0  0  0
  145.5300   70.6298  218.3626 H   0  0  0  0  0  0  0  0  0  0  0  0
  1  2  1  0
  2  3  1  0
  3  4  1  0
  4  5  1  0
  5  6  1  0
  6  7  1  0
  7  8  2  0
  8  9  1  0
  9 10  1  0
 10 11  1  0
 11 12  1  0
 12 13  1  0
 13 14  2  0
 14 15  1  0
 15 16  2  0
 16 17  1  0
 17 18  2  0
 18 19  1  0
  9 20  2  0
 20 21  1  0
 21 22  1  0
 22 23  1  0
 23 24  1  0
 24 25  1  0
 25 26  2  0
 26 27  1  0
 27 28  2  0
 28 29  1  0
 29 30  2  0
 30 31  1  0
 21 32  2  0
  6 33  1  0
 33 34  1  0
 34 35  1  0
 35  4  1  0
 32  7  1  0
 19 10  1  0
 31 22  1  0
 18 13  1  0
 30 25  1  0
  1 36  1  0
  1 37  1  0
  1 38  1  0
  2 39  1  0
  2 40  1  0
  3 41  1  0
  4 42  1  6
  5 43  1  0
  5 44  1  0
 11 45  1  0
 11 46  1  0
 12 47  1  0
 12 48  1  0
 14 49  1  0
 15 50  1  0
 16 51  1  0
 17 52  1  0
 19 53  1  0
 19 54  1  0
 23 55  1  0
 23 56  1  0
 24 57  1  0
 24 58  1  0
 26 59  1  0
 27 60  1  0
 28 61  1  0
 29 62  1  0
 31 63  1  0
 31 64  1  0
 33 65  1  0
 33 66  1  0
 34 67  1  0
 34 68  1  0
M  END
>  <smiles>  (68) 
CCNC1CN(c2nc(N3CCc4ccccc4C3)nc(N3CCc4ccccc4C3)n2)CCO1

>  <score_type>  (68) 
oracle

>  <origin>  (68) 
autodockgpu

>  <m_score__min__energy>  (68) 
-9.5500000000000007

>  <m_primary>  (68) 
energy

>  <rmsd>  (68) 
7.411682190511083

>  <m_score__min__rmsd>  (68) 
7.411682190511083

>  <meeko>  (68) 
{"free_energy": -9.09, "intermolecular_energy": -10.58, "internal_energy": -0.98, "cluster_size": 45, "cluster_id": 1, "rank_in_cluster": 23}

>  <energy>  (68) 
-9.13

>  <cluster_rmsd>  (68) 
1.52

>  <cluster>  (68) 
1

$$$$

     RDKit          3D

 68 73  0  0  1  0  0  0  0  0999 V2000
  141.3810   78.8110  223.1870 C   0  0  0  0  0  0  0  0  0  0  0  0
  141.7990   78.7200  221.7220 C   0  0  0  0  0  0  0  0  0  0  0  0
  140.6050   78.5990  220.9110 N   0  0  0  0  0  0  0  0  0  0  0  0
  140.5910   77.4150  220.0800 C   0  0  1  0  0  0  0  0  0  0  0  0
  141.3460   76.3490  220.8090 C   0  0  0  0  0  0  0  0  0  0  0  0
  140.4530   75.3900  221.3950 N   0  0  0  0  0  0  0  0  0  0  0  0
  140.8870   74.0380  221.6510 C   0  0  0  0  0  0  0  0  0  0  0  0
  141.8440   73.4530  220.8950 N   0  0  0  0  0  0  0  0  0  0  0  0
  142.2260   72.2000  221.1550 C   0  0  0  0  0  0  0  0  0  0  0  0
  143.2250   71.5050  220.4120 N   0  0  0  0  0  0  0  0  0  0  0  0
  144.4960   72.1120  220.0890 C   0  0  0  0  0  0  0  0  0  0  0  0
  144.7620   71.8030  218.6140 C   0  0  0  0  0  0  0  0  0  0  0  0
  145.0070   70.3170  218.5890 C   0  0  0  0  0  0  0  0  0  0  0  0
  146.0850   69.7780  217.9200 C   0  0  0  0  0  0  0  0  0  0  0  0
  146.2910   68.4190  217.9100 C   0  0  0  0  0  0  0  0  0  0  0  0
  145.3830   67.6190  218.5890 C   0  0  0  0  0  0  0  0  0  0  0  0
  144.2980   68.1740  219.2610 C   0  0  0  0  0  0  0  0  0  0  0  0
  144.0830   69.5520  219.2760 C   0  0  0  0  0  0  0  0  0  0  0  0
  142.9440   70.1590  219.9790 C   0  0  0  0  0  0  0  0  0  0  0  0
  141.6330   71.5410  222.1880 N   0  0  0  0  0  0  0  0  0  0  0  0
  140.6900   72.0980  222.9440 C   0  0  0  0  0  0  0  0  0  0  0  0
  140.0530   71.4240  224.0350 N   0  0  0  0  0  0  0  0  0  0  0  0
  138.9020   70.5730  223.8150 C   0  0  0  0  0  0  0  0  0  0  0  0
  139.2060   69.1360  224.2420 C   0  0  0  0  0  0  0  0  0  0  0  0
  139.6880   69.2370  225.6440 C   0  0  0  0  0  0  0  0  0  0  0  0
  139.4970   68.1410  226.4530 C   0  0  0  0  0  0  0  0  0  0  0  0
  139.9080   68.1360  227.7670 C   0  0  0  0  0  0  0  0  0  0  0  0
  140.5350   69.2600  228.3080 C   0  0  0  0  0  0  0  0  0  0  0  0
  140.7240   70.3570  227.4900 C   0  0  0  0  0  0  0  0  0  0  0  0
  140.3040   70.3550  226.1590 C   0  0  0  0  0  0  0  0  0  0  0  0
  140.5620   71.5920  225.3810 C   0  0  0  0  0  0  0  0  0  0  0  0
  140.3250   73.3620  222.6590 N   0  0  0  0  0  0  0  0  0  0  0  0
  139.1130   75.8110  221.7220 C   0  0  0  0  0  0  0  0  0  0  0  0
  138.4740   76.6110  220.6100 C   0  0  0  0  0  0  0  0  0  0  0  0
  139.3480   77.0490  219.6590 O   0  0  0  0  0  0  0  0  0  0  0  0
  142.2533   78.6211  223.8297 H   0  0  0  0  0  0  0  0  0  0  0  0
  140.9853   79.8163  223.3936 H   0  0  0  0  0  0  0  0  0  0  0  0
  140.6032   78.0611  223.3936 H   0  0  0  0  0  0  0  0  0  0  0  0
  142.3513   79.6274  221.4365 H   0  0  0  0  0  0  0  0  0  0  0  0
  142.4493   77.8462  221.5688 H   0  0  0  0  0  0  0  0  0  0  0  0
  139.7390   78.7480  221.4330 H   0  0  0  0  0  0  0  0  0  0  0  0
  141.0960   77.6215  219.1248 H   0  0  0  0  0  0  0  0  0  0  0  0
  142.0124   75.8336  220.1017 H   0  0  0  0  0  0  0  0  0  0  0  0
  141.9271   76.8220  221.6144 H   0  0  0  0  0  0  0  0  0  0  0  0
  144.4490   73.1996  220.2471 H   0  0  0  0  0  0  0  0  0  0  0  0
  145.2992   71.7185  220.7293 H   0  0  0  0  0  0  0  0  0  0  0  0
  143.8903   72.0656  217.9966 H   0  0  0  0  0  0  0  0  0  0  0  0
  145.6076   72.3775  218.2079 H   0  0  0  0  0  0  0  0  0  0  0  0
  146.7855   70.4403  217.3903 H   0  0  0  0  0  0  0  0  0  0  0  0
  147.1489   67.9793  217.3802 H   0  0  0  0  0  0  0  0  0  0  0  0
  145.5231   66.5280  218.5962 H   0  0  0  0  0  0  0  0  0  0  0  0
  143.5963   67.5130  219.7907 H   0  0  0  0  0  0  0  0  0  0  0  0
  142.0787   70.1788  219.3002 H   0  0  0  0  0  0  0  0  0  0  0  0
  142.7378   69.5529  220.8735 H   0  0  0  0  0  0  0  0  0  0  0  0
  138.0536   70.9531  224.4030 H   0  0  0  0  0  0  0  0  0  0  0  0
  138.6553   70.5800  222.7430 H   0  0  0  0  0  0  0  0  0  0  0  0
  138.2972   68.5184  224.1906 H   0  0  0  0  0  0  0  0  0  0  0  0
  139.9506   68.6620  223.5856 H   0  0  0  0  0  0  0  0  0  0  0  0
  139.0045   67.2480  226.0406 H   0  0  0  0  0  0  0  0  0  0  0  0
  139.7422   67.2456  228.3912 H   0  0  0  0  0  0  0  0  0  0  0  0
  140.8691   69.2717  229.3560 H   0  0  0  0  0  0  0  0  0  0  0  0
  141.2167   71.2524  227.8969 H   0  0  0  0  0  0  0  0  0  0  0  0
  140.0555   72.4416  225.8624 H   0  0  0  0  0  0  0  0  0  0  0  0
  141.6441   71.7866  225.3449 H   0  0  0  0  0  0  0  0  0  0  0  0
  138.4989   74.9186  221.9134 H   0  0  0  0  0  0  0  0  0  0  0  0
  139.1714   76.4574  222.6101 H   0  0  0  0  0  0  0  0  0  0  0  0
  137.7202   75.9776  220.1194 H   0  0  0  0  0  0  0  0  0  0  0  0
  138.0410   77.5081  221.0765 H   0  0  0  0  0  0  0  0  0  0  0  0
  1  2  1  0
  2  3  1  0
  3  4  1  0
  4  5  1  0
  5  6  1  0
  6  7  1  0
  7  8  2  0
  8  9  1  0
  9 10  1  0
 10 11  1  0
 11 12  1  0
 12 13  1  0
 13 14  2  0
 14 15  1  0
 15 16  2  0
 16 17  1  0
 17 18  2  0
 18 19  1  0
  9 20  2  0
 20 21  1  0
 21 22  1  0
 22 23  1  0
 23 24  1  0
 24 25  1  0
 25 26  2  0
 26 27  1  0
 27 28  2  0
 28 29  1  0
 29 30  2  0
 30 31  1  0
 21 32  2  0
  6 33  1  0
 33 34  1  0
 34 35  1  0
 35  4  1  0
 32  7  1  0
 19 10  1  0
 31 22  1  0
 18 13  1  0
 30 25  1  0
  1 36  1  0
  1 37  1  0
  1 38  1  0
  2 39  1  0
  2 40  1  0
  3 41  1  0
  4 42  1  6
  5 43  1  0
  5 44  1  0
 11 45  1  0
 11 46  1  0
 12 47  1  0
 12 48  1  0
 14 49  1  0
 15 50  1  0
 16 51  1  0
 17 52  1  0
 19 53  1  0
 19 54  1  0
 23 55  1  0
 23 56  1  0
 24 57  1  0
 24 58  1  0
 26 59  1  0
 27 60  1  0
 28 61  1  0
 29 62  1  0
 31 63  1  0
 31 64  1  0
 33 65  1  0
 33 66  1  0
 34 67  1  0
 34 68  1  0
M  END
>  <smiles>  (69) 
CCNC1CN(c2nc(N3CCc4ccccc4C3)nc(N3CCc4ccccc4C3)n2)CCO1

>  <score_type>  (69) 
oracle

>  <origin>  (69) 
autodockgpu

>  <m_score__min__energy>  (69) 
-9.5500000000000007

>  <m_primary>  (69) 
energy

>  <rmsd>  (69) 
2.5798888332874195

>  <m_score__min__rmsd>  (69) 
2.5798888332874195

>  <meeko>  (69) 
{"free_energy": -8.49, "intermolecular_energy": -9.99, "internal_energy": -1.06, "cluster_size": 3, "cluster_id": 3, "rank_in_cluster": 3}

>  <energy>  (69) 
-9.12

>  <cluster_rmsd>  (69) 
1.8

>  <cluster>  (69) 
1

$$$$

     RDKit          3D

 68 73  0  0  1  0  0  0  0  0999 V2000
  146.7020   73.2760  221.7930 C   0  0  0  0  0  0  0  0  0  0  0  0
  146.1340   74.1170  220.6540 C   0  0  0  0  0  0  0  0  0  0  0  0
  146.1260   73.3110  219.4490 N   0  0  0  0  0  0  0  0  0  0  0  0
  144.9430   72.4900  219.3140 C   0  0  1  0  0  0  0  0  0  0  0  0
  144.1260   72.6760  220.5540 C   0  0  0  0  0  0  0  0  0  0  0  0
  143.0010   73.5330  220.3090 N   0  0  0  0  0  0  0  0  0  0  0  0
  141.8090   73.4340  221.1160 C   0  0  0  0  0  0  0  0  0  0  0  0
  141.6000   72.3760  221.9330 N   0  0  0  0  0  0  0  0  0  0  0  0
  140.4880   72.3110  222.6690 C   0  0  0  0  0  0  0  0  0  0  0  0
  140.1840   71.2360  223.5550 N   0  0  0  0  0  0  0  0  0  0  0  0
  139.4680   70.0620  223.1100 C   0  0  0  0  0  0  0  0  0  0  0  0
  138.4070   69.7720  224.1750 C   0  0  0  0  0  0  0  0  0  0  0  0
  139.2020   69.3300  225.3750 C   0  0  0  0  0  0  0  0  0  0  0  0
  138.8640   68.1970  226.0830 C   0  0  0  0  0  0  0  0  0  0  0  0
  139.6030   67.8100  227.1750 C   0  0  0  0  0  0  0  0  0  0  0  0
  140.6890   68.5960  227.5360 C   0  0  0  0  0  0  0  0  0  0  0  0
  141.0210   69.7380  226.8140 C   0  0  0  0  0  0  0  0  0  0  0  0
  140.2760   70.1360  225.7040 C   0  0  0  0  0  0  0  0  0  0  0  0
  140.6090   71.3380  224.9280 C   0  0  0  0  0  0  0  0  0  0  0  0
  139.5860   73.3270  222.5740 N   0  0  0  0  0  0  0  0  0  0  0  0
  139.7720   74.3760  221.7780 C   0  0  0  0  0  0  0  0  0  0  0  0
  138.8370   75.4550  221.6620 N   0  0  0  0  0  0  0  0  0  0  0  0
  137.4550   75.2080  221.3100 C   0  0  0  0  0  0  0  0  0  0  0  0
  136.5230   75.6720  222.4310 C   0  0  0  0  0  0  0  0  0  0  0  0
  136.8920   77.0890  222.6870 C   0  0  0  0  0  0  0  0  0  0  0  0
  135.9110   77.9100  223.1940 C   0  0  0  0  0  0  0  0  0  0  0  0
  136.1540   79.2380  223.4650 C   0  0  0  0  0  0  0  0  0  0  0  0
  137.4180   79.7810  223.2260 C   0  0  0  0  0  0  0  0  0  0  0  0
  138.3980   78.9510  222.7160 C   0  0  0  0  0  0  0  0  0  0  0  0
  138.1440   77.6060  222.4440 C   0  0  0  0  0  0  0  0  0  0  0  0
  139.2760   76.8160  221.8990 C   0  0  0  0  0  0  0  0  0  0  0  0
  140.9020   74.4150  221.0470 N   0  0  0  0  0  0  0  0  0  0  0  0
  143.0910   74.4940  219.2370 C   0  0  0  0  0  0  0  0  0  0  0  0
  143.6620   73.8950  217.9730 C   0  0  0  0  0  0  0  0  0  0  0  0
  144.2640   72.6830  218.1490 O   0  0  0  0  0  0  0  0  0  0  0  0
  146.4051   73.7155  222.7567 H   0  0  0  0  0  0  0  0  0  0  0  0
  146.3109   72.2503  221.7218 H   0  0  0  0  0  0  0  0  0  0  0  0
  147.7995   73.2557  221.7218 H   0  0  0  0  0  0  0  0  0  0  0  0
  145.1080   74.4292  220.8988 H   0  0  0  0  0  0  0  0  0  0  0  0
  146.7512   75.0150  220.5036 H   0  0  0  0  0  0  0  0  0  0  0  0
  146.3630   73.8360  218.6050 H   0  0  0  0  0  0  0  0  0  0  0  0
  145.2305   71.4316  219.2294 H   0  0  0  0  0  0  0  0  0  0  0  0
  143.7628   71.6953  220.8952 H   0  0  0  0  0  0  0  0  0  0  0  0
  144.7595   73.1429  221.3225 H   0  0  0  0  0  0  0  0  0  0  0  0
  138.9891   70.2542  222.1386 H   0  0  0  0  0  0  0  0  0  0  0  0
  140.1471   69.2063  222.9809 H   0  0  0  0  0  0  0  0  0  0  0  0
  137.8257   70.6774  224.4037 H   0  0  0  0  0  0  0  0  0  0  0  0
  137.6781   69.0152  223.8495 H   0  0  0  0  0  0  0  0  0  0  0  0
  137.9958   67.5977  225.7715 H   0  0  0  0  0  0  0  0  0  0  0  0
  139.3424   66.9061  227.7451 H   0  0  0  0  0  0  0  0  0  0  0  0
  141.2970   68.3111  228.4073 H   0  0  0  0  0  0  0  0  0  0  0  0
  141.8883   70.3390  227.1247 H   0  0  0  0  0  0  0  0  0  0  0  0
  140.1133   72.2053  225.3885 H   0  0  0  0  0  0  0  0  0  0  0  0
  141.7031   71.4512  224.9347 H   0  0  0  0  0  0  0  0  0  0  0  0
  137.2130   75.7571  220.3881 H   0  0  0  0  0  0  0  0  0  0  0  0
  137.3155   74.1277  221.1570 H   0  0  0  0  0  0  0  0  0  0  0  0
  135.4723   75.5988  222.1135 H   0  0  0  0  0  0  0  0  0  0  0  0
  136.6268   75.0518  223.3336 H   0  0  0  0  0  0  0  0  0  0  0  0
  134.9103   77.4962  223.3871 H   0  0  0  0  0  0  0  0  0  0  0  0
  135.3515   79.8718  223.8702 H   0  0  0  0  0  0  0  0  0  0  0  0
  137.6278   80.8398  223.4378 H   0  0  0  0  0  0  0  0  0  0  0  0
  139.4004   79.3594  222.5201 H   0  0  0  0  0  0  0  0  0  0  0  0
  139.6150   77.2633  220.9529 H   0  0  0  0  0  0  0  0  0  0  0  0
  140.1073   76.8160  222.6194 H   0  0  0  0  0  0  0  0  0  0  0  0
  142.0831   74.8785  219.0217 H   0  0  0  0  0  0  0  0  0  0  0  0
  143.7679   75.2976  219.5629 H   0  0  0  0  0  0  0  0  0  0  0  0
  142.8426   73.7710  217.2496 H   0  0  0  0  0  0  0  0  0  0  0  0
  144.4418   74.5863  217.6207 H   0  0  0  0  0  0  0  0  0  0  0  0
  1  2  1  0
  2  3  1  0
  3  4  1  0
  4  5  1  0
  5  6  1  0
  6  7  1  0
  7  8  2  0
  8  9  1  0
  9 10  1  0
 10 11  1  0
 11 12  1  0
 12 13  1  0
 13 14  2  0
 14 15  1  0
 15 16  2  0
 16 17  1  0
 17 18  2  0
 18 19  1  0
  9 20  2  0
 20 21  1  0
 21 22  1  0
 22 23  1  0
 23 24  1  0
 24 25  1  0
 25 26  2  0
 26 27  1  0
 27 28  2  0
 28 29  1  0
 29 30  2  0
 30 31  1  0
 21 32  2  0
  6 33  1  0
 33 34  1  0
 34 35  1  0
 35  4  1  0
 32  7  1  0
 19 10  1  0
 31 22  1  0
 18 13  1  0
 30 25  1  0
  1 36  1  0
  1 37  1  0
  1 38  1  0
  2 39  1  0
  2 40  1  0
  3 41  1  0
  4 42  1  6
  5 43  1  0
  5 44  1  0
 11 45  1  0
 11 46  1  0
 12 47  1  0
 12 48  1  0
 14 49  1  0
 15 50  1  0
 16 51  1  0
 17 52  1  0
 19 53  1  0
 19 54  1  0
 23 55  1  0
 23 56  1  0
 24 57  1  0
 24 58  1  0
 26 59  1  0
 27 60  1  0
 28 61  1  0
 29 62  1  0
 31 63  1  0
 31 64  1  0
 33 65  1  0
 33 66  1  0
 34 67  1  0
 34 68  1  0
M  END
>  <smiles>  (70) 
CCNC1CN(c2nc(N3CCc4ccccc4C3)nc(N3CCc4ccccc4C3)n2)CCO1

>  <score_type>  (70) 
oracle

>  <origin>  (70) 
autodockgpu

>  <m_score__min__energy>  (70) 
-9.5500000000000007

>  <m_primary>  (70) 
energy

>  <rmsd>  (70) 
6.050385978414073

>  <m_score__min__rmsd>  (70) 
6.050385978414073

>  <meeko>  (70) 
{"free_energy": -9.48, "intermolecular_energy": -10.97, "internal_energy": -0.82, "cluster_size": 45, "cluster_id": 1, "rank_in_cluster": 4}

>  <energy>  (70) 
-9.11

>  <cluster_rmsd>  (70) 
1.44

>  <cluster>  (70) 
1

$$$$

     RDKit          3D

 68 73  0  0  1  0  0  0  0  0999 V2000
  146.2940   73.7390  221.0140 C   0  0  0  0  0  0  0  0  0  0  0  0
  145.9890   72.5310  220.1330 C   0  0  0  0  0  0  0  0  0  0  0  0
  145.6620   73.0030  218.8030 N   0  0  0  0  0  0  0  0  0  0  0  0
  144.2550   72.8950  218.4830 C   0  0  1  0  0  0  0  0  0  0  0  0
  143.5320   72.5730  219.7530 C   0  0  0  0  0  0  0  0  0  0  0  0
  142.8560   73.7280  220.2720 N   0  0  0  0  0  0  0  0  0  0  0  0
  141.6940   73.5860  221.1130 C   0  0  0  0  0  0  0  0  0  0  0  0
  141.5400   72.5150  221.9250 N   0  0  0  0  0  0  0  0  0  0  0  0
  140.4540   72.4100  222.6940 C   0  0  0  0  0  0  0  0  0  0  0  0
  140.2090   71.3170  223.5770 N   0  0  0  0  0  0  0  0  0  0  0  0
  139.5620   70.1060  223.1290 C   0  0  0  0  0  0  0  0  0  0  0  0
  138.5170   69.7540  224.1910 C   0  0  0  0  0  0  0  0  0  0  0  0
  139.3330   69.3560  225.3930 C   0  0  0  0  0  0  0  0  0  0  0  0
  139.0580   68.2040  226.0970 C   0  0  0  0  0  0  0  0  0  0  0  0
  139.8150   67.8580  227.1910 C   0  0  0  0  0  0  0  0  0  0  0  0
  140.8540   68.7030  227.5560 C   0  0  0  0  0  0  0  0  0  0  0  0
  141.1230   69.8630  226.8360 C   0  0  0  0  0  0  0  0  0  0  0  0
  140.3580   70.2210  225.7250 C   0  0  0  0  0  0  0  0  0  0  0  0
  140.6250   71.4420  224.9520 C   0  0  0  0  0  0  0  0  0  0  0  0
  139.5200   73.3990  222.6370 N   0  0  0  0  0  0  0  0  0  0  0  0
  139.6510   74.4610  221.8470 C   0  0  0  0  0  0  0  0  0  0  0  0
  138.6810   75.5130  221.7710 N   0  0  0  0  0  0  0  0  0  0  0  0
  137.2900   75.2250  221.4940 C   0  0  0  0  0  0  0  0  0  0  0  0
  136.4050   75.6740  222.6580 C   0  0  0  0  0  0  0  0  0  0  0  0
  136.7470   77.1020  222.8820 C   0  0  0  0  0  0  0  0  0  0  0  0
  135.7720   77.9020  223.4330 C   0  0  0  0  0  0  0  0  0  0  0  0
  135.9920   79.2390  223.6780 C   0  0  0  0  0  0  0  0  0  0  0  0
  137.2260   79.8140  223.3690 C   0  0  0  0  0  0  0  0  0  0  0  0
  138.2000   79.0050  222.8160 C   0  0  0  0  0  0  0  0  0  0  0  0
  137.9710   77.6510  222.5690 C   0  0  0  0  0  0  0  0  0  0  0  0
  139.0930   76.8870  221.9730 C   0  0  0  0  0  0  0  0  0  0  0  0
  140.7560   74.5410  221.0830 N   0  0  0  0  0  0  0  0  0  0  0  0
  143.3680   75.0330  219.9300 C   0  0  0  0  0  0  0  0  0  0  0  0
  143.7020   75.1550  218.4620 C   0  0  0  0  0  0  0  0  0  0  0  0
  143.7590   73.9640  217.7980 O   0  0  0  0  0  0  0  0  0  0  0  0
  146.2207   73.4487  222.0725 H   0  0  0  0  0  0  0  0  0  0  0  0
  147.3114   74.0997  220.8023 H   0  0  0  0  0  0  0  0  0  0  0  0
  145.5698   74.5394  220.8023 H   0  0  0  0  0  0  0  0  0  0  0  0
  146.8695   71.8733  220.0873 H   0  0  0  0  0  0  0  0  0  0  0  0
  145.1437   71.9641  220.5502 H   0  0  0  0  0  0  0  0  0  0  0  0
  146.0670   73.9150  218.5810 H   0  0  0  0  0  0  0  0  0  0  0  0
  144.0960   72.0784  217.7634 H   0  0  0  0  0  0  0  0  0  0  0  0
  142.7924   71.7832  219.5546 H   0  0  0  0  0  0  0  0  0  0  0  0
  144.2684   72.2362  220.4975 H   0  0  0  0  0  0  0  0  0  0  0  0
  139.0749   70.2725  222.1569 H   0  0  0  0  0  0  0  0  0  0  0  0
  140.2889   69.2905  223.0001 H   0  0  0  0  0  0  0  0  0  0  0  0
  137.8843   70.6243  224.4195 H   0  0  0  0  0  0  0  0  0  0  0  0
  137.8336   68.9571  223.8625 H   0  0  0  0  0  0  0  0  0  0  0  0
  138.2267   67.5565  225.7813 H   0  0  0  0  0  0  0  0  0  0  0  0
  139.6040   66.9402  227.7594 H   0  0  0  0  0  0  0  0  0  0  0  0
  141.4748   68.4516  228.4286 H   0  0  0  0  0  0  0  0  0  0  0  0
  141.9552   70.5107  227.1488 H   0  0  0  0  0  0  0  0  0  0  0  0
  140.0800   72.2793  225.4124 H   0  0  0  0  0  0  0  0  0  0  0  0
  141.7108   71.6179  224.9621 H   0  0  0  0  0  0  0  0  0  0  0  0
  136.9852   75.7583  220.5815 H   0  0  0  0  0  0  0  0  0  0  0  0
  137.1729   74.1398  221.3576 H   0  0  0  0  0  0  0  0  0  0  0  0
  135.3417   75.5689  222.3965 H   0  0  0  0  0  0  0  0  0  0  0  0
  136.5727   75.0658  223.5591 H   0  0  0  0  0  0  0  0  0  0  0  0
  134.7948   77.4634  223.6833 H   0  0  0  0  0  0  0  0  0  0  0  0
  135.1940   79.8551  224.1180 H   0  0  0  0  0  0  0  0  0  0  0  0
  137.4173   80.8802  223.5603 H   0  0  0  0  0  0  0  0  0  0  0  0
  139.1791   79.4386  222.5645 H   0  0  0  0  0  0  0  0  0  0  0  0
  139.3697   77.3338  221.0067 H   0  0  0  0  0  0  0  0  0  0  0  0
  139.9601   76.9167  222.6493 H   0  0  0  0  0  0  0  0  0  0  0  0
  142.6088   75.7876  220.1832 H   0  0  0  0  0  0  0  0  0  0  0  0
  144.2967   75.1881  220.4988 H   0  0  0  0  0  0  0  0  0  0  0  0
  142.9324   75.7792  217.9844 H   0  0  0  0  0  0  0  0  0  0  0  0
  144.7077   75.5967  218.4035 H   0  0  0  0  0  0  0  0  0  0  0  0
  1  2  1  0
  2  3  1  0
  3  4  1  0
  4  5  1  0
  5  6  1  0
  6  7  1  0
  7  8  2  0
  8  9  1  0
  9 10  1  0
 10 11  1  0
 11 12  1  0
 12 13  1  0
 13 14  2  0
 14 15  1  0
 15 16  2  0
 16 17  1  0
 17 18  2  0
 18 19  1  0
  9 20  2  0
 20 21  1  0
 21 22  1  0
 22 23  1  0
 23 24  1  0
 24 25  1  0
 25 26  2  0
 26 27  1  0
 27 28  2  0
 28 29  1  0
 29 30  2  0
 30 31  1  0
 21 32  2  0
  6 33  1  0
 33 34  1  0
 34 35  1  0
 35  4  1  0
 32  7  1  0
 19 10  1  0
 31 22  1  0
 18 13  1  0
 30 25  1  0
  1 36  1  0
  1 37  1  0
  1 38  1  0
  2 39  1  0
  2 40  1  0
  3 41  1  0
  4 42  1  6
  5 43  1  0
  5 44  1  0
 11 45  1  0
 11 46  1  0
 12 47  1  0
 12 48  1  0
 14 49  1  0
 15 50  1  0
 16 51  1  0
 17 52  1  0
 19 53  1  0
 19 54  1  0
 23 55  1  0
 23 56  1  0
 24 57  1  0
 24 58  1  0
 26 59  1  0
 27 60  1  0
 28 61  1  0
 29 62  1  0
 31 63  1  0
 31 64  1  0
 33 65  1  0
 33 66  1  0
 34 67  1  0
 34 68  1  0
M  END
>  <smiles>  (71) 
CCNC1CN(c2nc(N3CCc4ccccc4C3)nc(N3CCc4ccccc4C3)n2)CCO1

>  <score_type>  (71) 
oracle

>  <origin>  (71) 
autodockgpu

>  <m_score__min__energy>  (71) 
-9.5500000000000007

>  <m_primary>  (71) 
energy

>  <rmsd>  (71) 
6.170971796999683

>  <m_score__min__rmsd>  (71) 
6.170971796999683

>  <meeko>  (71) 
{"free_energy": -9.43, "intermolecular_energy": -10.92, "internal_energy": -1.05, "cluster_size": 45, "cluster_id": 1, "rank_in_cluster": 6}

>  <energy>  (71) 
-9.11

>  <cluster_rmsd>  (71) 
1.78

>  <cluster>  (71) 
1

$$$$

     RDKit          3D

 68 73  0  0  1  0  0  0  0  0999 V2000
  145.8420   68.0430  219.7080 C   0  0  0  0  0  0  0  0  0  0  0  0
  145.4260   69.0680  218.6560 C   0  0  0  0  0  0  0  0  0  0  0  0
  145.8100   70.3860  219.1230 N   0  0  0  0  0  0  0  0  0  0  0  0
  144.9000   71.4310  218.7060 C   0  0  1  0  0  0  0  0  0  0  0  0
  143.7250   71.3950  219.6310 C   0  0  0  0  0  0  0  0  0  0  0  0
  143.7860   72.4620  220.5890 N   0  0  0  0  0  0  0  0  0  0  0  0
  142.5840   72.9800  221.1940 C   0  0  0  0  0  0  0  0  0  0  0  0
  142.2160   74.2720  221.0340 N   0  0  0  0  0  0  0  0  0  0  0  0
  141.0980   74.7240  221.6060 C   0  0  0  0  0  0  0  0  0  0  0  0
  140.6340   76.0680  221.4910 N   0  0  0  0  0  0  0  0  0  0  0  0
  139.8620   76.5130  220.3540 C   0  0  0  0  0  0  0  0  0  0  0  0
  140.4580   77.8560  219.9240 C   0  0  0  0  0  0  0  0  0  0  0  0
  140.0990   78.7930  221.0470 C   0  0  0  0  0  0  0  0  0  0  0  0
  139.5470   80.0310  220.8000 C   0  0  0  0  0  0  0  0  0  0  0  0
  139.2270   80.8720  221.8390 C   0  0  0  0  0  0  0  0  0  0  0  0
  139.4780   80.4320  223.1320 C   0  0  0  0  0  0  0  0  0  0  0  0
  140.0350   79.1800  223.3690 C   0  0  0  0  0  0  0  0  0  0  0  0
  140.3630   78.3210  222.3190 C   0  0  0  0  0  0  0  0  0  0  0  0
  140.9530   76.9950  222.5470 C   0  0  0  0  0  0  0  0  0  0  0  0
  140.3500   73.8580  222.3430 N   0  0  0  0  0  0  0  0  0  0  0  0
  140.6920   72.5830  222.5140 C   0  0  0  0  0  0  0  0  0  0  0  0
  139.9210   71.6550  223.2850 N   0  0  0  0  0  0  0  0  0  0  0  0
  138.9040   70.8330  222.6640 C   0  0  0  0  0  0  0  0  0  0  0  0
  139.2400   69.3490  222.8240 C   0  0  0  0  0  0  0  0  0  0  0  0
  139.4450   69.1490  224.2820 C   0  0  0  0  0  0  0  0  0  0  0  0
  139.1980   67.8910  224.7820 C   0  0  0  0  0  0  0  0  0  0  0  0
  139.3580   67.6040  226.1200 C   0  0  0  0  0  0  0  0  0  0  0  0
  139.7810   68.6000  227.0030 C   0  0  0  0  0  0  0  0  0  0  0  0
  140.0270   69.8600  226.4930 C   0  0  0  0  0  0  0  0  0  0  0  0
  139.8620   70.1440  225.1370 C   0  0  0  0  0  0  0  0  0  0  0  0
  140.1570   71.5330  224.7100 C   0  0  0  0  0  0  0  0  0  0  0  0
  141.8250   72.1560  221.9260 N   0  0  0  0  0  0  0  0  0  0  0  0
  145.0790   73.0040  220.9300 C   0  0  0  0  0  0  0  0  0  0  0  0
  145.9390   73.2530  219.7130 C   0  0  0  0  0  0  0  0  0  0  0  0
  145.4860   72.6540  218.5740 O   0  0  0  0  0  0  0  0  0  0  0  0
  145.6731   68.4590  220.7122 H   0  0  0  0  0  0  0  0  0  0  0  0
  145.2441   67.1279  219.5849 H   0  0  0  0  0  0  0  0  0  0  0  0
  146.9085   67.8034  219.5849 H   0  0  0  0  0  0  0  0  0  0  0  0
  145.9319   68.8493  217.7040 H   0  0  0  0  0  0  0  0  0  0  0  0
  144.3384   69.0258  218.4970 H   0  0  0  0  0  0  0  0  0  0  0  0
  146.0450   70.4150  220.1160 H   0  0  0  0  0  0  0  0  0  0  0  0
  144.5535   71.2392  217.6798 H   0  0  0  0  0  0  0  0  0  0  0  0
  142.8014   71.4940  219.0419 H   0  0  0  0  0  0  0  0  0  0  0  0
  143.7380   70.4383  220.1737 H   0  0  0  0  0  0  0  0  0  0  0  0
  139.9376   75.7835  219.5341 H   0  0  0  0  0  0  0  0  0  0  0  0
  138.7971   76.6138  220.6106 H   0  0  0  0  0  0  0  0  0  0  0  0
  141.5497   77.7809  219.8119 H   0  0  0  0  0  0  0  0  0  0  0  0
  140.0741   78.1963  218.9509 H   0  0  0  0  0  0  0  0  0  0  0  0
  139.3610   80.3487  219.7634 H   0  0  0  0  0  0  0  0  0  0  0  0
  138.7860   81.8623  221.6522 H   0  0  0  0  0  0  0  0  0  0  0  0
  139.2322   81.0845  223.9828 H   0  0  0  0  0  0  0  0  0  0  0  0
  140.2208   78.8602  224.4050 H   0  0  0  0  0  0  0  0  0  0  0  0
  142.0463   77.0996  222.6082 H   0  0  0  0  0  0  0  0  0  0  0  0
  140.5357   76.5964  223.4835 H   0  0  0  0  0  0  0  0  0  0  0  0
  137.9335   71.0374  223.1398 H   0  0  0  0  0  0  0  0  0  0  0  0
  138.8597   71.0732  221.5915 H   0  0  0  0  0  0  0  0  0  0  0  0
  138.4097   68.7247  222.4623 H   0  0  0  0  0  0  0  0  0  0  0  0
  140.1289   69.0644  222.2418 H   0  0  0  0  0  0  0  0  0  0  0  0
  138.8652   67.0965  224.0979 H   0  0  0  0  0  0  0  0  0  0  0  0
  139.1525   66.5898  226.4930 H   0  0  0  0  0  0  0  0  0  0  0  0
  139.9145   68.3872  228.0739 H   0  0  0  0  0  0  0  0  0  0  0  0
  140.3609   70.6584  227.1721 H   0  0  0  0  0  0  0  0  0  0  0  0
  139.5024   72.2312  225.2522 H   0  0  0  0  0  0  0  0  0  0  0  0
  141.2075   71.7721  224.9320 H   0  0  0  0  0  0  0  0  0  0  0  0
  144.9338   73.9565  221.4607 H   0  0  0  0  0  0  0  0  0  0  0  0
  145.5962   72.2657  221.5604 H   0  0  0  0  0  0  0  0  0  0  0  0
  145.9824   74.3381  219.5379 H   0  0  0  0  0  0  0  0  0  0  0  0
  146.9249   72.8153  219.9287 H   0  0  0  0  0  0  0  0  0  0  0  0
  1  2  1  0
  2  3  1  0
  3  4  1  0
  4  5  1  0
  5  6  1  0
  6  7  1  0
  7  8  2  0
  8  9  1  0
  9 10  1  0
 10 11  1  0
 11 12  1  0
 12 13  1  0
 13 14  2  0
 14 15  1  0
 15 16  2  0
 16 17  1  0
 17 18  2  0
 18 19  1  0
  9 20  2  0
 20 21  1  0
 21 22  1  0
 22 23  1  0
 23 24  1  0
 24 25  1  0
 25 26  2  0
 26 27  1  0
 27 28  2  0
 28 29  1  0
 29 30  2  0
 30 31  1  0
 21 32  2  0
  6 33  1  0
 33 34  1  0
 34 35  1  0
 35  4  1  0
 32  7  1  0
 19 10  1  0
 31 22  1  0
 18 13  1  0
 30 25  1  0
  1 36  1  0
  1 37  1  0
  1 38  1  0
  2 39  1  0
  2 40  1  0
  3 41  1  0
  4 42  1  6
  5 43  1  0
  5 44  1  0
 11 45  1  0
 11 46  1  0
 12 47  1  0
 12 48  1  0
 14 49  1  0
 15 50  1  0
 16 51  1  0
 17 52  1  0
 19 53  1  0
 19 54  1  0
 23 55  1  0
 23 56  1  0
 24 57  1  0
 24 58  1  0
 26 59  1  0
 27 60  1  0
 28 61  1  0
 29 62  1  0
 31 63  1  0
 31 64  1  0
 33 65  1  0
 33 66  1  0
 34 67  1  0
 34 68  1  0
M  END
>  <smiles>  (72) 
CCNC1CN(c2nc(N3CCc4ccccc4C3)nc(N3CCc4ccccc4C3)n2)CCO1

>  <score_type>  (72) 
oracle

>  <origin>  (72) 
autodockgpu

>  <m_score__min__energy>  (72) 
-9.5500000000000007

>  <m_primary>  (72) 
energy

>  <rmsd>  (72) 
9.238373320574158

>  <m_score__min__rmsd>  (72) 
9.238373320574158

>  <meeko>  (72) 
{"free_energy": -9.12, "intermolecular_energy": -10.61, "internal_energy": -0.98, "cluster_size": 45, "cluster_id": 1, "rank_in_cluster": 19}

>  <energy>  (72) 
-9.09

>  <cluster_rmsd>  (72) 
1.8

>  <cluster>  (72) 
1

$$$$

     RDKit          3D

 68 73  0  0  1  0  0  0  0  0999 V2000
  145.4420   75.2120  215.6200 C   0  0  0  0  0  0  0  0  0  0  0  0
  146.2380   74.1090  216.3130 C   0  0  0  0  0  0  0  0  0  0  0  0
  145.3110   73.2500  217.0210 N   0  0  0  0  0  0  0  0  0  0  0  0
  145.3940   73.3770  218.4600 C   0  0  1  0  0  0  0  0  0  0  0  0
  144.0540   73.8330  218.9460 C   0  0  0  0  0  0  0  0  0  0  0  0
  143.3240   72.7510  219.5430 N   0  0  0  0  0  0  0  0  0  0  0  0
  142.3130   73.0050  220.5400 C   0  0  0  0  0  0  0  0  0  0  0  0
  141.9280   72.0450  221.4110 N   0  0  0  0  0  0  0  0  0  0  0  0
  140.9900   72.3080  222.3240 C   0  0  0  0  0  0  0  0  0  0  0  0
  140.5230   71.3590  223.2800 N   0  0  0  0  0  0  0  0  0  0  0  0
  139.6630   70.2600  222.9050 C   0  0  0  0  0  0  0  0  0  0  0  0
  138.5500   70.2020  223.9550 C   0  0  0  0  0  0  0  0  0  0  0  0
  139.2520   69.7550  225.2100 C   0  0  0  0  0  0  0  0  0  0  0  0
  138.7480   68.7390  225.9910 C   0  0  0  0  0  0  0  0  0  0  0  0
  139.4040   68.3450  227.1330 C   0  0  0  0  0  0  0  0  0  0  0  0
  140.5800   69.0030  227.4670 C   0  0  0  0  0  0  0  0  0  0  0  0
  141.0800   70.0280  226.6700 C   0  0  0  0  0  0  0  0  0  0  0  0
  140.4190   70.4330  225.5090 C   0  0  0  0  0  0  0  0  0  0  0  0
  140.9300   71.5130  224.6540 C   0  0  0  0  0  0  0  0  0  0  0  0
  140.4410   73.5540  222.3500 N   0  0  0  0  0  0  0  0  0  0  0  0
  140.8050   74.5140  221.5030 C   0  0  0  0  0  0  0  0  0  0  0  0
  140.2410   75.8300  221.5120 N   0  0  0  0  0  0  0  0  0  0  0  0
  138.8080   76.0270  221.4550 C   0  0  0  0  0  0  0  0  0  0  0  0
  138.3130   76.7500  222.7090 C   0  0  0  0  0  0  0  0  0  0  0  0
  139.1410   77.9800  222.8050 C   0  0  0  0  0  0  0  0  0  0  0  0
  138.5840   79.0620  223.4480 C   0  0  0  0  0  0  0  0  0  0  0  0
  139.2710   80.2470  223.5880 C   0  0  0  0  0  0  0  0  0  0  0  0
  140.5630   80.3720  223.0740 C   0  0  0  0  0  0  0  0  0  0  0  0
  141.1160   79.2820  222.4300 C   0  0  0  0  0  0  0  0  0  0  0  0
  140.4140   78.0840  222.2900 C   0  0  0  0  0  0  0  0  0  0  0  0
  141.1130   76.9860  221.5800 C   0  0  0  0  0  0  0  0  0  0  0  0
  141.7530   74.2200  220.5940 N   0  0  0  0  0  0  0  0  0  0  0  0
  143.6260   71.4050  219.1230 C   0  0  0  0  0  0  0  0  0  0  0  0
  145.1130   71.1450  219.0500 C   0  0  0  0  0  0  0  0  0  0  0  0
  145.8820   72.2700  219.0860 O   0  0  0  0  0  0  0  0  0  0  0  0
  144.9753   75.8587  216.3776 H   0  0  0  0  0  0  0  0  0  0  0  0
  146.1169   75.8116  214.9915 H   0  0  0  0  0  0  0  0  0  0  0  0
  144.6603   74.7604  214.9915 H   0  0  0  0  0  0  0  0  0  0  0  0
  146.7894   73.5223  215.5635 H   0  0  0  0  0  0  0  0  0  0  0  0
  146.9581   74.5496  217.0183 H   0  0  0  0  0  0  0  0  0  0  0  0
  144.3570   73.2890  216.6580 H   0  0  0  0  0  0  0  0  0  0  0  0
  146.1478   74.1324  218.7265 H   0  0  0  0  0  0  0  0  0  0  0  0
  144.1946   74.6272  219.6940 H   0  0  0  0  0  0  0  0  0  0  0  0
  143.4802   74.2084  218.0859 H   0  0  0  0  0  0  0  0  0  0  0  0
  139.2352   70.4355  221.9069 H   0  0  0  0  0  0  0  0  0  0  0  0
  140.2216   69.3133  222.8643 H   0  0  0  0  0  0  0  0  0  0  0  0
  138.0931   71.1928  224.0949 H   0  0  0  0  0  0  0  0  0  0  0  0
  137.7314   69.5265  223.6657 H   0  0  0  0  0  0  0  0  0  0  0  0
  137.8130   68.2387  225.6987 H   0  0  0  0  0  0  0  0  0  0  0  0
  139.0095   67.5338  227.7625 H   0  0  0  0  0  0  0  0  0  0  0  0
  141.1251   68.7093  228.3762 H   0  0  0  0  0  0  0  0  0  0  0  0
  142.0150   70.5294  226.9606 H   0  0  0  0  0  0  0  0  0  0  0  0
  140.5486   72.4735  225.0308 H   0  0  0  0  0  0  0  0  0  0  0  0
  142.0290   71.4778  224.6864 H   0  0  0  0  0  0  0  0  0  0  0  0
  138.5611   76.6302  220.5689 H   0  0  0  0  0  0  0  0  0  0  0  0
  138.3173   75.0443  221.3956 H   0  0  0  0  0  0  0  0  0  0  0  0
  137.2485   77.0089  222.6096 H   0  0  0  0  0  0  0  0  0  0  0  0
  138.4053   76.1223  223.6076 H   0  0  0  0  0  0  0  0  0  0  0  0
  137.5672   78.9781  223.8593 H   0  0  0  0  0  0  0  0  0  0  0  0
  138.8012   81.0964  224.1055 H   0  0  0  0  0  0  0  0  0  0  0  0
  141.1248   81.3119  223.1788 H   0  0  0  0  0  0  0  0  0  0  0  0
  142.1330   79.3602  222.0181 H   0  0  0  0  0  0  0  0  0  0  0  0
  141.3712   77.3123  220.5617 H   0  0  0  0  0  0  0  0  0  0  0  0
  142.0333   76.7228  222.1221 H   0  0  0  0  0  0  0  0  0  0  0  0
  143.1792   70.7020  219.8414 H   0  0  0  0  0  0  0  0  0  0  0  0
  143.2112   71.2672  218.1136 H   0  0  0  0  0  0  0  0  0  0  0  0
  145.3936   70.5086  219.9022 H   0  0  0  0  0  0  0  0  0  0  0  0
  145.3015   70.6658  218.0780 H   0  0  0  0  0  0  0  0  0  0  0  0
  1  2  1  0
  2  3  1  0
  3  4  1  0
  4  5  1  0
  5  6  1  0
  6  7  1  0
  7  8  2  0
  8  9  1  0
  9 10  1  0
 10 11  1  0
 11 12  1  0
 12 13  1  0
 13 14  2  0
 14 15  1  0
 15 16  2  0
 16 17  1  0
 17 18  2  0
 18 19  1  0
  9 20  2  0
 20 21  1  0
 21 22  1  0
 22 23  1  0
 23 24  1  0
 24 25  1  0
 25 26  2  0
 26 27  1  0
 27 28  2  0
 28 29  1  0
 29 30  2  0
 30 31  1  0
 21 32  2  0
  6 33  1  0
 33 34  1  0
 34 35  1  0
 35  4  1  0
 32  7  1  0
 19 10  1  0
 31 22  1  0
 18 13  1  0
 30 25  1  0
  1 36  1  0
  1 37  1  0
  1 38  1  0
  2 39  1  0
  2 40  1  0
  3 41  1  0
  4 42  1  6
  5 43  1  0
  5 44  1  0
 11 45  1  0
 11 46  1  0
 12 47  1  0
 12 48  1  0
 14 49  1  0
 15 50  1  0
 16 51  1  0
 17 52  1  0
 19 53  1  0
 19 54  1  0
 23 55  1  0
 23 56  1  0
 24 57  1  0
 24 58  1  0
 26 59  1  0
 27 60  1  0
 28 61  1  0
 29 62  1  0
 31 63  1  0
 31 64  1  0
 33 65  1  0
 33 66  1  0
 34 67  1  0
 34 68  1  0
M  END
>  <smiles>  (73) 
CCNC1CN(c2nc(N3CCc4ccccc4C3)nc(N3CCc4ccccc4C3)n2)CCO1

>  <score_type>  (73) 
oracle

>  <origin>  (73) 
autodockgpu

>  <m_score__min__energy>  (73) 
-9.5500000000000007

>  <m_primary>  (73) 
energy

>  <rmsd>  (73) 
7.4075965530252015

>  <m_score__min__rmsd>  (73) 
7.4075965530252015

>  <meeko>  (73) 
{"free_energy": -9.11, "intermolecular_energy": -10.6, "internal_energy": -0.98, "cluster_size": 45, "cluster_id": 1, "rank_in_cluster": 20}

>  <energy>  (73) 
-9.09

>  <cluster_rmsd>  (73) 
1.43

>  <cluster>  (73) 
1

$$$$

     RDKit          3D

 68 73  0  0  1  0  0  0  0  0999 V2000
  145.3570   74.8840  215.8840 C   0  0  0  0  0  0  0  0  0  0  0  0
  144.8470   74.1240  217.1050 C   0  0  0  0  0  0  0  0  0  0  0  0
  145.9510   73.3830  217.6790 N   0  0  0  0  0  0  0  0  0  0  0  0
  145.8420   73.2030  219.1100 C   0  0  1  0  0  0  0  0  0  0  0  0
  144.5240   73.7720  219.5320 C   0  0  0  0  0  0  0  0  0  0  0  0
  143.5700   72.7310  219.7900 N   0  0  0  0  0  0  0  0  0  0  0  0
  142.4710   72.9480  220.6990 C   0  0  0  0  0  0  0  0  0  0  0  0
  142.0310   71.9630  221.5170 N   0  0  0  0  0  0  0  0  0  0  0  0
  141.0120   72.1920  222.3480 C   0  0  0  0  0  0  0  0  0  0  0  0
  140.4830   71.2160  223.2430 N   0  0  0  0  0  0  0  0  0  0  0  0
  139.4690   70.2730  222.8290 C   0  0  0  0  0  0  0  0  0  0  0  0
  138.4200   70.2480  223.9440 C   0  0  0  0  0  0  0  0  0  0  0  0
  139.1300   69.5940  225.1010 C   0  0  0  0  0  0  0  0  0  0  0  0
  138.5440   68.5740  225.8180 C   0  0  0  0  0  0  0  0  0  0  0  0
  139.2090   67.9910  226.8710 C   0  0  0  0  0  0  0  0  0  0  0  0
  140.4770   68.4640  227.1810 C   0  0  0  0  0  0  0  0  0  0  0  0
  141.0580   69.4950  226.4490 C   0  0  0  0  0  0  0  0  0  0  0  0
  140.3890   70.0910  225.3790 C   0  0  0  0  0  0  0  0  0  0  0  0
  140.9840   71.1810  224.5940 C   0  0  0  0  0  0  0  0  0  0  0  0
  140.4380   73.4270  222.3480 N   0  0  0  0  0  0  0  0  0  0  0  0
  140.8550   74.4090  221.5540 C   0  0  0  0  0  0  0  0  0  0  0  0
  140.2670   75.7150  221.5370 N   0  0  0  0  0  0  0  0  0  0  0  0
  138.8320   75.8840  221.4580 C   0  0  0  0  0  0  0  0  0  0  0  0
  138.3070   76.6150  222.6950 C   0  0  0  0  0  0  0  0  0  0  0  0
  139.1100   77.8610  222.7850 C   0  0  0  0  0  0  0  0  0  0  0  0
  138.5240   78.9410  223.4050 C   0  0  0  0  0  0  0  0  0  0  0  0
  139.1870   80.1410  223.5380 C   0  0  0  0  0  0  0  0  0  0  0  0
  140.4830   80.2830  223.0380 C   0  0  0  0  0  0  0  0  0  0  0  0
  141.0650   79.1950  222.4170 C   0  0  0  0  0  0  0  0  0  0  0  0
  140.3870   77.9820  222.2850 C   0  0  0  0  0  0  0  0  0  0  0  0
  141.1160   76.8870  221.5990 C   0  0  0  0  0  0  0  0  0  0  0  0
  141.8840   74.1500  220.7260 N   0  0  0  0  0  0  0  0  0  0  0  0
  143.7370   71.4650  219.1190 C   0  0  0  0  0  0  0  0  0  0  0  0
  145.1660   70.9780  219.1570 C   0  0  0  0  0  0  0  0  0  0  0  0
  146.0740   71.9270  219.5270 O   0  0  0  0  0  0  0  0  0  0  0  0
  145.9419   75.7557  216.2127 H   0  0  0  0  0  0  0  0  0  0  0  0
  145.9941   74.2216  215.2796 H   0  0  0  0  0  0  0  0  0  0  0  0
  144.5026   75.2225  215.2796 H   0  0  0  0  0  0  0  0  0  0  0  0
  144.4519   74.8345  217.8460 H   0  0  0  0  0  0  0  0  0  0  0  0
  144.0425   73.4340  216.8106 H   0  0  0  0  0  0  0  0  0  0  0  0
  146.1760   72.5250  217.1710 H   0  0  0  0  0  0  0  0  0  0  0  0
  146.6482   73.7513  219.6193 H   0  0  0  0  0  0  0  0  0  0  0  0
  144.6653   74.3647  220.4478 H   0  0  0  0  0  0  0  0  0  0  0  0
  144.1397   74.4039  218.7177 H   0  0  0  0  0  0  0  0  0  0  0  0
  139.0110   70.5979  221.8831 H   0  0  0  0  0  0  0  0  0  0  0  0
  139.8980   69.2738  222.6629 H   0  0  0  0  0  0  0  0  0  0  0  0
  138.1041   71.2686  224.2060 H   0  0  0  0  0  0  0  0  0  0  0  0
  137.5054   69.7113  223.6517 H   0  0  0  0  0  0  0  0  0  0  0  0
  137.5373   68.2235  225.5463 H   0  0  0  0  0  0  0  0  0  0  0  0
  138.7507   67.1754  227.4496 H   0  0  0  0  0  0  0  0  0  0  0  0
  141.0314   68.0164  228.0190 H   0  0  0  0  0  0  0  0  0  0  0  0
  142.0645   69.8472  226.7191 H   0  0  0  0  0  0  0  0  0  0  0  0
  140.7505   72.1381  225.0832 H   0  0  0  0  0  0  0  0  0  0  0  0
  142.0695   71.0095  224.5470 H   0  0  0  0  0  0  0  0  0  0  0  0
  138.5859   76.4700  220.5602 H   0  0  0  0  0  0  0  0  0  0  0  0
  138.3604   74.8916  221.4057 H   0  0  0  0  0  0  0  0  0  0  0  0
  137.2393   76.8525  222.5779 H   0  0  0  0  0  0  0  0  0  0  0  0
  138.3992   76.0016  223.6034 H   0  0  0  0  0  0  0  0  0  0  0  0
  137.5033   78.8437  223.8033 H   0  0  0  0  0  0  0  0  0  0  0  0
  138.6951   80.9881  224.0385 H   0  0  0  0  0  0  0  0  0  0  0  0
  141.0255   81.2349  223.1359 H   0  0  0  0  0  0  0  0  0  0  0  0
  142.0858   79.2865  222.0175 H   0  0  0  0  0  0  0  0  0  0  0  0
  141.3809   77.2037  220.5794 H   0  0  0  0  0  0  0  0  0  0  0  0
  142.0343   76.6490  222.1558 H   0  0  0  0  0  0  0  0  0  0  0  0
  143.0959   70.7178  219.6096 H   0  0  0  0  0  0  0  0  0  0  0  0
  143.4580   71.6048  218.0642 H   0  0  0  0  0  0  0  0  0  0  0  0
  145.2270   70.1453  219.8732 H   0  0  0  0  0  0  0  0  0  0  0  0
  145.4239   70.6793  218.1302 H   0  0  0  0  0  0  0  0  0  0  0  0
  1  2  1  0
  2  3  1  0
  3  4  1  0
  4  5  1  0
  5  6  1  0
  6  7  1  0
  7  8  2  0
  8  9  1  0
  9 10  1  0
 10 11  1  0
 11 12  1  0
 12 13  1  0
 13 14  2  0
 14 15  1  0
 15 16  2  0
 16 17  1  0
 17 18  2  0
 18 19  1  0
  9 20  2  0
 20 21  1  0
 21 22  1  0
 22 23  1  0
 23 24  1  0
 24 25  1  0
 25 26  2  0
 26 27  1  0
 27 28  2  0
 28 29  1  0
 29 30  2  0
 30 31  1  0
 21 32  2  0
  6 33  1  0
 33 34  1  0
 34 35  1  0
 35  4  1  0
 32  7  1  0
 19 10  1  0
 31 22  1  0
 18 13  1  0
 30 25  1  0
  1 36  1  0
  1 37  1  0
  1 38  1  0
  2 39  1  0
  2 40  1  0
  3 41  1  0
  4 42  1  1
  5 43  1  0
  5 44  1  0
 11 45  1  0
 11 46  1  0
 12 47  1  0
 12 48  1  0
 14 49  1  0
 15 50  1  0
 16 51  1  0
 17 52  1  0
 19 53  1  0
 19 54  1  0
 23 55  1  0
 23 56  1  0
 24 57  1  0
 24 58  1  0
 26 59  1  0
 27 60  1  0
 28 61  1  0
 29 62  1  0
 31 63  1  0
 31 64  1  0
 33 65  1  0
 33 66  1  0
 34 67  1  0
 34 68  1  0
M  END
>  <smiles>  (74) 
CCNC1CN(c2nc(N3CCc4ccccc4C3)nc(N3CCc4ccccc4C3)n2)CCO1

>  <score_type>  (74) 
oracle

>  <origin>  (74) 
autodockgpu

>  <m_score__min__energy>  (74) 
-9.5500000000000007

>  <m_primary>  (74) 
energy

>  <rmsd>  (74) 
7.211633835610518

>  <m_score__min__rmsd>  (74) 
7.211633835610518

>  <meeko>  (74) 
{"free_energy": -9.24, "intermolecular_energy": -10.73, "internal_energy": -1.02, "cluster_size": 45, "cluster_id": 1, "rank_in_cluster": 13}

>  <energy>  (74) 
-9.09

>  <cluster_rmsd>  (74) 
1.43

>  <cluster>  (74) 
1

$$$$

     RDKit          3D

 68 73  0  0  1  0  0  0  0  0999 V2000
  145.9800   67.9410  219.4340 C   0  0  0  0  0  0  0  0  0  0  0  0
  145.0780   69.0270  218.8560 C   0  0  0  0  0  0  0  0  0  0  0  0
  145.7550   70.3020  218.9840 N   0  0  0  0  0  0  0  0  0  0  0  0
  144.9230   71.4330  218.6350 C   0  0  1  0  0  0  0  0  0  0  0  0
  143.7040   71.3750  219.5020 C   0  0  0  0  0  0  0  0  0  0  0  0
  143.7770   72.3400  220.5630 N   0  0  0  0  0  0  0  0  0  0  0  0
  142.5760   72.8640  221.1650 C   0  0  0  0  0  0  0  0  0  0  0  0
  142.1810   74.1400  220.9490 N   0  0  0  0  0  0  0  0  0  0  0  0
  141.0640   74.5990  221.5200 C   0  0  0  0  0  0  0  0  0  0  0  0
  140.5730   75.9260  221.3490 N   0  0  0  0  0  0  0  0  0  0  0  0
  139.8810   76.3330  220.1480 C   0  0  0  0  0  0  0  0  0  0  0  0
  140.4700   77.6880  219.7460 C   0  0  0  0  0  0  0  0  0  0  0  0
  139.9960   78.6290  220.8230 C   0  0  0  0  0  0  0  0  0  0  0  0
  139.4310   79.8460  220.5150 C   0  0  0  0  0  0  0  0  0  0  0  0
  139.0040   80.6900  221.5120 C   0  0  0  0  0  0  0  0  0  0  0  0
  139.1650   80.2750  222.8270 C   0  0  0  0  0  0  0  0  0  0  0  0
  139.7380   79.0430  223.1270 C   0  0  0  0  0  0  0  0  0  0  0  0
  140.1720   78.1810  222.1190 C   0  0  0  0  0  0  0  0  0  0  0  0
  140.7800   76.8760  222.4130 C   0  0  0  0  0  0  0  0  0  0  0  0
  140.3470   73.7560  222.3140 N   0  0  0  0  0  0  0  0  0  0  0  0
  140.7170   72.4980  222.5390 C   0  0  0  0  0  0  0  0  0  0  0  0
  139.9790   71.5950  223.3700 N   0  0  0  0  0  0  0  0  0  0  0  0
  138.9380   70.7560  222.8170 C   0  0  0  0  0  0  0  0  0  0  0  0
  139.2800   69.2770  223.0090 C   0  0  0  0  0  0  0  0  0  0  0  0
  139.5450   69.1210  224.4620 C   0  0  0  0  0  0  0  0  0  0  0  0
  139.3190   67.8790  225.0110 C   0  0  0  0  0  0  0  0  0  0  0  0
  139.5340   67.6340  226.3500 C   0  0  0  0  0  0  0  0  0  0  0  0
  139.9930   68.6560  227.1830 C   0  0  0  0  0  0  0  0  0  0  0  0
  140.2170   69.9000  226.6250 C   0  0  0  0  0  0  0  0  0  0  0  0
  139.9970   70.1420  225.2690 C   0  0  0  0  0  0  0  0  0  0  0  0
  140.2740   71.5170  224.7870 C   0  0  0  0  0  0  0  0  0  0  0  0
  141.8470   72.0630  221.9510 N   0  0  0  0  0  0  0  0  0  0  0  0
  145.0790   72.7710  221.0100 C   0  0  0  0  0  0  0  0  0  0  0  0
  146.0070   73.0870  219.8610 C   0  0  0  0  0  0  0  0  0  0  0  0
  145.5780   72.6280  218.6500 O   0  0  0  0  0  0  0  0  0  0  0  0
  145.9457   67.9823  220.5327 H   0  0  0  0  0  0  0  0  0  0  0  0
  145.6314   66.9550  219.0931 H   0  0  0  0  0  0  0  0  0  0  0  0
  147.0133   68.1027  219.0931 H   0  0  0  0  0  0  0  0  0  0  0  0
  144.8782   68.8177  217.7948 H   0  0  0  0  0  0  0  0  0  0  0  0
  144.1216   69.0515  219.3988 H   0  0  0  0  0  0  0  0  0  0  0  0
  146.2540   70.4130  219.8680 H   0  0  0  0  0  0  0  0  0  0  0  0
  144.6169   71.3615  217.5809 H   0  0  0  0  0  0  0  0  0  0  0  0
  142.8159   71.5835  218.8874 H   0  0  0  0  0  0  0  0  0  0  0  0
  143.6396   70.3711  219.9470 H   0  0  0  0  0  0  0  0  0  0  0  0
  140.0426   75.5958  219.3478 H   0  0  0  0  0  0  0  0  0  0  0  0
  138.7966   76.4049  220.3182 H   0  0  0  0  0  0  0  0  0  0  0  0
  141.5689   77.6443  219.7216 H   0  0  0  0  0  0  0  0  0  0  0  0
  140.1545   78.0039  218.7407 H   0  0  0  0  0  0  0  0  0  0  0  0
  139.3204   80.1453  219.4623 H   0  0  0  0  0  0  0  0  0  0  0  0
  138.5492   81.6633  221.2756 H   0  0  0  0  0  0  0  0  0  0  0  0
  138.8340   80.9311  223.6455 H   0  0  0  0  0  0  0  0  0  0  0  0
  139.8511   78.7427  224.1792 H   0  0  0  0  0  0  0  0  0  0  0  0
  141.8615   77.0141  222.5590 H   0  0  0  0  0  0  0  0  0  0  0  0
  140.3010   76.4771  223.3193 H   0  0  0  0  0  0  0  0  0  0  0  0
  137.9878   70.9763  223.3254 H   0  0  0  0  0  0  0  0  0  0  0  0
  138.8501   70.9629  221.7402 H   0  0  0  0  0  0  0  0  0  0  0  0
  138.4353   68.6432  222.7013 H   0  0  0  0  0  0  0  0  0  0  0  0
  140.1442   68.9737  222.3998 H   0  0  0  0  0  0  0  0  0  0  0  0
  138.9587   67.0637  224.3664 H   0  0  0  0  0  0  0  0  0  0  0  0
  139.3438   66.6323  226.7628 H   0  0  0  0  0  0  0  0  0  0  0  0
  140.1713   68.4759  228.2534 H   0  0  0  0  0  0  0  0  0  0  0  0
  140.5773   70.7188  227.2651 H   0  0  0  0  0  0  0  0  0  0  0  0
  139.6425   72.2326  225.3340 H   0  0  0  0  0  0  0  0  0  0  0  0
  141.3328   71.7616  224.9576 H   0  0  0  0  0  0  0  0  0  0  0  0
  144.9597   73.6743  221.6264 H   0  0  0  0  0  0  0  0  0  0  0  0
  145.5259   71.9466  221.5850 H   0  0  0  0  0  0  0  0  0  0  0  0
  146.1156   74.1797  219.7964 H   0  0  0  0  0  0  0  0  0  0  0  0
  146.9570   72.5747  220.0734 H   0  0  0  0  0  0  0  0  0  0  0  0
  1  2  1  0
  2  3  1  0
  3  4  1  0
  4  5  1  0
  5  6  1  0
  6  7  1  0
  7  8  2  0
  8  9  1  0
  9 10  1  0
 10 11  1  0
 11 12  1  0
 12 13  1  0
 13 14  2  0
 14 15  1  0
 15 16  2  0
 16 17  1  0
 17 18  2  0
 18 19  1  0
  9 20  2  0
 20 21  1  0
 21 22  1  0
 22 23  1  0
 23 24  1  0
 24 25  1  0
 25 26  2  0
 26 27  1  0
 27 28  2  0
 28 29  1  0
 29 30  2  0
 30 31  1  0
 21 32  2  0
  6 33  1  0
 33 34  1  0
 34 35  1  0
 35  4  1  0
 32  7  1  0
 19 10  1  0
 31 22  1  0
 18 13  1  0
 30 25  1  0
  1 36  1  0
  1 37  1  0
  1 38  1  0
  2 39  1  0
  2 40  1  0
  3 41  1  0
  4 42  1  6
  5 43  1  0
  5 44  1  0
 11 45  1  0
 11 46  1  0
 12 47  1  0
 12 48  1  0
 14 49  1  0
 15 50  1  0
 16 51  1  0
 17 52  1  0
 19 53  1  0
 19 54  1  0
 23 55  1  0
 23 56  1  0
 24 57  1  0
 24 58  1  0
 26 59  1  0
 27 60  1  0
 28 61  1  0
 29 62  1  0
 31 63  1  0
 31 64  1  0
 33 65  1  0
 33 66  1  0
 34 67  1  0
 34 68  1  0
M  END
>  <smiles>  (75) 
CCNC1CN(c2nc(N3CCc4ccccc4C3)nc(N3CCc4ccccc4C3)n2)CCO1

>  <score_type>  (75) 
oracle

>  <origin>  (75) 
autodockgpu

>  <m_score__min__energy>  (75) 
-9.5500000000000007

>  <m_primary>  (75) 
energy

>  <rmsd>  (75) 
9.319202649986293

>  <m_score__min__rmsd>  (75) 
9.319202649986293

>  <meeko>  (75) 
{"free_energy": -9.03, "intermolecular_energy": -10.52, "internal_energy": -0.98, "cluster_size": 45, "cluster_id": 1, "rank_in_cluster": 35}

>  <energy>  (75) 
-9.09

>  <cluster_rmsd>  (75) 
1.51

>  <cluster>  (75) 
1

$$$$

     RDKit          3D

 68 73  0  0  1  0  0  0  0  0999 V2000
  145.1510   75.2310  215.7970 C   0  0  0  0  0  0  0  0  0  0  0  0
  146.0330   74.0270  216.1140 C   0  0  0  0  0  0  0  0  0  0  0  0
  145.2750   73.1060  216.9360 N   0  0  0  0  0  0  0  0  0  0  0  0
  145.3670   73.3890  218.3520 C   0  0  1  0  0  0  0  0  0  0  0  0
  144.0010   73.7800  218.8200 C   0  0  0  0  0  0  0  0  0  0  0  0
  143.3740   72.7090  219.5410 N   0  0  0  0  0  0  0  0  0  0  0  0
  142.3600   72.9810  220.5300 C   0  0  0  0  0  0  0  0  0  0  0  0
  141.9530   72.0270  221.4000 N   0  0  0  0  0  0  0  0  0  0  0  0
  141.0130   72.3070  222.3050 C   0  0  0  0  0  0  0  0  0  0  0  0
  140.5240   71.3660  223.2590 N   0  0  0  0  0  0  0  0  0  0  0  0
  139.6360   70.2900  222.8810 C   0  0  0  0  0  0  0  0  0  0  0  0
  138.5230   70.2570  223.9320 C   0  0  0  0  0  0  0  0  0  0  0  0
  139.2160   69.7890  225.1850 C   0  0  0  0  0  0  0  0  0  0  0  0
  138.6870   68.7830  225.9640 C   0  0  0  0  0  0  0  0  0  0  0  0
  139.3350   68.3690  227.1030 C   0  0  0  0  0  0  0  0  0  0  0  0
  140.5270   68.9970  227.4380 C   0  0  0  0  0  0  0  0  0  0  0  0
  141.0510   70.0120  226.6430 C   0  0  0  0  0  0  0  0  0  0  0  0
  140.3990   70.4360  225.4850 C   0  0  0  0  0  0  0  0  0  0  0  0
  140.9360   71.5060  224.6320 C   0  0  0  0  0  0  0  0  0  0  0  0
  140.4830   73.5620  222.3250 N   0  0  0  0  0  0  0  0  0  0  0  0
  140.8690   74.5140  221.4800 C   0  0  0  0  0  0  0  0  0  0  0  0
  140.3260   75.8390  221.4830 N   0  0  0  0  0  0  0  0  0  0  0  0
  138.8960   76.0590  221.4300 C   0  0  0  0  0  0  0  0  0  0  0  0
  138.4180   76.7970  222.6820 C   0  0  0  0  0  0  0  0  0  0  0  0
  139.2660   78.0140  222.7670 C   0  0  0  0  0  0  0  0  0  0  0  0
  138.7290   79.1090  223.4050 C   0  0  0  0  0  0  0  0  0  0  0  0
  139.4360   80.2840  223.5350 C   0  0  0  0  0  0  0  0  0  0  0  0
  140.7270   80.3850  223.0150 C   0  0  0  0  0  0  0  0  0  0  0  0
  141.2600   79.2830  222.3750 C   0  0  0  0  0  0  0  0  0  0  0  0
  140.5380   78.0950  222.2460 C   0  0  0  0  0  0  0  0  0  0  0  0
  141.2160   76.9810  221.5400 C   0  0  0  0  0  0  0  0  0  0  0  0
  141.8190   74.2040  220.5780 N   0  0  0  0  0  0  0  0  0  0  0  0
  143.7840   71.3560  219.2540 C   0  0  0  0  0  0  0  0  0  0  0  0
  145.2860   71.2140  219.1730 C   0  0  0  0  0  0  0  0  0  0  0  0
  145.9580   72.3970  219.0770 O   0  0  0  0  0  0  0  0  0  0  0  0
  144.8117   75.6942  216.7353 H   0  0  0  0  0  0  0  0  0  0  0  0
  145.7272   75.9642  215.2136 H   0  0  0  0  0  0  0  0  0  0  0  0
  144.2782   74.9027  215.2136 H   0  0  0  0  0  0  0  0  0  0  0  0
  146.3325   73.5301  215.1795 H   0  0  0  0  0  0  0  0  0  0  0  0
  146.9376   74.3526  216.6485 H   0  0  0  0  0  0  0  0  0  0  0  0
  144.3190   72.9550  216.6070 H   0  0  0  0  0  0  0  0  0  0  0  0
  146.0566   74.2290  218.5221 H   0  0  0  0  0  0  0  0  0  0  0  0
  144.0847   74.6562  219.4798 H   0  0  0  0  0  0  0  0  0  0  0  0
  143.3849   74.0154  217.9397 H   0  0  0  0  0  0  0  0  0  0  0  0
  139.2119   70.4795  221.8839 H   0  0  0  0  0  0  0  0  0  0  0  0
  140.1704   69.3296  222.8365 H   0  0  0  0  0  0  0  0  0  0  0  0
  138.0911   71.2585  224.0753 H   0  0  0  0  0  0  0  0  0  0  0  0
  137.6872   69.6033  223.6420 H   0  0  0  0  0  0  0  0  0  0  0  0
  137.7389   68.3077  225.6720 H   0  0  0  0  0  0  0  0  0  0  0  0
  138.9220   67.5649  227.7298 H   0  0  0  0  0  0  0  0  0  0  0  0
  141.0656   68.6875  228.3458 H   0  0  0  0  0  0  0  0  0  0  0  0
  141.9984   70.4895  226.9336 H   0  0  0  0  0  0  0  0  0  0  0  0
  140.5790   72.4746  225.0119 H   0  0  0  0  0  0  0  0  0  0  0  0
  142.0338   71.4436  224.6631 H   0  0  0  0  0  0  0  0  0  0  0  0
  138.6556   76.6612  220.5415 H   0  0  0  0  0  0  0  0  0  0  0  0
  138.3889   75.0843  221.3776 H   0  0  0  0  0  0  0  0  0  0  0  0
  137.3574   77.0723  222.5857 H   0  0  0  0  0  0  0  0  0  0  0  0
  138.5041   76.1732  223.5839 H   0  0  0  0  0  0  0  0  0  0  0  0
  137.7125   79.0443  223.8204 H   0  0  0  0  0  0  0  0  0  0  0  0
  138.9823   81.1439  224.0495 H   0  0  0  0  0  0  0  0  0  0  0  0
  141.3042   81.3163  223.1121 H   0  0  0  0  0  0  0  0  0  0  0  0
  142.2760   79.3428  221.9577 H   0  0  0  0  0  0  0  0  0  0  0  0
  141.4749   77.2966  220.5185 H   0  0  0  0  0  0  0  0  0  0  0  0
  142.1341   76.7065  222.0801 H   0  0  0  0  0  0  0  0  0  0  0  0
  143.4093   70.6968  220.0509 H   0  0  0  0  0  0  0  0  0  0  0  0
  143.3678   71.0803  218.2738 H   0  0  0  0  0  0  0  0  0  0  0  0
  145.6320   70.6939  220.0784 H   0  0  0  0  0  0  0  0  0  0  0  0
  145.4999   70.6549  218.2502 H   0  0  0  0  0  0  0  0  0  0  0  0
  1  2  1  0
  2  3  1  0
  3  4  1  0
  4  5  1  0
  5  6  1  0
  6  7  1  0
  7  8  2  0
  8  9  1  0
  9 10  1  0
 10 11  1  0
 11 12  1  0
 12 13  1  0
 13 14  2  0
 14 15  1  0
 15 16  2  0
 16 17  1  0
 17 18  2  0
 18 19  1  0
  9 20  2  0
 20 21  1  0
 21 22  1  0
 22 23  1  0
 23 24  1  0
 24 25  1  0
 25 26  2  0
 26 27  1  0
 27 28  2  0
 28 29  1  0
 29 30  2  0
 30 31  1  0
 21 32  2  0
  6 33  1  0
 33 34  1  0
 34 35  1  0
 35  4  1  0
 32  7  1  0
 19 10  1  0
 31 22  1  0
 18 13  1  0
 30 25  1  0
  1 36  1  0
  1 37  1  0
  1 38  1  0
  2 39  1  0
  2 40  1  0
  3 41  1  0
  4 42  1  6
  5 43  1  0
  5 44  1  0
 11 45  1  0
 11 46  1  0
 12 47  1  0
 12 48  1  0
 14 49  1  0
 15 50  1  0
 16 51  1  0
 17 52  1  0
 19 53  1  0
 19 54  1  0
 23 55  1  0
 23 56  1  0
 24 57  1  0
 24 58  1  0
 26 59  1  0
 27 60  1  0
 28 61  1  0
 29 62  1  0
 31 63  1  0
 31 64  1  0
 33 65  1  0
 33 66  1  0
 34 67  1  0
 34 68  1  0
M  END
>  <smiles>  (76) 
CCNC1CN(c2nc(N3CCc4ccccc4C3)nc(N3CCc4ccccc4C3)n2)CCO1

>  <score_type>  (76) 
oracle

>  <origin>  (76) 
autodockgpu

>  <m_score__min__energy>  (76) 
-9.5500000000000007

>  <m_primary>  (76) 
energy

>  <rmsd>  (76) 
7.398057127756844

>  <m_score__min__rmsd>  (76) 
7.398057127756844

>  <meeko>  (76) 
{"free_energy": -9.08, "intermolecular_energy": -10.57, "internal_energy": -0.99, "cluster_size": 45, "cluster_id": 1, "rank_in_cluster": 27}

>  <energy>  (76) 
-9.08

>  <cluster_rmsd>  (76) 
1.77

>  <cluster>  (76) 
1

$$$$

     RDKit          3D

 68 73  0  0  1  0  0  0  0  0999 V2000
  146.3140   73.7680  220.9720 C   0  0  0  0  0  0  0  0  0  0  0  0
  145.9450   72.5650  220.1080 C   0  0  0  0  0  0  0  0  0  0  0  0
  145.6340   73.0360  218.7740 N   0  0  0  0  0  0  0  0  0  0  0  0
  144.2240   72.9830  218.4580 C   0  0  1  0  0  0  0  0  0  0  0  0
  143.4990   72.6110  219.7130 C   0  0  0  0  0  0  0  0  0  0  0  0
  142.8570   73.7540  220.2980 N   0  0  0  0  0  0  0  0  0  0  0  0
  141.6950   73.5980  221.1390 C   0  0  0  0  0  0  0  0  0  0  0  0
  141.5560   72.5250  221.9510 N   0  0  0  0  0  0  0  0  0  0  0  0
  140.4700   72.4060  222.7190 C   0  0  0  0  0  0  0  0  0  0  0  0
  140.2390   71.3120  223.6040 N   0  0  0  0  0  0  0  0  0  0  0  0
  139.6180   70.0870  223.1550 C   0  0  0  0  0  0  0  0  0  0  0  0
  138.5710   69.7190  224.2100 C   0  0  0  0  0  0  0  0  0  0  0  0
  139.3860   69.3390  225.4190 C   0  0  0  0  0  0  0  0  0  0  0  0
  139.1270   68.1850  226.1240 C   0  0  0  0  0  0  0  0  0  0  0  0
  139.8830   67.8560  227.2240 C   0  0  0  0  0  0  0  0  0  0  0  0
  140.9030   68.7210  227.5950 C   0  0  0  0  0  0  0  0  0  0  0  0
  141.1560   69.8840  226.8740 C   0  0  0  0  0  0  0  0  0  0  0  0
  140.3930   70.2240  225.7560 C   0  0  0  0  0  0  0  0  0  0  0  0
  140.6420   71.4480  224.9810 C   0  0  0  0  0  0  0  0  0  0  0  0
  139.5220   73.3830  222.6600 N   0  0  0  0  0  0  0  0  0  0  0  0
  139.6390   74.4450  221.8680 C   0  0  0  0  0  0  0  0  0  0  0  0
  138.6560   75.4830  221.7890 N   0  0  0  0  0  0  0  0  0  0  0  0
  137.2650   75.1740  221.5320 C   0  0  0  0  0  0  0  0  0  0  0  0
  136.3880   75.6280  222.7000 C   0  0  0  0  0  0  0  0  0  0  0  0
  136.7140   77.0630  222.9010 C   0  0  0  0  0  0  0  0  0  0  0  0
  135.7350   77.8570  223.4530 C   0  0  0  0  0  0  0  0  0  0  0  0
  135.9400   79.2000  223.6790 C   0  0  0  0  0  0  0  0  0  0  0  0
  137.1630   79.7860  223.3470 C   0  0  0  0  0  0  0  0  0  0  0  0
  138.1410   78.9830  222.7940 C   0  0  0  0  0  0  0  0  0  0  0  0
  137.9270   77.6230  222.5680 C   0  0  0  0  0  0  0  0  0  0  0  0
  139.0520   76.8650  221.9690 C   0  0  0  0  0  0  0  0  0  0  0  0
  140.7450   74.5390  221.1050 N   0  0  0  0  0  0  0  0  0  0  0  0
  143.4010   75.0620  220.0240 C   0  0  0  0  0  0  0  0  0  0  0  0
  143.7310   75.2540  218.5630 C   0  0  0  0  0  0  0  0  0  0  0  0
  143.7530   74.1000  217.8360 O   0  0  0  0  0  0  0  0  0  0  0  0
  146.2305   73.4957  222.0345 H   0  0  0  0  0  0  0  0  0  0  0  0
  147.3474   74.0742  220.7521 H   0  0  0  0  0  0  0  0  0  0  0  0
  145.6300   74.6010  220.7521 H   0  0  0  0  0  0  0  0  0  0  0  0
  146.7920   71.8643  220.0662 H   0  0  0  0  0  0  0  0  0  0  0  0
  145.0755   72.0453  220.5367 H   0  0  0  0  0  0  0  0  0  0  0  0
  146.0760   73.9280  218.5420 H   0  0  0  0  0  0  0  0  0  0  0  0
  144.0401   72.2116  217.6957 H   0  0  0  0  0  0  0  0  0  0  0  0
  142.7375   71.8532  219.4766 H   0  0  0  0  0  0  0  0  0  0  0  0
  144.2294   72.2141  220.4334 H   0  0  0  0  0  0  0  0  0  0  0  0
  139.1357   70.2411  222.1784 H   0  0  0  0  0  0  0  0  0  0  0  0
  140.3610   69.2848  223.0349 H   0  0  0  0  0  0  0  0  0  0  0  0
  137.9210   70.5783  224.4315 H   0  0  0  0  0  0  0  0  0  0  0  0
  137.9041   68.9094  223.8787 H   0  0  0  0  0  0  0  0  0  0  0  0
  138.3095   67.5218  225.8048 H   0  0  0  0  0  0  0  0  0  0  0  0
  139.6856   66.9354  227.7927 H   0  0  0  0  0  0  0  0  0  0  0  0
  141.5214   68.4834  228.4731 H   0  0  0  0  0  0  0  0  0  0  0  0
  141.9733   70.5483  227.1914 H   0  0  0  0  0  0  0  0  0  0  0  0
  140.0776   72.2758  225.4352 H   0  0  0  0  0  0  0  0  0  0  0  0
  141.7242   71.6443  224.9983 H   0  0  0  0  0  0  0  0  0  0  0  0
  136.9431   75.6910  220.6160 H   0  0  0  0  0  0  0  0  0  0  0  0
  137.1599   74.0857  221.4117 H   0  0  0  0  0  0  0  0  0  0  0  0
  135.3232   75.5059  222.4524 H   0  0  0  0  0  0  0  0  0  0  0  0
  136.5742   75.0344  223.6072 H   0  0  0  0  0  0  0  0  0  0  0  0
  134.7665   77.4088  223.7198 H   0  0  0  0  0  0  0  0  0  0  0  0
  135.1397   79.8114  224.1214 H   0  0  0  0  0  0  0  0  0  0  0  0
  137.3425   80.8572  223.5210 H   0  0  0  0  0  0  0  0  0  0  0  0
  139.1114   79.4260  222.5255 H   0  0  0  0  0  0  0  0  0  0  0  0
  139.3121   77.3027  220.9939 H   0  0  0  0  0  0  0  0  0  0  0  0
  139.9258   76.9142  222.6354 H   0  0  0  0  0  0  0  0  0  0  0  0
  142.6628   75.8211  220.3221 H   0  0  0  0  0  0  0  0  0  0  0  0
  144.3358   75.1626  220.5949 H   0  0  0  0  0  0  0  0  0  0  0  0
  142.9761   75.9231  218.1244 H   0  0  0  0  0  0  0  0  0  0  0  0
  144.7479   75.6715  218.5220 H   0  0  0  0  0  0  0  0  0  0  0  0
  1  2  1  0
  2  3  1  0
  3  4  1  0
  4  5  1  0
  5  6  1  0
  6  7  1  0
  7  8  2  0
  8  9  1  0
  9 10  1  0
 10 11  1  0
 11 12  1  0
 12 13  1  0
 13 14  2  0
 14 15  1  0
 15 16  2  0
 16 17  1  0
 17 18  2  0
 18 19  1  0
  9 20  2  0
 20 21  1  0
 21 22  1  0
 22 23  1  0
 23 24  1  0
 24 25  1  0
 25 26  2  0
 26 27  1  0
 27 28  2  0
 28 29  1  0
 29 30  2  0
 30 31  1  0
 21 32  2  0
  6 33  1  0
 33 34  1  0
 34 35  1  0
 35  4  1  0
 32  7  1  0
 19 10  1  0
 31 22  1  0
 18 13  1  0
 30 25  1  0
  1 36  1  0
  1 37  1  0
  1 38  1  0
  2 39  1  0
  2 40  1  0
  3 41  1  0
  4 42  1  6
  5 43  1  0
  5 44  1  0
 11 45  1  0
 11 46  1  0
 12 47  1  0
 12 48  1  0
 14 49  1  0
 15 50  1  0
 16 51  1  0
 17 52  1  0
 19 53  1  0
 19 54  1  0
 23 55  1  0
 23 56  1  0
 24 57  1  0
 24 58  1  0
 26 59  1  0
 27 60  1  0
 28 61  1  0
 29 62  1  0
 31 63  1  0
 31 64  1  0
 33 65  1  0
 33 66  1  0
 34 67  1  0
 34 68  1  0
M  END
>  <smiles>  (77) 
CCNC1CN(c2nc(N3CCc4ccccc4C3)nc(N3CCc4ccccc4C3)n2)CCO1

>  <score_type>  (77) 
oracle

>  <origin>  (77) 
autodockgpu

>  <m_score__min__energy>  (77) 
-9.5500000000000007

>  <m_primary>  (77) 
energy

>  <rmsd>  (77) 
6.16792679085989

>  <m_score__min__rmsd>  (77) 
6.16792679085989

>  <meeko>  (77) 
{"free_energy": -9.37, "intermolecular_energy": -10.86, "internal_energy": -1.05, "cluster_size": 45, "cluster_id": 1, "rank_in_cluster": 10}

>  <energy>  (77) 
-9.08

>  <cluster_rmsd>  (77) 
1.47

>  <cluster>  (77) 
1

$$$$

     RDKit          3D

 68 73  0  0  1  0  0  0  0  0999 V2000
  147.2100   73.7310  215.6730 C   0  0  0  0  0  0  0  0  0  0  0  0
  145.8780   74.1860  216.2630 C   0  0  0  0  0  0  0  0  0  0  0  0
  145.3430   73.1090  217.0730 N   0  0  0  0  0  0  0  0  0  0  0  0
  145.4030   73.3740  218.4940 C   0  0  1  0  0  0  0  0  0  0  0  0
  144.0250   73.7530  218.9360 C   0  0  0  0  0  0  0  0  0  0  0  0
  143.3880   72.6690  219.6300 N   0  0  0  0  0  0  0  0  0  0  0  0
  142.3510   72.9230  220.6000 C   0  0  0  0  0  0  0  0  0  0  0  0
  141.9540   71.9660  221.4700 N   0  0  0  0  0  0  0  0  0  0  0  0
  140.9910   72.2290  222.3570 C   0  0  0  0  0  0  0  0  0  0  0  0
  140.5100   71.2840  223.3100 N   0  0  0  0  0  0  0  0  0  0  0  0
  139.5620   70.2540  222.9490 C   0  0  0  0  0  0  0  0  0  0  0  0
  138.5000   70.2370  224.0520 C   0  0  0  0  0  0  0  0  0  0  0  0
  139.2310   69.7090  225.2580 C   0  0  0  0  0  0  0  0  0  0  0  0
  138.6990   68.7050  226.0370 C   0  0  0  0  0  0  0  0  0  0  0  0
  139.3820   68.2370  227.1340 C   0  0  0  0  0  0  0  0  0  0  0  0
  140.6130   68.8080  227.4260 C   0  0  0  0  0  0  0  0  0  0  0  0
  141.1410   69.8220  226.6320 C   0  0  0  0  0  0  0  0  0  0  0  0
  140.4530   70.3020  225.5170 C   0  0  0  0  0  0  0  0  0  0  0  0
  140.9910   71.3720  224.6650 C   0  0  0  0  0  0  0  0  0  0  0  0
  140.4300   73.4700  222.3580 N   0  0  0  0  0  0  0  0  0  0  0  0
  140.8060   74.4250  221.5120 C   0  0  0  0  0  0  0  0  0  0  0  0
  140.2300   75.7370  221.4950 N   0  0  0  0  0  0  0  0  0  0  0  0
  138.7950   75.9200  221.4450 C   0  0  0  0  0  0  0  0  0  0  0  0
  138.3050   76.6670  222.6870 C   0  0  0  0  0  0  0  0  0  0  0  0
  139.1220   77.9060  222.7470 C   0  0  0  0  0  0  0  0  0  0  0  0
  138.5610   78.9980  223.3690 C   0  0  0  0  0  0  0  0  0  0  0  0
  139.2380   80.1930  223.4760 C   0  0  0  0  0  0  0  0  0  0  0  0
  140.5250   80.3170  222.9470 C   0  0  0  0  0  0  0  0  0  0  0  0
  141.0820   79.2170  222.3240 C   0  0  0  0  0  0  0  0  0  0  0  0
  140.3890   78.0100  222.2190 C   0  0  0  0  0  0  0  0  0  0  0  0
  141.0920   76.9010  221.5280 C   0  0  0  0  0  0  0  0  0  0  0  0
  141.7790   74.1320  220.6290 N   0  0  0  0  0  0  0  0  0  0  0  0
  143.8120   71.3220  219.3350 C   0  0  0  0  0  0  0  0  0  0  0  0
  145.3160   71.1890  219.2860 C   0  0  0  0  0  0  0  0  0  0  0  0
  145.9830   72.3770  219.2190 O   0  0  0  0  0  0  0  0  0  0  0  0
  147.9094   73.4921  216.4877 H   0  0  0  0  0  0  0  0  0  0  0  0
  147.0500   72.8366  215.0530 H   0  0  0  0  0  0  0  0  0  0  0  0
  147.6306   74.5364  215.0530 H   0  0  0  0  0  0  0  0  0  0  0  0
  146.0339   75.0780  216.8875 H   0  0  0  0  0  0  0  0  0  0  0  0
  145.1739   74.4369  215.4560 H   0  0  0  0  0  0  0  0  0  0  0  0
  144.4340   72.7700  216.7540 H   0  0  0  0  0  0  0  0  0  0  0  0
  146.0850   74.2144  218.6904 H   0  0  0  0  0  0  0  0  0  0  0  0
  144.0894   74.6214  219.6082 H   0  0  0  0  0  0  0  0  0  0  0  0
  143.4272   73.9969  218.0454 H   0  0  0  0  0  0  0  0  0  0  0  0
  139.0989   70.4865  221.9787 H   0  0  0  0  0  0  0  0  0  0  0  0
  140.0542   69.2748  222.8546 H   0  0  0  0  0  0  0  0  0  0  0  0
  138.1167   71.2507  224.2406 H   0  0  0  0  0  0  0  0  0  0  0  0
  137.6257   69.6244  223.7867 H   0  0  0  0  0  0  0  0  0  0  0  0
  137.7201   68.2746  225.7791 H   0  0  0  0  0  0  0  0  0  0  0  0
  138.9660   67.4348  227.7612 H   0  0  0  0  0  0  0  0  0  0  0  0
  141.1805   68.4534  228.2990 H   0  0  0  0  0  0  0  0  0  0  0  0
  142.1198   70.2534  226.8885 H   0  0  0  0  0  0  0  0  0  0  0  0
  140.6909   72.3434  225.0848 H   0  0  0  0  0  0  0  0  0  0  0  0
  142.0856   71.2662  224.6417 H   0  0  0  0  0  0  0  0  0  0  0  0
  138.5355   76.5009  220.5477 H   0  0  0  0  0  0  0  0  0  0  0  0
  138.3120   74.9323  221.4111 H   0  0  0  0  0  0  0  0  0  0  0  0
  137.2373   76.9138  222.5919 H   0  0  0  0  0  0  0  0  0  0  0  0
  138.4116   76.0609  223.5987 H   0  0  0  0  0  0  0  0  0  0  0  0
  137.5484   78.9147  223.7906 H   0  0  0  0  0  0  0  0  0  0  0  0
  138.7650   81.0498  223.9781 H   0  0  0  0  0  0  0  0  0  0  0  0
  141.0793   81.2640  223.0244 H   0  0  0  0  0  0  0  0  0  0  0  0
  142.0945   79.2941  221.9011 H   0  0  0  0  0  0  0  0  0  0  0  0
  141.3383   77.2055  220.5001 H   0  0  0  0  0  0  0  0  0  0  0  0
  142.0194   76.6586  222.0676 H   0  0  0  0  0  0  0  0  0  0  0  0
  143.4233   70.6506  220.1148 H   0  0  0  0  0  0  0  0  0  0  0  0
  143.4195   71.0568  218.3422 H   0  0  0  0  0  0  0  0  0  0  0  0
  145.6447   70.6601  220.1927 H   0  0  0  0  0  0  0  0  0  0  0  0
  145.5537   70.6419  218.3618 H   0  0  0  0  0  0  0  0  0  0  0  0
  1  2  1  0
  2  3  1  0
  3  4  1  0
  4  5  1  0
  5  6  1  0
  6  7  1  0
  7  8  2  0
  8  9  1  0
  9 10  1  0
 10 11  1  0
 11 12  1  0
 12 13  1  0
 13 14  2  0
 14 15  1  0
 15 16  2  0
 16 17  1  0
 17 18  2  0
 18 19  1  0
  9 20  2  0
 20 21  1  0
 21 22  1  0
 22 23  1  0
 23 24  1  0
 24 25  1  0
 25 26  2  0
 26 27  1  0
 27 28  2  0
 28 29  1  0
 29 30  2  0
 30 31  1  0
 21 32  2  0
  6 33  1  0
 33 34  1  0
 34 35  1  0
 35  4  1  0
 32  7  1  0
 19 10  1  0
 31 22  1  0
 18 13  1  0
 30 25  1  0
  1 36  1  0
  1 37  1  0
  1 38  1  0
  2 39  1  0
  2 40  1  0
  3 41  1  0
  4 42  1  6
  5 43  1  0
  5 44  1  0
 11 45  1  0
 11 46  1  0
 12 47  1  0
 12 48  1  0
 14 49  1  0
 15 50  1  0
 16 51  1  0
 17 52  1  0
 19 53  1  0
 19 54  1  0
 23 55  1  0
 23 56  1  0
 24 57  1  0
 24 58  1  0
 26 59  1  0
 27 60  1  0
 28 61  1  0
 29 62  1  0
 31 63  1  0
 31 64  1  0
 33 65  1  0
 33 66  1  0
 34 67  1  0
 34 68  1  0
M  END
>  <smiles>  (78) 
CCNC1CN(c2nc(N3CCc4ccccc4C3)nc(N3CCc4ccccc4C3)n2)CCO1

>  <score_type>  (78) 
oracle

>  <origin>  (78) 
autodockgpu

>  <m_score__min__energy>  (78) 
-9.5500000000000007

>  <m_primary>  (78) 
energy

>  <rmsd>  (78) 
7.806746707803089

>  <m_score__min__rmsd>  (78) 
7.806746707803089

>  <meeko>  (78) 
{"free_energy": -9.06, "intermolecular_energy": -10.55, "internal_energy": -0.98, "cluster_size": 45, "cluster_id": 1, "rank_in_cluster": 28}

>  <energy>  (78) 
-9.06

>  <cluster_rmsd>  (78) 
1.51

>  <cluster>  (78) 
1

$$$$

     RDKit          3D

 68 73  0  0  1  0  0  0  0  0999 V2000
  146.2910   73.7800  221.0010 C   0  0  0  0  0  0  0  0  0  0  0  0
  145.9500   72.5730  220.1320 C   0  0  0  0  0  0  0  0  0  0  0  0
  145.6340   73.0430  218.7980 N   0  0  0  0  0  0  0  0  0  0  0  0
  144.2250   72.9680  218.4800 C   0  0  1  0  0  0  0  0  0  0  0  0
  143.5010   72.6130  219.7390 C   0  0  0  0  0  0  0  0  0  0  0  0
  142.8440   73.7600  220.3000 N   0  0  0  0  0  0  0  0  0  0  0  0
  141.6810   73.6060  221.1400 C   0  0  0  0  0  0  0  0  0  0  0  0
  141.5370   72.5330  221.9500 N   0  0  0  0  0  0  0  0  0  0  0  0
  140.4500   72.4170  222.7180 C   0  0  0  0  0  0  0  0  0  0  0  0
  140.2140   71.3220  223.6000 N   0  0  0  0  0  0  0  0  0  0  0  0
  139.5850   70.1020  223.1480 C   0  0  0  0  0  0  0  0  0  0  0  0
  138.5380   69.7380  224.2050 C   0  0  0  0  0  0  0  0  0  0  0  0
  139.3530   69.3490  225.4110 C   0  0  0  0  0  0  0  0  0  0  0  0
  139.0880   68.1950  226.1140 C   0  0  0  0  0  0  0  0  0  0  0  0
  139.8440   67.8570  227.2110 C   0  0  0  0  0  0  0  0  0  0  0  0
  140.8710   68.7150  227.5820 C   0  0  0  0  0  0  0  0  0  0  0  0
  141.1290   69.8780  226.8630 C   0  0  0  0  0  0  0  0  0  0  0  0
  140.3660   70.2270  225.7480 C   0  0  0  0  0  0  0  0  0  0  0  0
  140.6220   71.4510  224.9760 C   0  0  0  0  0  0  0  0  0  0  0  0
  139.5070   73.3970  222.6600 N   0  0  0  0  0  0  0  0  0  0  0  0
  139.6290   74.4610  221.8710 C   0  0  0  0  0  0  0  0  0  0  0  0
  138.6500   75.5040  221.7940 N   0  0  0  0  0  0  0  0  0  0  0  0
  137.2590   75.2020  221.5330 C   0  0  0  0  0  0  0  0  0  0  0  0
  136.3810   75.6540  222.7010 C   0  0  0  0  0  0  0  0  0  0  0  0
  136.7130   77.0870  222.9090 C   0  0  0  0  0  0  0  0  0  0  0  0
  135.7360   77.8830  223.4610 C   0  0  0  0  0  0  0  0  0  0  0  0
  135.9460   79.2250  223.6930 C   0  0  0  0  0  0  0  0  0  0  0  0
  137.1730   79.8070  223.3670 C   0  0  0  0  0  0  0  0  0  0  0  0
  138.1490   79.0020  222.8130 C   0  0  0  0  0  0  0  0  0  0  0  0
  137.9290   77.6440  222.5800 C   0  0  0  0  0  0  0  0  0  0  0  0
  139.0530   76.8840  221.9800 C   0  0  0  0  0  0  0  0  0  0  0  0
  140.7350   74.5520  221.1080 N   0  0  0  0  0  0  0  0  0  0  0  0
  143.3740   75.0680  220.0020 C   0  0  0  0  0  0  0  0  0  0  0  0
  143.7070   75.2350  218.5380 C   0  0  0  0  0  0  0  0  0  0  0  0
  143.7440   74.0670  217.8340 O   0  0  0  0  0  0  0  0  0  0  0  0
  146.2124   73.5017  222.0623 H   0  0  0  0  0  0  0  0  0  0  0  0
  147.3175   74.1100  220.7836 H   0  0  0  0  0  0  0  0  0  0  0  0
  145.5889   74.5984  220.7836 H   0  0  0  0  0  0  0  0  0  0  0  0
  146.8113   71.8900  220.0907 H   0  0  0  0  0  0  0  0  0  0  0  0
  145.0900   72.0337  220.5558 H   0  0  0  0  0  0  0  0  0  0  0  0
  146.0620   73.9430  218.5690 H   0  0  0  0  0  0  0  0  0  0  0  0
  144.0511   72.1792  217.7333 H   0  0  0  0  0  0  0  0  0  0  0  0
  142.7489   71.8421  219.5154 H   0  0  0  0  0  0  0  0  0  0  0  0
  144.2338   72.2390  220.4691 H   0  0  0  0  0  0  0  0  0  0  0  0
  139.1016   70.2619  222.1729 H   0  0  0  0  0  0  0  0  0  0  0  0
  140.3226   69.2956  223.0231 H   0  0  0  0  0  0  0  0  0  0  0  0
  137.8944   70.6011  224.4305 H   0  0  0  0  0  0  0  0  0  0  0  0
  137.8649   68.9337  223.8731 H   0  0  0  0  0  0  0  0  0  0  0  0
  138.2649   67.5386  225.7952 H   0  0  0  0  0  0  0  0  0  0  0  0
  139.6419   66.9359  227.7773 H   0  0  0  0  0  0  0  0  0  0  0  0
  141.4902   68.4714  228.4579 H   0  0  0  0  0  0  0  0  0  0  0  0
  141.9515   70.5360  227.1801 H   0  0  0  0  0  0  0  0  0  0  0  0
  140.0653   72.2817  225.4342 H   0  0  0  0  0  0  0  0  0  0  0  0
  141.7057   71.6391  224.9907 H   0  0  0  0  0  0  0  0  0  0  0  0
  136.9412   75.7244  220.6187 H   0  0  0  0  0  0  0  0  0  0  0  0
  137.1499   74.1146  221.4078 H   0  0  0  0  0  0  0  0  0  0  0  0
  135.3163   75.5376  222.4503 H   0  0  0  0  0  0  0  0  0  0  0  0
  136.5621   75.0554  223.6059 H   0  0  0  0  0  0  0  0  0  0  0  0
  134.7648   77.4379  223.7232 H   0  0  0  0  0  0  0  0  0  0  0  0
  135.1469   79.8381  224.1351 H   0  0  0  0  0  0  0  0  0  0  0  0
  137.3569   80.8766  223.5465 H   0  0  0  0  0  0  0  0  0  0  0  0
  139.1223   79.4416  222.5494 H   0  0  0  0  0  0  0  0  0  0  0  0
  139.3171   77.3244  221.0072 H   0  0  0  0  0  0  0  0  0  0  0  0
  139.9262   76.9272  222.6476 H   0  0  0  0  0  0  0  0  0  0  0  0
  142.6263   75.8244  220.2826 H   0  0  0  0  0  0  0  0  0  0  0  0
  144.3057   75.1904  220.5738 H   0  0  0  0  0  0  0  0  0  0  0  0
  142.9463   75.8870  218.0839 H   0  0  0  0  0  0  0  0  0  0  0  0
  144.7194   75.6628  218.4920 H   0  0  0  0  0  0  0  0  0  0  0  0
  1  2  1  0
  2  3  1  0
  3  4  1  0
  4  5  1  0
  5  6  1  0
  6  7  1  0
  7  8  2  0
  8  9  1  0
  9 10  1  0
 10 11  1  0
 11 12  1  0
 12 13  1  0
 13 14  2  0
 14 15  1  0
 15 16  2  0
 16 17  1  0
 17 18  2  0
 18 19  1  0
  9 20  2  0
 20 21  1  0
 21 22  1  0
 22 23  1  0
 23 24  1  0
 24 25  1  0
 25 26  2  0
 26 27  1  0
 27 28  2  0
 28 29  1  0
 29 30  2  0
 30 31  1  0
 21 32  2  0
  6 33  1  0
 33 34  1  0
 34 35  1  0
 35  4  1  0
 32  7  1  0
 19 10  1  0
 31 22  1  0
 18 13  1  0
 30 25  1  0
  1 36  1  0
  1 37  1  0
  1 38  1  0
  2 39  1  0
  2 40  1  0
  3 41  1  0
  4 42  1  6
  5 43  1  0
  5 44  1  0
 11 45  1  0
 11 46  1  0
 12 47  1  0
 12 48  1  0
 14 49  1  0
 15 50  1  0
 16 51  1  0
 17 52  1  0
 19 53  1  0
 19 54  1  0
 23 55  1  0
 23 56  1  0
 24 57  1  0
 24 58  1  0
 26 59  1  0
 27 60  1  0
 28 61  1  0
 29 62  1  0
 31 63  1  0
 31 64  1  0
 33 65  1  0
 33 66  1  0
 34 67  1  0
 34 68  1  0
M  END
>  <smiles>  (79) 
CCNC1CN(c2nc(N3CCc4ccccc4C3)nc(N3CCc4ccccc4C3)n2)CCO1

>  <score_type>  (79) 
oracle

>  <origin>  (79) 
autodockgpu

>  <m_score__min__energy>  (79) 
-9.5500000000000007

>  <m_primary>  (79) 
energy

>  <rmsd>  (79) 
6.147935126236301

>  <m_score__min__rmsd>  (79) 
6.147935126236301

>  <meeko>  (79) 
{"free_energy": -9.4, "intermolecular_energy": -10.89, "internal_energy": -1.05, "cluster_size": 45, "cluster_id": 1, "rank_in_cluster": 7}

>  <energy>  (79) 
-9.06

>  <cluster_rmsd>  (79) 
1.55

>  <cluster>  (79) 
1

$$$$

     RDKit          3D

 68 73  0  0  1  0  0  0  0  0999 V2000
  145.3340   74.9670  215.9310 C   0  0  0  0  0  0  0  0  0  0  0  0
  144.8270   74.1120  217.0890 C   0  0  0  0  0  0  0  0  0  0  0  0
  145.9540   73.4040  217.6640 N   0  0  0  0  0  0  0  0  0  0  0  0
  145.8440   73.2110  219.0930 C   0  0  1  0  0  0  0  0  0  0  0  0
  144.5290   73.7830  219.5210 C   0  0  0  0  0  0  0  0  0  0  0  0
  143.5680   72.7460  219.7690 N   0  0  0  0  0  0  0  0  0  0  0  0
  142.4710   72.9600  220.6800 C   0  0  0  0  0  0  0  0  0  0  0  0
  142.0330   71.9730  221.4960 N   0  0  0  0  0  0  0  0  0  0  0  0
  141.0150   72.1990  222.3300 C   0  0  0  0  0  0  0  0  0  0  0  0
  140.4880   71.2210  223.2230 N   0  0  0  0  0  0  0  0  0  0  0  0
  139.4770   70.2760  222.8070 C   0  0  0  0  0  0  0  0  0  0  0  0
  138.4270   70.2460  223.9210 C   0  0  0  0  0  0  0  0  0  0  0  0
  139.1380   69.5940  225.0780 C   0  0  0  0  0  0  0  0  0  0  0  0
  138.5550   68.5720  225.7940 C   0  0  0  0  0  0  0  0  0  0  0  0
  139.2200   67.9900  226.8470 C   0  0  0  0  0  0  0  0  0  0  0  0
  140.4860   68.4670  227.1590 C   0  0  0  0  0  0  0  0  0  0  0  0
  141.0650   69.5000  226.4280 C   0  0  0  0  0  0  0  0  0  0  0  0
  140.3950   70.0950  225.3590 C   0  0  0  0  0  0  0  0  0  0  0  0
  140.9880   71.1870  224.5740 C   0  0  0  0  0  0  0  0  0  0  0  0
  140.4410   73.4340  222.3330 N   0  0  0  0  0  0  0  0  0  0  0  0
  140.8560   74.4180  221.5400 C   0  0  0  0  0  0  0  0  0  0  0  0
  140.2660   75.7240  221.5270 N   0  0  0  0  0  0  0  0  0  0  0  0
  138.8310   75.8920  221.4470 C   0  0  0  0  0  0  0  0  0  0  0  0
  138.3040   76.6180  222.6860 C   0  0  0  0  0  0  0  0  0  0  0  0
  139.1070   77.8650  222.7810 C   0  0  0  0  0  0  0  0  0  0  0  0
  138.5200   78.9420  223.4050 C   0  0  0  0  0  0  0  0  0  0  0  0
  139.1820   80.1420  223.5420 C   0  0  0  0  0  0  0  0  0  0  0  0
  140.4780   80.2870  223.0450 C   0  0  0  0  0  0  0  0  0  0  0  0
  141.0610   79.2010  222.4210 C   0  0  0  0  0  0  0  0  0  0  0  0
  140.3850   77.9890  222.2840 C   0  0  0  0  0  0  0  0  0  0  0  0
  141.1150   76.8960  221.5950 C   0  0  0  0  0  0  0  0  0  0  0  0
  141.8840   74.1620  220.7100 N   0  0  0  0  0  0  0  0  0  0  0  0
  143.7280   71.4860  219.0850 C   0  0  0  0  0  0  0  0  0  0  0  0
  145.1540   70.9890  219.1180 C   0  0  0  0  0  0  0  0  0  0  0  0
  146.0680   71.9290  219.4970 O   0  0  0  0  0  0  0  0  0  0  0  0
  145.8572   75.8493  216.3283 H   0  0  0  0  0  0  0  0  0  0  0  0
  146.0277   74.3759  215.3150 H   0  0  0  0  0  0  0  0  0  0  0  0
  144.4826   75.2921  215.3150 H   0  0  0  0  0  0  0  0  0  0  0  0
  144.3649   74.7561  217.8516 H   0  0  0  0  0  0  0  0  0  0  0  0
  144.0751   73.3949  216.7279 H   0  0  0  0  0  0  0  0  0  0  0  0
  146.2100   72.5590  217.1510 H   0  0  0  0  0  0  0  0  0  0  0  0
  146.6533   73.7500  219.6074 H   0  0  0  0  0  0  0  0  0  0  0  0
  144.6741   74.3656  220.4427 H   0  0  0  0  0  0  0  0  0  0  0  0
  144.1485   74.4245  218.7125 H   0  0  0  0  0  0  0  0  0  0  0  0
  139.0188   70.6011  221.8613 H   0  0  0  0  0  0  0  0  0  0  0  0
  139.9091   69.2783  222.6400 H   0  0  0  0  0  0  0  0  0  0  0  0
  138.1069   71.2651  224.1835 H   0  0  0  0  0  0  0  0  0  0  0  0
  137.5149   69.7059  223.6272 H   0  0  0  0  0  0  0  0  0  0  0  0
  137.5496   68.2188  225.5212 H   0  0  0  0  0  0  0  0  0  0  0  0
  138.7636   67.1723  227.4241 H   0  0  0  0  0  0  0  0  0  0  0  0
  141.0405   68.0211  227.9978 H   0  0  0  0  0  0  0  0  0  0  0  0
  142.0707   69.8542  226.6985 H   0  0  0  0  0  0  0  0  0  0  0  0
  140.7518   72.1435  225.0632 H   0  0  0  0  0  0  0  0  0  0  0  0
  142.0740   71.0180  224.5276 H   0  0  0  0  0  0  0  0  0  0  0  0
  138.5854   76.4810  220.5511 H   0  0  0  0  0  0  0  0  0  0  0  0
  138.3603   74.8994  221.3906 H   0  0  0  0  0  0  0  0  0  0  0  0
  137.2363   76.8552  222.5686 H   0  0  0  0  0  0  0  0  0  0  0  0
  138.3952   76.0014  223.5924 H   0  0  0  0  0  0  0  0  0  0  0  0
  137.4995   78.8423  223.8032 H   0  0  0  0  0  0  0  0  0  0  0  0
  138.6885   80.9873  224.0439 H   0  0  0  0  0  0  0  0  0  0  0  0
  141.0198   81.2388  223.1472 H   0  0  0  0  0  0  0  0  0  0  0  0
  142.0822   79.2945  222.0230 H   0  0  0  0  0  0  0  0  0  0  0  0
  141.3817   77.2165  220.5771 H   0  0  0  0  0  0  0  0  0  0  0  0
  142.0322   76.6557  222.1527 H   0  0  0  0  0  0  0  0  0  0  0  0
  143.0820   70.7378  219.5675 H   0  0  0  0  0  0  0  0  0  0  0  0
  143.4508   71.6391  218.0316 H   0  0  0  0  0  0  0  0  0  0  0  0
  145.2098   70.1491  219.8262 H   0  0  0  0  0  0  0  0  0  0  0  0
  145.4100   70.6980  218.0885 H   0  0  0  0  0  0  0  0  0  0  0  0
  1  2  1  0
  2  3  1  0
  3  4  1  0
  4  5  1  0
  5  6  1  0
  6  7  1  0
  7  8  2  0
  8  9  1  0
  9 10  1  0
 10 11  1  0
 11 12  1  0
 12 13  1  0
 13 14  2  0
 14 15  1  0
 15 16  2  0
 16 17  1  0
 17 18  2  0
 18 19  1  0
  9 20  2  0
 20 21  1  0
 21 22  1  0
 22 23  1  0
 23 24  1  0
 24 25  1  0
 25 26  2  0
 26 27  1  0
 27 28  2  0
 28 29  1  0
 29 30  2  0
 30 31  1  0
 21 32  2  0
  6 33  1  0
 33 34  1  0
 34 35  1  0
 35  4  1  0
 32  7  1  0
 19 10  1  0
 31 22  1  0
 18 13  1  0
 30 25  1  0
  1 36  1  0
  1 37  1  0
  1 38  1  0
  2 39  1  0
  2 40  1  0
  3 41  1  0
  4 42  1  1
  5 43  1  0
  5 44  1  0
 11 45  1  0
 11 46  1  0
 12 47  1  0
 12 48  1  0
 14 49  1  0
 15 50  1  0
 16 51  1  0
 17 52  1  0
 19 53  1  0
 19 54  1  0
 23 55  1  0
 23 56  1  0
 24 57  1  0
 24 58  1  0
 26 59  1  0
 27 60  1  0
 28 61  1  0
 29 62  1  0
 31 63  1  0
 31 64  1  0
 33 65  1  0
 33 66  1  0
 34 67  1  0
 34 68  1  0
M  END
>  <smiles>  (80) 
CCNC1CN(c2nc(N3CCc4ccccc4C3)nc(N3CCc4ccccc4C3)n2)CCO1

>  <score_type>  (80) 
oracle

>  <origin>  (80) 
autodockgpu

>  <m_score__min__energy>  (80) 
-9.5500000000000007

>  <m_primary>  (80) 
energy

>  <rmsd>  (80) 
7.174166860290449

>  <m_score__min__rmsd>  (80) 
7.174166860290449

>  <meeko>  (80) 
{"free_energy": -9.23, "intermolecular_energy": -10.72, "internal_energy": -1.02, "cluster_size": 45, "cluster_id": 1, "rank_in_cluster": 16}

>  <energy>  (80) 
-9.05

>  <cluster_rmsd>  (80) 
1.57

>  <cluster>  (80) 
1

$$$$

     RDKit          3D

 68 73  0  0  1  0  0  0  0  0999 V2000
  147.1560   74.1270  216.3520 C   0  0  0  0  0  0  0  0  0  0  0  0
  145.6980   74.0320  215.9100 C   0  0  0  0  0  0  0  0  0  0  0  0
  145.0160   73.0930  216.7770 N   0  0  0  0  0  0  0  0  0  0  0  0
  145.1700   73.3920  218.1840 C   0  0  1  0  0  0  0  0  0  0  0  0
  143.8320   73.8180  218.7000 C   0  0  0  0  0  0  0  0  0  0  0  0
  143.2120   72.7700  219.4610 N   0  0  0  0  0  0  0  0  0  0  0  0
  142.2430   73.0750  220.4840 C   0  0  0  0  0  0  0  0  0  0  0  0
  141.8460   72.1400  221.3770 N   0  0  0  0  0  0  0  0  0  0  0  0
  140.9470   72.4510  222.3140 C   0  0  0  0  0  0  0  0  0  0  0  0
  140.4710   71.5300  223.2940 N   0  0  0  0  0  0  0  0  0  0  0  0
  139.7690   70.3220  222.9260 C   0  0  0  0  0  0  0  0  0  0  0  0
  138.5570   70.2240  223.8550 C   0  0  0  0  0  0  0  0  0  0  0  0
  139.1530   69.9480  225.2100 C   0  0  0  0  0  0  0  0  0  0  0  0
  138.6650   68.9450  226.0180 C   0  0  0  0  0  0  0  0  0  0  0  0
  139.2240   68.7080  227.2510 C   0  0  0  0  0  0  0  0  0  0  0  0
  140.2850   69.5100  227.6490 C   0  0  0  0  0  0  0  0  0  0  0  0
  140.7700   70.5210  226.8240 C   0  0  0  0  0  0  0  0  0  0  0  0
  140.2080   70.7660  225.5710 C   0  0  0  0  0  0  0  0  0  0  0  0
  140.7030   71.8280  224.6840 C   0  0  0  0  0  0  0  0  0  0  0  0
  140.4520   73.7190  222.3440 N   0  0  0  0  0  0  0  0  0  0  0  0
  140.8300   74.6540  221.4770 C   0  0  0  0  0  0  0  0  0  0  0  0
  140.3220   75.9930  221.4890 N   0  0  0  0  0  0  0  0  0  0  0  0
  138.8980   76.2500  221.4590 C   0  0  0  0  0  0  0  0  0  0  0  0
  138.4600   77.0000  222.7180 C   0  0  0  0  0  0  0  0  0  0  0  0
  139.3400   78.1940  222.7910 C   0  0  0  0  0  0  0  0  0  0  0  0
  138.8420   79.3020  223.4380 C   0  0  0  0  0  0  0  0  0  0  0  0
  139.5810   80.4580  223.5570 C   0  0  0  0  0  0  0  0  0  0  0  0
  140.8670   80.5260  223.0160 C   0  0  0  0  0  0  0  0  0  0  0  0
  141.3600   79.4100  222.3680 C   0  0  0  0  0  0  0  0  0  0  0  0
  140.6050   78.2420  222.2500 C   0  0  0  0  0  0  0  0  0  0  0  0
  141.2430   77.1110  221.5320 C   0  0  0  0  0  0  0  0  0  0  0  0
  141.7370   74.3120  220.5420 N   0  0  0  0  0  0  0  0  0  0  0  0
  143.5830   71.4050  219.1760 C   0  0  0  0  0  0  0  0  0  0  0  0
  145.0770   71.2300  219.0380 C   0  0  0  0  0  0  0  0  0  0  0  0
  145.7680   72.3980  218.8990 O   0  0  0  0  0  0  0  0  0  0  0  0
  147.2066   74.1303  217.4508 H   0  0  0  0  0  0  0  0  0  0  0  0
  147.7145   73.2633  215.9618 H   0  0  0  0  0  0  0  0  0  0  0  0
  147.5977   75.0558  215.9618 H   0  0  0  0  0  0  0  0  0  0  0  0
  145.2219   75.0207  215.9860 H   0  0  0  0  0  0  0  0  0  0  0  0
  145.6418   73.6907  214.8658 H   0  0  0  0  0  0  0  0  0  0  0  0
  144.0510   72.9050  216.4980 H   0  0  0  0  0  0  0  0  0  0  0  0
  145.8835   74.2189  218.3147 H   0  0  0  0  0  0  0  0  0  0  0  0
  143.9599   74.7012  219.3432 H   0  0  0  0  0  0  0  0  0  0  0  0
  143.1863   74.0542  217.8414 H   0  0  0  0  0  0  0  0  0  0  0  0
  139.4407   70.3776  221.8776 H   0  0  0  0  0  0  0  0  0  0  0  0
  140.4179   69.4392  223.0240 H   0  0  0  0  0  0  0  0  0  0  0  0
  137.9930   71.1684  223.8617 H   0  0  0  0  0  0  0  0  0  0  0  0
  137.8462   69.4457  223.5404 H   0  0  0  0  0  0  0  0  0  0  0  0
  137.8213   68.3288  225.6738 H   0  0  0  0  0  0  0  0  0  0  0  0
  138.8426   67.9077  227.9022 H   0  0  0  0  0  0  0  0  0  0  0  0
  140.7499   69.3439  228.6320 H   0  0  0  0  0  0  0  0  0  0  0  0
  141.6130   71.1388  227.1669 H   0  0  0  0  0  0  0  0  0  0  0  0
  140.1887   72.7674  224.9353 H   0  0  0  0  0  0  0  0  0  0  0  0
  141.7894   71.9131  224.8337 H   0  0  0  0  0  0  0  0  0  0  0  0
  138.6589   76.8583  220.5742 H   0  0  0  0  0  0  0  0  0  0  0  0
  138.3649   75.2888  221.4151 H   0  0  0  0  0  0  0  0  0  0  0  0
  137.4056   77.3031  222.6383 H   0  0  0  0  0  0  0  0  0  0  0  0
  138.5447   76.3734  223.6181 H   0  0  0  0  0  0  0  0  0  0  0  0
  137.8310   79.2633  223.8698 H   0  0  0  0  0  0  0  0  0  0  0  0
  139.1579   81.3290  224.0788 H   0  0  0  0  0  0  0  0  0  0  0  0
  141.4699   81.4419  223.1034 H   0  0  0  0  0  0  0  0  0  0  0  0
  142.3707   79.4426  221.9351 H   0  0  0  0  0  0  0  0  0  0  0  0
  141.4936   77.4207  220.5067 H   0  0  0  0  0  0  0  0  0  0  0  0
  142.1625   76.8121  222.0566 H   0  0  0  0  0  0  0  0  0  0  0  0
  143.2266   70.7638  219.9957 H   0  0  0  0  0  0  0  0  0  0  0  0
  143.1231   71.1263  218.2164 H   0  0  0  0  0  0  0  0  0  0  0  0
  145.4481   70.7149  219.9363 H   0  0  0  0  0  0  0  0  0  0  0  0
  145.2431   70.6538  218.1158 H   0  0  0  0  0  0  0  0  0  0  0  0
  1  2  1  0
  2  3  1  0
  3  4  1  0
  4  5  1  0
  5  6  1  0
  6  7  1  0
  7  8  2  0
  8  9  1  0
  9 10  1  0
 10 11  1  0
 11 12  1  0
 12 13  1  0
 13 14  2  0
 14 15  1  0
 15 16  2  0
 16 17  1  0
 17 18  2  0
 18 19  1  0
  9 20  2  0
 20 21  1  0
 21 22  1  0
 22 23  1  0
 23 24  1  0
 24 25  1  0
 25 26  2  0
 26 27  1  0
 27 28  2  0
 28 29  1  0
 29 30  2  0
 30 31  1  0
 21 32  2  0
  6 33  1  0
 33 34  1  0
 34 35  1  0
 35  4  1  0
 32  7  1  0
 19 10  1  0
 31 22  1  0
 18 13  1  0
 30 25  1  0
  1 36  1  0
  1 37  1  0
  1 38  1  0
  2 39  1  0
  2 40  1  0
  3 41  1  0
  4 42  1  6
  5 43  1  0
  5 44  1  0
 11 45  1  0
 11 46  1  0
 12 47  1  0
 12 48  1  0
 14 49  1  0
 15 50  1  0
 16 51  1  0
 17 52  1  0
 19 53  1  0
 19 54  1  0
 23 55  1  0
 23 56  1  0
 24 57  1  0
 24 58  1  0
 26 59  1  0
 27 60  1  0
 28 61  1  0
 29 62  1  0
 31 63  1  0
 31 64  1  0
 33 65  1  0
 33 66  1  0
 34 67  1  0
 34 68  1  0
M  END
>  <smiles>  (81) 
CCNC1CN(c2nc(N3CCc4ccccc4C3)nc(N3CCc4ccccc4C3)n2)CCO1

>  <score_type>  (81) 
oracle

>  <origin>  (81) 
autodockgpu

>  <m_score__min__energy>  (81) 
-9.5500000000000007

>  <m_primary>  (81) 
energy

>  <rmsd>  (81) 
7.484894813818725

>  <m_score__min__rmsd>  (81) 
7.484894813818725

>  <meeko>  (81) 
{"free_energy": -9.05, "intermolecular_energy": -10.54, "internal_energy": -1.0, "cluster_size": 45, "cluster_id": 1, "rank_in_cluster": 30}

>  <energy>  (81) 
-9.05

>  <cluster_rmsd>  (81) 
1.54

>  <cluster>  (81) 
1

$$$$

     RDKit          3D

 68 73  0  0  1  0  0  0  0  0999 V2000
  141.7900   79.6480  222.8370 C   0  0  0  0  0  0  0  0  0  0  0  0
  140.5880   78.7110  222.8960 C   0  0  0  0  0  0  0  0  0  0  0  0
  139.9870   78.6510  221.5780 N   0  0  0  0  0  0  0  0  0  0  0  0
  140.6080   77.6780  220.7070 C   0  0  1  0  0  0  0  0  0  0  0  0
  141.0780   76.5450  221.5650 C   0  0  0  0  0  0  0  0  0  0  0  0
  140.2050   75.4110  221.4500 N   0  0  0  0  0  0  0  0  0  0  0  0
  140.6910   74.0770  221.7010 C   0  0  0  0  0  0  0  0  0  0  0  0
  141.6680   73.5310  220.9420 N   0  0  0  0  0  0  0  0  0  0  0  0
  142.1000   72.2940  221.1970 C   0  0  0  0  0  0  0  0  0  0  0  0
  143.1230   71.6390  220.4500 N   0  0  0  0  0  0  0  0  0  0  0  0
  144.3530   72.3100  220.0940 C   0  0  0  0  0  0  0  0  0  0  0  0
  144.6110   71.9850  218.6200 C   0  0  0  0  0  0  0  0  0  0  0  0
  144.9380   70.5150  218.6190 C   0  0  0  0  0  0  0  0  0  0  0  0
  146.0330   70.0230  217.9430 C   0  0  0  0  0  0  0  0  0  0  0  0
  146.3140   68.6780  217.9550 C   0  0  0  0  0  0  0  0  0  0  0  0
  145.4630   67.8430  218.6650 C   0  0  0  0  0  0  0  0  0  0  0  0
  144.3610   68.3510  219.3460 C   0  0  0  0  0  0  0  0  0  0  0  0
  144.0690   69.7150  219.3380 C   0  0  0  0  0  0  0  0  0  0  0  0
  142.9100   70.2720  220.0490 C   0  0  0  0  0  0  0  0  0  0  0  0
  141.5350   71.6100  222.2300 N   0  0  0  0  0  0  0  0  0  0  0  0
  140.5730   72.1280  222.9900 C   0  0  0  0  0  0  0  0  0  0  0  0
  139.9650   71.4260  224.0800 N   0  0  0  0  0  0  0  0  0  0  0  0
  138.8500   70.5290  223.8600 C   0  0  0  0  0  0  0  0  0  0  0  0
  139.2130   69.1050  224.2860 C   0  0  0  0  0  0  0  0  0  0  0  0
  139.6920   69.2240  225.6870 C   0  0  0  0  0  0  0  0  0  0  0  0
  139.5470   68.1200  226.4950 C   0  0  0  0  0  0  0  0  0  0  0  0
  139.9590   68.1310  227.8090 C   0  0  0  0  0  0  0  0  0  0  0  0
  140.5400   69.2800  228.3510 C   0  0  0  0  0  0  0  0  0  0  0  0
  140.6820   70.3840  227.5330 C   0  0  0  0  0  0  0  0  0  0  0  0
  140.2620   70.3660  226.2030 C   0  0  0  0  0  0  0  0  0  0  0  0
  140.4680   71.6130  225.4260 C   0  0  0  0  0  0  0  0  0  0  0  0
  140.1580   73.3770  222.7090 N   0  0  0  0  0  0  0  0  0  0  0  0
  138.8300   75.6400  221.0780 C   0  0  0  0  0  0  0  0  0  0  0  0
  138.6980   76.6050  219.9230 C   0  0  0  0  0  0  0  0  0  0  0  0
  139.8340   77.3090  219.6470 O   0  0  0  0  0  0  0  0  0  0  0  0
  142.1106   79.8979  223.8591 H   0  0  0  0  0  0  0  0  0  0  0  0
  142.6153   79.1526  222.3047 H   0  0  0  0  0  0  0  0  0  0  0  0
  141.5110   80.5693  222.3047 H   0  0  0  0  0  0  0  0  0  0  0  0
  140.9154   77.7060  223.2007 H   0  0  0  0  0  0  0  0  0  0  0  0
  139.8557   79.0827  223.6278 H   0  0  0  0  0  0  0  0  0  0  0  0
  138.9670   78.5990  221.5950 H   0  0  0  0  0  0  0  0  0  0  0  0
  141.4752   78.1282  220.2017 H   0  0  0  0  0  0  0  0  0  0  0  0
  142.0904   76.2521  221.2499 H   0  0  0  0  0  0  0  0  0  0  0  0
  141.0799   76.8788  222.6131 H   0  0  0  0  0  0  0  0  0  0  0  0
  144.2474   73.3963  220.2314 H   0  0  0  0  0  0  0  0  0  0  0  0
  145.1876   71.9764  220.7282 H   0  0  0  0  0  0  0  0  0  0  0  0
  143.7157   72.1861  218.0134 H   0  0  0  0  0  0  0  0  0  0  0  0
  145.4166   72.5967  218.1879 H   0  0  0  0  0  0  0  0  0  0  0  0
  146.6875   70.7123  217.3893 H   0  0  0  0  0  0  0  0  0  0  0  0
  147.1861   68.2759  217.4187 H   0  0  0  0  0  0  0  0  0  0  0  0
  145.6629   66.7616  218.6899 H   0  0  0  0  0  0  0  0  0  0  0  0
  143.7069   67.6631  219.9018 H   0  0  0  0  0  0  0  0  0  0  0  0
  142.0337   70.2299  219.3855 H   0  0  0  0  0  0  0  0  0  0  0  0
  142.7526   69.6739  220.9587 H   0  0  0  0  0  0  0  0  0  0  0  0
  137.9870   70.8736  224.4486 H   0  0  0  0  0  0  0  0  0  0  0  0
  138.6026   70.5266  222.7882 H   0  0  0  0  0  0  0  0  0  0  0  0
  138.3301   68.4509  224.2351 H   0  0  0  0  0  0  0  0  0  0  0  0
  139.9758   68.6625  223.6284 H   0  0  0  0  0  0  0  0  0  0  0  0
  139.0916   67.2078  226.0821 H   0  0  0  0  0  0  0  0  0  0  0  0
  139.8305   67.2340  228.4326 H   0  0  0  0  0  0  0  0  0  0  0  0
  140.8746   69.3049  229.3986 H   0  0  0  0  0  0  0  0  0  0  0  0
  141.1371   71.2990  227.9401 H   0  0  0  0  0  0  0  0  0  0  0  0
  139.9275   72.4405  225.9088 H   0  0  0  0  0  0  0  0  0  0  0  0
  141.5412   71.8516  225.3890 H   0  0  0  0  0  0  0  0  0  0  0  0
  138.3777   74.6798  220.7893 H   0  0  0  0  0  0  0  0  0  0  0  0
  138.3177   76.0829  221.9448 H   0  0  0  0  0  0  0  0  0  0  0  0
  138.4209   76.0324  219.0256 H   0  0  0  0  0  0  0  0  0  0  0  0
  137.9338   77.3411  220.2132 H   0  0  0  0  0  0  0  0  0  0  0  0
  1  2  1  0
  2  3  1  0
  3  4  1  0
  4  5  1  0
  5  6  1  0
  6  7  1  0
  7  8  2  0
  8  9  1  0
  9 10  1  0
 10 11  1  0
 11 12  1  0
 12 13  1  0
 13 14  2  0
 14 15  1  0
 15 16  2  0
 16 17  1  0
 17 18  2  0
 18 19  1  0
  9 20  2  0
 20 21  1  0
 21 22  1  0
 22 23  1  0
 23 24  1  0
 24 25  1  0
 25 26  2  0
 26 27  1  0
 27 28  2  0
 28 29  1  0
 29 30  2  0
 30 31  1  0
 21 32  2  0
  6 33  1  0
 33 34  1  0
 34 35  1  0
 35  4  1  0
 32  7  1  0
 19 10  1  0
 31 22  1  0
 18 13  1  0
 30 25  1  0
  1 36  1  0
  1 37  1  0
  1 38  1  0
  2 39  1  0
  2 40  1  0
  3 41  1  0
  4 42  1  6
  5 43  1  0
  5 44  1  0
 11 45  1  0
 11 46  1  0
 12 47  1  0
 12 48  1  0
 14 49  1  0
 15 50  1  0
 16 51  1  0
 17 52  1  0
 19 53  1  0
 19 54  1  0
 23 55  1  0
 23 56  1  0
 24 57  1  0
 24 58  1  0
 26 59  1  0
 27 60  1  0
 28 61  1  0
 29 62  1  0
 31 63  1  0
 31 64  1  0
 33 65  1  0
 33 66  1  0
 34 67  1  0
 34 68  1  0
M  END
>  <smiles>  (82) 
CCNC1CN(c2nc(N3CCc4ccccc4C3)nc(N3CCc4ccccc4C3)n2)CCO1

>  <score_type>  (82) 
oracle

>  <origin>  (82) 
autodockgpu

>  <m_score__min__energy>  (82) 
-9.5500000000000007

>  <m_primary>  (82) 
energy

>  <rmsd>  (82) 
2.0191973524345808

>  <m_score__min__rmsd>  (82) 
2.0191973524345808

>  <meeko>  (82) 
{"free_energy": -8.55, "intermolecular_energy": -10.05, "internal_energy": -1.0, "cluster_size": 3, "cluster_id": 3, "rank_in_cluster": 1}

>  <energy>  (82) 
-9.05

>  <cluster_rmsd>  (82) 
1.34

>  <cluster>  (82) 
1

$$$$

     RDKit          3D

 68 73  0  0  1  0  0  0  0  0999 V2000
  145.8340   68.1480  219.4660 C   0  0  0  0  0  0  0  0  0  0  0  0
  145.3110   69.2540  218.5540 C   0  0  0  0  0  0  0  0  0  0  0  0
  145.8220   70.5230  219.0310 N   0  0  0  0  0  0  0  0  0  0  0  0
  144.9790   71.6480  218.6890 C   0  0  1  0  0  0  0  0  0  0  0  0
  143.7500   71.5590  219.5380 C   0  0  0  0  0  0  0  0  0  0  0  0
  143.7950   72.5080  220.6150 N   0  0  0  0  0  0  0  0  0  0  0  0
  142.5790   73.0060  221.2090 C   0  0  0  0  0  0  0  0  0  0  0  0
  142.1880   74.2900  221.0390 N   0  0  0  0  0  0  0  0  0  0  0  0
  141.0580   74.7240  221.6000 C   0  0  0  0  0  0  0  0  0  0  0  0
  140.5700   76.0580  221.4740 N   0  0  0  0  0  0  0  0  0  0  0  0
  139.6830   76.4470  220.4020 C   0  0  0  0  0  0  0  0  0  0  0  0
  140.2170   77.7740  219.8570 C   0  0  0  0  0  0  0  0  0  0  0  0
  139.9620   78.7570  220.9680 C   0  0  0  0  0  0  0  0  0  0  0  0
  139.3740   79.9790  220.7240 C   0  0  0  0  0  0  0  0  0  0  0  0
  139.1490   80.8630  221.7530 C   0  0  0  0  0  0  0  0  0  0  0  0
  139.5330   80.4830  223.0320 C   0  0  0  0  0  0  0  0  0  0  0  0
  140.1260   79.2460  223.2660 C   0  0  0  0  0  0  0  0  0  0  0  0
  140.3570   78.3440  222.2270 C   0  0  0  0  0  0  0  0  0  0  0  0
  140.9810   77.0330  222.4520 C   0  0  0  0  0  0  0  0  0  0  0  0
  140.3210   73.8480  222.3380 N   0  0  0  0  0  0  0  0  0  0  0  0
  140.6860   72.5820  222.5180 C   0  0  0  0  0  0  0  0  0  0  0  0
  139.9280   71.6440  223.2910 N   0  0  0  0  0  0  0  0  0  0  0  0
  138.9050   70.8260  222.6740 C   0  0  0  0  0  0  0  0  0  0  0  0
  139.2460   69.3410  222.8150 C   0  0  0  0  0  0  0  0  0  0  0  0
  139.4710   69.1260  224.2680 C   0  0  0  0  0  0  0  0  0  0  0  0
  139.2340   67.8620  224.7590 C   0  0  0  0  0  0  0  0  0  0  0  0
  139.4120   67.5630  226.0910 C   0  0  0  0  0  0  0  0  0  0  0  0
  139.8440   68.5510  226.9780 C   0  0  0  0  0  0  0  0  0  0  0  0
  140.0810   69.8170  226.4780 C   0  0  0  0  0  0  0  0  0  0  0  0
  139.8970   70.1130  225.1270 C   0  0  0  0  0  0  0  0  0  0  0  0
  140.1830   71.5080  224.7110 C   0  0  0  0  0  0  0  0  0  0  0  0
  141.8310   72.1720  221.9400 N   0  0  0  0  0  0  0  0  0  0  0  0
  145.0840   72.9490  221.0870 C   0  0  0  0  0  0  0  0  0  0  0  0
  146.0240   73.2960  219.9560 C   0  0  0  0  0  0  0  0  0  0  0  0
  145.6180   72.8510  218.7320 O   0  0  0  0  0  0  0  0  0  0  0  0
  145.6947   68.4426  220.5166 H   0  0  0  0  0  0  0  0  0  0  0  0
  145.2802   67.2181  219.2694 H   0  0  0  0  0  0  0  0  0  0  0  0
  146.9041   67.9860  219.2694 H   0  0  0  0  0  0  0  0  0  0  0  0
  145.6548   69.0791  217.5239 H   0  0  0  0  0  0  0  0  0  0  0  0
  144.2111   69.2626  218.5645 H   0  0  0  0  0  0  0  0  0  0  0  0
  146.1100   70.5050  220.0110 H   0  0  0  0  0  0  0  0  0  0  0  0
  144.6871   71.5901  217.6300 H   0  0  0  0  0  0  0  0  0  0  0  0
  142.8673   71.7647  218.9147 H   0  0  0  0  0  0  0  0  0  0  0  0
  143.6941   70.5473  219.9662 H   0  0  0  0  0  0  0  0  0  0  0  0
  139.6849   75.6828  219.6108 H   0  0  0  0  0  0  0  0  0  0  0  0
  138.6480   76.5512  220.7597 H   0  0  0  0  0  0  0  0  0  0  0  0
  141.2927   77.7018  219.6388 H   0  0  0  0  0  0  0  0  0  0  0  0
  139.7331   78.0682  218.9140 H   0  0  0  0  0  0  0  0  0  0  0  0
  139.0824   80.2494  219.6984 H   0  0  0  0  0  0  0  0  0  0  0  0
  138.6795   81.8405  221.5686 H   0  0  0  0  0  0  0  0  0  0  0  0
  139.3658   81.1709  223.8740 H   0  0  0  0  0  0  0  0  0  0  0  0
  140.4185   78.9739  224.2909 H   0  0  0  0  0  0  0  0  0  0  0  0
  142.0738   77.1475  222.4001 H   0  0  0  0  0  0  0  0  0  0  0  0
  140.6620   76.6732  223.4413 H   0  0  0  0  0  0  0  0  0  0  0  0
  137.9400   71.0235  223.1636 H   0  0  0  0  0  0  0  0  0  0  0  0
  138.8472   71.0768  221.6045 H   0  0  0  0  0  0  0  0  0  0  0  0
  138.4121   68.7187  222.4581 H   0  0  0  0  0  0  0  0  0  0  0  0
  140.1278   69.0645  222.2184 H   0  0  0  0  0  0  0  0  0  0  0  0
  138.8947   67.0731  224.0716 H   0  0  0  0  0  0  0  0  0  0  0  0
  139.2137   66.5448  226.4568 H   0  0  0  0  0  0  0  0  0  0  0  0
  139.9915   68.3277  228.0449 H   0  0  0  0  0  0  0  0  0  0  0  0
  140.4224   70.6094  227.1604 H   0  0  0  0  0  0  0  0  0  0  0  0
  139.5338   72.1987  225.2691 H   0  0  0  0  0  0  0  0  0  0  0  0
  141.2356   71.7479  224.9219 H   0  0  0  0  0  0  0  0  0  0  0  0
  144.9438   73.8405  221.7159 H   0  0  0  0  0  0  0  0  0  0  0  0
  145.5341   72.1216  221.6551 H   0  0  0  0  0  0  0  0  0  0  0  0
  146.1187   74.3910  219.9104 H   0  0  0  0  0  0  0  0  0  0  0  0
  146.9778   72.7930  220.1736 H   0  0  0  0  0  0  0  0  0  0  0  0
  1  2  1  0
  2  3  1  0
  3  4  1  0
  4  5  1  0
  5  6  1  0
  6  7  1  0
  7  8  2  0
  8  9  1  0
  9 10  1  0
 10 11  1  0
 11 12  1  0
 12 13  1  0
 13 14  2  0
 14 15  1  0
 15 16  2  0
 16 17  1  0
 17 18  2  0
 18 19  1  0
  9 20  2  0
 20 21  1  0
 21 22  1  0
 22 23  1  0
 23 24  1  0
 24 25  1  0
 25 26  2  0
 26 27  1  0
 27 28  2  0
 28 29  1  0
 29 30  2  0
 30 31  1  0
 21 32  2  0
  6 33  1  0
 33 34  1  0
 34 35  1  0
 35  4  1  0
 32  7  1  0
 19 10  1  0
 31 22  1  0
 18 13  1  0
 30 25  1  0
  1 36  1  0
  1 37  1  0
  1 38  1  0
  2 39  1  0
  2 40  1  0
  3 41  1  0
  4 42  1  6
  5 43  1  0
  5 44  1  0
 11 45  1  0
 11 46  1  0
 12 47  1  0
 12 48  1  0
 14 49  1  0
 15 50  1  0
 16 51  1  0
 17 52  1  0
 19 53  1  0
 19 54  1  0
 23 55  1  0
 23 56  1  0
 24 57  1  0
 24 58  1  0
 26 59  1  0
 27 60  1  0
 28 61  1  0
 29 62  1  0
 31 63  1  0
 31 64  1  0
 33 65  1  0
 33 66  1  0
 34 67  1  0
 34 68  1  0
M  END
>  <smiles>  (83) 
CCNC1CN(c2nc(N3CCc4ccccc4C3)nc(N3CCc4ccccc4C3)n2)CCO1

>  <score_type>  (83) 
oracle

>  <origin>  (83) 
autodockgpu

>  <m_score__min__energy>  (83) 
-9.5500000000000007

>  <m_primary>  (83) 
energy

>  <rmsd>  (83) 
9.207876281324708

>  <m_score__min__rmsd>  (83) 
9.207876281324708

>  <meeko>  (83) 
{"free_energy": -9.08, "intermolecular_energy": -10.57, "internal_energy": -0.97, "cluster_size": 45, "cluster_id": 1, "rank_in_cluster": 26}

>  <energy>  (83) 
-9.04

>  <cluster_rmsd>  (83) 
1.72

>  <cluster>  (83) 
1

$$$$

     RDKit          3D

 68 73  0  0  1  0  0  0  0  0999 V2000
  145.9910   68.0890  219.6650 C   0  0  0  0  0  0  0  0  0  0  0  0
  145.2760   69.1150  218.7910 C   0  0  0  0  0  0  0  0  0  0  0  0
  145.8290   70.4240  219.0750 N   0  0  0  0  0  0  0  0  0  0  0  0
  144.9590   71.5130  218.6870 C   0  0  1  0  0  0  0  0  0  0  0  0
  143.7480   71.4520  219.5640 C   0  0  0  0  0  0  0  0  0  0  0  0
  143.7960   72.4620  220.5840 N   0  0  0  0  0  0  0  0  0  0  0  0
  142.5830   72.9720  221.1740 C   0  0  0  0  0  0  0  0  0  0  0  0
  142.1980   74.2560  220.9880 N   0  0  0  0  0  0  0  0  0  0  0  0
  141.0690   74.7010  221.5450 C   0  0  0  0  0  0  0  0  0  0  0  0
  140.5870   76.0360  221.4040 N   0  0  0  0  0  0  0  0  0  0  0  0
  139.9410   76.4880  220.1930 C   0  0  0  0  0  0  0  0  0  0  0  0
  140.5480   77.8540  219.8630 C   0  0  0  0  0  0  0  0  0  0  0  0
  140.0350   78.7570  220.9540 C   0  0  0  0  0  0  0  0  0  0  0  0
  139.4830   79.9860  220.6690 C   0  0  0  0  0  0  0  0  0  0  0  0
  139.0210   80.7950  221.6800 C   0  0  0  0  0  0  0  0  0  0  0  0
  139.1310   80.3320  222.9840 C   0  0  0  0  0  0  0  0  0  0  0  0
  139.6900   79.0880  223.2600 C   0  0  0  0  0  0  0  0  0  0  0  0
  140.1610   78.2620  222.2390 C   0  0  0  0  0  0  0  0  0  0  0  0
  140.7550   76.9460  222.5090 C   0  0  0  0  0  0  0  0  0  0  0  0
  140.3300   73.8370  222.2950 N   0  0  0  0  0  0  0  0  0  0  0  0
  140.6900   72.5710  222.4900 C   0  0  0  0  0  0  0  0  0  0  0  0
  139.9290   71.6460  223.2740 N   0  0  0  0  0  0  0  0  0  0  0  0
  138.8870   70.8420  222.6740 C   0  0  0  0  0  0  0  0  0  0  0  0
  139.2090   69.3520  222.8130 C   0  0  0  0  0  0  0  0  0  0  0  0
  139.4490   69.1370  224.2630 C   0  0  0  0  0  0  0  0  0  0  0  0
  139.2000   67.8780  224.7600 C   0  0  0  0  0  0  0  0  0  0  0  0
  139.3920   67.5790  226.0910 C   0  0  0  0  0  0  0  0  0  0  0  0
  139.8500   68.5620  226.9700 C   0  0  0  0  0  0  0  0  0  0  0  0
  140.0980   69.8240  226.4640 C   0  0  0  0  0  0  0  0  0  0  0  0
  139.9010   70.1200  225.1150 C   0  0  0  0  0  0  0  0  0  0  0  0
  140.2010   71.5100  224.6910 C   0  0  0  0  0  0  0  0  0  0  0  0
  141.8320   72.1500  221.9160 N   0  0  0  0  0  0  0  0  0  0  0  0
  145.0870   72.9520  221.0040 C   0  0  0  0  0  0  0  0  0  0  0  0
  145.9970   73.2490  219.8360 C   0  0  0  0  0  0  0  0  0  0  0  0
  145.5760   72.7280  218.6480 O   0  0  0  0  0  0  0  0  0  0  0  0
  145.8232   68.3298  220.7251 H   0  0  0  0  0  0  0  0  0  0  0  0
  145.5958   67.0852  219.4500 H   0  0  0  0  0  0  0  0  0  0  0  0
  147.0695   68.1122  219.4500 H   0  0  0  0  0  0  0  0  0  0  0  0
  145.4289   68.8696  217.7297 H   0  0  0  0  0  0  0  0  0  0  0  0
  144.1970   69.1065  219.0048 H   0  0  0  0  0  0  0  0  0  0  0  0
  146.2040   70.5130  220.0210 H   0  0  0  0  0  0  0  0  0  0  0  0
  144.6485   71.3888  217.6391 H   0  0  0  0  0  0  0  0  0  0  0  0
  142.8501   71.6065  218.9476 H   0  0  0  0  0  0  0  0  0  0  0  0
  143.7186   70.4658  220.0504 H   0  0  0  0  0  0  0  0  0  0  0  0
  140.1308   75.7794  219.3733 H   0  0  0  0  0  0  0  0  0  0  0  0
  138.8511   76.5573  220.3246 H   0  0  0  0  0  0  0  0  0  0  0  0
  141.6469   77.8072  219.8793 H   0  0  0  0  0  0  0  0  0  0  0  0
  140.2724   78.2070  218.8583 H   0  0  0  0  0  0  0  0  0  0  0  0
  139.4112   80.3230  219.6244 H   0  0  0  0  0  0  0  0  0  0  0  0
  138.5782   81.7781  221.4624 H   0  0  0  0  0  0  0  0  0  0  0  0
  138.7703   80.9589  223.8128 H   0  0  0  0  0  0  0  0  0  0  0  0
  139.7620   78.7491  224.3040 H   0  0  0  0  0  0  0  0  0  0  0  0
  141.8304   77.0754  222.7011 H   0  0  0  0  0  0  0  0  0  0  0  0
  140.2414   76.5162  223.3816 H   0  0  0  0  0  0  0  0  0  0  0  0
  137.9320   71.0540  223.1770 H   0  0  0  0  0  0  0  0  0  0  0  0
  138.8176   71.0917  221.6050 H   0  0  0  0  0  0  0  0  0  0  0  0
  138.3621   68.7408  222.4678 H   0  0  0  0  0  0  0  0  0  0  0  0
  140.0790   69.0618  222.2057 H   0  0  0  0  0  0  0  0  0  0  0  0
  138.8396   67.0928  224.0791 H   0  0  0  0  0  0  0  0  0  0  0  0
  139.1841   66.5644  226.4616 H   0  0  0  0  0  0  0  0  0  0  0  0
  140.0090   68.3385  228.0352 H   0  0  0  0  0  0  0  0  0  0  0  0
  140.4589   70.6129  227.1403 H   0  0  0  0  0  0  0  0  0  0  0  0
  139.5691   72.2113  225.2557 H   0  0  0  0  0  0  0  0  0  0  0  0
  141.2596   71.7355  224.8871 H   0  0  0  0  0  0  0  0  0  0  0  0
  144.9429   73.8758  221.5836 H   0  0  0  0  0  0  0  0  0  0  0  0
  145.5633   72.1669  221.6095 H   0  0  0  0  0  0  0  0  0  0  0  0
  146.0707   74.3410  219.7261 H   0  0  0  0  0  0  0  0  0  0  0  0
  146.9635   72.7750  220.0622 H   0  0  0  0  0  0  0  0  0  0  0  0
  1  2  1  0
  2  3  1  0
  3  4  1  0
  4  5  1  0
  5  6  1  0
  6  7  1  0
  7  8  2  0
  8  9  1  0
  9 10  1  0
 10 11  1  0
 11 12  1  0
 12 13  1  0
 13 14  2  0
 14 15  1  0
 15 16  2  0
 16 17  1  0
 17 18  2  0
 18 19  1  0
  9 20  2  0
 20 21  1  0
 21 22  1  0
 22 23  1  0
 23 24  1  0
 24 25  1  0
 25 26  2  0
 26 27  1  0
 27 28  2  0
 28 29  1  0
 29 30  2  0
 30 31  1  0
 21 32  2  0
  6 33  1  0
 33 34  1  0
 34 35  1  0
 35  4  1  0
 32  7  1  0
 19 10  1  0
 31 22  1  0
 18 13  1  0
 30 25  1  0
  1 36  1  0
  1 37  1  0
  1 38  1  0
  2 39  1  0
  2 40  1  0
  3 41  1  0
  4 42  1  6
  5 43  1  0
  5 44  1  0
 11 45  1  0
 11 46  1  0
 12 47  1  0
 12 48  1  0
 14 49  1  0
 15 50  1  0
 16 51  1  0
 17 52  1  0
 19 53  1  0
 19 54  1  0
 23 55  1  0
 23 56  1  0
 24 57  1  0
 24 58  1  0
 26 59  1  0
 27 60  1  0
 28 61  1  0
 29 62  1  0
 31 63  1  0
 31 64  1  0
 33 65  1  0
 33 66  1  0
 34 67  1  0
 34 68  1  0
M  END
>  <smiles>  (84) 
CCNC1CN(c2nc(N3CCc4ccccc4C3)nc(N3CCc4ccccc4C3)n2)CCO1

>  <score_type>  (84) 
oracle

>  <origin>  (84) 
autodockgpu

>  <m_score__min__energy>  (84) 
-9.5500000000000007

>  <m_primary>  (84) 
energy

>  <rmsd>  (84) 
9.22900895425929

>  <m_score__min__rmsd>  (84) 
9.22900895425929

>  <meeko>  (84) 
{"free_energy": -9.11, "intermolecular_energy": -10.6, "internal_energy": -0.98, "cluster_size": 45, "cluster_id": 1, "rank_in_cluster": 21}

>  <energy>  (84) 
-9.04

>  <cluster_rmsd>  (84) 
1.46

>  <cluster>  (84) 
1

$$$$

     RDKit          3D

 68 73  0  0  1  0  0  0  0  0999 V2000
  146.7010   73.1300  221.6980 C   0  0  0  0  0  0  0  0  0  0  0  0
  146.0830   74.0250  220.6270 C   0  0  0  0  0  0  0  0  0  0  0  0
  146.0570   73.2920  219.3770 N   0  0  0  0  0  0  0  0  0  0  0  0
  144.7540   72.7530  219.0530 C   0  0  1  0  0  0  0  0  0  0  0  0
  143.9700   72.6830  220.3260 C   0  0  0  0  0  0  0  0  0  0  0  0
  143.0060   73.7440  220.3990 N   0  0  0  0  0  0  0  0  0  0  0  0
  141.8080   73.5990  221.1900 C   0  0  0  0  0  0  0  0  0  0  0  0
  141.6120   72.5140  221.9740 N   0  0  0  0  0  0  0  0  0  0  0  0
  140.4940   72.4060  222.6960 C   0  0  0  0  0  0  0  0  0  0  0  0
  140.2020   71.3000  223.5470 N   0  0  0  0  0  0  0  0  0  0  0  0
  139.4960   70.1340  223.0670 C   0  0  0  0  0  0  0  0  0  0  0  0
  138.4410   69.8000  224.1250 C   0  0  0  0  0  0  0  0  0  0  0  0
  139.2440   69.3270  225.3080 C   0  0  0  0  0  0  0  0  0  0  0  0
  138.9190   68.1690  225.9800 C   0  0  0  0  0  0  0  0  0  0  0  0
  139.6640   67.7540  227.0570 C   0  0  0  0  0  0  0  0  0  0  0  0
  140.7440   68.5380  227.4400 C   0  0  0  0  0  0  0  0  0  0  0  0
  141.0640   69.7050  226.7540 C   0  0  0  0  0  0  0  0  0  0  0  0
  140.3110   70.1320  225.6600 C   0  0  0  0  0  0  0  0  0  0  0  0
  140.6310   71.3620  224.9220 C   0  0  0  0  0  0  0  0  0  0  0  0
  139.5720   73.4060  222.6190 N   0  0  0  0  0  0  0  0  0  0  0  0
  139.7460   74.4810  221.8560 C   0  0  0  0  0  0  0  0  0  0  0  0
  138.7910   75.5440  221.7600 N   0  0  0  0  0  0  0  0  0  0  0  0
  137.4020   75.2720  221.4570 C   0  0  0  0  0  0  0  0  0  0  0  0
  136.5000   75.7340  222.6040 C   0  0  0  0  0  0  0  0  0  0  0  0
  136.8550   77.1580  222.8330 C   0  0  0  0  0  0  0  0  0  0  0  0
  135.8790   77.9690  223.3650 C   0  0  0  0  0  0  0  0  0  0  0  0
  136.1100   79.3040  223.6140 C   0  0  0  0  0  0  0  0  0  0  0  0
  137.3570   79.8640  223.3280 C   0  0  0  0  0  0  0  0  0  0  0  0
  138.3320   79.0430  222.7940 C   0  0  0  0  0  0  0  0  0  0  0  0
  138.0910   77.6920  222.5440 C   0  0  0  0  0  0  0  0  0  0  0  0
  139.2150   76.9140  221.9700 C   0  0  0  0  0  0  0  0  0  0  0  0
  140.8820   74.5630  221.1390 N   0  0  0  0  0  0  0  0  0  0  0  0
  143.2640   74.9580  219.6630 C   0  0  0  0  0  0  0  0  0  0  0  0
  143.7370   74.6870  218.2540 C   0  0  0  0  0  0  0  0  0  0  0  0
  144.1260   73.3990  218.0300 O   0  0  0  0  0  0  0  0  0  0  0  0
  146.4360   73.5138  222.6942 H   0  0  0  0  0  0  0  0  0  0  0  0
  146.3171   72.1053  221.5858 H   0  0  0  0  0  0  0  0  0  0  0  0
  147.7953   73.1260  221.5858 H   0  0  0  0  0  0  0  0  0  0  0  0
  145.0583   74.2993  220.9181 H   0  0  0  0  0  0  0  0  0  0  0  0
  146.6769   74.9440  220.5138 H   0  0  0  0  0  0  0  0  0  0  0  0
  146.5030   73.7880  218.6030 H   0  0  0  0  0  0  0  0  0  0  0  0
  144.8605   71.7383  218.6418 H   0  0  0  0  0  0  0  0  0  0  0  0
  143.4453   71.7173  220.3720 H   0  0  0  0  0  0  0  0  0  0  0  0
  144.6666   72.7856  221.1711 H   0  0  0  0  0  0  0  0  0  0  0  0
  139.0124   70.3523  222.1034 H   0  0  0  0  0  0  0  0  0  0  0  0
  140.1829   69.2895  222.9090 H   0  0  0  0  0  0  0  0  0  0  0  0
  137.8520   70.6921  224.3844 H   0  0  0  0  0  0  0  0  0  0  0  0
  137.7180   69.0474  223.7774 H   0  0  0  0  0  0  0  0  0  0  0  0
  138.0557   67.5717  225.6514 H   0  0  0  0  0  0  0  0  0  0  0  0
  139.4129   66.8301  227.5986 H   0  0  0  0  0  0  0  0  0  0  0  0
  141.3569   68.2311  228.3004 H   0  0  0  0  0  0  0  0  0  0  0  0
  141.9277   70.3029  227.0805 H   0  0  0  0  0  0  0  0  0  0  0  0
  140.1291   72.2095  225.4117 H   0  0  0  0  0  0  0  0  0  0  0  0
  141.7241   71.4851  224.9292 H   0  0  0  0  0  0  0  0  0  0  0  0
  137.1209   75.8072  220.5380 H   0  0  0  0  0  0  0  0  0  0  0  0
  137.2745   74.1880  221.3201 H   0  0  0  0  0  0  0  0  0  0  0  0
  135.4407   75.6415  222.3223 H   0  0  0  0  0  0  0  0  0  0  0  0
  136.6431   75.1252  223.5089 H   0  0  0  0  0  0  0  0  0  0  0  0
  134.8922   77.5417  223.5967 H   0  0  0  0  0  0  0  0  0  0  0  0
  135.3112   79.9298  224.0387 H   0  0  0  0  0  0  0  0  0  0  0  0
  137.5574   80.9280  223.5222 H   0  0  0  0  0  0  0  0  0  0  0  0
  139.3209   79.4646  222.5607 H   0  0  0  0  0  0  0  0  0  0  0  0
  139.5157   77.3570  221.0091 H   0  0  0  0  0  0  0  0  0  0  0  0
  140.0687   76.9335  222.6634 H   0  0  0  0  0  0  0  0  0  0  0  0
  142.3364   75.5474  219.6171 H   0  0  0  0  0  0  0  0  0  0  0  0
  144.0628   75.5043  220.1860 H   0  0  0  0  0  0  0  0  0  0  0  0
  142.9144   74.9234  217.5631 H   0  0  0  0  0  0  0  0  0  0  0  0
  144.6247   75.3164  218.0934 H   0  0  0  0  0  0  0  0  0  0  0  0
  1  2  1  0
  2  3  1  0
  3  4  1  0
  4  5  1  0
  5  6  1  0
  6  7  1  0
  7  8  2  0
  8  9  1  0
  9 10  1  0
 10 11  1  0
 11 12  1  0
 12 13  1  0
 13 14  2  0
 14 15  1  0
 15 16  2  0
 16 17  1  0
 17 18  2  0
 18 19  1  0
  9 20  2  0
 20 21  1  0
 21 22  1  0
 22 23  1  0
 23 24  1  0
 24 25  1  0
 25 26  2  0
 26 27  1  0
 27 28  2  0
 28 29  1  0
 29 30  2  0
 30 31  1  0
 21 32  2  0
  6 33  1  0
 33 34  1  0
 34 35  1  0
 35  4  1  0
 32  7  1  0
 19 10  1  0
 31 22  1  0
 18 13  1  0
 30 25  1  0
  1 36  1  0
  1 37  1  0
  1 38  1  0
  2 39  1  0
  2 40  1  0
  3 41  1  0
  4 42  1  6
  5 43  1  0
  5 44  1  0
 11 45  1  0
 11 46  1  0
 12 47  1  0
 12 48  1  0
 14 49  1  0
 15 50  1  0
 16 51  1  0
 17 52  1  0
 19 53  1  0
 19 54  1  0
 23 55  1  0
 23 56  1  0
 24 57  1  0
 24 58  1  0
 26 59  1  0
 27 60  1  0
 28 61  1  0
 29 62  1  0
 31 63  1  0
 31 64  1  0
 33 65  1  0
 33 66  1  0
 34 67  1  0
 34 68  1  0
M  END
>  <smiles>  (85) 
CCNC1CN(c2nc(N3CCc4ccccc4C3)nc(N3CCc4ccccc4C3)n2)CCO1

>  <score_type>  (85) 
oracle

>  <origin>  (85) 
autodockgpu

>  <m_score__min__energy>  (85) 
-9.5500000000000007

>  <m_primary>  (85) 
energy

>  <rmsd>  (85) 
6.100536703555714

>  <m_score__min__rmsd>  (85) 
6.100536703555714

>  <meeko>  (85) 
{"free_energy": -9.47, "intermolecular_energy": -10.96, "internal_energy": -0.87, "cluster_size": 45, "cluster_id": 1, "rank_in_cluster": 5}

>  <energy>  (85) 
-9.03

>  <cluster_rmsd>  (85) 
1.81

>  <cluster>  (85) 
1

$$$$

     RDKit          3D

 68 73  0  0  1  0  0  0  0  0999 V2000
  145.2990   74.9260  215.9220 C   0  0  0  0  0  0  0  0  0  0  0  0
  144.8070   74.0910  217.1010 C   0  0  0  0  0  0  0  0  0  0  0  0
  145.9410   73.3960  217.6760 N   0  0  0  0  0  0  0  0  0  0  0  0
  145.8310   73.1970  219.1040 C   0  0  1  0  0  0  0  0  0  0  0  0
  144.5180   73.7720  219.5350 C   0  0  0  0  0  0  0  0  0  0  0  0
  143.5540   72.7370  219.7790 N   0  0  0  0  0  0  0  0  0  0  0  0
  142.4570   72.9510  220.6910 C   0  0  0  0  0  0  0  0  0  0  0  0
  142.0230   71.9670  221.5110 N   0  0  0  0  0  0  0  0  0  0  0  0
  141.0060   72.1930  222.3460 C   0  0  0  0  0  0  0  0  0  0  0  0
  140.4830   71.2160  223.2430 N   0  0  0  0  0  0  0  0  0  0  0  0
  139.4690   70.2710  222.8340 C   0  0  0  0  0  0  0  0  0  0  0  0
  138.4250   70.2430  223.9530 C   0  0  0  0  0  0  0  0  0  0  0  0
  139.1410   69.5930  225.1070 C   0  0  0  0  0  0  0  0  0  0  0  0
  138.5610   68.5720  225.8280 C   0  0  0  0  0  0  0  0  0  0  0  0
  139.2310   67.9910  226.8780 C   0  0  0  0  0  0  0  0  0  0  0  0
  140.4990   68.4670  227.1830 C   0  0  0  0  0  0  0  0  0  0  0  0
  141.0750   69.4980  226.4480 C   0  0  0  0  0  0  0  0  0  0  0  0
  140.4000   70.0920  225.3800 C   0  0  0  0  0  0  0  0  0  0  0  0
  140.9900   71.1830  224.5920 C   0  0  0  0  0  0  0  0  0  0  0  0
  140.4290   73.4260  222.3460 N   0  0  0  0  0  0  0  0  0  0  0  0
  140.8400   74.4090  221.5490 C   0  0  0  0  0  0  0  0  0  0  0  0
  140.2480   75.7130  221.5330 N   0  0  0  0  0  0  0  0  0  0  0  0
  138.8120   75.8770  221.4640 C   0  0  0  0  0  0  0  0  0  0  0  0
  138.2940   76.6100  222.7040 C   0  0  0  0  0  0  0  0  0  0  0  0
  139.0940   77.8590  222.7840 C   0  0  0  0  0  0  0  0  0  0  0  0
  138.5100   78.9390  223.4050 C   0  0  0  0  0  0  0  0  0  0  0  0
  139.1700   80.1420  223.5300 C   0  0  0  0  0  0  0  0  0  0  0  0
  140.4620   80.2860  223.0200 C   0  0  0  0  0  0  0  0  0  0  0  0
  141.0420   79.1980  222.3980 C   0  0  0  0  0  0  0  0  0  0  0  0
  140.3670   77.9830  222.2750 C   0  0  0  0  0  0  0  0  0  0  0  0
  141.0940   76.8880  221.5860 C   0  0  0  0  0  0  0  0  0  0  0  0
  141.8670   74.1520  220.7180 N   0  0  0  0  0  0  0  0  0  0  0  0
  143.7090   71.4800  219.0900 C   0  0  0  0  0  0  0  0  0  0  0  0
  145.1330   70.9780  219.1200 C   0  0  0  0  0  0  0  0  0  0  0  0
  146.0500   71.9120  219.5030 O   0  0  0  0  0  0  0  0  0  0  0  0
  145.8239   75.8169  216.2973 H   0  0  0  0  0  0  0  0  0  0  0  0
  145.9877   74.3255  215.3095 H   0  0  0  0  0  0  0  0  0  0  0  0
  144.4400   75.2374  215.3095 H   0  0  0  0  0  0  0  0  0  0  0  0
  144.3520   74.7479  217.8569 H   0  0  0  0  0  0  0  0  0  0  0  0
  144.0528   73.3659  216.7612 H   0  0  0  0  0  0  0  0  0  0  0  0
  146.2090   72.5550  217.1610 H   0  0  0  0  0  0  0  0  0  0  0  0
  146.6430   73.7305  219.6199 H   0  0  0  0  0  0  0  0  0  0  0  0
  144.6654   74.3503  220.4590 H   0  0  0  0  0  0  0  0  0  0  0  0
  144.1392   74.4184  218.7296 H   0  0  0  0  0  0  0  0  0  0  0  0
  139.0060   70.5950  221.8902 H   0  0  0  0  0  0  0  0  0  0  0  0
  139.8997   69.2728  222.6665 H   0  0  0  0  0  0  0  0  0  0  0  0
  138.1065   71.2626  224.2155 H   0  0  0  0  0  0  0  0  0  0  0  0
  137.5114   69.7025  223.6646 H   0  0  0  0  0  0  0  0  0  0  0  0
  137.5539   68.2192  225.5611 H   0  0  0  0  0  0  0  0  0  0  0  0
  138.7768   67.1745  227.4585 H   0  0  0  0  0  0  0  0  0  0  0  0
  141.0573   68.0216  228.0196 H   0  0  0  0  0  0  0  0  0  0  0  0
  142.0820   69.8522  226.7134 H   0  0  0  0  0  0  0  0  0  0  0  0
  140.7568   72.1400  225.0816 H   0  0  0  0  0  0  0  0  0  0  0  0
  142.0757   71.0138  224.5407 H   0  0  0  0  0  0  0  0  0  0  0  0
  138.5573   76.4599  220.5666 H   0  0  0  0  0  0  0  0  0  0  0  0
  138.3431   74.8831  221.4175 H   0  0  0  0  0  0  0  0  0  0  0  0
  137.2247   76.8437  222.5947 H   0  0  0  0  0  0  0  0  0  0  0  0
  138.3951   75.9994  223.6133 H   0  0  0  0  0  0  0  0  0  0  0  0
  137.4925   78.8397  223.8111 H   0  0  0  0  0  0  0  0  0  0  0  0
  138.6792   80.9891  224.0316 H   0  0  0  0  0  0  0  0  0  0  0  0
  141.0027   81.2396  223.1112 H   0  0  0  0  0  0  0  0  0  0  0  0
  142.0594   79.2913  221.9902 H   0  0  0  0  0  0  0  0  0  0  0  0
  141.3503   77.2030  220.5637 H   0  0  0  0  0  0  0  0  0  0  0  0
  142.0170   76.6539  222.1367 H   0  0  0  0  0  0  0  0  0  0  0  0
  143.0607   70.7320  219.5698 H   0  0  0  0  0  0  0  0  0  0  0  0
  143.4317   71.6384  218.0374 H   0  0  0  0  0  0  0  0  0  0  0  0
  145.1860   70.1344  219.8240 H   0  0  0  0  0  0  0  0  0  0  0  0
  145.3875   70.6914  218.0889 H   0  0  0  0  0  0  0  0  0  0  0  0
  1  2  1  0
  2  3  1  0
  3  4  1  0
  4  5  1  0
  5  6  1  0
  6  7  1  0
  7  8  2  0
  8  9  1  0
  9 10  1  0
 10 11  1  0
 11 12  1  0
 12 13  1  0
 13 14  2  0
 14 15  1  0
 15 16  2  0
 16 17  1  0
 17 18  2  0
 18 19  1  0
  9 20  2  0
 20 21  1  0
 21 22  1  0
 22 23  1  0
 23 24  1  0
 24 25  1  0
 25 26  2  0
 26 27  1  0
 27 28  2  0
 28 29  1  0
 29 30  2  0
 30 31  1  0
 21 32  2  0
  6 33  1  0
 33 34  1  0
 34 35  1  0
 35  4  1  0
 32  7  1  0
 19 10  1  0
 31 22  1  0
 18 13  1  0
 30 25  1  0
  1 36  1  0
  1 37  1  0
  1 38  1  0
  2 39  1  0
  2 40  1  0
  3 41  1  0
  4 42  1  1
  5 43  1  0
  5 44  1  0
 11 45  1  0
 11 46  1  0
 12 47  1  0
 12 48  1  0
 14 49  1  0
 15 50  1  0
 16 51  1  0
 17 52  1  0
 19 53  1  0
 19 54  1  0
 23 55  1  0
 23 56  1  0
 24 57  1  0
 24 58  1  0
 26 59  1  0
 27 60  1  0
 28 61  1  0
 29 62  1  0
 31 63  1  0
 31 64  1  0
 33 65  1  0
 33 66  1  0
 34 67  1  0
 34 68  1  0
M  END
>  <smiles>  (86) 
CCNC1CN(c2nc(N3CCc4ccccc4C3)nc(N3CCc4ccccc4C3)n2)CCO1

>  <score_type>  (86) 
oracle

>  <origin>  (86) 
autodockgpu

>  <m_score__min__energy>  (86) 
-9.5500000000000007

>  <m_primary>  (86) 
energy

>  <rmsd>  (86) 
7.1765873602671775

>  <m_score__min__rmsd>  (86) 
7.1765873602671775

>  <meeko>  (86) 
{"free_energy": -9.25, "intermolecular_energy": -10.74, "internal_energy": -1.02, "cluster_size": 45, "cluster_id": 1, "rank_in_cluster": 12}

>  <energy>  (86) 
-9.03

>  <cluster_rmsd>  (86) 
1.55

>  <cluster>  (86) 
1

$$$$

     RDKit          3D

 68 73  0  0  1  0  0  0  0  0999 V2000
  147.3160   74.1550  216.3060 C   0  0  0  0  0  0  0  0  0  0  0  0
  145.7980   74.1430  216.1460 C   0  0  0  0  0  0  0  0  0  0  0  0
  145.2570   73.0900  216.9820 N   0  0  0  0  0  0  0  0  0  0  0  0
  145.3420   73.3780  218.3970 C   0  0  1  0  0  0  0  0  0  0  0  0
  143.9730   73.7700  218.8570 C   0  0  0  0  0  0  0  0  0  0  0  0
  143.3440   72.7000  219.5800 N   0  0  0  0  0  0  0  0  0  0  0  0
  142.3250   72.9740  220.5620 C   0  0  0  0  0  0  0  0  0  0  0  0
  141.9130   72.0230  221.4310 N   0  0  0  0  0  0  0  0  0  0  0  0
  140.9680   72.3050  222.3310 C   0  0  0  0  0  0  0  0  0  0  0  0
  140.4730   71.3660  223.2840 N   0  0  0  0  0  0  0  0  0  0  0  0
  139.5520   70.3170  222.9120 C   0  0  0  0  0  0  0  0  0  0  0  0
  138.4590   70.3000  223.9840 C   0  0  0  0  0  0  0  0  0  0  0  0
  139.1630   69.8010  225.2190 C   0  0  0  0  0  0  0  0  0  0  0  0
  138.6240   68.8000  225.9970 C   0  0  0  0  0  0  0  0  0  0  0  0
  139.2820   68.3580  227.1190 C   0  0  0  0  0  0  0  0  0  0  0  0
  140.4960   68.9530  227.4370 C   0  0  0  0  0  0  0  0  0  0  0  0
  141.0310   69.9630  226.6440 C   0  0  0  0  0  0  0  0  0  0  0  0
  140.3680   70.4160  225.5030 C   0  0  0  0  0  0  0  0  0  0  0  0
  140.9140   71.4810  224.6510 C   0  0  0  0  0  0  0  0  0  0  0  0
  140.4390   73.5600  222.3450 N   0  0  0  0  0  0  0  0  0  0  0  0
  140.8290   74.5100  221.5000 C   0  0  0  0  0  0  0  0  0  0  0  0
  140.2860   75.8350  221.4980 N   0  0  0  0  0  0  0  0  0  0  0  0
  138.8560   76.0550  221.4590 C   0  0  0  0  0  0  0  0  0  0  0  0
  138.3920   76.8040  222.7090 C   0  0  0  0  0  0  0  0  0  0  0  0
  139.2410   78.0220  222.7740 C   0  0  0  0  0  0  0  0  0  0  0  0
  138.7110   79.1220  223.4080 C   0  0  0  0  0  0  0  0  0  0  0  0
  139.4190   80.2990  223.5200 C   0  0  0  0  0  0  0  0  0  0  0  0
  140.7050   80.3950  222.9840 C   0  0  0  0  0  0  0  0  0  0  0  0
  141.2300   79.2860  222.3490 C   0  0  0  0  0  0  0  0  0  0  0  0
  140.5070   78.0980  222.2380 C   0  0  0  0  0  0  0  0  0  0  0  0
  141.1770   76.9770  221.5340 C   0  0  0  0  0  0  0  0  0  0  0  0
  141.7840   74.1970  220.6040 N   0  0  0  0  0  0  0  0  0  0  0  0
  143.7580   71.3470  219.2990 C   0  0  0  0  0  0  0  0  0  0  0  0
  145.2600   71.2070  219.2270 C   0  0  0  0  0  0  0  0  0  0  0  0
  145.9310   72.3910  219.1290 O   0  0  0  0  0  0  0  0  0  0  0  0
  147.5719   74.1570  217.3758 H   0  0  0  0  0  0  0  0  0  0  0  0
  147.7421   73.2602  215.8287 H   0  0  0  0  0  0  0  0  0  0  0  0
  147.7279   75.0564  215.8287 H   0  0  0  0  0  0  0  0  0  0  0  0
  145.3842   75.1136  216.4571 H   0  0  0  0  0  0  0  0  0  0  0  0
  145.5308   73.9645  215.0940 H   0  0  0  0  0  0  0  0  0  0  0  0
  144.3370   72.7620  216.6820 H   0  0  0  0  0  0  0  0  0  0  0  0
  146.0303   74.2190  218.5669 H   0  0  0  0  0  0  0  0  0  0  0  0
  144.0526   74.6490  219.5135 H   0  0  0  0  0  0  0  0  0  0  0  0
  143.3606   74.0016  217.9731 H   0  0  0  0  0  0  0  0  0  0  0  0
  139.1138   70.5279  221.9254 H   0  0  0  0  0  0  0  0  0  0  0  0
  140.0613   69.3442  222.8469 H   0  0  0  0  0  0  0  0  0  0  0  0
  138.0553   71.3103  224.1460 H   0  0  0  0  0  0  0  0  0  0  0  0
  137.6020   69.6702  223.7031 H   0  0  0  0  0  0  0  0  0  0  0  0
  137.6593   68.3512  225.7177 H   0  0  0  0  0  0  0  0  0  0  0  0
  138.8607   67.5582  227.7457 H   0  0  0  0  0  0  0  0  0  0  0  0
  141.0437   68.6200  228.3310 H   0  0  0  0  0  0  0  0  0  0  0  0
  141.9954   70.4132  226.9219 H   0  0  0  0  0  0  0  0  0  0  0  0
  140.5878   72.4538  225.0476 H   0  0  0  0  0  0  0  0  0  0  0  0
  142.0103   71.3914  224.6602 H   0  0  0  0  0  0  0  0  0  0  0  0
  138.6059   76.6494  220.5678 H   0  0  0  0  0  0  0  0  0  0  0  0
  138.3482   75.0799  221.4211 H   0  0  0  0  0  0  0  0  0  0  0  0
  137.3304   77.0785  222.6218 H   0  0  0  0  0  0  0  0  0  0  0  0
  138.4881   76.1882  223.6154 H   0  0  0  0  0  0  0  0  0  0  0  0
  137.6992   79.0606  223.8352 H   0  0  0  0  0  0  0  0  0  0  0  0
  138.9709   81.1634  224.0319 H   0  0  0  0  0  0  0  0  0  0  0  0
  141.2835   81.3271  223.0651 H   0  0  0  0  0  0  0  0  0  0  0  0
  142.2418   79.3410  221.9209 H   0  0  0  0  0  0  0  0  0  0  0  0
  141.4240   77.2831  220.5067 H   0  0  0  0  0  0  0  0  0  0  0  0
  142.1014   76.7072  222.0656 H   0  0  0  0  0  0  0  0  0  0  0  0
  143.3798   70.6893  220.0955 H   0  0  0  0  0  0  0  0  0  0  0  0
  143.3480   71.0682  218.3171 H   0  0  0  0  0  0  0  0  0  0  0  0
  145.6018   70.6918  220.1368 H   0  0  0  0  0  0  0  0  0  0  0  0
  145.4798   70.6438  218.3080 H   0  0  0  0  0  0  0  0  0  0  0  0
  1  2  1  0
  2  3  1  0
  3  4  1  0
  4  5  1  0
  5  6  1  0
  6  7  1  0
  7  8  2  0
  8  9  1  0
  9 10  1  0
 10 11  1  0
 11 12  1  0
 12 13  1  0
 13 14  2  0
 14 15  1  0
 15 16  2  0
 16 17  1  0
 17 18  2  0
 18 19  1  0
  9 20  2  0
 20 21  1  0
 21 22  1  0
 22 23  1  0
 23 24  1  0
 24 25  1  0
 25 26  2  0
 26 27  1  0
 27 28  2  0
 28 29  1  0
 29 30  2  0
 30 31  1  0
 21 32  2  0
  6 33  1  0
 33 34  1  0
 34 35  1  0
 35  4  1  0
 32  7  1  0
 19 10  1  0
 31 22  1  0
 18 13  1  0
 30 25  1  0
  1 36  1  0
  1 37  1  0
  1 38  1  0
  2 39  1  0
  2 40  1  0
  3 41  1  0
  4 42  1  6
  5 43  1  0
  5 44  1  0
 11 45  1  0
 11 46  1  0
 12 47  1  0
 12 48  1  0
 14 49  1  0
 15 50  1  0
 16 51  1  0
 17 52  1  0
 19 53  1  0
 19 54  1  0
 23 55  1  0
 23 56  1  0
 24 57  1  0
 24 58  1  0
 26 59  1  0
 27 60  1  0
 28 61  1  0
 29 62  1  0
 31 63  1  0
 31 64  1  0
 33 65  1  0
 33 66  1  0
 34 67  1  0
 34 68  1  0
M  END
>  <smiles>  (87) 
CCNC1CN(c2nc(N3CCc4ccccc4C3)nc(N3CCc4ccccc4C3)n2)CCO1

>  <score_type>  (87) 
oracle

>  <origin>  (87) 
autodockgpu

>  <m_score__min__energy>  (87) 
-9.5500000000000007

>  <m_primary>  (87) 
energy

>  <rmsd>  (87) 
7.556235734398407

>  <m_score__min__rmsd>  (87) 
7.556235734398407

>  <meeko>  (87) 
{"free_energy": -9.13, "intermolecular_energy": -10.62, "internal_energy": -1.0, "cluster_size": 45, "cluster_id": 1, "rank_in_cluster": 18}

>  <energy>  (87) 
-9.01

>  <cluster_rmsd>  (87) 
1.31

>  <cluster>  (87) 
1

$$$$

     RDKit          3D

 68 73  0  0  1  0  0  0  0  0999 V2000
  146.0430   68.0760  219.7320 C   0  0  0  0  0  0  0  0  0  0  0  0
  145.3860   69.0740  218.7820 C   0  0  0  0  0  0  0  0  0  0  0  0
  145.8270   70.4070  219.1410 N   0  0  0  0  0  0  0  0  0  0  0  0
  144.9180   71.4480  218.7150 C   0  0  1  0  0  0  0  0  0  0  0  0
  143.7370   71.4140  219.6340 C   0  0  0  0  0  0  0  0  0  0  0  0
  143.7920   72.4870  220.5860 N   0  0  0  0  0  0  0  0  0  0  0  0
  142.5850   73.0050  221.1830 C   0  0  0  0  0  0  0  0  0  0  0  0
  142.2200   74.2980  221.0200 N   0  0  0  0  0  0  0  0  0  0  0  0
  141.0970   74.7500  221.5840 C   0  0  0  0  0  0  0  0  0  0  0  0
  140.6350   76.0940  221.4670 N   0  0  0  0  0  0  0  0  0  0  0  0
  139.8850   76.5430  220.3170 C   0  0  0  0  0  0  0  0  0  0  0  0
  140.4880   77.8890  219.9040 C   0  0  0  0  0  0  0  0  0  0  0  0
  140.1070   78.8210  221.0240 C   0  0  0  0  0  0  0  0  0  0  0  0
  139.5600   80.0600  220.7720 C   0  0  0  0  0  0  0  0  0  0  0  0
  139.2190   80.8960  221.8090 C   0  0  0  0  0  0  0  0  0  0  0  0
  139.4460   80.4510  223.1040 C   0  0  0  0  0  0  0  0  0  0  0  0
  139.9990   79.1970  223.3460 C   0  0  0  0  0  0  0  0  0  0  0  0
  140.3470   78.3440  222.2990 C   0  0  0  0  0  0  0  0  0  0  0  0
  140.9330   77.0160  222.5330 C   0  0  0  0  0  0  0  0  0  0  0  0
  140.3440   73.8840  222.3160 N   0  0  0  0  0  0  0  0  0  0  0  0
  140.6840   72.6090  222.4890 C   0  0  0  0  0  0  0  0  0  0  0  0
  139.9070   71.6810  223.2540 N   0  0  0  0  0  0  0  0  0  0  0  0
  138.8930   70.8620  222.6260 C   0  0  0  0  0  0  0  0  0  0  0  0
  139.2260   69.3770  222.7860 C   0  0  0  0  0  0  0  0  0  0  0  0
  139.4210   69.1740  224.2450 C   0  0  0  0  0  0  0  0  0  0  0  0
  139.1690   67.9160  224.7420 C   0  0  0  0  0  0  0  0  0  0  0  0
  139.3210   67.6280  226.0810 C   0  0  0  0  0  0  0  0  0  0  0  0
  139.7400   68.6220  226.9670 C   0  0  0  0  0  0  0  0  0  0  0  0
  139.9910   69.8820  226.4610 C   0  0  0  0  0  0  0  0  0  0  0  0
  139.8350   70.1680  225.1040 C   0  0  0  0  0  0  0  0  0  0  0  0
  140.1350   71.5570  224.6800 C   0  0  0  0  0  0  0  0  0  0  0  0
  141.8210   72.1810  221.9090 N   0  0  0  0  0  0  0  0  0  0  0  0
  145.0820   73.0340  220.9310 C   0  0  0  0  0  0  0  0  0  0  0  0
  145.9470   73.2780  219.7170 C   0  0  0  0  0  0  0  0  0  0  0  0
  145.5010   72.6720  218.5790 O   0  0  0  0  0  0  0  0  0  0  0  0
  145.8459   68.3754  220.7720 H   0  0  0  0  0  0  0  0  0  0  0  0
  145.6281   67.0729  219.5543 H   0  0  0  0  0  0  0  0  0  0  0  0
  147.1284   68.0606  219.5543 H   0  0  0  0  0  0  0  0  0  0  0  0
  145.6823   68.8512  217.7463 H   0  0  0  0  0  0  0  0  0  0  0  0
  144.2909   69.0048  218.8599 H   0  0  0  0  0  0  0  0  0  0  0  0
  146.1240   70.4920  220.1150 H   0  0  0  0  0  0  0  0  0  0  0  0
  144.5783   71.2501  217.6877 H   0  0  0  0  0  0  0  0  0  0  0  0
  142.8163   71.5080  219.0395 H   0  0  0  0  0  0  0  0  0  0  0  0
  143.7478   70.4601  220.1817 H   0  0  0  0  0  0  0  0  0  0  0  0
  139.9774   75.8170  219.4958 H   0  0  0  0  0  0  0  0  0  0  0  0
  138.8152   76.6417  220.5532 H   0  0  0  0  0  0  0  0  0  0  0  0
  141.5817   77.8153  219.8123 H   0  0  0  0  0  0  0  0  0  0  0  0
  140.1222   78.2331  218.9253 H   0  0  0  0  0  0  0  0  0  0  0  0
  139.3948   80.3829  219.7335 H   0  0  0  0  0  0  0  0  0  0  0  0
  138.7800   81.8864  221.6183 H   0  0  0  0  0  0  0  0  0  0  0  0
  139.1846   81.1000  223.9528 H   0  0  0  0  0  0  0  0  0  0  0  0
  140.1649   78.8722  224.3838 H   0  0  0  0  0  0  0  0  0  0  0  0
  142.0249   77.1203  222.6162 H   0  0  0  0  0  0  0  0  0  0  0  0
  140.4975   76.6133  223.4593 H   0  0  0  0  0  0  0  0  0  0  0  0
  137.9200   71.0672  223.0963 H   0  0  0  0  0  0  0  0  0  0  0  0
  138.8554   71.1038  221.5536 H   0  0  0  0  0  0  0  0  0  0  0  0
  138.3973   68.7544  222.4177 H   0  0  0  0  0  0  0  0  0  0  0  0
  140.1185   69.0923  222.2094 H   0  0  0  0  0  0  0  0  0  0  0  0
  138.8389   67.1226  224.0553 H   0  0  0  0  0  0  0  0  0  0  0  0
  139.1119   66.6138  226.4520 H   0  0  0  0  0  0  0  0  0  0  0  0
  139.8667   68.4075  228.0384 H   0  0  0  0  0  0  0  0  0  0  0  0
  140.3216   70.6789  227.1434 H   0  0  0  0  0  0  0  0  0  0  0  0
  139.4788   72.2559  225.2194 H   0  0  0  0  0  0  0  0  0  0  0  0
  141.1847   71.7938  224.9079 H   0  0  0  0  0  0  0  0  0  0  0  0
  144.9319   73.9891  221.4556 H   0  0  0  0  0  0  0  0  0  0  0  0
  145.5977   72.3008  221.5685 H   0  0  0  0  0  0  0  0  0  0  0  0
  145.9890   74.3622  219.5362 H   0  0  0  0  0  0  0  0  0  0  0  0
  146.9326   72.8433  219.9399 H   0  0  0  0  0  0  0  0  0  0  0  0
  1  2  1  0
  2  3  1  0
  3  4  1  0
  4  5  1  0
  5  6  1  0
  6  7  1  0
  7  8  2  0
  8  9  1  0
  9 10  1  0
 10 11  1  0
 11 12  1  0
 12 13  1  0
 13 14  2  0
 14 15  1  0
 15 16  2  0
 16 17  1  0
 17 18  2  0
 18 19  1  0
  9 20  2  0
 20 21  1  0
 21 22  1  0
 22 23  1  0
 23 24  1  0
 24 25  1  0
 25 26  2  0
 26 27  1  0
 27 28  2  0
 28 29  1  0
 29 30  2  0
 30 31  1  0
 21 32  2  0
  6 33  1  0
 33 34  1  0
 34 35  1  0
 35  4  1  0
 32  7  1  0
 19 10  1  0
 31 22  1  0
 18 13  1  0
 30 25  1  0
  1 36  1  0
  1 37  1  0
  1 38  1  0
  2 39  1  0
  2 40  1  0
  3 41  1  0
  4 42  1  6
  5 43  1  0
  5 44  1  0
 11 45  1  0
 11 46  1  0
 12 47  1  0
 12 48  1  0
 14 49  1  0
 15 50  1  0
 16 51  1  0
 17 52  1  0
 19 53  1  0
 19 54  1  0
 23 55  1  0
 23 56  1  0
 24 57  1  0
 24 58  1  0
 26 59  1  0
 27 60  1  0
 28 61  1  0
 29 62  1  0
 31 63  1  0
 31 64  1  0
 33 65  1  0
 33 66  1  0
 34 67  1  0
 34 68  1  0
M  END
>  <smiles>  (88) 
CCNC1CN(c2nc(N3CCc4ccccc4C3)nc(N3CCc4ccccc4C3)n2)CCO1

>  <score_type>  (88) 
oracle

>  <origin>  (88) 
autodockgpu

>  <m_score__min__energy>  (88) 
-9.5500000000000007

>  <m_primary>  (88) 
energy

>  <rmsd>  (88) 
9.226539845576408

>  <m_score__min__rmsd>  (88) 
9.226539845576408

>  <meeko>  (88) 
{"free_energy": -9.09, "intermolecular_energy": -10.58, "internal_energy": -0.98, "cluster_size": 45, "cluster_id": 1, "rank_in_cluster": 22}

>  <energy>  (88) 
-9.01

>  <cluster_rmsd>  (88) 
1.81

>  <cluster>  (88) 
1

$$$$

     RDKit          3D

 68 73  0  0  1  0  0  0  0  0999 V2000
  142.8230   71.6470  215.6380 C   0  0  0  0  0  0  0  0  0  0  0  0
  143.4130   73.0060  216.0070 C   0  0  0  0  0  0  0  0  0  0  0  0
  144.7350   72.7960  216.5630 N   0  0  0  0  0  0  0  0  0  0  0  0
  144.9090   73.3880  217.8710 C   0  0  1  0  0  0  0  0  0  0  0  0
  143.5450   73.6690  218.4200 C   0  0  0  0  0  0  0  0  0  0  0  0
  143.1770   72.7000  219.4120 N   0  0  0  0  0  0  0  0  0  0  0  0
  142.2260   73.0290  220.4470 C   0  0  0  0  0  0  0  0  0  0  0  0
  141.8260   72.1060  221.3510 N   0  0  0  0  0  0  0  0  0  0  0  0
  140.9450   72.4380  222.2980 C   0  0  0  0  0  0  0  0  0  0  0  0
  140.4670   71.5330  223.2910 N   0  0  0  0  0  0  0  0  0  0  0  0
  139.7580   70.3240  222.9400 C   0  0  0  0  0  0  0  0  0  0  0  0
  138.5470   70.2450  223.8750 C   0  0  0  0  0  0  0  0  0  0  0  0
  139.1470   69.9820  225.2310 C   0  0  0  0  0  0  0  0  0  0  0  0
  138.6570   68.9920  226.0530 C   0  0  0  0  0  0  0  0  0  0  0  0
  139.2190   68.7680  227.2880 C   0  0  0  0  0  0  0  0  0  0  0  0
  140.2860   69.5690  227.6710 C   0  0  0  0  0  0  0  0  0  0  0  0
  140.7730   70.5660  226.8320 C   0  0  0  0  0  0  0  0  0  0  0  0
  140.2080   70.7990  225.5780 C   0  0  0  0  0  0  0  0  0  0  0  0
  140.7060   71.8470  224.6770 C   0  0  0  0  0  0  0  0  0  0  0  0
  140.4710   73.7150  222.3250 N   0  0  0  0  0  0  0  0  0  0  0  0
  140.8520   74.6370  221.4450 C   0  0  0  0  0  0  0  0  0  0  0  0
  140.3660   75.9840  221.4550 N   0  0  0  0  0  0  0  0  0  0  0  0
  138.9460   76.2640  221.4370 C   0  0  0  0  0  0  0  0  0  0  0  0
  138.5320   77.0290  222.6960 C   0  0  0  0  0  0  0  0  0  0  0  0
  139.4330   78.2090  222.7520 C   0  0  0  0  0  0  0  0  0  0  0  0
  138.9590   79.3290  223.3970 C   0  0  0  0  0  0  0  0  0  0  0  0
  139.7180   80.4730  223.5020 C   0  0  0  0  0  0  0  0  0  0  0  0
  140.9990   80.5170  222.9480 C   0  0  0  0  0  0  0  0  0  0  0  0
  141.4670   79.3890  222.3020 C   0  0  0  0  0  0  0  0  0  0  0  0
  140.6930   78.2330  222.1990 C   0  0  0  0  0  0  0  0  0  0  0  0
  141.3050   77.0880  221.4810 C   0  0  0  0  0  0  0  0  0  0  0  0
  141.7400   74.2740  220.5020 N   0  0  0  0  0  0  0  0  0  0  0  0
  143.7790   71.3910  219.3500 C   0  0  0  0  0  0  0  0  0  0  0  0
  145.2700   71.4540  219.1120 C   0  0  0  0  0  0  0  0  0  0  0  0
  145.7220   72.6730  218.6990 O   0  0  0  0  0  0  0  0  0  0  0  0
  142.5815   71.0907  216.5557 H   0  0  0  0  0  0  0  0  0  0  0  0
  141.9074   71.7933  215.0462 H   0  0  0  0  0  0  0  0  0  0  0  0
  143.5551   71.0779  215.0462 H   0  0  0  0  0  0  0  0  0  0  0  0
  143.4839   73.6364  215.1084 H   0  0  0  0  0  0  0  0  0  0  0  0
  142.7694   73.5097  216.7432 H   0  0  0  0  0  0  0  0  0  0  0  0
  145.0560   71.8280  216.5010 H   0  0  0  0  0  0  0  0  0  0  0  0
  145.4612   74.3352  217.7824 H   0  0  0  0  0  0  0  0  0  0  0  0
  143.5408   74.6697  218.8766 H   0  0  0  0  0  0  0  0  0  0  0  0
  142.8192   73.6170  217.5951 H   0  0  0  0  0  0  0  0  0  0  0  0
  139.4270   70.3679  221.8919 H   0  0  0  0  0  0  0  0  0  0  0  0
  140.4023   69.4389  223.0468 H   0  0  0  0  0  0  0  0  0  0  0  0
  137.9888   71.1929  223.8721 H   0  0  0  0  0  0  0  0  0  0  0  0
  137.8298   69.4677  223.5725 H   0  0  0  0  0  0  0  0  0  0  0  0
  137.8094   68.3754  225.7192 H   0  0  0  0  0  0  0  0  0  0  0  0
  138.8351   67.9790  227.9514 H   0  0  0  0  0  0  0  0  0  0  0  0
  140.7541   69.4128  228.6541 H   0  0  0  0  0  0  0  0  0  0  0  0
  141.6208   71.1832  227.1641 H   0  0  0  0  0  0  0  0  0  0  0  0
  140.1982   72.7924  224.9186 H   0  0  0  0  0  0  0  0  0  0  0  0
  141.7934   71.9278  224.8220 H   0  0  0  0  0  0  0  0  0  0  0  0
  138.7084   76.8707  220.5508 H   0  0  0  0  0  0  0  0  0  0  0  0
  138.3970   75.3113  221.4042 H   0  0  0  0  0  0  0  0  0  0  0  0
  137.4820   77.3490  222.6245 H   0  0  0  0  0  0  0  0  0  0  0  0
  138.6144   76.4069  223.5995 H   0  0  0  0  0  0  0  0  0  0  0  0
  137.9516   79.3096  223.8383 H   0  0  0  0  0  0  0  0  0  0  0  0
  139.3146   81.3537  224.0232 H   0  0  0  0  0  0  0  0  0  0  0  0
  141.6175   81.4235  223.0237 H   0  0  0  0  0  0  0  0  0  0  0  0
  142.4735   79.4028  221.8585 H   0  0  0  0  0  0  0  0  0  0  0  0
  141.5490   77.3877  220.4511 H   0  0  0  0  0  0  0  0  0  0  0  0
  142.2255   76.7778  221.9972 H   0  0  0  0  0  0  0  0  0  0  0  0
  143.5948   70.8719  220.3021 H   0  0  0  0  0  0  0  0  0  0  0  0
  143.3265   70.8531  218.5039 H   0  0  0  0  0  0  0  0  0  0  0  0
  145.7800   71.1981  220.0524 H   0  0  0  0  0  0  0  0  0  0  0  0
  145.4893   70.7453  218.2998 H   0  0  0  0  0  0  0  0  0  0  0  0
  1  2  1  0
  2  3  1  0
  3  4  1  0
  4  5  1  0
  5  6  1  0
  6  7  1  0
  7  8  2  0
  8  9  1  0
  9 10  1  0
 10 11  1  0
 11 12  1  0
 12 13  1  0
 13 14  2  0
 14 15  1  0
 15 16  2  0
 16 17  1  0
 17 18  2  0
 18 19  1  0
  9 20  2  0
 20 21  1  0
 21 22  1  0
 22 23  1  0
 23 24  1  0
 24 25  1  0
 25 26  2  0
 26 27  1  0
 27 28  2  0
 28 29  1  0
 29 30  2  0
 30 31  1  0
 21 32  2  0
  6 33  1  0
 33 34  1  0
 34 35  1  0
 35  4  1  0
 32  7  1  0
 19 10  1  0
 31 22  1  0
 18 13  1  0
 30 25  1  0
  1 36  1  0
  1 37  1  0
  1 38  1  0
  2 39  1  0
  2 40  1  0
  3 41  1  0
  4 42  1  6
  5 43  1  0
  5 44  1  0
 11 45  1  0
 11 46  1  0
 12 47  1  0
 12 48  1  0
 14 49  1  0
 15 50  1  0
 16 51  1  0
 17 52  1  0
 19 53  1  0
 19 54  1  0
 23 55  1  0
 23 56  1  0
 24 57  1  0
 24 58  1  0
 26 59  1  0
 27 60  1  0
 28 61  1  0
 29 62  1  0
 31 63  1  0
 31 64  1  0
 33 65  1  0
 33 66  1  0
 34 67  1  0
 34 68  1  0
M  END
>  <smiles>  (89) 
CCNC1CN(c2nc(N3CCc4ccccc4C3)nc(N3CCc4ccccc4C3)n2)CCO1

>  <score_type>  (89) 
oracle

>  <origin>  (89) 
autodockgpu

>  <m_score__min__energy>  (89) 
-9.5500000000000007

>  <m_primary>  (89) 
energy

>  <rmsd>  (89) 
8.059059304420924

>  <m_score__min__rmsd>  (89) 
8.059059304420924

>  <meeko>  (89) 
{"free_energy": -8.6, "intermolecular_energy": -10.09, "internal_energy": -1.07, "cluster_size": 45, "cluster_id": 1, "rank_in_cluster": 44}

>  <energy>  (89) 
-8.96

>  <cluster_rmsd>  (89) 
1.52

>  <cluster>  (89) 
1

$$$$

     RDKit          3D

 68 73  0  0  1  0  0  0  0  0999 V2000
  146.1170   67.9030  219.2730 C   0  0  0  0  0  0  0  0  0  0  0  0
  145.0780   69.0180  219.1870 C   0  0  0  0  0  0  0  0  0  0  0  0
  145.7730   70.2840  219.0720 N   0  0  0  0  0  0  0  0  0  0  0  0
  144.9100   71.3800  218.6880 C   0  0  1  0  0  0  0  0  0  0  0  0
  143.7080   71.3360  219.5790 C   0  0  0  0  0  0  0  0  0  0  0  0
  143.7780   72.3490  220.5940 N   0  0  0  0  0  0  0  0  0  0  0  0
  142.5770   72.8750  221.1940 C   0  0  0  0  0  0  0  0  0  0  0  0
  142.1910   74.1550  220.9900 N   0  0  0  0  0  0  0  0  0  0  0  0
  141.0740   74.6150  221.5580 C   0  0  0  0  0  0  0  0  0  0  0  0
  140.5920   75.9480  221.3980 N   0  0  0  0  0  0  0  0  0  0  0  0
  139.9370   76.3800  220.1850 C   0  0  0  0  0  0  0  0  0  0  0  0
  140.5430   77.7410  219.8270 C   0  0  0  0  0  0  0  0  0  0  0  0
  140.0410   78.6620  220.9080 C   0  0  0  0  0  0  0  0  0  0  0  0
  139.4880   79.8870  220.6070 C   0  0  0  0  0  0  0  0  0  0  0  0
  139.0350   80.7130  221.6080 C   0  0  0  0  0  0  0  0  0  0  0  0
  139.1560   80.2730  222.9180 C   0  0  0  0  0  0  0  0  0  0  0  0
  139.7150   79.0320  223.2110 C   0  0  0  0  0  0  0  0  0  0  0  0
  140.1760   78.1890  222.2000 C   0  0  0  0  0  0  0  0  0  0  0  0
  140.7710   76.8760  222.4860 C   0  0  0  0  0  0  0  0  0  0  0  0
  140.3460   73.7680  222.3380 N   0  0  0  0  0  0  0  0  0  0  0  0
  140.7070   72.5060  222.5520 C   0  0  0  0  0  0  0  0  0  0  0  0
  139.9570   71.5990  223.3680 N   0  0  0  0  0  0  0  0  0  0  0  0
  138.9050   70.7820  222.8010 C   0  0  0  0  0  0  0  0  0  0  0  0
  139.2290   69.2960  222.9690 C   0  0  0  0  0  0  0  0  0  0  0  0
  139.4920   69.1130  224.4200 C   0  0  0  0  0  0  0  0  0  0  0  0
  139.2500   67.8650  224.9480 C   0  0  0  0  0  0  0  0  0  0  0  0
  139.4620   67.5950  226.2820 C   0  0  0  0  0  0  0  0  0  0  0  0
  139.9340   68.5970  227.1320 C   0  0  0  0  0  0  0  0  0  0  0  0
  140.1750   69.8470  226.5940 C   0  0  0  0  0  0  0  0  0  0  0  0
  139.9570   70.1140  225.2420 C   0  0  0  0  0  0  0  0  0  0  0  0
  140.2510   71.4930  224.7830 C   0  0  0  0  0  0  0  0  0  0  0  0
  141.8370   72.0700  221.9660 N   0  0  0  0  0  0  0  0  0  0  0  0
  145.0780   72.8280  220.9970 C   0  0  0  0  0  0  0  0  0  0  0  0
  145.9790   73.1110  219.8180 C   0  0  0  0  0  0  0  0  0  0  0  0
  145.5390   72.5880  218.6370 O   0  0  0  0  0  0  0  0  0  0  0  0
  146.3267   67.6779  220.3291 H   0  0  0  0  0  0  0  0  0  0  0  0
  145.7294   67.0015  218.7759 H   0  0  0  0  0  0  0  0  0  0  0  0
  147.0436   68.2261  218.7759 H   0  0  0  0  0  0  0  0  0  0  0  0
  144.4396   68.8634  218.3047 H   0  0  0  0  0  0  0  0  0  0  0  0
  144.4455   69.0149  220.0869 H   0  0  0  0  0  0  0  0  0  0  0  0
  146.3770   70.4940  219.8690 H   0  0  0  0  0  0  0  0  0  0  0  0
  144.5867   71.2539  217.6442 H   0  0  0  0  0  0  0  0  0  0  0  0
  142.8050   71.4978  218.9720 H   0  0  0  0  0  0  0  0  0  0  0  0
  143.6735   70.3522  220.0699 H   0  0  0  0  0  0  0  0  0  0  0  0
  140.1198   75.6575  219.3759 H   0  0  0  0  0  0  0  0  0  0  0  0
  138.8482   76.4525  220.3239 H   0  0  0  0  0  0  0  0  0  0  0  0
  141.6419   77.6932  219.8339 H   0  0  0  0  0  0  0  0  0  0  0  0
  140.2586   78.0780  218.8193 H   0  0  0  0  0  0  0  0  0  0  0  0
  139.4083   80.2068  219.5575 H   0  0  0  0  0  0  0  0  0  0  0  0
  138.5904   81.6924  221.3775 H   0  0  0  0  0  0  0  0  0  0  0  0
  138.8045   80.9153  223.7389 H   0  0  0  0  0  0  0  0  0  0  0  0
  139.7946   78.7102  224.2599 H   0  0  0  0  0  0  0  0  0  0  0  0
  141.8482   77.0070  222.6661 H   0  0  0  0  0  0  0  0  0  0  0  0
  140.2645   76.4613  223.3700 H   0  0  0  0  0  0  0  0  0  0  0  0
  137.9575   71.0058  223.3130 H   0  0  0  0  0  0  0  0  0  0  0  0
  138.8195   71.0077  221.7278 H   0  0  0  0  0  0  0  0  0  0  0  0
  138.3767   68.6776  222.6510 H   0  0  0  0  0  0  0  0  0  0  0  0
  140.0896   68.9922  222.3550 H   0  0  0  0  0  0  0  0  0  0  0  0
  138.8790   67.0654  224.2899 H   0  0  0  0  0  0  0  0  0  0  0  0
  139.2592   66.5890  226.6780 H   0  0  0  0  0  0  0  0  0  0  0  0
  140.1091   68.3972  228.1995 H   0  0  0  0  0  0  0  0  0  0  0  0
  140.5474   70.6501  227.2469 H   0  0  0  0  0  0  0  0  0  0  0  0
  139.6286   72.2071  225.3422 H   0  0  0  0  0  0  0  0  0  0  0  0
  141.3129   71.7211  224.9571 H   0  0  0  0  0  0  0  0  0  0  0  0
  144.9493   73.7558  221.5738 H   0  0  0  0  0  0  0  0  0  0  0  0
  145.5531   72.0405  221.6004 H   0  0  0  0  0  0  0  0  0  0  0  0
  146.0623   74.2017  219.7020 H   0  0  0  0  0  0  0  0  0  0  0  0
  146.9437   72.6294  220.0359 H   0  0  0  0  0  0  0  0  0  0  0  0
  1  2  1  0
  2  3  1  0
  3  4  1  0
  4  5  1  0
  5  6  1  0
  6  7  1  0
  7  8  2  0
  8  9  1  0
  9 10  1  0
 10 11  1  0
 11 12  1  0
 12 13  1  0
 13 14  2  0
 14 15  1  0
 15 16  2  0
 16 17  1  0
 17 18  2  0
 18 19  1  0
  9 20  2  0
 20 21  1  0
 21 22  1  0
 22 23  1  0
 23 24  1  0
 24 25  1  0
 25 26  2  0
 26 27  1  0
 27 28  2  0
 28 29  1  0
 29 30  2  0
 30 31  1  0
 21 32  2  0
  6 33  1  0
 33 34  1  0
 34 35  1  0
 35  4  1  0
 32  7  1  0
 19 10  1  0
 31 22  1  0
 18 13  1  0
 30 25  1  0
  1 36  1  0
  1 37  1  0
  1 38  1  0
  2 39  1  0
  2 40  1  0
  3 41  1  0
  4 42  1  6
  5 43  1  0
  5 44  1  0
 11 45  1  0
 11 46  1  0
 12 47  1  0
 12 48  1  0
 14 49  1  0
 15 50  1  0
 16 51  1  0
 17 52  1  0
 19 53  1  0
 19 54  1  0
 23 55  1  0
 23 56  1  0
 24 57  1  0
 24 58  1  0
 26 59  1  0
 27 60  1  0
 28 61  1  0
 29 62  1  0
 31 63  1  0
 31 64  1  0
 33 65  1  0
 33 66  1  0
 34 67  1  0
 34 68  1  0
M  END
>  <smiles>  (90) 
CCNC1CN(c2nc(N3CCc4ccccc4C3)nc(N3CCc4ccccc4C3)n2)CCO1

>  <score_type>  (90) 
oracle

>  <origin>  (90) 
autodockgpu

>  <m_score__min__energy>  (90) 
-9.5500000000000007

>  <m_primary>  (90) 
energy

>  <rmsd>  (90) 
9.327625523541187

>  <m_score__min__rmsd>  (90) 
9.327625523541187

>  <meeko>  (90) 
{"free_energy": -9.01, "intermolecular_energy": -10.5, "internal_energy": -0.98, "cluster_size": 45, "cluster_id": 1, "rank_in_cluster": 38}

>  <energy>  (90) 
-8.76

>  <cluster_rmsd>  (90) 
1.86

>  <cluster>  (90) 
1

$$$$

     RDKit          3D

 68 73  0  0  1  0  0  0  0  0999 V2000
  144.4880   73.5440  215.8310 C   0  0  0  0  0  0  0  0  0  0  0  0
  144.8450   74.1400  217.1910 C   0  0  0  0  0  0  0  0  0  0  0  0
  145.9850   73.4200  217.7220 N   0  0  0  0  0  0  0  0  0  0  0  0
  145.8170   73.0130  219.1000 C   0  0  1  0  0  0  0  0  0  0  0  0
  144.5980   73.7040  219.6250 C   0  0  0  0  0  0  0  0  0  0  0  0
  143.4840   72.8020  219.7020 N   0  0  0  0  0  0  0  0  0  0  0  0
  142.4140   73.0310  220.6420 C   0  0  0  0  0  0  0  0  0  0  0  0
  142.0010   72.0580  221.4850 N   0  0  0  0  0  0  0  0  0  0  0  0
  141.0080   72.2970  222.3460 C   0  0  0  0  0  0  0  0  0  0  0  0
  140.5080   71.3330  223.2700 N   0  0  0  0  0  0  0  0  0  0  0  0
  139.5650   70.3130  222.8710 C   0  0  0  0  0  0  0  0  0  0  0  0
  138.4840   70.2760  223.9540 C   0  0  0  0  0  0  0  0  0  0  0  0
  139.1920   69.7200  225.1620 C   0  0  0  0  0  0  0  0  0  0  0  0
  138.6450   68.7010  225.9090 C   0  0  0  0  0  0  0  0  0  0  0  0
  139.3080   68.2080  227.0080 C   0  0  0  0  0  0  0  0  0  0  0  0
  140.5340   68.7700  227.3330 C   0  0  0  0  0  0  0  0  0  0  0  0
  141.0780   69.7990  226.5700 C   0  0  0  0  0  0  0  0  0  0  0  0
  140.4110   70.3040  225.4540 C   0  0  0  0  0  0  0  0  0  0  0  0
  140.9660   71.3910  224.6350 C   0  0  0  0  0  0  0  0  0  0  0  0
  140.4340   73.5320  222.3470 N   0  0  0  0  0  0  0  0  0  0  0  0
  140.8250   74.5030  221.5260 C   0  0  0  0  0  0  0  0  0  0  0  0
  140.2350   75.8080  221.5100 N   0  0  0  0  0  0  0  0  0  0  0  0
  138.7990   75.9760  221.4380 C   0  0  0  0  0  0  0  0  0  0  0  0
  138.2800   76.7080  222.6770 C   0  0  0  0  0  0  0  0  0  0  0  0
  139.0830   77.9560  222.7610 C   0  0  0  0  0  0  0  0  0  0  0  0
  138.4990   79.0360  223.3820 C   0  0  0  0  0  0  0  0  0  0  0  0
  139.1620   80.2370  223.5090 C   0  0  0  0  0  0  0  0  0  0  0  0
  140.4550   80.3790  223.0040 C   0  0  0  0  0  0  0  0  0  0  0  0
  141.0350   79.2910  222.3810 C   0  0  0  0  0  0  0  0  0  0  0  0
  140.3570   78.0770  222.2550 C   0  0  0  0  0  0  0  0  0  0  0  0
  141.0840   76.9820  221.5670 C   0  0  0  0  0  0  0  0  0  0  0  0
  141.8280   74.2330  220.6700 N   0  0  0  0  0  0  0  0  0  0  0  0
  143.4610   71.6630  218.8160 C   0  0  0  0  0  0  0  0  0  0  0  0
  144.7920   70.9520  218.7580 C   0  0  0  0  0  0  0  0  0  0  0  0
  145.8320   71.6630  219.2840 O   0  0  0  0  0  0  0  0  0  0  0  0
  143.9277   72.6086  215.9763 H   0  0  0  0  0  0  0  0  0  0  0  0
  143.8691   74.2586  215.2686 H   0  0  0  0  0  0  0  0  0  0  0  0
  145.4101   73.3355  215.2686 H   0  0  0  0  0  0  0  0  0  0  0  0
  145.0990   75.2040  217.0750 H   0  0  0  0  0  0  0  0  0  0  0  0
  143.9901   74.0526  217.8776 H   0  0  0  0  0  0  0  0  0  0  0  0
  146.3200   72.6750  217.1090 H   0  0  0  0  0  0  0  0  0  0  0  0
  146.6892   73.3272  219.6921 H   0  0  0  0  0  0  0  0  0  0  0  0
  144.8125   74.0962  220.6301 H   0  0  0  0  0  0  0  0  0  0  0  0
  144.3375   74.5222  218.9374 H   0  0  0  0  0  0  0  0  0  0  0  0
  139.1197   70.5664  221.8976 H   0  0  0  0  0  0  0  0  0  0  0  0
  140.0569   69.3348  222.7651 H   0  0  0  0  0  0  0  0  0  0  0  0
  138.1003   71.2867  224.1572 H   0  0  0  0  0  0  0  0  0  0  0  0
  137.6130   69.6718  223.6602 H   0  0  0  0  0  0  0  0  0  0  0  0
  137.6702   68.2781  225.6244 H   0  0  0  0  0  0  0  0  0  0  0  0
  138.8797   67.3935  227.6106 H   0  0  0  0  0  0  0  0  0  0  0  0
  141.0853   68.3961  228.2083 H   0  0  0  0  0  0  0  0  0  0  0  0
  142.0531   70.2223  226.8527 H   0  0  0  0  0  0  0  0  0  0  0  0
  140.6606   72.3539  225.0704 H   0  0  0  0  0  0  0  0  0  0  0  0
  142.0607   71.2835  224.6285 H   0  0  0  0  0  0  0  0  0  0  0  0
  138.5479   76.5609  220.5409 H   0  0  0  0  0  0  0  0  0  0  0  0
  138.3277   74.9833  221.3891 H   0  0  0  0  0  0  0  0  0  0  0  0
  137.2115   76.9442  222.5654 H   0  0  0  0  0  0  0  0  0  0  0  0
  138.3777   76.0958  223.5857 H   0  0  0  0  0  0  0  0  0  0  0  0
  137.4805   78.9384  223.7859 H   0  0  0  0  0  0  0  0  0  0  0  0
  138.6714   81.0851  224.0092 H   0  0  0  0  0  0  0  0  0  0  0  0
  140.9975   81.3311  223.0994 H   0  0  0  0  0  0  0  0  0  0  0  0
  142.0533   79.3831  221.9753 H   0  0  0  0  0  0  0  0  0  0  0  0
  141.3441   77.2978  220.5459 H   0  0  0  0  0  0  0  0  0  0  0  0
  142.0050   76.7454  222.1200 H   0  0  0  0  0  0  0  0  0  0  0  0
  142.6974   70.9550  219.1705 H   0  0  0  0  0  0  0  0  0  0  0  0
  143.2321   72.0295  217.8044 H   0  0  0  0  0  0  0  0  0  0  0  0
  144.7030   70.0081  219.3157 H   0  0  0  0  0  0  0  0  0  0  0  0
  145.0215   70.7992  217.6931 H   0  0  0  0  0  0  0  0  0  0  0  0
  1  2  1  0
  2  3  1  0
  3  4  1  0
  4  5  1  0
  5  6  1  0
  6  7  1  0
  7  8  2  0
  8  9  1  0
  9 10  1  0
 10 11  1  0
 11 12  1  0
 12 13  1  0
 13 14  2  0
 14 15  1  0
 15 16  2  0
 16 17  1  0
 17 18  2  0
 18 19  1  0
  9 20  2  0
 20 21  1  0
 21 22  1  0
 22 23  1  0
 23 24  1  0
 24 25  1  0
 25 26  2  0
 26 27  1  0
 27 28  2  0
 28 29  1  0
 29 30  2  0
 30 31  1  0
 21 32  2  0
  6 33  1  0
 33 34  1  0
 34 35  1  0
 35  4  1  0
 32  7  1  0
 19 10  1  0
 31 22  1  0
 18 13  1  0
 30 25  1  0
  1 36  1  0
  1 37  1  0
  1 38  1  0
  2 39  1  0
  2 40  1  0
  3 41  1  0
  4 42  1  1
  5 43  1  0
  5 44  1  0
 11 45  1  0
 11 46  1  0
 12 47  1  0
 12 48  1  0
 14 49  1  0
 15 50  1  0
 16 51  1  0
 17 52  1  0
 19 53  1  0
 19 54  1  0
 23 55  1  0
 23 56  1  0
 24 57  1  0
 24 58  1  0
 26 59  1  0
 27 60  1  0
 28 61  1  0
 29 62  1  0
 31 63  1  0
 31 64  1  0
 33 65  1  0
 33 66  1  0
 34 67  1  0
 34 68  1  0
M  END
>  <smiles>  (91) 
CCNC1CN(c2nc(N3CCc4ccccc4C3)nc(N3CCc4ccccc4C3)n2)CCO1

>  <score_type>  (91) 
oracle

>  <origin>  (91) 
autodockgpu

>  <m_score__min__energy>  (91) 
-9.5500000000000007

>  <m_primary>  (91) 
energy

>  <rmsd>  (91) 
7.407576642183242

>  <m_score__min__rmsd>  (91) 
7.407576642183242

>  <meeko>  (91) 
{"free_energy": -9.01, "intermolecular_energy": -10.5, "internal_energy": -1.03, "cluster_size": 45, "cluster_id": 1, "rank_in_cluster": 37}

>  <energy>  (91) 
-8.69

>  <cluster_rmsd>  (91) 
1.63

>  <cluster>  (91) 
1

$$$$

     RDKit          3D

 68 73  0  0  1  0  0  0  0  0999 V2000
  142.1860   79.4490  222.7990 C   0  0  0  0  0  0  0  0  0  0  0  0
  141.1040   78.4170  222.4950 C   0  0  0  0  0  0  0  0  0  0  0  0
  140.5920   78.6680  221.1630 N   0  0  0  0  0  0  0  0  0  0  0  0
  140.7780   77.5570  220.2560 C   0  0  1  0  0  0  0  0  0  0  0  0
  141.4180   76.4490  221.0320 C   0  0  0  0  0  0  0  0  0  0  0  0
  140.4640   75.4280  221.3610 N   0  0  0  0  0  0  0  0  0  0  0  0
  140.8890   74.0680  221.5900 C   0  0  0  0  0  0  0  0  0  0  0  0
  141.8440   73.4920  220.8250 N   0  0  0  0  0  0  0  0  0  0  0  0
  142.2180   72.2320  221.0600 C   0  0  0  0  0  0  0  0  0  0  0  0
  143.2140   71.5450  220.3050 N   0  0  0  0  0  0  0  0  0  0  0  0
  144.4110   72.2090  219.8420 C   0  0  0  0  0  0  0  0  0  0  0  0
  144.6000   71.7910  218.3810 C   0  0  0  0  0  0  0  0  0  0  0  0
  144.9530   70.3290  218.4600 C   0  0  0  0  0  0  0  0  0  0  0  0
  146.0210   69.8100  217.7610 C   0  0  0  0  0  0  0  0  0  0  0  0
  146.3270   68.4730  217.8470 C   0  0  0  0  0  0  0  0  0  0  0  0
  145.5290   67.6740  218.6530 C   0  0  0  0  0  0  0  0  0  0  0  0
  144.4530   68.2090  219.3550 C   0  0  0  0  0  0  0  0  0  0  0  0
  144.1370   69.5650  219.2730 C   0  0  0  0  0  0  0  0  0  0  0  0
  143.0050   70.1510  220.0050 C   0  0  0  0  0  0  0  0  0  0  0  0
  141.6170   71.5560  222.0790 N   0  0  0  0  0  0  0  0  0  0  0  0
  140.6770   72.1040  222.8440 C   0  0  0  0  0  0  0  0  0  0  0  0
  140.0320   71.4120  223.9190 N   0  0  0  0  0  0  0  0  0  0  0  0
  138.8980   70.5470  223.6750 C   0  0  0  0  0  0  0  0  0  0  0  0
  139.2150   69.1110  224.0960 C   0  0  0  0  0  0  0  0  0  0  0  0
  139.6750   69.2080  225.5060 C   0  0  0  0  0  0  0  0  0  0  0  0
  139.4870   68.1020  226.3030 C   0  0  0  0  0  0  0  0  0  0  0  0
  139.8780   68.0930  227.6240 C   0  0  0  0  0  0  0  0  0  0  0  0
  140.4820   69.2210  228.1820 C   0  0  0  0  0  0  0  0  0  0  0  0
  140.6670   70.3270  227.3760 C   0  0  0  0  0  0  0  0  0  0  0  0
  140.2670   70.3300  226.0390 C   0  0  0  0  0  0  0  0  0  0  0  0
  140.5190   71.5760  225.2740 C   0  0  0  0  0  0  0  0  0  0  0  0
  140.3200   73.3750  222.5830 N   0  0  0  0  0  0  0  0  0  0  0  0
  139.0720   75.7940  221.4550 C   0  0  0  0  0  0  0  0  0  0  0  0
  138.6280   76.6690  220.3060 C   0  0  0  0  0  0  0  0  0  0  0  0
  139.6510   77.2010  219.5770 O   0  0  0  0  0  0  0  0  0  0  0  0
  142.2965   79.5544  223.8883 H   0  0  0  0  0  0  0  0  0  0  0  0
  143.1407   79.1184  222.3639 H   0  0  0  0  0  0  0  0  0  0  0  0
  141.9009   80.4182  222.3639 H   0  0  0  0  0  0  0  0  0  0  0  0
  141.5322   77.4049  222.5435 H   0  0  0  0  0  0  0  0  0  0  0  0
  140.2913   78.4939  223.2323 H   0  0  0  0  0  0  0  0  0  0  0  0
  139.6460   79.0550  221.1540 H   0  0  0  0  0  0  0  0  0  0  0  0
  141.4473   77.8530  219.4348 H   0  0  0  0  0  0  0  0  0  0  0  0
  142.2235   76.0063  220.4277 H   0  0  0  0  0  0  0  0  0  0  0  0
  141.8195   76.8654  221.9676 H   0  0  0  0  0  0  0  0  0  0  0  0
  144.2924   73.3003  219.9131 H   0  0  0  0  0  0  0  0  0  0  0  0
  145.2828   71.9306  220.4523 H   0  0  0  0  0  0  0  0  0  0  0  0
  143.6717   71.9383  217.8095 H   0  0  0  0  0  0  0  0  0  0  0  0
  145.3714   72.3845  217.8685 H   0  0  0  0  0  0  0  0  0  0  0  0
  146.6331   70.4707  217.1295 H   0  0  0  0  0  0  0  0  0  0  0  0
  147.1783   68.0494  217.2939 H   0  0  0  0  0  0  0  0  0  0  0  0
  145.7504   66.5999  218.7386 H   0  0  0  0  0  0  0  0  0  0  0  0
  143.8398   67.5496  219.9868 H   0  0  0  0  0  0  0  0  0  0  0  0
  142.0974   70.0529  219.3914 H   0  0  0  0  0  0  0  0  0  0  0  0
  142.9038   69.6118  220.9584 H   0  0  0  0  0  0  0  0  0  0  0  0
  138.0352   70.9107  224.2523 H   0  0  0  0  0  0  0  0  0  0  0  0
  138.6686   70.5584  222.5993 H   0  0  0  0  0  0  0  0  0  0  0  0
  138.3155   68.4817  224.0266 H   0  0  0  0  0  0  0  0  0  0  0  0
  139.9755   68.6519  223.4472 H   0  0  0  0  0  0  0  0  0  0  0  0
  139.0141   67.2054  225.8759 H   0  0  0  0  0  0  0  0  0  0  0  0
  139.7141   67.1962  228.2395 H   0  0  0  0  0  0  0  0  0  0  0  0
  140.8017   69.2287  229.2345 H   0  0  0  0  0  0  0  0  0  0  0  0
  141.1404   71.2260  227.7974 H   0  0  0  0  0  0  0  0  0  0  0  0
  139.9939   72.4148  225.7543 H   0  0  0  0  0  0  0  0  0  0  0  0
  141.5988   71.7851  225.2550 H   0  0  0  0  0  0  0  0  0  0  0  0
  138.4648   74.8768  221.4558 H   0  0  0  0  0  0  0  0  0  0  0  0
  138.9377   76.3669  222.3844 H   0  0  0  0  0  0  0  0  0  0  0  0
  138.0041   76.0629  219.6327 H   0  0  0  0  0  0  0  0  0  0  0  0
  138.0826   77.5160  220.7478 H   0  0  0  0  0  0  0  0  0  0  0  0
  1  2  1  0
  2  3  1  0
  3  4  1  0
  4  5  1  0
  5  6  1  0
  6  7  1  0
  7  8  2  0
  8  9  1  0
  9 10  1  0
 10 11  1  0
 11 12  1  0
 12 13  1  0
 13 14  2  0
 14 15  1  0
 15 16  2  0
 16 17  1  0
 17 18  2  0
 18 19  1  0
  9 20  2  0
 20 21  1  0
 21 22  1  0
 22 23  1  0
 23 24  1  0
 24 25  1  0
 25 26  2  0
 26 27  1  0
 27 28  2  0
 28 29  1  0
 29 30  2  0
 30 31  1  0
 21 32  2  0
  6 33  1  0
 33 34  1  0
 34 35  1  0
 35  4  1  0
 32  7  1  0
 19 10  1  0
 31 22  1  0
 18 13  1  0
 30 25  1  0
  1 36  1  0
  1 37  1  0
  1 38  1  0
  2 39  1  0
  2 40  1  0
  3 41  1  0
  4 42  1  6
  5 43  1  0
  5 44  1  0
 11 45  1  0
 11 46  1  0
 12 47  1  0
 12 48  1  0
 14 49  1  0
 15 50  1  0
 16 51  1  0
 17 52  1  0
 19 53  1  0
 19 54  1  0
 23 55  1  0
 23 56  1  0
 24 57  1  0
 24 58  1  0
 26 59  1  0
 27 60  1  0
 28 61  1  0
 29 62  1  0
 31 63  1  0
 31 64  1  0
 33 65  1  0
 33 66  1  0
 34 67  1  0
 34 68  1  0
M  END
>  <smiles>  (92) 
CCNC1CN(c2nc(N3CCc4ccccc4C3)nc(N3CCc4ccccc4C3)n2)CCO1

>  <score_type>  (92) 
oracle

>  <origin>  (92) 
autodockgpu

>  <m_score__min__energy>  (92) 
-9.5500000000000007

>  <m_primary>  (92) 
energy

>  <rmsd>  (92) 
2.1622323046807663

>  <m_score__min__rmsd>  (92) 
2.1622323046807663

>  <meeko>  (92) 
{"free_energy": -8.53, "intermolecular_energy": -10.02, "internal_energy": -1.02, "cluster_size": 3, "cluster_id": 3, "rank_in_cluster": 2}

>  <energy>  (92) 
-8.67

>  <cluster_rmsd>  (92) 
1.77

>  <cluster>  (92) 
1

$$$$

     RDKit          3D

 68 73  0  0  1  0  0  0  0  0999 V2000
  147.6820   74.4630  216.3050 C   0  0  0  0  0  0  0  0  0  0  0  0
  146.6920   73.3180  216.4980 C   0  0  0  0  0  0  0  0  0  0  0  0
  145.5350   73.8250  217.2080 N   0  0  0  0  0  0  0  0  0  0  0  0
  145.4690   73.3890  218.5850 C   0  0  1  0  0  0  0  0  0  0  0  0
  144.2990   74.0760  219.2160 C   0  0  0  0  0  0  0  0  0  0  0  0
  143.1870   73.1800  219.3580 N   0  0  0  0  0  0  0  0  0  0  0  0
  142.1930   73.3940  220.3810 C   0  0  0  0  0  0  0  0  0  0  0  0
  141.8110   72.3950  221.2090 N   0  0  0  0  0  0  0  0  0  0  0  0
  140.8890   72.6220  222.1480 C   0  0  0  0  0  0  0  0  0  0  0  0
  140.4250   71.6310  223.0620 N   0  0  0  0  0  0  0  0  0  0  0  0
  139.7060   70.4600  222.6160 C   0  0  0  0  0  0  0  0  0  0  0  0
  138.5120   70.2980  223.5620 C   0  0  0  0  0  0  0  0  0  0  0  0
  139.1360   69.9120  224.8770 C   0  0  0  0  0  0  0  0  0  0  0  0
  138.6570   68.8510  225.6140 C   0  0  0  0  0  0  0  0  0  0  0  0
  139.2400   68.5140  226.8120 C   0  0  0  0  0  0  0  0  0  0  0  0
  140.3170   69.2750  227.2470 C   0  0  0  0  0  0  0  0  0  0  0  0
  140.7920   70.3440  226.4940 C   0  0  0  0  0  0  0  0  0  0  0  0
  140.2050   70.6910  225.2770 C   0  0  0  0  0  0  0  0  0  0  0  0
  140.6910   71.8160  224.4660 C   0  0  0  0  0  0  0  0  0  0  0  0
  140.3540   73.8710  222.2440 N   0  0  0  0  0  0  0  0  0  0  0  0
  140.7160   74.8680  221.4410 C   0  0  0  0  0  0  0  0  0  0  0  0
  140.1670   76.1880  221.5240 N   0  0  0  0  0  0  0  0  0  0  0  0
  138.7400   76.4080  221.4380 C   0  0  0  0  0  0  0  0  0  0  0  0
  138.2140   77.0490  222.7240 C   0  0  0  0  0  0  0  0  0  0  0  0
  139.0530   78.2580  222.9300 C   0  0  0  0  0  0  0  0  0  0  0  0
  138.4890   79.3010  223.6290 C   0  0  0  0  0  0  0  0  0  0  0  0
  139.1840   80.4640  223.8720 C   0  0  0  0  0  0  0  0  0  0  0  0
  140.4930   80.6070  223.4060 C   0  0  0  0  0  0  0  0  0  0  0  0
  141.0530   79.5560  222.7050 C   0  0  0  0  0  0  0  0  0  0  0  0
  140.3420   78.3810  222.4620 C   0  0  0  0  0  0  0  0  0  0  0  0
  141.0500   77.3240  221.6980 C   0  0  0  0  0  0  0  0  0  0  0  0
  141.6480   74.6100  220.5040 N   0  0  0  0  0  0  0  0  0  0  0  0
  143.0880   72.0600  218.4530 C   0  0  0  0  0  0  0  0  0  0  0  0
  144.4060   71.3430  218.2790 C   0  0  0  0  0  0  0  0  0  0  0  0
  145.4880   72.0350  218.7390 O   0  0  0  0  0  0  0  0  0  0  0  0
  148.0057   74.8374  217.2874 H   0  0  0  0  0  0  0  0  0  0  0  0
  148.5564   74.1011  215.7442 H   0  0  0  0  0  0  0  0  0  0  0  0
  147.1976   75.2760  215.7442 H   0  0  0  0  0  0  0  0  0  0  0  0
  146.3832   72.9254  215.5180 H   0  0  0  0  0  0  0  0  0  0  0  0
  147.1617   72.5068  217.0736 H   0  0  0  0  0  0  0  0  0  0  0  0
  145.3880   74.8290  217.0840 H   0  0  0  0  0  0  0  0  0  0  0  0
  146.3862   73.6847  219.1154 H   0  0  0  0  0  0  0  0  0  0  0  0
  144.5923   74.4445  220.2101 H   0  0  0  0  0  0  0  0  0  0  0  0
  143.9937   74.9108  218.5680 H   0  0  0  0  0  0  0  0  0  0  0  0
  139.3561   70.5993  221.5825 H   0  0  0  0  0  0  0  0  0  0  0  0
  140.3495   69.5680  222.6303 H   0  0  0  0  0  0  0  0  0  0  0  0
  137.9567   71.2429  223.6555 H   0  0  0  0  0  0  0  0  0  0  0  0
  137.7870   69.5525  223.2034 H   0  0  0  0  0  0  0  0  0  0  0  0
  137.8014   68.2692  225.2406 H   0  0  0  0  0  0  0  0  0  0  0  0
  138.8654   67.6683  227.4074 H   0  0  0  0  0  0  0  0  0  0  0  0
  140.8026   69.0285  228.2027 H   0  0  0  0  0  0  0  0  0  0  0  0
  141.6474   70.9272  226.8656 H   0  0  0  0  0  0  0  0  0  0  0  0
  140.1920   72.7367  224.8026 H   0  0  0  0  0  0  0  0  0  0  0  0
  141.7813   71.8801  224.5971 H   0  0  0  0  0  0  0  0  0  0  0  0
  138.5278   77.0746  220.5891 H   0  0  0  0  0  0  0  0  0  0  0  0
  138.2403   75.4385  221.2956 H   0  0  0  0  0  0  0  0  0  0  0  0
  137.1562   77.3286  222.6106 H   0  0  0  0  0  0  0  0  0  0  0  0
  138.2706   76.3595  223.5792 H   0  0  0  0  0  0  0  0  0  0  0  0
  137.4589   79.2028  224.0021 H   0  0  0  0  0  0  0  0  0  0  0  0
  138.7082   81.2814  224.4336 H   0  0  0  0  0  0  0  0  0  0  0  0
  141.0619   81.5300  223.5918 H   0  0  0  0  0  0  0  0  0  0  0  0
  142.0830   79.6482  222.3301 H   0  0  0  0  0  0  0  0  0  0  0  0
  141.3432   77.7161  220.7130 H   0  0  0  0  0  0  0  0  0  0  0  0
  141.9500   77.0112  222.2477 H   0  0  0  0  0  0  0  0  0  0  0  0
  142.3486   71.3490  218.8502 H   0  0  0  0  0  0  0  0  0  0  0  0
  142.7849   72.4488  217.4696 H   0  0  0  0  0  0  0  0  0  0  0  0
  144.3524   70.3876  218.8215 H   0  0  0  0  0  0  0  0  0  0  0  0
  144.5528   71.2132  217.1966 H   0  0  0  0  0  0  0  0  0  0  0  0
  1  2  1  0
  2  3  1  0
  3  4  1  0
  4  5  1  0
  5  6  1  0
  6  7  1  0
  7  8  2  0
  8  9  1  0
  9 10  1  0
 10 11  1  0
 11 12  1  0
 12 13  1  0
 13 14  2  0
 14 15  1  0
 15 16  2  0
 16 17  1  0
 17 18  2  0
 18 19  1  0
  9 20  2  0
 20 21  1  0
 21 22  1  0
 22 23  1  0
 23 24  1  0
 24 25  1  0
 25 26  2  0
 26 27  1  0
 27 28  2  0
 28 29  1  0
 29 30  2  0
 30 31  1  0
 21 32  2  0
  6 33  1  0
 33 34  1  0
 34 35  1  0
 35  4  1  0
 32  7  1  0
 19 10  1  0
 31 22  1  0
 18 13  1  0
 30 25  1  0
  1 36  1  0
  1 37  1  0
  1 38  1  0
  2 39  1  0
  2 40  1  0
  3 41  1  0
  4 42  1  1
  5 43  1  0
  5 44  1  0
 11 45  1  0
 11 46  1  0
 12 47  1  0
 12 48  1  0
 14 49  1  0
 15 50  1  0
 16 51  1  0
 17 52  1  0
 19 53  1  0
 19 54  1  0
 23 55  1  0
 23 56  1  0
 24 57  1  0
 24 58  1  0
 26 59  1  0
 27 60  1  0
 28 61  1  0
 29 62  1  0
 31 63  1  0
 31 64  1  0
 33 65  1  0
 33 66  1  0
 34 67  1  0
 34 68  1  0
M  END
>  <smiles>  (93) 
CCNC1CN(c2nc(N3CCc4ccccc4C3)nc(N3CCc4ccccc4C3)n2)CCO1

>  <score_type>  (93) 
oracle

>  <origin>  (93) 
autodockgpu

>  <m_score__min__energy>  (93) 
-9.5500000000000007

>  <m_primary>  (93) 
energy

>  <rmsd>  (93) 
7.4158439940778615

>  <m_score__min__rmsd>  (93) 
7.4158439940778615

>  <meeko>  (93) 
{"free_energy": -9.24, "intermolecular_energy": -10.73, "internal_energy": -0.96, "cluster_size": 45, "cluster_id": 1, "rank_in_cluster": 14}

>  <energy>  (93) 
-8.61

>  <cluster_rmsd>  (93) 
1.56

>  <cluster>  (93) 
1

$$$$

     RDKit          3D

 68 73  0  0  1  0  0  0  0  0999 V2000
  142.8660   71.5340  215.7550 C   0  0  0  0  0  0  0  0  0  0  0  0
  143.4060   72.9260  216.0670 C   0  0  0  0  0  0  0  0  0  0  0  0
  144.7520   72.7900  216.5880 N   0  0  0  0  0  0  0  0  0  0  0  0
  144.9230   73.3720  217.9000 C   0  0  1  0  0  0  0  0  0  0  0  0
  143.5580   73.6580  218.4440 C   0  0  0  0  0  0  0  0  0  0  0  0
  143.1780   72.6840  219.4280 N   0  0  0  0  0  0  0  0  0  0  0  0
  142.2250   73.0120  220.4600 C   0  0  0  0  0  0  0  0  0  0  0  0
  141.8240   72.0890  221.3640 N   0  0  0  0  0  0  0  0  0  0  0  0
  140.9400   72.4200  222.3090 C   0  0  0  0  0  0  0  0  0  0  0  0
  140.4610   71.5150  223.3010 N   0  0  0  0  0  0  0  0  0  0  0  0
  139.7520   70.3060  222.9500 C   0  0  0  0  0  0  0  0  0  0  0  0
  138.5420   70.2280  223.8850 C   0  0  0  0  0  0  0  0  0  0  0  0
  139.1410   69.9650  225.2410 C   0  0  0  0  0  0  0  0  0  0  0  0
  138.6510   68.9740  226.0630 C   0  0  0  0  0  0  0  0  0  0  0  0
  139.2120   68.7500  227.2980 C   0  0  0  0  0  0  0  0  0  0  0  0
  140.2790   69.5510  227.6810 C   0  0  0  0  0  0  0  0  0  0  0  0
  140.7670   70.5480  226.8420 C   0  0  0  0  0  0  0  0  0  0  0  0
  140.2020   70.7810  225.5880 C   0  0  0  0  0  0  0  0  0  0  0  0
  140.7010   71.8290  224.6870 C   0  0  0  0  0  0  0  0  0  0  0  0
  140.4620   73.6960  222.3320 N   0  0  0  0  0  0  0  0  0  0  0  0
  140.8430   74.6180  221.4530 C   0  0  0  0  0  0  0  0  0  0  0  0
  140.3530   75.9640  221.4590 N   0  0  0  0  0  0  0  0  0  0  0  0
  138.9330   76.2400  221.4520 C   0  0  0  0  0  0  0  0  0  0  0  0
  138.5270   77.0100  222.7100 C   0  0  0  0  0  0  0  0  0  0  0  0
  139.4250   78.1930  222.7530 C   0  0  0  0  0  0  0  0  0  0  0  0
  138.9540   79.3150  223.3960 C   0  0  0  0  0  0  0  0  0  0  0  0
  139.7100   80.4620  223.4880 C   0  0  0  0  0  0  0  0  0  0  0  0
  140.9860   80.5060  222.9240 C   0  0  0  0  0  0  0  0  0  0  0  0
  141.4530   79.3760  222.2790 C   0  0  0  0  0  0  0  0  0  0  0  0
  140.6810   78.2170  222.1890 C   0  0  0  0  0  0  0  0  0  0  0  0
  141.2900   77.0700  221.4720 C   0  0  0  0  0  0  0  0  0  0  0  0
  141.7350   74.2560  220.5120 N   0  0  0  0  0  0  0  0  0  0  0  0
  143.7740   71.3720  219.3600 C   0  0  0  0  0  0  0  0  0  0  0  0
  145.2660   71.4280  219.1300 C   0  0  0  0  0  0  0  0  0  0  0  0
  145.7270   72.6470  218.7280 O   0  0  0  0  0  0  0  0  0  0  0  0
  142.6595   71.0016  216.6952 H   0  0  0  0  0  0  0  0  0  0  0  0
  141.9372   71.6231  215.1724 H   0  0  0  0  0  0  0  0  0  0  0  0
  143.6119   70.9734  215.1724 H   0  0  0  0  0  0  0  0  0  0  0  0
  143.4227   73.5321  215.1492 H   0  0  0  0  0  0  0  0  0  0  0  0
  142.7629   73.4228  216.8083 H   0  0  0  0  0  0  0  0  0  0  0  0
  145.1300   71.8450  216.5030 H   0  0  0  0  0  0  0  0  0  0  0  0
  145.4819   74.3160  217.8197 H   0  0  0  0  0  0  0  0  0  0  0  0
  143.5580   74.6556  218.9076 H   0  0  0  0  0  0  0  0  0  0  0  0
  142.8363   73.6163  217.6149 H   0  0  0  0  0  0  0  0  0  0  0  0
  139.4208   70.3498  221.9020 H   0  0  0  0  0  0  0  0  0  0  0  0
  140.3961   69.4206  223.0564 H   0  0  0  0  0  0  0  0  0  0  0  0
  137.9845   71.1762  223.8818 H   0  0  0  0  0  0  0  0  0  0  0  0
  137.8248   69.4507  223.5827 H   0  0  0  0  0  0  0  0  0  0  0  0
  137.8040   68.3569  225.7285 H   0  0  0  0  0  0  0  0  0  0  0  0
  138.8276   67.9612  227.9614 H   0  0  0  0  0  0  0  0  0  0  0  0
  140.7466   69.3950  228.6643 H   0  0  0  0  0  0  0  0  0  0  0  0
  141.6152   71.1647  227.1741 H   0  0  0  0  0  0  0  0  0  0  0  0
  140.1942   72.7749  224.9288 H   0  0  0  0  0  0  0  0  0  0  0  0
  141.7885   71.9091  224.8317 H   0  0  0  0  0  0  0  0  0  0  0  0
  138.6862   76.8415  220.5647 H   0  0  0  0  0  0  0  0  0  0  0  0
  138.3867   75.2855  221.4291 H   0  0  0  0  0  0  0  0  0  0  0  0
  137.4755   77.3267  222.6453 H   0  0  0  0  0  0  0  0  0  0  0  0
  138.6185   76.3927  223.6159 H   0  0  0  0  0  0  0  0  0  0  0  0
  137.9507   79.2949  223.8466 H   0  0  0  0  0  0  0  0  0  0  0  0
  139.3079   81.3448  224.0067 H   0  0  0  0  0  0  0  0  0  0  0  0
  141.6027   81.4144  222.9909 H   0  0  0  0  0  0  0  0  0  0  0  0
  142.4556   79.3908  221.8266 H   0  0  0  0  0  0  0  0  0  0  0  0
  141.5252   77.3650  220.4387 H   0  0  0  0  0  0  0  0  0  0  0  0
  142.2153   76.7644  221.9823 H   0  0  0  0  0  0  0  0  0  0  0  0
  143.5822   70.8474  220.3076 H   0  0  0  0  0  0  0  0  0  0  0  0
  143.3231   70.8428  218.5076 H   0  0  0  0  0  0  0  0  0  0  0  0
  145.7698   71.1625  220.0712 H   0  0  0  0  0  0  0  0  0  0  0  0
  145.4854   70.7238  218.3140 H   0  0  0  0  0  0  0  0  0  0  0  0
  1  2  1  0
  2  3  1  0
  3  4  1  0
  4  5  1  0
  5  6  1  0
  6  7  1  0
  7  8  2  0
  8  9  1  0
  9 10  1  0
 10 11  1  0
 11 12  1  0
 12 13  1  0
 13 14  2  0
 14 15  1  0
 15 16  2  0
 16 17  1  0
 17 18  2  0
 18 19  1  0
  9 20  2  0
 20 21  1  0
 21 22  1  0
 22 23  1  0
 23 24  1  0
 24 25  1  0
 25 26  2  0
 26 27  1  0
 27 28  2  0
 28 29  1  0
 29 30  2  0
 30 31  1  0
 21 32  2  0
  6 33  1  0
 33 34  1  0
 34 35  1  0
 35  4  1  0
 32  7  1  0
 19 10  1  0
 31 22  1  0
 18 13  1  0
 30 25  1  0
  1 36  1  0
  1 37  1  0
  1 38  1  0
  2 39  1  0
  2 40  1  0
  3 41  1  0
  4 42  1  6
  5 43  1  0
  5 44  1  0
 11 45  1  0
 11 46  1  0
 12 47  1  0
 12 48  1  0
 14 49  1  0
 15 50  1  0
 16 51  1  0
 17 52  1  0
 19 53  1  0
 19 54  1  0
 23 55  1  0
 23 56  1  0
 24 57  1  0
 24 58  1  0
 26 59  1  0
 27 60  1  0
 28 61  1  0
 29 62  1  0
 31 63  1  0
 31 64  1  0
 33 65  1  0
 33 66  1  0
 34 67  1  0
 34 68  1  0
M  END
>  <smiles>  (94) 
CCNC1CN(c2nc(N3CCc4ccccc4C3)nc(N3CCc4ccccc4C3)n2)CCO1

>  <score_type>  (94) 
oracle

>  <origin>  (94) 
autodockgpu

>  <m_score__min__energy>  (94) 
-9.5500000000000007

>  <m_primary>  (94) 
energy

>  <rmsd>  (94) 
8.066754455495778

>  <m_score__min__rmsd>  (94) 
8.066754455495778

>  <meeko>  (94) 
{"free_energy": -8.61, "intermolecular_energy": -10.1, "internal_energy": -1.08, "cluster_size": 45, "cluster_id": 1, "rank_in_cluster": 43}

>  <energy>  (94) 
-8.6

>  <cluster_rmsd>  (94) 
1.57

>  <cluster>  (94) 
1

$$$$

     RDKit          3D

 68 73  0  0  1  0  0  0  0  0999 V2000
  147.0670   73.6670  215.4170 C   0  0  0  0  0  0  0  0  0  0  0  0
  146.3230   72.8530  216.4730 C   0  0  0  0  0  0  0  0  0  0  0  0
  145.5410   73.7630  217.2870 N   0  0  0  0  0  0  0  0  0  0  0  0
  145.4840   73.3820  218.6810 C   0  0  1  0  0  0  0  0  0  0  0  0
  144.2990   74.0690  219.2830 C   0  0  0  0  0  0  0  0  0  0  0  0
  143.2060   73.1550  219.4620 N   0  0  0  0  0  0  0  0  0  0  0  0
  142.2070   73.3900  220.4760 C   0  0  0  0  0  0  0  0  0  0  0  0
  141.8150   72.4050  221.3170 N   0  0  0  0  0  0  0  0  0  0  0  0
  140.8890   72.6510  222.2470 C   0  0  0  0  0  0  0  0  0  0  0  0
  140.4150   71.6750  223.1730 N   0  0  0  0  0  0  0  0  0  0  0  0
  139.6660   70.5170  222.7430 C   0  0  0  0  0  0  0  0  0  0  0  0
  138.4810   70.3870  223.7030 C   0  0  0  0  0  0  0  0  0  0  0  0
  139.1110   69.9960  225.0140 C   0  0  0  0  0  0  0  0  0  0  0  0
  138.6190   68.9500  225.7640 C   0  0  0  0  0  0  0  0  0  0  0  0
  139.2090   68.6090  226.9580 C   0  0  0  0  0  0  0  0  0  0  0  0
  140.3060   69.3510  227.3750 C   0  0  0  0  0  0  0  0  0  0  0  0
  140.7950   70.4040  226.6090 C   0  0  0  0  0  0  0  0  0  0  0  0
  140.2010   70.7550  225.3970 C   0  0  0  0  0  0  0  0  0  0  0  0
  140.7010   71.8650  224.5730 C   0  0  0  0  0  0  0  0  0  0  0  0
  140.3600   73.9030  222.3210 N   0  0  0  0  0  0  0  0  0  0  0  0
  140.7310   74.8860  221.5050 C   0  0  0  0  0  0  0  0  0  0  0  0
  140.1880   76.2100  221.5650 N   0  0  0  0  0  0  0  0  0  0  0  0
  138.7630   76.4360  221.4510 C   0  0  0  0  0  0  0  0  0  0  0  0
  138.2190   77.0930  222.7200 C   0  0  0  0  0  0  0  0  0  0  0  0
  139.0600   78.3000  222.9290 C   0  0  0  0  0  0  0  0  0  0  0  0
  138.4890   79.3530  223.6070 C   0  0  0  0  0  0  0  0  0  0  0  0
  139.1870   80.5150  223.8510 C   0  0  0  0  0  0  0  0  0  0  0  0
  140.5040   80.6460  223.4070 C   0  0  0  0  0  0  0  0  0  0  0  0
  141.0710   79.5860  222.7260 C   0  0  0  0  0  0  0  0  0  0  0  0
  140.3580   78.4110  222.4830 C   0  0  0  0  0  0  0  0  0  0  0  0
  141.0730   77.3430  221.7430 C   0  0  0  0  0  0  0  0  0  0  0  0
  141.6670   74.6090  220.5770 N   0  0  0  0  0  0  0  0  0  0  0  0
  143.1320   71.9980  218.6040 C   0  0  0  0  0  0  0  0  0  0  0  0
  144.4660   71.3020  218.4590 C   0  0  0  0  0  0  0  0  0  0  0  0
  145.5320   72.0370  218.8900 O   0  0  0  0  0  0  0  0  0  0  0  0
  147.7296   74.3919  215.9125 H   0  0  0  0  0  0  0  0  0  0  0  0
  147.6667   72.9918  214.7889 H   0  0  0  0  0  0  0  0  0  0  0  0
  146.3408   74.2037  214.7889 H   0  0  0  0  0  0  0  0  0  0  0  0
  145.6569   72.1283  215.9819 H   0  0  0  0  0  0  0  0  0  0  0  0
  147.0403   72.3055  217.1020 H   0  0  0  0  0  0  0  0  0  0  0  0
  145.7710   74.7470  217.1360 H   0  0  0  0  0  0  0  0  0  0  0  0
  146.3944   73.7182  219.1989 H   0  0  0  0  0  0  0  0  0  0  0  0
  144.5834   74.4845  220.2610 H   0  0  0  0  0  0  0  0  0  0  0  0
  143.9762   74.8696  218.6012 H   0  0  0  0  0  0  0  0  0  0  0  0
  139.3071   70.6573  221.7127 H   0  0  0  0  0  0  0  0  0  0  0  0
  140.2903   69.6114  222.7556 H   0  0  0  0  0  0  0  0  0  0  0  0
  137.9474   71.3443  223.7964 H   0  0  0  0  0  0  0  0  0  0  0  0
  137.7364   69.6547  223.3576 H   0  0  0  0  0  0  0  0  0  0  0  0
  137.7474   68.3834  225.4046 H   0  0  0  0  0  0  0  0  0  0  0  0
  138.8244   67.7751  227.5635 H   0  0  0  0  0  0  0  0  0  0  0  0
  140.7967   69.1018  228.3274 H   0  0  0  0  0  0  0  0  0  0  0  0
  141.6673   70.9710  226.9662 H   0  0  0  0  0  0  0  0  0  0  0  0
  140.2246   72.7980  224.9086 H   0  0  0  0  0  0  0  0  0  0  0  0
  141.7937   71.9085  224.6918 H   0  0  0  0  0  0  0  0  0  0  0  0
  138.5690   77.0944  220.5914 H   0  0  0  0  0  0  0  0  0  0  0  0
  138.2606   75.4677  221.3097 H   0  0  0  0  0  0  0  0  0  0  0  0
  137.1648   77.3767  222.5853 H   0  0  0  0  0  0  0  0  0  0  0  0
  138.2579   76.4120  223.5830 H   0  0  0  0  0  0  0  0  0  0  0  0
  137.4516   79.2645  223.9620 H   0  0  0  0  0  0  0  0  0  0  0  0
  138.7062   81.3406  224.3962 H   0  0  0  0  0  0  0  0  0  0  0  0
  141.0745   81.5677  223.5941 H   0  0  0  0  0  0  0  0  0  0  0  0
  142.1075   79.6700  222.3673 H   0  0  0  0  0  0  0  0  0  0  0  0
  141.3855   77.7234  220.7593 H   0  0  0  0  0  0  0  0  0  0  0  0
  141.9613   77.0313  222.3120 H   0  0  0  0  0  0  0  0  0  0  0  0
  142.4076   71.2881  219.0299 H   0  0  0  0  0  0  0  0  0  0  0  0
  142.8219   72.3401  217.6056 H   0  0  0  0  0  0  0  0  0  0  0  0
  144.4329   70.3690  219.0407 H   0  0  0  0  0  0  0  0  0  0  0  0
  144.6163   71.1295  217.3831 H   0  0  0  0  0  0  0  0  0  0  0  0
  1  2  1  0
  2  3  1  0
  3  4  1  0
  4  5  1  0
  5  6  1  0
  6  7  1  0
  7  8  2  0
  8  9  1  0
  9 10  1  0
 10 11  1  0
 11 12  1  0
 12 13  1  0
 13 14  2  0
 14 15  1  0
 15 16  2  0
 16 17  1  0
 17 18  2  0
 18 19  1  0
  9 20  2  0
 20 21  1  0
 21 22  1  0
 22 23  1  0
 23 24  1  0
 24 25  1  0
 25 26  2  0
 26 27  1  0
 27 28  2  0
 28 29  1  0
 29 30  2  0
 30 31  1  0
 21 32  2  0
  6 33  1  0
 33 34  1  0
 34 35  1  0
 35  4  1  0
 32  7  1  0
 19 10  1  0
 31 22  1  0
 18 13  1  0
 30 25  1  0
  1 36  1  0
  1 37  1  0
  1 38  1  0
  2 39  1  0
  2 40  1  0
  3 41  1  0
  4 42  1  1
  5 43  1  0
  5 44  1  0
 11 45  1  0
 11 46  1  0
 12 47  1  0
 12 48  1  0
 14 49  1  0
 15 50  1  0
 16 51  1  0
 17 52  1  0
 19 53  1  0
 19 54  1  0
 23 55  1  0
 23 56  1  0
 24 57  1  0
 24 58  1  0
 26 59  1  0
 27 60  1  0
 28 61  1  0
 29 62  1  0
 31 63  1  0
 31 64  1  0
 33 65  1  0
 33 66  1  0
 34 67  1  0
 34 68  1  0
M  END
>  <smiles>  (95) 
CCNC1CN(c2nc(N3CCc4ccccc4C3)nc(N3CCc4ccccc4C3)n2)CCO1

>  <score_type>  (95) 
oracle

>  <origin>  (95) 
autodockgpu

>  <m_score__min__energy>  (95) 
-9.5500000000000007

>  <m_primary>  (95) 
energy

>  <rmsd>  (95) 
7.711397255932579

>  <m_score__min__rmsd>  (95) 
7.711397255932579

>  <meeko>  (95) 
{"free_energy": -9.34, "intermolecular_energy": -10.83, "internal_energy": -0.89, "cluster_size": 45, "cluster_id": 1, "rank_in_cluster": 11}

>  <energy>  (95) 
-8.54

>  <cluster_rmsd>  (95) 
1.41

>  <cluster>  (95) 
1

$$$$

     RDKit          3D

 68 73  0  0  1  0  0  0  0  0999 V2000
  147.1490   74.1250  216.2270 C   0  0  0  0  0  0  0  0  0  0  0  0
  145.6430   74.0060  216.0090 C   0  0  0  0  0  0  0  0  0  0  0  0
  145.1260   73.0000  216.9160 N   0  0  0  0  0  0  0  0  0  0  0  0
  145.2250   73.3770  218.3090 C   0  0  1  0  0  0  0  0  0  0  0  0
  143.8440   73.7070  218.7810 C   0  0  0  0  0  0  0  0  0  0  0  0
  143.3030   72.6450  219.5810 N   0  0  0  0  0  0  0  0  0  0  0  0
  142.2900   72.9110  220.5730 C   0  0  0  0  0  0  0  0  0  0  0  0
  141.9010   71.9600  221.4520 N   0  0  0  0  0  0  0  0  0  0  0  0
  140.9610   72.2340  222.3600 C   0  0  0  0  0  0  0  0  0  0  0  0
  140.4900   71.2950  223.3250 N   0  0  0  0  0  0  0  0  0  0  0  0
  139.5980   70.2170  222.9640 C   0  0  0  0  0  0  0  0  0  0  0  0
  138.5030   70.1850  224.0340 C   0  0  0  0  0  0  0  0  0  0  0  0
  139.2170   69.7200  225.2770 C   0  0  0  0  0  0  0  0  0  0  0  0
  138.7030   68.7150  226.0670 C   0  0  0  0  0  0  0  0  0  0  0  0
  139.3700   68.3060  227.1960 C   0  0  0  0  0  0  0  0  0  0  0  0
  140.5670   68.9370  227.5090 C   0  0  0  0  0  0  0  0  0  0  0  0
  141.0760   69.9500  226.7030 C   0  0  0  0  0  0  0  0  0  0  0  0
  140.4040   70.3710  225.5550 C   0  0  0  0  0  0  0  0  0  0  0  0
  140.9240   71.4390  224.6910 C   0  0  0  0  0  0  0  0  0  0  0  0
  140.4150   73.4820  222.3730 N   0  0  0  0  0  0  0  0  0  0  0  0
  140.7840   74.4320  221.5180 C   0  0  0  0  0  0  0  0  0  0  0  0
  140.2230   75.7500  221.5130 N   0  0  0  0  0  0  0  0  0  0  0  0
  138.7900   75.9500  221.4780 C   0  0  0  0  0  0  0  0  0  0  0  0
  138.3200   76.6970  222.7270 C   0  0  0  0  0  0  0  0  0  0  0  0
  139.1520   77.9260  222.7860 C   0  0  0  0  0  0  0  0  0  0  0  0
  138.6100   79.0210  223.4190 C   0  0  0  0  0  0  0  0  0  0  0  0
  139.3020   80.2070  223.5250 C   0  0  0  0  0  0  0  0  0  0  0  0
  140.5850   80.3190  222.9850 C   0  0  0  0  0  0  0  0  0  0  0  0
  141.1230   79.2160  222.3510 C   0  0  0  0  0  0  0  0  0  0  0  0
  140.4160   78.0180  222.2470 C   0  0  0  0  0  0  0  0  0  0  0  0
  141.0990   76.9040  221.5440 C   0  0  0  0  0  0  0  0  0  0  0  0
  141.7330   74.1270  220.6140 N   0  0  0  0  0  0  0  0  0  0  0  0
  143.7960   71.3060  219.3690 C   0  0  0  0  0  0  0  0  0  0  0  0
  145.3030   71.2570  219.2650 C   0  0  0  0  0  0  0  0  0  0  0  0
  145.8920   72.4740  219.0810 O   0  0  0  0  0  0  0  0  0  0  0  0
  147.3631   74.1419  217.3058 H   0  0  0  0  0  0  0  0  0  0  0  0
  147.6554   73.2641  215.7661 H   0  0  0  0  0  0  0  0  0  0  0  0
  147.5139   75.0548  215.7661 H   0  0  0  0  0  0  0  0  0  0  0  0
  145.1607   74.9732  216.2135 H   0  0  0  0  0  0  0  0  0  0  0  0
  145.4340   73.7187  214.9680 H   0  0  0  0  0  0  0  0  0  0  0  0
  144.2080   72.6420  216.6490 H   0  0  0  0  0  0  0  0  0  0  0  0
  145.8614   74.2683  218.4117 H   0  0  0  0  0  0  0  0  0  0  0  0
  143.8804   74.6271  219.3827 H   0  0  0  0  0  0  0  0  0  0  0  0
  143.1982   73.8452  217.9013 H   0  0  0  0  0  0  0  0  0  0  0  0
  139.1569   70.4037  221.9738 H   0  0  0  0  0  0  0  0  0  0  0  0
  140.1330   69.2573  222.9122 H   0  0  0  0  0  0  0  0  0  0  0  0
  138.0727   71.1864  224.1824 H   0  0  0  0  0  0  0  0  0  0  0  0
  137.6634   69.5295  223.7593 H   0  0  0  0  0  0  0  0  0  0  0  0
  137.7515   68.2366  225.7916 H   0  0  0  0  0  0  0  0  0  0  0  0
  138.9686   67.5036  227.8324 H   0  0  0  0  0  0  0  0  0  0  0  0
  141.1213   68.6308  228.4085 H   0  0  0  0  0  0  0  0  0  0  0  0
  142.0278   70.4290  226.9763 H   0  0  0  0  0  0  0  0  0  0  0  0
  140.5712   72.4078  225.0743 H   0  0  0  0  0  0  0  0  0  0  0  0
  142.0223   71.3786  224.7040 H   0  0  0  0  0  0  0  0  0  0  0  0
  138.5287   76.5376  220.5856 H   0  0  0  0  0  0  0  0  0  0  0  0
  138.2956   74.9679  221.4451 H   0  0  0  0  0  0  0  0  0  0  0  0
  137.2545   76.9569  222.6422 H   0  0  0  0  0  0  0  0  0  0  0  0
  138.4276   76.0854  223.6350 H   0  0  0  0  0  0  0  0  0  0  0  0
  137.6008   78.9474  223.8503 H   0  0  0  0  0  0  0  0  0  0  0  0
  138.8437   81.0669  224.0355 H   0  0  0  0  0  0  0  0  0  0  0  0
  141.1511   81.2590  223.0624 H   0  0  0  0  0  0  0  0  0  0  0  0
  142.1320   79.2839  221.9182 H   0  0  0  0  0  0  0  0  0  0  0  0
  141.3394   77.2108  220.5154 H   0  0  0  0  0  0  0  0  0  0  0  0
  142.0282   76.6478  222.0741 H   0  0  0  0  0  0  0  0  0  0  0  0
  143.4794   70.6752  220.2127 H   0  0  0  0  0  0  0  0  0  0  0  0
  143.3820   70.9428  218.4168 H   0  0  0  0  0  0  0  0  0  0  0  0
  145.6986   70.8194  220.1935 H   0  0  0  0  0  0  0  0  0  0  0  0
  145.5384   70.6548  218.3751 H   0  0  0  0  0  0  0  0  0  0  0  0
  1  2  1  0
  2  3  1  0
  3  4  1  0
  4  5  1  0
  5  6  1  0
  6  7  1  0
  7  8  2  0
  8  9  1  0
  9 10  1  0
 10 11  1  0
 11 12  1  0
 12 13  1  0
 13 14  2  0
 14 15  1  0
 15 16  2  0
 16 17  1  0
 17 18  2  0
 18 19  1  0
  9 20  2  0
 20 21  1  0
 21 22  1  0
 22 23  1  0
 23 24  1  0
 24 25  1  0
 25 26  2  0
 26 27  1  0
 27 28  2  0
 28 29  1  0
 29 30  2  0
 30 31  1  0
 21 32  2  0
  6 33  1  0
 33 34  1  0
 34 35  1  0
 35  4  1  0
 32  7  1  0
 19 10  1  0
 31 22  1  0
 18 13  1  0
 30 25  1  0
  1 36  1  0
  1 37  1  0
  1 38  1  0
  2 39  1  0
  2 40  1  0
  3 41  1  0
  4 42  1  6
  5 43  1  0
  5 44  1  0
 11 45  1  0
 11 46  1  0
 12 47  1  0
 12 48  1  0
 14 49  1  0
 15 50  1  0
 16 51  1  0
 17 52  1  0
 19 53  1  0
 19 54  1  0
 23 55  1  0
 23 56  1  0
 24 57  1  0
 24 58  1  0
 26 59  1  0
 27 60  1  0
 28 61  1  0
 29 62  1  0
 31 63  1  0
 31 64  1  0
 33 65  1  0
 33 66  1  0
 34 67  1  0
 34 68  1  0
M  END
>  <smiles>  (96) 
CCNC1CN(c2nc(N3CCc4ccccc4C3)nc(N3CCc4ccccc4C3)n2)CCO1

>  <score_type>  (96) 
oracle

>  <origin>  (96) 
autodockgpu

>  <m_score__min__energy>  (96) 
-9.5500000000000007

>  <m_primary>  (96) 
energy

>  <rmsd>  (96) 
7.577120478972684

>  <m_score__min__rmsd>  (96) 
7.577120478972684

>  <meeko>  (96) 
{"free_energy": -9.09, "intermolecular_energy": -10.58, "internal_energy": -1.0, "cluster_size": 45, "cluster_id": 1, "rank_in_cluster": 25}

>  <energy>  (96) 
-8.77

>  <cluster_rmsd>  (96) 
0.0

>  <cluster>  (96) 
2

$$$$

     RDKit          3D

 68 73  0  0  1  0  0  0  0  0999 V2000
  146.3460   73.7880  220.9890 C   0  0  0  0  0  0  0  0  0  0  0  0
  146.3040   72.5500  220.0980 C   0  0  0  0  0  0  0  0  0  0  0  0
  145.9280   72.9610  218.7600 N   0  0  0  0  0  0  0  0  0  0  0  0
  144.5380   72.7070  218.4490 C   0  0  1  0  0  0  0  0  0  0  0  0
  143.8020   72.6040  219.7480 C   0  0  0  0  0  0  0  0  0  0  0  0
  143.0490   73.7980  220.0120 N   0  0  0  0  0  0  0  0  0  0  0  0
  141.8750   73.7590  220.8490 C   0  0  0  0  0  0  0  0  0  0  0  0
  141.5910   72.6780  221.6110 N   0  0  0  0  0  0  0  0  0  0  0  0
  140.4970   72.6700  222.3770 C   0  0  0  0  0  0  0  0  0  0  0  0
  140.1200   71.5760  223.2110 N   0  0  0  0  0  0  0  0  0  0  0  0
  139.1770   70.5730  222.7710 C   0  0  0  0  0  0  0  0  0  0  0  0
  138.2060   70.3520  223.9340 C   0  0  0  0  0  0  0  0  0  0  0  0
  139.0440   69.6820  224.9910 C   0  0  0  0  0  0  0  0  0  0  0  0
  138.6040   68.5540  225.6470 C   0  0  0  0  0  0  0  0  0  0  0  0
  139.3850   67.9570  226.6080 C   0  0  0  0  0  0  0  0  0  0  0  0
  140.6180   68.5290  226.8910 C   0  0  0  0  0  0  0  0  0  0  0  0
  141.0520   69.6680  226.2210 C   0  0  0  0  0  0  0  0  0  0  0  0
  140.2650   70.2790  225.2440 C   0  0  0  0  0  0  0  0  0  0  0  0
  140.7040   71.4830  224.5250 C   0  0  0  0  0  0  0  0  0  0  0  0
  139.6890   73.7660  222.3660 N   0  0  0  0  0  0  0  0  0  0  0  0
  139.9490   74.8390  221.6250 C   0  0  0  0  0  0  0  0  0  0  0  0
  139.1140   76.0010  221.5980 N   0  0  0  0  0  0  0  0  0  0  0  0
  137.7390   75.9210  221.1530 C   0  0  0  0  0  0  0  0  0  0  0  0
  136.7840   76.3290  222.2770 C   0  0  0  0  0  0  0  0  0  0  0  0
  137.2520   77.6660  222.7220 C   0  0  0  0  0  0  0  0  0  0  0  0
  136.3130   78.5050  223.2790 C   0  0  0  0  0  0  0  0  0  0  0  0
  136.6480   79.7650  223.7220 C   0  0  0  0  0  0  0  0  0  0  0  0
  137.9630   80.2200  223.6130 C   0  0  0  0  0  0  0  0  0  0  0  0
  138.9000   79.3730  223.0520 C   0  0  0  0  0  0  0  0  0  0  0  0
  138.5540   78.0970  222.6050 C   0  0  0  0  0  0  0  0  0  0  0  0
  139.6470   77.2810  222.0210 C   0  0  0  0  0  0  0  0  0  0  0  0
  141.0590   74.8190  220.8630 N   0  0  0  0  0  0  0  0  0  0  0  0
  143.4960   75.0350  219.4200 C   0  0  0  0  0  0  0  0  0  0  0  0
  143.8600   74.8780  217.9630 C   0  0  0  0  0  0  0  0  0  0  0  0
  144.0010   73.5840  217.5550 O   0  0  0  0  0  0  0  0  0  0  0  0
  146.3356   73.4803  222.0450 H   0  0  0  0  0  0  0  0  0  0  0  0
  147.2640   74.3577  220.7821 H   0  0  0  0  0  0  0  0  0  0  0  0
  145.4687   74.4186  220.7821 H   0  0  0  0  0  0  0  0  0  0  0  0
  147.2958   72.0748  220.0756 H   0  0  0  0  0  0  0  0  0  0  0  0
  145.5736   71.8270  220.4902 H   0  0  0  0  0  0  0  0  0  0  0  0
  146.2390   73.9030  218.5180 H   0  0  0  0  0  0  0  0  0  0  0  0
  144.4430   71.7545  217.9071 H   0  0  0  0  0  0  0  0  0  0  0  0
  143.1133   71.7474  219.7037 H   0  0  0  0  0  0  0  0  0  0  0  0
  144.5364   72.4685  220.5557 H   0  0  0  0  0  0  0  0  0  0  0  0
  138.6326   70.9264  221.8829 H   0  0  0  0  0  0  0  0  0  0  0  0
  139.6883   69.6388  222.4957 H   0  0  0  0  0  0  0  0  0  0  0  0
  137.8101   71.3110  224.2996 H   0  0  0  0  0  0  0  0  0  0  0  0
  137.3315   69.7506  223.6450 H   0  0  0  0  0  0  0  0  0  0  0  0
  137.6205   68.1276  225.4003 H   0  0  0  0  0  0  0  0  0  0  0  0
  139.0437   67.0545  227.1361 H   0  0  0  0  0  0  0  0  0  0  0  0
  141.2623   68.0739  227.6577 H   0  0  0  0  0  0  0  0  0  0  0  0
  142.0353   70.0957  226.4662 H   0  0  0  0  0  0  0  0  0  0  0  0
  140.4107   72.3695  225.1065 H   0  0  0  0  0  0  0  0  0  0  0  0
  141.7960   71.4256  224.4057 H   0  0  0  0  0  0  0  0  0  0  0  0
  137.5969   76.5951  220.2955 H   0  0  0  0  0  0  0  0  0  0  0  0
  137.5206   74.8830  220.8617 H   0  0  0  0  0  0  0  0  0  0  0  0
  135.7511   76.3870  221.9031 H   0  0  0  0  0  0  0  0  0  0  0  0
  136.7837   75.5994  223.1002 H   0  0  0  0  0  0  0  0  0  0  0  0
  135.2723   78.1611  223.3722 H   0  0  0  0  0  0  0  0  0  0  0  0
  135.8774   80.4145  224.1628 H   0  0  0  0  0  0  0  0  0  0  0  0
  138.2454   81.2237  223.9635 H   0  0  0  0  0  0  0  0  0  0  0  0
  139.9419   79.7122  222.9556 H   0  0  0  0  0  0  0  0  0  0  0  0
  140.0747   77.8058  221.1540 H   0  0  0  0  0  0  0  0  0  0  0  0
  140.4326   77.1228  222.7746 H   0  0  0  0  0  0  0  0  0  0  0  0
  142.6898   75.7785  219.5044 H   0  0  0  0  0  0  0  0  0  0  0  0
  144.3996   75.3569  219.9584 H   0  0  0  0  0  0  0  0  0  0  0  0
  143.0690   75.3455  217.3582 H   0  0  0  0  0  0  0  0  0  0  0  0
  144.8406   75.3583  217.8302 H   0  0  0  0  0  0  0  0  0  0  0  0
  1  2  1  0
  2  3  1  0
  3  4  1  0
  4  5  1  0
  5  6  1  0
  6  7  1  0
  7  8  2  0
  8  9  1  0
  9 10  1  0
 10 11  1  0
 11 12  1  0
 12 13  1  0
 13 14  2  0
 14 15  1  0
 15 16  2  0
 16 17  1  0
 17 18  2  0
 18 19  1  0
  9 20  2  0
 20 21  1  0
 21 22  1  0
 22 23  1  0
 23 24  1  0
 24 25  1  0
 25 26  2  0
 26 27  1  0
 27 28  2  0
 28 29  1  0
 29 30  2  0
 30 31  1  0
 21 32  2  0
  6 33  1  0
 33 34  1  0
 34 35  1  0
 35  4  1  0
 32  7  1  0
 19 10  1  0
 31 22  1  0
 18 13  1  0
 30 25  1  0
  1 36  1  0
  1 37  1  0
  1 38  1  0
  2 39  1  0
  2 40  1  0
  3 41  1  0
  4 42  1  6
  5 43  1  0
  5 44  1  0
 11 45  1  0
 11 46  1  0
 12 47  1  0
 12 48  1  0
 14 49  1  0
 15 50  1  0
 16 51  1  0
 17 52  1  0
 19 53  1  0
 19 54  1  0
 23 55  1  0
 23 56  1  0
 24 57  1  0
 24 58  1  0
 26 59  1  0
 27 60  1  0
 28 61  1  0
 29 62  1  0
 31 63  1  0
 31 64  1  0
 33 65  1  0
 33 66  1  0
 34 67  1  0
 34 68  1  0
M  END
>  <smiles>  (97) 
CCNC1CN(c2nc(N3CCc4ccccc4C3)nc(N3CCc4ccccc4C3)n2)CCO1

>  <score_type>  (97) 
oracle

>  <origin>  (97) 
autodockgpu

>  <m_score__min__energy>  (97) 
-9.5500000000000007

>  <m_primary>  (97) 
energy

>  <rmsd>  (97) 
6.242113110229941

>  <m_score__min__rmsd>  (97) 
6.242113110229941

>  <meeko>  (97) 
{"free_energy": -9.55, "intermolecular_energy": -11.05, "internal_energy": -0.99, "cluster_size": 45, "cluster_id": 1, "rank_in_cluster": 2}

>  <energy>  (97) 
-8.55

>  <cluster_rmsd>  (97) 
0.0

>  <cluster>  (97) 
3

$$$$

     RDKit          3D

 68 73  0  0  1  0  0  0  0  0999 V2000
  146.2850   73.7530  220.9800 C   0  0  0  0  0  0  0  0  0  0  0  0
  145.9010   72.5490  220.1240 C   0  0  0  0  0  0  0  0  0  0  0  0
  145.5950   73.0160  218.7870 N   0  0  0  0  0  0  0  0  0  0  0  0
  144.1850   72.9660  218.4690 C   0  0  1  0  0  0  0  0  0  0  0  0
  143.4570   72.5960  219.7220 C   0  0  0  0  0  0  0  0  0  0  0  0
  142.8160   73.7400  220.3070 N   0  0  0  0  0  0  0  0  0  0  0  0
  141.6530   73.5860  221.1450 C   0  0  0  0  0  0  0  0  0  0  0  0
  141.5050   72.5090  221.9500 N   0  0  0  0  0  0  0  0  0  0  0  0
  140.4170   72.3930  222.7160 C   0  0  0  0  0  0  0  0  0  0  0  0
  140.1770   71.2940  223.5930 N   0  0  0  0  0  0  0  0  0  0  0  0
  139.5500   70.0760  223.1330 C   0  0  0  0  0  0  0  0  0  0  0  0
  138.4990   69.7070  224.1830 C   0  0  0  0  0  0  0  0  0  0  0  0
  139.3080   69.3140  225.3910 C   0  0  0  0  0  0  0  0  0  0  0  0
  139.0400   68.1570  226.0890 C   0  0  0  0  0  0  0  0  0  0  0  0
  139.7910   67.8160  227.1890 C   0  0  0  0  0  0  0  0  0  0  0  0
  140.8150   68.6720  227.5670 C   0  0  0  0  0  0  0  0  0  0  0  0
  141.0770   69.8390  226.8550 C   0  0  0  0  0  0  0  0  0  0  0  0
  140.3190   70.1910  225.7370 C   0  0  0  0  0  0  0  0  0  0  0  0
  140.5780   71.4180  224.9710 C   0  0  0  0  0  0  0  0  0  0  0  0
  139.4770   73.3760  222.6620 N   0  0  0  0  0  0  0  0  0  0  0  0
  139.6030   74.4440  221.8780 C   0  0  0  0  0  0  0  0  0  0  0  0
  138.6260   75.4890  221.8050 N   0  0  0  0  0  0  0  0  0  0  0  0
  137.2330   75.1910  221.5500 C   0  0  0  0  0  0  0  0  0  0  0  0
  136.3620   75.6470  222.7220 C   0  0  0  0  0  0  0  0  0  0  0  0
  136.6990   77.0790  222.9280 C   0  0  0  0  0  0  0  0  0  0  0  0
  135.7270   77.8780  223.4850 C   0  0  0  0  0  0  0  0  0  0  0  0
  135.9430   79.2190  223.7150 C   0  0  0  0  0  0  0  0  0  0  0  0
  137.1690   79.7970  223.3830 C   0  0  0  0  0  0  0  0  0  0  0  0
  138.1410   78.9890  222.8250 C   0  0  0  0  0  0  0  0  0  0  0  0
  137.9150   77.6310  222.5940 C   0  0  0  0  0  0  0  0  0  0  0  0
  139.0340   76.8670  221.9890 C   0  0  0  0  0  0  0  0  0  0  0  0
  140.7090   74.5340  221.1170 N   0  0  0  0  0  0  0  0  0  0  0  0
  143.3650   75.0470  220.0340 C   0  0  0  0  0  0  0  0  0  0  0  0
  143.6980   75.2390  218.5740 C   0  0  0  0  0  0  0  0  0  0  0  0
  143.7180   74.0850  217.8460 O   0  0  0  0  0  0  0  0  0  0  0  0
  146.2005   73.4881  222.0443 H   0  0  0  0  0  0  0  0  0  0  0  0
  147.3213   74.0464  220.7563 H   0  0  0  0  0  0  0  0  0  0  0  0
  145.6099   74.5922  220.7563 H   0  0  0  0  0  0  0  0  0  0  0  0
  146.7393   71.8379  220.0861 H   0  0  0  0  0  0  0  0  0  0  0  0
  145.0257   72.0422  220.5564 H   0  0  0  0  0  0  0  0  0  0  0  0
  146.0410   73.9050  218.5520 H   0  0  0  0  0  0  0  0  0  0  0  0
  144.0003   72.1946  217.7069 H   0  0  0  0  0  0  0  0  0  0  0  0
  142.6943   71.8400  219.4839 H   0  0  0  0  0  0  0  0  0  0  0  0
  144.1856   72.1979  220.4436 H   0  0  0  0  0  0  0  0  0  0  0  0
  139.0708   70.2402  222.1566 H   0  0  0  0  0  0  0  0  0  0  0  0
  140.2884   69.2703  223.0079 H   0  0  0  0  0  0  0  0  0  0  0  0
  137.8535   70.5686  224.4089 H   0  0  0  0  0  0  0  0  0  0  0  0
  137.8284   68.9034  223.8446 H   0  0  0  0  0  0  0  0  0  0  0  0
  138.2190   67.5011  225.7639 H   0  0  0  0  0  0  0  0  0  0  0  0
  139.5862   66.8933  227.7517 H   0  0  0  0  0  0  0  0  0  0  0  0
  141.4305   68.4243  228.4444 H   0  0  0  0  0  0  0  0  0  0  0  0
  141.8970   70.4964  227.1796 H   0  0  0  0  0  0  0  0  0  0  0  0
  140.0185   72.2466  225.4296 H   0  0  0  0  0  0  0  0  0  0  0  0
  141.6615   71.6067  224.9917 H   0  0  0  0  0  0  0  0  0  0  0  0
  136.9127   75.7137  220.6367 H   0  0  0  0  0  0  0  0  0  0  0  0
  137.1197   74.1039  221.4257 H   0  0  0  0  0  0  0  0  0  0  0  0
  135.2958   75.5337  222.4764 H   0  0  0  0  0  0  0  0  0  0  0  0
  136.5460   75.0485  223.6264 H   0  0  0  0  0  0  0  0  0  0  0  0
  134.7559   77.4361  223.7526 H   0  0  0  0  0  0  0  0  0  0  0  0
  135.1481   79.8349  224.1609 H   0  0  0  0  0  0  0  0  0  0  0  0
  137.3564   80.8663  223.5606 H   0  0  0  0  0  0  0  0  0  0  0  0
  139.1145   79.4255  222.5569 H   0  0  0  0  0  0  0  0  0  0  0  0
  139.2952   77.3065  221.0150 H   0  0  0  0  0  0  0  0  0  0  0  0
  139.9102   76.9073  222.6528 H   0  0  0  0  0  0  0  0  0  0  0  0
  142.6288   75.8083  220.3313 H   0  0  0  0  0  0  0  0  0  0  0  0
  144.2994   75.1440  220.6062 H   0  0  0  0  0  0  0  0  0  0  0  0
  142.9457   75.9105  218.1345 H   0  0  0  0  0  0  0  0  0  0  0  0
  144.7161   75.6536  218.5351 H   0  0  0  0  0  0  0  0  0  0  0  0
  1  2  1  0
  2  3  1  0
  3  4  1  0
  4  5  1  0
  5  6  1  0
  6  7  1  0
  7  8  2  0
  8  9  1  0
  9 10  1  0
 10 11  1  0
 11 12  1  0
 12 13  1  0
 13 14  2  0
 14 15  1  0
 15 16  2  0
 16 17  1  0
 17 18  2  0
 18 19  1  0
  9 20  2  0
 20 21  1  0
 21 22  1  0
 22 23  1  0
 23 24  1  0
 24 25  1  0
 25 26  2  0
 26 27  1  0
 27 28  2  0
 28 29  1  0
 29 30  2  0
 30 31  1  0
 21 32  2  0
  6 33  1  0
 33 34  1  0
 34 35  1  0
 35  4  1  0
 32  7  1  0
 19 10  1  0
 31 22  1  0
 18 13  1  0
 30 25  1  0
  1 36  1  0
  1 37  1  0
  1 38  1  0
  2 39  1  0
  2 40  1  0
  3 41  1  0
  4 42  1  6
  5 43  1  0
  5 44  1  0
 11 45  1  0
 11 46  1  0
 12 47  1  0
 12 48  1  0
 14 49  1  0
 15 50  1  0
 16 51  1  0
 17 52  1  0
 19 53  1  0
 19 54  1  0
 23 55  1  0
 23 56  1  0
 24 57  1  0
 24 58  1  0
 26 59  1  0
 27 60  1  0
 28 61  1  0
 29 62  1  0
 31 63  1  0
 31 64  1  0
 33 65  1  0
 33 66  1  0
 34 67  1  0
 34 68  1  0
M  END
>  <smiles>  (98) 
CCNC1CN(c2nc(N3CCc4ccccc4C3)nc(N3CCc4ccccc4C3)n2)CCO1

>  <score_type>  (98) 
oracle

>  <origin>  (98) 
autodockgpu

>  <m_score__min__energy>  (98) 
-9.5500000000000007

>  <m_primary>  (98) 
energy

>  <rmsd>  (98) 
6.154478715585306

>  <m_score__min__rmsd>  (98) 
6.154478715585306

>  <meeko>  (98) 
{"free_energy": -9.38, "intermolecular_energy": -10.87, "internal_energy": -1.05, "cluster_size": 45, "cluster_id": 1, "rank_in_cluster": 9}

>  <energy>  (98) 
-8.53

>  <cluster_rmsd>  (98) 
0.35

>  <cluster>  (98) 
3

$$$$

     RDKit          3D

 68 73  0  0  1  0  0  0  0  0999 V2000
  146.9920   74.0960  216.1540 C   0  0  0  0  0  0  0  0  0  0  0  0
  145.6040   73.6150  215.7400 C   0  0  0  0  0  0  0  0  0  0  0  0
  145.0740   72.7800  216.8000 N   0  0  0  0  0  0  0  0  0  0  0  0
  145.1510   73.3930  218.1080 C   0  0  1  0  0  0  0  0  0  0  0  0
  143.7480   73.6060  218.5850 C   0  0  0  0  0  0  0  0  0  0  0  0
  143.3820   72.6280  219.5700 N   0  0  0  0  0  0  0  0  0  0  0  0
  142.3650   72.9160  220.5510 C   0  0  0  0  0  0  0  0  0  0  0  0
  141.9450   71.9720  221.4250 N   0  0  0  0  0  0  0  0  0  0  0  0
  141.0030   72.2660  222.3240 C   0  0  0  0  0  0  0  0  0  0  0  0
  140.5000   71.3360  223.2810 N   0  0  0  0  0  0  0  0  0  0  0  0
  139.5670   70.2950  222.9140 C   0  0  0  0  0  0  0  0  0  0  0  0
  138.4760   70.2940  223.9880 C   0  0  0  0  0  0  0  0  0  0  0  0
  139.1770   69.7910  225.2230 C   0  0  0  0  0  0  0  0  0  0  0  0
  138.6280   68.7980  226.0050 C   0  0  0  0  0  0  0  0  0  0  0  0
  139.2840   68.3530  227.1280 C   0  0  0  0  0  0  0  0  0  0  0  0
  140.5050   68.9350  227.4420 C   0  0  0  0  0  0  0  0  0  0  0  0
  141.0490   69.9370  226.6440 C   0  0  0  0  0  0  0  0  0  0  0  0
  140.3890   70.3930  225.5030 C   0  0  0  0  0  0  0  0  0  0  0  0
  140.9450   71.4500  224.6460 C   0  0  0  0  0  0  0  0  0  0  0  0
  140.4850   73.5260  222.3330 N   0  0  0  0  0  0  0  0  0  0  0  0
  140.8840   74.4690  221.4840 C   0  0  0  0  0  0  0  0  0  0  0  0
  140.3530   75.7990  221.4760 N   0  0  0  0  0  0  0  0  0  0  0  0
  138.9250   76.0320  221.4470 C   0  0  0  0  0  0  0  0  0  0  0  0
  138.4790   76.7950  222.6960 C   0  0  0  0  0  0  0  0  0  0  0  0
  139.3390   78.0050  222.7450 C   0  0  0  0  0  0  0  0  0  0  0  0
  138.8250   79.1140  223.3760 C   0  0  0  0  0  0  0  0  0  0  0  0
  139.5450   80.2850  223.4730 C   0  0  0  0  0  0  0  0  0  0  0  0
  140.8270   80.3650  222.9260 C   0  0  0  0  0  0  0  0  0  0  0  0
  141.3360   79.2470  222.2940 C   0  0  0  0  0  0  0  0  0  0  0  0
  140.6020   78.0650  222.1990 C   0  0  0  0  0  0  0  0  0  0  0  0
  141.2550   76.9330  221.4970 C   0  0  0  0  0  0  0  0  0  0  0  0
  141.8360   74.1440  220.5890 N   0  0  0  0  0  0  0  0  0  0  0  0
  144.0560   71.3530  219.5530 C   0  0  0  0  0  0  0  0  0  0  0  0
  145.5510   71.4930  219.3890 C   0  0  0  0  0  0  0  0  0  0  0  0
  145.9570   72.7300  218.9840 O   0  0  0  0  0  0  0  0  0  0  0  0
  147.0596   74.1194  217.2517 H   0  0  0  0  0  0  0  0  0  0  0  0
  147.7525   73.4090  215.7544 H   0  0  0  0  0  0  0  0  0  0  0  0
  147.1643   75.1063  215.7544 H   0  0  0  0  0  0  0  0  0  0  0  0
  144.9428   74.4799  215.5826 H   0  0  0  0  0  0  0  0  0  0  0  0
  145.6664   73.0421  214.8030 H   0  0  0  0  0  0  0  0  0  0  0  0
  144.1590   72.3780  216.5850 H   0  0  0  0  0  0  0  0  0  0  0  0
  145.6568   74.3671  218.0353 H   0  0  0  0  0  0  0  0  0  0  0  0
  143.6679   74.6095  219.0283 H   0  0  0  0  0  0  0  0  0  0  0  0
  143.0684   73.5071  217.7257 H   0  0  0  0  0  0  0  0  0  0  0  0
  139.1293   70.5069  221.9273 H   0  0  0  0  0  0  0  0  0  0  0  0
  140.0657   69.3165  222.8513 H   0  0  0  0  0  0  0  0  0  0  0  0
  138.0841   71.3094  224.1476 H   0  0  0  0  0  0  0  0  0  0  0  0
  137.6112   69.6732  223.7109 H   0  0  0  0  0  0  0  0  0  0  0  0
  137.6582   68.3585  225.7287 H   0  0  0  0  0  0  0  0  0  0  0  0
  138.8549   67.5603  227.7585 H   0  0  0  0  0  0  0  0  0  0  0  0
  141.0510   68.5987  228.3358 H   0  0  0  0  0  0  0  0  0  0  0  0
  142.0186   70.3781  226.9185 H   0  0  0  0  0  0  0  0  0  0  0  0
  140.6304   72.4275  225.0404 H   0  0  0  0  0  0  0  0  0  0  0  0
  142.0403   71.3482  224.6530 H   0  0  0  0  0  0  0  0  0  0  0  0
  138.6729   76.6221  220.5535 H   0  0  0  0  0  0  0  0  0  0  0  0
  138.4076   75.0617  221.4203 H   0  0  0  0  0  0  0  0  0  0  0  0
  137.4192   77.0787  222.6161 H   0  0  0  0  0  0  0  0  0  0  0  0
  138.5778   76.1849  223.6060 H   0  0  0  0  0  0  0  0  0  0  0  0
  137.8167   79.0650  223.8129 H   0  0  0  0  0  0  0  0  0  0  0  0
  139.1093   81.1575  223.9819 H   0  0  0  0  0  0  0  0  0  0  0  0
  141.4151   81.2919  222.9962 H   0  0  0  0  0  0  0  0  0  0  0  0
  142.3439   79.2901  221.8554 H   0  0  0  0  0  0  0  0  0  0  0  0
  141.4962   77.2300  220.4657 H   0  0  0  0  0  0  0  0  0  0  0  0
  142.1812   76.6579  222.0228 H   0  0  0  0  0  0  0  0  0  0  0  0
  143.8519   70.8331  220.5006 H   0  0  0  0  0  0  0  0  0  0  0  0
  143.6762   70.7849  218.6910 H   0  0  0  0  0  0  0  0  0  0  0  0
  146.0258   71.2741  220.3568 H   0  0  0  0  0  0  0  0  0  0  0  0
  145.8488   70.7888  218.5982 H   0  0  0  0  0  0  0  0  0  0  0  0
  1  2  1  0
  2  3  1  0
  3  4  1  0
  4  5  1  0
  5  6  1  0
  6  7  1  0
  7  8  2  0
  8  9  1  0
  9 10  1  0
 10 11  1  0
 11 12  1  0
 12 13  1  0
 13 14  2  0
 14 15  1  0
 15 16  2  0
 16 17  1  0
 17 18  2  0
 18 19  1  0
  9 20  2  0
 20 21  1  0
 21 22  1  0
 22 23  1  0
 23 24  1  0
 24 25  1  0
 25 26  2  0
 26 27  1  0
 27 28  2  0
 28 29  1  0
 29 30  2  0
 30 31  1  0
 21 32  2  0
  6 33  1  0
 33 34  1  0
 34 35  1  0
 35  4  1  0
 32  7  1  0
 19 10  1  0
 31 22  1  0
 18 13  1  0
 30 25  1  0
  1 36  1  0
  1 37  1  0
  1 38  1  0
  2 39  1  0
  2 40  1  0
  3 41  1  0
  4 42  1  6
  5 43  1  0
  5 44  1  0
 11 45  1  0
 11 46  1  0
 12 47  1  0
 12 48  1  0
 14 49  1  0
 15 50  1  0
 16 51  1  0
 17 52  1  0
 19 53  1  0
 19 54  1  0
 23 55  1  0
 23 56  1  0
 24 57  1  0
 24 58  1  0
 26 59  1  0
 27 60  1  0
 28 61  1  0
 29 62  1  0
 31 63  1  0
 31 64  1  0
 33 65  1  0
 33 66  1  0
 34 67  1  0
 34 68  1  0
M  END
>  <smiles>  (99) 
CCNC1CN(c2nc(N3CCc4ccccc4C3)nc(N3CCc4ccccc4C3)n2)CCO1

>  <score_type>  (99) 
oracle

>  <origin>  (99) 
autodockgpu

>  <m_score__min__energy>  (99) 
-9.5500000000000007

>  <m_primary>  (99) 
energy

>  <rmsd>  (99) 
7.694976151999112

>  <m_score__min__rmsd>  (99) 
7.694976151999112

>  <meeko>  (99) 
{"free_energy": -9.03, "intermolecular_energy": -10.52, "internal_energy": -1.0, "cluster_size": 45, "cluster_id": 1, "rank_in_cluster": 36}

>  <energy>  (99) 
-8.49

>  <cluster_rmsd>  (99) 
0.46

>  <cluster>  (99) 
3

$$$$

     RDKit          3D

 68 73  0  0  1  0  0  0  0  0999 V2000
  146.4290   74.5110  215.9790 C   0  0  0  0  0  0  0  0  0  0  0  0
  146.1120   73.0210  215.8820 C   0  0  0  0  0  0  0  0  0  0  0  0
  144.9930   72.7330  216.7560 N   0  0  0  0  0  0  0  0  0  0  0  0
  145.0610   73.4250  218.0250 C   0  0  1  0  0  0  0  0  0  0  0  0
  143.6590   73.5880  218.5210 C   0  0  0  0  0  0  0  0  0  0  0  0
  143.3670   72.6510  219.5680 N   0  0  0  0  0  0  0  0  0  0  0  0
  142.3550   72.9390  220.5550 C   0  0  0  0  0  0  0  0  0  0  0  0
  141.9440   71.9980  221.4350 N   0  0  0  0  0  0  0  0  0  0  0  0
  141.0060   72.2920  222.3380 C   0  0  0  0  0  0  0  0  0  0  0  0
  140.5130   71.3650  223.3030 N   0  0  0  0  0  0  0  0  0  0  0  0
  139.5970   70.3070  222.9430 C   0  0  0  0  0  0  0  0  0  0  0  0
  138.5010   70.3000  224.0120 C   0  0  0  0  0  0  0  0  0  0  0  0
  139.2030   69.8210  225.2550 C   0  0  0  0  0  0  0  0  0  0  0  0
  138.6660   68.8280  226.0450 C   0  0  0  0  0  0  0  0  0  0  0  0
  139.3230   68.4050  227.1760 C   0  0  0  0  0  0  0  0  0  0  0  0
  140.5330   69.0090  227.4890 C   0  0  0  0  0  0  0  0  0  0  0  0
  141.0660   70.0100  226.6830 C   0  0  0  0  0  0  0  0  0  0  0  0
  140.4050   70.4440  225.5340 C   0  0  0  0  0  0  0  0  0  0  0  0
  140.9500   71.5000  224.6690 C   0  0  0  0  0  0  0  0  0  0  0  0
  140.4840   73.5500  222.3460 N   0  0  0  0  0  0  0  0  0  0  0  0
  140.8740   74.4910  221.4890 C   0  0  0  0  0  0  0  0  0  0  0  0
  140.3390   75.8190  221.4790 N   0  0  0  0  0  0  0  0  0  0  0  0
  138.9100   76.0470  221.4410 C   0  0  0  0  0  0  0  0  0  0  0  0
  138.4530   76.8070  222.6870 C   0  0  0  0  0  0  0  0  0  0  0  0
  139.3090   78.0210  222.7420 C   0  0  0  0  0  0  0  0  0  0  0  0
  138.7860   79.1280  223.3700 C   0  0  0  0  0  0  0  0  0  0  0  0
  139.5010   80.3010  223.4720 C   0  0  0  0  0  0  0  0  0  0  0  0
  140.7860   80.3860  222.9330 C   0  0  0  0  0  0  0  0  0  0  0  0
  141.3040   79.2710  222.3050 C   0  0  0  0  0  0  0  0  0  0  0  0
  140.5740   78.0860  222.2040 C   0  0  0  0  0  0  0  0  0  0  0  0
  141.2370   76.9570  221.5060 C   0  0  0  0  0  0  0  0  0  0  0  0
  141.8220   74.1650  220.5900 N   0  0  0  0  0  0  0  0  0  0  0  0
  144.1110   71.4150  219.6100 C   0  0  0  0  0  0  0  0  0  0  0  0
  145.5920   71.6270  219.4030 C   0  0  0  0  0  0  0  0  0  0  0  0
  145.9210   72.8600  218.9180 O   0  0  0  0  0  0  0  0  0  0  0  0
  146.4914   74.8045  217.0373 H   0  0  0  0  0  0  0  0  0  0  0  0
  147.3905   74.7142  215.4848 H   0  0  0  0  0  0  0  0  0  0  0  0
  145.6335   75.0880  215.4848 H   0  0  0  0  0  0  0  0  0  0  0  0
  145.8492   72.7639  214.8452 H   0  0  0  0  0  0  0  0  0  0  0  0
  146.9884   72.4281  216.1827 H   0  0  0  0  0  0  0  0  0  0  0  0
  144.0840   72.8040  216.2950 H   0  0  0  0  0  0  0  0  0  0  0  0
  145.5089   74.4199  217.8854 H   0  0  0  0  0  0  0  0  0  0  0  0
  143.5318   74.6098  218.9081 H   0  0  0  0  0  0  0  0  0  0  0  0
  142.9695   73.4017  217.6844 H   0  0  0  0  0  0  0  0  0  0  0  0
  139.1606   70.5026  221.9524 H   0  0  0  0  0  0  0  0  0  0  0  0
  140.1106   69.3355  222.8928 H   0  0  0  0  0  0  0  0  0  0  0  0
  138.0927   71.3107  224.1591 H   0  0  0  0  0  0  0  0  0  0  0  0
  137.6475   69.6628  223.7372 H   0  0  0  0  0  0  0  0  0  0  0  0
  137.7046   68.3704  225.7687 H   0  0  0  0  0  0  0  0  0  0  0  0
  138.9030   67.6127  227.8130 H   0  0  0  0  0  0  0  0  0  0  0  0
  141.0795   68.6910  228.3891 H   0  0  0  0  0  0  0  0  0  0  0  0
  142.0277   70.4682  226.9573 H   0  0  0  0  0  0  0  0  0  0  0  0
  140.6194   72.4769  225.0516 H   0  0  0  0  0  0  0  0  0  0  0  0
  142.0466   71.4146  224.6824 H   0  0  0  0  0  0  0  0  0  0  0  0
  138.6617   76.6369  220.5464 H   0  0  0  0  0  0  0  0  0  0  0  0
  138.3964   75.0748  221.4103 H   0  0  0  0  0  0  0  0  0  0  0  0
  137.3927   77.0868  222.6004 H   0  0  0  0  0  0  0  0  0  0  0  0
  138.5478   76.1968  223.5973 H   0  0  0  0  0  0  0  0  0  0  0  0
  137.7749   79.0751  223.7999 H   0  0  0  0  0  0  0  0  0  0  0  0
  139.0590   81.1716  223.9787 H   0  0  0  0  0  0  0  0  0  0  0  0
  141.3695   81.3155  223.0066 H   0  0  0  0  0  0  0  0  0  0  0  0
  142.3152   79.3178  221.8744 H   0  0  0  0  0  0  0  0  0  0  0  0
  141.4839   77.2552  220.4764 H   0  0  0  0  0  0  0  0  0  0  0  0
  142.1611   76.6857  222.0375 H   0  0  0  0  0  0  0  0  0  0  0  0
  143.9555   70.9423  220.5910 H   0  0  0  0  0  0  0  0  0  0  0  0
  143.7462   70.7760  218.7923 H   0  0  0  0  0  0  0  0  0  0  0  0
  146.0979   71.4911  220.3703 H   0  0  0  0  0  0  0  0  0  0  0  0
  145.9120   70.8954  218.6464 H   0  0  0  0  0  0  0  0  0  0  0  0
  1  2  1  0
  2  3  1  0
  3  4  1  0
  4  5  1  0
  5  6  1  0
  6  7  1  0
  7  8  2  0
  8  9  1  0
  9 10  1  0
 10 11  1  0
 11 12  1  0
 12 13  1  0
 13 14  2  0
 14 15  1  0
 15 16  2  0
 16 17  1  0
 17 18  2  0
 18 19  1  0
  9 20  2  0
 20 21  1  0
 21 22  1  0
 22 23  1  0
 23 24  1  0
 24 25  1  0
 25 26  2  0
 26 27  1  0
 27 28  2  0
 28 29  1  0
 29 30  2  0
 30 31  1  0
 21 32  2  0
  6 33  1  0
 33 34  1  0
 34 35  1  0
 35  4  1  0
 32  7  1  0
 19 10  1  0
 31 22  1  0
 18 13  1  0
 30 25  1  0
  1 36  1  0
  1 37  1  0
  1 38  1  0
  2 39  1  0
  2 40  1  0
  3 41  1  0
  4 42  1  6
  5 43  1  0
  5 44  1  0
 11 45  1  0
 11 46  1  0
 12 47  1  0
 12 48  1  0
 14 49  1  0
 15 50  1  0
 16 51  1  0
 17 52  1  0
 19 53  1  0
 19 54  1  0
 23 55  1  0
 23 56  1  0
 24 57  1  0
 24 58  1  0
 26 59  1  0
 27 60  1  0
 28 61  1  0
 29 62  1  0
 31 63  1  0
 31 64  1  0
 33 65  1  0
 33 66  1  0
 34 67  1  0
 34 68  1  0
M  END
>  <smiles>  (100) 
CCNC1CN(c2nc(N3CCc4ccccc4C3)nc(N3CCc4ccccc4C3)n2)CCO1

>  <score_type>  (100) 
oracle

>  <origin>  (100) 
autodockgpu

>  <m_score__min__energy>  (100) 
-9.5500000000000007

>  <m_primary>  (100) 
energy

>  <rmsd>  (100) 
7.729086765735125

>  <m_score__min__rmsd>  (100) 
7.729086765735125

>  <meeko>  (100) 
{"free_energy": -8.96, "intermolecular_energy": -10.46, "internal_energy": -1.0, "cluster_size": 45, "cluster_id": 1, "rank_in_cluster": 39}

>  <energy>  (100) 
-8.54

>  <cluster_rmsd>  (100) 
0.0

>  <cluster>  (100) 
4

$$$$
