
 72 77  0  0  0  0  0  0  0  0999 V2000
  137.3170   72.6590  219.7900 C   0  0  0  0  0  0  0  0  0  0  0  0
  138.0230   72.7000  221.0680 N   0  0  0  0  0  0  0  0  0  0  0  0
  137.4500   71.8860  222.1330 C   0  0  0  0  0  0  0  0  0  0  0  0
  138.4990   71.8350  223.2200 C   0  0  0  0  0  0  0  0  0  0  0  0
  139.6620   71.0740  222.8940 N   0  0  0  0  0  0  0  0  0  0  0  0
  139.3770   69.6730  223.1440 C   0  0  0  0  0  0  0  0  0  0  0  0
  138.9250   69.3950  224.5550 C   0  0  0  0  0  0  0  0  0  0  0  0
  139.6950   70.1800  225.5520 C   0  0  0  0  0  0  0  0  0  0  0  0
  139.4940   69.8910  226.8920 C   0  0  0  0  0  0  0  0  0  0  0  0
  140.2070   70.6260  227.8370 C   0  0  0  0  0  0  0  0  0  0  0  0
  141.0860   71.6080  227.4810 C   0  0  0  0  0  0  0  0  0  0  0  0
  141.2720   71.8830  226.1210 C   0  0  0  0  0  0  0  0  0  0  0  0
  140.5850   71.1770  225.1490 C   0  0  0  0  0  0  0  0  0  0  0  0
  140.7930   71.4760  223.7110 C   0  0  0  0  0  0  0  0  0  0  0  0
  139.1950   73.4740  221.2700 C   0  0  0  0  0  0  0  0  0  0  0  0
  140.4340   73.0520  220.9840 N   0  0  0  0  0  0  0  0  0  0  0  0
  141.5240   73.8300  221.1880 C   0  0  0  0  0  0  0  0  0  0  0  0
  142.8060   73.3350  220.8610 N   0  0  0  0  0  0  0  0  0  0  0  0
  143.0070   71.8750  220.8510 C   0  0  0  0  0  0  0  0  0  0  0  0
  143.4920   71.5860  219.4500 C   0  0  0  0  0  0  0  0  0  0  0  0
  144.7730   72.1700  219.2500 N   0  0  0  0  0  0  0  0  0  0  0  0
  145.1100   73.3000  220.0390 C   0  0  0  0  0  0  0  0  0  0  0  0
  143.9510   74.1330  220.5290 C   0  0  0  0  0  0  0  0  0  0  0  0
  141.3040   75.0510  221.6930 N   0  0  0  0  0  0  0  0  0  0  0  0
  140.0860   75.5340  222.0010 C   0  0  0  0  0  0  0  0  0  0  0  0
  139.9570   76.8550  222.5330 N   0  0  0  0  0  0  0  0  0  0  0  0
  138.6580   77.4620  222.4700 C   0  0  0  0  0  0  0  0  0  0  0  0
  138.5930   78.8580  222.9840 C   0  0  0  0  0  0  0  0  0  0  0  0
  139.8410   79.6420  222.7990 C   0  0  0  0  0  0  0  0  0  0  0  0
  139.8440   80.9980  222.5750 C   0  0  0  0  0  0  0  0  0  0  0  0
  141.0010   81.7380  222.4010 C   0  0  0  0  0  0  0  0  0  0  0  0
  142.2040   81.0290  222.4630 C   0  0  0  0  0  0  0  0  0  0  0  0
  142.2050   79.6670  222.6880 C   0  0  0  0  0  0  0  0  0  0  0  0
  141.0290   78.9410  222.8610 C   0  0  0  0  0  0  0  0  0  0  0  0
  141.1300   77.4980  223.0960 C   0  0  0  0  0  0  0  0  0  0  0  0
  139.0250   74.7300  221.7830 N   0  0  0  0  0  0  0  0  0  0  0  0
  136.2339   72.5961  219.9713 H   0  0  0  0  0  0  0  0  0  0  0  0
  137.5406   73.5716  219.2181 H   0  0  0  0  0  0  0  0  0  0  0  0
  137.6448   71.7784  219.2181 H   0  0  0  0  0  0  0  0  0  0  0  0
  136.5263   72.3469  222.5130 H   0  0  0  0  0  0  0  0  0  0  0  0
  137.1861   70.8793  221.7766 H   0  0  0  0  0  0  0  0  0  0  0  0
  138.8148   72.8656  223.4395 H   0  0  0  0  0  0  0  0  0  0  0  0
  138.0307   71.3324  224.0791 H   0  0  0  0  0  0  0  0  0  0  0  0
  138.5834   69.3504  222.4540 H   0  0  0  0  0  0  0  0  0  0  0  0
  140.3145   69.1189  222.9889 H   0  0  0  0  0  0  0  0  0  0  0  0
  137.8600   69.6554  224.6442 H   0  0  0  0  0  0  0  0  0  0  0  0
  139.0931   68.3276  224.7608 H   0  0  0  0  0  0  0  0  0  0  0  0
  138.7912   69.1033  227.2012 H   0  0  0  0  0  0  0  0  0  0  0  0
  140.0567   70.4079  228.9046 H   0  0  0  0  0  0  0  0  0  0  0  0
  141.6373   72.1721  228.2477 H   0  0  0  0  0  0  0  0  0  0  0  0
  141.9757   72.6731  225.8201 H   0  0  0  0  0  0  0  0  0  0  0  0
  140.9466   72.5589  223.5937 H   0  0  0  0  0  0  0  0  0  0  0  0
  141.6710   70.9060  223.3730 H   0  0  0  0  0  0  0  0  0  0  0  0
  143.7607   71.5784  221.5953 H   0  0  0  0  0  0  0  0  0  0  0  0
  142.0933   71.3187  221.1074 H   0  0  0  0  0  0  0  0  0  0  0  0
  143.5609   70.4977  219.3053 H   0  0  0  0  0  0  0  0  0  0  0  0
  142.7826   72.0137  218.7263 H   0  0  0  0  0  0  0  0  0  0  0  0
  145.5240   71.4360  219.3410 H   0  0  0  0  0  0  0  0  0  0  0  0
  145.6639   72.9427  220.9196 H   0  0  0  0  0  0  0  0  0  0  0  0
  145.6920   73.9601  219.3790 H   0  0  0  0  0  0  0  0  0  0  0  0
  144.2678   74.6865  221.4253 H   0  0  0  0  0  0  0  0  0  0  0  0
  143.6605   74.8147  219.7161 H   0  0  0  0  0  0  0  0  0  0  0  0
  138.3350   77.4696  221.4185 H   0  0  0  0  0  0  0  0  0  0  0  0
  138.0053   76.8625  223.1216 H   0  0  0  0  0  0  0  0  0  0  0  0
  137.7789   79.3795  222.4594 H   0  0  0  0  0  0  0  0  0  0  0  0
  138.4283   78.7842  224.0691 H   0  0  0  0  0  0  0  0  0  0  0  0
  138.8778   81.5220  222.5318 H   0  0  0  0  0  0  0  0  0  0  0  0
  140.9751   82.8233  222.2239 H   0  0  0  0  0  0  0  0  0  0  0  0
  143.1579   81.5608  222.3314 H   0  0  0  0  0  0  0  0  0  0  0  0
  143.1678   79.1368  222.7322 H   0  0  0  0  0  0  0  0  0  0  0  0
  142.0363   77.1059  222.6113 H   0  0  0  0  0  0  0  0  0  0  0  0
  141.1881   77.2958  224.1757 H   0  0  0  0  0  0  0  0  0  0  0  0
  1  2  1  0
  2  3  1  0
  3  4  1  0
  4  5  1  0
  5  6  1  0
  6  7  1  0
  7  8  1  0
  8  9  2  0
  9 10  1  0
 10 11  2  0
 11 12  1  0
 12 13  2  0
 13 14  1  0
  2 15  1  0
 15 16  2  0
 16 17  1  0
 17 18  1  0
 18 19  1  0
 19 20  1  0
 20 21  1  0
 21 22  1  0
 22 23  1  0
 17 24  2  0
 24 25  1  0
 25 26  1  0
 26 27  1  0
 27 28  1  0
 28 29  1  0
 29 30  2  0
 30 31  1  0
 31 32  2  0
 32 33  1  0
 33 34  2  0
 34 35  1  0
 25 36  2  0
 14  5  1  0
 36 15  1  0
 13  8  1  0
 23 18  1  0
 35 26  1  0
 34 29  1  0
  1 37  1  0
  1 38  1  0
  1 39  1  0
  3 40  1  0
  3 41  1  0
  4 42  1  0
  4 43  1  0
  6 44  1  0
  6 45  1  0
  7 46  1  0
  7 47  1  0
  9 48  1  0
 10 49  1  0
 11 50  1  0
 12 51  1  0
 14 52  1  0
 14 53  1  0
 19 54  1  0
 19 55  1  0
 20 56  1  0
 20 57  1  0
 21 58  1  0
 22 59  1  0
 22 60  1  0
 23 61  1  0
 23 62  1  0
 27 63  1  0
 27 64  1  0
 28 65  1  0
 28 66  1  0
 30 67  1  0
 31 68  1  0
 32 69  1  0
 33 70  1  0
 35 71  1  0
 35 72  1  0
M  END
