
     RDKit          3D

 67 71  0  0  0  0  0  0  0  0999 V2000
  139.7450   79.2790  219.6780 O   0  0  0  0  0  0  0  0  0  0  0  0
  140.9360   79.6720  219.7650 C   0  0  0  0  0  0  0  0  0  0  0  0
  141.8310   78.8430  220.5150 N   0  0  0  0  0  0  0  0  0  0  0  0
  141.2960   77.6340  221.0980 C   0  0  0  0  0  0  0  0  0  0  0  0
  140.3470   77.9010  222.2110 C   0  0  0  0  0  0  0  0  0  0  0  0
  139.2930   77.2290  222.2240 O   0  0  0  0  0  0  0  0  0  0  0  0
  140.7030   78.8850  223.1610 N   0  0  0  0  0  0  0  0  0  0  0  0
  141.9650   78.7670  223.9390 C   0  0  0  0  0  0  0  0  0  0  0  0
  142.5160   80.2050  223.8830 C   0  0  0  0  0  0  0  0  0  0  0  0
  142.0590   80.9190  222.6160 C   0  0  0  0  0  0  0  0  0  0  0  0
  140.5550   81.1740  222.6100 C   0  0  0  0  0  0  0  0  0  0  0  0
  139.9430   80.0760  223.4590 C   0  0  1  0  0  0  0  0  0  0  0  0
  138.4930   79.9620  223.3980 C   0  0  0  0  0  0  0  0  0  0  0  0
  137.6840   80.2940  224.2970 O   0  0  0  0  0  0  0  0  0  0  0  0
  137.9210   79.4220  222.2050 N   0  0  0  0  0  0  0  0  0  0  0  0
  136.5090   79.2520  221.9830 C   0  0  0  0  0  0  0  0  0  0  0  0
  136.0330   78.1250  222.8170 C   0  0  0  0  0  0  0  0  0  0  0  0
  134.9590   78.4130  223.6690 C   0  0  0  0  0  0  0  0  0  0  0  0
  134.4200   77.4470  224.4930 C   0  0  0  0  0  0  0  0  0  0  0  0
  134.9430   76.1710  224.4820 C   0  0  0  0  0  0  0  0  0  0  0  0
  134.3370   75.1910  225.3750 C   0  0  0  0  0  0  0  0  0  0  0  0
  133.4560   75.6870  226.3260 C   0  0  0  0  0  0  0  0  0  0  0  0
  132.8230   74.8260  227.2290 C   0  0  0  0  0  0  0  0  0  0  0  0
  133.0930   73.5100  227.1510 N   0  0  0  0  0  0  0  0  0  0  0  0
  133.9510   73.0360  226.2240 C   0  0  0  0  0  0  0  0  0  0  0  0
  134.6000   73.8400  225.3120 C   0  0  0  0  0  0  0  0  0  0  0  0
  136.0000   75.8860  223.6430 C   0  0  0  0  0  0  0  0  0  0  0  0
  136.5550   76.8580  222.8030 C   0  0  0  0  0  0  0  0  0  0  0  0
  141.3660   80.9060  219.1360 C   0  0  0  0  0  0  0  0  0  0  0  0
  140.5860   82.0310  219.2850 C   0  0  0  0  0  0  0  0  0  0  0  0
  140.8980   83.2550  218.7330 C   0  0  0  0  0  0  0  0  0  0  0  0
  142.0450   83.3550  217.9970 C   0  0  0  0  0  0  0  0  0  0  0  0
  142.4080   84.5620  217.4180 C   0  0  0  0  0  0  0  0  0  0  0  0
  143.5630   84.6680  216.6750 C   0  0  0  0  0  0  0  0  0  0  0  0
  144.3540   83.5520  216.5160 C   0  0  0  0  0  0  0  0  0  0  0  0
  143.9830   82.3500  217.0980 C   0  0  0  0  0  0  0  0  0  0  0  0
  142.8340   82.2090  217.8490 C   0  0  0  0  0  0  0  0  0  0  0  0
  142.4870   81.0330  218.4080 N   0  0  0  0  0  0  0  0  0  0  0  0
  142.8230   79.1510  220.6030 H   0  0  0  0  0  0  0  0  0  0  0  0
  140.7689   77.0697  220.3146 H   0  0  0  0  0  0  0  0  0  0  0  0
  142.1409   77.0649  221.5131 H   0  0  0  0  0  0  0  0  0  0  0  0
  141.7673   78.4555  224.9753 H   0  0  0  0  0  0  0  0  0  0  0  0
  142.6596   78.0117  223.5428 H   0  0  0  0  0  0  0  0  0  0  0  0
  142.1547   80.7625  224.7597 H   0  0  0  0  0  0  0  0  0  0  0  0
  143.6150   80.1581  223.8805 H   0  0  0  0  0  0  0  0  0  0  0  0
  142.5824   81.8839  222.5445 H   0  0  0  0  0  0  0  0  0  0  0  0
  142.2955   80.2714  221.7589 H   0  0  0  0  0  0  0  0  0  0  0  0
  140.3326   82.1607  223.0424 H   0  0  0  0  0  0  0  0  0  0  0  0
  140.1487   81.1676  221.5878 H   0  0  0  0  0  0  0  0  0  0  0  0
  140.0307   80.3135  224.5295 H   0  0  0  0  0  0  0  0  0  0  0  0
  138.5620   79.1180  221.4150 H   0  0  0  0  0  0  0  0  0  0  0  0
  135.9760   80.1723  222.2642 H   0  0  0  0  0  0  0  0  0  0  0  0
  136.3180   79.0407  220.9205 H   0  0  0  0  0  0  0  0  0  0  0  0
  134.5374   79.4289  223.6812 H   0  0  0  0  0  0  0  0  0  0  0  0
  133.5772   77.6932  225.1556 H   0  0  0  0  0  0  0  0  0  0  0  0
  133.2535   76.7673  226.3701 H   0  0  0  0  0  0  0  0  0  0  0  0
  132.1228   75.2147  227.9831 H   0  0  0  0  0  0  0  0  0  0  0  0
  134.1422   71.9531  226.1946 H   0  0  0  0  0  0  0  0  0  0  0  0
  135.2953   73.4227  224.5687 H   0  0  0  0  0  0  0  0  0  0  0  0
  136.4175   74.8684  223.6339 H   0  0  0  0  0  0  0  0  0  0  0  0
  137.3977   76.6087  222.1413 H   0  0  0  0  0  0  0  0  0  0  0  0
  139.6628   81.9484  219.8773 H   0  0  0  0  0  0  0  0  0  0  0  0
  140.2426   84.1260  218.8807 H   0  0  0  0  0  0  0  0  0  0  0  0
  141.7660   85.4449  217.5538 H   0  0  0  0  0  0  0  0  0  0  0  0
  143.8483   85.6266  216.2170 H   0  0  0  0  0  0  0  0  0  0  0  0
  145.2808   83.6145  215.9268 H   0  0  0  0  0  0  0  0  0  0  0  0
  144.6310   81.4726  216.9554 H   0  0  0  0  0  0  0  0  0  0  0  0
  1  2  2  0
  2  3  1  0
  3  4  1  0
  4  5  1  0
  5  6  2  0
  5  7  1  0
  7  8  1  0
  8  9  1  0
  9 10  1  0
 10 11  1  0
 11 12  1  0
 12 13  1  0
 13 14  2  0
 13 15  1  0
 15 16  1  0
 16 17  1  0
 17 18  2  0
 18 19  1  0
 19 20  2  0
 20 21  1  0
 21 22  2  0
 22 23  1  0
 23 24  2  0
 24 25  1  0
 25 26  2  0
 20 27  1  0
 27 28  2  0
  2 29  1  0
 29 30  2  0
 30 31  1  0
 31 32  2  0
 32 33  1  0
 33 34  2  0
 34 35  1  0
 35 36  2  0
 36 37  1  0
 37 38  2  0
 12  7  1  0
 28 17  1  0
 38 29  1  0
 26 21  1  0
 37 32  1  0
  3 39  1  0
  4 40  1  0
  4 41  1  0
  8 42  1  0
  8 43  1  0
  9 44  1  0
  9 45  1  0
 10 46  1  0
 10 47  1  0
 11 48  1  0
 11 49  1  0
 12 50  1  1
 15 51  1  0
 16 52  1  0
 16 53  1  0
 18 54  1  0
 19 55  1  0
 22 56  1  0
 23 57  1  0
 25 58  1  0
 26 59  1  0
 27 60  1  0
 28 61  1  0
 30 62  1  0
 31 63  1  0
 33 64  1  0
 34 65  1  0
 35 66  1  0
 36 67  1  0
M  END
