@<TRIPOS>MOLECULE
*****
 67 71 0 0 0
SMALL
GASTEIGER

@<TRIPOS>ATOM
      1 O         139.7450   79.2790  219.6780 O.2     1  UNL1       -0.2685
      2 C         140.9360   79.6720  219.7650 C.2     1  UNL1        0.2628
      3 N         141.8310   78.8430  220.5150 N.am    1  UNL1       -0.3015
      4 C         141.2960   77.6340  221.0980 C.3     1  UNL1        0.0887
      5 C         140.3470   77.9010  222.2110 C.2     1  UNL1        0.2334
      6 O         139.2930   77.2290  222.2240 O.2     1  UNL1       -0.2739
      7 N         140.7030   78.8850  223.1610 N.am    1  UNL1       -0.2886
      8 C         141.9650   78.7670  223.9390 C.3     1  UNL1        0.0155
      9 C         142.5160   80.2050  223.8830 C.3     1  UNL1       -0.0371
     10 C         142.0590   80.9190  222.6160 C.3     1  UNL1       -0.0495
     11 C         140.5550   81.1740  222.6100 C.3     1  UNL1       -0.0257
     12 C         139.9430   80.0760  223.4590 C.3     1  UNL1        0.1022
     13 C         138.4930   79.9620  223.3980 C.2     1  UNL1        0.2338
     14 O         137.6840   80.2940  224.2970 O.2     1  UNL1       -0.2738
     15 N         137.9210   79.4220  222.2050 N.am    1  UNL1       -0.3097
     16 C         136.5090   79.2520  221.9830 C.3     1  UNL1        0.0369
     17 C         136.0330   78.1250  222.8170 C.ar    1  UNL1       -0.0303
     18 C         134.9590   78.4130  223.6690 C.ar    1  UNL1       -0.0565
     19 C         134.4200   77.4470  224.4930 C.ar    1  UNL1       -0.0537
     20 C         134.9430   76.1710  224.4820 C.ar    1  UNL1       -0.0178
     21 C         134.3370   75.1910  225.3750 C.ar    1  UNL1       -0.0150
     22 C         133.4560   75.6870  226.3260 C.ar    1  UNL1       -0.0359
     23 C         132.8230   74.8260  227.2290 C.ar    1  UNL1        0.0281
     24 N         133.0930   73.5100  227.1510 N.ar    1  UNL1       -0.2632
     25 C         133.9510   73.0360  226.2240 C.ar    1  UNL1        0.0281
     26 C         134.6000   73.8400  225.3120 C.ar    1  UNL1       -0.0359
     27 C         136.0000   75.8860  223.6430 C.ar    1  UNL1       -0.0537
     28 C         136.5550   76.8580  222.8030 C.ar    1  UNL1       -0.0565
     29 C         141.3660   80.9060  219.1360 C.ar    1  UNL1        0.1260
     30 C         140.5860   82.0310  219.2850 C.ar    1  UNL1       -0.0306
     31 C         140.8980   83.2550  218.7330 C.ar    1  UNL1       -0.0504
     32 C         142.0450   83.3550  217.9970 C.ar    1  UNL1        0.0004
     33 C         142.4080   84.5620  217.4180 C.ar    1  UNL1       -0.0526
     34 C         143.5630   84.6680  216.6750 C.ar    1  UNL1       -0.0611
     35 C         144.3540   83.5520  216.5160 C.ar    1  UNL1       -0.0597
     36 C         143.9830   82.3500  217.0980 C.ar    1  UNL1       -0.0357
     37 C         142.8340   82.2090  217.8490 C.ar    1  UNL1        0.0718
     38 N         142.4870   81.0330  218.4080 N.ar    1  UNL1       -0.2421
     39 H         142.8230   79.1510  220.6030 H       1  UNL1        0.1496
     40 H         140.7689   77.0697  220.3146 H       1  UNL1        0.0558
     41 H         142.1409   77.0649  221.5131 H       1  UNL1        0.0558
     42 H         141.7673   78.4555  224.9753 H       1  UNL1        0.0465
     43 H         142.6596   78.0117  223.5428 H       1  UNL1        0.0465
     44 H         142.1547   80.7625  224.7597 H       1  UNL1        0.0280
     45 H         143.6150   80.1581  223.8805 H       1  UNL1        0.0280
     46 H         142.5824   81.8839  222.5445 H       1  UNL1        0.0266
     47 H         142.2955   80.2714  221.7589 H       1  UNL1        0.0266
     48 H         140.3326   82.1607  223.0424 H       1  UNL1        0.0288
     49 H         140.1487   81.1676  221.5878 H       1  UNL1        0.0288
     50 H         140.0307   80.3135  224.5295 H       1  UNL1        0.0597
     51 H         138.5620   79.1180  221.4150 H       1  UNL1        0.1491
     52 H         135.9760   80.1723  222.2642 H       1  UNL1        0.0512
     53 H         136.3180   79.0407  220.9205 H       1  UNL1        0.0512
     54 H         134.5374   79.4289  223.6812 H       1  UNL1        0.0621
     55 H         133.5772   77.6932  225.1556 H       1  UNL1        0.0624
     56 H         133.2535   76.7673  226.3701 H       1  UNL1        0.0639
     57 H         132.1228   75.2147  227.9831 H       1  UNL1        0.0830
     58 H         134.1422   71.9531  226.1946 H       1  UNL1        0.0830
     59 H         135.2953   73.4227  224.5687 H       1  UNL1        0.0639
     60 H         136.4175   74.8684  223.6339 H       1  UNL1        0.0624
     61 H         137.3977   76.6087  222.1413 H       1  UNL1        0.0621
     62 H         139.6628   81.9484  219.8773 H       1  UNL1        0.0641
     63 H         140.2426   84.1260  218.8807 H       1  UNL1        0.0625
     64 H         141.7660   85.4449  217.5538 H       1  UNL1        0.0624
     65 H         143.8483   85.6266  216.2170 H       1  UNL1        0.0618
     66 H         145.2808   83.6145  215.9268 H       1  UNL1        0.0618
     67 H         144.6310   81.4726  216.9554 H       1  UNL1        0.0639
@<TRIPOS>BOND
     1     1     2    2
     2     2     3   am
     3     3     4    1
     4     4     5    1
     5     5     6    2
     6     5     7   am
     7     7     8    1
     8     8     9    1
     9     9    10    1
    10    10    11    1
    11    11    12    1
    12    12    13    1
    13    13    14    2
    14    13    15   am
    15    15    16    1
    16    16    17    1
    17    17    18   ar
    18    18    19   ar
    19    19    20   ar
    20    20    21    1
    21    21    22   ar
    22    22    23   ar
    23    23    24   ar
    24    24    25   ar
    25    25    26   ar
    26    20    27   ar
    27    27    28   ar
    28     2    29    1
    29    29    30   ar
    30    30    31   ar
    31    31    32   ar
    32    32    33   ar
    33    33    34   ar
    34    34    35   ar
    35    35    36   ar
    36    36    37   ar
    37    37    38   ar
    38    12     7    1
    39    28    17   ar
    40    38    29   ar
    41    26    21   ar
    42    37    32   ar
    43     3    39    1
    44     4    40    1
    45     4    41    1
    46     8    42    1
    47     8    43    1
    48     9    44    1
    49     9    45    1
    50    10    46    1
    51    10    47    1
    52    11    48    1
    53    11    49    1
    54    12    50    1
    55    15    51    1
    56    16    52    1
    57    16    53    1
    58    18    54    1
    59    19    55    1
    60    22    56    1
    61    23    57    1
    62    25    58    1
    63    26    59    1
    64    27    60    1
    65    28    61    1
    66    30    62    1
    67    31    63    1
    68    33    64    1
    69    34    65    1
    70    35    66    1
    71    36    67    1
