@<TRIPOS>MOLECULE
*****
 71 76 0 0 0
SMALL
GASTEIGER

@<TRIPOS>ATOM
      1 N         146.0750   73.4180  218.6780 N.3     1  UNL1       -0.2035
      2 S         145.4120   72.6450  220.0910 S.O2    1  UNL1        0.0560
      3 O         145.4060   71.1710  219.8840 O.2     1  UNL1       -0.1533
      4 O         146.3360   72.9750  221.2320 O.2     1  UNL1       -0.1533
      5 C         143.8020   73.2290  220.3700 C.ar    1  UNL1        0.1053
      6 C         142.8190   72.3810  220.8660 C.ar    1  UNL1       -0.0350
      7 C         141.5230   72.8540  221.0900 C.ar    1  UNL1       -0.0550
      8 C         141.1660   74.1600  220.8330 C.ar    1  UNL1       -0.0268
      9 C         142.1710   74.9880  220.3360 C.ar    1  UNL1       -0.0394
     10 C         143.4550   74.5380  220.1110 C.ar    1  UNL1       -0.0318
     11 C         141.7680   76.4120  220.0610 C.3     1  UNL1       -0.0114
     12 C         141.0360   76.8440  221.3310 C.3     1  UNL1        0.0192
     13 N         139.8120   76.0840  221.4470 N.pl3   1  UNL1       -0.2948
     14 C         138.6000   76.6520  221.9300 C.ar    1  UNL1        0.2240
     15 N         138.2580   77.9250  221.6610 N.ar    1  UNL1       -0.1809
     16 C         137.1360   78.5010  222.0900 C.ar    1  UNL1        0.2213
     17 N         136.8100   79.8550  221.7830 N.pl3   1  UNL1       -0.3098
     18 C         137.7080   80.9060  222.1780 C.3     1  UNL1        0.0304
     19 C         137.8590   80.8300  223.6680 C.2     1  UNL1       -0.0665
     20 C         138.8310   80.1450  224.2420 C.2     1  UNL1       -0.0571
     21 C         140.2000   80.1100  223.7640 C.ar    1  UNL1       -0.0253
     22 C         140.7680   81.2350  223.1610 C.ar    1  UNL1       -0.0546
     23 C         142.0650   81.2420  222.6940 C.ar    1  UNL1       -0.0612
     24 C         142.8740   80.1120  222.8060 C.ar    1  UNL1       -0.0617
     25 C         142.3190   78.9970  223.4010 C.ar    1  UNL1       -0.0612
     26 C         141.0210   79.0080  223.8620 C.ar    1  UNL1       -0.0546
     27 N         136.3020   77.7470  222.8390 N.ar    1  UNL1       -0.1809
     28 C         136.5860   76.4670  223.1430 C.ar    1  UNL1        0.2240
     29 N         135.6730   75.7170  223.9350 N.pl3   1  UNL1       -0.2948
     30 C         135.7860   74.2740  223.9400 C.3     1  UNL1        0.0192
     31 C         134.3900   73.6580  224.0840 C.3     1  UNL1       -0.0115
     32 C         133.7830   74.2180  225.3000 C.ar    1  UNL1       -0.0412
     33 C         133.0690   73.3680  226.1400 C.ar    1  UNL1       -0.0582
     34 C         132.4950   73.8800  227.2840 C.ar    1  UNL1       -0.0615
     35 C         132.6450   75.2200  227.5610 C.ar    1  UNL1       -0.0614
     36 C         133.3400   76.0680  226.7490 C.ar    1  UNL1       -0.0568
     37 C         133.9160   75.5490  225.6010 C.ar    1  UNL1       -0.0269
     38 C         134.6810   76.4370  224.6930 C.3     1  UNL1        0.0402
     39 N         137.7350   75.9410  222.6810 N.ar    1  UNL1       -0.1807
     40 C         139.8080   74.6850  221.0590 C.3     1  UNL1        0.0402
     41 H         145.3590   74.1210  218.3360 H       1  UNL1        0.1442
     42 H         146.8700   74.0270  219.0330 H       1  UNL1        0.1442
     43 H         143.0625   71.3306  221.0837 H       1  UNL1        0.0637
     44 H         140.7640   72.1620  221.4838 H       1  UNL1        0.0621
     45 H         144.2126   75.2328  219.7196 H       1  UNL1        0.0640
     46 H         142.6530   77.0417  219.8870 H       1  UNL1        0.0328
     47 H         141.1436   76.5077  219.1605 H       1  UNL1        0.0328
     48 H         141.6732   76.6540  222.2073 H       1  UNL1        0.0468
     49 H         140.8045   77.9182  221.2808 H       1  UNL1        0.0468
     50 H         135.9120   80.0340  221.2720 H       1  UNL1        0.1492
     51 H         138.6857   80.7672  221.6934 H       1  UNL1        0.0506
     52 H         137.3134   81.8877  221.8770 H       1  UNL1        0.0506
     53 H         137.1362   81.3624  224.3037 H       1  UNL1        0.0588
     54 H         138.5863   79.5623  225.1423 H       1  UNL1        0.0621
     55 H         140.1600   82.1456  223.0553 H       1  UNL1        0.0623
     56 H         142.4676   82.1525  222.2261 H       1  UNL1        0.0618
     57 H         143.9099   80.1092  222.4361 H       1  UNL1        0.0618
     58 H         142.9234   78.0843  223.5089 H       1  UNL1        0.0618
     59 H         140.6220   78.0957  224.3295 H       1  UNL1        0.0623
     60 H         136.2407   73.9376  222.9966 H       1  UNL1        0.0468
     61 H         136.4180   73.9564  224.7825 H       1  UNL1        0.0468
     62 H         133.7758   73.9106  223.2071 H       1  UNL1        0.0328
     63 H         134.4554   72.5621  224.1531 H       1  UNL1        0.0328
     64 H         132.9641   72.3010  225.8939 H       1  UNL1        0.0620
     65 H         131.9266   73.2286  227.9641 H       1  UNL1        0.0618
     66 H         132.1854   75.6239  228.4751 H       1  UNL1        0.0618
     67 H         133.4402   77.1345  226.9990 H       1  UNL1        0.0621
     68 H         133.9804   76.9168  223.9937 H       1  UNL1        0.0514
     69 H         135.2036   77.1821  225.3109 H       1  UNL1        0.0514
     70 H         139.3311   74.0983  221.8580 H       1  UNL1        0.0514
     71 H         139.2547   74.6016  220.1120 H       1  UNL1        0.0514
@<TRIPOS>BOND
     1     1     2    1
     2     2     3    2
     3     2     4    2
     4     2     5    1
     5     5     6   ar
     6     6     7   ar
     7     7     8   ar
     8     8     9   ar
     9     9    10   ar
    10     9    11    1
    11    11    12    1
    12    12    13    1
    13    13    14    1
    14    14    15   ar
    15    15    16   ar
    16    16    17    1
    17    17    18    1
    18    18    19    1
    19    19    20    2
    20    20    21    1
    21    21    22   ar
    22    22    23   ar
    23    23    24   ar
    24    24    25   ar
    25    25    26   ar
    26    16    27   ar
    27    27    28   ar
    28    28    29    1
    29    29    30    1
    30    30    31    1
    31    31    32    1
    32    32    33   ar
    33    33    34   ar
    34    34    35   ar
    35    35    36   ar
    36    36    37   ar
    37    37    38    1
    38    28    39   ar
    39    13    40    1
    40    10     5   ar
    41    39    14   ar
    42    40     8    1
    43    26    21   ar
    44    38    29    1
    45    37    32   ar
    46     1    41    1
    47     1    42    1
    48     6    43    1
    49     7    44    1
    50    10    45    1
    51    11    46    1
    52    11    47    1
    53    12    48    1
    54    12    49    1
    55    17    50    1
    56    18    51    1
    57    18    52    1
    58    19    53    1
    59    20    54    1
    60    22    55    1
    61    23    56    1
    62    24    57    1
    63    25    58    1
    64    26    59    1
    65    30    60    1
    66    30    61    1
    67    31    62    1
    68    31    63    1
    69    33    64    1
    70    34    65    1
    71    35    66    1
    72    36    67    1
    73    38    68    1
    74    38    69    1
    75    40    70    1
    76    40    71    1
