
     RDKit          3D

 64 68  0  0  0  0  0  0  0  0999 V2000
  139.9410   73.3390  222.4500 O   0  0  0  0  0  0  0  0  0  0  0  0
  140.2540   74.2340  221.6130 C   0  0  0  0  0  0  0  0  0  0  0  0
  140.8080   73.8580  220.3500 N   0  0  0  0  0  0  0  0  0  0  0  0
  140.9790   72.4400  220.1080 C   0  0  0  0  0  0  0  0  0  0  0  0
  142.1030   72.2420  219.1610 C   0  0  0  0  0  0  0  0  0  0  0  0
  142.0320   71.5320  218.1270 O   0  0  0  0  0  0  0  0  0  0  0  0
  143.3460   72.8820  219.4150 N   0  0  0  0  0  0  0  0  0  0  0  0
  144.5830   72.7750  218.6470 C   0  0  0  0  0  0  0  0  0  0  0  0
  145.6500   72.9690  219.6910 C   0  0  2  0  0  0  0  0  0  0  0  0
  146.4220   71.8090  219.7200 O   0  0  0  0  0  0  0  0  0  0  0  0
  144.9070   73.1560  221.0110 C   0  0  0  0  0  0  0  0  0  0  0  0
  143.6290   73.8180  220.5530 C   0  0  1  0  0  0  0  0  0  0  0  0
  143.8710   75.1480  219.9510 C   0  0  0  0  0  0  0  0  0  0  0  0
  142.7880   75.8890  219.4120 N   0  0  0  0  0  0  0  0  0  0  0  0
  143.0120   76.0050  217.9750 C   0  0  0  0  0  0  0  0  0  0  0  0
  142.7770   77.4290  217.5920 C   0  0  0  0  0  0  0  0  0  0  0  0
  141.9080   77.9090  218.7290 C   0  0  2  0  0  0  0  0  0  0  0  0
  141.8740   79.3650  218.8570 C   0  0  0  0  0  0  0  0  0  0  0  0
  141.4310   79.9050  220.0620 C   0  0  0  0  0  0  0  0  0  0  0  0
  141.3750   81.2750  220.2420 C   0  0  0  0  0  0  0  0  0  0  0  0
  141.7700   82.0810  219.1940 C   0  0  0  0  0  0  0  0  0  0  0  0
  142.2070   81.5490  218.0080 C   0  0  0  0  0  0  0  0  0  0  0  0
  142.2610   80.1810  217.8370 C   0  0  0  0  0  0  0  0  0  0  0  0
  142.6060   77.2150  219.9110 C   0  0  0  0  0  0  0  0  0  0  0  0
  140.0520   75.6590  221.9300 C   0  0  0  0  0  0  0  0  0  0  0  0
  138.8280   76.2270  221.6500 C   0  0  0  0  0  0  0  0  0  0  0  0
  138.6090   77.5580  221.9350 C   0  0  0  0  0  0  0  0  0  0  0  0
  139.6380   78.2920  222.5000 C   0  0  0  0  0  0  0  0  0  0  0  0
  139.3950   79.6260  222.7780 C   0  0  0  0  0  0  0  0  0  0  0  0
  140.4570   80.3300  223.3470 C   0  0  0  0  0  0  0  0  0  0  0  0
  140.3370   81.6370  223.6610 F   0  0  0  0  0  0  0  0  0  0  0  0
  141.6590   79.7040  223.6040 C   0  0  0  0  0  0  0  0  0  0  0  0
  141.8550   78.3620  223.3080 C   0  0  0  0  0  0  0  0  0  0  0  0
  140.8240   77.6650  222.7510 C   0  0  0  0  0  0  0  0  0  0  0  0
  141.0460   76.3540  222.4720 N   0  0  0  0  0  0  0  0  0  0  0  0
  141.0600   74.6020  219.6680 H   0  0  0  0  0  0  0  0  0  0  0  0
  141.2016   71.9286  221.0561 H   0  0  0  0  0  0  0  0  0  0  0  0
  140.0556   72.0229  219.6799 H   0  0  0  0  0  0  0  0  0  0  0  0
  144.6693   71.7862  218.1729 H   0  0  0  0  0  0  0  0  0  0  0  0
  144.6456   73.5022  217.8240 H   0  0  0  0  0  0  0  0  0  0  0  0
  146.3076   73.8285  219.4941 H   0  0  0  0  0  0  0  0  0  0  0  0
  146.4220   71.4900  220.6630 H   0  0  0  0  0  0  0  0  0  0  0  0
  144.7060   72.1904  221.4981 H   0  0  0  0  0  0  0  0  0  0  0  0
  145.4665   73.7361  221.7596 H   0  0  0  0  0  0  0  0  0  0  0  0
  142.8774   73.9675  221.3421 H   0  0  0  0  0  0  0  0  0  0  0  0
  144.3255   75.7732  220.7337 H   0  0  0  0  0  0  0  0  0  0  0  0
  144.4854   74.9185  219.0679 H   0  0  0  0  0  0  0  0  0  0  0  0
  144.0458   75.7176  217.7327 H   0  0  0  0  0  0  0  0  0  0  0  0
  142.3301   75.3405  217.4241 H   0  0  0  0  0  0  0  0  0  0  0  0
  143.7205   77.9923  217.5423 H   0  0  0  0  0  0  0  0  0  0  0  0
  142.3241   77.5563  216.5977 H   0  0  0  0  0  0  0  0  0  0  0  0
  140.8402   77.6684  218.6200 H   0  0  0  0  0  0  0  0  0  0  0  0
  141.1227   79.2353  220.8784 H   0  0  0  0  0  0  0  0  0  0  0  0
  141.0265   81.7086  221.1909 H   0  0  0  0  0  0  0  0  0  0  0  0
  141.7336   83.1740  219.3124 H   0  0  0  0  0  0  0  0  0  0  0  0
  142.5158   82.2158  217.1895 H   0  0  0  0  0  0  0  0  0  0  0  0
  142.6130   79.7535  216.8866 H   0  0  0  0  0  0  0  0  0  0  0  0
  143.5705   77.6913  220.1411 H   0  0  0  0  0  0  0  0  0  0  0  0
  142.0365   77.2607  220.8510 H   0  0  0  0  0  0  0  0  0  0  0  0
  138.0282   75.6202  221.2005 H   0  0  0  0  0  0  0  0  0  0  0  0
  137.6377   78.0266  221.7182 H   0  0  0  0  0  0  0  0  0  0  0  0
  138.4262   80.1010  222.5640 H   0  0  0  0  0  0  0  0  0  0  0  0
  142.4805   80.2811  224.0535 H   0  0  0  0  0  0  0  0  0  0  0  0
  142.8179   77.8732  223.5175 H   0  0  0  0  0  0  0  0  0  0  0  0
  1  2  2  0
  2  3  1  0
  3  4  1  0
  4  5  1  0
  5  6  2  0
  5  7  1  0
  7  8  1  0
  8  9  1  0
  9 10  1  0
  9 11  1  0
 11 12  1  0
 12 13  1  0
 13 14  1  0
 14 15  1  0
 15 16  1  0
 16 17  1  0
 17 18  1  0
 18 19  2  0
 19 20  1  0
 20 21  2  0
 21 22  1  0
 22 23  2  0
 17 24  1  0
  2 25  1  0
 25 26  2  0
 26 27  1  0
 27 28  2  0
 28 29  1  0
 29 30  2  0
 30 31  1  0
 30 32  1  0
 32 33  2  0
 33 34  1  0
 34 35  2  0
 12  7  1  0
 24 14  1  0
 35 25  1  0
 23 18  1  0
 34 28  1  0
  3 36  1  0
  4 37  1  0
  4 38  1  0
  8 39  1  0
  8 40  1  0
  9 41  1  6
 10 42  1  0
 11 43  1  0
 11 44  1  0
 12 45  1  1
 13 46  1  0
 13 47  1  0
 15 48  1  0
 15 49  1  0
 16 50  1  0
 16 51  1  0
 17 52  1  6
 19 53  1  0
 20 54  1  0
 21 55  1  0
 22 56  1  0
 23 57  1  0
 24 58  1  0
 24 59  1  0
 26 60  1  0
 27 61  1  0
 29 62  1  0
 32 63  1  0
 33 64  1  0
M  END
>  <smiles>  (1) 
O=C(NCC(=O)N1C[C@H](O)C[C@H]1CN1CC[C@H](c2ccccc2)C1)c1ccc2cc(F)ccc2n1

>  <score_type>  (1) 
oracle

>  <origin>  (1) 
autodockgpu

>  <m_score__min__energy>  (1) 
-9.5500000000000007

>  <m_primary>  (1) 
energy

>  <rmsd>  (1) 
6.898858252063108

>  <m_score__min__rmsd>  (1) 
6.898858252063108

>  <meeko>  (1) 
{"free_energy": -7.74, "intermolecular_energy": -10.12, "internal_energy": -4.04, "cluster_size": 27, "cluster_id": 5, "rank_in_cluster": 9}

>  <energy>  (1) 
-9.55

>  <cluster_rmsd>  (1) 
0.0

>  <cluster>  (1) 
1

$$$$

     RDKit          3D

 64 68  0  0  0  0  0  0  0  0999 V2000
  137.0620   69.7730  221.9440 O   0  0  0  0  0  0  0  0  0  0  0  0
  137.3820   70.5980  222.8470 C   0  0  0  0  0  0  0  0  0  0  0  0
  136.9760   71.9640  222.7330 N   0  0  0  0  0  0  0  0  0  0  0  0
  136.2060   72.3200  221.5580 C   0  0  0  0  0  0  0  0  0  0  0  0
  137.1360   72.6140  220.4410 C   0  0  0  0  0  0  0  0  0  0  0  0
  136.8670   72.4060  219.2310 O   0  0  0  0  0  0  0  0  0  0  0  0
  138.4140   73.1660  220.7270 N   0  0  0  0  0  0  0  0  0  0  0  0
  139.6650   72.4520  220.9630 C   0  0  0  0  0  0  0  0  0  0  0  0
  140.4040   73.3620  221.9090 C   0  0  2  0  0  0  0  0  0  0  0  0
  140.6210   72.6520  223.0880 O   0  0  0  0  0  0  0  0  0  0  0  0
  139.4710   74.5450  222.1550 C   0  0  0  0  0  0  0  0  0  0  0  0
  138.7270   74.6280  220.8430 C   0  0  1  0  0  0  0  0  0  0  0  0
  139.6210   74.9560  219.7110 C   0  0  0  0  0  0  0  0  0  0  0  0
  140.1560   76.2630  219.5860 N   0  0  0  0  0  0  0  0  0  0  0  0
  141.5690   76.1250  219.2470 C   0  0  0  0  0  0  0  0  0  0  0  0
  142.3400   77.0520  220.1270 C   0  0  0  0  0  0  0  0  0  0  0  0
  141.2770   78.0480  220.5230 C   0  0  2  0  0  0  0  0  0  0  0  0
  141.6230   78.8210  221.7150 C   0  0  0  0  0  0  0  0  0  0  0  0
  142.1510   80.0970  221.5370 C   0  0  0  0  0  0  0  0  0  0  0  0
  142.4990   80.8750  222.6270 C   0  0  0  0  0  0  0  0  0  0  0  0
  142.3050   80.3460  223.8850 C   0  0  0  0  0  0  0  0  0  0  0  0
  141.7850   79.0890  224.0620 C   0  0  0  0  0  0  0  0  0  0  0  0
  141.4400   78.3200  222.9690 C   0  0  0  0  0  0  0  0  0  0  0  0
  140.0880   77.0980  220.7430 C   0  0  0  0  0  0  0  0  0  0  0  0
  138.1680   70.1620  224.0150 C   0  0  0  0  0  0  0  0  0  0  0  0
  138.1210   68.8340  224.3810 C   0  0  0  0  0  0  0  0  0  0  0  0
  138.8450   68.3970  225.4680 C   0  0  0  0  0  0  0  0  0  0  0  0
  139.6070   69.3160  226.1690 C   0  0  0  0  0  0  0  0  0  0  0  0
  140.3270   68.8540  227.2590 C   0  0  0  0  0  0  0  0  0  0  0  0
  141.0810   69.8120  227.9370 C   0  0  0  0  0  0  0  0  0  0  0  0
  141.8230   69.4780  229.0150 F   0  0  0  0  0  0  0  0  0  0  0  0
  141.0870   71.1270  227.5220 C   0  0  0  0  0  0  0  0  0  0  0  0
  140.3490   71.5430  226.4230 C   0  0  0  0  0  0  0  0  0  0  0  0
  139.6070   70.6160  225.7520 C   0  0  0  0  0  0  0  0  0  0  0  0
  138.8960   71.0520  224.6810 N   0  0  0  0  0  0  0  0  0  0  0  0
  137.2430   72.6340  223.4820 H   0  0  0  0  0  0  0  0  0  0  0  0
  135.5491   71.4826  221.2801 H   0  0  0  0  0  0  0  0  0  0  0  0
  135.5907   73.2064  221.7719 H   0  0  0  0  0  0  0  0  0  0  0  0
  139.4788   71.4706  221.4236 H   0  0  0  0  0  0  0  0  0  0  0  0
  140.2242   72.2421  220.0393 H   0  0  0  0  0  0  0  0  0  0  0  0
  141.3729   73.7089  221.5205 H   0  0  0  0  0  0  0  0  0  0  0  0
  139.7800   72.7120  223.6170 H   0  0  0  0  0  0  0  0  0  0  0  0
  138.7857   74.3475  222.9925 H   0  0  0  0  0  0  0  0  0  0  0  0
  139.9916   75.4736  222.4320 H   0  0  0  0  0  0  0  0  0  0  0  0
  137.9136   75.3681  220.8192 H   0  0  0  0  0  0  0  0  0  0  0  0
  140.4765   74.2672  219.7720 H   0  0  0  0  0  0  0  0  0  0  0  0
  138.9622   74.8675  218.8346 H   0  0  0  0  0  0  0  0  0  0  0  0
  141.8956   75.0885  219.4174 H   0  0  0  0  0  0  0  0  0  0  0  0
  141.7367   76.3708  218.1880 H   0  0  0  0  0  0  0  0  0  0  0  0
  142.7459   76.5277  221.0047 H   0  0  0  0  0  0  0  0  0  0  0  0
  143.2180   77.5034  219.6418 H   0  0  0  0  0  0  0  0  0  0  0  0
  141.0991   78.8432  219.7841 H   0  0  0  0  0  0  0  0  0  0  0  0
  142.2929   80.4905  220.5196 H   0  0  0  0  0  0  0  0  0  0  0  0
  142.9172   81.8837  222.4939 H   0  0  0  0  0  0  0  0  0  0  0  0
  142.5733   80.9456  224.7673 H   0  0  0  0  0  0  0  0  0  0  0  0
  141.6425   78.6927  225.0782 H   0  0  0  0  0  0  0  0  0  0  0  0
  141.0214   77.3124  223.1088 H   0  0  0  0  0  0  0  0  0  0  0  0
  140.2100   76.5124  221.6661 H   0  0  0  0  0  0  0  0  0  0  0  0
  139.1239   77.6145  220.8608 H   0  0  0  0  0  0  0  0  0  0  0  0
  137.5068   68.1250  223.8064 H   0  0  0  0  0  0  0  0  0  0  0  0
  138.8184   67.3404  225.7727 H   0  0  0  0  0  0  0  0  0  0  0  0
  140.3054   67.7991  227.5699 H   0  0  0  0  0  0  0  0  0  0  0  0
  141.6902   71.8625  228.0744 H   0  0  0  0  0  0  0  0  0  0  0  0
  140.3621   72.5947  226.1009 H   0  0  0  0  0  0  0  0  0  0  0  0
  1  2  2  0
  2  3  1  0
  3  4  1  0
  4  5  1  0
  5  6  2  0
  5  7  1  0
  7  8  1  0
  8  9  1  0
  9 10  1  0
  9 11  1  0
 11 12  1  0
 12 13  1  0
 13 14  1  0
 14 15  1  0
 15 16  1  0
 16 17  1  0
 17 18  1  0
 18 19  2  0
 19 20  1  0
 20 21  2  0
 21 22  1  0
 22 23  2  0
 17 24  1  0
  2 25  1  0
 25 26  2  0
 26 27  1  0
 27 28  2  0
 28 29  1  0
 29 30  2  0
 30 31  1  0
 30 32  1  0
 32 33  2  0
 33 34  1  0
 34 35  2  0
 12  7  1  0
 24 14  1  0
 35 25  1  0
 23 18  1  0
 34 28  1  0
  3 36  1  0
  4 37  1  0
  4 38  1  0
  8 39  1  0
  8 40  1  0
  9 41  1  6
 10 42  1  0
 11 43  1  0
 11 44  1  0
 12 45  1  1
 13 46  1  0
 13 47  1  0
 15 48  1  0
 15 49  1  0
 16 50  1  0
 16 51  1  0
 17 52  1  6
 19 53  1  0
 20 54  1  0
 21 55  1  0
 22 56  1  0
 23 57  1  0
 24 58  1  0
 24 59  1  0
 26 60  1  0
 27 61  1  0
 29 62  1  0
 32 63  1  0
 33 64  1  0
M  END
>  <smiles>  (2) 
O=C(NCC(=O)N1C[C@H](O)C[C@H]1CN1CC[C@H](c2ccccc2)C1)c1ccc2cc(F)ccc2n1

>  <score_type>  (2) 
oracle

>  <origin>  (2) 
autodockgpu

>  <m_score__min__energy>  (2) 
-9.5500000000000007

>  <m_primary>  (2) 
energy

>  <rmsd>  (2) 
3.429587185536426

>  <m_score__min__rmsd>  (2) 
3.429587185536426

>  <meeko>  (2) 
{"free_energy": -8.18, "intermolecular_energy": -10.57, "internal_energy": -3.06, "cluster_size": 9, "cluster_id": 2, "rank_in_cluster": 6}

>  <energy>  (2) 
-8.88

>  <cluster_rmsd>  (2) 
1.4

>  <cluster>  (2) 
1

$$$$

     RDKit          3D

 64 68  0  0  0  0  0  0  0  0999 V2000
  139.7070   74.3930  222.3320 O   0  0  0  0  0  0  0  0  0  0  0  0
  140.3030   75.0560  221.4340 C   0  0  0  0  0  0  0  0  0  0  0  0
  140.9800   74.3690  220.3800 N   0  0  0  0  0  0  0  0  0  0  0  0
  140.9380   72.9200  220.4130 C   0  0  0  0  0  0  0  0  0  0  0  0
  142.0080   72.3850  219.5350 C   0  0  0  0  0  0  0  0  0  0  0  0
  141.8510   71.4160  218.7510 O   0  0  0  0  0  0  0  0  0  0  0  0
  143.2950   72.9860  219.5630 N   0  0  0  0  0  0  0  0  0  0  0  0
  144.4330   72.7060  218.6930 C   0  0  0  0  0  0  0  0  0  0  0  0
  145.6170   72.9850  219.5810 C   0  0  2  0  0  0  0  0  0  0  0  0
  146.3420   71.8010  219.6960 O   0  0  0  0  0  0  0  0  0  0  0  0
  145.0330   73.3940  220.9310 C   0  0  0  0  0  0  0  0  0  0  0  0
  143.7390   74.0540  220.5190 C   0  0  1  0  0  0  0  0  0  0  0  0
  143.9630   75.2720  219.7100 C   0  0  0  0  0  0  0  0  0  0  0  0
  142.8990   75.8270  218.9540 N   0  0  0  0  0  0  0  0  0  0  0  0
  143.3360   75.8860  217.5640 C   0  0  0  0  0  0  0  0  0  0  0  0
  142.9930   77.2400  217.0360 C   0  0  0  0  0  0  0  0  0  0  0  0
  141.8990   77.6660  217.9850 C   0  0  2  0  0  0  0  0  0  0  0  0
  141.6660   79.1090  217.9880 C   0  0  0  0  0  0  0  0  0  0  0  0
  140.5110   79.5870  217.3750 C   0  0  0  0  0  0  0  0  0  0  0  0
  140.2360   80.9420  217.3440 C   0  0  0  0  0  0  0  0  0  0  0  0
  141.1410   81.7970  217.9400 C   0  0  0  0  0  0  0  0  0  0  0  0
  142.2780   81.3270  218.5450 C   0  0  0  0  0  0  0  0  0  0  0  0
  142.5440   79.9730  218.5700 C   0  0  0  0  0  0  0  0  0  0  0  0
  142.4770   77.1450  219.3110 C   0  0  0  0  0  0  0  0  0  0  0  0
  140.3030   76.5290  221.4680 C   0  0  0  0  0  0  0  0  0  0  0  0
  139.3170   77.2030  220.7800 C   0  0  0  0  0  0  0  0  0  0  0  0
  139.2920   78.5810  220.7930 C   0  0  0  0  0  0  0  0  0  0  0  0
  140.2700   79.2540  221.5040 C   0  0  0  0  0  0  0  0  0  0  0  0
  140.2250   80.6380  221.5030 C   0  0  0  0  0  0  0  0  0  0  0  0
  141.2270   81.2780  222.2320 C   0  0  0  0  0  0  0  0  0  0  0  0
  141.2850   82.6250  222.3030 F   0  0  0  0  0  0  0  0  0  0  0  0
  142.1880   80.5480  222.9000 C   0  0  0  0  0  0  0  0  0  0  0  0
  142.1920   79.1600  222.8720 C   0  0  0  0  0  0  0  0  0  0  0  0
  141.2170   78.5230  222.1630 C   0  0  0  0  0  0  0  0  0  0  0  0
  141.2470   77.1660  222.1540 N   0  0  0  0  0  0  0  0  0  0  0  0
  141.4660   74.9230  219.6470 H   0  0  0  0  0  0  0  0  0  0  0  0
  141.0973   72.5699  221.4436 H   0  0  0  0  0  0  0  0  0  0  0  0
  139.9573   72.5687  220.0596 H   0  0  0  0  0  0  0  0  0  0  0  0
  144.4272   71.6576  218.3600 H   0  0  0  0  0  0  0  0  0  0  0  0
  144.4317   73.3070  217.7717 H   0  0  0  0  0  0  0  0  0  0  0  0
  146.2816   73.7716  219.1943 H   0  0  0  0  0  0  0  0  0  0  0  0
  146.2570   71.5040  220.6430 H   0  0  0  0  0  0  0  0  0  0  0  0
  144.8501   72.5179  221.5705 H   0  0  0  0  0  0  0  0  0  0  0  0
  145.6944   74.0415  221.5253 H   0  0  0  0  0  0  0  0  0  0  0  0
  143.0867   74.3519  221.3531 H   0  0  0  0  0  0  0  0  0  0  0  0
  144.3024   76.0557  220.4033 H   0  0  0  0  0  0  0  0  0  0  0  0
  144.6726   74.9366  218.9393 H   0  0  0  0  0  0  0  0  0  0  0  0
  144.4227   75.7258  217.5061 H   0  0  0  0  0  0  0  0  0  0  0  0
  142.8387   75.1044  216.9709 H   0  0  0  0  0  0  0  0  0  0  0  0
  143.8555   77.9209  217.0858 H   0  0  0  0  0  0  0  0  0  0  0  0
  142.6950   77.2458  215.9771 H   0  0  0  0  0  0  0  0  0  0  0  0
  140.9007   77.2777  217.7348 H   0  0  0  0  0  0  0  0  0  0  0  0
  139.8092   78.8789  216.9101 H   0  0  0  0  0  0  0  0  0  0  0  0
  139.3257   81.3259  216.8602 H   0  0  0  0  0  0  0  0  0  0  0  0
  140.9456   82.8795  217.9293 H   0  0  0  0  0  0  0  0  0  0  0  0
  142.9812   82.0320  219.0124 H   0  0  0  0  0  0  0  0  0  0  0  0
  143.4561   79.5951  219.0551 H   0  0  0  0  0  0  0  0  0  0  0  0
  143.3258   77.7594  219.6458 H   0  0  0  0  0  0  0  0  0  0  0  0
  141.7623   77.1706  220.1468 H   0  0  0  0  0  0  0  0  0  0  0  0
  138.5522   76.6427  220.2221 H   0  0  0  0  0  0  0  0  0  0  0  0
  138.5114   79.1339  220.2499 H   0  0  0  0  0  0  0  0  0  0  0  0
  139.4480   81.1973  220.9614 H   0  0  0  0  0  0  0  0  0  0  0  0
  142.9680   81.0770  223.4671 H   0  0  0  0  0  0  0  0  0  0  0  0
  142.9631   78.5880  223.4088 H   0  0  0  0  0  0  0  0  0  0  0  0
  1  2  2  0
  2  3  1  0
  3  4  1  0
  4  5  1  0
  5  6  2  0
  5  7  1  0
  7  8  1  0
  8  9  1  0
  9 10  1  0
  9 11  1  0
 11 12  1  0
 12 13  1  0
 13 14  1  0
 14 15  1  0
 15 16  1  0
 16 17  1  0
 17 18  1  0
 18 19  2  0
 19 20  1  0
 20 21  2  0
 21 22  1  0
 22 23  2  0
 17 24  1  0
  2 25  1  0
 25 26  2  0
 26 27  1  0
 27 28  2  0
 28 29  1  0
 29 30  2  0
 30 31  1  0
 30 32  1  0
 32 33  2  0
 33 34  1  0
 34 35  2  0
 12  7  1  0
 24 14  1  0
 35 25  1  0
 23 18  1  0
 34 28  1  0
  3 36  1  0
  4 37  1  0
  4 38  1  0
  8 39  1  0
  8 40  1  0
  9 41  1  6
 10 42  1  0
 11 43  1  0
 11 44  1  0
 12 45  1  1
 13 46  1  0
 13 47  1  0
 15 48  1  0
 15 49  1  0
 16 50  1  0
 16 51  1  0
 17 52  1  6
 19 53  1  0
 20 54  1  0
 21 55  1  0
 22 56  1  0
 23 57  1  0
 24 58  1  0
 24 59  1  0
 26 60  1  0
 27 61  1  0
 29 62  1  0
 32 63  1  0
 33 64  1  0
M  END
>  <smiles>  (3) 
O=C(NCC(=O)N1C[C@H](O)C[C@H]1CN1CC[C@H](c2ccccc2)C1)c1ccc2cc(F)ccc2n1

>  <score_type>  (3) 
oracle

>  <origin>  (3) 
autodockgpu

>  <m_score__min__energy>  (3) 
-9.5500000000000007

>  <m_primary>  (3) 
energy

>  <rmsd>  (3) 
7.545028678764178

>  <m_score__min__rmsd>  (3) 
7.545028678764178

>  <meeko>  (3) 
{"free_energy": -7.1, "intermolecular_energy": -9.49, "internal_energy": -4.23, "cluster_size": 27, "cluster_id": 5, "rank_in_cluster": 26}

>  <energy>  (3) 
-8.81

>  <cluster_rmsd>  (3) 
1.28

>  <cluster>  (3) 
1

$$$$

     RDKit          3D

 64 68  0  0  0  0  0  0  0  0999 V2000
  140.2470   71.1080  221.8010 O   0  0  0  0  0  0  0  0  0  0  0  0
  139.4800   71.2350  222.7980 C   0  0  0  0  0  0  0  0  0  0  0  0
  138.4480   72.2240  222.7750 N   0  0  0  0  0  0  0  0  0  0  0  0
  138.3480   73.0350  221.5780 C   0  0  0  0  0  0  0  0  0  0  0  0
  139.4710   74.0030  221.5550 C   0  0  0  0  0  0  0  0  0  0  0  0
  139.5940   74.9530  222.3680 O   0  0  0  0  0  0  0  0  0  0  0  0
  140.4810   73.8710  220.5640 N   0  0  0  0  0  0  0  0  0  0  0  0
  140.4560   73.0420  219.3630 C   0  0  0  0  0  0  0  0  0  0  0  0
  141.9070   72.6970  219.1570 C   0  0  2  0  0  0  0  0  0  0  0  0
  142.0230   71.3100  219.2330 O   0  0  0  0  0  0  0  0  0  0  0  0
  142.6580   73.3640  220.3060 C   0  0  0  0  0  0  0  0  0  0  0  0
  141.8020   74.5820  220.5650 C   0  0  1  0  0  0  0  0  0  0  0  0
  141.7800   75.5080  219.4110 C   0  0  0  0  0  0  0  0  0  0  0  0
  141.1870   76.7890  219.5420 N   0  0  0  0  0  0  0  0  0  0  0  0
  141.8800   77.6860  218.6230 C   0  0  0  0  0  0  0  0  0  0  0  0
  142.2010   78.9410  219.3660 C   0  0  0  0  0  0  0  0  0  0  0  0
  141.1920   78.8930  220.4880 C   0  0  2  0  0  0  0  0  0  0  0  0
  141.5400   79.7560  221.6160 C   0  0  0  0  0  0  0  0  0  0  0  0
  141.2260   81.1090  221.5260 C   0  0  0  0  0  0  0  0  0  0  0  0
  141.5320   81.9750  222.5600 C   0  0  0  0  0  0  0  0  0  0  0  0
  142.1540   81.4540  223.6750 C   0  0  0  0  0  0  0  0  0  0  0  0
  142.4630   80.1210  223.7650 C   0  0  0  0  0  0  0  0  0  0  0  0
  142.1540   79.2640  222.7280 C   0  0  0  0  0  0  0  0  0  0  0  0
  141.2460   77.3960  220.8340 C   0  0  0  0  0  0  0  0  0  0  0  0
  139.6430   70.3730  223.9820 C   0  0  0  0  0  0  0  0  0  0  0  0
  139.1840   69.0750  223.9190 C   0  0  0  0  0  0  0  0  0  0  0  0
  139.3220   68.2460  225.0100 C   0  0  0  0  0  0  0  0  0  0  0  0
  139.9250   68.7470  226.1510 C   0  0  0  0  0  0  0  0  0  0  0  0
  140.0530   67.8950  227.2350 C   0  0  0  0  0  0  0  0  0  0  0  0
  140.6650   68.4390  228.3640 C   0  0  0  0  0  0  0  0  0  0  0  0
  140.8450   67.7030  229.4820 F   0  0  0  0  0  0  0  0  0  0  0  0
  141.1040   69.7470  228.3670 C   0  0  0  0  0  0  0  0  0  0  0  0
  140.9540   70.5630  227.2540 C   0  0  0  0  0  0  0  0  0  0  0  0
  140.3560   70.0420  226.1440 C   0  0  0  0  0  0  0  0  0  0  0  0
  140.2230   70.8640  225.0720 N   0  0  0  0  0  0  0  0  0  0  0  0
  137.8220   72.3190  223.6000 H   0  0  0  0  0  0  0  0  0  0  0  0
  138.4000   72.3888  220.6894 H   0  0  0  0  0  0  0  0  0  0  0  0
  137.3906   73.5767  221.5752 H   0  0  0  0  0  0  0  0  0  0  0  0
  139.8530   72.1357  219.5211 H   0  0  0  0  0  0  0  0  0  0  0  0
  140.0044   73.5482  218.4971 H   0  0  0  0  0  0  0  0  0  0  0  0
  142.3053   73.0342  218.1887 H   0  0  0  0  0  0  0  0  0  0  0  0
  141.4800   71.0210  220.0150 H   0  0  0  0  0  0  0  0  0  0  0  0
  142.7025   72.7099  221.1893 H   0  0  0  0  0  0  0  0  0  0  0  0
  143.7085   73.5968  220.0775 H   0  0  0  0  0  0  0  0  0  0  0  0
  142.1033   75.1812  221.4369 H   0  0  0  0  0  0  0  0  0  0  0  0
  142.8267   75.6713  219.1147 H   0  0  0  0  0  0  0  0  0  0  0  0
  141.1244   74.9981  218.6898 H   0  0  0  0  0  0  0  0  0  0  0  0
  142.8077   77.2139  218.2674 H   0  0  0  0  0  0  0  0  0  0  0  0
  141.2471   77.9068  217.7508 H   0  0  0  0  0  0  0  0  0  0  0  0
  143.2313   78.9276  219.7512 H   0  0  0  0  0  0  0  0  0  0  0  0
  142.1461   79.8521  218.7521 H   0  0  0  0  0  0  0  0  0  0  0  0
  140.1928   79.2663  220.2192 H   0  0  0  0  0  0  0  0  0  0  0  0
  140.7293   81.4935  220.6230 H   0  0  0  0  0  0  0  0  0  0  0  0
  141.2870   83.0454  222.4950 H   0  0  0  0  0  0  0  0  0  0  0  0
  142.4080   82.1225  224.5108 H   0  0  0  0  0  0  0  0  0  0  0  0
  142.9590   79.7332  224.6670 H   0  0  0  0  0  0  0  0  0  0  0  0
  142.4011   78.1945  222.7988 H   0  0  0  0  0  0  0  0  0  0  0  0
  142.1811   77.1396  221.3535 H   0  0  0  0  0  0  0  0  0  0  0  0
  140.4454   77.0693  221.5140 H   0  0  0  0  0  0  0  0  0  0  0  0
  138.7087   68.7022  222.9997 H   0  0  0  0  0  0  0  0  0  0  0  0
  138.9607   67.2076  224.9755 H   0  0  0  0  0  0  0  0  0  0  0  0
  139.6948   66.8553  227.2074 H   0  0  0  0  0  0  0  0  0  0  0  0
  141.5831   70.1519  229.2706 H   0  0  0  0  0  0  0  0  0  0  0  0
  141.3086   71.6042  227.2668 H   0  0  0  0  0  0  0  0  0  0  0  0
  1  2  2  0
  2  3  1  0
  3  4  1  0
  4  5  1  0
  5  6  2  0
  5  7  1  0
  7  8  1  0
  8  9  1  0
  9 10  1  0
  9 11  1  0
 11 12  1  0
 12 13  1  0
 13 14  1  0
 14 15  1  0
 15 16  1  0
 16 17  1  0
 17 18  1  0
 18 19  2  0
 19 20  1  0
 20 21  2  0
 21 22  1  0
 22 23  2  0
 17 24  1  0
  2 25  1  0
 25 26  2  0
 26 27  1  0
 27 28  2  0
 28 29  1  0
 29 30  2  0
 30 31  1  0
 30 32  1  0
 32 33  2  0
 33 34  1  0
 34 35  2  0
 12  7  1  0
 24 14  1  0
 35 25  1  0
 23 18  1  0
 34 28  1  0
  3 36  1  0
  4 37  1  0
  4 38  1  0
  8 39  1  0
  8 40  1  0
  9 41  1  6
 10 42  1  0
 11 43  1  0
 11 44  1  0
 12 45  1  1
 13 46  1  0
 13 47  1  0
 15 48  1  0
 15 49  1  0
 16 50  1  0
 16 51  1  0
 17 52  1  6
 19 53  1  0
 20 54  1  0
 21 55  1  0
 22 56  1  0
 23 57  1  0
 24 58  1  0
 24 59  1  0
 26 60  1  0
 27 61  1  0
 29 62  1  0
 32 63  1  0
 33 64  1  0
M  END
>  <smiles>  (4) 
O=C(NCC(=O)N1C[C@H](O)C[C@H]1CN1CC[C@H](c2ccccc2)C1)c1ccc2cc(F)ccc2n1

>  <score_type>  (4) 
oracle

>  <origin>  (4) 
autodockgpu

>  <m_score__min__energy>  (4) 
-9.5500000000000007

>  <m_primary>  (4) 
energy

>  <rmsd>  (4) 
2.5528927315381673

>  <m_score__min__rmsd>  (4) 
2.5528927315381673

>  <meeko>  (4) 
{"free_energy": -8.88, "intermolecular_energy": -11.26, "internal_energy": -2.63, "cluster_size": 6, "cluster_id": 1, "rank_in_cluster": 2}

>  <energy>  (4) 
-8.58

>  <cluster_rmsd>  (4) 
1.59

>  <cluster>  (4) 
1

$$$$

     RDKit          3D

 64 68  0  0  0  0  0  0  0  0999 V2000
  138.7700   75.1460  221.7210 O   0  0  0  0  0  0  0  0  0  0  0  0
  139.9320   75.6430  221.6960 C   0  0  0  0  0  0  0  0  0  0  0  0
  141.0100   74.8960  221.1290 N   0  0  0  0  0  0  0  0  0  0  0  0
  140.6900   73.5830  220.6060 C   0  0  0  0  0  0  0  0  0  0  0  0
  141.8930   72.7200  220.6950 C   0  0  0  0  0  0  0  0  0  0  0  0
  141.9070   71.5920  221.2490 O   0  0  0  0  0  0  0  0  0  0  0  0
  143.1140   73.1710  220.1270 N   0  0  0  0  0  0  0  0  0  0  0  0
  143.8720   72.5660  219.0350 C   0  0  0  0  0  0  0  0  0  0  0  0
  145.2950   72.9320  219.3650 C   0  0  2  0  0  0  0  0  0  0  0  0
  146.0010   71.7440  219.5450 O   0  0  0  0  0  0  0  0  0  0  0  0
  145.2270   73.7210  220.6690 C   0  0  0  0  0  0  0  0  0  0  0  0
  143.8770   74.3900  220.5530 C   0  0  1  0  0  0  0  0  0  0  0  0
  143.8170   75.3390  219.4190 C   0  0  0  0  0  0  0  0  0  0  0  0
  142.6300   76.0730  219.1720 N   0  0  0  0  0  0  0  0  0  0  0  0
  142.5060   76.2290  217.7270 C   0  0  0  0  0  0  0  0  0  0  0  0
  142.1710   77.6570  217.4500 C   0  0  0  0  0  0  0  0  0  0  0  0
  141.5900   78.0930  218.7730 C   0  0  2  0  0  0  0  0  0  0  0  0
  141.5700   79.5450  218.9460 C   0  0  0  0  0  0  0  0  0  0  0  0
  140.8220   80.0680  219.9970 C   0  0  0  0  0  0  0  0  0  0  0  0
  140.7640   81.4340  220.2110 C   0  0  0  0  0  0  0  0  0  0  0  0
  141.4680   82.2510  219.3520 C   0  0  0  0  0  0  0  0  0  0  0  0
  142.2050   81.7370  218.3170 C   0  0  0  0  0  0  0  0  0  0  0  0
  142.2580   80.3730  218.1110 C   0  0  0  0  0  0  0  0  0  0  0  0
  142.5550   77.3840  219.7370 C   0  0  0  0  0  0  0  0  0  0  0  0
  140.1830   76.9870  222.2480 C   0  0  0  0  0  0  0  0  0  0  0  0
  139.1070   77.7280  222.6890 C   0  0  0  0  0  0  0  0  0  0  0  0
  139.3100   78.9870  223.2100 C   0  0  0  0  0  0  0  0  0  0  0  0
  140.6030   79.4770  223.2750 C   0  0  0  0  0  0  0  0  0  0  0  0
  140.7830   80.7440  223.8020 C   0  0  0  0  0  0  0  0  0  0  0  0
  142.1000   81.2000  223.8490 C   0  0  0  0  0  0  0  0  0  0  0  0
  142.3980   82.4210  224.3430 F   0  0  0  0  0  0  0  0  0  0  0  0
  143.1350   80.4110  223.3920 C   0  0  0  0  0  0  0  0  0  0  0  0
  142.9060   79.1450  222.8720 C   0  0  0  0  0  0  0  0  0  0  0  0
  141.6210   78.6890  222.8200 C   0  0  0  0  0  0  0  0  0  0  0  0
  141.4280   77.4480  222.3060 N   0  0  0  0  0  0  0  0  0  0  0  0
  141.9620   75.3150  221.1120 H   0  0  0  0  0  0  0  0  0  0  0  0
  139.8742   73.1400  221.1961 H   0  0  0  0  0  0  0  0  0  0  0  0
  140.3718   73.6690  219.5565 H   0  0  0  0  0  0  0  0  0  0  0  0
  143.7384   71.4743  219.0187 H   0  0  0  0  0  0  0  0  0  0  0  0
  143.5543   72.9158  218.0417 H   0  0  0  0  0  0  0  0  0  0  0  0
  145.7898   73.5246  218.5814 H   0  0  0  0  0  0  0  0  0  0  0  0
  145.9560   71.5290  220.5160 H   0  0  0  0  0  0  0  0  0  0  0  0
  145.2705   73.0549  221.5433 H   0  0  0  0  0  0  0  0  0  0  0  0
  146.0622   74.4228  220.8101 H   0  0  0  0  0  0  0  0  0  0  0  0
  143.5619   74.9524  221.4443 H   0  0  0  0  0  0  0  0  0  0  0  0
  144.6185   76.0754  219.5783 H   0  0  0  0  0  0  0  0  0  0  0  0
  143.8987   74.6858  218.5377 H   0  0  0  0  0  0  0  0  0  0  0  0
  143.4562   75.9660  217.2392 H   0  0  0  0  0  0  0  0  0  0  0  0
  141.7202   75.5666  217.3348 H   0  0  0  0  0  0  0  0  0  0  0  0
  143.0695   78.2381  217.1948 H   0  0  0  0  0  0  0  0  0  0  0  0
  141.4947   77.8008  216.5944 H   0  0  0  0  0  0  0  0  0  0  0  0
  140.5297   77.8353  218.9122 H   0  0  0  0  0  0  0  0  0  0  0  0
  140.2714   79.3886  220.6642 H   0  0  0  0  0  0  0  0  0  0  0  0
  140.1753   81.8544  221.0397 H   0  0  0  0  0  0  0  0  0  0  0  0
  141.4375   83.3405  219.5008 H   0  0  0  0  0  0  0  0  0  0  0  0
  142.7564   82.4140  217.6479 H   0  0  0  0  0  0  0  0  0  0  0  0
  142.8496   79.9589  217.2812 H   0  0  0  0  0  0  0  0  0  0  0  0
  143.5407   77.8721  219.7465 H   0  0  0  0  0  0  0  0  0  0  0  0
  142.2231   77.3966  220.7856 H   0  0  0  0  0  0  0  0  0  0  0  0
  138.0895   77.3150  222.6250 H   0  0  0  0  0  0  0  0  0  0  0  0
  138.4623   79.5903  223.5669 H   0  0  0  0  0  0  0  0  0  0  0  0
  139.9403   81.3530  224.1612 H   0  0  0  0  0  0  0  0  0  0  0  0
  144.1650   80.7939  223.4408 H   0  0  0  0  0  0  0  0  0  0  0  0
  143.7395   78.5246  222.5108 H   0  0  0  0  0  0  0  0  0  0  0  0
  1  2  2  0
  2  3  1  0
  3  4  1  0
  4  5  1  0
  5  6  2  0
  5  7  1  0
  7  8  1  0
  8  9  1  0
  9 10  1  0
  9 11  1  0
 11 12  1  0
 12 13  1  0
 13 14  1  0
 14 15  1  0
 15 16  1  0
 16 17  1  0
 17 18  1  0
 18 19  2  0
 19 20  1  0
 20 21  2  0
 21 22  1  0
 22 23  2  0
 17 24  1  0
  2 25  1  0
 25 26  2  0
 26 27  1  0
 27 28  2  0
 28 29  1  0
 29 30  2  0
 30 31  1  0
 30 32  1  0
 32 33  2  0
 33 34  1  0
 34 35  2  0
 12  7  1  0
 24 14  1  0
 35 25  1  0
 23 18  1  0
 34 28  1  0
  3 36  1  0
  4 37  1  0
  4 38  1  0
  8 39  1  0
  8 40  1  0
  9 41  1  6
 10 42  1  0
 11 43  1  0
 11 44  1  0
 12 45  1  1
 13 46  1  0
 13 47  1  0
 15 48  1  0
 15 49  1  0
 16 50  1  0
 16 51  1  0
 17 52  1  1
 19 53  1  0
 20 54  1  0
 21 55  1  0
 22 56  1  0
 23 57  1  0
 24 58  1  0
 24 59  1  0
 26 60  1  0
 27 61  1  0
 29 62  1  0
 32 63  1  0
 33 64  1  0
M  END
>  <smiles>  (5) 
O=C(NCC(=O)N1C[C@H](O)C[C@H]1CN1CC[C@H](c2ccccc2)C1)c1ccc2cc(F)ccc2n1

>  <score_type>  (5) 
oracle

>  <origin>  (5) 
autodockgpu

>  <m_score__min__energy>  (5) 
-9.5500000000000007

>  <m_primary>  (5) 
energy

>  <rmsd>  (5) 
7.2152613064752495

>  <m_score__min__rmsd>  (5) 
7.2152613064752495

>  <meeko>  (5) 
{"free_energy": -7.92, "intermolecular_energy": -10.31, "internal_energy": -4.19, "cluster_size": 27, "cluster_id": 5, "rank_in_cluster": 4}

>  <energy>  (5) 
-7.96

>  <cluster_rmsd>  (5) 
1.81

>  <cluster>  (5) 
1

$$$$

     RDKit          3D

 64 68  0  0  0  0  0  0  0  0999 V2000
  139.4180   74.3520  222.3450 O   0  0  0  0  0  0  0  0  0  0  0  0
  140.1110   75.1950  221.7070 C   0  0  0  0  0  0  0  0  0  0  0  0
  140.7790   74.7990  220.5070 N   0  0  0  0  0  0  0  0  0  0  0  0
  140.6120   73.4210  220.0920 C   0  0  0  0  0  0  0  0  0  0  0  0
  141.8570   72.6710  220.3910 C   0  0  0  0  0  0  0  0  0  0  0  0
  141.8830   71.5670  220.9890 O   0  0  0  0  0  0  0  0  0  0  0  0
  143.1070   73.2120  219.9860 N   0  0  0  0  0  0  0  0  0  0  0  0
  144.0700   72.6380  219.0500 C   0  0  0  0  0  0  0  0  0  0  0  0
  145.3900   73.1470  219.5670 C   0  0  2  0  0  0  0  0  0  0  0  0
  146.1600   72.0370  219.9100 O   0  0  0  0  0  0  0  0  0  0  0  0
  145.0580   73.9760  220.8040 C   0  0  0  0  0  0  0  0  0  0  0  0
  143.6890   74.5120  220.4560 C   0  0  1  0  0  0  0  0  0  0  0  0
  143.7200   75.4070  219.2780 C   0  0  0  0  0  0  0  0  0  0  0  0
  142.5870   76.1990  218.9600 N   0  0  0  0  0  0  0  0  0  0  0  0
  142.6020   76.4220  217.5190 C   0  0  0  0  0  0  0  0  0  0  0  0
  142.3460   77.8730  217.2800 C   0  0  0  0  0  0  0  0  0  0  0  0
  141.6610   78.2740  218.5650 C   0  0  2  0  0  0  0  0  0  0  0  0
  141.6780   79.7170  218.8040 C   0  0  0  0  0  0  0  0  0  0  0  0
  142.3640   80.5220  217.8980 C   0  0  0  0  0  0  0  0  0  0  0  0
  142.4170   81.8930  218.0720 C   0  0  0  0  0  0  0  0  0  0  0  0
  141.7710   82.4290  219.1660 C   0  0  0  0  0  0  0  0  0  0  0  0
  141.0950   81.6370  220.0590 C   0  0  0  0  0  0  0  0  0  0  0  0
  141.0470   80.2700  219.8770 C   0  0  0  0  0  0  0  0  0  0  0  0
  142.5080   77.4850  219.5770 C   0  0  0  0  0  0  0  0  0  0  0  0
  140.2350   76.5810  222.1920 C   0  0  0  0  0  0  0  0  0  0  0  0
  139.0960   77.2370  222.6070 C   0  0  0  0  0  0  0  0  0  0  0  0
  139.1810   78.5340  223.0650 C   0  0  0  0  0  0  0  0  0  0  0  0
  140.4220   79.1460  223.0940 C   0  0  0  0  0  0  0  0  0  0  0  0
  140.4830   80.4500  223.5590 C   0  0  0  0  0  0  0  0  0  0  0  0
  141.7510   81.0290  223.5720 C   0  0  0  0  0  0  0  0  0  0  0  0
  141.9340   82.2960  224.0040 F   0  0  0  0  0  0  0  0  0  0  0  0
  142.8540   80.3210  223.1430 C   0  0  0  0  0  0  0  0  0  0  0  0
  142.7440   79.0150  222.6860 C   0  0  0  0  0  0  0  0  0  0  0  0
  141.5080   78.4380  222.6680 C   0  0  0  0  0  0  0  0  0  0  0  0
  141.4310   77.1600  222.2160 N   0  0  0  0  0  0  0  0  0  0  0  0
  141.3450   75.5010  219.9900 H   0  0  0  0  0  0  0  0  0  0  0  0
  139.7702   72.9709  220.6386 H   0  0  0  0  0  0  0  0  0  0  0  0
  140.4048   73.3810  219.0124 H   0  0  0  0  0  0  0  0  0  0  0  0
  144.0346   71.5388  219.0709 H   0  0  0  0  0  0  0  0  0  0  0  0
  143.8773   72.9179  218.0038 H   0  0  0  0  0  0  0  0  0  0  0  0
  145.9450   73.7527  218.8355 H   0  0  0  0  0  0  0  0  0  0  0  0
  145.9470   71.8240  220.8590 H   0  0  0  0  0  0  0  0  0  0  0  0
  145.0257   73.3510  221.7086 H   0  0  0  0  0  0  0  0  0  0  0  0
  145.7989   74.7571  221.0298 H   0  0  0  0  0  0  0  0  0  0  0  0
  143.1955   75.0766  221.2608 H   0  0  0  0  0  0  0  0  0  0  0  0
  144.5605   76.1006  219.4280 H   0  0  0  0  0  0  0  0  0  0  0  0
  143.7865   74.7084  218.4309 H   0  0  0  0  0  0  0  0  0  0  0  0
  143.5828   76.1421  217.1071 H   0  0  0  0  0  0  0  0  0  0  0  0
  141.8321   75.8095  217.0270 H   0  0  0  0  0  0  0  0  0  0  0  0
  143.2846   78.4280  217.1349 H   0  0  0  0  0  0  0  0  0  0  0  0
  141.7574   78.0812  216.3743 H   0  0  0  0  0  0  0  0  0  0  0  0
  140.5837   78.0536  218.5960 H   0  0  0  0  0  0  0  0  0  0  0  0
  142.8688   80.0628  217.0353 H   0  0  0  0  0  0  0  0  0  0  0  0
  142.9571   82.5351  217.3607 H   0  0  0  0  0  0  0  0  0  0  0  0
  141.7984   83.5169  219.3263 H   0  0  0  0  0  0  0  0  0  0  0  0
  140.5895   82.0931  220.9230 H   0  0  0  0  0  0  0  0  0  0  0  0
  140.5046   79.6332  220.5913 H   0  0  0  0  0  0  0  0  0  0  0  0
  143.5057   77.9322  219.6978 H   0  0  0  0  0  0  0  0  0  0  0  0
  142.0824   77.4648  220.5911 H   0  0  0  0  0  0  0  0  0  0  0  0
  138.1221   76.7268  222.5727 H   0  0  0  0  0  0  0  0  0  0  0  0
  138.2817   79.0714  223.4004 H   0  0  0  0  0  0  0  0  0  0  0  0
  139.5881   80.9934  223.8963 H   0  0  0  0  0  0  0  0  0  0  0  0
  143.8430   80.8020  223.1635 H   0  0  0  0  0  0  0  0  0  0  0  0
  143.6308   78.4595  222.3470 H   0  0  0  0  0  0  0  0  0  0  0  0
  1  2  2  0
  2  3  1  0
  3  4  1  0
  4  5  1  0
  5  6  2  0
  5  7  1  0
  7  8  1  0
  8  9  1  0
  9 10  1  0
  9 11  1  0
 11 12  1  0
 12 13  1  0
 13 14  1  0
 14 15  1  0
 15 16  1  0
 16 17  1  0
 17 18  1  0
 18 19  2  0
 19 20  1  0
 20 21  2  0
 21 22  1  0
 22 23  2  0
 17 24  1  0
  2 25  1  0
 25 26  2  0
 26 27  1  0
 27 28  2  0
 28 29  1  0
 29 30  2  0
 30 31  1  0
 30 32  1  0
 32 33  2  0
 33 34  1  0
 34 35  2  0
 12  7  1  0
 24 14  1  0
 35 25  1  0
 23 18  1  0
 34 28  1  0
  3 36  1  0
  4 37  1  0
  4 38  1  0
  8 39  1  0
  8 40  1  0
  9 41  1  6
 10 42  1  0
 11 43  1  0
 11 44  1  0
 12 45  1  1
 13 46  1  0
 13 47  1  0
 15 48  1  0
 15 49  1  0
 16 50  1  0
 16 51  1  0
 17 52  1  6
 19 53  1  0
 20 54  1  0
 21 55  1  0
 22 56  1  0
 23 57  1  0
 24 58  1  0
 24 59  1  0
 26 60  1  0
 27 61  1  0
 29 62  1  0
 32 63  1  0
 33 64  1  0
M  END
>  <smiles>  (6) 
O=C(NCC(=O)N1C[C@H](O)C[C@H]1CN1CC[C@H](c2ccccc2)C1)c1ccc2cc(F)ccc2n1

>  <score_type>  (6) 
oracle

>  <origin>  (6) 
autodockgpu

>  <m_score__min__energy>  (6) 
-9.5500000000000007

>  <m_primary>  (6) 
energy

>  <rmsd>  (6) 
7.2030947596250305

>  <m_score__min__rmsd>  (6) 
7.2030947596250305

>  <meeko>  (6) 
{"free_energy": -7.99, "intermolecular_energy": -10.38, "internal_energy": -4.11, "cluster_size": 27, "cluster_id": 5, "rank_in_cluster": 2}

>  <energy>  (6) 
-7.91

>  <cluster_rmsd>  (6) 
1.85

>  <cluster>  (6) 
1

$$$$

     RDKit          3D

 64 68  0  0  0  0  0  0  0  0999 V2000
  143.0600   75.7140  218.0190 O   0  0  0  0  0  0  0  0  0  0  0  0
  142.9200   76.1430  219.2000 C   0  0  0  0  0  0  0  0  0  0  0  0
  143.1440   75.2630  220.3040 N   0  0  0  0  0  0  0  0  0  0  0  0
  143.5250   73.9010  219.9860 C   0  0  0  0  0  0  0  0  0  0  0  0
  142.4720   72.9770  220.4720 C   0  0  0  0  0  0  0  0  0  0  0  0
  142.6720   71.7680  220.7450 O   0  0  0  0  0  0  0  0  0  0  0  0
  141.1490   73.4640  220.6500 N   0  0  0  0  0  0  0  0  0  0  0  0
  140.2480   74.0000  219.6340 C   0  0  0  0  0  0  0  0  0  0  0  0
  139.4190   74.9950  220.4040 C   0  0  2  0  0  0  0  0  0  0  0  0
  139.6350   76.2480  219.8340 O   0  0  0  0  0  0  0  0  0  0  0  0
  139.9500   74.9540  221.8340 C   0  0  0  0  0  0  0  0  0  0  0  0
  140.4060   73.5190  221.9520 C   0  0  1  0  0  0  0  0  0  0  0  0
  139.2830   72.5620  221.8340 C   0  0  0  0  0  0  0  0  0  0  0  0
  139.3600   71.2980  222.4720 N   0  0  0  0  0  0  0  0  0  0  0  0
  138.0190   70.9630  222.9380 C   0  0  0  0  0  0  0  0  0  0  0  0
  138.1340   70.4820  224.3470 C   0  0  0  0  0  0  0  0  0  0  0  0
  139.5820   70.0580  224.4040 C   0  0  2  0  0  0  0  0  0  0  0  0
  140.1000   69.9490  225.7670 C   0  0  0  0  0  0  0  0  0  0  0  0
  140.5030   71.1170  226.4090 C   0  0  0  0  0  0  0  0  0  0  0  0
  141.0030   71.0780  227.6980 C   0  0  0  0  0  0  0  0  0  0  0  0
  141.0870   69.8490  228.3190 C   0  0  0  0  0  0  0  0  0  0  0  0
  140.6900   68.6980  227.6880 C   0  0  0  0  0  0  0  0  0  0  0  0
  140.1920   68.7470  226.4020 C   0  0  0  0  0  0  0  0  0  0  0  0
  140.2280   71.2000  223.6020 C   0  0  0  0  0  0  0  0  0  0  0  0
  142.5300   77.5420  219.4470 C   0  0  0  0  0  0  0  0  0  0  0  0
  142.5620   78.4290  218.3920 C   0  0  0  0  0  0  0  0  0  0  0  0
  142.2020   79.7450  218.5920 C   0  0  0  0  0  0  0  0  0  0  0  0
  141.8150   80.1400  219.8610 C   0  0  0  0  0  0  0  0  0  0  0  0
  141.4580   81.4660  220.0380 C   0  0  0  0  0  0  0  0  0  0  0  0
  141.0750   81.8230  221.3310 C   0  0  0  0  0  0  0  0  0  0  0  0
  140.7060   83.0890  221.6240 F   0  0  0  0  0  0  0  0  0  0  0  0
  141.0640   80.8890  222.3460 C   0  0  0  0  0  0  0  0  0  0  0  0
  141.4300   79.5690  222.1200 C   0  0  0  0  0  0  0  0  0  0  0  0
  141.8070   79.2090  220.8590 C   0  0  0  0  0  0  0  0  0  0  0  0
  142.1600   77.9120  220.6680 N   0  0  0  0  0  0  0  0  0  0  0  0
  143.0280   75.6260  221.2710 H   0  0  0  0  0  0  0  0  0  0  0  0
  143.6350   73.7940  218.8968 H   0  0  0  0  0  0  0  0  0  0  0  0
  144.4822   73.6607  220.4718 H   0  0  0  0  0  0  0  0  0  0  0  0
  140.8106   74.4942  218.8282 H   0  0  0  0  0  0  0  0  0  0  0  0
  139.6444   73.2251  219.1389 H   0  0  0  0  0  0  0  0  0  0  0  0
  138.3408   74.7780  220.3866 H   0  0  0  0  0  0  0  0  0  0  0  0
  140.4790   76.6000  220.2280 H   0  0  0  0  0  0  0  0  0  0  0  0
  140.7881   75.6533  221.9704 H   0  0  0  0  0  0  0  0  0  0  0  0
  139.2110   75.2509  222.5928 H   0  0  0  0  0  0  0  0  0  0  0  0
  140.9237   73.2746  222.8913 H   0  0  0  0  0  0  0  0  0  0  0  0
  138.3918   73.0668  222.2353 H   0  0  0  0  0  0  0  0  0  0  0  0
  139.2796   72.3060  220.7642 H   0  0  0  0  0  0  0  0  0  0  0  0
  137.3751   71.8540  222.8978 H   0  0  0  0  0  0  0  0  0  0  0  0
  137.5733   70.1849  222.3009 H   0  0  0  0  0  0  0  0  0  0  0  0
  137.9229   71.2881  225.0651 H   0  0  0  0  0  0  0  0  0  0  0  0
  137.4229   69.6843  224.6077 H   0  0  0  0  0  0  0  0  0  0  0  0
  139.7780   69.0506  224.0082 H   0  0  0  0  0  0  0  0  0  0  0  0
  140.4229   72.0811  225.8854 H   0  0  0  0  0  0  0  0  0  0  0  0
  141.3232   71.9968  228.2111 H   0  0  0  0  0  0  0  0  0  0  0  0
  141.4816   69.7909  229.3441 H   0  0  0  0  0  0  0  0  0  0  0  0
  140.7688   67.7323  228.2088 H   0  0  0  0  0  0  0  0  0  0  0  0
  139.8725   67.8248  225.8946 H   0  0  0  0  0  0  0  0  0  0  0  0
  140.2401   72.1364  224.1790 H   0  0  0  0  0  0  0  0  0  0  0  0
  141.2800   71.0166  223.3383 H   0  0  0  0  0  0  0  0  0  0  0  0
  142.8738   78.0879  217.3938 H   0  0  0  0  0  0  0  0  0  0  0  0
  142.2219   80.4654  217.7610 H   0  0  0  0  0  0  0  0  0  0  0  0
  141.4753   82.1918  219.2116 H   0  0  0  0  0  0  0  0  0  0  0  0
  140.7585   81.1969  223.3569 H   0  0  0  0  0  0  0  0  0  0  0  0
  141.4164   78.8322  222.9366 H   0  0  0  0  0  0  0  0  0  0  0  0
  1  2  2  0
  2  3  1  0
  3  4  1  0
  4  5  1  0
  5  6  2  0
  5  7  1  0
  7  8  1  0
  8  9  1  0
  9 10  1  0
  9 11  1  0
 11 12  1  0
 12 13  1  0
 13 14  1  0
 14 15  1  0
 15 16  1  0
 16 17  1  0
 17 18  1  0
 18 19  2  0
 19 20  1  0
 20 21  2  0
 21 22  1  0
 22 23  2  0
 17 24  1  0
  2 25  1  0
 25 26  2  0
 26 27  1  0
 27 28  2  0
 28 29  1  0
 29 30  2  0
 30 31  1  0
 30 32  1  0
 32 33  2  0
 33 34  1  0
 34 35  2  0
 12  7  1  0
 24 14  1  0
 35 25  1  0
 23 18  1  0
 34 28  1  0
  3 36  1  0
  4 37  1  0
  4 38  1  0
  8 39  1  0
  8 40  1  0
  9 41  1  1
 10 42  1  0
 11 43  1  0
 11 44  1  0
 12 45  1  1
 13 46  1  0
 13 47  1  0
 15 48  1  0
 15 49  1  0
 16 50  1  0
 16 51  1  0
 17 52  1  6
 19 53  1  0
 20 54  1  0
 21 55  1  0
 22 56  1  0
 23 57  1  0
 24 58  1  0
 24 59  1  0
 26 60  1  0
 27 61  1  0
 29 62  1  0
 32 63  1  0
 33 64  1  0
M  END
>  <smiles>  (7) 
O=C(NCC(=O)N1C[C@H](O)C[C@H]1CN1CC[C@H](c2ccccc2)C1)c1ccc2cc(F)ccc2n1

>  <score_type>  (7) 
oracle

>  <origin>  (7) 
autodockgpu

>  <m_score__min__energy>  (7) 
-9.5500000000000007

>  <m_primary>  (7) 
energy

>  <rmsd>  (7) 
9.403612532222757

>  <m_score__min__rmsd>  (7) 
9.403612532222757

>  <meeko>  (7) 
{"free_energy": -7.99, "intermolecular_energy": -10.37, "internal_energy": -3.23, "cluster_size": 5, "cluster_id": 6, "rank_in_cluster": 1}

>  <energy>  (7) 
-8.63

>  <cluster_rmsd>  (7) 
0.0

>  <cluster>  (7) 
2

$$$$

     RDKit          3D

 64 68  0  0  0  0  0  0  0  0999 V2000
  137.0930   69.9890  221.9640 O   0  0  0  0  0  0  0  0  0  0  0  0
  137.3390   70.7350  222.9550 C   0  0  0  0  0  0  0  0  0  0  0  0
  136.8390   72.0730  222.9750 N   0  0  0  0  0  0  0  0  0  0  0  0
  136.0640   72.4970  221.8260 C   0  0  0  0  0  0  0  0  0  0  0  0
  136.9700   72.6570  220.6620 C   0  0  0  0  0  0  0  0  0  0  0  0
  136.6630   72.3390  219.4860 O   0  0  0  0  0  0  0  0  0  0  0  0
  138.2680   73.1980  220.8620 N   0  0  0  0  0  0  0  0  0  0  0  0
  139.5290   72.4750  221.0020 C   0  0  0  0  0  0  0  0  0  0  0  0
  140.3380   73.3730  221.9010 C   0  0  2  0  0  0  0  0  0  0  0  0
  140.6340   72.6510  223.0560 O   0  0  0  0  0  0  0  0  0  0  0  0
  139.4330   74.5590  222.2230 C   0  0  0  0  0  0  0  0  0  0  0  0
  138.5980   74.6580  220.9680 C   0  0  1  0  0  0  0  0  0  0  0  0
  139.4120   74.9900  219.7780 C   0  0  0  0  0  0  0  0  0  0  0  0
  139.9650   76.2890  219.6380 N   0  0  0  0  0  0  0  0  0  0  0  0
  141.3630   76.1280  219.2560 C   0  0  0  0  0  0  0  0  0  0  0  0
  142.1770   77.0410  220.1120 C   0  0  0  0  0  0  0  0  0  0  0  0
  141.1430   78.0540  220.5410 C   0  0  2  0  0  0  0  0  0  0  0  0
  141.5380   78.8190  221.7230 C   0  0  0  0  0  0  0  0  0  0  0  0
  142.1780   80.0400  221.5280 C   0  0  0  0  0  0  0  0  0  0  0  0
  142.5770   80.8080  222.6070 C   0  0  0  0  0  0  0  0  0  0  0  0
  142.3200   80.3250  223.8720 C   0  0  0  0  0  0  0  0  0  0  0  0
  141.6880   79.1230  224.0660 C   0  0  0  0  0  0  0  0  0  0  0  0
  141.2930   78.3640  222.9830 C   0  0  0  0  0  0  0  0  0  0  0  0
  139.9460   77.1230  220.7970 C   0  0  0  0  0  0  0  0  0  0  0  0
  138.1360   70.2330  224.0890 C   0  0  0  0  0  0  0  0  0  0  0  0
  138.0950   68.8860  224.3770 C   0  0  0  0  0  0  0  0  0  0  0  0
  138.8300   68.3880  225.4310 C   0  0  0  0  0  0  0  0  0  0  0  0
  139.5960   69.2670  226.1780 C   0  0  0  0  0  0  0  0  0  0  0  0
  140.3260   68.7440  227.2320 C   0  0  0  0  0  0  0  0  0  0  0  0
  141.0830   69.6630  227.9590 C   0  0  0  0  0  0  0  0  0  0  0  0
  141.8350   69.2690  229.0100 F   0  0  0  0  0  0  0  0  0  0  0  0
  141.0820   71.0000  227.6220 C   0  0  0  0  0  0  0  0  0  0  0  0
  140.3340   71.4780  226.5550 C   0  0  0  0  0  0  0  0  0  0  0  0
  139.5890   70.5890  225.8370 C   0  0  0  0  0  0  0  0  0  0  0  0
  138.8670   71.0850  224.8000 N   0  0  0  0  0  0  0  0  0  0  0  0
  137.0460   72.6780  223.7950 H   0  0  0  0  0  0  0  0  0  0  0  0
  135.3001   71.7393  221.5969 H   0  0  0  0  0  0  0  0  0  0  0  0
  135.5695   73.4548  222.0453 H   0  0  0  0  0  0  0  0  0  0  0  0
  139.3705   71.4904  221.4661 H   0  0  0  0  0  0  0  0  0  0  0  0
  140.0200   72.2704  220.0391 H   0  0  0  0  0  0  0  0  0  0  0  0
  141.2786   73.7184  221.4472 H   0  0  0  0  0  0  0  0  0  0  0  0
  139.8050   72.6410  223.6070 H   0  0  0  0  0  0  0  0  0  0  0  0
  138.8079   74.3581  223.1055 H   0  0  0  0  0  0  0  0  0  0  0  0
  139.9781   75.4819  222.4702 H   0  0  0  0  0  0  0  0  0  0  0  0
  137.7898   75.4031  221.0085 H   0  0  0  0  0  0  0  0  0  0  0  0
  140.2542   74.2826  219.7617 H   0  0  0  0  0  0  0  0  0  0  0  0
  138.6881   74.9324  218.9518 H   0  0  0  0  0  0  0  0  0  0  0  0
  141.6771   75.0860  219.4157 H   0  0  0  0  0  0  0  0  0  0  0  0
  141.5018   76.3724  218.1925 H   0  0  0  0  0  0  0  0  0  0  0  0
  142.6012   76.5092  220.9764 H   0  0  0  0  0  0  0  0  0  0  0  0
  143.0472   77.4779  219.6002 H   0  0  0  0  0  0  0  0  0  0  0  0
  140.9556   78.8529  219.8085 H   0  0  0  0  0  0  0  0  0  0  0  0
  142.3683   80.3976  220.5053 H   0  0  0  0  0  0  0  0  0  0  0  0
  143.0833   81.7735  222.4601 H   0  0  0  0  0  0  0  0  0  0  0  0
  142.6288   80.9170  224.7462 H   0  0  0  0  0  0  0  0  0  0  0  0
  141.4955   78.7631  225.0875 H   0  0  0  0  0  0  0  0  0  0  0  0
  140.7850   77.4004  223.1362 H   0  0  0  0  0  0  0  0  0  0  0  0
  140.0869   76.5342  221.7154 H   0  0  0  0  0  0  0  0  0  0  0  0
  138.9945   77.6547  220.9451 H   0  0  0  0  0  0  0  0  0  0  0  0
  137.4773   68.2102  223.7673 H   0  0  0  0  0  0  0  0  0  0  0  0
  138.8086   67.3153  225.6737 H   0  0  0  0  0  0  0  0  0  0  0  0
  140.3101   67.6725  227.4802 H   0  0  0  0  0  0  0  0  0  0  0  0
  141.6876   71.7036  228.2120 H   0  0  0  0  0  0  0  0  0  0  0  0
  140.3417   72.5468  226.2949 H   0  0  0  0  0  0  0  0  0  0  0  0
  1  2  2  0
  2  3  1  0
  3  4  1  0
  4  5  1  0
  5  6  2  0
  5  7  1  0
  7  8  1  0
  8  9  1  0
  9 10  1  0
  9 11  1  0
 11 12  1  0
 12 13  1  0
 13 14  1  0
 14 15  1  0
 15 16  1  0
 16 17  1  0
 17 18  1  0
 18 19  2  0
 19 20  1  0
 20 21  2  0
 21 22  1  0
 22 23  2  0
 17 24  1  0
  2 25  1  0
 25 26  2  0
 26 27  1  0
 27 28  2  0
 28 29  1  0
 29 30  2  0
 30 31  1  0
 30 32  1  0
 32 33  2  0
 33 34  1  0
 34 35  2  0
 12  7  1  0
 24 14  1  0
 35 25  1  0
 23 18  1  0
 34 28  1  0
  3 36  1  0
  4 37  1  0
  4 38  1  0
  8 39  1  0
  8 40  1  0
  9 41  1  6
 10 42  1  0
 11 43  1  0
 11 44  1  0
 12 45  1  1
 13 46  1  0
 13 47  1  0
 15 48  1  0
 15 49  1  0
 16 50  1  0
 16 51  1  0
 17 52  1  6
 19 53  1  0
 20 54  1  0
 21 55  1  0
 22 56  1  0
 23 57  1  0
 24 58  1  0
 24 59  1  0
 26 60  1  0
 27 61  1  0
 29 62  1  0
 32 63  1  0
 33 64  1  0
M  END
>  <smiles>  (8) 
O=C(NCC(=O)N1C[C@H](O)C[C@H]1CN1CC[C@H](c2ccccc2)C1)c1ccc2cc(F)ccc2n1

>  <score_type>  (8) 
oracle

>  <origin>  (8) 
autodockgpu

>  <m_score__min__energy>  (8) 
-9.5500000000000007

>  <m_primary>  (8) 
energy

>  <rmsd>  (8) 
3.444977052159945

>  <m_score__min__rmsd>  (8) 
3.444977052159945

>  <meeko>  (8) 
{"free_energy": -8.16, "intermolecular_energy": -10.54, "internal_energy": -3.03, "cluster_size": 9, "cluster_id": 2, "rank_in_cluster": 7}

>  <energy>  (8) 
-8.58

>  <cluster_rmsd>  (8) 
0.52

>  <cluster>  (8) 
2

$$$$

     RDKit          3D

 64 68  0  0  0  0  0  0  0  0999 V2000
  139.9820   74.0160  222.3430 O   0  0  0  0  0  0  0  0  0  0  0  0
  140.3120   74.9220  221.5260 C   0  0  0  0  0  0  0  0  0  0  0  0
  140.7000   74.5690  220.1970 N   0  0  0  0  0  0  0  0  0  0  0  0
  140.6890   73.1580  219.8660 C   0  0  0  0  0  0  0  0  0  0  0  0
  141.9490   72.5390  220.3440 C   0  0  0  0  0  0  0  0  0  0  0  0
  141.9960   71.5750  221.1480 O   0  0  0  0  0  0  0  0  0  0  0  0
  143.1920   73.0470  219.8790 N   0  0  0  0  0  0  0  0  0  0  0  0
  144.1610   72.3870  219.0090 C   0  0  0  0  0  0  0  0  0  0  0  0
  145.4750   72.9640  219.4630 C   0  0  2  0  0  0  0  0  0  0  0  0
  146.2600   71.9070  219.9220 O   0  0  0  0  0  0  0  0  0  0  0  0
  145.1350   73.9190  220.6040 C   0  0  0  0  0  0  0  0  0  0  0  0
  143.7590   74.3970  220.2040 C   0  0  1  0  0  0  0  0  0  0  0  0
  143.7770   75.1600  218.9360 C   0  0  0  0  0  0  0  0  0  0  0  0
  142.6630   75.9600  218.5750 N   0  0  0  0  0  0  0  0  0  0  0  0
  142.7710   76.2360  217.1460 C   0  0  0  0  0  0  0  0  0  0  0  0
  142.5230   77.6950  216.9450 C   0  0  0  0  0  0  0  0  0  0  0  0
  141.7560   78.0460  218.1970 C   0  0  2  0  0  0  0  0  0  0  0  0
  141.7500   79.4790  218.4890 C   0  0  0  0  0  0  0  0  0  0  0  0
  140.8640   79.9450  219.4570 C   0  0  0  0  0  0  0  0  0  0  0  0
  140.8120   81.2900  219.7760 C   0  0  0  0  0  0  0  0  0  0  0  0
  141.6610   82.1450  219.1060 C   0  0  0  0  0  0  0  0  0  0  0  0
  142.5340   81.6870  218.1530 C   0  0  0  0  0  0  0  0  0  0  0  0
  142.5800   80.3430  217.8420 C   0  0  0  0  0  0  0  0  0  0  0  0
  142.5390   77.2220  219.2320 C   0  0  0  0  0  0  0  0  0  0  0  0
  140.3000   76.3380  221.9340 C   0  0  0  0  0  0  0  0  0  0  0  0
  139.0980   76.9070  222.2970 C   0  0  0  0  0  0  0  0  0  0  0  0
  139.0560   78.2300  222.6840 C   0  0  0  0  0  0  0  0  0  0  0  0
  140.2350   78.9550  222.6950 C   0  0  0  0  0  0  0  0  0  0  0  0
  140.1680   80.2810  223.0860 C   0  0  0  0  0  0  0  0  0  0  0  0
  141.3770   80.9760  223.0840 C   0  0  0  0  0  0  0  0  0  0  0  0
  141.4350   82.2750  223.4470 F   0  0  0  0  0  0  0  0  0  0  0  0
  142.5480   80.3500  222.7090 C   0  0  0  0  0  0  0  0  0  0  0  0
  142.5660   79.0170  222.3240 C   0  0  0  0  0  0  0  0  0  0  0  0
  141.3890   78.3280  222.3230 C   0  0  0  0  0  0  0  0  0  0  0  0
  141.4370   77.0250  221.9410 N   0  0  0  0  0  0  0  0  0  0  0  0
  140.9690   75.3230  219.5320 H   0  0  0  0  0  0  0  0  0  0  0  0
  139.8313   72.6717  220.3536 H   0  0  0  0  0  0  0  0  0  0  0  0
  140.6041   73.0330  218.7764 H   0  0  0  0  0  0  0  0  0  0  0  0
  144.1391   71.2962  219.1493 H   0  0  0  0  0  0  0  0  0  0  0  0
  143.9634   72.5501  217.9392 H   0  0  0  0  0  0  0  0  0  0  0  0
  146.0213   73.4928  218.6681 H   0  0  0  0  0  0  0  0  0  0  0  0
  145.9900   71.7400  220.8650 H   0  0  0  0  0  0  0  0  0  0  0  0
  145.1122   73.3958  221.5714 H   0  0  0  0  0  0  0  0  0  0  0  0
  145.8665   74.7290  220.7412 H   0  0  0  0  0  0  0  0  0  0  0  0
  143.2598   75.0390  220.9447 H   0  0  0  0  0  0  0  0  0  0  0  0
  144.6482   75.8301  218.9807 H   0  0  0  0  0  0  0  0  0  0  0  0
  143.7837   74.3734  218.1671 H   0  0  0  0  0  0  0  0  0  0  0  0
  143.7781   75.9746  216.7891 H   0  0  0  0  0  0  0  0  0  0  0  0
  142.0386   75.6396  216.5821 H   0  0  0  0  0  0  0  0  0  0  0  0
  143.4660   78.2576  216.8806 H   0  0  0  0  0  0  0  0  0  0  0  0
  141.9920   77.9350  216.0120 H   0  0  0  0  0  0  0  0  0  0  0  0
  140.6801   77.8216  218.1507 H   0  0  0  0  0  0  0  0  0  0  0  0
  140.1991   79.2367  219.9730 H   0  0  0  0  0  0  0  0  0  0  0  0
  140.1153   81.6655  220.5400 H   0  0  0  0  0  0  0  0  0  0  0  0
  141.6375   83.2193  219.3414 H   0  0  0  0  0  0  0  0  0  0  0  0
  143.1997   82.3928  217.6347 H   0  0  0  0  0  0  0  0  0  0  0  0
  143.2806   79.9734  217.0787 H   0  0  0  0  0  0  0  0  0  0  0  0
  143.5249   77.6663  219.4334 H   0  0  0  0  0  0  0  0  0  0  0  0
  142.0489   77.1638  220.2150 H   0  0  0  0  0  0  0  0  0  0  0  0
  138.1757   76.3079  222.2780 H   0  0  0  0  0  0  0  0  0  0  0  0
  138.1055   78.6992  222.9778 H   0  0  0  0  0  0  0  0  0  0  0  0
  139.2207   80.7567  223.3798 H   0  0  0  0  0  0  0  0  0  0  0  0
  143.4885   80.9205  222.7154 H   0  0  0  0  0  0  0  0  0  0  0  0
  143.5057   78.5284  222.0271 H   0  0  0  0  0  0  0  0  0  0  0  0
  1  2  2  0
  2  3  1  0
  3  4  1  0
  4  5  1  0
  5  6  2  0
  5  7  1  0
  7  8  1  0
  8  9  1  0
  9 10  1  0
  9 11  1  0
 11 12  1  0
 12 13  1  0
 13 14  1  0
 14 15  1  0
 15 16  1  0
 16 17  1  0
 17 18  1  0
 18 19  2  0
 19 20  1  0
 20 21  2  0
 21 22  1  0
 22 23  2  0
 17 24  1  0
  2 25  1  0
 25 26  2  0
 26 27  1  0
 27 28  2  0
 28 29  1  0
 29 30  2  0
 30 31  1  0
 30 32  1  0
 32 33  2  0
 33 34  1  0
 34 35  2  0
 12  7  1  0
 24 14  1  0
 35 25  1  0
 23 18  1  0
 34 28  1  0
  3 36  1  0
  4 37  1  0
  4 38  1  0
  8 39  1  0
  8 40  1  0
  9 41  1  6
 10 42  1  0
 11 43  1  0
 11 44  1  0
 12 45  1  1
 13 46  1  0
 13 47  1  0
 15 48  1  0
 15 49  1  0
 16 50  1  0
 16 51  1  0
 17 52  1  6
 19 53  1  0
 20 54  1  0
 21 55  1  0
 22 56  1  0
 23 57  1  0
 24 58  1  0
 24 59  1  0
 26 60  1  0
 27 61  1  0
 29 62  1  0
 32 63  1  0
 33 64  1  0
M  END
>  <smiles>  (9) 
O=C(NCC(=O)N1C[C@H](O)C[C@H]1CN1CC[C@H](c2ccccc2)C1)c1ccc2cc(F)ccc2n1

>  <score_type>  (9) 
oracle

>  <origin>  (9) 
autodockgpu

>  <m_score__min__energy>  (9) 
-9.5500000000000007

>  <m_primary>  (9) 
energy

>  <rmsd>  (9) 
7.163278329012927

>  <m_score__min__rmsd>  (9) 
7.163278329012927

>  <meeko>  (9) 
{"free_energy": -7.72, "intermolecular_energy": -10.11, "internal_energy": -4.22, "cluster_size": 27, "cluster_id": 5, "rank_in_cluster": 10}

>  <energy>  (9) 
-8.55

>  <cluster_rmsd>  (9) 
0.53

>  <cluster>  (9) 
2

$$$$

     RDKit          3D

 64 68  0  0  0  0  0  0  0  0999 V2000
  137.1030   70.0250  221.7900 O   0  0  0  0  0  0  0  0  0  0  0  0
  137.3850   70.7860  222.7590 C   0  0  0  0  0  0  0  0  0  0  0  0
  136.9450   72.1460  222.7430 N   0  0  0  0  0  0  0  0  0  0  0  0
  136.1860   72.5720  221.5850 C   0  0  0  0  0  0  0  0  0  0  0  0
  137.1160   72.8030  220.4530 C   0  0  0  0  0  0  0  0  0  0  0  0
  136.8290   72.5750  219.2520 O   0  0  0  0  0  0  0  0  0  0  0  0
  138.4160   73.3150  220.7160 N   0  0  0  0  0  0  0  0  0  0  0  0
  139.6500   72.5620  220.9220 C   0  0  0  0  0  0  0  0  0  0  0  0
  140.4340   73.4440  221.8570 C   0  0  2  0  0  0  0  0  0  0  0  0
  140.6550   72.7210  223.0280 O   0  0  0  0  0  0  0  0  0  0  0  0
  139.5430   74.6530  222.1290 C   0  0  0  0  0  0  0  0  0  0  0  0
  138.7750   74.7660  220.8340 C   0  0  1  0  0  0  0  0  0  0  0  0
  139.6560   75.0730  219.6850 C   0  0  0  0  0  0  0  0  0  0  0  0
  140.1870   76.3790  219.5290 N   0  0  0  0  0  0  0  0  0  0  0  0
  141.6110   76.2380  219.2420 C   0  0  0  0  0  0  0  0  0  0  0  0
  142.3480   77.2020  220.1110 C   0  0  0  0  0  0  0  0  0  0  0  0
  141.2670   78.2050  220.4350 C   0  0  2  0  0  0  0  0  0  0  0  0
  141.5690   79.0230  221.6080 C   0  0  0  0  0  0  0  0  0  0  0  0
  141.8770   80.3660  221.4070 C   0  0  0  0  0  0  0  0  0  0  0  0
  142.1740   81.1900  222.4780 C   0  0  0  0  0  0  0  0  0  0  0  0
  142.1530   80.6380  223.7420 C   0  0  0  0  0  0  0  0  0  0  0  0
  141.8490   79.3160  223.9410 C   0  0  0  0  0  0  0  0  0  0  0  0
  141.5540   78.5010  222.8660 C   0  0  0  0  0  0  0  0  0  0  0  0
  140.0770   77.2550  220.6520 C   0  0  0  0  0  0  0  0  0  0  0  0
  138.1640   70.2810  223.9040 C   0  0  0  0  0  0  0  0  0  0  0  0
  138.1070   68.9360  224.1960 C   0  0  0  0  0  0  0  0  0  0  0  0
  138.8240   68.4350  225.2610 C   0  0  0  0  0  0  0  0  0  0  0  0
  139.5880   69.3090  226.0150 C   0  0  0  0  0  0  0  0  0  0  0  0
  140.3000   68.7830  227.0800 C   0  0  0  0  0  0  0  0  0  0  0  0
  141.0570   69.6970  227.8130 C   0  0  0  0  0  0  0  0  0  0  0  0
  141.7920   69.3000  228.8740 F   0  0  0  0  0  0  0  0  0  0  0  0
  141.0720   71.0330  227.4720 C   0  0  0  0  0  0  0  0  0  0  0  0
  140.3420   71.5140  226.3940 C   0  0  0  0  0  0  0  0  0  0  0  0
  139.5980   70.6290  225.6700 C   0  0  0  0  0  0  0  0  0  0  0  0
  138.8940   71.1290  224.6220 N   0  0  0  0  0  0  0  0  0  0  0  0
  137.1820   72.7630  223.5460 H   0  0  0  0  0  0  0  0  0  0  0  0
  135.4608   71.7912  221.3124 H   0  0  0  0  0  0  0  0  0  0  0  0
  135.6468   73.5022  221.8172 H   0  0  0  0  0  0  0  0  0  0  0  0
  139.4441   71.5838  221.3810 H   0  0  0  0  0  0  0  0  0  0  0  0
  140.1837   72.3406  219.9859 H   0  0  0  0  0  0  0  0  0  0  0  0
  141.4042   73.7644  221.4495 H   0  0  0  0  0  0  0  0  0  0  0  0
  139.8120   72.7690  223.5560 H   0  0  0  0  0  0  0  0  0  0  0  0
  138.8697   74.4714  222.9797 H   0  0  0  0  0  0  0  0  0  0  0  0
  140.0972   75.5637  222.4000 H   0  0  0  0  0  0  0  0  0  0  0  0
  137.9839   75.5303  220.8315 H   0  0  0  0  0  0  0  0  0  0  0  0
  140.5134   74.3870  219.7498 H   0  0  0  0  0  0  0  0  0  0  0  0
  138.9880   74.9658  218.8177 H   0  0  0  0  0  0  0  0  0  0  0  0
  141.9373   75.2108  219.4618 H   0  0  0  0  0  0  0  0  0  0  0  0
  141.8119   76.4455  218.1806 H   0  0  0  0  0  0  0  0  0  0  0  0
  142.7281   76.7134  221.0203 H   0  0  0  0  0  0  0  0  0  0  0  0
  143.2388   77.6408  219.6379 H   0  0  0  0  0  0  0  0  0  0  0  0
  141.1090   78.9712  219.6617 H   0  0  0  0  0  0  0  0  0  0  0  0
  141.8843   80.7760  220.3863 H   0  0  0  0  0  0  0  0  0  0  0  0
  142.4191   82.2516  222.3264 H   0  0  0  0  0  0  0  0  0  0  0  0
  142.3854   81.2728  224.6098 H   0  0  0  0  0  0  0  0  0  0  0  0
  141.8401   78.9031  224.9605 H   0  0  0  0  0  0  0  0  0  0  0  0
  141.3092   77.4403  223.0241 H   0  0  0  0  0  0  0  0  0  0  0  0
  140.1730   76.7042  221.5993 H   0  0  0  0  0  0  0  0  0  0  0  0
  139.1066   77.7685  220.7203 H   0  0  0  0  0  0  0  0  0  0  0  0
  137.4909   68.2637  223.5808 H   0  0  0  0  0  0  0  0  0  0  0  0
  138.7899   67.3633  225.5067 H   0  0  0  0  0  0  0  0  0  0  0  0
  140.2705   67.7126  227.3319 H   0  0  0  0  0  0  0  0  0  0  0  0
  141.6761   71.7332  228.0677 H   0  0  0  0  0  0  0  0  0  0  0  0
  140.3628   72.5817  226.1301 H   0  0  0  0  0  0  0  0  0  0  0  0
  1  2  2  0
  2  3  1  0
  3  4  1  0
  4  5  1  0
  5  6  2  0
  5  7  1  0
  7  8  1  0
  8  9  1  0
  9 10  1  0
  9 11  1  0
 11 12  1  0
 12 13  1  0
 13 14  1  0
 14 15  1  0
 15 16  1  0
 16 17  1  0
 17 18  1  0
 18 19  2  0
 19 20  1  0
 20 21  2  0
 21 22  1  0
 22 23  2  0
 17 24  1  0
  2 25  1  0
 25 26  2  0
 26 27  1  0
 27 28  2  0
 28 29  1  0
 29 30  2  0
 30 31  1  0
 30 32  1  0
 32 33  2  0
 33 34  1  0
 34 35  2  0
 12  7  1  0
 24 14  1  0
 35 25  1  0
 23 18  1  0
 34 28  1  0
  3 36  1  0
  4 37  1  0
  4 38  1  0
  8 39  1  0
  8 40  1  0
  9 41  1  6
 10 42  1  0
 11 43  1  0
 11 44  1  0
 12 45  1  1
 13 46  1  0
 13 47  1  0
 15 48  1  0
 15 49  1  0
 16 50  1  0
 16 51  1  0
 17 52  1  6
 19 53  1  0
 20 54  1  0
 21 55  1  0
 22 56  1  0
 23 57  1  0
 24 58  1  0
 24 59  1  0
 26 60  1  0
 27 61  1  0
 29 62  1  0
 32 63  1  0
 33 64  1  0
M  END
>  <smiles>  (10) 
O=C(NCC(=O)N1C[C@H](O)C[C@H]1CN1CC[C@H](c2ccccc2)C1)c1ccc2cc(F)ccc2n1

>  <score_type>  (10) 
oracle

>  <origin>  (10) 
autodockgpu

>  <m_score__min__energy>  (10) 
-9.5500000000000007

>  <m_primary>  (10) 
energy

>  <rmsd>  (10) 
3.313441911692381

>  <m_score__min__rmsd>  (10) 
3.313441911692381

>  <meeko>  (10) 
{"free_energy": -8.11, "intermolecular_energy": -10.49, "internal_energy": -3.08, "cluster_size": 9, "cluster_id": 2, "rank_in_cluster": 9}

>  <energy>  (10) 
-8.22

>  <cluster_rmsd>  (10) 
1.88

>  <cluster>  (10) 
2

$$$$

     RDKit          3D

 64 68  0  0  0  0  0  0  0  0999 V2000
  139.1330   74.1010  222.3360 O   0  0  0  0  0  0  0  0  0  0  0  0
  140.1050   74.8190  221.9640 C   0  0  0  0  0  0  0  0  0  0  0  0
  141.2720   74.2020  221.4180 N   0  0  0  0  0  0  0  0  0  0  0  0
  141.2630   72.7560  221.3250 C   0  0  0  0  0  0  0  0  0  0  0  0
  142.0450   72.3420  220.1350 C   0  0  0  0  0  0  0  0  0  0  0  0
  141.6290   71.5320  219.2700 O   0  0  0  0  0  0  0  0  0  0  0  0
  143.3460   72.8790  219.9370 N   0  0  0  0  0  0  0  0  0  0  0  0
  144.2940   72.5600  218.8740 C   0  0  0  0  0  0  0  0  0  0  0  0
  145.6310   72.7650  219.5380 C   0  0  2  0  0  0  0  0  0  0  0  0
  146.3030   71.5450  219.5100 O   0  0  0  0  0  0  0  0  0  0  0  0
  145.3190   73.1770  220.9740 C   0  0  0  0  0  0  0  0  0  0  0  0
  144.0070   73.9060  220.8070 C   0  0  1  0  0  0  0  0  0  0  0  0
  144.1450   75.1270  219.9820 C   0  0  0  0  0  0  0  0  0  0  0  0
  142.9960   75.7260  219.4060 N   0  0  0  0  0  0  0  0  0  0  0  0
  143.1900   75.7370  217.9600 C   0  0  0  0  0  0  0  0  0  0  0  0
  142.8300   77.0980  217.4630 C   0  0  0  0  0  0  0  0  0  0  0  0
  141.9390   77.6000  218.5740 C   0  0  2  0  0  0  0  0  0  0  0  0
  141.7840   79.0540  218.5800 C   0  0  0  0  0  0  0  0  0  0  0  0
  142.7890   79.8210  217.9980 C   0  0  0  0  0  0  0  0  0  0  0  0
  142.6990   81.2020  217.9750 C   0  0  0  0  0  0  0  0  0  0  0  0
  141.5860   81.7850  218.5440 C   0  0  0  0  0  0  0  0  0  0  0  0
  140.5950   81.0300  219.1160 C   0  0  0  0  0  0  0  0  0  0  0  0
  140.6930   79.6530  219.1340 C   0  0  0  0  0  0  0  0  0  0  0  0
  142.7090   77.0710  219.7950 C   0  0  0  0  0  0  0  0  0  0  0  0
  140.0430   76.2860  222.0900 C   0  0  0  0  0  0  0  0  0  0  0  0
  138.8110   76.9000  222.0210 C   0  0  0  0  0  0  0  0  0  0  0  0
  138.7210   78.2710  222.1360 C   0  0  0  0  0  0  0  0  0  0  0  0
  139.8850   78.9980  222.3180 C   0  0  0  0  0  0  0  0  0  0  0  0
  139.7700   80.3730  222.4310 C   0  0  0  0  0  0  0  0  0  0  0  0
  140.9660   81.0680  222.6130 C   0  0  0  0  0  0  0  0  0  0  0  0
  140.9790   82.4130  222.7360 F   0  0  0  0  0  0  0  0  0  0  0  0
  142.1690   80.3960  222.6740 C   0  0  0  0  0  0  0  0  0  0  0  0
  142.2340   79.0150  222.5560 C   0  0  0  0  0  0  0  0  0  0  0  0
  141.0710   78.3250  222.3770 C   0  0  0  0  0  0  0  0  0  0  0  0
  141.1660   76.9750  222.2650 N   0  0  0  0  0  0  0  0  0  0  0  0
  142.0660   74.8020  221.1140 H   0  0  0  0  0  0  0  0  0  0  0  0
  141.7150   72.3257  222.2308 H   0  0  0  0  0  0  0  0  0  0  0  0
  140.2275   72.3968  221.2316 H   0  0  0  0  0  0  0  0  0  0  0  0
  144.1752   71.5194  218.5377 H   0  0  0  0  0  0  0  0  0  0  0  0
  144.1586   73.1770  217.9734 H   0  0  0  0  0  0  0  0  0  0  0  0
  146.2555   73.5252  219.0459 H   0  0  0  0  0  0  0  0  0  0  0  0
  146.3270   71.2110  220.4470 H   0  0  0  0  0  0  0  0  0  0  0  0
  145.2093   72.2993  221.6278 H   0  0  0  0  0  0  0  0  0  0  0  0
  146.1078   73.7812  221.4459 H   0  0  0  0  0  0  0  0  0  0  0  0
  143.5299   74.2197  221.7472 H   0  0  0  0  0  0  0  0  0  0  0  0
  144.6152   75.8900  220.6198 H   0  0  0  0  0  0  0  0  0  0  0  0
  144.7144   74.7789  219.1076 H   0  0  0  0  0  0  0  0  0  0  0  0
  144.2411   75.5172  217.7215 H   0  0  0  0  0  0  0  0  0  0  0  0
  142.5594   74.9733  217.4813 H   0  0  0  0  0  0  0  0  0  0  0  0
  143.7216   77.7316  217.3459 H   0  0  0  0  0  0  0  0  0  0  0  0
  142.3542   77.1013  216.4712 H   0  0  0  0  0  0  0  0  0  0  0  0
  140.8941   77.2628  218.5076 H   0  0  0  0  0  0  0  0  0  0  0  0
  143.6635   79.3248  217.5519 H   0  0  0  0  0  0  0  0  0  0  0  0
  143.4897   81.8149  217.5176 H   0  0  0  0  0  0  0  0  0  0  0  0
  141.4914   82.8809  218.5387 H   0  0  0  0  0  0  0  0  0  0  0  0
  139.7187   81.5230  219.5622 H   0  0  0  0  0  0  0  0  0  0  0  0
  139.8980   79.0455  219.5911 H   0  0  0  0  0  0  0  0  0  0  0  0
  143.6327   77.6439  219.9638 H   0  0  0  0  0  0  0  0  0  0  0  0
  142.1506   77.1498  220.7395 H   0  0  0  0  0  0  0  0  0  0  0  0
  137.9021   76.2979  221.8746 H   0  0  0  0  0  0  0  0  0  0  0  0
  137.7453   78.7763  222.0843 H   0  0  0  0  0  0  0  0  0  0  0  0
  138.7977   80.8849  222.3805 H   0  0  0  0  0  0  0  0  0  0  0  0
  143.0975   80.9676  222.8194 H   0  0  0  0  0  0  0  0  0  0  0  0
  143.1992   78.4898  222.6056 H   0  0  0  0  0  0  0  0  0  0  0  0
  1  2  2  0
  2  3  1  0
  3  4  1  0
  4  5  1  0
  5  6  2  0
  5  7  1  0
  7  8  1  0
  8  9  1  0
  9 10  1  0
  9 11  1  0
 11 12  1  0
 12 13  1  0
 13 14  1  0
 14 15  1  0
 15 16  1  0
 16 17  1  0
 17 18  1  0
 18 19  2  0
 19 20  1  0
 20 21  2  0
 21 22  1  0
 22 23  2  0
 17 24  1  0
  2 25  1  0
 25 26  2  0
 26 27  1  0
 27 28  2  0
 28 29  1  0
 29 30  2  0
 30 31  1  0
 30 32  1  0
 32 33  2  0
 33 34  1  0
 34 35  2  0
 12  7  1  0
 24 14  1  0
 35 25  1  0
 23 18  1  0
 34 28  1  0
  3 36  1  0
  4 37  1  0
  4 38  1  0
  8 39  1  0
  8 40  1  0
  9 41  1  6
 10 42  1  0
 11 43  1  0
 11 44  1  0
 12 45  1  1
 13 46  1  0
 13 47  1  0
 15 48  1  0
 15 49  1  0
 16 50  1  0
 16 51  1  0
 17 52  1  6
 19 53  1  0
 20 54  1  0
 21 55  1  0
 22 56  1  0
 23 57  1  0
 24 58  1  0
 24 59  1  0
 26 60  1  0
 27 61  1  0
 29 62  1  0
 32 63  1  0
 33 64  1  0
M  END
>  <smiles>  (11) 
O=C(NCC(=O)N1C[C@H](O)C[C@H]1CN1CC[C@H](c2ccccc2)C1)c1ccc2cc(F)ccc2n1

>  <score_type>  (11) 
oracle

>  <origin>  (11) 
autodockgpu

>  <m_score__min__energy>  (11) 
-9.5500000000000007

>  <m_primary>  (11) 
energy

>  <rmsd>  (11) 
7.4259432028450965

>  <m_score__min__rmsd>  (11) 
7.4259432028450965

>  <meeko>  (11) 
{"free_energy": -7.47, "intermolecular_energy": -9.86, "internal_energy": -4.2, "cluster_size": 27, "cluster_id": 5, "rank_in_cluster": 21}

>  <energy>  (11) 
-8.19

>  <cluster_rmsd>  (11) 
1.83

>  <cluster>  (11) 
2

$$$$

     RDKit          3D

 64 68  0  0  0  0  0  0  0  0999 V2000
  139.6700   74.0880  222.3520 O   0  0  0  0  0  0  0  0  0  0  0  0
  140.2290   74.9150  221.5760 C   0  0  0  0  0  0  0  0  0  0  0  0
  140.8790   74.4460  220.3930 N   0  0  0  0  0  0  0  0  0  0  0  0
  140.8550   73.0160  220.1580 C   0  0  0  0  0  0  0  0  0  0  0  0
  142.1290   72.4250  220.6340 C   0  0  0  0  0  0  0  0  0  0  0  0
  142.1990   71.5090  221.4900 O   0  0  0  0  0  0  0  0  0  0  0  0
  143.3570   72.9050  220.1050 N   0  0  0  0  0  0  0  0  0  0  0  0
  144.1850   72.2960  219.0680 C   0  0  0  0  0  0  0  0  0  0  0  0
  145.5770   72.7250  219.4480 C   0  0  2  0  0  0  0  0  0  0  0  0
  146.3180   71.5710  219.6970 O   0  0  0  0  0  0  0  0  0  0  0  0
  145.4210   73.5520  220.7210 C   0  0  0  0  0  0  0  0  0  0  0  0
  144.0550   74.1650  220.5250 C   0  0  1  0  0  0  0  0  0  0  0  0
  144.0110   75.0750  219.3590 C   0  0  0  0  0  0  0  0  0  0  0  0
  142.8350   75.8180  219.0840 N   0  0  0  0  0  0  0  0  0  0  0  0
  142.6520   75.8250  217.6370 C   0  0  0  0  0  0  0  0  0  0  0  0
  142.3460   77.2260  217.2230 C   0  0  0  0  0  0  0  0  0  0  0  0
  141.8360   77.8180  218.5150 C   0  0  2  0  0  0  0  0  0  0  0  0
  141.8650   79.2790  218.5340 C   0  0  0  0  0  0  0  0  0  0  0  0
  140.8910   79.9430  219.2760 C   0  0  0  0  0  0  0  0  0  0  0  0
  140.8660   81.3250  219.3300 C   0  0  0  0  0  0  0  0  0  0  0  0
  141.8320   82.0160  218.6300 C   0  0  0  0  0  0  0  0  0  0  0  0
  142.7920   81.3630  217.9000 C   0  0  0  0  0  0  0  0  0  0  0  0
  142.8100   79.9840  217.8510 C   0  0  0  0  0  0  0  0  0  0  0  0
  142.8220   77.1820  219.5090 C   0  0  0  0  0  0  0  0  0  0  0  0
  140.2140   76.3560  221.8830 C   0  0  0  0  0  0  0  0  0  0  0  0
  138.9970   76.9740  222.0780 C   0  0  0  0  0  0  0  0  0  0  0  0
  138.9520   78.3210  222.3660 C   0  0  0  0  0  0  0  0  0  0  0  0
  140.1430   79.0210  222.4510 C   0  0  0  0  0  0  0  0  0  0  0  0
  140.0730   80.3730  222.7410 C   0  0  0  0  0  0  0  0  0  0  0  0
  141.2950   81.0410  222.8170 C   0  0  0  0  0  0  0  0  0  0  0  0
  141.3510   82.3610  223.0930 F   0  0  0  0  0  0  0  0  0  0  0  0
  142.4800   80.3670  222.6110 C   0  0  0  0  0  0  0  0  0  0  0  0
  142.5010   79.0090  222.3220 C   0  0  0  0  0  0  0  0  0  0  0  0
  141.3110   78.3460  222.2450 C   0  0  0  0  0  0  0  0  0  0  0  0
  141.3630   77.0190  221.9610 N   0  0  0  0  0  0  0  0  0  0  0  0
  141.3350   75.1350  219.7610 H   0  0  0  0  0  0  0  0  0  0  0  0
  140.0133   72.5668  220.7054 H   0  0  0  0  0  0  0  0  0  0  0  0
  140.7339   72.8190  219.0826 H   0  0  0  0  0  0  0  0  0  0  0  0
  144.0920   71.2000  219.0812 H   0  0  0  0  0  0  0  0  0  0  0  0
  143.9001   72.6031  218.0509 H   0  0  0  0  0  0  0  0  0  0  0  0
  146.0851   73.3108  218.6679 H   0  0  0  0  0  0  0  0  0  0  0  0
  146.3320   71.4490  220.6850 H   0  0  0  0  0  0  0  0  0  0  0  0
  145.4497   72.9159  221.6180 H   0  0  0  0  0  0  0  0  0  0  0  0
  146.2226   74.2895  220.8744 H   0  0  0  0  0  0  0  0  0  0  0  0
  143.6802   74.7420  221.3832 H   0  0  0  0  0  0  0  0  0  0  0  0
  144.8232   75.8044  219.4945 H   0  0  0  0  0  0  0  0  0  0  0  0
  144.0843   74.3906  218.5010 H   0  0  0  0  0  0  0  0  0  0  0  0
  143.5719   75.4808  217.1417 H   0  0  0  0  0  0  0  0  0  0  0  0
  141.8311   75.1514  217.3501 H   0  0  0  0  0  0  0  0  0  0  0  0
  143.2486   77.7471  216.8711 H   0  0  0  0  0  0  0  0  0  0  0  0
  141.6373   77.3011  216.3851 H   0  0  0  0  0  0  0  0  0  0  0  0
  140.7757   77.6120  218.7234 H   0  0  0  0  0  0  0  0  0  0  0  0
  140.1343   79.3627  219.8244 H   0  0  0  0  0  0  0  0  0  0  0  0
  140.0993   81.8560  219.9132 H   0  0  0  0  0  0  0  0  0  0  0  0
  141.8328   83.1157  218.6576 H   0  0  0  0  0  0  0  0  0  0  0  0
  143.5505   81.9407  217.3514 H   0  0  0  0  0  0  0  0  0  0  0  0
  143.5797   79.4591  217.2662 H   0  0  0  0  0  0  0  0  0  0  0  0
  143.8207   77.6357  219.4267 H   0  0  0  0  0  0  0  0  0  0  0  0
  142.5366   77.3151  220.5630 H   0  0  0  0  0  0  0  0  0  0  0  0
  138.0653   76.3940  222.0040 H   0  0  0  0  0  0  0  0  0  0  0  0
  137.9895   78.8293  222.5250 H   0  0  0  0  0  0  0  0  0  0  0  0
  139.1142   80.8878  222.9013 H   0  0  0  0  0  0  0  0  0  0  0  0
  143.4301   80.9174  222.6770 H   0  0  0  0  0  0  0  0  0  0  0  0
  143.4524   78.4814  222.1594 H   0  0  0  0  0  0  0  0  0  0  0  0
  1  2  2  0
  2  3  1  0
  3  4  1  0
  4  5  1  0
  5  6  2  0
  5  7  1  0
  7  8  1  0
  8  9  1  0
  9 10  1  0
  9 11  1  0
 11 12  1  0
 12 13  1  0
 13 14  1  0
 14 15  1  0
 15 16  1  0
 16 17  1  0
 17 18  1  0
 18 19  2  0
 19 20  1  0
 20 21  2  0
 21 22  1  0
 22 23  2  0
 17 24  1  0
  2 25  1  0
 25 26  2  0
 26 27  1  0
 27 28  2  0
 28 29  1  0
 29 30  2  0
 30 31  1  0
 30 32  1  0
 32 33  2  0
 33 34  1  0
 34 35  2  0
 12  7  1  0
 24 14  1  0
 35 25  1  0
 23 18  1  0
 34 28  1  0
  3 36  1  0
  4 37  1  0
  4 38  1  0
  8 39  1  0
  8 40  1  0
  9 41  1  6
 10 42  1  0
 11 43  1  0
 11 44  1  0
 12 45  1  1
 13 46  1  0
 13 47  1  0
 15 48  1  0
 15 49  1  0
 16 50  1  0
 16 51  1  0
 17 52  1  1
 19 53  1  0
 20 54  1  0
 21 55  1  0
 22 56  1  0
 23 57  1  0
 24 58  1  0
 24 59  1  0
 26 60  1  0
 27 61  1  0
 29 62  1  0
 32 63  1  0
 33 64  1  0
M  END
>  <smiles>  (12) 
O=C(NCC(=O)N1C[C@H](O)C[C@H]1CN1CC[C@H](c2ccccc2)C1)c1ccc2cc(F)ccc2n1

>  <score_type>  (12) 
oracle

>  <origin>  (12) 
autodockgpu

>  <m_score__min__energy>  (12) 
-9.5500000000000007

>  <m_primary>  (12) 
energy

>  <rmsd>  (12) 
7.277162502890848

>  <m_score__min__rmsd>  (12) 
7.277162502890848

>  <meeko>  (12) 
{"free_energy": -7.64, "intermolecular_energy": -10.02, "internal_energy": -4.28, "cluster_size": 27, "cluster_id": 5, "rank_in_cluster": 16}

>  <energy>  (12) 
-8.18

>  <cluster_rmsd>  (12) 
1.35

>  <cluster>  (12) 
2

$$$$

     RDKit          3D

 64 68  0  0  0  0  0  0  0  0999 V2000
  139.8040   74.1400  221.0680 O   0  0  0  0  0  0  0  0  0  0  0  0
  140.3090   75.2480  221.4080 C   0  0  0  0  0  0  0  0  0  0  0  0
  141.7240   75.4330  221.3330 N   0  0  0  0  0  0  0  0  0  0  0  0
  142.5050   74.3080  220.8610 C   0  0  0  0  0  0  0  0  0  0  0  0
  143.5360   74.7980  219.9130 C   0  0  0  0  0  0  0  0  0  0  0  0
  144.7600   74.8730  220.1870 O   0  0  0  0  0  0  0  0  0  0  0  0
  143.1430   75.2130  218.6130 N   0  0  0  0  0  0  0  0  0  0  0  0
  142.6740   74.3790  217.5100 C   0  0  0  0  0  0  0  0  0  0  0  0
  143.1360   75.1350  216.2920 C   0  0  2  0  0  0  0  0  0  0  0  0
  144.0090   74.3060  215.5910 O   0  0  0  0  0  0  0  0  0  0  0  0
  143.8690   76.3640  216.8220 C   0  0  0  0  0  0  0  0  0  0  0  0
  143.1320   76.6280  218.1140 C   0  0  1  0  0  0  0  0  0  0  0  0
  141.7130   76.9810  217.8880 C   0  0  0  0  0  0  0  0  0  0  0  0
  141.1690   78.1460  218.4860 N   0  0  0  0  0  0  0  0  0  0  0  0
  141.8160   79.2980  217.8660 C   0  0  0  0  0  0  0  0  0  0  0  0
  142.2280   80.2300  218.9560 C   0  0  0  0  0  0  0  0  0  0  0  0
  141.3070   79.8120  220.0760 C   0  0  2  0  0  0  0  0  0  0  0  0
  141.7640   80.2460  221.3950 C   0  0  0  0  0  0  0  0  0  0  0  0
  141.3960   81.5170  221.8290 C   0  0  0  0  0  0  0  0  0  0  0  0
  141.8010   81.9850  223.0670 C   0  0  0  0  0  0  0  0  0  0  0  0
  142.5740   81.1530  223.8490 C   0  0  0  0  0  0  0  0  0  0  0  0
  142.9370   79.9010  223.4230 C   0  0  0  0  0  0  0  0  0  0  0  0
  142.5290   79.4430  222.1870 C   0  0  0  0  0  0  0  0  0  0  0  0
  141.3440   78.2850  219.8980 C   0  0  0  0  0  0  0  0  0  0  0  0
  139.4490   76.3480  221.8800 C   0  0  0  0  0  0  0  0  0  0  0  0
  138.1090   76.3190  221.5600 C   0  0  0  0  0  0  0  0  0  0  0  0
  137.2800   77.3340  221.9870 C   0  0  0  0  0  0  0  0  0  0  0  0
  137.8260   78.3640  222.7340 C   0  0  0  0  0  0  0  0  0  0  0  0
  136.9740   79.3730  223.1530 C   0  0  0  0  0  0  0  0  0  0  0  0
  137.5630   80.3910  223.9020 C   0  0  0  0  0  0  0  0  0  0  0  0
  136.8320   81.4280  224.3650 F   0  0  0  0  0  0  0  0  0  0  0  0
  138.9120   80.3640  224.1910 C   0  0  0  0  0  0  0  0  0  0  0  0
  139.7260   79.3300  223.7490 C   0  0  0  0  0  0  0  0  0  0  0  0
  139.1610   78.3290  223.0150 C   0  0  0  0  0  0  0  0  0  0  0  0
  139.9820   77.3320  222.5960 N   0  0  0  0  0  0  0  0  0  0  0  0
  142.1280   76.3490  221.6140 H   0  0  0  0  0  0  0  0  0  0  0  0
  142.9935   73.8146  221.7142 H   0  0  0  0  0  0  0  0  0  0  0  0
  141.8476   73.5864  220.3540 H   0  0  0  0  0  0  0  0  0  0  0  0
  143.1289   73.3783  217.5501 H   0  0  0  0  0  0  0  0  0  0  0  0
  141.5874   74.2086  217.5276 H   0  0  0  0  0  0  0  0  0  0  0  0
  142.3157   75.4339  215.6229 H   0  0  0  0  0  0  0  0  0  0  0  0
  144.4850   74.8820  214.9330 H   0  0  0  0  0  0  0  0  0  0  0  0
  144.9324   76.1490  217.0039 H   0  0  0  0  0  0  0  0  0  0  0  0
  143.8706   77.2167  216.1271 H   0  0  0  0  0  0  0  0  0  0  0  0
  143.5565   77.4327  218.7322 H   0  0  0  0  0  0  0  0  0  0  0  0
  141.5822   77.0910  216.8014 H   0  0  0  0  0  0  0  0  0  0  0  0
  141.1670   76.1641  218.3825 H   0  0  0  0  0  0  0  0  0  0  0  0
  142.7001   78.9707  217.2992 H   0  0  0  0  0  0  0  0  0  0  0  0
  141.1256   79.7994  217.1718 H   0  0  0  0  0  0  0  0  0  0  0  0
  143.2837   80.0863  219.2295 H   0  0  0  0  0  0  0  0  0  0  0  0
  142.1524   81.2941  218.6877 H   0  0  0  0  0  0  0  0  0  0  0  0
  140.3020   80.2568  220.0289 H   0  0  0  0  0  0  0  0  0  0  0  0
  140.7772   82.1555  221.1814 H   0  0  0  0  0  0  0  0  0  0  0  0
  141.5154   82.9884  223.4158 H   0  0  0  0  0  0  0  0  0  0  0  0
  142.9073   81.5016  224.8376 H   0  0  0  0  0  0  0  0  0  0  0  0
  143.5553   79.2600  224.0686 H   0  0  0  0  0  0  0  0  0  0  0  0
  142.8186   78.4388  221.8440 H   0  0  0  0  0  0  0  0  0  0  0  0
  142.3081   77.8678  220.2242 H   0  0  0  0  0  0  0  0  0  0  0  0
  140.5888   77.7507  220.4932 H   0  0  0  0  0  0  0  0  0  0  0  0
  137.7020   75.4879  220.9653 H   0  0  0  0  0  0  0  0  0  0  0  0
  136.2082   77.3259  221.7397 H   0  0  0  0  0  0  0  0  0  0  0  0
  135.9011   79.3711  222.9102 H   0  0  0  0  0  0  0  0  0  0  0  0
  139.3518   81.1792  224.7843 H   0  0  0  0  0  0  0  0  0  0  0  0
  140.8003   79.3183  223.9850 H   0  0  0  0  0  0  0  0  0  0  0  0
  1  2  2  0
  2  3  1  0
  3  4  1  0
  4  5  1  0
  5  6  2  0
  5  7  1  0
  7  8  1  0
  8  9  1  0
  9 10  1  0
  9 11  1  0
 11 12  1  0
 12 13  1  0
 13 14  1  0
 14 15  1  0
 15 16  1  0
 16 17  1  0
 17 18  1  0
 18 19  2  0
 19 20  1  0
 20 21  2  0
 21 22  1  0
 22 23  2  0
 17 24  1  0
  2 25  1  0
 25 26  2  0
 26 27  1  0
 27 28  2  0
 28 29  1  0
 29 30  2  0
 30 31  1  0
 30 32  1  0
 32 33  2  0
 33 34  1  0
 34 35  2  0
 12  7  1  0
 24 14  1  0
 35 25  1  0
 23 18  1  0
 34 28  1  0
  3 36  1  0
  4 37  1  0
  4 38  1  0
  8 39  1  0
  8 40  1  0
  9 41  1  6
 10 42  1  0
 11 43  1  0
 11 44  1  0
 12 45  1  1
 13 46  1  0
 13 47  1  0
 15 48  1  0
 15 49  1  0
 16 50  1  0
 16 51  1  0
 17 52  1  6
 19 53  1  0
 20 54  1  0
 21 55  1  0
 22 56  1  0
 23 57  1  0
 24 58  1  0
 24 59  1  0
 26 60  1  0
 27 61  1  0
 29 62  1  0
 32 63  1  0
 33 64  1  0
M  END
>  <smiles>  (13) 
O=C(NCC(=O)N1C[C@H](O)C[C@H]1CN1CC[C@H](c2ccccc2)C1)c1ccc2cc(F)ccc2n1

>  <score_type>  (13) 
oracle

>  <origin>  (13) 
autodockgpu

>  <m_score__min__energy>  (13) 
-9.5500000000000007

>  <m_primary>  (13) 
energy

>  <rmsd>  (13) 
6.409685117539346

>  <m_score__min__rmsd>  (13) 
6.409685117539346

>  <meeko>  (13) 
{"free_energy": -6.78, "intermolecular_energy": -9.16, "internal_energy": -3.68, "cluster_size": 1, "cluster_id": 7, "rank_in_cluster": 1}

>  <energy>  (13) 
-8.16

>  <cluster_rmsd>  (13) 
1.33

>  <cluster>  (13) 
2

$$$$

     RDKit          3D

 64 68  0  0  0  0  0  0  0  0999 V2000
  139.1190   73.7780  222.2960 O   0  0  0  0  0  0  0  0  0  0  0  0
  140.0670   74.5370  221.9450 C   0  0  0  0  0  0  0  0  0  0  0  0
  141.2020   73.9880  221.2730 N   0  0  0  0  0  0  0  0  0  0  0  0
  141.1900   72.5580  221.0350 C   0  0  0  0  0  0  0  0  0  0  0  0
  142.0310   72.2570  219.8510 C   0  0  0  0  0  0  0  0  0  0  0  0
  141.6560   71.5430  218.8880 O   0  0  0  0  0  0  0  0  0  0  0  0
  143.3430   72.7970  219.7760 N   0  0  0  0  0  0  0  0  0  0  0  0
  144.3540   72.5560  218.7510 C   0  0  0  0  0  0  0  0  0  0  0  0
  145.6480   72.6960  219.5090 C   0  0  2  0  0  0  0  0  0  0  0  0
  146.3160   71.4760  219.4240 O   0  0  0  0  0  0  0  0  0  0  0  0
  145.2500   72.9950  220.9520 C   0  0  0  0  0  0  0  0  0  0  0  0
  143.9540   73.7470  220.7640 C   0  0  1  0  0  0  0  0  0  0  0  0
  144.1470   75.0280  220.0490 C   0  0  0  0  0  0  0  0  0  0  0  0
  143.0380   75.6800  219.4520 N   0  0  0  0  0  0  0  0  0  0  0  0
  143.3000   75.7610  218.0190 C   0  0  0  0  0  0  0  0  0  0  0  0
  142.9900   77.1530  217.5780 C   0  0  0  0  0  0  0  0  0  0  0  0
  142.0560   77.6150  218.6700 C   0  0  2  0  0  0  0  0  0  0  0  0
  141.9270   79.0700  218.7450 C   0  0  0  0  0  0  0  0  0  0  0  0
  142.5900   79.8350  217.7890 C   0  0  0  0  0  0  0  0  0  0  0  0
  142.5070   81.2160  217.8090 C   0  0  0  0  0  0  0  0  0  0  0  0
  141.7500   81.8020  218.8020 C   0  0  0  0  0  0  0  0  0  0  0  0
  141.0970   81.0490  219.7430 C   0  0  0  0  0  0  0  0  0  0  0  0
  141.1850   79.6720  219.7160 C   0  0  0  0  0  0  0  0  0  0  0  0
  142.7570   77.0080  219.8970 C   0  0  0  0  0  0  0  0  0  0  0  0
  140.0090   75.9840  222.2220 C   0  0  0  0  0  0  0  0  0  0  0  0
  138.7740   76.5920  222.2900 C   0  0  0  0  0  0  0  0  0  0  0  0
  138.6880   77.9430  222.5480 C   0  0  0  0  0  0  0  0  0  0  0  0
  139.8590   78.6570  222.7330 C   0  0  0  0  0  0  0  0  0  0  0  0
  139.7490   80.0130  222.9900 C   0  0  0  0  0  0  0  0  0  0  0  0
  140.9520   80.6960  223.1700 C   0  0  0  0  0  0  0  0  0  0  0  0
  140.9690   82.0210  223.4270 F   0  0  0  0  0  0  0  0  0  0  0  0
  142.1580   80.0310  223.0900 C   0  0  0  0  0  0  0  0  0  0  0  0
  142.2190   78.6690  222.8290 C   0  0  0  0  0  0  0  0  0  0  0  0
  141.0480   77.9910  222.6510 C   0  0  0  0  0  0  0  0  0  0  0  0
  141.1390   76.6610  222.3980 N   0  0  0  0  0  0  0  0  0  0  0  0
  141.9750   74.6210  220.9870 H   0  0  0  0  0  0  0  0  0  0  0  0
  141.5918   72.0345  221.9151 H   0  0  0  0  0  0  0  0  0  0  0  0
  140.1589   72.2208  220.8531 H   0  0  0  0  0  0  0  0  0  0  0  0
  144.2526   71.5466  218.3257 H   0  0  0  0  0  0  0  0  0  0  0  0
  144.2765   73.2443  217.8965 H   0  0  0  0  0  0  0  0  0  0  0  0
  146.3043   73.4877  219.1185 H   0  0  0  0  0  0  0  0  0  0  0  0
  146.3420   71.1000  220.3460 H   0  0  0  0  0  0  0  0  0  0  0  0
  145.0964   72.0690  221.5255 H   0  0  0  0  0  0  0  0  0  0  0  0
  146.0109   73.5522  221.5182 H   0  0  0  0  0  0  0  0  0  0  0  0
  143.4215   73.9899  221.6954 H   0  0  0  0  0  0  0  0  0  0  0  0
  144.5786   75.7343  220.7734 H   0  0  0  0  0  0  0  0  0  0  0  0
  144.7690   74.7456  219.1868 H   0  0  0  0  0  0  0  0  0  0  0  0
  144.3567   75.5311  217.8179 H   0  0  0  0  0  0  0  0  0  0  0  0
  142.6782   75.0367  217.4725 H   0  0  0  0  0  0  0  0  0  0  0  0
  143.8978   77.7729  217.5371 H   0  0  0  0  0  0  0  0  0  0  0  0
  142.5632   77.2178  216.5663 H   0  0  0  0  0  0  0  0  0  0  0  0
  141.0096   77.3031  218.5367 H   0  0  0  0  0  0  0  0  0  0  0  0
  143.1857   79.3365  217.0101 H   0  0  0  0  0  0  0  0  0  0  0  0
  143.0280   81.8270  217.0571 H   0  0  0  0  0  0  0  0  0  0  0  0
  141.6685   82.8983  218.8396 H   0  0  0  0  0  0  0  0  0  0  0  0
  140.5003   81.5444  220.5230 H   0  0  0  0  0  0  0  0  0  0  0  0
  140.6614   79.0668  220.4707 H   0  0  0  0  0  0  0  0  0  0  0  0
  143.6817   77.5524  220.1390 H   0  0  0  0  0  0  0  0  0  0  0  0
  142.1554   77.0494  220.8170 H   0  0  0  0  0  0  0  0  0  0  0  0
  137.8591   76.0003  222.1387 H   0  0  0  0  0  0  0  0  0  0  0  0
  137.7099   78.4430  222.6056 H   0  0  0  0  0  0  0  0  0  0  0  0
  138.7745   80.5198  223.0486 H   0  0  0  0  0  0  0  0  0  0  0  0
  143.0924   80.5927  223.2363 H   0  0  0  0  0  0  0  0  0  0  0  0
  143.1866   78.1494  222.7672 H   0  0  0  0  0  0  0  0  0  0  0  0
  1  2  2  0
  2  3  1  0
  3  4  1  0
  4  5  1  0
  5  6  2  0
  5  7  1  0
  7  8  1  0
  8  9  1  0
  9 10  1  0
  9 11  1  0
 11 12  1  0
 12 13  1  0
 13 14  1  0
 14 15  1  0
 15 16  1  0
 16 17  1  0
 17 18  1  0
 18 19  2  0
 19 20  1  0
 20 21  2  0
 21 22  1  0
 22 23  2  0
 17 24  1  0
  2 25  1  0
 25 26  2  0
 26 27  1  0
 27 28  2  0
 28 29  1  0
 29 30  2  0
 30 31  1  0
 30 32  1  0
 32 33  2  0
 33 34  1  0
 34 35  2  0
 12  7  1  0
 24 14  1  0
 35 25  1  0
 23 18  1  0
 34 28  1  0
  3 36  1  0
  4 37  1  0
  4 38  1  0
  8 39  1  0
  8 40  1  0
  9 41  1  6
 10 42  1  0
 11 43  1  0
 11 44  1  0
 12 45  1  1
 13 46  1  0
 13 47  1  0
 15 48  1  0
 15 49  1  0
 16 50  1  0
 16 51  1  0
 17 52  1  6
 19 53  1  0
 20 54  1  0
 21 55  1  0
 22 56  1  0
 23 57  1  0
 24 58  1  0
 24 59  1  0
 26 60  1  0
 27 61  1  0
 29 62  1  0
 32 63  1  0
 33 64  1  0
M  END
>  <smiles>  (14) 
O=C(NCC(=O)N1C[C@H](O)C[C@H]1CN1CC[C@H](c2ccccc2)C1)c1ccc2cc(F)ccc2n1

>  <score_type>  (14) 
oracle

>  <origin>  (14) 
autodockgpu

>  <m_score__min__energy>  (14) 
-9.5500000000000007

>  <m_primary>  (14) 
energy

>  <rmsd>  (14) 
7.223597757136917

>  <m_score__min__rmsd>  (14) 
7.223597757136917

>  <meeko>  (14) 
{"free_energy": -7.53, "intermolecular_energy": -9.92, "internal_energy": -4.02, "cluster_size": 27, "cluster_id": 5, "rank_in_cluster": 19}

>  <energy>  (14) 
-8.14

>  <cluster_rmsd>  (14) 
1.38

>  <cluster>  (14) 
2

$$$$

     RDKit          3D

 64 68  0  0  0  0  0  0  0  0999 V2000
  143.1880   76.2010  217.6120 O   0  0  0  0  0  0  0  0  0  0  0  0
  143.0430   76.4710  218.8390 C   0  0  0  0  0  0  0  0  0  0  0  0
  143.3450   75.4790  219.8220 N   0  0  0  0  0  0  0  0  0  0  0  0
  143.8100   74.1960  219.3330 C   0  0  0  0  0  0  0  0  0  0  0  0
  142.7210   73.2000  219.4750 C   0  0  0  0  0  0  0  0  0  0  0  0
  142.8350   71.9880  219.1640 O   0  0  0  0  0  0  0  0  0  0  0  0
  141.4640   73.6140  219.9920 N   0  0  0  0  0  0  0  0  0  0  0  0
  140.3820   74.2910  219.2820 C   0  0  0  0  0  0  0  0  0  0  0  0
  139.7330   75.1170  220.3610 C   0  0  2  0  0  0  0  0  0  0  0  0
  139.8400   76.4550  219.9840 O   0  0  0  0  0  0  0  0  0  0  0  0
  140.5380   74.8480  221.6290 C   0  0  0  0  0  0  0  0  0  0  0  0
  140.9970   73.4260  221.4050 C   0  0  1  0  0  0  0  0  0  0  0  0
  139.8660   72.4740  221.3490 C   0  0  0  0  0  0  0  0  0  0  0  0
  139.8230   71.3720  222.2410 N   0  0  0  0  0  0  0  0  0  0  0  0
  138.4410   71.2250  222.6860 C   0  0  0  0  0  0  0  0  0  0  0  0
  138.4570   71.0490  224.1680 C   0  0  0  0  0  0  0  0  0  0  0  0
  139.8670   70.5600  224.4000 C   0  0  2  0  0  0  0  0  0  0  0  0
  140.3130   70.7120  225.7830 C   0  0  0  0  0  0  0  0  0  0  0  0
  140.2040   69.6130  226.6310 C   0  0  0  0  0  0  0  0  0  0  0  0
  140.6080   69.6960  227.9510 C   0  0  0  0  0  0  0  0  0  0  0  0
  141.1180   70.8980  228.3940 C   0  0  0  0  0  0  0  0  0  0  0  0
  141.2270   71.9820  227.5600 C   0  0  0  0  0  0  0  0  0  0  0  0
  140.8220   71.8890  226.2440 C   0  0  0  0  0  0  0  0  0  0  0  0
  140.6290   71.4650  223.4170 C   0  0  0  0  0  0  0  0  0  0  0  0
  142.5640   77.7990  219.2610 C   0  0  0  0  0  0  0  0  0  0  0  0
  142.5340   78.8140  218.3300 C   0  0  0  0  0  0  0  0  0  0  0  0
  142.0920   80.0670  218.6960 C   0  0  0  0  0  0  0  0  0  0  0  0
  141.6860   80.2710  220.0030 C   0  0  0  0  0  0  0  0  0  0  0  0
  141.2460   81.5370  220.3480 C   0  0  0  0  0  0  0  0  0  0  0  0
  140.8460   81.7000  221.6750 C   0  0  0  0  0  0  0  0  0  0  0  0
  140.3980   82.8910  222.1260 F   0  0  0  0  0  0  0  0  0  0  0  0
  140.8990   80.6440  222.5610 C   0  0  0  0  0  0  0  0  0  0  0  0
  141.3490   79.3910  222.1690 C   0  0  0  0  0  0  0  0  0  0  0  0
  141.7420   79.2200  220.8740 C   0  0  0  0  0  0  0  0  0  0  0  0
  142.1770   77.9840  220.5190 N   0  0  0  0  0  0  0  0  0  0  0  0
  143.2230   75.7110  220.8280 H   0  0  0  0  0  0  0  0  0  0  0  0
  144.0916   74.2856  218.2734 H   0  0  0  0  0  0  0  0  0  0  0  0
  144.6863   73.8729  219.9142 H   0  0  0  0  0  0  0  0  0  0  0  0
  140.7759   74.9301  218.4780 H   0  0  0  0  0  0  0  0  0  0  0  0
  139.6853   73.5964  218.7900 H   0  0  0  0  0  0  0  0  0  0  0  0
  138.6716   74.8762  220.5208 H   0  0  0  0  0  0  0  0  0  0  0  0
  140.7030   76.7870  220.3520 H   0  0  0  0  0  0  0  0  0  0  0  0
  141.3919   75.5360  221.7153 H   0  0  0  0  0  0  0  0  0  0  0  0
  139.9678   74.9918  222.5586 H   0  0  0  0  0  0  0  0  0  0  0  0
  141.6900   73.0388  222.1664 H   0  0  0  0  0  0  0  0  0  0  0  0
  138.9500   73.0582  221.5213 H   0  0  0  0  0  0  0  0  0  0  0  0
  139.9838   71.9983  220.3642 H   0  0  0  0  0  0  0  0  0  0  0  0
  137.8648   72.1240  222.4218 H   0  0  0  0  0  0  0  0  0  0  0  0
  137.9704   70.3574  222.2004 H   0  0  0  0  0  0  0  0  0  0  0  0
  138.2716   72.0008  224.6874 H   0  0  0  0  0  0  0  0  0  0  0  0
  137.6794   70.3693  224.5465 H   0  0  0  0  0  0  0  0  0  0  0  0
  140.0081   69.4814  224.2366 H   0  0  0  0  0  0  0  0  0  0  0  0
  139.7919   68.6683  226.2467 H   0  0  0  0  0  0  0  0  0  0  0  0
  140.5252   68.8311  228.6256 H   0  0  0  0  0  0  0  0  0  0  0  0
  141.4450   70.9900  229.4402 H   0  0  0  0  0  0  0  0  0  0  0  0
  141.6385   72.9281  227.9415 H   0  0  0  0  0  0  0  0  0  0  0  0
  140.9092   72.7567  225.5736 H   0  0  0  0  0  0  0  0  0  0  0  0
  140.6808   72.5003  223.7851 H   0  0  0  0  0  0  0  0  0  0  0  0
  141.6764   71.1673  223.2612 H   0  0  0  0  0  0  0  0  0  0  0  0
  142.8620   78.6248  217.2972 H   0  0  0  0  0  0  0  0  0  0  0  0
  142.0626   80.8879  217.9643 H   0  0  0  0  0  0  0  0  0  0  0  0
  141.2136   82.3627  219.6220 H   0  0  0  0  0  0  0  0  0  0  0  0
  140.5774   80.7985  223.6015 H   0  0  0  0  0  0  0  0  0  0  0  0
  141.3878   78.5566  222.8847 H   0  0  0  0  0  0  0  0  0  0  0  0
  1  2  2  0
  2  3  1  0
  3  4  1  0
  4  5  1  0
  5  6  2  0
  5  7  1  0
  7  8  1  0
  8  9  1  0
  9 10  1  0
  9 11  1  0
 11 12  1  0
 12 13  1  0
 13 14  1  0
 14 15  1  0
 15 16  1  0
 16 17  1  0
 17 18  1  0
 18 19  2  0
 19 20  1  0
 20 21  2  0
 21 22  1  0
 22 23  2  0
 17 24  1  0
  2 25  1  0
 25 26  2  0
 26 27  1  0
 27 28  2  0
 28 29  1  0
 29 30  2  0
 30 31  1  0
 30 32  1  0
 32 33  2  0
 33 34  1  0
 34 35  2  0
 12  7  1  0
 24 14  1  0
 35 25  1  0
 23 18  1  0
 34 28  1  0
  3 36  1  0
  4 37  1  0
  4 38  1  0
  8 39  1  0
  8 40  1  0
  9 41  1  1
 10 42  1  0
 11 43  1  0
 11 44  1  0
 12 45  1  1
 13 46  1  0
 13 47  1  0
 15 48  1  0
 15 49  1  0
 16 50  1  0
 16 51  1  0
 17 52  1  6
 19 53  1  0
 20 54  1  0
 21 55  1  0
 22 56  1  0
 23 57  1  0
 24 58  1  0
 24 59  1  0
 26 60  1  0
 27 61  1  0
 29 62  1  0
 32 63  1  0
 33 64  1  0
M  END
>  <smiles>  (15) 
O=C(NCC(=O)N1C[C@H](O)C[C@H]1CN1CC[C@H](c2ccccc2)C1)c1ccc2cc(F)ccc2n1

>  <score_type>  (15) 
oracle

>  <origin>  (15) 
autodockgpu

>  <m_score__min__energy>  (15) 
-9.5500000000000007

>  <m_primary>  (15) 
energy

>  <rmsd>  (15) 
9.499364474504127

>  <m_score__min__rmsd>  (15) 
9.499364474504127

>  <meeko>  (15) 
{"free_energy": -7.71, "intermolecular_energy": -10.09, "internal_energy": -3.25, "cluster_size": 5, "cluster_id": 6, "rank_in_cluster": 3}

>  <energy>  (15) 
-8.11

>  <cluster_rmsd>  (15) 
1.37

>  <cluster>  (15) 
2

$$$$

     RDKit          3D

 64 68  0  0  0  0  0  0  0  0999 V2000
  137.5160   72.2530  223.0760 O   0  0  0  0  0  0  0  0  0  0  0  0
  137.9210   71.0710  222.8850 C   0  0  0  0  0  0  0  0  0  0  0  0
  137.7280   70.4530  221.6110 N   0  0  0  0  0  0  0  0  0  0  0  0
  137.0600   71.2440  220.5970 C   0  0  0  0  0  0  0  0  0  0  0  0
  138.0810   71.8940  219.7400 C   0  0  0  0  0  0  0  0  0  0  0  0
  138.1080   71.8000  218.4880 O   0  0  0  0  0  0  0  0  0  0  0  0
  139.1010   72.6760  220.3460 N   0  0  0  0  0  0  0  0  0  0  0  0
  140.3230   72.2080  220.9950 C   0  0  0  0  0  0  0  0  0  0  0  0
  140.5770   73.2600  222.0420 C   0  0  2  0  0  0  0  0  0  0  0  0
  140.5410   72.6300  223.2840 O   0  0  0  0  0  0  0  0  0  0  0  0
  139.4300   74.2590  221.9100 C   0  0  0  0  0  0  0  0  0  0  0  0
  139.1160   74.1730  220.4350 C   0  0  1  0  0  0  0  0  0  0  0  0
  140.2450   74.6310  219.5940 C   0  0  0  0  0  0  0  0  0  0  0  0
  140.5190   76.0170  219.4690 N   0  0  0  0  0  0  0  0  0  0  0  0
  141.8950   76.1480  219.0040 C   0  0  0  0  0  0  0  0  0  0  0  0
  142.5630   77.1850  219.8460 C   0  0  0  0  0  0  0  0  0  0  0  0
  141.3770   77.9600  220.3680 C   0  0  2  0  0  0  0  0  0  0  0  0
  141.6840   78.7610  221.5520 C   0  0  0  0  0  0  0  0  0  0  0  0
  141.4380   78.2000  222.8020 C   0  0  0  0  0  0  0  0  0  0  0  0
  141.7070   78.9100  223.9590 C   0  0  0  0  0  0  0  0  0  0  0  0
  142.2230   80.1820  223.8300 C   0  0  0  0  0  0  0  0  0  0  0  0
  142.4670   80.7350  222.5990 C   0  0  0  0  0  0  0  0  0  0  0  0
  142.1960   80.0200  221.4500 C   0  0  0  0  0  0  0  0  0  0  0  0
  140.4070   76.8030  220.6570 C   0  0  0  0  0  0  0  0  0  0  0  0
  138.5920   70.3270  223.9660 C   0  0  0  0  0  0  0  0  0  0  0  0
  138.5690   68.9500  223.9290 C   0  0  0  0  0  0  0  0  0  0  0  0
  139.1880   68.2270  224.9260 C   0  0  0  0  0  0  0  0  0  0  0  0
  139.8200   68.9140  225.9480 C   0  0  0  0  0  0  0  0  0  0  0  0
  140.4340   68.1670  226.9390 C   0  0  0  0  0  0  0  0  0  0  0  0
  141.0590   68.8980  227.9490 C   0  0  0  0  0  0  0  0  0  0  0  0
  141.6910   68.2780  228.9690 F   0  0  0  0  0  0  0  0  0  0  0  0
  141.0470   70.2770  227.9320 C   0  0  0  0  0  0  0  0  0  0  0  0
  140.4180   70.9830  226.9160 C   0  0  0  0  0  0  0  0  0  0  0  0
  139.8030   70.2790  225.9220 C   0  0  0  0  0  0  0  0  0  0  0  0
  139.1950   70.9970  224.9430 N   0  0  0  0  0  0  0  0  0  0  0  0
  138.0660   69.4810  221.4650 H   0  0  0  0  0  0  0  0  0  0  0  0
  136.4229   70.5921  219.9814 H   0  0  0  0  0  0  0  0  0  0  0  0
  136.4350   72.0115  221.0769 H   0  0  0  0  0  0  0  0  0  0  0  0
  140.1724   71.2205  221.4556 H   0  0  0  0  0  0  0  0  0  0  0  0
  141.1629   72.0814  220.2961 H   0  0  0  0  0  0  0  0  0  0  0  0
  141.5458   73.7686  221.9296 H   0  0  0  0  0  0  0  0  0  0  0  0
  139.5900   72.6350  223.5800 H   0  0  0  0  0  0  0  0  0  0  0  0
  138.5660   73.9604  222.5218 H   0  0  0  0  0  0  0  0  0  0  0  0
  139.6799   75.2733  222.2546 H   0  0  0  0  0  0  0  0  0  0  0  0
  138.2367   74.7515  220.1154 H   0  0  0  0  0  0  0  0  0  0  0  0
  141.1539   74.1629  220.0000 H   0  0  0  0  0  0  0  0  0  0  0  0
  139.9378   74.3412  218.5783 H   0  0  0  0  0  0  0  0  0  0  0  0
  142.4188   75.1864  219.1086 H   0  0  0  0  0  0  0  0  0  0  0  0
  141.9168   76.4405  217.9438 H   0  0  0  0  0  0  0  0  0  0  0  0
  143.1367   76.7282  220.6659 H   0  0  0  0  0  0  0  0  0  0  0  0
  143.2959   77.7995  219.3026 H   0  0  0  0  0  0  0  0  0  0  0  0
  140.9901   78.7223  219.6758 H   0  0  0  0  0  0  0  0  0  0  0  0
  141.0258   77.1825  222.8708 H   0  0  0  0  0  0  0  0  0  0  0  0
  141.5152   78.4733  224.9502 H   0  0  0  0  0  0  0  0  0  0  0  0
  142.4440   80.7666  224.7352 H   0  0  0  0  0  0  0  0  0  0  0  0
  142.8801   81.7519  222.5271 H   0  0  0  0  0  0  0  0  0  0  0  0
  142.3913   80.4618  220.4618 H   0  0  0  0  0  0  0  0  0  0  0  0
  140.7186   76.2325  221.5444 H   0  0  0  0  0  0  0  0  0  0  0  0
  139.3800   77.1300  220.8770 H   0  0  0  0  0  0  0  0  0  0  0  0
  138.0580   68.4289  223.1060 H   0  0  0  0  0  0  0  0  0  0  0  0
  139.1799   67.1271  224.9098 H   0  0  0  0  0  0  0  0  0  0  0  0
  140.4292   67.0670  226.9303 H   0  0  0  0  0  0  0  0  0  0  0  0
  141.5468   70.8294  228.7413 H   0  0  0  0  0  0  0  0  0  0  0  0
  140.4153   72.0830  226.9122 H   0  0  0  0  0  0  0  0  0  0  0  0
  1  2  2  0
  2  3  1  0
  3  4  1  0
  4  5  1  0
  5  6  2  0
  5  7  1  0
  7  8  1  0
  8  9  1  0
  9 10  1  0
  9 11  1  0
 11 12  1  0
 12 13  1  0
 13 14  1  0
 14 15  1  0
 15 16  1  0
 16 17  1  0
 17 18  1  0
 18 19  2  0
 19 20  1  0
 20 21  2  0
 21 22  1  0
 22 23  2  0
 17 24  1  0
  2 25  1  0
 25 26  2  0
 26 27  1  0
 27 28  2  0
 28 29  1  0
 29 30  2  0
 30 31  1  0
 30 32  1  0
 32 33  2  0
 33 34  1  0
 34 35  2  0
 12  7  1  0
 24 14  1  0
 35 25  1  0
 23 18  1  0
 34 28  1  0
  3 36  1  0
  4 37  1  0
  4 38  1  0
  8 39  1  0
  8 40  1  0
  9 41  1  6
 10 42  1  0
 11 43  1  0
 11 44  1  0
 12 45  1  1
 13 46  1  0
 13 47  1  0
 15 48  1  0
 15 49  1  0
 16 50  1  0
 16 51  1  0
 17 52  1  6
 19 53  1  0
 20 54  1  0
 21 55  1  0
 22 56  1  0
 23 57  1  0
 24 58  1  0
 24 59  1  0
 26 60  1  0
 27 61  1  0
 29 62  1  0
 32 63  1  0
 33 64  1  0
M  END
>  <smiles>  (16) 
O=C(NCC(=O)N1C[C@H](O)C[C@H]1CN1CC[C@H](c2ccccc2)C1)c1ccc2cc(F)ccc2n1

>  <score_type>  (16) 
oracle

>  <origin>  (16) 
autodockgpu

>  <m_score__min__energy>  (16) 
-9.5500000000000007

>  <m_primary>  (16) 
energy

>  <rmsd>  (16) 
3.6150163602627754

>  <m_score__min__rmsd>  (16) 
3.6150163602627754

>  <meeko>  (16) 
{"free_energy": -7.91, "intermolecular_energy": -10.3, "internal_energy": -3.3, "cluster_size": 6, "cluster_id": 1, "rank_in_cluster": 6}

>  <energy>  (16) 
-8.54

>  <cluster_rmsd>  (16) 
0.0

>  <cluster>  (16) 
3

$$$$

     RDKit          3D

 64 68  0  0  0  0  0  0  0  0999 V2000
  138.8360   77.1980  218.5740 O   0  0  0  0  0  0  0  0  0  0  0  0
  140.0420   77.0570  218.9250 C   0  0  0  0  0  0  0  0  0  0  0  0
  140.7990   75.9510  218.4280 N   0  0  0  0  0  0  0  0  0  0  0  0
  140.1140   75.0420  217.5310 C   0  0  0  0  0  0  0  0  0  0  0  0
  139.7050   73.8330  218.2860 C   0  0  0  0  0  0  0  0  0  0  0  0
  139.7570   72.6660  217.8230 O   0  0  0  0  0  0  0  0  0  0  0  0
  139.2220   73.9750  219.6150 N   0  0  0  0  0  0  0  0  0  0  0  0
  137.9660   74.5760  220.0530 C   0  0  0  0  0  0  0  0  0  0  0  0
  138.3090   75.1320  221.4100 C   0  0  2  0  0  0  0  0  0  0  0  0
  138.1110   76.5100  221.3600 O   0  0  0  0  0  0  0  0  0  0  0  0
  139.7840   74.8060  221.6280 C   0  0  0  0  0  0  0  0  0  0  0  0
  139.9320   73.5170  220.8550 C   0  0  1  0  0  0  0  0  0  0  0  0
  139.1150   72.4240  221.4260 C   0  0  0  0  0  0  0  0  0  0  0  0
  139.7320   71.4110  222.2040 N   0  0  0  0  0  0  0  0  0  0  0  0
  138.7150   70.4060  222.4950 C   0  0  0  0  0  0  0  0  0  0  0  0
  138.8010   70.0790  223.9490 C   0  0  0  0  0  0  0  0  0  0  0  0
  140.2120   70.5100  224.2730 C   0  0  2  0  0  0  0  0  0  0  0  0
  140.4410   70.7140  225.7020 C   0  0  0  0  0  0  0  0  0  0  0  0
  141.0970   71.8760  226.1000 C   0  0  0  0  0  0  0  0  0  0  0  0
  141.3450   72.1240  227.4380 C   0  0  0  0  0  0  0  0  0  0  0  0
  140.9220   71.1860  228.3560 C   0  0  0  0  0  0  0  0  0  0  0  0
  140.2750   70.0420  227.9660 C   0  0  0  0  0  0  0  0  0  0  0  0
  140.0320   69.8030  226.6280 C   0  0  0  0  0  0  0  0  0  0  0  0
  140.2870   71.8120  223.4570 C   0  0  0  0  0  0  0  0  0  0  0  0
  140.6720   78.0230  219.8420 C   0  0  0  0  0  0  0  0  0  0  0  0
  141.2390   79.1610  219.3110 C   0  0  0  0  0  0  0  0  0  0  0  0
  141.8360   80.0830  220.1440 C   0  0  0  0  0  0  0  0  0  0  0  0
  141.8490   79.8340  221.5050 C   0  0  0  0  0  0  0  0  0  0  0  0
  142.4540   80.7730  222.3230 C   0  0  0  0  0  0  0  0  0  0  0  0
  142.4450   80.4850  223.6880 C   0  0  0  0  0  0  0  0  0  0  0  0
  143.0060   81.3280  224.5810 F   0  0  0  0  0  0  0  0  0  0  0  0
  141.8620   79.3270  224.1590 C   0  0  0  0  0  0  0  0  0  0  0  0
  141.2670   78.4140  223.3000 C   0  0  0  0  0  0  0  0  0  0  0  0
  141.2690   78.6860  221.9630 C   0  0  0  0  0  0  0  0  0  0  0  0
  140.6800   77.7740  221.1480 N   0  0  0  0  0  0  0  0  0  0  0  0
  141.7910   75.8450  218.7220 H   0  0  0  0  0  0  0  0  0  0  0  0
  139.2232   75.5358  217.1155 H   0  0  0  0  0  0  0  0  0  0  0  0
  140.7859   74.7560  216.7084 H   0  0  0  0  0  0  0  0  0  0  0  0
  137.6503   75.3757  219.3668 H   0  0  0  0  0  0  0  0  0  0  0  0
  137.1298   73.8617  220.0769 H   0  0  0  0  0  0  0  0  0  0  0  0
  137.6975   74.7154  222.2240 H   0  0  0  0  0  0  0  0  0  0  0  0
  138.7810   76.8720  220.7180 H   0  0  0  0  0  0  0  0  0  0  0  0
  140.4332   75.5947  221.2200 H   0  0  0  0  0  0  0  0  0  0  0  0
  140.0712   74.7264  222.6869 H   0  0  0  0  0  0  0  0  0  0  0  0
  140.9606   73.1326  220.7896 H   0  0  0  0  0  0  0  0  0  0  0  0
  138.3542   72.8963  222.0648 H   0  0  0  0  0  0  0  0  0  0  0  0
  138.7614   71.8809  220.5371 H   0  0  0  0  0  0  0  0  0  0  0  0
  137.7170   70.8040  222.2592 H   0  0  0  0  0  0  0  0  0  0  0  0
  138.8805   69.5041  221.8874 H   0  0  0  0  0  0  0  0  0  0  0  0
  138.0630   70.6485  224.5330 H   0  0  0  0  0  0  0  0  0  0  0  0
  138.5891   69.0256  224.1846 H   0  0  0  0  0  0  0  0  0  0  0  0
  140.9847   69.7671  224.0261 H   0  0  0  0  0  0  0  0  0  0  0  0
  141.4214   72.6044  225.3423 H   0  0  0  0  0  0  0  0  0  0  0  0
  141.8628   73.0397  227.7593 H   0  0  0  0  0  0  0  0  0  0  0  0
  141.1080   71.3597  229.4261 H   0  0  0  0  0  0  0  0  0  0  0  0
  139.9484   69.3122  228.7214 H   0  0  0  0  0  0  0  0  0  0  0  0
  139.5131   68.8857  226.3130 H   0  0  0  0  0  0  0  0  0  0  0  0
  139.6890   72.6097  223.9218 H   0  0  0  0  0  0  0  0  0  0  0  0
  141.3023   72.2280  223.3789 H   0  0  0  0  0  0  0  0  0  0  0  0
  141.2153   79.3334  218.2249 H   0  0  0  0  0  0  0  0  0  0  0  0
  142.2921   80.9968  219.7355 H   0  0  0  0  0  0  0  0  0  0  0  0
  142.9129   81.6886  221.9218 H   0  0  0  0  0  0  0  0  0  0  0  0
  141.8689   79.1227  225.2398 H   0  0  0  0  0  0  0  0  0  0  0  0
  140.8052   77.4938  223.6873 H   0  0  0  0  0  0  0  0  0  0  0  0
  1  2  2  0
  2  3  1  0
  3  4  1  0
  4  5  1  0
  5  6  2  0
  5  7  1  0
  7  8  1  0
  8  9  1  0
  9 10  1  0
  9 11  1  0
 11 12  1  0
 12 13  1  0
 13 14  1  0
 14 15  1  0
 15 16  1  0
 16 17  1  0
 17 18  1  0
 18 19  2  0
 19 20  1  0
 20 21  2  0
 21 22  1  0
 22 23  2  0
 17 24  1  0
  2 25  1  0
 25 26  2  0
 26 27  1  0
 27 28  2  0
 28 29  1  0
 29 30  2  0
 30 31  1  0
 30 32  1  0
 32 33  2  0
 33 34  1  0
 34 35  2  0
 12  7  1  0
 24 14  1  0
 35 25  1  0
 23 18  1  0
 34 28  1  0
  3 36  1  0
  4 37  1  0
  4 38  1  0
  8 39  1  0
  8 40  1  0
  9 41  1  1
 10 42  1  0
 11 43  1  0
 11 44  1  0
 12 45  1  6
 13 46  1  0
 13 47  1  0
 15 48  1  0
 15 49  1  0
 16 50  1  0
 16 51  1  0
 17 52  1  6
 19 53  1  0
 20 54  1  0
 21 55  1  0
 22 56  1  0
 23 57  1  0
 24 58  1  0
 24 59  1  0
 26 60  1  0
 27 61  1  0
 29 62  1  0
 32 63  1  0
 33 64  1  0
M  END
>  <smiles>  (17) 
O=C(NCC(=O)N1C[C@H](O)C[C@H]1CN1CC[C@H](c2ccccc2)C1)c1ccc2cc(F)ccc2n1

>  <score_type>  (17) 
oracle

>  <origin>  (17) 
autodockgpu

>  <m_score__min__energy>  (17) 
-9.5500000000000007

>  <m_primary>  (17) 
energy

>  <rmsd>  (17) 
8.830477132627832

>  <m_score__min__rmsd>  (17) 
8.830477132627832

>  <meeko>  (17) 
{"free_energy": -7.34, "intermolecular_energy": -9.73, "internal_energy": -3.47, "cluster_size": 5, "cluster_id": 6, "rank_in_cluster": 5}

>  <energy>  (17) 
-8.03

>  <cluster_rmsd>  (17) 
0.0

>  <cluster>  (17) 
4

$$$$

     RDKit          3D

 64 68  0  0  0  0  0  0  0  0999 V2000
  138.6360   72.5350  222.2320 O   0  0  0  0  0  0  0  0  0  0  0  0
  139.7450   72.1750  222.7200 C   0  0  0  0  0  0  0  0  0  0  0  0
  140.9590   72.7000  222.1800 N   0  0  0  0  0  0  0  0  0  0  0  0
  140.8340   73.6330  221.0790 C   0  0  0  0  0  0  0  0  0  0  0  0
  140.2560   74.9030  221.5840 C   0  0  0  0  0  0  0  0  0  0  0  0
  140.9180   75.7800  222.1930 O   0  0  0  0  0  0  0  0  0  0  0  0
  138.8750   75.1670  221.3790 N   0  0  0  0  0  0  0  0  0  0  0  0
  137.8620   75.4680  222.3870 C   0  0  0  0  0  0  0  0  0  0  0  0
  136.6020   74.9100  221.7800 C   0  0  2  0  0  0  0  0  0  0  0  0
  136.1230   73.9250  222.6420 O   0  0  0  0  0  0  0  0  0  0  0  0
  137.0220   74.3010  220.4450 C   0  0  0  0  0  0  0  0  0  0  0  0
  138.1780   75.1900  220.0510 C   0  0  1  0  0  0  0  0  0  0  0  0
  137.7570   76.5900  219.8240 C   0  0  0  0  0  0  0  0  0  0  0  0
  138.7320   77.6120  219.7030 N   0  0  0  0  0  0  0  0  0  0  0  0
  139.9450   76.9980  219.1760 C   0  0  0  0  0  0  0  0  0  0  0  0
  141.0940   77.4800  219.9980 C   0  0  0  0  0  0  0  0  0  0  0  0
  140.5330   78.7530  220.5840 C   0  0  2  0  0  0  0  0  0  0  0  0
  141.2630   79.2190  221.7620 C   0  0  0  0  0  0  0  0  0  0  0  0
  142.1530   80.2780  221.6040 C   0  0  0  0  0  0  0  0  0  0  0  0
  142.8740   80.7620  222.6810 C   0  0  0  0  0  0  0  0  0  0  0  0
  142.6800   80.1620  223.9080 C   0  0  0  0  0  0  0  0  0  0  0  0
  141.8030   79.1200  224.0650 C   0  0  0  0  0  0  0  0  0  0  0  0
  141.0880   78.6440  222.9850 C   0  0  0  0  0  0  0  0  0  0  0  0
  139.1010   78.2920  220.9040 C   0  0  0  0  0  0  0  0  0  0  0  0
  139.7950   71.2190  223.8410 C   0  0  0  0  0  0  0  0  0  0  0  0
  139.2170   69.9790  223.6740 C   0  0  0  0  0  0  0  0  0  0  0  0
  139.2470   69.0640  224.7040 C   0  0  0  0  0  0  0  0  0  0  0  0
  139.8630   69.4240  225.8910 C   0  0  0  0  0  0  0  0  0  0  0  0
  139.8820   68.4890  226.9120 C   0  0  0  0  0  0  0  0  0  0  0  0
  140.5110   68.8900  228.0900 C   0  0  0  0  0  0  0  0  0  0  0  0
  140.5910   68.0630  229.1540 F   0  0  0  0  0  0  0  0  0  0  0  0
  141.0710   70.1460  228.1970 C   0  0  0  0  0  0  0  0  0  0  0  0
  141.0280   71.0500  227.1450 C   0  0  0  0  0  0  0  0  0  0  0  0
  140.4140   70.6690  225.9880 C   0  0  0  0  0  0  0  0  0  0  0  0
  140.3880   71.5740  224.9760 N   0  0  0  0  0  0  0  0  0  0  0  0
  141.8660   72.3980  222.5900 H   0  0  0  0  0  0  0  0  0  0  0  0
  141.8262   73.8263  220.6452 H   0  0  0  0  0  0  0  0  0  0  0  0
  140.1777   73.2083  220.3051 H   0  0  0  0  0  0  0  0  0  0  0  0
  138.0943   74.9721  223.3410 H   0  0  0  0  0  0  0  0  0  0  0  0
  137.7910   76.5401  222.6228 H   0  0  0  0  0  0  0  0  0  0  0  0
  135.8147   75.6633  221.6295 H   0  0  0  0  0  0  0  0  0  0  0  0
  136.9170   73.5360  223.0990 H   0  0  0  0  0  0  0  0  0  0  0  0
  137.3431   73.2557  220.5648 H   0  0  0  0  0  0  0  0  0  0  0  0
  136.2147   74.2625  219.6989 H   0  0  0  0  0  0  0  0  0  0  0  0
  138.7134   74.8767  219.1426 H   0  0  0  0  0  0  0  0  0  0  0  0
  137.1707   76.5985  218.8933 H   0  0  0  0  0  0  0  0  0  0  0  0
  137.2315   76.8504  220.7546 H   0  0  0  0  0  0  0  0  0  0  0  0
  139.8699   75.9027  219.2436 H   0  0  0  0  0  0  0  0  0  0  0  0
  140.0865   77.2711  218.1199 H   0  0  0  0  0  0  0  0  0  0  0  0
  141.3563   76.7572  220.7846 H   0  0  0  0  0  0  0  0  0  0  0  0
  142.0245   77.6209  219.4285 H   0  0  0  0  0  0  0  0  0  0  0  0
  140.5968   79.6278  219.9202 H   0  0  0  0  0  0  0  0  0  0  0  0
  142.2843   80.7348  220.6120 H   0  0  0  0  0  0  0  0  0  0  0  0
  143.5790   81.5981  222.5628 H   0  0  0  0  0  0  0  0  0  0  0  0
  143.2417   80.5279  224.7801 H   0  0  0  0  0  0  0  0  0  0  0  0
  141.6687   78.6616  225.0559 H   0  0  0  0  0  0  0  0  0  0  0  0
  140.3836   77.8085  223.1101 H   0  0  0  0  0  0  0  0  0  0  0  0
  139.0838   77.6129  221.7691 H   0  0  0  0  0  0  0  0  0  0  0  0
  138.4212   79.1131  221.1753 H   0  0  0  0  0  0  0  0  0  0  0  0
  138.7329   69.7203  222.7207 H   0  0  0  0  0  0  0  0  0  0  0  0
  138.7917   68.0696  224.5860 H   0  0  0  0  0  0  0  0  0  0  0  0
  139.4294   67.4926  226.8008 H   0  0  0  0  0  0  0  0  0  0  0  0
  141.5625   70.4375  229.1369 H   0  0  0  0  0  0  0  0  0  0  0  0
  141.4779   72.0491  227.2417 H   0  0  0  0  0  0  0  0  0  0  0  0
  1  2  2  0
  2  3  1  0
  3  4  1  0
  4  5  1  0
  5  6  2  0
  5  7  1  0
  7  8  1  0
  8  9  1  0
  9 10  1  0
  9 11  1  0
 11 12  1  0
 12 13  1  0
 13 14  1  0
 14 15  1  0
 15 16  1  0
 16 17  1  0
 17 18  1  0
 18 19  2  0
 19 20  1  0
 20 21  2  0
 21 22  1  0
 22 23  2  0
 17 24  1  0
  2 25  1  0
 25 26  2  0
 26 27  1  0
 27 28  2  0
 28 29  1  0
 29 30  2  0
 30 31  1  0
 30 32  1  0
 32 33  2  0
 33 34  1  0
 34 35  2  0
 12  7  1  0
 24 14  1  0
 35 25  1  0
 23 18  1  0
 34 28  1  0
  3 36  1  0
  4 37  1  0
  4 38  1  0
  8 39  1  0
  8 40  1  0
  9 41  1  6
 10 42  1  0
 11 43  1  0
 11 44  1  0
 12 45  1  6
 13 46  1  0
 13 47  1  0
 15 48  1  0
 15 49  1  0
 16 50  1  0
 16 51  1  0
 17 52  1  6
 19 53  1  0
 20 54  1  0
 21 55  1  0
 22 56  1  0
 23 57  1  0
 24 58  1  0
 24 59  1  0
 26 60  1  0
 27 61  1  0
 29 62  1  0
 32 63  1  0
 33 64  1  0
M  END
>  <smiles>  (18) 
O=C(NCC(=O)N1C[C@H](O)C[C@H]1CN1CC[C@H](c2ccccc2)C1)c1ccc2cc(F)ccc2n1

>  <score_type>  (18) 
oracle

>  <origin>  (18) 
autodockgpu

>  <m_score__min__energy>  (18) 
-9.5500000000000007

>  <m_primary>  (18) 
energy

>  <rmsd>  (18) 
3.34024879970099

>  <m_score__min__rmsd>  (18) 
3.34024879970099

>  <meeko>  (18) 
{"free_energy": -8.19, "intermolecular_energy": -10.58, "internal_energy": -2.98, "cluster_size": 9, "cluster_id": 2, "rank_in_cluster": 5}

>  <energy>  (18) 
-8.0

>  <cluster_rmsd>  (18) 
0.0

>  <cluster>  (18) 
5

$$$$

     RDKit          3D

 64 68  0  0  0  0  0  0  0  0999 V2000
  137.6750   69.7800  222.1800 O   0  0  0  0  0  0  0  0  0  0  0  0
  137.9100   70.4100  223.2500 C   0  0  0  0  0  0  0  0  0  0  0  0
  137.4440   71.7530  223.3960 N   0  0  0  0  0  0  0  0  0  0  0  0
  136.7150   72.3170  222.2770 C   0  0  0  0  0  0  0  0  0  0  0  0
  137.6310   73.1700  221.4820 C   0  0  0  0  0  0  0  0  0  0  0  0
  137.2810   74.2330  220.9120 O   0  0  0  0  0  0  0  0  0  0  0  0
  138.9920   72.7860  221.3430 N   0  0  0  0  0  0  0  0  0  0  0  0
  139.5990   72.0170  220.2600 C   0  0  0  0  0  0  0  0  0  0  0  0
  140.7270   71.2940  220.9480 C   0  0  2  0  0  0  0  0  0  0  0  0
  140.4920   69.9270  220.8110 O   0  0  0  0  0  0  0  0  0  0  0  0
  140.6510   71.7100  222.4140 C   0  0  0  0  0  0  0  0  0  0  0  0
  140.0940   73.1100  222.3080 C   0  0  1  0  0  0  0  0  0  0  0  0
  141.0140   74.0270  221.6000 C   0  0  0  0  0  0  0  0  0  0  0  0
  140.5890   75.3390  221.2680 N   0  0  0  0  0  0  0  0  0  0  0  0
  141.3460   75.7570  220.0920 C   0  0  0  0  0  0  0  0  0  0  0  0
  141.8500   77.1390  220.3430 C   0  0  0  0  0  0  0  0  0  0  0  0
  140.8940   77.6210  221.4080 C   0  0  2  0  0  0  0  0  0  0  0  0
  141.3950   78.7720  222.1580 C   0  0  0  0  0  0  0  0  0  0  0  0
  141.5120   79.9880  221.4900 C   0  0  0  0  0  0  0  0  0  0  0  0
  141.9810   81.1110  222.1470 C   0  0  0  0  0  0  0  0  0  0  0  0
  142.3270   80.9840  223.4760 C   0  0  0  0  0  0  0  0  0  0  0  0
  142.2120   79.7870  224.1350 C   0  0  0  0  0  0  0  0  0  0  0  0
  141.7420   78.6710  223.4720 C   0  0  0  0  0  0  0  0  0  0  0  0
  140.7800   76.3470  222.2620 C   0  0  0  0  0  0  0  0  0  0  0  0
  138.6600   69.7710  224.3460 C   0  0  0  0  0  0  0  0  0  0  0  0
  138.8230   68.4030  224.3200 C   0  0  0  0  0  0  0  0  0  0  0  0
  139.5200   67.7770  225.3310 C   0  0  0  0  0  0  0  0  0  0  0  0
  140.0390   68.5510  226.3550 C   0  0  0  0  0  0  0  0  0  0  0  0
  140.7350   67.9000  227.3600 C   0  0  0  0  0  0  0  0  0  0  0  0
  141.2420   68.7160  228.3720 C   0  0  0  0  0  0  0  0  0  0  0  0
  141.9370   68.1930  229.4050 F   0  0  0  0  0  0  0  0  0  0  0  0
  141.0440   70.0810  228.3420 C   0  0  0  0  0  0  0  0  0  0  0  0
  140.3400   70.6880  227.3120 C   0  0  0  0  0  0  0  0  0  0  0  0
  139.8390   69.9000  226.3170 C   0  0  0  0  0  0  0  0  0  0  0  0
  139.1540   70.5230  225.3240 N   0  0  0  0  0  0  0  0  0  0  0  0
  137.6420   72.2630  224.2810 H   0  0  0  0  0  0  0  0  0  0  0  0
  136.3253   71.5057  221.6446 H   0  0  0  0  0  0  0  0  0  0  0  0
  135.8747   72.9216  222.6489 H   0  0  0  0  0  0  0  0  0  0  0  0
  138.8790   71.3062  219.8282 H   0  0  0  0  0  0  0  0  0  0  0  0
  139.9341   72.6425  219.4194 H   0  0  0  0  0  0  0  0  0  0  0  0
  141.7182   71.5277  220.5322 H   0  0  0  0  0  0  0  0  0  0  0  0
  139.5860   69.7540  221.1860 H   0  0  0  0  0  0  0  0  0  0  0  0
  139.9770   71.0525  222.9827 H   0  0  0  0  0  0  0  0  0  0  0  0
  141.6128   71.6517  222.9446 H   0  0  0  0  0  0  0  0  0  0  0  0
  139.8597   73.5886  223.2703 H   0  0  0  0  0  0  0  0  0  0  0  0
  141.9070   74.1329  222.2335 H   0  0  0  0  0  0  0  0  0  0  0  0
  141.1451   73.5471  220.6189 H   0  0  0  0  0  0  0  0  0  0  0  0
  142.1924   75.0736  219.9292 H   0  0  0  0  0  0  0  0  0  0  0  0
  140.7076   75.7370  219.1964 H   0  0  0  0  0  0  0  0  0  0  0  0
  142.8871   77.1278  220.7096 H   0  0  0  0  0  0  0  0  0  0  0  0
  141.8789   77.7750  219.4460 H   0  0  0  0  0  0  0  0  0  0  0  0
  139.9372   78.0035  221.0229 H   0  0  0  0  0  0  0  0  0  0  0  0
  141.2286   80.0562  220.4293 H   0  0  0  0  0  0  0  0  0  0  0  0
  142.0751   82.0752  221.6259 H   0  0  0  0  0  0  0  0  0  0  0  0
  142.7038   81.8629  224.0197 H   0  0  0  0  0  0  0  0  0  0  0  0
  142.4952   79.7157  225.1955 H   0  0  0  0  0  0  0  0  0  0  0  0
  141.6486   77.7100  223.9990 H   0  0  0  0  0  0  0  0  0  0  0  0
  141.6991   76.1695  222.8397 H   0  0  0  0  0  0  0  0  0  0  0  0
  139.9772   76.3869  223.0130 H   0  0  0  0  0  0  0  0  0  0  0  0
  138.3982   67.8123  223.4950 H   0  0  0  0  0  0  0  0  0  0  0  0
  139.6609   66.6861  225.3244 H   0  0  0  0  0  0  0  0  0  0  0  0
  140.8789   66.8095  227.3604 H   0  0  0  0  0  0  0  0  0  0  0  0
  141.4533   70.7018  229.1526 H   0  0  0  0  0  0  0  0  0  0  0  0
  140.1894   71.7776  227.2978 H   0  0  0  0  0  0  0  0  0  0  0  0
  1  2  2  0
  2  3  1  0
  3  4  1  0
  4  5  1  0
  5  6  2  0
  5  7  1  0
  7  8  1  0
  8  9  1  0
  9 10  1  0
  9 11  1  0
 11 12  1  0
 12 13  1  0
 13 14  1  0
 14 15  1  0
 15 16  1  0
 16 17  1  0
 17 18  1  0
 18 19  2  0
 19 20  1  0
 20 21  2  0
 21 22  1  0
 22 23  2  0
 17 24  1  0
  2 25  1  0
 25 26  2  0
 26 27  1  0
 27 28  2  0
 28 29  1  0
 29 30  2  0
 30 31  1  0
 30 32  1  0
 32 33  2  0
 33 34  1  0
 34 35  2  0
 12  7  1  0
 24 14  1  0
 35 25  1  0
 23 18  1  0
 34 28  1  0
  3 36  1  0
  4 37  1  0
  4 38  1  0
  8 39  1  0
  8 40  1  0
  9 41  1  6
 10 42  1  0
 11 43  1  0
 11 44  1  0
 12 45  1  1
 13 46  1  0
 13 47  1  0
 15 48  1  0
 15 49  1  0
 16 50  1  0
 16 51  1  0
 17 52  1  6
 19 53  1  0
 20 54  1  0
 21 55  1  0
 22 56  1  0
 23 57  1  0
 24 58  1  0
 24 59  1  0
 26 60  1  0
 27 61  1  0
 29 62  1  0
 32 63  1  0
 33 64  1  0
M  END
>  <smiles>  (19) 
O=C(NCC(=O)N1C[C@H](O)C[C@H]1CN1CC[C@H](c2ccccc2)C1)c1ccc2cc(F)ccc2n1

>  <score_type>  (19) 
oracle

>  <origin>  (19) 
autodockgpu

>  <m_score__min__energy>  (19) 
-9.5500000000000007

>  <m_primary>  (19) 
energy

>  <rmsd>  (19) 
3.6487573151301977

>  <m_score__min__rmsd>  (19) 
3.6487573151301977

>  <meeko>  (19) 
{"free_energy": -8.58, "intermolecular_energy": -10.97, "internal_energy": -3.2, "cluster_size": 9, "cluster_id": 2, "rank_in_cluster": 2}

>  <energy>  (19) 
-7.99

>  <cluster_rmsd>  (19) 
0.41

>  <cluster>  (19) 
5

$$$$

     RDKit          3D

 64 68  0  0  0  0  0  0  0  0999 V2000
  137.7720   69.9500  222.1040 O   0  0  0  0  0  0  0  0  0  0  0  0
  137.9570   70.5400  223.2070 C   0  0  0  0  0  0  0  0  0  0  0  0
  137.4630   71.8680  223.3900 N   0  0  0  0  0  0  0  0  0  0  0  0
  136.7660   72.4660  222.2690 C   0  0  0  0  0  0  0  0  0  0  0  0
  137.6760   73.4140  221.5830 C   0  0  0  0  0  0  0  0  0  0  0  0
  137.3270   74.5510  221.1770 O   0  0  0  0  0  0  0  0  0  0  0  0
  139.0280   73.0400  221.3590 N   0  0  0  0  0  0  0  0  0  0  0  0
  139.5840   72.3350  220.2070 C   0  0  0  0  0  0  0  0  0  0  0  0
  140.7410   71.5750  220.8000 C   0  0  2  0  0  0  0  0  0  0  0  0
  140.4980   70.2180  220.5960 O   0  0  0  0  0  0  0  0  0  0  0  0
  140.7330   71.9070  222.2900 C   0  0  0  0  0  0  0  0  0  0  0  0
  140.1730   73.3100  222.2890 C   0  0  1  0  0  0  0  0  0  0  0  0
  141.0610   74.2670  221.5940 C   0  0  0  0  0  0  0  0  0  0  0  0
  140.6000   75.5760  221.2990 N   0  0  0  0  0  0  0  0  0  0  0  0
  141.3940   76.0760  220.1820 C   0  0  0  0  0  0  0  0  0  0  0  0
  141.8290   77.4640  220.5190 C   0  0  0  0  0  0  0  0  0  0  0  0
  140.8040   77.8590  221.5550 C   0  0  2  0  0  0  0  0  0  0  0  0
  141.2210   78.9920  222.3790 C   0  0  0  0  0  0  0  0  0  0  0  0
  142.5830   79.2700  222.4680 C   0  0  0  0  0  0  0  0  0  0  0  0
  143.0390   80.3280  223.2340 C   0  0  0  0  0  0  0  0  0  0  0  0
  142.1030   81.0910  223.9010 C   0  0  0  0  0  0  0  0  0  0  0  0
  140.7620   80.8190  223.8130 C   0  0  0  0  0  0  0  0  0  0  0  0
  140.3160   79.7620  223.0460 C   0  0  0  0  0  0  0  0  0  0  0  0
  140.7010   76.5440  222.3450 C   0  0  0  0  0  0  0  0  0  0  0  0
  138.6770   69.8680  224.3030 C   0  0  0  0  0  0  0  0  0  0  0  0
  138.7940   68.4950  224.2690 C   0  0  0  0  0  0  0  0  0  0  0  0
  139.4620   67.8390  225.2800 C   0  0  0  0  0  0  0  0  0  0  0  0
  140.0000   68.5870  226.3130 C   0  0  0  0  0  0  0  0  0  0  0  0
  140.6670   67.9060  227.3180 C   0  0  0  0  0  0  0  0  0  0  0  0
  141.1940   68.6970  228.3390 C   0  0  0  0  0  0  0  0  0  0  0  0
  141.8640   68.1440  229.3720 F   0  0  0  0  0  0  0  0  0  0  0  0
  141.0430   70.0680  228.3180 C   0  0  0  0  0  0  0  0  0  0  0  0
  140.3660   70.7060  227.2880 C   0  0  0  0  0  0  0  0  0  0  0  0
  139.8460   69.9430  226.2840 C   0  0  0  0  0  0  0  0  0  0  0  0
  139.1890   70.5950  225.2900 N   0  0  0  0  0  0  0  0  0  0  0  0
  137.6190   72.3440  224.3020 H   0  0  0  0  0  0  0  0  0  0  0  0
  136.4555   71.6791  221.5659 H   0  0  0  0  0  0  0  0  0  0  0  0
  135.8752   73.0016  222.6290 H   0  0  0  0  0  0  0  0  0  0  0  0
  138.8440   71.6494  219.7684 H   0  0  0  0  0  0  0  0  0  0  0  0
  139.8814   73.0081  219.3894 H   0  0  0  0  0  0  0  0  0  0  0  0
  141.7125   71.8329  220.3532 H   0  0  0  0  0  0  0  0  0  0  0  0
  139.5860   70.0350  220.9510 H   0  0  0  0  0  0  0  0  0  0  0  0
  140.0852   71.2172  222.8509 H   0  0  0  0  0  0  0  0  0  0  0  0
  141.7180   71.8201  222.7718 H   0  0  0  0  0  0  0  0  0  0  0  0
  139.9829   73.7328  223.2866 H   0  0  0  0  0  0  0  0  0  0  0  0
  141.9585   74.3798  222.2200 H   0  0  0  0  0  0  0  0  0  0  0  0
  141.1919   73.8147  220.5999 H   0  0  0  0  0  0  0  0  0  0  0  0
  142.2743   75.4338  220.0311 H   0  0  0  0  0  0  0  0  0  0  0  0
  140.8006   76.0726  219.2558 H   0  0  0  0  0  0  0  0  0  0  0  0
  142.8468   77.4758  220.9362 H   0  0  0  0  0  0  0  0  0  0  0  0
  141.8753   78.1415  219.6536 H   0  0  0  0  0  0  0  0  0  0  0  0
  139.8521   78.2216  221.1397 H   0  0  0  0  0  0  0  0  0  0  0  0
  143.3035   78.6418  221.9236 H   0  0  0  0  0  0  0  0  0  0  0  0
  144.1130   80.5535  223.3088 H   0  0  0  0  0  0  0  0  0  0  0  0
  142.4403   81.9371  224.5177 H   0  0  0  0  0  0  0  0  0  0  0  0
  140.0390   81.4456  224.3558 H   0  0  0  0  0  0  0  0  0  0  0  0
  139.2404   79.5432  222.9738 H   0  0  0  0  0  0  0  0  0  0  0  0
  141.5975   76.3759  222.9599 H   0  0  0  0  0  0  0  0  0  0  0  0
  139.8618   76.5182  223.0556 H   0  0  0  0  0  0  0  0  0  0  0  0
  138.3553   67.9246  223.4371 H   0  0  0  0  0  0  0  0  0  0  0  0
  139.5656   66.7440  225.2665 H   0  0  0  0  0  0  0  0  0  0  0  0
  140.7743   66.8113  227.3114 H   0  0  0  0  0  0  0  0  0  0  0  0
  141.4684   70.6687  229.1354 H   0  0  0  0  0  0  0  0  0  0  0  0
  140.2516   71.8000  227.2815 H   0  0  0  0  0  0  0  0  0  0  0  0
  1  2  2  0
  2  3  1  0
  3  4  1  0
  4  5  1  0
  5  6  2  0
  5  7  1  0
  7  8  1  0
  8  9  1  0
  9 10  1  0
  9 11  1  0
 11 12  1  0
 12 13  1  0
 13 14  1  0
 14 15  1  0
 15 16  1  0
 16 17  1  0
 17 18  1  0
 18 19  2  0
 19 20  1  0
 20 21  2  0
 21 22  1  0
 22 23  2  0
 17 24  1  0
  2 25  1  0
 25 26  2  0
 26 27  1  0
 27 28  2  0
 28 29  1  0
 29 30  2  0
 30 31  1  0
 30 32  1  0
 32 33  2  0
 33 34  1  0
 34 35  2  0
 12  7  1  0
 24 14  1  0
 35 25  1  0
 23 18  1  0
 34 28  1  0
  3 36  1  0
  4 37  1  0
  4 38  1  0
  8 39  1  0
  8 40  1  0
  9 41  1  6
 10 42  1  0
 11 43  1  0
 11 44  1  0
 12 45  1  1
 13 46  1  0
 13 47  1  0
 15 48  1  0
 15 49  1  0
 16 50  1  0
 16 51  1  0
 17 52  1  6
 19 53  1  0
 20 54  1  0
 21 55  1  0
 22 56  1  0
 23 57  1  0
 24 58  1  0
 24 59  1  0
 26 60  1  0
 27 61  1  0
 29 62  1  0
 32 63  1  0
 33 64  1  0
M  END
>  <smiles>  (20) 
O=C(NCC(=O)N1C[C@H](O)C[C@H]1CN1CC[C@H](c2ccccc2)C1)c1ccc2cc(F)ccc2n1

>  <score_type>  (20) 
oracle

>  <origin>  (20) 
autodockgpu

>  <m_score__min__energy>  (20) 
-9.5500000000000007

>  <m_primary>  (20) 
energy

>  <rmsd>  (20) 
3.6339363791896298

>  <m_score__min__rmsd>  (20) 
3.6339363791896298

>  <meeko>  (20) 
{"free_energy": -8.63, "intermolecular_energy": -11.02, "internal_energy": -3.18, "cluster_size": 9, "cluster_id": 2, "rank_in_cluster": 1}

>  <energy>  (20) 
-7.96

>  <cluster_rmsd>  (20) 
0.14

>  <cluster>  (20) 
5

$$$$

     RDKit          3D

 64 68  0  0  0  0  0  0  0  0999 V2000
  140.1050   73.7960  222.3580 O   0  0  0  0  0  0  0  0  0  0  0  0
  140.2130   74.7700  221.5590 C   0  0  0  0  0  0  0  0  0  0  0  0
  140.5240   74.5260  220.1860 N   0  0  0  0  0  0  0  0  0  0  0  0
  140.7010   73.1420  219.7920 C   0  0  0  0  0  0  0  0  0  0  0  0
  141.9790   72.6390  220.3530 C   0  0  0  0  0  0  0  0  0  0  0  0
  142.0580   71.6930  221.1760 O   0  0  0  0  0  0  0  0  0  0  0  0
  143.2000   73.2450  219.9530 N   0  0  0  0  0  0  0  0  0  0  0  0
  144.1850   72.7340  219.0050 C   0  0  0  0  0  0  0  0  0  0  0  0
  145.4820   73.2970  219.5250 C   0  0  2  0  0  0  0  0  0  0  0  0
  146.3050   72.2200  219.8460 O   0  0  0  0  0  0  0  0  0  0  0  0
  145.1150   74.0890  220.7770 C   0  0  0  0  0  0  0  0  0  0  0  0
  143.7210   74.5640  220.4430 C   0  0  1  0  0  0  0  0  0  0  0  0
  143.7040   75.4790  219.2800 C   0  0  0  0  0  0  0  0  0  0  0  0
  142.5800   76.3130  219.0520 N   0  0  0  0  0  0  0  0  0  0  0  0
  142.7860   76.9800  217.7710 C   0  0  0  0  0  0  0  0  0  0  0  0
  142.4750   78.4280  217.9560 C   0  0  0  0  0  0  0  0  0  0  0  0
  141.5920   78.3940  219.1800 C   0  0  2  0  0  0  0  0  0  0  0  0
  141.4850   79.6870  219.8540 C   0  0  0  0  0  0  0  0  0  0  0  0
  142.1630   79.8560  221.0580 C   0  0  0  0  0  0  0  0  0  0  0  0
  142.0980   81.0560  221.7420 C   0  0  0  0  0  0  0  0  0  0  0  0
  141.3430   82.0710  221.1930 C   0  0  0  0  0  0  0  0  0  0  0  0
  140.6750   81.9060  220.0070 C   0  0  0  0  0  0  0  0  0  0  0  0
  140.7460   80.7050  219.3310 C   0  0  0  0  0  0  0  0  0  0  0  0
  142.3350   77.3380  220.0170 C   0  0  0  0  0  0  0  0  0  0  0  0
  140.0190   76.1520  222.0320 C   0  0  0  0  0  0  0  0  0  0  0  0
  141.0280   76.7450  222.7610 C   0  0  0  0  0  0  0  0  0  0  0  0
  140.8760   78.0360  223.2170 C   0  0  0  0  0  0  0  0  0  0  0  0
  139.7000   78.7060  222.9280 C   0  0  0  0  0  0  0  0  0  0  0  0
  139.5690   80.0030  223.3970 C   0  0  0  0  0  0  0  0  0  0  0  0
  138.3700   80.6420  223.0840 C   0  0  0  0  0  0  0  0  0  0  0  0
  138.1290   81.9080  223.4880 F   0  0  0  0  0  0  0  0  0  0  0  0
  137.3970   79.9950  222.3510 C   0  0  0  0  0  0  0  0  0  0  0  0
  137.5730   78.6940  221.9020 C   0  0  0  0  0  0  0  0  0  0  0  0
  138.7420   78.0580  222.2020 C   0  0  0  0  0  0  0  0  0  0  0  0
  138.8870   76.7860  221.7500 N   0  0  0  0  0  0  0  0  0  0  0  0
  140.6090   75.3340  219.5360 H   0  0  0  0  0  0  0  0  0  0  0  0
  139.8661   72.5390  220.1784 H   0  0  0  0  0  0  0  0  0  0  0  0
  140.7226   73.0682  218.6947 H   0  0  0  0  0  0  0  0  0  0  0  0
  144.2024   71.6341  219.0077 H   0  0  0  0  0  0  0  0  0  0  0  0
  143.9744   73.0220  217.9645 H   0  0  0  0  0  0  0  0  0  0  0  0
  146.0050   73.9403  218.8021 H   0  0  0  0  0  0  0  0  0  0  0  0
  145.9680   71.8490  220.7070 H   0  0  0  0  0  0  0  0  0  0  0  0
  145.1166   73.4484  221.6712 H   0  0  0  0  0  0  0  0  0  0  0  0
  145.8183   74.9012  221.0130 H   0  0  0  0  0  0  0  0  0  0  0  0
  143.2043   75.0907  221.2589 H   0  0  0  0  0  0  0  0  0  0  0  0
  144.5756   76.1418  219.3843 H   0  0  0  0  0  0  0  0  0  0  0  0
  143.6905   74.7945  218.4191 H   0  0  0  0  0  0  0  0  0  0  0  0
  143.8313   76.8597  217.4502 H   0  0  0  0  0  0  0  0  0  0  0  0
  142.1344   76.5422  217.0004 H   0  0  0  0  0  0  0  0  0  0  0  0
  143.3878   79.0150  218.1356 H   0  0  0  0  0  0  0  0  0  0  0  0
  142.0078   78.9012  217.0798 H   0  0  0  0  0  0  0  0  0  0  0  0
  140.5371   78.1600  218.9740 H   0  0  0  0  0  0  0  0  0  0  0  0
  142.7566   79.0264  221.4695 H   0  0  0  0  0  0  0  0  0  0  0  0
  142.6315   81.1965  222.6937 H   0  0  0  0  0  0  0  0  0  0  0  0
  141.2751   83.0350  221.7185 H   0  0  0  0  0  0  0  0  0  0  0  0
  140.0805   82.7337  219.5930 H   0  0  0  0  0  0  0  0  0  0  0  0
  140.2111   80.5710  218.3792 H   0  0  0  0  0  0  0  0  0  0  0  0
  143.2759   77.7387  220.4222 H   0  0  0  0  0  0  0  0  0  0  0  0
  141.7724   76.9933  220.8972 H   0  0  0  0  0  0  0  0  0  0  0  0
  141.9518   76.1887  222.9779 H   0  0  0  0  0  0  0  0  0  0  0  0
  141.6723   78.5239  223.7983 H   0  0  0  0  0  0  0  0  0  0  0  0
  140.3606   80.4972  223.9793 H   0  0  0  0  0  0  0  0  0  0  0  0
  136.4604   80.5224  222.1171 H   0  0  0  0  0  0  0  0  0  0  0  0
  136.7895   78.1881  221.3187 H   0  0  0  0  0  0  0  0  0  0  0  0
  1  2  2  0
  2  3  1  0
  3  4  1  0
  4  5  1  0
  5  6  2  0
  5  7  1  0
  7  8  1  0
  8  9  1  0
  9 10  1  0
  9 11  1  0
 11 12  1  0
 12 13  1  0
 13 14  1  0
 14 15  1  0
 15 16  1  0
 16 17  1  0
 17 18  1  0
 18 19  2  0
 19 20  1  0
 20 21  2  0
 21 22  1  0
 22 23  2  0
 17 24  1  0
  2 25  1  0
 25 26  2  0
 26 27  1  0
 27 28  2  0
 28 29  1  0
 29 30  2  0
 30 31  1  0
 30 32  1  0
 32 33  2  0
 33 34  1  0
 34 35  2  0
 12  7  1  0
 24 14  1  0
 35 25  1  0
 23 18  1  0
 34 28  1  0
  3 36  1  0
  4 37  1  0
  4 38  1  0
  8 39  1  0
  8 40  1  0
  9 41  1  6
 10 42  1  0
 11 43  1  0
 11 44  1  0
 12 45  1  1
 13 46  1  0
 13 47  1  0
 15 48  1  0
 15 49  1  0
 16 50  1  0
 16 51  1  0
 17 52  1  6
 19 53  1  0
 20 54  1  0
 21 55  1  0
 22 56  1  0
 23 57  1  0
 24 58  1  0
 24 59  1  0
 26 60  1  0
 27 61  1  0
 29 62  1  0
 32 63  1  0
 33 64  1  0
M  END
>  <smiles>  (21) 
O=C(NCC(=O)N1C[C@H](O)C[C@H]1CN1CC[C@H](c2ccccc2)C1)c1ccc2cc(F)ccc2n1

>  <score_type>  (21) 
oracle

>  <origin>  (21) 
autodockgpu

>  <m_score__min__energy>  (21) 
-9.5500000000000007

>  <m_primary>  (21) 
energy

>  <rmsd>  (21) 
7.075477753781781

>  <m_score__min__rmsd>  (21) 
7.075477753781781

>  <meeko>  (21) 
{"free_energy": -7.46, "intermolecular_energy": -9.85, "internal_energy": -4.24, "cluster_size": 27, "cluster_id": 5, "rank_in_cluster": 22}

>  <energy>  (21) 
-7.92

>  <cluster_rmsd>  (21) 
0.13

>  <cluster>  (21) 
5

$$$$

     RDKit          3D

 64 68  0  0  0  0  0  0  0  0999 V2000
  139.9750   71.4010  221.1940 O   0  0  0  0  0  0  0  0  0  0  0  0
  139.7670   71.8780  222.3470 C   0  0  0  0  0  0  0  0  0  0  0  0
  139.4580   73.2660  222.4930 N   0  0  0  0  0  0  0  0  0  0  0  0
  139.4040   74.0540  221.2770 C   0  0  0  0  0  0  0  0  0  0  0  0
  140.6520   74.8450  221.1560 C   0  0  0  0  0  0  0  0  0  0  0  0
  141.7880   74.3380  220.9760 O   0  0  0  0  0  0  0  0  0  0  0  0
  140.5890   76.2610  221.2450 N   0  0  0  0  0  0  0  0  0  0  0  0
  140.9990   77.1080  222.3620 C   0  0  0  0  0  0  0  0  0  0  0  0
  140.0650   78.2840  222.2580 C   0  0  2  0  0  0  0  0  0  0  0  0
  139.3250   78.3350  223.4380 O   0  0  0  0  0  0  0  0  0  0  0  0
  139.1590   77.9880  221.0660 C   0  0  0  0  0  0  0  0  0  0  0  0
  140.0750   77.1800  220.1770 C   0  0  1  0  0  0  0  0  0  0  0  0
  141.2380   77.9670  219.7080 C   0  0  0  0  0  0  0  0  0  0  0  0
  142.2720   77.3330  218.9730 N   0  0  0  0  0  0  0  0  0  0  0  0
  141.6370   76.4360  218.0130 C   0  0  0  0  0  0  0  0  0  0  0  0
  142.3450   75.1240  218.0800 C   0  0  0  0  0  0  0  0  0  0  0  0
  143.6750   75.5270  218.6710 C   0  0  2  0  0  0  0  0  0  0  0  0
  144.4130   74.4070  219.2530 C   0  0  0  0  0  0  0  0  0  0  0  0
  144.5580   73.2520  218.4890 C   0  0  0  0  0  0  0  0  0  0  0  0
  145.2450   72.1590  218.9850 C   0  0  0  0  0  0  0  0  0  0  0  0
  145.7770   72.2540  220.2540 C   0  0  0  0  0  0  0  0  0  0  0  0
  145.6360   73.3920  221.0070 C   0  0  0  0  0  0  0  0  0  0  0  0
  144.9490   74.4780  220.5030 C   0  0  0  0  0  0  0  0  0  0  0  0
  143.2020   76.5480  219.7200 C   0  0  0  0  0  0  0  0  0  0  0  0
  139.8410   71.0150  223.5380 C   0  0  0  0  0  0  0  0  0  0  0  0
  139.3730   69.7220  223.4430 C   0  0  0  0  0  0  0  0  0  0  0  0
  139.4290   68.8900  224.5410 C   0  0  0  0  0  0  0  0  0  0  0  0
  139.9580   69.3860  225.7200 C   0  0  0  0  0  0  0  0  0  0  0  0
  140.0040   68.5320  226.8100 C   0  0  0  0  0  0  0  0  0  0  0  0
  140.5440   69.0700  227.9780 C   0  0  0  0  0  0  0  0  0  0  0  0
  140.6400   68.3320  229.1050 F   0  0  0  0  0  0  0  0  0  0  0  0
  140.9950   70.3730  228.0110 C   0  0  0  0  0  0  0  0  0  0  0  0
  140.9290   71.1910  226.8920 C   0  0  0  0  0  0  0  0  0  0  0  0
  140.4020   70.6760  225.7440 C   0  0  0  0  0  0  0  0  0  0  0  0
  140.3500   71.5000  224.6660 N   0  0  0  0  0  0  0  0  0  0  0  0
  139.2870   73.6480  223.4450 H   0  0  0  0  0  0  0  0  0  0  0  0
  139.3059   73.3856  220.4089 H   0  0  0  0  0  0  0  0  0  0  0  0
  138.5379   74.7312  221.3123 H   0  0  0  0  0  0  0  0  0  0  0  0
  140.8712   76.5856  223.3216 H   0  0  0  0  0  0  0  0  0  0  0  0
  142.0605   77.3935  222.3218 H   0  0  0  0  0  0  0  0  0  0  0  0
  140.5814   79.2454  222.1200 H   0  0  0  0  0  0  0  0  0  0  0  0
  139.5080   79.2220  223.8520 H   0  0  0  0  0  0  0  0  0  0  0  0
  138.2767   77.4047  221.3682 H   0  0  0  0  0  0  0  0  0  0  0  0
  138.7483   78.8872  220.5836 H   0  0  0  0  0  0  0  0  0  0  0  0
  139.5976   76.7650  219.2771 H   0  0  0  0  0  0  0  0  0  0  0  0
  140.8415   78.7706  219.0701 H   0  0  0  0  0  0  0  0  0  0  0  0
  141.7367   78.2637  220.6425 H   0  0  0  0  0  0  0  0  0  0  0  0
  140.5759   76.3025  218.2703 H   0  0  0  0  0  0  0  0  0  0  0  0
  141.6967   76.8543  216.9974 H   0  0  0  0  0  0  0  0  0  0  0  0
  141.8145   74.4144  218.7319 H   0  0  0  0  0  0  0  0  0  0  0  0
  142.4234   74.6076  217.1119 H   0  0  0  0  0  0  0  0  0  0  0  0
  144.3992   75.9182  217.9413 H   0  0  0  0  0  0  0  0  0  0  0  0
  144.1215   73.2084  217.4802 H   0  0  0  0  0  0  0  0  0  0  0  0
  145.3633   71.2435  218.3868 H   0  0  0  0  0  0  0  0  0  0  0  0
  146.3268   71.3978  220.6718 H   0  0  0  0  0  0  0  0  0  0  0  0
  146.0719   73.4392  222.0158 H   0  0  0  0  0  0  0  0  0  0  0  0
  144.8356   75.3917  221.1050 H   0  0  0  0  0  0  0  0  0  0  0  0
  142.7125   76.0500  220.5699 H   0  0  0  0  0  0  0  0  0  0  0  0
  144.0182   77.1343  220.1673 H   0  0  0  0  0  0  0  0  0  0  0  0
  138.9559   69.3549  222.4936 H   0  0  0  0  0  0  0  0  0  0  0  0
  139.0614   67.8549  224.4814 H   0  0  0  0  0  0  0  0  0  0  0  0
  139.6381   67.4960  226.7576 H   0  0  0  0  0  0  0  0  0  0  0  0
  141.4164   70.7727  228.9452 H   0  0  0  0  0  0  0  0  0  0  0  0
  141.2925   72.2285  226.9297 H   0  0  0  0  0  0  0  0  0  0  0  0
  1  2  2  0
  2  3  1  0
  3  4  1  0
  4  5  1  0
  5  6  2  0
  5  7  1  0
  7  8  1  0
  8  9  1  0
  9 10  1  0
  9 11  1  0
 11 12  1  0
 12 13  1  0
 13 14  1  0
 14 15  1  0
 15 16  1  0
 16 17  1  0
 17 18  1  0
 18 19  2  0
 19 20  1  0
 20 21  2  0
 21 22  1  0
 22 23  2  0
 17 24  1  0
  2 25  1  0
 25 26  2  0
 26 27  1  0
 27 28  2  0
 28 29  1  0
 29 30  2  0
 30 31  1  0
 30 32  1  0
 32 33  2  0
 33 34  1  0
 34 35  2  0
 12  7  1  0
 24 14  1  0
 35 25  1  0
 23 18  1  0
 34 28  1  0
  3 36  1  0
  4 37  1  0
  4 38  1  0
  8 39  1  0
  8 40  1  0
  9 41  1  6
 10 42  1  0
 11 43  1  0
 11 44  1  0
 12 45  1  6
 13 46  1  0
 13 47  1  0
 15 48  1  0
 15 49  1  0
 16 50  1  0
 16 51  1  0
 17 52  1  6
 19 53  1  0
 20 54  1  0
 21 55  1  0
 22 56  1  0
 23 57  1  0
 24 58  1  0
 24 59  1  0
 26 60  1  0
 27 61  1  0
 29 62  1  0
 32 63  1  0
 33 64  1  0
M  END
>  <smiles>  (22) 
O=C(NCC(=O)N1C[C@H](O)C[C@H]1CN1CC[C@H](c2ccccc2)C1)c1ccc2cc(F)ccc2n1

>  <score_type>  (22) 
oracle

>  <origin>  (22) 
autodockgpu

>  <m_score__min__energy>  (22) 
-9.5500000000000007

>  <m_primary>  (22) 
energy

>  <rmsd>  (22) 
4.536003316872135

>  <m_score__min__rmsd>  (22) 
4.536003316872135

>  <meeko>  (22) 
{"free_energy": -8.03, "intermolecular_energy": -10.42, "internal_energy": -2.37, "cluster_size": 1, "cluster_id": 4, "rank_in_cluster": 1}

>  <energy>  (22) 
-7.91

>  <cluster_rmsd>  (22) 
0.24

>  <cluster>  (22) 
5

$$$$

     RDKit          3D

 64 68  0  0  0  0  0  0  0  0999 V2000
  139.9750   73.3290  222.4450 O   0  0  0  0  0  0  0  0  0  0  0  0
  140.2390   74.2230  221.5900 C   0  0  0  0  0  0  0  0  0  0  0  0
  140.7450   73.8470  220.3080 N   0  0  0  0  0  0  0  0  0  0  0  0
  140.9280   72.4300  220.0680 C   0  0  0  0  0  0  0  0  0  0  0  0
  142.0640   72.2390  219.1330 C   0  0  0  0  0  0  0  0  0  0  0  0
  142.0040   71.5390  218.0920 O   0  0  0  0  0  0  0  0  0  0  0  0
  143.3040   72.8760  219.4070 N   0  0  0  0  0  0  0  0  0  0  0  0
  144.5330   72.8190  218.6220 C   0  0  0  0  0  0  0  0  0  0  0  0
  145.6100   72.9690  219.6650 C   0  0  2  0  0  0  0  0  0  0  0  0
  146.3920   71.8160  219.6270 O   0  0  0  0  0  0  0  0  0  0  0  0
  144.8790   73.0810  221.0000 C   0  0  0  0  0  0  0  0  0  0  0  0
  143.5910   73.7550  220.5890 C   0  0  1  0  0  0  0  0  0  0  0  0
  143.8150   75.1160  220.0540 C   0  0  0  0  0  0  0  0  0  0  0  0
  142.7300   75.8520  219.5140 N   0  0  0  0  0  0  0  0  0  0  0  0
  142.9140   75.9020  218.0670 C   0  0  0  0  0  0  0  0  0  0  0  0
  142.6940   77.3110  217.6280 C   0  0  0  0  0  0  0  0  0  0  0  0
  141.8660   77.8570  218.7670 C   0  0  2  0  0  0  0  0  0  0  0  0
  141.8610   79.3170  218.8320 C   0  0  0  0  0  0  0  0  0  0  0  0
  141.2330   79.9220  219.9170 C   0  0  0  0  0  0  0  0  0  0  0  0
  141.1940   81.2990  220.0320 C   0  0  0  0  0  0  0  0  0  0  0  0
  141.7950   82.0470  219.0410 C   0  0  0  0  0  0  0  0  0  0  0  0
  142.4140   81.4530  217.9720 C   0  0  0  0  0  0  0  0  0  0  0  0
  142.4490   80.0770  217.8650 C   0  0  0  0  0  0  0  0  0  0  0  0
  142.5860   77.2020  219.9580 C   0  0  0  0  0  0  0  0  0  0  0  0
  140.0280   75.6470  221.9060 C   0  0  0  0  0  0  0  0  0  0  0  0
  138.7890   76.1990  221.6590 C   0  0  0  0  0  0  0  0  0  0  0  0
  138.5620   77.5280  221.9450 C   0  0  0  0  0  0  0  0  0  0  0  0
  139.5970   78.2770  222.4770 C   0  0  0  0  0  0  0  0  0  0  0  0
  139.3460   79.6100  222.7550 C   0  0  0  0  0  0  0  0  0  0  0  0
  140.4150   80.3290  223.2900 C   0  0  0  0  0  0  0  0  0  0  0  0
  140.2880   81.6370  223.6020 F   0  0  0  0  0  0  0  0  0  0  0  0
  141.6320   79.7200  223.5150 C   0  0  0  0  0  0  0  0  0  0  0  0
  141.8360   78.3790  223.2200 C   0  0  0  0  0  0  0  0  0  0  0  0
  140.7980   77.6660  222.6960 C   0  0  0  0  0  0  0  0  0  0  0  0
  141.0280   76.3570  222.4170 N   0  0  0  0  0  0  0  0  0  0  0  0
  140.9580   74.5900  219.6110 H   0  0  0  0  0  0  0  0  0  0  0  0
  141.1435   71.9202  221.0186 H   0  0  0  0  0  0  0  0  0  0  0  0
  140.0120   72.0069  219.6298 H   0  0  0  0  0  0  0  0  0  0  0  0
  144.6224   71.8564  218.0972 H   0  0  0  0  0  0  0  0  0  0  0  0
  144.5810   73.5874  217.8363 H   0  0  0  0  0  0  0  0  0  0  0  0
  146.2582   73.8434  219.5059 H   0  0  0  0  0  0  0  0  0  0  0  0
  146.3970   71.4440  220.5500 H   0  0  0  0  0  0  0  0  0  0  0  0
  144.6906   72.0898  221.4383 H   0  0  0  0  0  0  0  0  0  0  0  0
  145.4413   73.6262  221.7724 H   0  0  0  0  0  0  0  0  0  0  0  0
  142.8466   73.8575  221.3924 H   0  0  0  0  0  0  0  0  0  0  0  0
  144.2282   75.7171  220.8774 H   0  0  0  0  0  0  0  0  0  0  0  0
  144.4621   74.9419  219.1817 H   0  0  0  0  0  0  0  0  0  0  0  0
  143.9349   75.5845  217.8084 H   0  0  0  0  0  0  0  0  0  0  0  0
  142.2039   75.2279  217.5657 H   0  0  0  0  0  0  0  0  0  0  0  0
  143.6456   77.8535  217.5273 H   0  0  0  0  0  0  0  0  0  0  0  0
  142.2154   77.4034  216.6419 H   0  0  0  0  0  0  0  0  0  0  0  0
  140.7913   77.6325  218.6984 H   0  0  0  0  0  0  0  0  0  0  0  0
  140.7628   79.2977  220.6911 H   0  0  0  0  0  0  0  0  0  0  0  0
  140.6992   81.7831  220.8869 H   0  0  0  0  0  0  0  0  0  0  0  0
  141.7771   83.1447  219.1102 H   0  0  0  0  0  0  0  0  0  0  0  0
  142.8847   82.0750  217.1964 H   0  0  0  0  0  0  0  0  0  0  0  0
  142.9463   79.5988  217.0082 H   0  0  0  0  0  0  0  0  0  0  0  0
  143.5651   77.6695  220.1390 H   0  0  0  0  0  0  0  0  0  0  0  0
  142.0449   77.2996  220.9107 H   0  0  0  0  0  0  0  0  0  0  0  0
  137.9841   75.5806  221.2350 H   0  0  0  0  0  0  0  0  0  0  0  0
  137.5791   77.9836  221.7545 H   0  0  0  0  0  0  0  0  0  0  0  0
  138.3660   80.0726  222.5660 H   0  0  0  0  0  0  0  0  0  0  0  0
  142.4589   80.3098  223.9374 H   0  0  0  0  0  0  0  0  0  0  0  0
  142.8105   77.9032  223.4042 H   0  0  0  0  0  0  0  0  0  0  0  0
  1  2  2  0
  2  3  1  0
  3  4  1  0
  4  5  1  0
  5  6  2  0
  5  7  1  0
  7  8  1  0
  8  9  1  0
  9 10  1  0
  9 11  1  0
 11 12  1  0
 12 13  1  0
 13 14  1  0
 14 15  1  0
 15 16  1  0
 16 17  1  0
 17 18  1  0
 18 19  2  0
 19 20  1  0
 20 21  2  0
 21 22  1  0
 22 23  2  0
 17 24  1  0
  2 25  1  0
 25 26  2  0
 26 27  1  0
 27 28  2  0
 28 29  1  0
 29 30  2  0
 30 31  1  0
 30 32  1  0
 32 33  2  0
 33 34  1  0
 34 35  2  0
 12  7  1  0
 24 14  1  0
 35 25  1  0
 23 18  1  0
 34 28  1  0
  3 36  1  0
  4 37  1  0
  4 38  1  0
  8 39  1  0
  8 40  1  0
  9 41  1  6
 10 42  1  0
 11 43  1  0
 11 44  1  0
 12 45  1  1
 13 46  1  0
 13 47  1  0
 15 48  1  0
 15 49  1  0
 16 50  1  0
 16 51  1  0
 17 52  1  6
 19 53  1  0
 20 54  1  0
 21 55  1  0
 22 56  1  0
 23 57  1  0
 24 58  1  0
 24 59  1  0
 26 60  1  0
 27 61  1  0
 29 62  1  0
 32 63  1  0
 33 64  1  0
M  END
>  <smiles>  (23) 
O=C(NCC(=O)N1C[C@H](O)C[C@H]1CN1CC[C@H](c2ccccc2)C1)c1ccc2cc(F)ccc2n1

>  <score_type>  (23) 
oracle

>  <origin>  (23) 
autodockgpu

>  <m_score__min__energy>  (23) 
-9.5500000000000007

>  <m_primary>  (23) 
energy

>  <rmsd>  (23) 
6.895834784134891

>  <m_score__min__rmsd>  (23) 
6.895834784134891

>  <meeko>  (23) 
{"free_energy": -7.69, "intermolecular_energy": -10.08, "internal_energy": -4.09, "cluster_size": 27, "cluster_id": 5, "rank_in_cluster": 15}

>  <energy>  (23) 
-7.9

>  <cluster_rmsd>  (23) 
0.17

>  <cluster>  (23) 
5

$$$$

     RDKit          3D

 64 68  0  0  0  0  0  0  0  0999 V2000
  138.8590   74.9910  221.7010 O   0  0  0  0  0  0  0  0  0  0  0  0
  140.0020   75.5320  221.6760 C   0  0  0  0  0  0  0  0  0  0  0  0
  141.1050   74.8300  221.1000 N   0  0  0  0  0  0  0  0  0  0  0  0
  140.8320   73.5080  220.5700 C   0  0  0  0  0  0  0  0  0  0  0  0
  142.0230   72.6490  220.7770 C   0  0  0  0  0  0  0  0  0  0  0  0
  142.0040   71.5660  221.4120 O   0  0  0  0  0  0  0  0  0  0  0  0
  143.2730   73.0520  220.2330 N   0  0  0  0  0  0  0  0  0  0  0  0
  144.0310   72.4120  219.1620 C   0  0  0  0  0  0  0  0  0  0  0  0
  145.4600   72.7280  219.5210 C   0  0  2  0  0  0  0  0  0  0  0  0
  146.1170   71.5170  219.7230 O   0  0  0  0  0  0  0  0  0  0  0  0
  145.3910   73.5290  220.8190 C   0  0  0  0  0  0  0  0  0  0  0  0
  144.0700   74.2450  220.6690 C   0  0  1  0  0  0  0  0  0  0  0  0
  144.0700   75.1880  219.5290 C   0  0  0  0  0  0  0  0  0  0  0  0
  142.8810   75.8800  219.1820 N   0  0  0  0  0  0  0  0  0  0  0  0
  142.8740   76.0340  217.7320 C   0  0  0  0  0  0  0  0  0  0  0  0
  142.5130   77.4500  217.4260 C   0  0  0  0  0  0  0  0  0  0  0  0
  141.8080   77.8630  218.6950 C   0  0  2  0  0  0  0  0  0  0  0  0
  141.7220   79.3120  218.8650 C   0  0  0  0  0  0  0  0  0  0  0  0
  140.9150   79.8050  219.8870 C   0  0  0  0  0  0  0  0  0  0  0  0
  140.7930   81.1670  220.0950 C   0  0  0  0  0  0  0  0  0  0  0  0
  141.4930   82.0130  219.2610 C   0  0  0  0  0  0  0  0  0  0  0  0
  142.2890   81.5280  218.2550 C   0  0  0  0  0  0  0  0  0  0  0  0
  142.4060   80.1680  218.0540 C   0  0  0  0  0  0  0  0  0  0  0  0
  142.7140   77.1860  219.7380 C   0  0  0  0  0  0  0  0  0  0  0  0
  140.2030   76.8810  222.2350 C   0  0  0  0  0  0  0  0  0  0  0  0
  139.1000   77.5810  222.6760 C   0  0  0  0  0  0  0  0  0  0  0  0
  139.2570   78.8440  223.2040 C   0  0  0  0  0  0  0  0  0  0  0  0
  140.5320   79.3780  223.2750 C   0  0  0  0  0  0  0  0  0  0  0  0
  140.6660   80.6490  223.8090 C   0  0  0  0  0  0  0  0  0  0  0  0
  141.9660   81.1500  223.8630 C   0  0  0  0  0  0  0  0  0  0  0  0
  142.2190   82.3790  224.3630 F   0  0  0  0  0  0  0  0  0  0  0  0
  143.0300   80.4010  223.4050 C   0  0  0  0  0  0  0  0  0  0  0  0
  142.8470   79.1300  222.8780 C   0  0  0  0  0  0  0  0  0  0  0  0
  141.5790   78.6300  222.8200 C   0  0  0  0  0  0  0  0  0  0  0  0
  141.4310   77.3850  222.2990 N   0  0  0  0  0  0  0  0  0  0  0  0
  142.0400   75.2850  221.0830 H   0  0  0  0  0  0  0  0  0  0  0  0
  139.9678   73.0724  221.0929 H   0  0  0  0  0  0  0  0  0  0  0  0
  140.6065   73.5778  219.4956 H   0  0  0  0  0  0  0  0  0  0  0  0
  143.8576   71.3258  219.1497 H   0  0  0  0  0  0  0  0  0  0  0  0
  143.7479   72.7660  218.1598 H   0  0  0  0  0  0  0  0  0  0  0  0
  145.9944   73.2963  218.7455 H   0  0  0  0  0  0  0  0  0  0  0  0
  146.3280   71.4640  220.6950 H   0  0  0  0  0  0  0  0  0  0  0  0
  145.3909   72.8680  221.6982 H   0  0  0  0  0  0  0  0  0  0  0  0
  146.2476   74.2015  220.9740 H   0  0  0  0  0  0  0  0  0  0  0  0
  143.7557   74.8240  221.5499 H   0  0  0  0  0  0  0  0  0  0  0  0
  144.8299   75.9524  219.7489 H   0  0  0  0  0  0  0  0  0  0  0  0
  144.2461   74.5359  218.6608 H   0  0  0  0  0  0  0  0  0  0  0  0
  143.8707   75.8058  217.3265 H   0  0  0  0  0  0  0  0  0  0  0  0
  142.1482   75.3449  217.2756 H   0  0  0  0  0  0  0  0  0  0  0  0
  143.4086   78.0630  217.2464 H   0  0  0  0  0  0  0  0  0  0  0  0
  141.9062   77.5712  216.5166 H   0  0  0  0  0  0  0  0  0  0  0  0
  140.7494   77.5681  218.7444 H   0  0  0  0  0  0  0  0  0  0  0  0
  140.3689   79.1042  220.5356 H   0  0  0  0  0  0  0  0  0  0  0  0
  140.1573   81.5629  220.9007 H   0  0  0  0  0  0  0  0  0  0  0  0
  141.4112   83.1004  219.4057 H   0  0  0  0  0  0  0  0  0  0  0  0
  142.8367   82.2265  217.6053 H   0  0  0  0  0  0  0  0  0  0  0  0
  143.0447   79.7784  217.2476 H   0  0  0  0  0  0  0  0  0  0  0  0
  143.6780   77.7080  219.8293 H   0  0  0  0  0  0  0  0  0  0  0  0
  142.2960   77.1852  220.7555 H   0  0  0  0  0  0  0  0  0  0  0  0
  138.0979   77.1326  222.6065 H   0  0  0  0  0  0  0  0  0  0  0  0
  138.3878   79.4156  223.5614 H   0  0  0  0  0  0  0  0  0  0  0  0
  139.8014   81.2266  224.1678 H   0  0  0  0  0  0  0  0  0  0  0  0
  144.0456   80.8201  223.4586 H   0  0  0  0  0  0  0  0  0  0  0  0
  143.7026   78.5409  222.5163 H   0  0  0  0  0  0  0  0  0  0  0  0
  1  2  2  0
  2  3  1  0
  3  4  1  0
  4  5  1  0
  5  6  2  0
  5  7  1  0
  7  8  1  0
  8  9  1  0
  9 10  1  0
  9 11  1  0
 11 12  1  0
 12 13  1  0
 13 14  1  0
 14 15  1  0
 15 16  1  0
 16 17  1  0
 17 18  1  0
 18 19  2  0
 19 20  1  0
 20 21  2  0
 21 22  1  0
 22 23  2  0
 17 24  1  0
  2 25  1  0
 25 26  2  0
 26 27  1  0
 27 28  2  0
 28 29  1  0
 29 30  2  0
 30 31  1  0
 30 32  1  0
 32 33  2  0
 33 34  1  0
 34 35  2  0
 12  7  1  0
 24 14  1  0
 35 25  1  0
 23 18  1  0
 34 28  1  0
  3 36  1  0
  4 37  1  0
  4 38  1  0
  8 39  1  0
  8 40  1  0
  9 41  1  6
 10 42  1  0
 11 43  1  0
 11 44  1  0
 12 45  1  1
 13 46  1  0
 13 47  1  0
 15 48  1  0
 15 49  1  0
 16 50  1  0
 16 51  1  0
 17 52  1  6
 19 53  1  0
 20 54  1  0
 21 55  1  0
 22 56  1  0
 23 57  1  0
 24 58  1  0
 24 59  1  0
 26 60  1  0
 27 61  1  0
 29 62  1  0
 32 63  1  0
 33 64  1  0
M  END
>  <smiles>  (24) 
O=C(NCC(=O)N1C[C@H](O)C[C@H]1CN1CC[C@H](c2ccccc2)C1)c1ccc2cc(F)ccc2n1

>  <score_type>  (24) 
oracle

>  <origin>  (24) 
autodockgpu

>  <m_score__min__energy>  (24) 
-9.5500000000000007

>  <m_primary>  (24) 
energy

>  <rmsd>  (24) 
7.262144738052498

>  <m_score__min__rmsd>  (24) 
7.262144738052498

>  <meeko>  (24) 
{"free_energy": -7.91, "intermolecular_energy": -10.3, "internal_energy": -4.24, "cluster_size": 27, "cluster_id": 5, "rank_in_cluster": 5}

>  <energy>  (24) 
-7.85

>  <cluster_rmsd>  (24) 
0.2

>  <cluster>  (24) 
5

$$$$

     RDKit          3D

 64 68  0  0  0  0  0  0  0  0999 V2000
  140.6320   71.2350  221.7190 O   0  0  0  0  0  0  0  0  0  0  0  0
  139.8560   71.4550  222.6930 C   0  0  0  0  0  0  0  0  0  0  0  0
  138.9430   72.5520  222.6360 N   0  0  0  0  0  0  0  0  0  0  0  0
  138.9690   73.3620  221.4340 C   0  0  0  0  0  0  0  0  0  0  0  0
  140.2000   74.1900  221.4340 C   0  0  0  0  0  0  0  0  0  0  0  0
  140.4060   75.1380  222.2330 O   0  0  0  0  0  0  0  0  0  0  0  0
  141.2230   73.9150  220.4870 N   0  0  0  0  0  0  0  0  0  0  0  0
  141.1170   73.1410  219.2540 C   0  0  0  0  0  0  0  0  0  0  0  0
  142.4960   72.5550  219.1010 C   0  0  2  0  0  0  0  0  0  0  0  0
  142.3660   71.1680  219.1260 O   0  0  0  0  0  0  0  0  0  0  0  0
  143.2890   73.0450  220.3100 C   0  0  0  0  0  0  0  0  0  0  0  0
  142.6450   74.3840  220.5780 C   0  0  1  0  0  0  0  0  0  0  0  0
  142.8430   75.3360  219.4620 C   0  0  0  0  0  0  0  0  0  0  0  0
  142.0020   76.4710  219.3410 N   0  0  0  0  0  0  0  0  0  0  0  0
  142.5650   77.3210  218.2980 C   0  0  0  0  0  0  0  0  0  0  0  0
  142.5820   78.7220  218.8130 C   0  0  0  0  0  0  0  0  0  0  0  0
  141.5290   78.6600  219.8920 C   0  0  2  0  0  0  0  0  0  0  0  0
  141.6230   79.7550  220.8570 C   0  0  0  0  0  0  0  0  0  0  0  0
  142.0230   79.4490  222.1560 C   0  0  0  0  0  0  0  0  0  0  0  0
  142.1280   80.4420  223.1130 C   0  0  0  0  0  0  0  0  0  0  0  0
  141.8270   81.7350  222.7380 C   0  0  0  0  0  0  0  0  0  0  0  0
  141.4340   82.0360  221.4600 C   0  0  0  0  0  0  0  0  0  0  0  0
  141.3310   81.0390  220.5100 C   0  0  0  0  0  0  0  0  0  0  0  0
  141.8530   77.2870  220.5040 C   0  0  0  0  0  0  0  0  0  0  0  0
  139.8870   70.5880  223.8840 C   0  0  0  0  0  0  0  0  0  0  0  0
  139.3180   69.3350  223.8010 C   0  0  0  0  0  0  0  0  0  0  0  0
  139.3320   68.5020  224.8990 C   0  0  0  0  0  0  0  0  0  0  0  0
  139.9220   68.9550  226.0660 C   0  0  0  0  0  0  0  0  0  0  0  0
  139.9230   68.1010  227.1560 C   0  0  0  0  0  0  0  0  0  0  0  0
  140.5280   68.5950  228.3120 C   0  0  0  0  0  0  0  0  0  0  0  0
  140.5890   67.8520  229.4380 F   0  0  0  0  0  0  0  0  0  0  0  0
  141.0800   69.8590  228.3340 C   0  0  0  0  0  0  0  0  0  0  0  0
  141.0550   70.6790  227.2140 C   0  0  0  0  0  0  0  0  0  0  0  0
  140.4660   70.2070  226.0780 C   0  0  0  0  0  0  0  0  0  0  0  0
  140.4560   71.0320  225.0000 N   0  0  0  0  0  0  0  0  0  0  0  0
  138.3080   72.7230  223.4410 H   0  0  0  0  0  0  0  0  0  0  0  0
  138.9644   72.7085  220.5491 H   0  0  0  0  0  0  0  0  0  0  0  0
  138.0835   74.0140  221.4069 H   0  0  0  0  0  0  0  0  0  0  0  0
  140.3594   72.3491  219.3484 H   0  0  0  0  0  0  0  0  0  0  0  0
  140.8046   73.7447  218.3892 H   0  0  0  0  0  0  0  0  0  0  0  0
  142.9977   72.8476  218.1668 H   0  0  0  0  0  0  0  0  0  0  0  0
  141.7600   70.9510  219.8850 H   0  0  0  0  0  0  0  0  0  0  0  0
  143.1730   72.3657  221.1674 H   0  0  0  0  0  0  0  0  0  0  0  0
  144.3744   73.0983  220.1396 H   0  0  0  0  0  0  0  0  0  0  0  0
  142.9998   74.8933  221.4862 H   0  0  0  0  0  0  0  0  0  0  0  0
  143.8736   75.7117  219.5441 H   0  0  0  0  0  0  0  0  0  0  0  0
  142.5918   74.7391  218.5728 H   0  0  0  0  0  0  0  0  0  0  0  0
  143.5892   76.9962  218.0625 H   0  0  0  0  0  0  0  0  0  0  0  0
  141.9616   77.2555  217.3806 H   0  0  0  0  0  0  0  0  0  0  0  0
  143.5663   78.9857  219.2271 H   0  0  0  0  0  0  0  0  0  0  0  0
  142.3907   79.4845  218.0436 H   0  0  0  0  0  0  0  0  0  0  0  0
  140.4967   78.7694  219.5283 H   0  0  0  0  0  0  0  0  0  0  0  0
  142.2575   78.4080  222.4230 H   0  0  0  0  0  0  0  0  0  0  0  0
  142.4417   80.2081  224.1410 H   0  0  0  0  0  0  0  0  0  0  0  0
  141.9041   82.5423  223.4812 H   0  0  0  0  0  0  0  0  0  0  0  0
  141.1996   83.0762  221.1898 H   0  0  0  0  0  0  0  0  0  0  0  0
  141.0164   81.2795  219.4838 H   0  0  0  0  0  0  0  0  0  0  0  0
  142.7829   77.3203  221.0906 H   0  0  0  0  0  0  0  0  0  0  0  0
  141.0885   76.9229  221.2062 H   0  0  0  0  0  0  0  0  0  0  0  0
  138.8541   69.0010  222.8612 H   0  0  0  0  0  0  0  0  0  0  0  0
  138.8838   67.4987  224.8488 H   0  0  0  0  0  0  0  0  0  0  0  0
  139.4753   67.0971  227.1132 H   0  0  0  0  0  0  0  0  0  0  0  0
  141.5500   70.2250  229.2587 H   0  0  0  0  0  0  0  0  0  0  0  0
  141.4994   71.6849  227.2421 H   0  0  0  0  0  0  0  0  0  0  0  0
  1  2  2  0
  2  3  1  0
  3  4  1  0
  4  5  1  0
  5  6  2  0
  5  7  1  0
  7  8  1  0
  8  9  1  0
  9 10  1  0
  9 11  1  0
 11 12  1  0
 12 13  1  0
 13 14  1  0
 14 15  1  0
 15 16  1  0
 16 17  1  0
 17 18  1  0
 18 19  2  0
 19 20  1  0
 20 21  2  0
 21 22  1  0
 22 23  2  0
 17 24  1  0
  2 25  1  0
 25 26  2  0
 26 27  1  0
 27 28  2  0
 28 29  1  0
 29 30  2  0
 30 31  1  0
 30 32  1  0
 32 33  2  0
 33 34  1  0
 34 35  2  0
 12  7  1  0
 24 14  1  0
 35 25  1  0
 23 18  1  0
 34 28  1  0
  3 36  1  0
  4 37  1  0
  4 38  1  0
  8 39  1  0
  8 40  1  0
  9 41  1  6
 10 42  1  0
 11 43  1  0
 11 44  1  0
 12 45  1  1
 13 46  1  0
 13 47  1  0
 15 48  1  0
 15 49  1  0
 16 50  1  0
 16 51  1  0
 17 52  1  6
 19 53  1  0
 20 54  1  0
 21 55  1  0
 22 56  1  0
 23 57  1  0
 24 58  1  0
 24 59  1  0
 26 60  1  0
 27 61  1  0
 29 62  1  0
 32 63  1  0
 33 64  1  0
M  END
>  <smiles>  (25) 
O=C(NCC(=O)N1C[C@H](O)C[C@H]1CN1CC[C@H](c2ccccc2)C1)c1ccc2cc(F)ccc2n1

>  <score_type>  (25) 
oracle

>  <origin>  (25) 
autodockgpu

>  <m_score__min__energy>  (25) 
-9.5500000000000007

>  <m_primary>  (25) 
energy

>  <rmsd>  (25) 
2.9906579983626

>  <m_score__min__rmsd>  (25) 
2.9906579983626

>  <meeko>  (25) 
{"free_energy": -8.81, "intermolecular_energy": -11.2, "internal_energy": -2.72, "cluster_size": 6, "cluster_id": 1, "rank_in_cluster": 3}

>  <energy>  (25) 
-7.85

>  <cluster_rmsd>  (25) 
0.69

>  <cluster>  (25) 
5

$$$$

     RDKit          3D

 64 68  0  0  0  0  0  0  0  0999 V2000
  138.8960   74.8600  222.0110 O   0  0  0  0  0  0  0  0  0  0  0  0
  139.9980   75.4510  221.8270 C   0  0  0  0  0  0  0  0  0  0  0  0
  141.0510   74.7840  221.1270 N   0  0  0  0  0  0  0  0  0  0  0  0
  140.7770   73.4380  220.6650 C   0  0  0  0  0  0  0  0  0  0  0  0
  142.0170   72.6300  220.7630 C   0  0  0  0  0  0  0  0  0  0  0  0
  142.0870   71.5230  221.3520 O   0  0  0  0  0  0  0  0  0  0  0  0
  143.2100   73.1140  220.1620 N   0  0  0  0  0  0  0  0  0  0  0  0
  144.0170   72.4720  219.1290 C   0  0  0  0  0  0  0  0  0  0  0  0
  145.4090   72.9620  219.4320 C   0  0  2  0  0  0  0  0  0  0  0  0
  146.1930   71.8460  219.7160 O   0  0  0  0  0  0  0  0  0  0  0  0
  145.2740   73.8540  220.6620 C   0  0  0  0  0  0  0  0  0  0  0  0
  143.8830   74.4160  220.4840 C   0  0  1  0  0  0  0  0  0  0  0  0
  143.7690   75.2570  219.2720 C   0  0  0  0  0  0  0  0  0  0  0  0
  142.5840   76.0000  219.0350 N   0  0  0  0  0  0  0  0  0  0  0  0
  142.5030   76.2430  217.5990 C   0  0  0  0  0  0  0  0  0  0  0  0
  142.1680   77.6840  217.4000 C   0  0  0  0  0  0  0  0  0  0  0  0
  141.5440   78.0360  218.7290 C   0  0  2  0  0  0  0  0  0  0  0  0
  141.5100   79.4740  218.9900 C   0  0  0  0  0  0  0  0  0  0  0  0
  140.6170   79.9440  219.9490 C   0  0  0  0  0  0  0  0  0  0  0  0
  140.5370   81.2940  220.2390 C   0  0  0  0  0  0  0  0  0  0  0  0
  141.3690   82.1510  219.5490 C   0  0  0  0  0  0  0  0  0  0  0  0
  142.2490   81.6900  218.6050 C   0  0  0  0  0  0  0  0  0  0  0  0
  142.3220   80.3410  218.3220 C   0  0  0  0  0  0  0  0  0  0  0  0
  142.4850   77.2730  219.6760 C   0  0  0  0  0  0  0  0  0  0  0  0
  140.2050   76.8220  222.3270 C   0  0  0  0  0  0  0  0  0  0  0  0
  139.1020   77.5570  222.7060 C   0  0  0  0  0  0  0  0  0  0  0  0
  139.2640   78.8420  223.1780 C   0  0  0  0  0  0  0  0  0  0  0  0
  140.5440   79.3620  223.2560 C   0  0  0  0  0  0  0  0  0  0  0  0
  140.6820   80.6550  223.7330 C   0  0  0  0  0  0  0  0  0  0  0  0
  141.9880   81.1410  223.7960 C   0  0  0  0  0  0  0  0  0  0  0  0
  142.2460   82.3880  224.2440 F   0  0  0  0  0  0  0  0  0  0  0  0
  143.0520   80.3570  223.4010 C   0  0  0  0  0  0  0  0  0  0  0  0
  142.8640   79.0650  222.9300 C   0  0  0  0  0  0  0  0  0  0  0  0
  141.5910   78.5790  222.8630 C   0  0  0  0  0  0  0  0  0  0  0  0
  141.4380   77.3130  222.3980 N   0  0  0  0  0  0  0  0  0  0  0  0
  141.9530   75.2800  220.9790 H   0  0  0  0  0  0  0  0  0  0  0  0
  139.9926   72.9864  221.2901 H   0  0  0  0  0  0  0  0  0  0  0  0
  140.4349   73.4671  219.6199 H   0  0  0  0  0  0  0  0  0  0  0  0
  143.9583   71.3762  219.2057 H   0  0  0  0  0  0  0  0  0  0  0  0
  143.6855   72.7130  218.1082 H   0  0  0  0  0  0  0  0  0  0  0  0
  145.8703   73.5175  218.6021 H   0  0  0  0  0  0  0  0  0  0  0  0
  145.9660   71.5660  220.6440 H   0  0  0  0  0  0  0  0  0  0  0  0
  145.3545   73.2704  221.5909 H   0  0  0  0  0  0  0  0  0  0  0  0
  146.0577   74.6215  220.7443 H   0  0  0  0  0  0  0  0  0  0  0  0
  143.5214   75.0301  221.3219 H   0  0  0  0  0  0  0  0  0  0  0  0
  144.5963   75.9811  219.3086 H   0  0  0  0  0  0  0  0  0  0  0  0
  143.7764   74.5232  218.4525 H   0  0  0  0  0  0  0  0  0  0  0  0
  143.4691   76.0142  217.1254 H   0  0  0  0  0  0  0  0  0  0  0  0
  141.7338   75.6024  217.1429 H   0  0  0  0  0  0  0  0  0  0  0  0
  143.0703   78.2833  217.2087 H   0  0  0  0  0  0  0  0  0  0  0  0
  141.5171   77.8771  216.5345 H   0  0  0  0  0  0  0  0  0  0  0  0
  140.4815   77.7663  218.8200 H   0  0  0  0  0  0  0  0  0  0  0  0
  139.9678   79.2338  220.4821 H   0  0  0  0  0  0  0  0  0  0  0  0
  139.8330   81.6719  220.9951 H   0  0  0  0  0  0  0  0  0  0  0  0
  141.3251   83.2294  219.7614 H   0  0  0  0  0  0  0  0  0  0  0  0
  142.8997   82.3978  218.0707 H   0  0  0  0  0  0  0  0  0  0  0  0
  143.0284   79.9695  217.5650 H   0  0  0  0  0  0  0  0  0  0  0  0
  143.4672   77.7636  219.7441 H   0  0  0  0  0  0  0  0  0  0  0  0
  142.1227   77.2201  220.7133 H   0  0  0  0  0  0  0  0  0  0  0  0
  138.0955   77.1193  222.6320 H   0  0  0  0  0  0  0  0  0  0  0  0
  138.3945   79.4412  223.4860 H   0  0  0  0  0  0  0  0  0  0  0  0
  139.8170   81.2600  224.0424 H   0  0  0  0  0  0  0  0  0  0  0  0
  144.0719   80.7647  223.4606 H   0  0  0  0  0  0  0  0  0  0  0  0
  143.7200   78.4484  222.6185 H   0  0  0  0  0  0  0  0  0  0  0  0
  1  2  2  0
  2  3  1  0
  3  4  1  0
  4  5  1  0
  5  6  2  0
  5  7  1  0
  7  8  1  0
  8  9  1  0
  9 10  1  0
  9 11  1  0
 11 12  1  0
 12 13  1  0
 13 14  1  0
 14 15  1  0
 15 16  1  0
 16 17  1  0
 17 18  1  0
 18 19  2  0
 19 20  1  0
 20 21  2  0
 21 22  1  0
 22 23  2  0
 17 24  1  0
  2 25  1  0
 25 26  2  0
 26 27  1  0
 27 28  2  0
 28 29  1  0
 29 30  2  0
 30 31  1  0
 30 32  1  0
 32 33  2  0
 33 34  1  0
 34 35  2  0
 12  7  1  0
 24 14  1  0
 35 25  1  0
 23 18  1  0
 34 28  1  0
  3 36  1  0
  4 37  1  0
  4 38  1  0
  8 39  1  0
  8 40  1  0
  9 41  1  6
 10 42  1  0
 11 43  1  0
 11 44  1  0
 12 45  1  1
 13 46  1  0
 13 47  1  0
 15 48  1  0
 15 49  1  0
 16 50  1  0
 16 51  1  0
 17 52  1  6
 19 53  1  0
 20 54  1  0
 21 55  1  0
 22 56  1  0
 23 57  1  0
 24 58  1  0
 24 59  1  0
 26 60  1  0
 27 61  1  0
 29 62  1  0
 32 63  1  0
 33 64  1  0
M  END
>  <smiles>  (26) 
O=C(NCC(=O)N1C[C@H](O)C[C@H]1CN1CC[C@H](c2ccccc2)C1)c1ccc2cc(F)ccc2n1

>  <score_type>  (26) 
oracle

>  <origin>  (26) 
autodockgpu

>  <m_score__min__energy>  (26) 
-9.5500000000000007

>  <m_primary>  (26) 
energy

>  <rmsd>  (26) 
7.178985578684881

>  <m_score__min__rmsd>  (26) 
7.178985578684881

>  <meeko>  (26) 
{"free_energy": -7.9, "intermolecular_energy": -10.28, "internal_energy": -4.27, "cluster_size": 27, "cluster_id": 5, "rank_in_cluster": 6}

>  <energy>  (26) 
-7.74

>  <cluster_rmsd>  (26) 
1.12

>  <cluster>  (26) 
5

$$$$

     RDKit          3D

 64 68  0  0  0  0  0  0  0  0999 V2000
  139.2290   74.5930  222.3520 O   0  0  0  0  0  0  0  0  0  0  0  0
  140.2470   75.2380  221.9690 C   0  0  0  0  0  0  0  0  0  0  0  0
  141.4030   74.5310  221.5160 N   0  0  0  0  0  0  0  0  0  0  0  0
  141.3290   73.0840  221.5270 C   0  0  0  0  0  0  0  0  0  0  0  0
  142.0550   72.5520  220.3480 C   0  0  0  0  0  0  0  0  0  0  0  0
  141.5970   71.6680  219.5830 O   0  0  0  0  0  0  0  0  0  0  0  0
  143.3480   73.0570  220.0430 N   0  0  0  0  0  0  0  0  0  0  0  0
  144.2240   72.6680  218.9420 C   0  0  0  0  0  0  0  0  0  0  0  0
  145.6020   72.8850  219.5110 C   0  0  2  0  0  0  0  0  0  0  0  0
  146.2550   71.6540  219.5050 O   0  0  0  0  0  0  0  0  0  0  0  0
  145.3860   73.3750  220.9400 C   0  0  0  0  0  0  0  0  0  0  0  0
  144.0760   74.1160  220.8160 C   0  0  1  0  0  0  0  0  0  0  0  0
  144.1790   75.2910  219.9220 C   0  0  0  0  0  0  0  0  0  0  0  0
  143.0130   75.8240  219.3160 N   0  0  0  0  0  0  0  0  0  0  0  0
  143.2360   75.8340  217.8740 C   0  0  0  0  0  0  0  0  0  0  0  0
  142.8170   77.1700  217.3580 C   0  0  0  0  0  0  0  0  0  0  0  0
  141.8770   77.6330  218.4450 C   0  0  2  0  0  0  0  0  0  0  0  0
  141.6450   79.0760  218.4340 C   0  0  0  0  0  0  0  0  0  0  0  0
  142.7370   79.9130  218.2150 C   0  0  0  0  0  0  0  0  0  0  0  0
  142.5800   81.2870  218.1960 C   0  0  0  0  0  0  0  0  0  0  0  0
  141.3140   81.7950  218.3990 C   0  0  0  0  0  0  0  0  0  0  0  0
  140.2390   80.9720  218.6140 C   0  0  0  0  0  0  0  0  0  0  0  0
  140.4040   79.6020  218.6310 C   0  0  0  0  0  0  0  0  0  0  0  0
  142.6470   77.1550  219.6870 C   0  0  0  0  0  0  0  0  0  0  0  0
  140.2490   76.7120  221.9860 C   0  0  0  0  0  0  0  0  0  0  0  0
  139.0730   77.3740  221.7100 C   0  0  0  0  0  0  0  0  0  0  0  0
  139.0440   78.7520  221.7190 C   0  0  0  0  0  0  0  0  0  0  0  0
  140.2120   79.4370  222.0070 C   0  0  0  0  0  0  0  0  0  0  0  0
  140.1590   80.8210  222.0110 C   0  0  0  0  0  0  0  0  0  0  0  0
  141.3570   81.4720  222.3060 C   0  0  0  0  0  0  0  0  0  0  0  0
  141.4270   82.8200  222.3380 F   0  0  0  0  0  0  0  0  0  0  0  0
  142.5030   80.7530  222.5730 C   0  0  0  0  0  0  0  0  0  0  0  0
  142.5070   79.3650  222.5590 C   0  0  0  0  0  0  0  0  0  0  0  0
  141.3410   78.7170  222.2710 C   0  0  0  0  0  0  0  0  0  0  0  0
  141.3760   77.3600  222.2640 N   0  0  0  0  0  0  0  0  0  0  0  0
  142.2350   75.0710  221.2020 H   0  0  0  0  0  0  0  0  0  0  0  0
  141.7901   72.6986  222.4483 H   0  0  0  0  0  0  0  0  0  0  0  0
  140.2765   72.7664  221.4885 H   0  0  0  0  0  0  0  0  0  0  0  0
  144.0708   71.6135  218.6688 H   0  0  0  0  0  0  0  0  0  0  0  0
  144.0411   73.2398  218.0203 H   0  0  0  0  0  0  0  0  0  0  0  0
  146.2043   73.6090  218.9427 H   0  0  0  0  0  0  0  0  0  0  0  0
  146.3150   71.3580  220.4540 H   0  0  0  0  0  0  0  0  0  0  0  0
  145.3056   72.5339  221.6443 H   0  0  0  0  0  0  0  0  0  0  0  0
  146.2108   73.9893  221.3305 H   0  0  0  0  0  0  0  0  0  0  0  0
  143.6624   74.4850  221.7661 H   0  0  0  0  0  0  0  0  0  0  0  0
  144.6287   76.1020  220.5137 H   0  0  0  0  0  0  0  0  0  0  0  0
  144.7567   74.9092  219.0673 H   0  0  0  0  0  0  0  0  0  0  0  0
  144.3017   75.6669  217.6588 H   0  0  0  0  0  0  0  0  0  0  0  0
  142.6555   75.0351  217.3894 H   0  0  0  0  0  0  0  0  0  0  0  0
  143.6768   77.8483  217.2548 H   0  0  0  0  0  0  0  0  0  0  0  0
  142.3637   77.1411  216.3562 H   0  0  0  0  0  0  0  0  0  0  0  0
  140.8529   77.2405  218.3598 H   0  0  0  0  0  0  0  0  0  0  0  0
  143.7341   79.4767  218.0556 H   0  0  0  0  0  0  0  0  0  0  0  0
  143.4380   81.9537  218.0244 H   0  0  0  0  0  0  0  0  0  0  0  0
  141.1635   82.8846  218.3882 H   0  0  0  0  0  0  0  0  0  0  0  0
  139.2407   81.4054  218.7736 H   0  0  0  0  0  0  0  0  0  0  0  0
  139.5416   78.9410  218.8020 H   0  0  0  0  0  0  0  0  0  0  0  0
  143.5353   77.7773  219.8705 H   0  0  0  0  0  0  0  0  0  0  0  0
  142.0648   77.2114  220.6186 H   0  0  0  0  0  0  0  0  0  0  0  0
  138.1596   76.8046  221.4831 H   0  0  0  0  0  0  0  0  0  0  0  0
  138.1128   79.2958  221.5020 H   0  0  0  0  0  0  0  0  0  0  0  0
  139.2315   81.3717  221.7953 H   0  0  0  0  0  0  0  0  0  0  0  0
  143.4345   81.2913  222.8021 H   0  0  0  0  0  0  0  0  0  0  0  0
  143.4268   78.8016  222.7746 H   0  0  0  0  0  0  0  0  0  0  0  0
  1  2  2  0
  2  3  1  0
  3  4  1  0
  4  5  1  0
  5  6  2  0
  5  7  1  0
  7  8  1  0
  8  9  1  0
  9 10  1  0
  9 11  1  0
 11 12  1  0
 12 13  1  0
 13 14  1  0
 14 15  1  0
 15 16  1  0
 16 17  1  0
 17 18  1  0
 18 19  2  0
 19 20  1  0
 20 21  2  0
 21 22  1  0
 22 23  2  0
 17 24  1  0
  2 25  1  0
 25 26  2  0
 26 27  1  0
 27 28  2  0
 28 29  1  0
 29 30  2  0
 30 31  1  0
 30 32  1  0
 32 33  2  0
 33 34  1  0
 34 35  2  0
 12  7  1  0
 24 14  1  0
 35 25  1  0
 23 18  1  0
 34 28  1  0
  3 36  1  0
  4 37  1  0
  4 38  1  0
  8 39  1  0
  8 40  1  0
  9 41  1  6
 10 42  1  0
 11 43  1  0
 11 44  1  0
 12 45  1  1
 13 46  1  0
 13 47  1  0
 15 48  1  0
 15 49  1  0
 16 50  1  0
 16 51  1  0
 17 52  1  6
 19 53  1  0
 20 54  1  0
 21 55  1  0
 22 56  1  0
 23 57  1  0
 24 58  1  0
 24 59  1  0
 26 60  1  0
 27 61  1  0
 29 62  1  0
 32 63  1  0
 33 64  1  0
M  END
>  <smiles>  (27) 
O=C(NCC(=O)N1C[C@H](O)C[C@H]1CN1CC[C@H](c2ccccc2)C1)c1ccc2cc(F)ccc2n1

>  <score_type>  (27) 
oracle

>  <origin>  (27) 
autodockgpu

>  <m_score__min__energy>  (27) 
-9.5500000000000007

>  <m_primary>  (27) 
energy

>  <rmsd>  (27) 
7.62300306921974

>  <m_score__min__rmsd>  (27) 
7.62300306921974

>  <meeko>  (27) 
{"free_energy": -7.45, "intermolecular_energy": -9.84, "internal_energy": -4.29, "cluster_size": 27, "cluster_id": 5, "rank_in_cluster": 23}

>  <energy>  (27) 
-7.72

>  <cluster_rmsd>  (27) 
0.72

>  <cluster>  (27) 
5

$$$$

     RDKit          3D

 64 68  0  0  0  0  0  0  0  0999 V2000
  140.7560   77.1870  219.0070 O   0  0  0  0  0  0  0  0  0  0  0  0
  141.1840   77.0980  220.1930 C   0  0  0  0  0  0  0  0  0  0  0  0
  142.2010   76.1450  220.5090 N   0  0  0  0  0  0  0  0  0  0  0  0
  142.6840   75.3220  219.4190 C   0  0  0  0  0  0  0  0  0  0  0  0
  141.6690   74.2870  219.1050 C   0  0  0  0  0  0  0  0  0  0  0  0
  141.7730   73.4670  218.1600 O   0  0  0  0  0  0  0  0  0  0  0  0
  140.4990   74.1970  219.9060 N   0  0  0  0  0  0  0  0  0  0  0  0
  139.1390   74.5970  219.5550 C   0  0  0  0  0  0  0  0  0  0  0  0
  138.5490   74.9990  220.8810 C   0  0  2  0  0  0  0  0  0  0  0  0
  138.1910   76.3430  220.7880 O   0  0  0  0  0  0  0  0  0  0  0  0
  139.6650   74.8080  221.9040 C   0  0  0  0  0  0  0  0  0  0  0  0
  140.4380   73.6570  221.3040 C   0  0  1  0  0  0  0  0  0  0  0  0
  139.6350   72.4160  221.2390 C   0  0  0  0  0  0  0  0  0  0  0  0
  139.9100   71.3470  222.1290 N   0  0  0  0  0  0  0  0  0  0  0  0
  138.6340   70.7360  222.4840 C   0  0  0  0  0  0  0  0  0  0  0  0
  138.6160   70.5460  223.9650 C   0  0  0  0  0  0  0  0  0  0  0  0
  140.0910   70.5550  224.2880 C   0  0  2  0  0  0  0  0  0  0  0  0
  140.3730   70.8220  225.6980 C   0  0  0  0  0  0  0  0  0  0  0  0
  139.8430   69.9520  226.6470 C   0  0  0  0  0  0  0  0  0  0  0  0
  140.0740   70.1530  227.9960 C   0  0  0  0  0  0  0  0  0  0  0  0
  140.8410   71.2390  228.3640 C   0  0  0  0  0  0  0  0  0  0  0  0
  141.3640   72.0960  227.4300 C   0  0  0  0  0  0  0  0  0  0  0  0
  141.1290   71.8870  226.0860 C   0  0  0  0  0  0  0  0  0  0  0  0
  140.5630   71.6830  223.3540 C   0  0  0  0  0  0  0  0  0  0  0  0
  140.6430   77.9700  221.2510 C   0  0  0  0  0  0  0  0  0  0  0  0
  141.3650   78.1170  222.4160 C   0  0  0  0  0  0  0  0  0  0  0  0
  140.8840   78.9250  223.4230 C   0  0  0  0  0  0  0  0  0  0  0  0
  139.6750   79.5720  223.2320 C   0  0  0  0  0  0  0  0  0  0  0  0
  139.2110   80.3790  224.2580 C   0  0  0  0  0  0  0  0  0  0  0  0
  137.9910   81.0130  224.0260 C   0  0  0  0  0  0  0  0  0  0  0  0
  137.4390   81.8240  224.9540 F   0  0  0  0  0  0  0  0  0  0  0  0
  137.3140   80.8250  222.8390 C   0  0  0  0  0  0  0  0  0  0  0  0
  137.8190   80.0060  221.8380 C   0  0  0  0  0  0  0  0  0  0  0  0
  139.0120   79.3810  222.0540 C   0  0  0  0  0  0  0  0  0  0  0  0
  139.4810   78.5860  221.0590 N   0  0  0  0  0  0  0  0  0  0  0  0
  142.5470   76.0810  221.4880 H   0  0  0  0  0  0  0  0  0  0  0  0
  142.8566   75.9495  218.5322 H   0  0  0  0  0  0  0  0  0  0  0  0
  143.6282   74.8385  219.7102 H   0  0  0  0  0  0  0  0  0  0  0  0
  139.1451   75.4434  218.8525 H   0  0  0  0  0  0  0  0  0  0  0  0
  138.5702   73.8012  219.0518 H   0  0  0  0  0  0  0  0  0  0  0  0
  137.6620   74.4133  221.1644 H   0  0  0  0  0  0  0  0  0  0  0  0
  138.8120   76.7600  220.1310 H   0  0  0  0  0  0  0  0  0  0  0  0
  140.2897   75.7095  221.9888 H   0  0  0  0  0  0  0  0  0  0  0  0
  139.3056   74.6193  222.9264 H   0  0  0  0  0  0  0  0  0  0  0  0
  141.3663   73.3977  221.8341 H   0  0  0  0  0  0  0  0  0  0  0  0
  138.5872   72.7065  221.4055 H   0  0  0  0  0  0  0  0  0  0  0  0
  139.8932   71.9986  220.2545 H   0  0  0  0  0  0  0  0  0  0  0  0
  137.8065   71.3944  222.1810 H   0  0  0  0  0  0  0  0  0  0  0  0
  138.5141   69.7704  221.9710 H   0  0  0  0  0  0  0  0  0  0  0  0
  138.0892   71.3695  224.4693 H   0  0  0  0  0  0  0  0  0  0  0  0
  138.0905   69.6374  224.2941 H   0  0  0  0  0  0  0  0  0  0  0  0
  140.5971   69.5902  224.1361 H   0  0  0  0  0  0  0  0  0  0  0  0
  139.2342   69.0959  226.3207 H   0  0  0  0  0  0  0  0  0  0  0  0
  139.6594   69.4689  228.7510 H   0  0  0  0  0  0  0  0  0  0  0  0
  141.0375   71.4216  229.4308 H   0  0  0  0  0  0  0  0  0  0  0  0
  141.9730   72.9532  227.7530 H   0  0  0  0  0  0  0  0  0  0  0  0
  141.5480   72.5735  225.3356 H   0  0  0  0  0  0  0  0  0  0  0  0
  140.2400   72.6680  223.7220 H   0  0  0  0  0  0  0  0  0  0  0  0
  141.6570   71.7584  223.2673 H   0  0  0  0  0  0  0  0  0  0  0  0
  142.3227   77.5906  222.5414 H   0  0  0  0  0  0  0  0  0  0  0  0
  141.4483   79.0533  224.3585 H   0  0  0  0  0  0  0  0  0  0  0  0
  139.7697   80.5112  225.1963 H   0  0  0  0  0  0  0  0  0  0  0  0
  136.3523   81.3354  222.6819 H   0  0  0  0  0  0  0  0  0  0  0  0
  137.2709   79.8648  220.8948 H   0  0  0  0  0  0  0  0  0  0  0  0
  1  2  2  0
  2  3  1  0
  3  4  1  0
  4  5  1  0
  5  6  2  0
  5  7  1  0
  7  8  1  0
  8  9  1  0
  9 10  1  0
  9 11  1  0
 11 12  1  0
 12 13  1  0
 13 14  1  0
 14 15  1  0
 15 16  1  0
 16 17  1  0
 17 18  1  0
 18 19  2  0
 19 20  1  0
 20 21  2  0
 21 22  1  0
 22 23  2  0
 17 24  1  0
  2 25  1  0
 25 26  2  0
 26 27  1  0
 27 28  2  0
 28 29  1  0
 29 30  2  0
 30 31  1  0
 30 32  1  0
 32 33  2  0
 33 34  1  0
 34 35  2  0
 12  7  1  0
 24 14  1  0
 35 25  1  0
 23 18  1  0
 34 28  1  0
  3 36  1  0
  4 37  1  0
  4 38  1  0
  8 39  1  0
  8 40  1  0
  9 41  1  1
 10 42  1  0
 11 43  1  0
 11 44  1  0
 12 45  1  1
 13 46  1  0
 13 47  1  0
 15 48  1  0
 15 49  1  0
 16 50  1  0
 16 51  1  0
 17 52  1  6
 19 53  1  0
 20 54  1  0
 21 55  1  0
 22 56  1  0
 23 57  1  0
 24 58  1  0
 24 59  1  0
 26 60  1  0
 27 61  1  0
 29 62  1  0
 32 63  1  0
 33 64  1  0
M  END
>  <smiles>  (28) 
O=C(NCC(=O)N1C[C@H](O)C[C@H]1CN1CC[C@H](c2ccccc2)C1)c1ccc2cc(F)ccc2n1

>  <score_type>  (28) 
oracle

>  <origin>  (28) 
autodockgpu

>  <m_score__min__energy>  (28) 
-9.5500000000000007

>  <m_primary>  (28) 
energy

>  <rmsd>  (28) 
8.948398195237276

>  <m_score__min__rmsd>  (28) 
8.948398195237276

>  <meeko>  (28) 
{"free_energy": -7.35, "intermolecular_energy": -9.74, "internal_energy": -3.36, "cluster_size": 5, "cluster_id": 6, "rank_in_cluster": 4}

>  <energy>  (28) 
-7.72

>  <cluster_rmsd>  (28) 
1.15

>  <cluster>  (28) 
5

$$$$

     RDKit          3D

 64 68  0  0  0  0  0  0  0  0999 V2000
  140.0570   73.3610  222.3850 O   0  0  0  0  0  0  0  0  0  0  0  0
  140.3000   74.2540  221.5230 C   0  0  0  0  0  0  0  0  0  0  0  0
  140.7640   73.8780  220.2250 N   0  0  0  0  0  0  0  0  0  0  0  0
  140.9300   72.4590  219.9780 C   0  0  0  0  0  0  0  0  0  0  0  0
  142.1040   72.2560  219.0950 C   0  0  0  0  0  0  0  0  0  0  0  0
  142.0870   71.5430  218.0600 O   0  0  0  0  0  0  0  0  0  0  0  0
  143.3320   72.8950  219.4140 N   0  0  0  0  0  0  0  0  0  0  0  0
  144.5880   72.8430  218.6720 C   0  0  0  0  0  0  0  0  0  0  0  0
  145.6270   72.9920  219.7520 C   0  0  2  0  0  0  0  0  0  0  0  0
  146.4130   71.8410  219.7380 O   0  0  0  0  0  0  0  0  0  0  0  0
  144.8500   73.0990  221.0610 C   0  0  0  0  0  0  0  0  0  0  0  0
  143.5760   73.7710  220.6070 C   0  0  1  0  0  0  0  0  0  0  0  0
  143.8160   75.1340  220.0840 C   0  0  0  0  0  0  0  0  0  0  0  0
  142.7540   75.8620  219.4900 N   0  0  0  0  0  0  0  0  0  0  0  0
  143.0270   75.9420  218.0590 C   0  0  0  0  0  0  0  0  0  0  0  0
  142.8080   77.3560  217.6320 C   0  0  0  0  0  0  0  0  0  0  0  0
  141.9010   77.8650  218.7270 C   0  0  2  0  0  0  0  0  0  0  0  0
  141.8650   79.3240  218.8170 C   0  0  0  0  0  0  0  0  0  0  0  0
  141.4830   79.8940  220.0290 C   0  0  0  0  0  0  0  0  0  0  0  0
  141.4280   81.2690  220.1750 C   0  0  0  0  0  0  0  0  0  0  0  0
  141.7630   82.0470  219.0860 C   0  0  0  0  0  0  0  0  0  0  0  0
  142.1400   81.4860  217.8930 C   0  0  0  0  0  0  0  0  0  0  0  0
  142.1920   80.1130  217.7560 C   0  0  0  0  0  0  0  0  0  0  0  0
  142.5570   77.2000  219.9490 C   0  0  0  0  0  0  0  0  0  0  0  0
  140.1080   75.6790  221.8480 C   0  0  0  0  0  0  0  0  0  0  0  0
  138.9370   76.2910  221.4560 C   0  0  0  0  0  0  0  0  0  0  0  0
  138.7290   77.6220  221.7460 C   0  0  0  0  0  0  0  0  0  0  0  0
  139.7150   78.3130  222.4290 C   0  0  0  0  0  0  0  0  0  0  0  0
  139.4850   79.6490  222.7090 C   0  0  0  0  0  0  0  0  0  0  0  0
  140.5030   80.3080  223.3990 C   0  0  0  0  0  0  0  0  0  0  0  0
  140.3900   81.6140  223.7270 F   0  0  0  0  0  0  0  0  0  0  0  0
  141.6530   79.6410  223.7640 C   0  0  0  0  0  0  0  0  0  0  0  0
  141.8390   78.2990  223.4610 C   0  0  0  0  0  0  0  0  0  0  0  0
  140.8500   77.6440  222.7870 C   0  0  0  0  0  0  0  0  0  0  0  0
  141.0610   76.3330  222.5040 N   0  0  0  0  0  0  0  0  0  0  0  0
  140.9590   74.6200  219.5240 H   0  0  0  0  0  0  0  0  0  0  0  0
  141.0911   71.9351  220.9317 H   0  0  0  0  0  0  0  0  0  0  0  0
  140.0273   72.0583  219.4936 H   0  0  0  0  0  0  0  0  0  0  0  0
  144.6978   71.8822  218.1478 H   0  0  0  0  0  0  0  0  0  0  0  0
  144.6617   73.6138  217.8907 H   0  0  0  0  0  0  0  0  0  0  0  0
  146.2783   73.8683  219.6180 H   0  0  0  0  0  0  0  0  0  0  0  0
  146.4040   71.4770  220.6650 H   0  0  0  0  0  0  0  0  0  0  0  0
  144.6488   72.1063  221.4901 H   0  0  0  0  0  0  0  0  0  0  0  0
  145.3839   73.6434  221.8539 H   0  0  0  0  0  0  0  0  0  0  0  0
  142.8036   73.8697  221.3840 H   0  0  0  0  0  0  0  0  0  0  0  0
  144.1825   75.7379  220.9272 H   0  0  0  0  0  0  0  0  0  0  0  0
  144.5074   74.9652  219.2453 H   0  0  0  0  0  0  0  0  0  0  0  0
  144.0679   75.6476  217.8594 H   0  0  0  0  0  0  0  0  0  0  0  0
  142.3627   75.2647  217.5022 H   0  0  0  0  0  0  0  0  0  0  0  0
  143.7536   77.9171  217.6004 H   0  0  0  0  0  0  0  0  0  0  0  0
  142.3899   77.4589  216.6198 H   0  0  0  0  0  0  0  0  0  0  0  0
  140.8371   77.6226  218.5880 H   0  0  0  0  0  0  0  0  0  0  0  0
  141.2226   79.2451  220.8782 H   0  0  0  0  0  0  0  0  0  0  0  0
  141.1268   81.7270  221.1287 H   0  0  0  0  0  0  0  0  0  0  0  0
  141.7268   83.1426  219.1769 H   0  0  0  0  0  0  0  0  0  0  0  0
  142.4019   82.1320  217.0421 H   0  0  0  0  0  0  0  0  0  0  0  0
  142.4944   79.6611  216.7998 H   0  0  0  0  0  0  0  0  0  0  0  0
  143.5138   77.6812  220.2001 H   0  0  0  0  0  0  0  0  0  0  0  0
  141.9556   77.2694  220.8674 H   0  0  0  0  0  0  0  0  0  0  0  0
  138.1705   75.7185  220.9131 H   0  0  0  0  0  0  0  0  0  0  0  0
  137.7992   78.1247  221.4412 H   0  0  0  0  0  0  0  0  0  0  0  0
  138.5583   80.1588  222.4067 H   0  0  0  0  0  0  0  0  0  0  0  0
  142.4404   80.1840  224.3072 H   0  0  0  0  0  0  0  0  0  0  0  0
  142.7608   77.7768  223.7570 H   0  0  0  0  0  0  0  0  0  0  0  0
  1  2  2  0
  2  3  1  0
  3  4  1  0
  4  5  1  0
  5  6  2  0
  5  7  1  0
  7  8  1  0
  8  9  1  0
  9 10  1  0
  9 11  1  0
 11 12  1  0
 12 13  1  0
 13 14  1  0
 14 15  1  0
 15 16  1  0
 16 17  1  0
 17 18  1  0
 18 19  2  0
 19 20  1  0
 20 21  2  0
 21 22  1  0
 22 23  2  0
 17 24  1  0
  2 25  1  0
 25 26  2  0
 26 27  1  0
 27 28  2  0
 28 29  1  0
 29 30  2  0
 30 31  1  0
 30 32  1  0
 32 33  2  0
 33 34  1  0
 34 35  2  0
 12  7  1  0
 24 14  1  0
 35 25  1  0
 23 18  1  0
 34 28  1  0
  3 36  1  0
  4 37  1  0
  4 38  1  0
  8 39  1  0
  8 40  1  0
  9 41  1  6
 10 42  1  0
 11 43  1  0
 11 44  1  0
 12 45  1  1
 13 46  1  0
 13 47  1  0
 15 48  1  0
 15 49  1  0
 16 50  1  0
 16 51  1  0
 17 52  1  6
 19 53  1  0
 20 54  1  0
 21 55  1  0
 22 56  1  0
 23 57  1  0
 24 58  1  0
 24 59  1  0
 26 60  1  0
 27 61  1  0
 29 62  1  0
 32 63  1  0
 33 64  1  0
M  END
>  <smiles>  (29) 
O=C(NCC(=O)N1C[C@H](O)C[C@H]1CN1CC[C@H](c2ccccc2)C1)c1ccc2cc(F)ccc2n1

>  <score_type>  (29) 
oracle

>  <origin>  (29) 
autodockgpu

>  <m_score__min__energy>  (29) 
-9.5500000000000007

>  <m_primary>  (29) 
energy

>  <rmsd>  (29) 
6.905636847264982

>  <m_score__min__rmsd>  (29) 
6.905636847264982

>  <meeko>  (29) 
{"free_energy": -7.72, "intermolecular_energy": -10.11, "internal_energy": -4.09, "cluster_size": 27, "cluster_id": 5, "rank_in_cluster": 11}

>  <energy>  (29) 
-7.72

>  <cluster_rmsd>  (29) 
1.16

>  <cluster>  (29) 
5

$$$$

     RDKit          3D

 64 68  0  0  0  0  0  0  0  0999 V2000
  142.8620   75.6490  217.9830 O   0  0  0  0  0  0  0  0  0  0  0  0
  142.8460   76.1000  219.1630 C   0  0  0  0  0  0  0  0  0  0  0  0
  143.1810   75.2400  220.2540 N   0  0  0  0  0  0  0  0  0  0  0  0
  143.5260   73.8710  219.9240 C   0  0  0  0  0  0  0  0  0  0  0  0
  142.3760   72.9920  220.2470 C   0  0  0  0  0  0  0  0  0  0  0  0
  142.4440   71.7380  220.2870 O   0  0  0  0  0  0  0  0  0  0  0  0
  141.1130   73.5760  220.5330 N   0  0  0  0  0  0  0  0  0  0  0  0
  140.0980   74.0230  219.5840 C   0  0  0  0  0  0  0  0  0  0  0  0
  139.4290   75.1600  220.3130 C   0  0  2  0  0  0  0  0  0  0  0  0
  139.6110   76.3110  219.5480 O   0  0  0  0  0  0  0  0  0  0  0  0
  140.1580   75.2790  221.6480 C   0  0  0  0  0  0  0  0  0  0  0  0
  140.5680   73.8480  221.9040 C   0  0  1  0  0  0  0  0  0  0  0  0
  139.4030   72.9530  222.0770 C   0  0  0  0  0  0  0  0  0  0  0  0
  139.5850   71.6430  222.5880 N   0  0  0  0  0  0  0  0  0  0  0  0
  138.2650   71.1110  222.9050 C   0  0  0  0  0  0  0  0  0  0  0  0
  138.3350   70.4950  224.2630 C   0  0  0  0  0  0  0  0  0  0  0  0
  139.8160   70.2320  224.3980 C   0  0  2  0  0  0  0  0  0  0  0  0
  140.2440   70.0330  225.7820 C   0  0  0  0  0  0  0  0  0  0  0  0
  140.6010   71.1570  226.5240 C   0  0  0  0  0  0  0  0  0  0  0  0
  141.0170   71.0320  227.8370 C   0  0  0  0  0  0  0  0  0  0  0  0
  141.0640   69.7650  228.3810 C   0  0  0  0  0  0  0  0  0  0  0  0
  140.7120   68.6590  227.6520 C   0  0  0  0  0  0  0  0  0  0  0  0
  140.2980   68.7930  226.3420 C   0  0  0  0  0  0  0  0  0  0  0  0
  140.3750   71.5210  223.7720 C   0  0  0  0  0  0  0  0  0  0  0  0
  142.4840   77.5050  219.4230 C   0  0  0  0  0  0  0  0  0  0  0  0
  142.5340   78.4010  218.3760 C   0  0  0  0  0  0  0  0  0  0  0  0
  142.2020   79.7210  218.5880 C   0  0  0  0  0  0  0  0  0  0  0  0
  141.8240   80.1130  219.8610 C   0  0  0  0  0  0  0  0  0  0  0  0
  141.4950   81.4450  220.0500 C   0  0  0  0  0  0  0  0  0  0  0  0
  141.1210   81.7980  221.3470 C   0  0  0  0  0  0  0  0  0  0  0  0
  140.7780   83.0680  221.6510 F   0  0  0  0  0  0  0  0  0  0  0  0
  141.0910   80.8560  222.3530 C   0  0  0  0  0  0  0  0  0  0  0  0
  141.4300   79.5310  222.1150 C   0  0  0  0  0  0  0  0  0  0  0  0
  141.7980   79.1740  220.8510 C   0  0  0  0  0  0  0  0  0  0  0  0
  142.1240   77.8710  220.6480 N   0  0  0  0  0  0  0  0  0  0  0  0
  143.1670   75.6220  221.2210 H   0  0  0  0  0  0  0  0  0  0  0  0
  143.7567   73.7972  218.8510 H   0  0  0  0  0  0  0  0  0  0  0  0
  144.4066   73.5593  220.5048 H   0  0  0  0  0  0  0  0  0  0  0  0
  140.5583   74.3704  218.6473 H   0  0  0  0  0  0  0  0  0  0  0  0
  139.3992   73.2262  219.2896 H   0  0  0  0  0  0  0  0  0  0  0  0
  138.3517   75.0071  220.4742 H   0  0  0  0  0  0  0  0  0  0  0  0
  140.3350   76.8340  219.9860 H   0  0  0  0  0  0  0  0  0  0  0  0
  141.0346   75.9388  221.5684 H   0  0  0  0  0  0  0  0  0  0  0  0
  139.5483   75.7185  222.4512 H   0  0  0  0  0  0  0  0  0  0  0  0
  141.2049   73.7006  222.7887 H   0  0  0  0  0  0  0  0  0  0  0  0
  138.7072   73.4655  222.7576 H   0  0  0  0  0  0  0  0  0  0  0  0
  139.0640   72.7771  221.0454 H   0  0  0  0  0  0  0  0  0  0  0  0
  137.5233   71.9233  222.9004 H   0  0  0  0  0  0  0  0  0  0  0  0
  137.9635   70.3616  222.1584 H   0  0  0  0  0  0  0  0  0  0  0  0
  137.9778   71.1891  225.0380 H   0  0  0  0  0  0  0  0  0  0  0  0
  137.7076   69.5994  224.3822 H   0  0  0  0  0  0  0  0  0  0  0  0
  140.1602   69.3027  223.9206 H   0  0  0  0  0  0  0  0  0  0  0  0
  140.5515   72.1535  226.0609 H   0  0  0  0  0  0  0  0  0  0  0  0
  141.3013   71.9146  228.4287 H   0  0  0  0  0  0  0  0  0  0  0  0
  141.3914   69.6396  229.4236 H   0  0  0  0  0  0  0  0  0  0  0  0
  140.7596   67.6611  228.1124 H   0  0  0  0  0  0  0  0  0  0  0  0
  140.0144   67.9064  225.7560 H   0  0  0  0  0  0  0  0  0  0  0  0
  140.2316   72.3840  224.4389 H   0  0  0  0  0  0  0  0  0  0  0  0
  141.4578   71.4880  223.5812 H   0  0  0  0  0  0  0  0  0  0  0  0
  142.8381   78.0627  217.3745 H   0  0  0  0  0  0  0  0  0  0  0  0
  142.2365   80.4482  217.7634 H   0  0  0  0  0  0  0  0  0  0  0  0
  141.5265   82.1777  219.2301 H   0  0  0  0  0  0  0  0  0  0  0  0
  140.7919   81.1609  223.3667 H   0  0  0  0  0  0  0  0  0  0  0  0
  141.4025   78.7877  222.9254 H   0  0  0  0  0  0  0  0  0  0  0  0
  1  2  2  0
  2  3  1  0
  3  4  1  0
  4  5  1  0
  5  6  2  0
  5  7  1  0
  7  8  1  0
  8  9  1  0
  9 10  1  0
  9 11  1  0
 11 12  1  0
 12 13  1  0
 13 14  1  0
 14 15  1  0
 15 16  1  0
 16 17  1  0
 17 18  1  0
 18 19  2  0
 19 20  1  0
 20 21  2  0
 21 22  1  0
 22 23  2  0
 17 24  1  0
  2 25  1  0
 25 26  2  0
 26 27  1  0
 27 28  2  0
 28 29  1  0
 29 30  2  0
 30 31  1  0
 30 32  1  0
 32 33  2  0
 33 34  1  0
 34 35  2  0
 12  7  1  0
 24 14  1  0
 35 25  1  0
 23 18  1  0
 34 28  1  0
  3 36  1  0
  4 37  1  0
  4 38  1  0
  8 39  1  0
  8 40  1  0
  9 41  1  1
 10 42  1  0
 11 43  1  0
 11 44  1  0
 12 45  1  1
 13 46  1  0
 13 47  1  0
 15 48  1  0
 15 49  1  0
 16 50  1  0
 16 51  1  0
 17 52  1  6
 19 53  1  0
 20 54  1  0
 21 55  1  0
 22 56  1  0
 23 57  1  0
 24 58  1  0
 24 59  1  0
 26 60  1  0
 27 61  1  0
 29 62  1  0
 32 63  1  0
 33 64  1  0
M  END
>  <smiles>  (30) 
O=C(NCC(=O)N1C[C@H](O)C[C@H]1CN1CC[C@H](c2ccccc2)C1)c1ccc2cc(F)ccc2n1

>  <score_type>  (30) 
oracle

>  <origin>  (30) 
autodockgpu

>  <m_score__min__energy>  (30) 
-9.5500000000000007

>  <m_primary>  (30) 
energy

>  <rmsd>  (30) 
9.344017068019962

>  <m_score__min__rmsd>  (30) 
9.344017068019962

>  <meeko>  (30) 
{"free_energy": -7.98, "intermolecular_energy": -10.37, "internal_energy": -3.3, "cluster_size": 5, "cluster_id": 6, "rank_in_cluster": 2}

>  <energy>  (30) 
-7.71

>  <cluster_rmsd>  (30) 
0.98

>  <cluster>  (30) 
5

$$$$

     RDKit          3D

 64 68  0  0  0  0  0  0  0  0999 V2000
  138.5430   72.5760  222.3220 O   0  0  0  0  0  0  0  0  0  0  0  0
  139.6650   72.2630  222.8140 C   0  0  0  0  0  0  0  0  0  0  0  0
  140.8550   72.8670  222.3020 N   0  0  0  0  0  0  0  0  0  0  0  0
  140.6900   73.8230  221.2250 C   0  0  0  0  0  0  0  0  0  0  0  0
  140.1100   75.0730  221.7720 C   0  0  0  0  0  0  0  0  0  0  0  0
  140.7830   75.9670  222.3430 O   0  0  0  0  0  0  0  0  0  0  0  0
  138.7120   75.2990  221.6560 N   0  0  0  0  0  0  0  0  0  0  0  0
  137.7640   75.6170  222.7200 C   0  0  0  0  0  0  0  0  0  0  0  0
  136.4790   75.0070  222.2250 C   0  0  2  0  0  0  0  0  0  0  0  0
  136.0860   74.0470  223.1560 O   0  0  0  0  0  0  0  0  0  0  0  0
  136.8200   74.3550  220.8890 C   0  0  0  0  0  0  0  0  0  0  0  0
  137.9230   75.2520  220.3810 C   0  0  1  0  0  0  0  0  0  0  0  0
  137.4520   76.6330  220.1300 C   0  0  0  0  0  0  0  0  0  0  0  0
  138.3910   77.6840  219.9720 N   0  0  0  0  0  0  0  0  0  0  0  0
  139.5600   77.1270  219.3000 C   0  0  0  0  0  0  0  0  0  0  0  0
  140.7730   77.5950  220.0330 C   0  0  0  0  0  0  0  0  0  0  0  0
  140.2460   78.8220  220.7380 C   0  0  2  0  0  0  0  0  0  0  0  0
  141.0760   79.2440  221.8650 C   0  0  0  0  0  0  0  0  0  0  0  0
  142.1220   80.1280  221.6110 C   0  0  0  0  0  0  0  0  0  0  0  0
  142.9430   80.5620  222.6360 C   0  0  0  0  0  0  0  0  0  0  0  0
  142.6910   80.0920  223.9080 C   0  0  0  0  0  0  0  0  0  0  0  0
  141.6610   79.2210  224.1580 C   0  0  0  0  0  0  0  0  0  0  0  0
  140.8470   78.7940  223.1300 C   0  0  0  0  0  0  0  0  0  0  0  0
  138.8610   78.3100  221.1680 C   0  0  0  0  0  0  0  0  0  0  0  0
  139.7550   71.2800  223.9090 C   0  0  0  0  0  0  0  0  0  0  0  0
  139.2290   70.0220  223.7080 C   0  0  0  0  0  0  0  0  0  0  0  0
  139.2980   69.0820  224.7130 C   0  0  0  0  0  0  0  0  0  0  0  0
  139.8990   69.4350  225.9090 C   0  0  0  0  0  0  0  0  0  0  0  0
  139.9560   68.4750  226.9050 C   0  0  0  0  0  0  0  0  0  0  0  0
  140.5690   68.8710  228.0940 C   0  0  0  0  0  0  0  0  0  0  0  0
  140.6830   68.0190  229.1360 F   0  0  0  0  0  0  0  0  0  0  0  0
  141.0760   70.1460  228.2350 C   0  0  0  0  0  0  0  0  0  0  0  0
  140.9950   71.0750  227.2070 C   0  0  0  0  0  0  0  0  0  0  0  0
  140.3970   70.6990  226.0400 C   0  0  0  0  0  0  0  0  0  0  0  0
  140.3330   71.6290  225.0530 N   0  0  0  0  0  0  0  0  0  0  0  0
  141.7730   72.6030  222.7140 H   0  0  0  0  0  0  0  0  0  0  0  0
  141.6682   74.0386  220.7705 H   0  0  0  0  0  0  0  0  0  0  0  0
  140.0192   73.4068  220.4590 H   0  0  0  0  0  0  0  0  0  0  0  0
  138.0743   75.1649  223.6736 H   0  0  0  0  0  0  0  0  0  0  0  0
  137.6825   76.6958  222.9187 H   0  0  0  0  0  0  0  0  0  0  0  0
  135.6645   75.7359  222.1014 H   0  0  0  0  0  0  0  0  0  0  0  0
  136.9050   73.5370  223.4030 H   0  0  0  0  0  0  0  0  0  0  0  0
  137.1742   73.3226  221.0259 H   0  0  0  0  0  0  0  0  0  0  0  0
  135.9640   74.2692  220.2035 H   0  0  0  0  0  0  0  0  0  0  0  0
  138.4015   74.9134  219.4502 H   0  0  0  0  0  0  0  0  0  0  0  0
  136.8523   76.6016  219.2084 H   0  0  0  0  0  0  0  0  0  0  0  0
  136.9316   76.8965  221.0626 H   0  0  0  0  0  0  0  0  0  0  0  0
  139.5132   76.0281  219.3169 H   0  0  0  0  0  0  0  0  0  0  0  0
  139.5937   77.4563  218.2510 H   0  0  0  0  0  0  0  0  0  0  0  0
  141.1248   76.8394  220.7509 H   0  0  0  0  0  0  0  0  0  0  0  0
  141.6407   77.7887  219.3853 H   0  0  0  0  0  0  0  0  0  0  0  0
  140.2288   79.7310  220.1188 H   0  0  0  0  0  0  0  0  0  0  0  0
  142.2968   80.4845  220.5851 H   0  0  0  0  0  0  0  0  0  0  0  0
  143.7709   81.2600  222.4428 H   0  0  0  0  0  0  0  0  0  0  0  0
  143.3298   80.4228  224.7402 H   0  0  0  0  0  0  0  0  0  0  0  0
  141.4837   78.8618  225.1825 H   0  0  0  0  0  0  0  0  0  0  0  0
  140.0203   78.0964  223.3298 H   0  0  0  0  0  0  0  0  0  0  0  0
  138.9407   77.5867  221.9929 H   0  0  0  0  0  0  0  0  0  0  0  0
  138.1946   79.0988  221.5470 H   0  0  0  0  0  0  0  0  0  0  0  0
  138.7554   69.7692  222.7479 H   0  0  0  0  0  0  0  0  0  0  0  0
  138.8845   68.0730  224.5681 H   0  0  0  0  0  0  0  0  0  0  0  0
  139.5441   67.4643  226.7676 H   0  0  0  0  0  0  0  0  0  0  0  0
  141.5550   70.4328  229.1828 H   0  0  0  0  0  0  0  0  0  0  0  0
  141.4028   72.0891  227.3302 H   0  0  0  0  0  0  0  0  0  0  0  0
  1  2  2  0
  2  3  1  0
  3  4  1  0
  4  5  1  0
  5  6  2  0
  5  7  1  0
  7  8  1  0
  8  9  1  0
  9 10  1  0
  9 11  1  0
 11 12  1  0
 12 13  1  0
 13 14  1  0
 14 15  1  0
 15 16  1  0
 16 17  1  0
 17 18  1  0
 18 19  2  0
 19 20  1  0
 20 21  2  0
 21 22  1  0
 22 23  2  0
 17 24  1  0
  2 25  1  0
 25 26  2  0
 26 27  1  0
 27 28  2  0
 28 29  1  0
 29 30  2  0
 30 31  1  0
 30 32  1  0
 32 33  2  0
 33 34  1  0
 34 35  2  0
 12  7  1  0
 24 14  1  0
 35 25  1  0
 23 18  1  0
 34 28  1  0
  3 36  1  0
  4 37  1  0
  4 38  1  0
  8 39  1  0
  8 40  1  0
  9 41  1  6
 10 42  1  0
 11 43  1  0
 11 44  1  0
 12 45  1  6
 13 46  1  0
 13 47  1  0
 15 48  1  0
 15 49  1  0
 16 50  1  0
 16 51  1  0
 17 52  1  6
 19 53  1  0
 20 54  1  0
 21 55  1  0
 22 56  1  0
 23 57  1  0
 24 58  1  0
 24 59  1  0
 26 60  1  0
 27 61  1  0
 29 62  1  0
 32 63  1  0
 33 64  1  0
M  END
>  <smiles>  (31) 
O=C(NCC(=O)N1C[C@H](O)C[C@H]1CN1CC[C@H](c2ccccc2)C1)c1ccc2cc(F)ccc2n1

>  <score_type>  (31) 
oracle

>  <origin>  (31) 
autodockgpu

>  <m_score__min__energy>  (31) 
-9.5500000000000007

>  <m_primary>  (31) 
energy

>  <rmsd>  (31) 
3.440448228542109

>  <m_score__min__rmsd>  (31) 
3.440448228542109

>  <meeko>  (31) 
{"free_energy": -8.22, "intermolecular_energy": -10.61, "internal_energy": -3.01, "cluster_size": 9, "cluster_id": 2, "rank_in_cluster": 4}

>  <energy>  (31) 
-7.7

>  <cluster_rmsd>  (31) 
0.97

>  <cluster>  (31) 
5

$$$$

     RDKit          3D

 64 68  0  0  0  0  0  0  0  0999 V2000
  139.9430   74.0470  222.3440 O   0  0  0  0  0  0  0  0  0  0  0  0
  140.3110   74.9500  221.5400 C   0  0  0  0  0  0  0  0  0  0  0  0
  140.7370   74.5950  220.2230 N   0  0  0  0  0  0  0  0  0  0  0  0
  140.7180   73.1850  219.8900 C   0  0  0  0  0  0  0  0  0  0  0  0
  141.9740   72.5570  220.3680 C   0  0  0  0  0  0  0  0  0  0  0  0
  142.0120   71.5610  221.1320 O   0  0  0  0  0  0  0  0  0  0  0  0
  143.2220   73.0950  219.9520 N   0  0  0  0  0  0  0  0  0  0  0  0
  144.2250   72.4700  219.0950 C   0  0  0  0  0  0  0  0  0  0  0  0
  145.5170   73.0560  219.6010 C   0  0  2  0  0  0  0  0  0  0  0  0
  146.3040   72.0010  220.0580 O   0  0  0  0  0  0  0  0  0  0  0  0
  145.1280   73.9780  220.7540 C   0  0  0  0  0  0  0  0  0  0  0  0
  143.7570   74.4450  220.3250 C   0  0  1  0  0  0  0  0  0  0  0  0
  143.8000   75.2380  219.0760 C   0  0  0  0  0  0  0  0  0  0  0  0
  142.6840   76.0280  218.6990 N   0  0  0  0  0  0  0  0  0  0  0  0
  142.7940   76.2830  217.2670 C   0  0  0  0  0  0  0  0  0  0  0  0
  142.5420   77.7370  217.0430 C   0  0  0  0  0  0  0  0  0  0  0  0
  141.7700   78.1050  218.2870 C   0  0  2  0  0  0  0  0  0  0  0  0
  141.7580   79.5420  218.5580 C   0  0  0  0  0  0  0  0  0  0  0  0
  142.5780   80.3590  217.7850 C   0  0  0  0  0  0  0  0  0  0  0  0
  142.6120   81.7260  217.9950 C   0  0  0  0  0  0  0  0  0  0  0  0
  141.8090   82.2460  218.9900 C   0  0  0  0  0  0  0  0  0  0  0  0
  141.0010   81.4410  219.7510 C   0  0  0  0  0  0  0  0  0  0  0  0
  140.9740   80.0780  219.5340 C   0  0  0  0  0  0  0  0  0  0  0  0
  142.5540   77.3000  219.3370 C   0  0  0  0  0  0  0  0  0  0  0  0
  140.3040   76.3650  221.9520 C   0  0  0  0  0  0  0  0  0  0  0  0
  139.1070   76.9360  222.3260 C   0  0  0  0  0  0  0  0  0  0  0  0
  139.0690   78.2570  222.7150 C   0  0  0  0  0  0  0  0  0  0  0  0
  140.2490   78.9810  222.7180 C   0  0  0  0  0  0  0  0  0  0  0  0
  140.1870   80.3060  223.1130 C   0  0  0  0  0  0  0  0  0  0  0  0
  141.3980   80.9990  223.1020 C   0  0  0  0  0  0  0  0  0  0  0  0
  141.4600   82.2980  223.4670 F   0  0  0  0  0  0  0  0  0  0  0  0
  142.5650   80.3730  222.7160 C   0  0  0  0  0  0  0  0  0  0  0  0
  142.5770   79.0400  222.3290 C   0  0  0  0  0  0  0  0  0  0  0  0
  141.3990   78.3530  222.3350 C   0  0  0  0  0  0  0  0  0  0  0  0
  141.4430   77.0510  221.9510 N   0  0  0  0  0  0  0  0  0  0  0  0
  141.0370   75.3460  219.5700 H   0  0  0  0  0  0  0  0  0  0  0  0
  139.8569   72.7032  220.3762 H   0  0  0  0  0  0  0  0  0  0  0  0
  140.6336   73.0625  218.8001 H   0  0  0  0  0  0  0  0  0  0  0  0
  144.2159   71.3760  219.2090 H   0  0  0  0  0  0  0  0  0  0  0  0
  144.0556   72.6551  218.0240 H   0  0  0  0  0  0  0  0  0  0  0  0
  146.0782   73.6117  218.8353 H   0  0  0  0  0  0  0  0  0  0  0  0
  146.0700   71.8640  221.0160 H   0  0  0  0  0  0  0  0  0  0  0  0
  145.0850   73.4311  221.7075 H   0  0  0  0  0  0  0  0  0  0  0  0
  145.8422   74.7954  220.9320 H   0  0  0  0  0  0  0  0  0  0  0  0
  143.2263   75.0618  221.0652 H   0  0  0  0  0  0  0  0  0  0  0  0
  144.6578   75.9211  219.1629 H   0  0  0  0  0  0  0  0  0  0  0  0
  143.8431   74.4697  218.2900 H   0  0  0  0  0  0  0  0  0  0  0  0
  143.8027   76.0194  216.9162 H   0  0  0  0  0  0  0  0  0  0  0  0
  142.0644   75.6760  216.7110 H   0  0  0  0  0  0  0  0  0  0  0  0
  143.4834   78.3016  216.9728 H   0  0  0  0  0  0  0  0  0  0  0  0
  142.0130   77.9607  216.1048 H   0  0  0  0  0  0  0  0  0  0  0  0
  140.6950   77.8764  218.2403 H   0  0  0  0  0  0  0  0  0  0  0  0
  143.2054   79.9132  216.9991 H   0  0  0  0  0  0  0  0  0  0  0  0
  143.2582   82.3776  217.3885 H   0  0  0  0  0  0  0  0  0  0  0  0
  141.8175   83.3300  219.1765 H   0  0  0  0  0  0  0  0  0  0  0  0
  140.3718   81.8831  220.5376 H   0  0  0  0  0  0  0  0  0  0  0  0
  140.3256   79.4313  220.1434 H   0  0  0  0  0  0  0  0  0  0  0  0
  143.5378   77.7510  219.5337 H   0  0  0  0  0  0  0  0  0  0  0  0
  142.0621   77.2553  220.3199 H   0  0  0  0  0  0  0  0  0  0  0  0
  138.1837   76.3382  222.3140 H   0  0  0  0  0  0  0  0  0  0  0  0
  138.1212   78.7266  223.0168 H   0  0  0  0  0  0  0  0  0  0  0  0
  139.2431   80.7825  223.4163 H   0  0  0  0  0  0  0  0  0  0  0  0
  143.5062   80.9423  222.7149 H   0  0  0  0  0  0  0  0  0  0  0  0
  143.5137   78.5499  222.0249 H   0  0  0  0  0  0  0  0  0  0  0  0
  1  2  2  0
  2  3  1  0
  3  4  1  0
  4  5  1  0
  5  6  2  0
  5  7  1  0
  7  8  1  0
  8  9  1  0
  9 10  1  0
  9 11  1  0
 11 12  1  0
 12 13  1  0
 13 14  1  0
 14 15  1  0
 15 16  1  0
 16 17  1  0
 17 18  1  0
 18 19  2  0
 19 20  1  0
 20 21  2  0
 21 22  1  0
 22 23  2  0
 17 24  1  0
  2 25  1  0
 25 26  2  0
 26 27  1  0
 27 28  2  0
 28 29  1  0
 29 30  2  0
 30 31  1  0
 30 32  1  0
 32 33  2  0
 33 34  1  0
 34 35  2  0
 12  7  1  0
 24 14  1  0
 35 25  1  0
 23 18  1  0
 34 28  1  0
  3 36  1  0
  4 37  1  0
  4 38  1  0
  8 39  1  0
  8 40  1  0
  9 41  1  6
 10 42  1  0
 11 43  1  0
 11 44  1  0
 12 45  1  1
 13 46  1  0
 13 47  1  0
 15 48  1  0
 15 49  1  0
 16 50  1  0
 16 51  1  0
 17 52  1  6
 19 53  1  0
 20 54  1  0
 21 55  1  0
 22 56  1  0
 23 57  1  0
 24 58  1  0
 24 59  1  0
 26 60  1  0
 27 61  1  0
 29 62  1  0
 32 63  1  0
 33 64  1  0
M  END
>  <smiles>  (32) 
O=C(NCC(=O)N1C[C@H](O)C[C@H]1CN1CC[C@H](c2ccccc2)C1)c1ccc2cc(F)ccc2n1

>  <score_type>  (32) 
oracle

>  <origin>  (32) 
autodockgpu

>  <m_score__min__energy>  (32) 
-9.5500000000000007

>  <m_primary>  (32) 
energy

>  <rmsd>  (32) 
7.2737942519578205

>  <m_score__min__rmsd>  (32) 
7.2737942519578205

>  <meeko>  (32) 
{"free_energy": -7.85, "intermolecular_energy": -10.23, "internal_energy": -4.16, "cluster_size": 27, "cluster_id": 5, "rank_in_cluster": 8}

>  <energy>  (32) 
-7.69

>  <cluster_rmsd>  (32) 
1.14

>  <cluster>  (32) 
5

$$$$

     RDKit          3D

 64 68  0  0  0  0  0  0  0  0999 V2000
  139.5810   73.6900  222.3700 O   0  0  0  0  0  0  0  0  0  0  0  0
  140.1430   74.5540  221.6380 C   0  0  0  0  0  0  0  0  0  0  0  0
  140.8780   74.1360  220.4860 N   0  0  0  0  0  0  0  0  0  0  0  0
  140.9310   72.7100  220.2280 C   0  0  0  0  0  0  0  0  0  0  0  0
  141.9840   72.4400  219.2200 C   0  0  0  0  0  0  0  0  0  0  0  0
  141.8170   71.7090  218.2110 O   0  0  0  0  0  0  0  0  0  0  0  0
  143.2670   73.0300  219.3790 N   0  0  0  0  0  0  0  0  0  0  0  0
  144.4470   72.8480  218.5390 C   0  0  0  0  0  0  0  0  0  0  0  0
  145.5850   73.0210  219.5100 C   0  0  2  0  0  0  0  0  0  0  0  0
  146.3070   71.8290  219.5250 O   0  0  0  0  0  0  0  0  0  0  0  0
  144.9350   73.2740  220.8680 C   0  0  0  0  0  0  0  0  0  0  0  0
  143.6600   73.9810  220.4700 C   0  0  1  0  0  0  0  0  0  0  0  0
  143.9210   75.2830  219.8180 C   0  0  0  0  0  0  0  0  0  0  0  0
  142.8580   75.9940  219.2050 N   0  0  0  0  0  0  0  0  0  0  0  0
  143.1910   76.1460  217.7930 C   0  0  0  0  0  0  0  0  0  0  0  0
  142.9340   77.5670  217.4160 C   0  0  0  0  0  0  0  0  0  0  0  0
  141.9590   77.9930  218.4870 C   0  0  2  0  0  0  0  0  0  0  0  0
  141.8590   79.4440  218.6350 C   0  0  0  0  0  0  0  0  0  0  0  0
  141.0410   79.9430  219.6450 C   0  0  0  0  0  0  0  0  0  0  0  0
  140.9040   81.3070  219.8340 C   0  0  0  0  0  0  0  0  0  0  0  0
  141.6030   82.1470  218.9920 C   0  0  0  0  0  0  0  0  0  0  0  0
  142.4100   81.6560  217.9980 C   0  0  0  0  0  0  0  0  0  0  0  0
  142.5400   80.2940  217.8170 C   0  0  0  0  0  0  0  0  0  0  0  0
  142.5860   77.3020  219.7100 C   0  0  0  0  0  0  0  0  0  0  0  0
  140.0460   75.9880  221.9650 C   0  0  0  0  0  0  0  0  0  0  0  0
  138.8030   76.5820  221.9530 C   0  0  0  0  0  0  0  0  0  0  0  0
  138.6800   77.9210  222.2540 C   0  0  0  0  0  0  0  0  0  0  0  0
  139.8240   78.6380  222.5620 C   0  0  0  0  0  0  0  0  0  0  0  0
  139.6770   79.9820  222.8600 C   0  0  0  0  0  0  0  0  0  0  0  0
  140.8530   80.6670  223.1650 C   0  0  0  0  0  0  0  0  0  0  0  0
  140.8330   81.9820  223.4720 F   0  0  0  0  0  0  0  0  0  0  0  0
  142.0690   80.0170  223.1600 C   0  0  0  0  0  0  0  0  0  0  0  0
  142.1670   78.6660  222.8540 C   0  0  0  0  0  0  0  0  0  0  0  0
  141.0230   77.9860  222.5540 C   0  0  0  0  0  0  0  0  0  0  0  0
  141.1500   76.6670  222.2590 N   0  0  0  0  0  0  0  0  0  0  0  0
  141.3350   74.8550  219.8900 H   0  0  0  0  0  0  0  0  0  0  0  0
  141.1669   72.1753  221.1599 H   0  0  0  0  0  0  0  0  0  0  0  0
  139.9575   72.3646  219.8497 H   0  0  0  0  0  0  0  0  0  0  0  0
  144.4607   71.8444  218.0888 H   0  0  0  0  0  0  0  0  0  0  0  0
  144.4889   73.5498  217.6930 H   0  0  0  0  0  0  0  0  0  0  0  0
  146.2648   73.8453  219.2482 H   0  0  0  0  0  0  0  0  0  0  0  0
  146.2960   71.4990  220.4640 H   0  0  0  0  0  0  0  0  0  0  0  0
  144.7235   72.3310  221.3933 H   0  0  0  0  0  0  0  0  0  0  0  0
  145.5646   73.8468  221.5648 H   0  0  0  0  0  0  0  0  0  0  0  0
  142.9658   74.1842  221.2987 H   0  0  0  0  0  0  0  0  0  0  0  0
  144.3435   75.9450  220.5882 H   0  0  0  0  0  0  0  0  0  0  0  0
  144.5692   75.0162  218.9703 H   0  0  0  0  0  0  0  0  0  0  0  0
  144.2508   75.9010  217.6297 H   0  0  0  0  0  0  0  0  0  0  0  0
  142.5805   75.4681  217.1783 H   0  0  0  0  0  0  0  0  0  0  0  0
  143.8565   78.1651  217.4520 H   0  0  0  0  0  0  0  0  0  0  0  0
  142.5577   77.6971  216.3906 H   0  0  0  0  0  0  0  0  0  0  0  0
  140.9132   77.7157  218.2886 H   0  0  0  0  0  0  0  0  0  0  0  0
  140.4978   79.2456  220.2997 H   0  0  0  0  0  0  0  0  0  0  0  0
  140.2589   81.7083  220.6295 H   0  0  0  0  0  0  0  0  0  0  0  0
  141.5109   83.2355  219.1209 H   0  0  0  0  0  0  0  0  0  0  0  0
  142.9559   82.3504  217.3424 H   0  0  0  0  0  0  0  0  0  0  0  0
  143.1871   79.8988  217.0201 H   0  0  0  0  0  0  0  0  0  0  0  0
  143.5100   77.8088  220.0254 H   0  0  0  0  0  0  0  0  0  0  0  0
  141.9418   77.3081  220.6016 H   0  0  0  0  0  0  0  0  0  0  0  0
  137.9109   75.9887  221.7037 H   0  0  0  0  0  0  0  0  0  0  0  0
  137.6945   78.4097  222.2497 H   0  0  0  0  0  0  0  0  0  0  0  0
  138.6952   80.4780  222.8565 H   0  0  0  0  0  0  0  0  0  0  0  0
  142.9814   80.5809  223.4037 H   0  0  0  0  0  0  0  0  0  0  0  0
  143.1422   78.1571  222.8535 H   0  0  0  0  0  0  0  0  0  0  0  0
  1  2  2  0
  2  3  1  0
  3  4  1  0
  4  5  1  0
  5  6  2  0
  5  7  1  0
  7  8  1  0
  8  9  1  0
  9 10  1  0
  9 11  1  0
 11 12  1  0
 12 13  1  0
 13 14  1  0
 14 15  1  0
 15 16  1  0
 16 17  1  0
 17 18  1  0
 18 19  2  0
 19 20  1  0
 20 21  2  0
 21 22  1  0
 22 23  2  0
 17 24  1  0
  2 25  1  0
 25 26  2  0
 26 27  1  0
 27 28  2  0
 28 29  1  0
 29 30  2  0
 30 31  1  0
 30 32  1  0
 32 33  2  0
 33 34  1  0
 34 35  2  0
 12  7  1  0
 24 14  1  0
 35 25  1  0
 23 18  1  0
 34 28  1  0
  3 36  1  0
  4 37  1  0
  4 38  1  0
  8 39  1  0
  8 40  1  0
  9 41  1  6
 10 42  1  0
 11 43  1  0
 11 44  1  0
 12 45  1  1
 13 46  1  0
 13 47  1  0
 15 48  1  0
 15 49  1  0
 16 50  1  0
 16 51  1  0
 17 52  1  6
 19 53  1  0
 20 54  1  0
 21 55  1  0
 22 56  1  0
 23 57  1  0
 24 58  1  0
 24 59  1  0
 26 60  1  0
 27 61  1  0
 29 62  1  0
 32 63  1  0
 33 64  1  0
M  END
>  <smiles>  (33) 
O=C(NCC(=O)N1C[C@H](O)C[C@H]1CN1CC[C@H](c2ccccc2)C1)c1ccc2cc(F)ccc2n1

>  <score_type>  (33) 
oracle

>  <origin>  (33) 
autodockgpu

>  <m_score__min__energy>  (33) 
-9.5500000000000007

>  <m_primary>  (33) 
energy

>  <rmsd>  (33) 
7.033931606463661

>  <m_score__min__rmsd>  (33) 
7.033931606463661

>  <meeko>  (33) 
{"free_energy": -7.71, "intermolecular_energy": -10.1, "internal_energy": -4.02, "cluster_size": 27, "cluster_id": 5, "rank_in_cluster": 13}

>  <energy>  (33) 
-7.64

>  <cluster_rmsd>  (33) 
0.76

>  <cluster>  (33) 
5

$$$$

     RDKit          3D

 64 68  0  0  0  0  0  0  0  0999 V2000
  140.7500   77.5650  218.1060 O   0  0  0  0  0  0  0  0  0  0  0  0
  141.8120   77.8410  218.7320 C   0  0  0  0  0  0  0  0  0  0  0  0
  143.0190   77.1400  218.4230 N   0  0  0  0  0  0  0  0  0  0  0  0
  142.9390   76.1310  217.3860 C   0  0  0  0  0  0  0  0  0  0  0  0
  142.3660   74.8900  217.9600 C   0  0  0  0  0  0  0  0  0  0  0  0
  141.5340   74.1620  217.3630 O   0  0  0  0  0  0  0  0  0  0  0  0
  142.7660   74.4770  219.2590 N   0  0  0  0  0  0  0  0  0  0  0  0
  144.0880   74.5900  219.8680 C   0  0  0  0  0  0  0  0  0  0  0  0
  144.1360   73.4060  220.7980 C   0  0  2  0  0  0  0  0  0  0  0  0
  145.1940   72.5960  220.3880 O   0  0  0  0  0  0  0  0  0  0  0  0
  142.8030   72.6840  220.6180 C   0  0  0  0  0  0  0  0  0  0  0  0
  141.8770   73.8290  220.2800 C   0  0  1  0  0  0  0  0  0  0  0  0
  141.7490   74.7940  221.3950 C   0  0  0  0  0  0  0  0  0  0  0  0
  140.4720   75.2940  221.7560 N   0  0  0  0  0  0  0  0  0  0  0  0
  139.6750   75.3750  220.5370 C   0  0  0  0  0  0  0  0  0  0  0  0
  139.0060   76.7090  220.5190 C   0  0  0  0  0  0  0  0  0  0  0  0
  139.0280   77.0790  221.9820 C   0  0  2  0  0  0  0  0  0  0  0  0
  138.8360   78.5080  222.2220 C   0  0  0  0  0  0  0  0  0  0  0  0
  139.1070   79.0000  223.4960 C   0  0  0  0  0  0  0  0  0  0  0  0
  138.9420   80.3420  223.7840 C   0  0  0  0  0  0  0  0  0  0  0  0
  138.5030   81.1700  222.7720 C   0  0  0  0  0  0  0  0  0  0  0  0
  138.2370   80.6870  221.5170 C   0  0  0  0  0  0  0  0  0  0  0  0
  138.4040   79.3450  221.2380 C   0  0  0  0  0  0  0  0  0  0  0  0
  140.4360   76.5870  222.3610 C   0  0  0  0  0  0  0  0  0  0  0  0
  141.8160   78.8810  219.7770 C   0  0  0  0  0  0  0  0  0  0  0  0
  141.4460   80.1620  219.4310 C   0  0  0  0  0  0  0  0  0  0  0  0
  141.4400   81.1550  220.3870 C   0  0  0  0  0  0  0  0  0  0  0  0
  141.8100   80.8310  221.6810 C   0  0  0  0  0  0  0  0  0  0  0  0
  141.7970   81.8450  222.6240 C   0  0  0  0  0  0  0  0  0  0  0  0
  142.1760   81.4770  223.9150 C   0  0  0  0  0  0  0  0  0  0  0  0
  142.2010   82.3810  224.9180 F   0  0  0  0  0  0  0  0  0  0  0  0
  142.5360   80.1760  224.2000 C   0  0  0  0  0  0  0  0  0  0  0  0
  142.5340   79.1930  223.2200 C   0  0  0  0  0  0  0  0  0  0  0  0
  142.1650   79.5420  221.9530 C   0  0  0  0  0  0  0  0  0  0  0  0
  142.1730   78.5590  221.0160 N   0  0  0  0  0  0  0  0  0  0  0  0
  143.8870   77.3770  218.9440 H   0  0  0  0  0  0  0  0  0  0  0  0
  142.2948   76.4913  216.5704 H   0  0  0  0  0  0  0  0  0  0  0  0
  143.9445   75.9262  216.9897 H   0  0  0  0  0  0  0  0  0  0  0  0
  144.8802   74.5274  219.1074 H   0  0  0  0  0  0  0  0  0  0  0  0
  144.2482   75.5501  220.3805 H   0  0  0  0  0  0  0  0  0  0  0  0
  144.2857   73.6805  221.8526 H   0  0  0  0  0  0  0  0  0  0  0  0
  145.3500   71.9380  221.1190 H   0  0  0  0  0  0  0  0  0  0  0  0
  142.8511   71.9520  219.7984 H   0  0  0  0  0  0  0  0  0  0  0  0
  142.4893   72.1006  221.4962 H   0  0  0  0  0  0  0  0  0  0  0  0
  140.8536   73.5309  220.0085 H   0  0  0  0  0  0  0  0  0  0  0  0
  142.1624   74.3036  222.2886 H   0  0  0  0  0  0  0  0  0  0  0  0
  142.2731   75.6854  221.0198 H   0  0  0  0  0  0  0  0  0  0  0  0
  140.3259   75.2706  219.6564 H   0  0  0  0  0  0  0  0  0  0  0  0
  138.9269   74.5689  220.5120 H   0  0  0  0  0  0  0  0  0  0  0  0
  139.5706   77.4331  219.9133 H   0  0  0  0  0  0  0  0  0  0  0  0
  137.9997   76.6991  220.0749 H   0  0  0  0  0  0  0  0  0  0  0  0
  138.2118   76.6409  222.5752 H   0  0  0  0  0  0  0  0  0  0  0  0
  139.4560   78.3137  224.2816 H   0  0  0  0  0  0  0  0  0  0  0  0
  139.1541   80.7370  224.7885 H   0  0  0  0  0  0  0  0  0  0  0  0
  138.3633   82.2417  222.9765 H   0  0  0  0  0  0  0  0  0  0  0  0
  137.8891   81.3712  220.7290 H   0  0  0  0  0  0  0  0  0  0  0  0
  138.1904   78.9559  220.2315 H   0  0  0  0  0  0  0  0  0  0  0  0
  141.2142   77.2443  221.9458 H   0  0  0  0  0  0  0  0  0  0  0  0
  140.6246   76.5748  223.4446 H   0  0  0  0  0  0  0  0  0  0  0  0
  141.1562   80.3918  218.3950 H   0  0  0  0  0  0  0  0  0  0  0  0
  141.1474   82.1831  220.1272 H   0  0  0  0  0  0  0  0  0  0  0  0
  141.5063   82.8753  222.3711 H   0  0  0  0  0  0  0  0  0  0  0  0
  142.8311   79.9120  225.2263 H   0  0  0  0  0  0  0  0  0  0  0  0
  142.8226   78.1586  223.4584 H   0  0  0  0  0  0  0  0  0  0  0  0
  1  2  2  0
  2  3  1  0
  3  4  1  0
  4  5  1  0
  5  6  2  0
  5  7  1  0
  7  8  1  0
  8  9  1  0
  9 10  1  0
  9 11  1  0
 11 12  1  0
 12 13  1  0
 13 14  1  0
 14 15  1  0
 15 16  1  0
 16 17  1  0
 17 18  1  0
 18 19  2  0
 19 20  1  0
 20 21  2  0
 21 22  1  0
 22 23  2  0
 17 24  1  0
  2 25  1  0
 25 26  2  0
 26 27  1  0
 27 28  2  0
 28 29  1  0
 29 30  2  0
 30 31  1  0
 30 32  1  0
 32 33  2  0
 33 34  1  0
 34 35  2  0
 12  7  1  0
 24 14  1  0
 35 25  1  0
 23 18  1  0
 34 28  1  0
  3 36  1  0
  4 37  1  0
  4 38  1  0
  8 39  1  0
  8 40  1  0
  9 41  1  1
 10 42  1  0
 11 43  1  0
 11 44  1  0
 12 45  1  6
 13 46  1  0
 13 47  1  0
 15 48  1  0
 15 49  1  0
 16 50  1  0
 16 51  1  0
 17 52  1  1
 19 53  1  0
 20 54  1  0
 21 55  1  0
 22 56  1  0
 23 57  1  0
 24 58  1  0
 24 59  1  0
 26 60  1  0
 27 61  1  0
 29 62  1  0
 32 63  1  0
 33 64  1  0
M  END
>  <smiles>  (34) 
O=C(NCC(=O)N1C[C@H](O)C[C@H]1CN1CC[C@H](c2ccccc2)C1)c1ccc2cc(F)ccc2n1

>  <score_type>  (34) 
oracle

>  <origin>  (34) 
autodockgpu

>  <m_score__min__energy>  (34) 
-9.5500000000000007

>  <m_primary>  (34) 
energy

>  <rmsd>  (34) 
8.186436064714005

>  <m_score__min__rmsd>  (34) 
8.186436064714005

>  <meeko>  (34) 
{"free_energy": -6.92, "intermolecular_energy": -9.31, "internal_energy": -4.45, "cluster_size": 27, "cluster_id": 5, "rank_in_cluster": 27}

>  <energy>  (34) 
-7.55

>  <cluster_rmsd>  (34) 
0.96

>  <cluster>  (34) 
5

$$$$

     RDKit          3D

 64 68  0  0  0  0  0  0  0  0999 V2000
  137.6860   69.7810  222.1410 O   0  0  0  0  0  0  0  0  0  0  0  0
  137.9140   70.4200  223.2070 C   0  0  0  0  0  0  0  0  0  0  0  0
  137.4370   71.7600  223.3440 N   0  0  0  0  0  0  0  0  0  0  0  0
  136.7060   72.3110  222.2200 C   0  0  0  0  0  0  0  0  0  0  0  0
  137.6250   73.1390  221.4020 C   0  0  0  0  0  0  0  0  0  0  0  0
  137.2730   74.1740  220.7830 O   0  0  0  0  0  0  0  0  0  0  0  0
  138.9910   72.7610  221.2960 N   0  0  0  0  0  0  0  0  0  0  0  0
  139.6270   71.9900  220.2320 C   0  0  0  0  0  0  0  0  0  0  0  0
  140.7430   71.2760  220.9500 C   0  0  2  0  0  0  0  0  0  0  0  0
  140.5180   69.9080  220.8150 O   0  0  0  0  0  0  0  0  0  0  0  0
  140.6310   71.7000  222.4120 C   0  0  0  0  0  0  0  0  0  0  0  0
  140.0680   73.0970  222.2840 C   0  0  1  0  0  0  0  0  0  0  0  0
  141.0000   74.0150  221.5930 C   0  0  0  0  0  0  0  0  0  0  0  0
  140.5850   75.3330  221.2690 N   0  0  0  0  0  0  0  0  0  0  0  0
  141.3250   75.7420  220.0810 C   0  0  0  0  0  0  0  0  0  0  0  0
  141.8510   77.1180  220.3240 C   0  0  0  0  0  0  0  0  0  0  0  0
  140.9210   77.6110  221.4060 C   0  0  2  0  0  0  0  0  0  0  0  0
  141.4510   78.7540  222.1480 C   0  0  0  0  0  0  0  0  0  0  0  0
  141.6670   79.9410  221.4530 C   0  0  0  0  0  0  0  0  0  0  0  0
  142.1680   81.0560  222.1010 C   0  0  0  0  0  0  0  0  0  0  0  0
  142.4430   80.9510  223.4480 C   0  0  0  0  0  0  0  0  0  0  0  0
  142.2290   79.7820  224.1330 C   0  0  0  0  0  0  0  0  0  0  0  0
  141.7290   78.6740  223.4790 C   0  0  0  0  0  0  0  0  0  0  0  0
  140.8070   76.3370  222.2610 C   0  0  0  0  0  0  0  0  0  0  0  0
  138.6670   69.7940  224.3080 C   0  0  0  0  0  0  0  0  0  0  0  0
  138.8130   68.4240  224.3090 C   0  0  0  0  0  0  0  0  0  0  0  0
  139.5120   67.8100  225.3270 C   0  0  0  0  0  0  0  0  0  0  0  0
  140.0520   68.5980  226.3290 C   0  0  0  0  0  0  0  0  0  0  0  0
  140.7490   67.9600  227.3400 C   0  0  0  0  0  0  0  0  0  0  0  0
  141.2770   68.7890  228.3300 C   0  0  0  0  0  0  0  0  0  0  0  0
  141.9760   68.2790  229.3660 F   0  0  0  0  0  0  0  0  0  0  0  0
  141.0960   70.1550  228.2740 C   0  0  0  0  0  0  0  0  0  0  0  0
  140.3880   70.7510  227.2390 C   0  0  0  0  0  0  0  0  0  0  0  0
  139.8680   69.9490  226.2650 C   0  0  0  0  0  0  0  0  0  0  0  0
  139.1800   70.5590  225.2660 N   0  0  0  0  0  0  0  0  0  0  0  0
  137.6290   72.2770  224.2260 H   0  0  0  0  0  0  0  0  0  0  0  0
  136.3027   71.4923  221.6059 H   0  0  0  0  0  0  0  0  0  0  0  0
  135.8753   72.9318  222.5868 H   0  0  0  0  0  0  0  0  0  0  0  0
  138.9210   71.2733  219.7872 H   0  0  0  0  0  0  0  0  0  0  0  0
  139.9785   72.6131  219.3964 H   0  0  0  0  0  0  0  0  0  0  0  0
  141.7425   71.5122  220.5561 H   0  0  0  0  0  0  0  0  0  0  0  0
  139.5890   69.7380  221.1290 H   0  0  0  0  0  0  0  0  0  0  0  0
  139.9479   71.0419  222.9691 H   0  0  0  0  0  0  0  0  0  0  0  0
  141.5805   71.6503  222.9652 H   0  0  0  0  0  0  0  0  0  0  0  0
  139.8077   73.5802  223.2373 H   0  0  0  0  0  0  0  0  0  0  0  0
  141.8876   74.1101  222.2357 H   0  0  0  0  0  0  0  0  0  0  0  0
  141.1380   73.5432  220.6089 H   0  0  0  0  0  0  0  0  0  0  0  0
  142.1597   75.0482  219.9024 H   0  0  0  0  0  0  0  0  0  0  0  0
  140.6704   75.7308  219.1970 H   0  0  0  0  0  0  0  0  0  0  0  0
  142.8943   77.0934  220.6718 H   0  0  0  0  0  0  0  0  0  0  0  0
  141.8716   77.7544  219.4270 H   0  0  0  0  0  0  0  0  0  0  0  0
  139.9624   78.0063  221.0389 H   0  0  0  0  0  0  0  0  0  0  0  0
  141.4371   79.9928  220.3785 H   0  0  0  0  0  0  0  0  0  0  0  0
  142.3415   81.9970  221.5584 H   0  0  0  0  0  0  0  0  0  0  0  0
  142.8427   81.8238  223.9851 H   0  0  0  0  0  0  0  0  0  0  0  0
  142.4568   79.7273  225.2078 H   0  0  0  0  0  0  0  0  0  0  0  0
  141.5568   77.7360  224.0272 H   0  0  0  0  0  0  0  0  0  0  0  0
  141.7344   76.1472  222.8213 H   0  0  0  0  0  0  0  0  0  0  0  0
  140.0191   76.3858  223.0271 H   0  0  0  0  0  0  0  0  0  0  0  0
  138.3734   67.8218  223.5003 H   0  0  0  0  0  0  0  0  0  0  0  0
  139.6378   66.7173  225.3425 H   0  0  0  0  0  0  0  0  0  0  0  0
  140.8786   66.8679  227.3617 H   0  0  0  0  0  0  0  0  0  0  0  0
  141.5222   70.7867  229.0673 H   0  0  0  0  0  0  0  0  0  0  0  0
  140.2498   71.8417  227.2050 H   0  0  0  0  0  0  0  0  0  0  0  0
  1  2  2  0
  2  3  1  0
  3  4  1  0
  4  5  1  0
  5  6  2  0
  5  7  1  0
  7  8  1  0
  8  9  1  0
  9 10  1  0
  9 11  1  0
 11 12  1  0
 12 13  1  0
 13 14  1  0
 14 15  1  0
 15 16  1  0
 16 17  1  0
 17 18  1  0
 18 19  2  0
 19 20  1  0
 20 21  2  0
 21 22  1  0
 22 23  2  0
 17 24  1  0
  2 25  1  0
 25 26  2  0
 26 27  1  0
 27 28  2  0
 28 29  1  0
 29 30  2  0
 30 31  1  0
 30 32  1  0
 32 33  2  0
 33 34  1  0
 34 35  2  0
 12  7  1  0
 24 14  1  0
 35 25  1  0
 23 18  1  0
 34 28  1  0
  3 36  1  0
  4 37  1  0
  4 38  1  0
  8 39  1  0
  8 40  1  0
  9 41  1  6
 10 42  1  0
 11 43  1  0
 11 44  1  0
 12 45  1  1
 13 46  1  0
 13 47  1  0
 15 48  1  0
 15 49  1  0
 16 50  1  0
 16 51  1  0
 17 52  1  6
 19 53  1  0
 20 54  1  0
 21 55  1  0
 22 56  1  0
 23 57  1  0
 24 58  1  0
 24 59  1  0
 26 60  1  0
 27 61  1  0
 29 62  1  0
 32 63  1  0
 33 64  1  0
M  END
>  <smiles>  (35) 
O=C(NCC(=O)N1C[C@H](O)C[C@H]1CN1CC[C@H](c2ccccc2)C1)c1ccc2cc(F)ccc2n1

>  <score_type>  (35) 
oracle

>  <origin>  (35) 
autodockgpu

>  <m_score__min__energy>  (35) 
-9.5500000000000007

>  <m_primary>  (35) 
energy

>  <rmsd>  (35) 
3.663892543237326

>  <m_score__min__rmsd>  (35) 
3.663892543237326

>  <meeko>  (35) 
{"free_energy": -8.55, "intermolecular_energy": -10.94, "internal_energy": -3.17, "cluster_size": 9, "cluster_id": 2, "rank_in_cluster": 3}

>  <energy>  (35) 
-7.55

>  <cluster_rmsd>  (35) 
1.22

>  <cluster>  (35) 
5

$$$$

     RDKit          3D

 64 68  0  0  0  0  0  0  0  0999 V2000
  140.1080   73.7150  222.3530 O   0  0  0  0  0  0  0  0  0  0  0  0
  140.3570   74.5150  221.4060 C   0  0  0  0  0  0  0  0  0  0  0  0
  140.7750   74.0030  220.1390 N   0  0  0  0  0  0  0  0  0  0  0  0
  140.8880   72.5630  220.0220 C   0  0  0  0  0  0  0  0  0  0  0  0
  142.0630   72.2360  219.1780 C   0  0  0  0  0  0  0  0  0  0  0  0
  142.0320   71.4260  218.2180 O   0  0  0  0  0  0  0  0  0  0  0  0
  143.3090   72.8640  219.4480 N   0  0  0  0  0  0  0  0  0  0  0  0
  144.5460   72.7670  218.6800 C   0  0  0  0  0  0  0  0  0  0  0  0
  145.6130   72.9320  219.7300 C   0  0  2  0  0  0  0  0  0  0  0  0
  146.3790   71.7680  219.7340 O   0  0  0  0  0  0  0  0  0  0  0  0
  144.8690   73.0930  221.0520 C   0  0  0  0  0  0  0  0  0  0  0  0
  143.5950   73.7720  220.6080 C   0  0  1  0  0  0  0  0  0  0  0  0
  143.8450   75.1140  220.0360 C   0  0  0  0  0  0  0  0  0  0  0  0
  142.8080   75.7950  219.3490 N   0  0  0  0  0  0  0  0  0  0  0  0
  143.1110   75.7270  217.9240 C   0  0  0  0  0  0  0  0  0  0  0  0
  142.9270   77.0940  217.3530 C   0  0  0  0  0  0  0  0  0  0  0  0
  142.0070   77.7250  218.3710 C   0  0  2  0  0  0  0  0  0  0  0  0
  141.9960   79.1860  218.3130 C   0  0  0  0  0  0  0  0  0  0  0  0
  141.7900   79.8850  219.5000 C   0  0  0  0  0  0  0  0  0  0  0  0
  141.7670   81.2680  219.5090 C   0  0  0  0  0  0  0  0  0  0  0  0
  141.9550   81.9240  218.3100 C   0  0  0  0  0  0  0  0  0  0  0  0
  142.1590   81.2360  217.1410 C   0  0  0  0  0  0  0  0  0  0  0  0
  142.1800   79.8560  217.1420 C   0  0  0  0  0  0  0  0  0  0  0  0
  142.6260   77.1760  219.6670 C   0  0  0  0  0  0  0  0  0  0  0  0
  140.2200   75.9700  221.6000 C   0  0  0  0  0  0  0  0  0  0  0  0
  139.1910   76.6240  220.9580 C   0  0  0  0  0  0  0  0  0  0  0  0
  139.0370   77.9840  221.1200 C   0  0  0  0  0  0  0  0  0  0  0  0
  139.9330   78.6600  221.9310 C   0  0  0  0  0  0  0  0  0  0  0  0
  139.7600   80.0260  222.0790 C   0  0  0  0  0  0  0  0  0  0  0  0
  140.6830   80.6680  222.9040 C   0  0  0  0  0  0  0  0  0  0  0  0
  140.6140   81.9990  223.1230 F   0  0  0  0  0  0  0  0  0  0  0  0
  141.6930   79.9570  223.5190 C   0  0  0  0  0  0  0  0  0  0  0  0
  141.8260   78.5870  223.3410 C   0  0  0  0  0  0  0  0  0  0  0  0
  140.9290   77.9480  222.5360 C   0  0  0  0  0  0  0  0  0  0  0  0
  141.0850   76.6090  222.3800 N   0  0  0  0  0  0  0  0  0  0  0  0
  140.9760   74.6700  219.3660 H   0  0  0  0  0  0  0  0  0  0  0  0
  141.0175   72.1212  221.0210 H   0  0  0  0  0  0  0  0  0  0  0  0
  139.9758   72.1556  219.5616 H   0  0  0  0  0  0  0  0  0  0  0  0
  144.6275   71.7884  218.1844 H   0  0  0  0  0  0  0  0  0  0  0  0
  144.6140   73.5118  217.8733 H   0  0  0  0  0  0  0  0  0  0  0  0
  146.2755   73.7922  219.5534 H   0  0  0  0  0  0  0  0  0  0  0  0
  146.3940   71.4390  220.6730 H   0  0  0  0  0  0  0  0  0  0  0  0
  144.6622   72.1177  221.5167 H   0  0  0  0  0  0  0  0  0  0  0  0
  145.4305   73.6533  221.8141 H   0  0  0  0  0  0  0  0  0  0  0  0
  142.8433   73.9073  221.3996 H   0  0  0  0  0  0  0  0  0  0  0  0
  144.1533   75.7623  220.8694 H   0  0  0  0  0  0  0  0  0  0  0  0
  144.5864   74.9192  219.2471 H   0  0  0  0  0  0  0  0  0  0  0  0
  144.1501   75.3970  217.7776 H   0  0  0  0  0  0  0  0  0  0  0  0
  142.4453   75.0085  217.4233 H   0  0  0  0  0  0  0  0  0  0  0  0
  143.8832   77.6337  217.2867 H   0  0  0  0  0  0  0  0  0  0  0  0
  142.5320   77.1015  216.3264 H   0  0  0  0  0  0  0  0  0  0  0  0
  140.9418   77.4871  218.2340 H   0  0  0  0  0  0  0  0  0  0  0  0
  141.6442   79.3318  220.4395 H   0  0  0  0  0  0  0  0  0  0  0  0
  141.6040   81.8269  220.4423 H   0  0  0  0  0  0  0  0  0  0  0  0
  141.9410   83.0238  218.2910 H   0  0  0  0  0  0  0  0  0  0  0  0
  142.3063   81.7859  216.1998 H   0  0  0  0  0  0  0  0  0  0  0  0
  142.3438   79.3026  216.2056 H   0  0  0  0  0  0  0  0  0  0  0  0
  143.5861   77.6646  219.8893 H   0  0  0  0  0  0  0  0  0  0  0  0
  142.0075   77.3471  220.5604 H   0  0  0  0  0  0  0  0  0  0  0  0
  138.4945   76.0623  220.3181 H   0  0  0  0  0  0  0  0  0  0  0  0
  138.2199   78.5209  220.6159 H   0  0  0  0  0  0  0  0  0  0  0  0
  138.9461   80.5702  221.5776 H   0  0  0  0  0  0  0  0  0  0  0  0
  142.4084   80.4876  224.1645 H   0  0  0  0  0  0  0  0  0  0  0  0
  142.6348   78.0302  223.8368 H   0  0  0  0  0  0  0  0  0  0  0  0
  1  2  2  0
  2  3  1  0
  3  4  1  0
  4  5  1  0
  5  6  2  0
  5  7  1  0
  7  8  1  0
  8  9  1  0
  9 10  1  0
  9 11  1  0
 11 12  1  0
 12 13  1  0
 13 14  1  0
 14 15  1  0
 15 16  1  0
 16 17  1  0
 17 18  1  0
 18 19  2  0
 19 20  1  0
 20 21  2  0
 21 22  1  0
 22 23  2  0
 17 24  1  0
  2 25  1  0
 25 26  2  0
 26 27  1  0
 27 28  2  0
 28 29  1  0
 29 30  2  0
 30 31  1  0
 30 32  1  0
 32 33  2  0
 33 34  1  0
 34 35  2  0
 12  7  1  0
 24 14  1  0
 35 25  1  0
 23 18  1  0
 34 28  1  0
  3 36  1  0
  4 37  1  0
  4 38  1  0
  8 39  1  0
  8 40  1  0
  9 41  1  6
 10 42  1  0
 11 43  1  0
 11 44  1  0
 12 45  1  1
 13 46  1  0
 13 47  1  0
 15 48  1  0
 15 49  1  0
 16 50  1  0
 16 51  1  0
 17 52  1  6
 19 53  1  0
 20 54  1  0
 21 55  1  0
 22 56  1  0
 23 57  1  0
 24 58  1  0
 24 59  1  0
 26 60  1  0
 27 61  1  0
 29 62  1  0
 32 63  1  0
 33 64  1  0
M  END
>  <smiles>  (36) 
O=C(NCC(=O)N1C[C@H](O)C[C@H]1CN1CC[C@H](c2ccccc2)C1)c1ccc2cc(F)ccc2n1

>  <score_type>  (36) 
oracle

>  <origin>  (36) 
autodockgpu

>  <m_score__min__energy>  (36) 
-9.5500000000000007

>  <m_primary>  (36) 
energy

>  <rmsd>  (36) 
7.176420111012226

>  <m_score__min__rmsd>  (36) 
7.176420111012226

>  <meeko>  (36) 
{"free_energy": -7.55, "intermolecular_energy": -9.93, "internal_energy": -4.11, "cluster_size": 27, "cluster_id": 5, "rank_in_cluster": 18}

>  <energy>  (36) 
-7.53

>  <cluster_rmsd>  (36) 
0.91

>  <cluster>  (36) 
5

$$$$

     RDKit          3D

 64 68  0  0  0  0  0  0  0  0999 V2000
  138.8130   74.9500  221.8710 O   0  0  0  0  0  0  0  0  0  0  0  0
  139.9480   75.5020  221.7920 C   0  0  0  0  0  0  0  0  0  0  0  0
  141.0360   74.8000  221.1870 N   0  0  0  0  0  0  0  0  0  0  0  0
  140.7570   73.4670  220.6910 C   0  0  0  0  0  0  0  0  0  0  0  0
  141.9720   72.6300  220.8430 C   0  0  0  0  0  0  0  0  0  0  0  0
  142.0110   71.5650  221.5080 O   0  0  0  0  0  0  0  0  0  0  0  0
  143.1780   73.0340  220.2080 N   0  0  0  0  0  0  0  0  0  0  0  0
  143.8690   72.3820  219.1000 C   0  0  0  0  0  0  0  0  0  0  0  0
  145.3140   72.7190  219.3560 C   0  0  2  0  0  0  0  0  0  0  0  0
  145.9980   71.5170  219.5350 O   0  0  0  0  0  0  0  0  0  0  0  0
  145.3260   73.5430  220.6400 C   0  0  0  0  0  0  0  0  0  0  0  0
  143.9890   74.2440  220.5670 C   0  0  1  0  0  0  0  0  0  0  0  0
  143.9010   75.1640  219.4110 C   0  0  0  0  0  0  0  0  0  0  0  0
  142.7050   75.8880  219.1720 N   0  0  0  0  0  0  0  0  0  0  0  0
  142.5820   76.0600  217.7280 C   0  0  0  0  0  0  0  0  0  0  0  0
  142.2310   77.4870  217.4690 C   0  0  0  0  0  0  0  0  0  0  0  0
  141.6430   77.9010  218.7960 C   0  0  2  0  0  0  0  0  0  0  0  0
  141.6060   79.3490  218.9880 C   0  0  0  0  0  0  0  0  0  0  0  0
  140.8260   79.8530  220.0260 C   0  0  0  0  0  0  0  0  0  0  0  0
  140.7500   81.2150  220.2550 C   0  0  0  0  0  0  0  0  0  0  0  0
  141.4700   82.0490  219.4260 C   0  0  0  0  0  0  0  0  0  0  0  0
  142.2390   81.5550  218.4040 C   0  0  0  0  0  0  0  0  0  0  0  0
  142.3090   80.1940  218.1820 C   0  0  0  0  0  0  0  0  0  0  0  0
  142.6150   77.1900  219.7530 C   0  0  0  0  0  0  0  0  0  0  0  0
  140.1560   76.8620  222.3200 C   0  0  0  0  0  0  0  0  0  0  0  0
  139.0560   77.5850  222.7270 C   0  0  0  0  0  0  0  0  0  0  0  0
  139.2190   78.8590  223.2250 C   0  0  0  0  0  0  0  0  0  0  0  0
  140.4990   79.3810  223.3020 C   0  0  0  0  0  0  0  0  0  0  0  0
  140.6390   80.6640  223.8050 C   0  0  0  0  0  0  0  0  0  0  0  0
  141.9440   81.1520  223.8650 C   0  0  0  0  0  0  0  0  0  0  0  0
  142.2030   82.3900  224.3380 F   0  0  0  0  0  0  0  0  0  0  0  0
  143.0050   80.3800  223.4420 C   0  0  0  0  0  0  0  0  0  0  0  0
  142.8150   79.0980  222.9440 C   0  0  0  0  0  0  0  0  0  0  0  0
  141.5430   78.6100  222.8800 C   0  0  0  0  0  0  0  0  0  0  0  0
  141.3880   77.3540  222.3890 N   0  0  0  0  0  0  0  0  0  0  0  0
  141.9650   75.2640  221.1260 H   0  0  0  0  0  0  0  0  0  0  0  0
  139.9305   73.0250  221.2667 H   0  0  0  0  0  0  0  0  0  0  0  0
  140.4717   73.5179  219.6299 H   0  0  0  0  0  0  0  0  0  0  0  0
  143.7075   71.2941  219.1188 H   0  0  0  0  0  0  0  0  0  0  0  0
  143.5149   72.7142  218.1130 H   0  0  0  0  0  0  0  0  0  0  0  0
  145.7871   73.2786  218.5356 H   0  0  0  0  0  0  0  0  0  0  0  0
  146.0920   71.3870  220.5180 H   0  0  0  0  0  0  0  0  0  0  0  0
  145.3930   72.8989  221.5292 H   0  0  0  0  0  0  0  0  0  0  0  0
  146.1842   74.2260  220.7242 H   0  0  0  0  0  0  0  0  0  0  0  0
  143.7287   74.8373  221.4560 H   0  0  0  0  0  0  0  0  0  0  0  0
  144.7030   75.9068  219.5341 H   0  0  0  0  0  0  0  0  0  0  0  0
  143.9664   74.4894  218.5446 H   0  0  0  0  0  0  0  0  0  0  0  0
  143.5361   75.8142  217.2389 H   0  0  0  0  0  0  0  0  0  0  0  0
  141.8052   75.3932  217.3255 H   0  0  0  0  0  0  0  0  0  0  0  0
  143.1232   78.0813  217.2224 H   0  0  0  0  0  0  0  0  0  0  0  0
  141.5538   77.6331  216.6145 H   0  0  0  0  0  0  0  0  0  0  0  0
  140.5851   77.6307  218.9294 H   0  0  0  0  0  0  0  0  0  0  0  0
  140.2645   79.1606  220.6705 H   0  0  0  0  0  0  0  0  0  0  0  0
  140.1349   81.6198  221.0722 H   0  0  0  0  0  0  0  0  0  0  0  0
  141.4264   83.1361  219.5884 H   0  0  0  0  0  0  0  0  0  0  0  0
  142.8021   82.2453  217.7587 H   0  0  0  0  0  0  0  0  0  0  0  0
  142.9259   79.7957  217.3630 H   0  0  0  0  0  0  0  0  0  0  0  0
  143.5954   77.6886  219.7701 H   0  0  0  0  0  0  0  0  0  0  0  0
  142.2816   77.1857  220.8012 H   0  0  0  0  0  0  0  0  0  0  0  0
  138.0500   77.1459  222.6544 H   0  0  0  0  0  0  0  0  0  0  0  0
  138.3509   79.4488  223.5544 H   0  0  0  0  0  0  0  0  0  0  0  0
  139.7758   81.2600  224.1360 H   0  0  0  0  0  0  0  0  0  0  0  0
  144.0246   80.7887  223.5003 H   0  0  0  0  0  0  0  0  0  0  0  0
  143.6691   78.4910  222.6094 H   0  0  0  0  0  0  0  0  0  0  0  0
  1  2  2  0
  2  3  1  0
  3  4  1  0
  4  5  1  0
  5  6  2  0
  5  7  1  0
  7  8  1  0
  8  9  1  0
  9 10  1  0
  9 11  1  0
 11 12  1  0
 12 13  1  0
 13 14  1  0
 14 15  1  0
 15 16  1  0
 16 17  1  0
 17 18  1  0
 18 19  2  0
 19 20  1  0
 20 21  2  0
 21 22  1  0
 22 23  2  0
 17 24  1  0
  2 25  1  0
 25 26  2  0
 26 27  1  0
 27 28  2  0
 28 29  1  0
 29 30  2  0
 30 31  1  0
 30 32  1  0
 32 33  2  0
 33 34  1  0
 34 35  2  0
 12  7  1  0
 24 14  1  0
 35 25  1  0
 23 18  1  0
 34 28  1  0
  3 36  1  0
  4 37  1  0
  4 38  1  0
  8 39  1  0
  8 40  1  0
  9 41  1  6
 10 42  1  0
 11 43  1  0
 11 44  1  0
 12 45  1  1
 13 46  1  0
 13 47  1  0
 15 48  1  0
 15 49  1  0
 16 50  1  0
 16 51  1  0
 17 52  1  6
 19 53  1  0
 20 54  1  0
 21 55  1  0
 22 56  1  0
 23 57  1  0
 24 58  1  0
 24 59  1  0
 26 60  1  0
 27 61  1  0
 29 62  1  0
 32 63  1  0
 33 64  1  0
M  END
>  <smiles>  (37) 
O=C(NCC(=O)N1C[C@H](O)C[C@H]1CN1CC[C@H](c2ccccc2)C1)c1ccc2cc(F)ccc2n1

>  <score_type>  (37) 
oracle

>  <origin>  (37) 
autodockgpu

>  <m_score__min__energy>  (37) 
-9.5500000000000007

>  <m_primary>  (37) 
energy

>  <rmsd>  (37) 
7.209943153528912

>  <m_score__min__rmsd>  (37) 
7.209943153528912

>  <meeko>  (37) 
{"free_energy": -7.85, "intermolecular_energy": -10.24, "internal_energy": -4.27, "cluster_size": 27, "cluster_id": 5, "rank_in_cluster": 7}

>  <energy>  (37) 
-7.51

>  <cluster_rmsd>  (37) 
0.88

>  <cluster>  (37) 
5

$$$$

     RDKit          3D

 64 68  0  0  0  0  0  0  0  0999 V2000
  140.0950   72.8860  222.4090 O   0  0  0  0  0  0  0  0  0  0  0  0
  140.2910   71.6520  222.5970 C   0  0  0  0  0  0  0  0  0  0  0  0
  140.4370   70.7790  221.4740 N   0  0  0  0  0  0  0  0  0  0  0  0
  140.3470   71.3860  220.1610 C   0  0  0  0  0  0  0  0  0  0  0  0
  141.6090   71.1330  219.4230 C   0  0  0  0  0  0  0  0  0  0  0  0
  141.7720   70.1800  218.6210 O   0  0  0  0  0  0  0  0  0  0  0  0
  142.7130   72.0050  219.6170 N   0  0  0  0  0  0  0  0  0  0  0  0
  143.7960   72.3010  218.6830 C   0  0  0  0  0  0  0  0  0  0  0  0
  144.9600   72.5920  219.5930 C   0  0  2  0  0  0  0  0  0  0  0  0
  145.9530   71.6540  219.3150 O   0  0  0  0  0  0  0  0  0  0  0  0
  144.4300   72.4120  221.0120 C   0  0  0  0  0  0  0  0  0  0  0  0
  142.9820   72.8120  220.8530 C   0  0  1  0  0  0  0  0  0  0  0  0
  142.8320   74.2320  220.4660 C   0  0  0  0  0  0  0  0  0  0  0  0
  141.5750   74.8740  220.6010 N   0  0  0  0  0  0  0  0  0  0  0  0
  141.4120   75.7590  219.4520 C   0  0  0  0  0  0  0  0  0  0  0  0
  140.9360   77.0800  219.9590 C   0  0  0  0  0  0  0  0  0  0  0  0
  140.3370   76.6940  221.2910 C   0  0  2  0  0  0  0  0  0  0  0  0
  140.1800   77.8250  222.2040 C   0  0  0  0  0  0  0  0  0  0  0  0
  138.9090   78.3760  222.3500 C   0  0  0  0  0  0  0  0  0  0  0  0
  138.6980   79.4480  223.1980 C   0  0  0  0  0  0  0  0  0  0  0  0
  139.7830   79.9480  223.8880 C   0  0  0  0  0  0  0  0  0  0  0  0
  141.0350   79.4070  223.7440 C   0  0  0  0  0  0  0  0  0  0  0  0
  141.2360   78.3360  222.8960 C   0  0  0  0  0  0  0  0  0  0  0  0
  141.3830   75.6730  221.7690 C   0  0  0  0  0  0  0  0  0  0  0  0
  140.3700   71.1060  223.9640 C   0  0  0  0  0  0  0  0  0  0  0  0
  140.7580   71.9460  224.9850 C   0  0  0  0  0  0  0  0  0  0  0  0
  140.8410   71.4640  226.2740 C   0  0  0  0  0  0  0  0  0  0  0  0
  140.5290   70.1360  226.5060 C   0  0  0  0  0  0  0  0  0  0  0  0
  140.6200   69.6740  227.8080 C   0  0  0  0  0  0  0  0  0  0  0  0
  140.2980   68.3300  227.9980 C   0  0  0  0  0  0  0  0  0  0  0  0
  140.3500   67.7680  229.2250 F   0  0  0  0  0  0  0  0  0  0  0  0
  139.9170   67.5390  226.9340 C   0  0  0  0  0  0  0  0  0  0  0  0
  139.8400   68.0480  225.6450 C   0  0  0  0  0  0  0  0  0  0  0  0
  140.1530   69.3600  225.4470 C   0  0  0  0  0  0  0  0  0  0  0  0
  140.0700   69.8290  224.1750 N   0  0  0  0  0  0  0  0  0  0  0  0
  140.5990   69.7660  221.6400 H   0  0  0  0  0  0  0  0  0  0  0  0
  139.5029   70.9469  219.6090 H   0  0  0  0  0  0  0  0  0  0  0  0
  140.1877   72.4696  220.2632 H   0  0  0  0  0  0  0  0  0  0  0  0
  144.0068   71.4369  218.0358 H   0  0  0  0  0  0  0  0  0  0  0  0
  143.5632   73.1305  217.9991 H   0  0  0  0  0  0  0  0  0  0  0  0
  145.3784   73.6010  219.4633 H   0  0  0  0  0  0  0  0  0  0  0  0
  146.1050   71.1420  220.1550 H   0  0  0  0  0  0  0  0  0  0  0  0
  144.5230   71.3677  221.3450 H   0  0  0  0  0  0  0  0  0  0  0  0
  144.9736   72.9969  221.7685 H   0  0  0  0  0  0  0  0  0  0  0  0
  142.3616   72.6681  221.7499 H   0  0  0  0  0  0  0  0  0  0  0  0
  143.5480   74.8043  221.0741 H   0  0  0  0  0  0  0  0  0  0  0  0
  142.9926   74.2162  219.3779 H   0  0  0  0  0  0  0  0  0  0  0  0
  142.3747   75.8815  218.9342 H   0  0  0  0  0  0  0  0  0  0  0  0
  140.6875   75.3362  218.7404 H   0  0  0  0  0  0  0  0  0  0  0  0
  141.7697   77.7868  220.0831 H   0  0  0  0  0  0  0  0  0  0  0  0
  140.2351   77.5930  219.2841 H   0  0  0  0  0  0  0  0  0  0  0  0
  139.3090   76.3067  221.2342 H   0  0  0  0  0  0  0  0  0  0  0  0
  138.0646   77.9542  221.7851 H   0  0  0  0  0  0  0  0  0  0  0  0
  137.6970   79.8879  223.3185 H   0  0  0  0  0  0  0  0  0  0  0  0
  139.6407   80.7999  224.5691 H   0  0  0  0  0  0  0  0  0  0  0  0
  141.8819   79.8277  224.3060 H   0  0  0  0  0  0  0  0  0  0  0  0
  142.2392   77.8997  222.7804 H   0  0  0  0  0  0  0  0  0  0  0  0
  142.3168   76.1695  222.0713 H   0  0  0  0  0  0  0  0  0  0  0  0
  141.0692   75.0978  222.6526 H   0  0  0  0  0  0  0  0  0  0  0  0
  141.0007   72.9976  224.7724 H   0  0  0  0  0  0  0  0  0  0  0  0
  141.1488   72.1213  227.1006 H   0  0  0  0  0  0  0  0  0  0  0  0
  140.9267   70.3253  228.6397 H   0  0  0  0  0  0  0  0  0  0  0  0
  139.6689   66.4821  227.1109 H   0  0  0  0  0  0  0  0  0  0  0  0
  139.5339   67.4085  224.8039 H   0  0  0  0  0  0  0  0  0  0  0  0
  1  2  2  0
  2  3  1  0
  3  4  1  0
  4  5  1  0
  5  6  2  0
  5  7  1  0
  7  8  1  0
  8  9  1  0
  9 10  1  0
  9 11  1  0
 11 12  1  0
 12 13  1  0
 13 14  1  0
 14 15  1  0
 15 16  1  0
 16 17  1  0
 17 18  1  0
 18 19  2  0
 19 20  1  0
 20 21  2  0
 21 22  1  0
 22 23  2  0
 17 24  1  0
  2 25  1  0
 25 26  2  0
 26 27  1  0
 27 28  2  0
 28 29  1  0
 29 30  2  0
 30 31  1  0
 30 32  1  0
 32 33  2  0
 33 34  1  0
 34 35  2  0
 12  7  1  0
 24 14  1  0
 35 25  1  0
 23 18  1  0
 34 28  1  0
  3 36  1  0
  4 37  1  0
  4 38  1  0
  8 39  1  0
  8 40  1  0
  9 41  1  1
 10 42  1  0
 11 43  1  0
 11 44  1  0
 12 45  1  1
 13 46  1  0
 13 47  1  0
 15 48  1  0
 15 49  1  0
 16 50  1  0
 16 51  1  0
 17 52  1  6
 19 53  1  0
 20 54  1  0
 21 55  1  0
 22 56  1  0
 23 57  1  0
 24 58  1  0
 24 59  1  0
 26 60  1  0
 27 61  1  0
 29 62  1  0
 32 63  1  0
 33 64  1  0
M  END
>  <smiles>  (38) 
O=C(NCC(=O)N1C[C@H](O)C[C@H]1CN1CC[C@H](c2ccccc2)C1)c1ccc2cc(F)ccc2n1

>  <score_type>  (38) 
oracle

>  <origin>  (38) 
autodockgpu

>  <m_score__min__energy>  (38) 
-9.5500000000000007

>  <m_primary>  (38) 
energy

>  <rmsd>  (38) 
4.402172034057994

>  <m_score__min__rmsd>  (38) 
4.402172034057994

>  <meeko>  (38) 
{"free_energy": -8.58, "intermolecular_energy": -10.97, "internal_energy": -2.35, "cluster_size": 6, "cluster_id": 1, "rank_in_cluster": 4}

>  <energy>  (38) 
-7.47

>  <cluster_rmsd>  (38) 
0.93

>  <cluster>  (38) 
5

$$$$

     RDKit          3D

 64 68  0  0  0  0  0  0  0  0999 V2000
  139.1870   74.4340  222.3470 O   0  0  0  0  0  0  0  0  0  0  0  0
  140.1820   75.1040  221.9480 C   0  0  0  0  0  0  0  0  0  0  0  0
  141.3040   74.4310  221.3730 N   0  0  0  0  0  0  0  0  0  0  0  0
  141.2230   72.9870  221.2840 C   0  0  0  0  0  0  0  0  0  0  0  0
  142.0230   72.5280  220.1230 C   0  0  0  0  0  0  0  0  0  0  0  0
  141.6140   71.6950  219.2750 O   0  0  0  0  0  0  0  0  0  0  0  0
  143.3330   73.0450  219.9340 N   0  0  0  0  0  0  0  0  0  0  0  0
  144.2920   72.6950  218.8900 C   0  0  0  0  0  0  0  0  0  0  0  0
  145.6210   72.8960  219.5690 C   0  0  2  0  0  0  0  0  0  0  0  0
  146.2790   71.6670  219.5730 O   0  0  0  0  0  0  0  0  0  0  0  0
  145.2950   73.3370  220.9930 C   0  0  0  0  0  0  0  0  0  0  0  0
  143.9950   74.0800  220.7950 C   0  0  1  0  0  0  0  0  0  0  0  0
  144.1600   75.2830  219.9500 C   0  0  0  0  0  0  0  0  0  0  0  0
  143.0370   75.8480  219.2940 N   0  0  0  0  0  0  0  0  0  0  0  0
  143.3690   75.9590  217.8780 C   0  0  0  0  0  0  0  0  0  0  0  0
  142.9730   77.3240  217.4230 C   0  0  0  0  0  0  0  0  0  0  0  0
  141.9470   77.7040  218.4640 C   0  0  2  0  0  0  0  0  0  0  0  0
  141.6980   79.1430  218.5340 C   0  0  0  0  0  0  0  0  0  0  0  0
  142.7170   80.0030  218.1330 C   0  0  0  0  0  0  0  0  0  0  0  0
  142.5410   81.3740  218.1790 C   0  0  0  0  0  0  0  0  0  0  0  0
  141.3300   81.8550  218.6310 C   0  0  0  0  0  0  0  0  0  0  0  0
  140.3260   81.0080  219.0240 C   0  0  0  0  0  0  0  0  0  0  0  0
  140.5090   79.6410  218.9750 C   0  0  0  0  0  0  0  0  0  0  0  0
  142.6270   77.1470  219.7260 C   0  0  0  0  0  0  0  0  0  0  0  0
  140.1940   76.5730  222.0730 C   0  0  0  0  0  0  0  0  0  0  0  0
  138.9940   77.2480  222.0040 C   0  0  0  0  0  0  0  0  0  0  0  0
  138.9730   78.6210  222.1170 C   0  0  0  0  0  0  0  0  0  0  0  0
  140.1720   79.2890  222.2980 C   0  0  0  0  0  0  0  0  0  0  0  0
  140.1270   80.6690  222.4090 C   0  0  0  0  0  0  0  0  0  0  0  0
  141.3560   81.3030  222.5890 C   0  0  0  0  0  0  0  0  0  0  0  0
  141.4360   82.6450  222.7100 F   0  0  0  0  0  0  0  0  0  0  0  0
  142.5240   80.5720  222.6500 C   0  0  0  0  0  0  0  0  0  0  0  0
  142.5190   79.1880  222.5340 C   0  0  0  0  0  0  0  0  0  0  0  0
  141.3230   78.5570  222.3560 C   0  0  0  0  0  0  0  0  0  0  0  0
  141.3500   77.2040  222.2460 N   0  0  0  0  0  0  0  0  0  0  0  0
  142.1170   74.9920  221.0470 H   0  0  0  0  0  0  0  0  0  0  0  0
  141.6206   72.5380  222.2061 H   0  0  0  0  0  0  0  0  0  0  0  0
  140.1741   72.6813  221.1560 H   0  0  0  0  0  0  0  0  0  0  0  0
  144.1652   71.6499  218.5710 H   0  0  0  0  0  0  0  0  0  0  0  0
  144.1768   73.2967  217.9764 H   0  0  0  0  0  0  0  0  0  0  0  0
  146.2607   73.6401  219.0718 H   0  0  0  0  0  0  0  0  0  0  0  0
  146.3540   71.3860  220.5250 H   0  0  0  0  0  0  0  0  0  0  0  0
  145.1647   72.4723  221.6604 H   0  0  0  0  0  0  0  0  0  0  0  0
  146.0852   73.9390  221.4654 H   0  0  0  0  0  0  0  0  0  0  0  0
  143.5093   74.4172  221.7226 H   0  0  0  0  0  0  0  0  0  0  0  0
  144.5797   76.0690  220.5950 H   0  0  0  0  0  0  0  0  0  0  0  0
  144.7845   74.9243  219.1185 H   0  0  0  0  0  0  0  0  0  0  0  0
  144.4502   75.8156  217.7347 H   0  0  0  0  0  0  0  0  0  0  0  0
  142.8376   75.1908  217.2971 H   0  0  0  0  0  0  0  0  0  0  0  0
  143.8292   78.0145  217.4322 H   0  0  0  0  0  0  0  0  0  0  0  0
  142.5975   77.3604  216.3897 H   0  0  0  0  0  0  0  0  0  0  0  0
  140.9374   77.3108  218.2739 H   0  0  0  0  0  0  0  0  0  0  0  0
  143.6712   79.5880  217.7762 H   0  0  0  0  0  0  0  0  0  0  0  0
  143.3419   82.0595  217.8649 H   0  0  0  0  0  0  0  0  0  0  0  0
  141.1661   82.9417  218.6772 H   0  0  0  0  0  0  0  0  0  0  0  0
  139.3702   81.4200  219.3800 H   0  0  0  0  0  0  0  0  0  0  0  0
  139.7035   78.9607  219.2887 H   0  0  0  0  0  0  0  0  0  0  0  0
  143.4908   77.7619  220.0190 H   0  0  0  0  0  0  0  0  0  0  0  0
  141.9753   77.1345  220.6120 H   0  0  0  0  0  0  0  0  0  0  0  0
  138.0560   76.6921  221.8591 H   0  0  0  0  0  0  0  0  0  0  0  0
  138.0239   79.1745  222.0645 H   0  0  0  0  0  0  0  0  0  0  0  0
  139.1817   81.2293  222.3584 H   0  0  0  0  0  0  0  0  0  0  0  0
  143.4802   81.0965  222.7936 H   0  0  0  0  0  0  0  0  0  0  0  0
  143.4565   78.6149  222.5844 H   0  0  0  0  0  0  0  0  0  0  0  0
  1  2  2  0
  2  3  1  0
  3  4  1  0
  4  5  1  0
  5  6  2  0
  5  7  1  0
  7  8  1  0
  8  9  1  0
  9 10  1  0
  9 11  1  0
 11 12  1  0
 12 13  1  0
 13 14  1  0
 14 15  1  0
 15 16  1  0
 16 17  1  0
 17 18  1  0
 18 19  2  0
 19 20  1  0
 20 21  2  0
 21 22  1  0
 22 23  2  0
 17 24  1  0
  2 25  1  0
 25 26  2  0
 26 27  1  0
 27 28  2  0
 28 29  1  0
 29 30  2  0
 30 31  1  0
 30 32  1  0
 32 33  2  0
 33 34  1  0
 34 35  2  0
 12  7  1  0
 24 14  1  0
 35 25  1  0
 23 18  1  0
 34 28  1  0
  3 36  1  0
  4 37  1  0
  4 38  1  0
  8 39  1  0
  8 40  1  0
  9 41  1  6
 10 42  1  0
 11 43  1  0
 11 44  1  0
 12 45  1  1
 13 46  1  0
 13 47  1  0
 15 48  1  0
 15 49  1  0
 16 50  1  0
 16 51  1  0
 17 52  1  6
 19 53  1  0
 20 54  1  0
 21 55  1  0
 22 56  1  0
 23 57  1  0
 24 58  1  0
 24 59  1  0
 26 60  1  0
 27 61  1  0
 29 62  1  0
 32 63  1  0
 33 64  1  0
M  END
>  <smiles>  (39) 
O=C(NCC(=O)N1C[C@H](O)C[C@H]1CN1CC[C@H](c2ccccc2)C1)c1ccc2cc(F)ccc2n1

>  <score_type>  (39) 
oracle

>  <origin>  (39) 
autodockgpu

>  <m_score__min__energy>  (39) 
-9.5500000000000007

>  <m_primary>  (39) 
energy

>  <rmsd>  (39) 
7.513200885458654

>  <m_score__min__rmsd>  (39) 
7.513200885458654

>  <meeko>  (39) 
{"free_energy": -7.51, "intermolecular_energy": -9.9, "internal_energy": -4.18, "cluster_size": 27, "cluster_id": 5, "rank_in_cluster": 20}

>  <energy>  (39) 
-7.46

>  <cluster_rmsd>  (39) 
1.33

>  <cluster>  (39) 
5

$$$$

     RDKit          3D

 64 68  0  0  0  0  0  0  0  0999 V2000
  139.1640   74.1260  222.3590 O   0  0  0  0  0  0  0  0  0  0  0  0
  140.1300   74.8300  221.9460 C   0  0  0  0  0  0  0  0  0  0  0  0
  141.2840   74.1940  221.3950 N   0  0  0  0  0  0  0  0  0  0  0  0
  141.2710   72.7450  221.3470 C   0  0  0  0  0  0  0  0  0  0  0  0
  142.0640   72.2920  220.1790 C   0  0  0  0  0  0  0  0  0  0  0  0
  141.6560   71.4510  219.3390 O   0  0  0  0  0  0  0  0  0  0  0  0
  143.3650   72.8240  219.9730 N   0  0  0  0  0  0  0  0  0  0  0  0
  144.3060   72.5030  218.9040 C   0  0  0  0  0  0  0  0  0  0  0  0
  145.6470   72.7030  219.5600 C   0  0  2  0  0  0  0  0  0  0  0  0
  146.3150   71.4810  219.5270 O   0  0  0  0  0  0  0  0  0  0  0  0
  145.3450   73.1150  220.9980 C   0  0  0  0  0  0  0  0  0  0  0  0
  144.0350   73.8490  220.8400 C   0  0  1  0  0  0  0  0  0  0  0  0
  144.1720   75.0700  220.0150 C   0  0  0  0  0  0  0  0  0  0  0  0
  143.0160   75.7140  219.5050 N   0  0  0  0  0  0  0  0  0  0  0  0
  143.0090   75.5160  218.0600 C   0  0  0  0  0  0  0  0  0  0  0  0
  142.7130   76.8330  217.4220 C   0  0  0  0  0  0  0  0  0  0  0  0
  142.0340   77.5700  218.5500 C   0  0  2  0  0  0  0  0  0  0  0  0
  142.0180   79.0210  218.3670 C   0  0  0  0  0  0  0  0  0  0  0  0
  141.8180   79.8190  219.4900 C   0  0  0  0  0  0  0  0  0  0  0  0
  141.7910   81.1980  219.3800 C   0  0  0  0  0  0  0  0  0  0  0  0
  141.9670   81.7480  218.1280 C   0  0  0  0  0  0  0  0  0  0  0  0
  142.1650   80.9630  217.0210 C   0  0  0  0  0  0  0  0  0  0  0  0
  142.1910   79.5880  217.1410 C   0  0  0  0  0  0  0  0  0  0  0  0
  142.9130   77.1210  219.7300 C   0  0  0  0  0  0  0  0  0  0  0  0
  140.0720   76.3010  222.0280 C   0  0  0  0  0  0  0  0  0  0  0  0
  138.8890   76.9310  221.7090 C   0  0  0  0  0  0  0  0  0  0  0  0
  138.8050   78.3050  221.7770 C   0  0  0  0  0  0  0  0  0  0  0  0
  139.9260   79.0190  222.1660 C   0  0  0  0  0  0  0  0  0  0  0  0
  139.8180   80.3980  222.2260 C   0  0  0  0  0  0  0  0  0  0  0  0
  140.9690   81.0790  222.6220 C   0  0  0  0  0  0  0  0  0  0  0  0
  140.9840   82.4260  222.7180 F   0  0  0  0  0  0  0  0  0  0  0  0
  142.1250   80.3910  222.9280 C   0  0  0  0  0  0  0  0  0  0  0  0
  142.1850   79.0060  222.8530 C   0  0  0  0  0  0  0  0  0  0  0  0
  141.0650   78.3290  222.4660 C   0  0  0  0  0  0  0  0  0  0  0  0
  141.1540   76.9760  222.4020 N   0  0  0  0  0  0  0  0  0  0  0  0
  142.0720   74.7820  221.0560 H   0  0  0  0  0  0  0  0  0  0  0  0
  141.7119   72.3417  222.2706 H   0  0  0  0  0  0  0  0  0  0  0  0
  140.2353   72.3862  221.2539 H   0  0  0  0  0  0  0  0  0  0  0  0
  144.1819   71.4631  218.5674 H   0  0  0  0  0  0  0  0  0  0  0  0
  144.1673   73.1213  218.0049 H   0  0  0  0  0  0  0  0  0  0  0  0
  146.2710   73.4616  219.0648 H   0  0  0  0  0  0  0  0  0  0  0  0
  146.3680   71.1590  220.4670 H   0  0  0  0  0  0  0  0  0  0  0  0
  145.2359   72.2371  221.6517 H   0  0  0  0  0  0  0  0  0  0  0  0
  146.1389   73.7160  221.4654 H   0  0  0  0  0  0  0  0  0  0  0  0
  143.5649   74.1641  221.7833 H   0  0  0  0  0  0  0  0  0  0  0  0
  144.7031   75.8112  220.6303 H   0  0  0  0  0  0  0  0  0  0  0  0
  144.6802   74.7077  219.1092 H   0  0  0  0  0  0  0  0  0  0  0  0
  143.9919   75.1512  217.7272 H   0  0  0  0  0  0  0  0  0  0  0  0
  142.2498   74.7719  217.7771 H   0  0  0  0  0  0  0  0  0  0  0  0
  143.6354   77.3429  217.1070 H   0  0  0  0  0  0  0  0  0  0  0  0
  142.1081   76.7609  216.5061 H   0  0  0  0  0  0  0  0  0  0  0  0
  140.9630   77.3455  218.6620 H   0  0  0  0  0  0  0  0  0  0  0  0
  141.6800   79.3485  220.4747 H   0  0  0  0  0  0  0  0  0  0  0  0
  141.6342   81.8350  220.2630 H   0  0  0  0  0  0  0  0  0  0  0  0
  141.9482   82.8420  218.0144 H   0  0  0  0  0  0  0  0  0  0  0  0
  142.3035   81.4303  216.0348 H   0  0  0  0  0  0  0  0  0  0  0  0
  142.3500   78.9563  216.2546 H   0  0  0  0  0  0  0  0  0  0  0  0
  143.9008   77.6041  219.6991 H   0  0  0  0  0  0  0  0  0  0  0  0
  142.5006   77.3836  220.7154 H   0  0  0  0  0  0  0  0  0  0  0  0
  138.0143   76.3393  221.4010 H   0  0  0  0  0  0  0  0  0  0  0  0
  137.8674   78.8234  221.5276 H   0  0  0  0  0  0  0  0  0  0  0  0
  138.8840   80.9231  221.9772 H   0  0  0  0  0  0  0  0  0  0  0  0
  143.0188   80.9521  223.2382 H   0  0  0  0  0  0  0  0  0  0  0  0
  143.1121   78.4677  223.0994 H   0  0  0  0  0  0  0  0  0  0  0  0
  1  2  2  0
  2  3  1  0
  3  4  1  0
  4  5  1  0
  5  6  2  0
  5  7  1  0
  7  8  1  0
  8  9  1  0
  9 10  1  0
  9 11  1  0
 11 12  1  0
 12 13  1  0
 13 14  1  0
 14 15  1  0
 15 16  1  0
 16 17  1  0
 17 18  1  0
 18 19  2  0
 19 20  1  0
 20 21  2  0
 21 22  1  0
 22 23  2  0
 17 24  1  0
  2 25  1  0
 25 26  2  0
 26 27  1  0
 27 28  2  0
 28 29  1  0
 29 30  2  0
 30 31  1  0
 30 32  1  0
 32 33  2  0
 33 34  1  0
 34 35  2  0
 12  7  1  0
 24 14  1  0
 35 25  1  0
 23 18  1  0
 34 28  1  0
  3 36  1  0
  4 37  1  0
  4 38  1  0
  8 39  1  0
  8 40  1  0
  9 41  1  6
 10 42  1  0
 11 43  1  0
 11 44  1  0
 12 45  1  1
 13 46  1  0
 13 47  1  0
 15 48  1  0
 15 49  1  0
 16 50  1  0
 16 51  1  0
 17 52  1  1
 19 53  1  0
 20 54  1  0
 21 55  1  0
 22 56  1  0
 23 57  1  0
 24 58  1  0
 24 59  1  0
 26 60  1  0
 27 61  1  0
 29 62  1  0
 32 63  1  0
 33 64  1  0
M  END
>  <smiles>  (40) 
O=C(NCC(=O)N1C[C@H](O)C[C@H]1CN1CC[C@H](c2ccccc2)C1)c1ccc2cc(F)ccc2n1

>  <score_type>  (40) 
oracle

>  <origin>  (40) 
autodockgpu

>  <m_score__min__energy>  (40) 
-9.5500000000000007

>  <m_primary>  (40) 
energy

>  <rmsd>  (40) 
7.375633694520553

>  <m_score__min__rmsd>  (40) 
7.375633694520553

>  <meeko>  (40) 
{"free_energy": -7.55, "intermolecular_energy": -9.94, "internal_energy": -4.03, "cluster_size": 27, "cluster_id": 5, "rank_in_cluster": 17}

>  <energy>  (40) 
-7.45

>  <cluster_rmsd>  (40) 
0.97

>  <cluster>  (40) 
5

$$$$

     RDKit          3D

 64 68  0  0  0  0  0  0  0  0999 V2000
  138.9340   74.8230  222.0800 O   0  0  0  0  0  0  0  0  0  0  0  0
  139.9850   75.4640  221.7950 C   0  0  0  0  0  0  0  0  0  0  0  0
  140.9810   74.8580  220.9680 N   0  0  0  0  0  0  0  0  0  0  0  0
  140.7110   73.5130  220.5010 C   0  0  0  0  0  0  0  0  0  0  0  0
  141.9270   72.6840  220.6840 C   0  0  0  0  0  0  0  0  0  0  0  0
  141.9450   71.5980  221.3150 O   0  0  0  0  0  0  0  0  0  0  0  0
  143.1570   73.1200  220.1220 N   0  0  0  0  0  0  0  0  0  0  0  0
  143.9600   72.4570  219.0990 C   0  0  0  0  0  0  0  0  0  0  0  0
  145.3640   72.8760  219.4450 C   0  0  2  0  0  0  0  0  0  0  0  0
  146.0870   71.7190  219.7290 O   0  0  0  0  0  0  0  0  0  0  0  0
  145.2400   73.7530  220.6870 C   0  0  0  0  0  0  0  0  0  0  0  0
  143.8820   74.3830  220.4840 C   0  0  1  0  0  0  0  0  0  0  0  0
  143.8390   75.2480  219.2840 C   0  0  0  0  0  0  0  0  0  0  0  0
  142.6770   76.0110  219.0030 N   0  0  0  0  0  0  0  0  0  0  0  0
  142.6460   76.2410  217.5620 C   0  0  0  0  0  0  0  0  0  0  0  0
  142.3450   77.6860  217.3390 C   0  0  0  0  0  0  0  0  0  0  0  0
  141.6870   78.0630  218.6450 C   0  0  2  0  0  0  0  0  0  0  0  0
  141.6730   79.5040  218.8910 C   0  0  0  0  0  0  0  0  0  0  0  0
  140.9940   79.9690  220.0140 C   0  0  0  0  0  0  0  0  0  0  0  0
  140.9440   81.3220  220.2990 C   0  0  0  0  0  0  0  0  0  0  0  0
  141.5860   82.1870  219.4370 C   0  0  0  0  0  0  0  0  0  0  0  0
  142.2550   81.7300  218.3310 C   0  0  0  0  0  0  0  0  0  0  0  0
  142.3000   80.3780  218.0550 C   0  0  0  0  0  0  0  0  0  0  0  0
  142.5820   77.2920  219.6290 C   0  0  0  0  0  0  0  0  0  0  0  0
  140.1910   76.8310  222.3080 C   0  0  0  0  0  0  0  0  0  0  0  0
  139.0900   77.5520  222.7170 C   0  0  0  0  0  0  0  0  0  0  0  0
  139.2510   78.8320  223.2010 C   0  0  0  0  0  0  0  0  0  0  0  0
  140.5290   79.3610  223.2630 C   0  0  0  0  0  0  0  0  0  0  0  0
  140.6660   80.6490  223.7530 C   0  0  0  0  0  0  0  0  0  0  0  0
  141.9700   81.1440  223.7990 C   0  0  0  0  0  0  0  0  0  0  0  0
  142.2270   82.3870  224.2580 F   0  0  0  0  0  0  0  0  0  0  0  0
  143.0320   80.3720  223.3750 C   0  0  0  0  0  0  0  0  0  0  0  0
  142.8440   79.0850  222.8910 C   0  0  0  0  0  0  0  0  0  0  0  0
  141.5740   78.5910  222.8420 C   0  0  0  0  0  0  0  0  0  0  0  0
  141.4210   77.3290  222.3630 N   0  0  0  0  0  0  0  0  0  0  0  0
  141.8420   75.3950  220.7390 H   0  0  0  0  0  0  0  0  0  0  0  0
  139.8805   73.0818  221.0792 H   0  0  0  0  0  0  0  0  0  0  0  0
  140.4356   73.5380  219.4363 H   0  0  0  0  0  0  0  0  0  0  0  0
  143.8484   71.3641  219.1557 H   0  0  0  0  0  0  0  0  0  0  0  0
  143.6668   72.7293  218.0743 H   0  0  0  0  0  0  0  0  0  0  0  0
  145.8716   73.4232  218.6369 H   0  0  0  0  0  0  0  0  0  0  0  0
  145.9730   71.5420  220.7020 H   0  0  0  0  0  0  0  0  0  0  0  0
  145.2691   73.1511  221.6072 H   0  0  0  0  0  0  0  0  0  0  0  0
  146.0567   74.4808  220.8026 H   0  0  0  0  0  0  0  0  0  0  0  0
  143.5283   74.9997  221.3234 H   0  0  0  0  0  0  0  0  0  0  0  0
  144.6724   75.9601  219.3754 H   0  0  0  0  0  0  0  0  0  0  0  0
  143.8780   74.5295  218.4519 H   0  0  0  0  0  0  0  0  0  0  0  0
  143.6220   75.9894  217.1214 H   0  0  0  0  0  0  0  0  0  0  0  0
  141.8796   75.6103  217.0878 H   0  0  0  0  0  0  0  0  0  0  0  0
  143.2641   78.2663  217.1702 H   0  0  0  0  0  0  0  0  0  0  0  0
  141.7250   77.8827  216.4519 H   0  0  0  0  0  0  0  0  0  0  0  0
  140.6172   77.8141  218.7049 H   0  0  0  0  0  0  0  0  0  0  0  0
  140.4921   79.2533  220.6817 H   0  0  0  0  0  0  0  0  0  0  0  0
  140.4094   81.6961  221.1846 H   0  0  0  0  0  0  0  0  0  0  0  0
  141.5605   83.2675  219.6417 H   0  0  0  0  0  0  0  0  0  0  0  0
  142.7577   82.4431  217.6611 H   0  0  0  0  0  0  0  0  0  0  0  0
  142.8371   80.0100  217.1684 H   0  0  0  0  0  0  0  0  0  0  0  0
  143.5707   77.7645  219.7244 H   0  0  0  0  0  0  0  0  0  0  0  0
  142.1856   77.2562  220.6545 H   0  0  0  0  0  0  0  0  0  0  0  0
  138.0858   77.1070  222.6572 H   0  0  0  0  0  0  0  0  0  0  0  0
  138.3827   79.4210  223.5311 H   0  0  0  0  0  0  0  0  0  0  0  0
  139.8022   81.2439  224.0847 H   0  0  0  0  0  0  0  0  0  0  0  0
  144.0502   80.7857  223.4216 H   0  0  0  0  0  0  0  0  0  0  0  0
  143.6981   78.4786  222.5553 H   0  0  0  0  0  0  0  0  0  0  0  0
  1  2  2  0
  2  3  1  0
  3  4  1  0
  4  5  1  0
  5  6  2  0
  5  7  1  0
  7  8  1  0
  8  9  1  0
  9 10  1  0
  9 11  1  0
 11 12  1  0
 12 13  1  0
 13 14  1  0
 14 15  1  0
 15 16  1  0
 16 17  1  0
 17 18  1  0
 18 19  2  0
 19 20  1  0
 20 21  2  0
 21 22  1  0
 22 23  2  0
 17 24  1  0
  2 25  1  0
 25 26  2  0
 26 27  1  0
 27 28  2  0
 28 29  1  0
 29 30  2  0
 30 31  1  0
 30 32  1  0
 32 33  2  0
 33 34  1  0
 34 35  2  0
 12  7  1  0
 24 14  1  0
 35 25  1  0
 23 18  1  0
 34 28  1  0
  3 36  1  0
  4 37  1  0
  4 38  1  0
  8 39  1  0
  8 40  1  0
  9 41  1  6
 10 42  1  0
 11 43  1  0
 11 44  1  0
 12 45  1  1
 13 46  1  0
 13 47  1  0
 15 48  1  0
 15 49  1  0
 16 50  1  0
 16 51  1  0
 17 52  1  6
 19 53  1  0
 20 54  1  0
 21 55  1  0
 22 56  1  0
 23 57  1  0
 24 58  1  0
 24 59  1  0
 26 60  1  0
 27 61  1  0
 29 62  1  0
 32 63  1  0
 33 64  1  0
M  END
>  <smiles>  (41) 
O=C(NCC(=O)N1C[C@H](O)C[C@H]1CN1CC[C@H](c2ccccc2)C1)c1ccc2cc(F)ccc2n1

>  <score_type>  (41) 
oracle

>  <origin>  (41) 
autodockgpu

>  <m_score__min__energy>  (41) 
-9.5500000000000007

>  <m_primary>  (41) 
energy

>  <rmsd>  (41) 
7.197524434289411

>  <m_score__min__rmsd>  (41) 
7.197524434289411

>  <meeko>  (41) 
{"free_energy": -7.96, "intermolecular_energy": -10.35, "internal_energy": -4.18, "cluster_size": 27, "cluster_id": 5, "rank_in_cluster": 3}

>  <energy>  (41) 
-7.43

>  <cluster_rmsd>  (41) 
0.96

>  <cluster>  (41) 
5

$$$$

     RDKit          3D

 64 68  0  0  0  0  0  0  0  0999 V2000
  140.5330   71.8090  221.1600 O   0  0  0  0  0  0  0  0  0  0  0  0
  140.0580   72.2700  222.2370 C   0  0  0  0  0  0  0  0  0  0  0  0
  139.6000   73.6230  222.2870 N   0  0  0  0  0  0  0  0  0  0  0  0
  139.7160   74.3960  221.0670 C   0  0  0  0  0  0  0  0  0  0  0  0
  140.7850   75.4110  221.2360 C   0  0  0  0  0  0  0  0  0  0  0  0
  141.0250   76.0020  222.3180 O   0  0  0  0  0  0  0  0  0  0  0  0
  141.6020   75.7510  220.1240 N   0  0  0  0  0  0  0  0  0  0  0  0
  141.8500   74.9640  218.9200 C   0  0  0  0  0  0  0  0  0  0  0  0
  143.2440   75.3750  218.5260 C   0  0  2  0  0  0  0  0  0  0  0  0
  144.0420   74.2330  218.5600 O   0  0  0  0  0  0  0  0  0  0  0  0
  143.6930   76.3780  219.5850 C   0  0  0  0  0  0  0  0  0  0  0  0
  142.3830   77.0230  219.9730 C   0  0  1  0  0  0  0  0  0  0  0  0
  141.7670   77.7610  218.8480 C   0  0  0  0  0  0  0  0  0  0  0  0
  140.9940   78.9230  219.1030 N   0  0  0  0  0  0  0  0  0  0  0  0
  141.9230   80.0120  219.3820 C   0  0  0  0  0  0  0  0  0  0  0  0
  141.4360   80.7260  220.5990 C   0  0  0  0  0  0  0  0  0  0  0  0
  139.9760   80.3400  220.6110 C   0  0  2  0  0  0  0  0  0  0  0  0
  139.3370   80.5310  221.9120 C   0  0  0  0  0  0  0  0  0  0  0  0
  139.6940   79.6720  222.9490 C   0  0  0  0  0  0  0  0  0  0  0  0
  139.1230   79.8020  224.2010 C   0  0  0  0  0  0  0  0  0  0  0  0
  138.1940   80.8050  224.3860 C   0  0  0  0  0  0  0  0  0  0  0  0
  137.8430   81.6520  223.3670 C   0  0  0  0  0  0  0  0  0  0  0  0
  138.4180   81.5150  222.1190 C   0  0  0  0  0  0  0  0  0  0  0  0
  140.0860   78.8610  220.2040 C   0  0  0  0  0  0  0  0  0  0  0  0
  139.9720   71.4220  223.4390 C   0  0  0  0  0  0  0  0  0  0  0  0
  139.4370   70.1580  223.3160 C   0  0  0  0  0  0  0  0  0  0  0  0
  139.3440   69.3430  224.4240 C   0  0  0  0  0  0  0  0  0  0  0  0
  139.7950   69.8240  225.6400 C   0  0  0  0  0  0  0  0  0  0  0  0
  139.6920   68.9880  226.7390 C   0  0  0  0  0  0  0  0  0  0  0  0
  140.1570   69.5110  227.9450 C   0  0  0  0  0  0  0  0  0  0  0  0
  140.1070   68.7870  229.0840 F   0  0  0  0  0  0  0  0  0  0  0  0
  140.6820   70.7850  228.0050 C   0  0  0  0  0  0  0  0  0  0  0  0
  140.7660   71.5870  226.8750 C   0  0  0  0  0  0  0  0  0  0  0  0
  140.3130   71.0860  225.6900 C   0  0  0  0  0  0  0  0  0  0  0  0
  140.4080   71.8940  224.6030 N   0  0  0  0  0  0  0  0  0  0  0  0
  139.2100   73.9910  223.1770 H   0  0  0  0  0  0  0  0  0  0  0  0
  139.9706   73.7284  220.2306 H   0  0  0  0  0  0  0  0  0  0  0  0
  138.7601   74.8963  220.8526 H   0  0  0  0  0  0  0  0  0  0  0  0
  141.8019   73.8864  219.1355 H   0  0  0  0  0  0  0  0  0  0  0  0
  141.1070   75.1388  218.1279 H   0  0  0  0  0  0  0  0  0  0  0  0
  143.3044   75.8208  217.5222 H   0  0  0  0  0  0  0  0  0  0  0  0
  144.9670   74.5240  218.3340 H   0  0  0  0  0  0  0  0  0  0  0  0
  144.1605   75.8726  220.4430 H   0  0  0  0  0  0  0  0  0  0  0  0
  144.4531   77.0900  219.2311 H   0  0  0  0  0  0  0  0  0  0  0  0
  142.4468   77.7327  220.8110 H   0  0  0  0  0  0  0  0  0  0  0  0
  142.5866   78.0646  218.1801 H   0  0  0  0  0  0  0  0  0  0  0  0
  141.0299   77.0481  218.4501 H   0  0  0  0  0  0  0  0  0  0  0  0
  142.9299   79.6079  219.5630 H   0  0  0  0  0  0  0  0  0  0  0  0
  141.9749   80.7017  218.5266 H   0  0  0  0  0  0  0  0  0  0  0  0
  141.9520   80.3743  221.5046 H   0  0  0  0  0  0  0  0  0  0  0  0
  141.6126   81.8116  220.5826 H   0  0  0  0  0  0  0  0  0  0  0  0
  139.3378   80.9509  219.9557 H   0  0  0  0  0  0  0  0  0  0  0  0
  140.4381   78.8820  222.7696 H   0  0  0  0  0  0  0  0  0  0  0  0
  139.4006   79.1270  225.0240 H   0  0  0  0  0  0  0  0  0  0  0  0
  137.7245   80.9278  225.3732 H   0  0  0  0  0  0  0  0  0  0  0  0
  137.1004   82.4439  223.5441 H   0  0  0  0  0  0  0  0  0  0  0  0
  138.1368   82.1936  221.3002 H   0  0  0  0  0  0  0  0  0  0  0  0
  140.4925   78.2501  221.0235 H   0  0  0  0  0  0  0  0  0  0  0  0
  139.1203   78.3959  219.9569 H   0  0  0  0  0  0  0  0  0  0  0  0
  139.0853   69.8005  222.3370 H   0  0  0  0  0  0  0  0  0  0  0  0
  138.9200   68.3313  224.3428 H   0  0  0  0  0  0  0  0  0  0  0  0
  139.2699   67.9749  226.6653 H   0  0  0  0  0  0  0  0  0  0  0  0
  141.0419   71.1739  228.9690 H   0  0  0  0  0  0  0  0  0  0  0  0
  141.1874   72.6014  226.9338 H   0  0  0  0  0  0  0  0  0  0  0  0
  1  2  2  0
  2  3  1  0
  3  4  1  0
  4  5  1  0
  5  6  2  0
  5  7  1  0
  7  8  1  0
  8  9  1  0
  9 10  1  0
  9 11  1  0
 11 12  1  0
 12 13  1  0
 13 14  1  0
 14 15  1  0
 15 16  1  0
 16 17  1  0
 17 18  1  0
 18 19  2  0
 19 20  1  0
 20 21  2  0
 21 22  1  0
 22 23  2  0
 17 24  1  0
  2 25  1  0
 25 26  2  0
 26 27  1  0
 27 28  2  0
 28 29  1  0
 29 30  2  0
 30 31  1  0
 30 32  1  0
 32 33  2  0
 33 34  1  0
 34 35  2  0
 12  7  1  0
 24 14  1  0
 35 25  1  0
 23 18  1  0
 34 28  1  0
  3 36  1  0
  4 37  1  0
  4 38  1  0
  8 39  1  0
  8 40  1  0
  9 41  1  6
 10 42  1  0
 11 43  1  0
 11 44  1  0
 12 45  1  1
 13 46  1  0
 13 47  1  0
 15 48  1  0
 15 49  1  0
 16 50  1  0
 16 51  1  0
 17 52  1  6
 19 53  1  0
 20 54  1  0
 21 55  1  0
 22 56  1  0
 23 57  1  0
 24 58  1  0
 24 59  1  0
 26 60  1  0
 27 61  1  0
 29 62  1  0
 32 63  1  0
 33 64  1  0
M  END
>  <smiles>  (42) 
O=C(NCC(=O)N1C[C@H](O)C[C@H]1CN1CC[C@H](c2ccccc2)C1)c1ccc2cc(F)ccc2n1

>  <score_type>  (42) 
oracle

>  <origin>  (42) 
autodockgpu

>  <m_score__min__energy>  (42) 
-9.5500000000000007

>  <m_primary>  (42) 
energy

>  <rmsd>  (42) 
2.1762577008540087

>  <m_score__min__rmsd>  (42) 
2.1762577008540087

>  <meeko>  (42) 
{"free_energy": -8.54, "intermolecular_energy": -10.92, "internal_energy": -2.04, "cluster_size": 1, "cluster_id": 3, "rank_in_cluster": 1}

>  <energy>  (42) 
-7.23

>  <cluster_rmsd>  (42) 
1.09

>  <cluster>  (42) 
5

$$$$

     RDKit          3D

 64 68  0  0  0  0  0  0  0  0999 V2000
  136.9860   70.0950  221.7760 O   0  0  0  0  0  0  0  0  0  0  0  0
  137.2910   70.8480  222.7440 C   0  0  0  0  0  0  0  0  0  0  0  0
  136.8570   72.2090  222.7470 N   0  0  0  0  0  0  0  0  0  0  0  0
  136.0740   72.6470  221.6080 C   0  0  0  0  0  0  0  0  0  0  0  0
  136.9780   72.8540  220.4500 C   0  0  0  0  0  0  0  0  0  0  0  0
  136.6550   72.6200  219.2590 O   0  0  0  0  0  0  0  0  0  0  0  0
  138.2920   73.3450  220.6740 N   0  0  0  0  0  0  0  0  0  0  0  0
  139.5220   72.5750  220.8360 C   0  0  0  0  0  0  0  0  0  0  0  0
  140.3480   73.4400  221.7500 C   0  0  2  0  0  0  0  0  0  0  0  0
  140.5960   72.7070  222.9090 O   0  0  0  0  0  0  0  0  0  0  0  0
  139.4830   74.6600  222.0570 C   0  0  0  0  0  0  0  0  0  0  0  0
  138.6750   74.7910  220.7880 C   0  0  1  0  0  0  0  0  0  0  0  0
  139.5220   75.0930  219.6120 C   0  0  0  0  0  0  0  0  0  0  0  0
  140.1270   76.3700  219.4840 N   0  0  0  0  0  0  0  0  0  0  0  0
  141.5410   76.1550  219.1990 C   0  0  0  0  0  0  0  0  0  0  0  0
  142.3280   77.0590  220.0890 C   0  0  0  0  0  0  0  0  0  0  0  0
  141.3030   78.1140  220.4300 C   0  0  2  0  0  0  0  0  0  0  0  0
  141.6450   78.8920  221.6200 C   0  0  0  0  0  0  0  0  0  0  0  0
  142.1640   80.1710  221.4380 C   0  0  0  0  0  0  0  0  0  0  0  0
  142.5090   80.9530  222.5260 C   0  0  0  0  0  0  0  0  0  0  0  0
  142.3210   80.4250  223.7860 C   0  0  0  0  0  0  0  0  0  0  0  0
  141.8090   79.1650  223.9650 C   0  0  0  0  0  0  0  0  0  0  0  0
  141.4680   78.3920  222.8740 C   0  0  0  0  0  0  0  0  0  0  0  0
  140.0610   77.2290  220.6240 C   0  0  0  0  0  0  0  0  0  0  0  0
  138.0920   70.3320  223.8690 C   0  0  0  0  0  0  0  0  0  0  0  0
  138.0380   68.9840  224.1500 C   0  0  0  0  0  0  0  0  0  0  0  0
  138.7760   68.4720  225.1960 C   0  0  0  0  0  0  0  0  0  0  0  0
  139.5570   69.3380  225.9410 C   0  0  0  0  0  0  0  0  0  0  0  0
  140.2890   68.8020  226.9870 C   0  0  0  0  0  0  0  0  0  0  0  0
  141.0630   69.7080  227.7130 C   0  0  0  0  0  0  0  0  0  0  0  0
  141.8180   69.3000  228.7550 F   0  0  0  0  0  0  0  0  0  0  0  0
  141.0740   71.0470  227.3830 C   0  0  0  0  0  0  0  0  0  0  0  0
  140.3230   71.5390  226.3240 C   0  0  0  0  0  0  0  0  0  0  0  0
  139.5620   70.6620  225.6080 C   0  0  0  0  0  0  0  0  0  0  0  0
  138.8380   71.1720  224.5790 N   0  0  0  0  0  0  0  0  0  0  0  0
  137.1130   72.8190  223.5490 H   0  0  0  0  0  0  0  0  0  0  0  0
  135.3253   71.8806  221.3588 H   0  0  0  0  0  0  0  0  0  0  0  0
  135.5603   73.5889  221.8509 H   0  0  0  0  0  0  0  0  0  0  0  0
  139.3179   71.5968  221.2958 H   0  0  0  0  0  0  0  0  0  0  0  0
  140.0222   72.3530  219.8818 H   0  0  0  0  0  0  0  0  0  0  0  0
  141.3092   73.7492  221.3136 H   0  0  0  0  0  0  0  0  0  0  0  0
  139.7660   72.7510  223.4570 H   0  0  0  0  0  0  0  0  0  0  0  0
  138.8351   74.4830  222.9282 H   0  0  0  0  0  0  0  0  0  0  0  0
  140.0584   75.5614  222.3145 H   0  0  0  0  0  0  0  0  0  0  0  0
  137.8950   75.5661  220.8155 H   0  0  0  0  0  0  0  0  0  0  0  0
  140.3365   74.3537  219.6087 H   0  0  0  0  0  0  0  0  0  0  0  0
  138.8107   75.0644  218.7734 H   0  0  0  0  0  0  0  0  0  0  0  0
  141.8081   75.1069  219.3996 H   0  0  0  0  0  0  0  0  0  0  0  0
  141.7575   76.3718  218.1425 H   0  0  0  0  0  0  0  0  0  0  0  0
  142.6770   76.5321  220.9894 H   0  0  0  0  0  0  0  0  0  0  0  0
  143.2438   77.4565  219.6272 H   0  0  0  0  0  0  0  0  0  0  0  0
  141.1916   78.9026  219.6713 H   0  0  0  0  0  0  0  0  0  0  0  0
  142.3011   80.5635  220.4196 H   0  0  0  0  0  0  0  0  0  0  0  0
  142.9203   81.9641  222.3902 H   0  0  0  0  0  0  0  0  0  0  0  0
  142.5875   81.0275  224.6669 H   0  0  0  0  0  0  0  0  0  0  0  0
  141.6698   78.7694  224.9819 H   0  0  0  0  0  0  0  0  0  0  0  0
  141.0571   77.3816  223.0160 H   0  0  0  0  0  0  0  0  0  0  0  0
  140.1214   76.6554  221.5606 H   0  0  0  0  0  0  0  0  0  0  0  0
  139.1207   77.7948  220.6990 H   0  0  0  0  0  0  0  0  0  0  0  0
  137.4080   68.3185  223.5416 H   0  0  0  0  0  0  0  0  0  0  0  0
  138.7447   67.3983  225.4332 H   0  0  0  0  0  0  0  0  0  0  0  0
  140.2620   67.7296  227.2303 H   0  0  0  0  0  0  0  0  0  0  0  0
  141.6917   71.7408  227.9721 H   0  0  0  0  0  0  0  0  0  0  0  0
  140.3412   72.6088  226.0688 H   0  0  0  0  0  0  0  0  0  0  0  0
  1  2  2  0
  2  3  1  0
  3  4  1  0
  4  5  1  0
  5  6  2  0
  5  7  1  0
  7  8  1  0
  8  9  1  0
  9 10  1  0
  9 11  1  0
 11 12  1  0
 12 13  1  0
 13 14  1  0
 14 15  1  0
 15 16  1  0
 16 17  1  0
 17 18  1  0
 18 19  2  0
 19 20  1  0
 20 21  2  0
 21 22  1  0
 22 23  2  0
 17 24  1  0
  2 25  1  0
 25 26  2  0
 26 27  1  0
 27 28  2  0
 28 29  1  0
 29 30  2  0
 30 31  1  0
 30 32  1  0
 32 33  2  0
 33 34  1  0
 34 35  2  0
 12  7  1  0
 24 14  1  0
 35 25  1  0
 23 18  1  0
 34 28  1  0
  3 36  1  0
  4 37  1  0
  4 38  1  0
  8 39  1  0
  8 40  1  0
  9 41  1  6
 10 42  1  0
 11 43  1  0
 11 44  1  0
 12 45  1  1
 13 46  1  0
 13 47  1  0
 15 48  1  0
 15 49  1  0
 16 50  1  0
 16 51  1  0
 17 52  1  6
 19 53  1  0
 20 54  1  0
 21 55  1  0
 22 56  1  0
 23 57  1  0
 24 58  1  0
 24 59  1  0
 26 60  1  0
 27 61  1  0
 29 62  1  0
 32 63  1  0
 33 64  1  0
M  END
>  <smiles>  (43) 
O=C(NCC(=O)N1C[C@H](O)C[C@H]1CN1CC[C@H](c2ccccc2)C1)c1ccc2cc(F)ccc2n1

>  <score_type>  (43) 
oracle

>  <origin>  (43) 
autodockgpu

>  <m_score__min__energy>  (43) 
-9.5500000000000007

>  <m_primary>  (43) 
energy

>  <rmsd>  (43) 
3.3654094509962222

>  <m_score__min__rmsd>  (43) 
3.3654094509962222

>  <meeko>  (43) 
{"free_energy": -8.14, "intermolecular_energy": -10.52, "internal_energy": -3.08, "cluster_size": 9, "cluster_id": 2, "rank_in_cluster": 8}

>  <energy>  (43) 
-7.1

>  <cluster_rmsd>  (43) 
1.22

>  <cluster>  (43) 
5

$$$$

     RDKit          3D

 64 68  0  0  0  0  0  0  0  0999 V2000
  139.1650   74.0760  222.3690 O   0  0  0  0  0  0  0  0  0  0  0  0
  140.1130   74.8040  221.9560 C   0  0  0  0  0  0  0  0  0  0  0  0
  141.2630   74.1990  221.3620 N   0  0  0  0  0  0  0  0  0  0  0  0
  141.2650   72.7520  221.2710 C   0  0  0  0  0  0  0  0  0  0  0  0
  142.0640   72.3420  220.0910 C   0  0  0  0  0  0  0  0  0  0  0  0
  141.6600   71.5340  219.2180 O   0  0  0  0  0  0  0  0  0  0  0  0
  143.3660   72.8810  219.9130 N   0  0  0  0  0  0  0  0  0  0  0  0
  144.3110   72.6020  218.8350 C   0  0  0  0  0  0  0  0  0  0  0  0
  145.6500   72.7730  219.5030 C   0  0  2  0  0  0  0  0  0  0  0  0
  146.3160   71.5520  219.4220 O   0  0  0  0  0  0  0  0  0  0  0  0
  145.3430   73.1260  220.9560 C   0  0  0  0  0  0  0  0  0  0  0  0
  144.0340   73.8680  220.8230 C   0  0  1  0  0  0  0  0  0  0  0  0
  144.1770   75.1210  220.0500 C   0  0  0  0  0  0  0  0  0  0  0  0
  143.0500   75.6820  219.3960 N   0  0  0  0  0  0  0  0  0  0  0  0
  143.3720   75.7760  217.9760 C   0  0  0  0  0  0  0  0  0  0  0  0
  142.9760   77.1370  217.5090 C   0  0  0  0  0  0  0  0  0  0  0  0
  141.9590   77.5310  218.5520 C   0  0  2  0  0  0  0  0  0  0  0  0
  141.7150   78.9710  218.6080 C   0  0  0  0  0  0  0  0  0  0  0  0
  142.7310   79.8240  218.1850 C   0  0  0  0  0  0  0  0  0  0  0  0
  142.5590   81.1960  218.2160 C   0  0  0  0  0  0  0  0  0  0  0  0
  141.3550   81.6850  218.6760 C   0  0  0  0  0  0  0  0  0  0  0  0
  140.3530   80.8460  219.0920 C   0  0  0  0  0  0  0  0  0  0  0  0
  140.5330   79.4780  219.0580 C   0  0  0  0  0  0  0  0  0  0  0  0
  142.6470   76.9870  219.8160 C   0  0  0  0  0  0  0  0  0  0  0  0
  140.0400   76.2710  222.0830 C   0  0  0  0  0  0  0  0  0  0  0  0
  138.8030   76.8750  222.0220 C   0  0  0  0  0  0  0  0  0  0  0  0
  138.7030   78.2450  222.1370 C   0  0  0  0  0  0  0  0  0  0  0  0
  139.8620   78.9810  222.3120 C   0  0  0  0  0  0  0  0  0  0  0  0
  139.7380   80.3550  222.4260 C   0  0  0  0  0  0  0  0  0  0  0  0
  140.9290   81.0590  222.6010 C   0  0  0  0  0  0  0  0  0  0  0  0
  140.9320   82.4040  222.7240 F   0  0  0  0  0  0  0  0  0  0  0  0
  142.1380   80.3970  222.6540 C   0  0  0  0  0  0  0  0  0  0  0  0
  142.2120   79.0160  222.5360 C   0  0  0  0  0  0  0  0  0  0  0  0
  141.0540   78.3170  222.3640 C   0  0  0  0  0  0  0  0  0  0  0  0
  141.1580   76.9680  222.2510 N   0  0  0  0  0  0  0  0  0  0  0  0
  142.0360   74.8070  221.0240 H   0  0  0  0  0  0  0  0  0  0  0  0
  141.7091   72.3260  222.1828 H   0  0  0  0  0  0  0  0  0  0  0  0
  140.2332   72.3855  221.1658 H   0  0  0  0  0  0  0  0  0  0  0  0
  144.1866   71.5768  218.4561 H   0  0  0  0  0  0  0  0  0  0  0  0
  144.1765   73.2567  217.9614 H   0  0  0  0  0  0  0  0  0  0  0  0
  146.2771   73.5502  219.0418 H   0  0  0  0  0  0  0  0  0  0  0  0
  146.3120   71.1640  220.3390 H   0  0  0  0  0  0  0  0  0  0  0  0
  145.2303   72.2221  221.5727 H   0  0  0  0  0  0  0  0  0  0  0  0
  146.1359   73.7060  221.4509 H   0  0  0  0  0  0  0  0  0  0  0  0
  143.5600   74.1448  221.7763 H   0  0  0  0  0  0  0  0  0  0  0  0
  144.5518   75.8841  220.7480 H   0  0  0  0  0  0  0  0  0  0  0  0
  144.8351   74.8316  219.2175 H   0  0  0  0  0  0  0  0  0  0  0  0
  144.4517   75.6282  217.8263 H   0  0  0  0  0  0  0  0  0  0  0  0
  142.8346   75.0026  217.4075 H   0  0  0  0  0  0  0  0  0  0  0  0
  143.8340   77.8254  217.5046 H   0  0  0  0  0  0  0  0  0  0  0  0
  142.5931   77.1628  216.4781 H   0  0  0  0  0  0  0  0  0  0  0  0
  140.9473   77.1381  218.3731 H   0  0  0  0  0  0  0  0  0  0  0  0
  143.6801   79.4024  217.8225 H   0  0  0  0  0  0  0  0  0  0  0  0
  143.3578   81.8756  217.8841 H   0  0  0  0  0  0  0  0  0  0  0  0
  141.1943   82.7727  218.7102 H   0  0  0  0  0  0  0  0  0  0  0  0
  139.4025   81.2649  219.4540 H   0  0  0  0  0  0  0  0  0  0  0  0
  139.7302   78.8037  219.3909 H   0  0  0  0  0  0  0  0  0  0  0  0
  143.5146   77.6028  220.0953 H   0  0  0  0  0  0  0  0  0  0  0  0
  142.0020   76.9869  220.7071 H   0  0  0  0  0  0  0  0  0  0  0  0
  137.8979   76.2657  221.8820 H   0  0  0  0  0  0  0  0  0  0  0  0
  137.7231   78.7426  222.0907 H   0  0  0  0  0  0  0  0  0  0  0  0
  138.7616   80.8597  222.3814 H   0  0  0  0  0  0  0  0  0  0  0  0
  143.0631   80.9758  222.7927 H   0  0  0  0  0  0  0  0  0  0  0  0
  143.1814   78.4980  222.5802 H   0  0  0  0  0  0  0  0  0  0  0  0
  1  2  2  0
  2  3  1  0
  3  4  1  0
  4  5  1  0
  5  6  2  0
  5  7  1  0
  7  8  1  0
  8  9  1  0
  9 10  1  0
  9 11  1  0
 11 12  1  0
 12 13  1  0
 13 14  1  0
 14 15  1  0
 15 16  1  0
 16 17  1  0
 17 18  1  0
 18 19  2  0
 19 20  1  0
 20 21  2  0
 21 22  1  0
 22 23  2  0
 17 24  1  0
  2 25  1  0
 25 26  2  0
 26 27  1  0
 27 28  2  0
 28 29  1  0
 29 30  2  0
 30 31  1  0
 30 32  1  0
 32 33  2  0
 33 34  1  0
 34 35  2  0
 12  7  1  0
 24 14  1  0
 35 25  1  0
 23 18  1  0
 34 28  1  0
  3 36  1  0
  4 37  1  0
  4 38  1  0
  8 39  1  0
  8 40  1  0
  9 41  1  6
 10 42  1  0
 11 43  1  0
 11 44  1  0
 12 45  1  1
 13 46  1  0
 13 47  1  0
 15 48  1  0
 15 49  1  0
 16 50  1  0
 16 51  1  0
 17 52  1  6
 19 53  1  0
 20 54  1  0
 21 55  1  0
 22 56  1  0
 23 57  1  0
 24 58  1  0
 24 59  1  0
 26 60  1  0
 27 61  1  0
 29 62  1  0
 32 63  1  0
 33 64  1  0
M  END
>  <smiles>  (44) 
O=C(NCC(=O)N1C[C@H](O)C[C@H]1CN1CC[C@H](c2ccccc2)C1)c1ccc2cc(F)ccc2n1

>  <score_type>  (44) 
oracle

>  <origin>  (44) 
autodockgpu

>  <m_score__min__energy>  (44) 
-9.5500000000000007

>  <m_primary>  (44) 
energy

>  <rmsd>  (44) 
7.415562505734321

>  <m_score__min__rmsd>  (44) 
7.415562505734321

>  <meeko>  (44) 
{"free_energy": -7.43, "intermolecular_energy": -9.81, "internal_energy": -4.26, "cluster_size": 27, "cluster_id": 5, "rank_in_cluster": 24}

>  <energy>  (44) 
-6.92

>  <cluster_rmsd>  (44) 
1.97

>  <cluster>  (44) 
5

$$$$

     RDKit          3D

 64 68  0  0  0  0  0  0  0  0999 V2000
  139.5800   73.6760  222.3940 O   0  0  0  0  0  0  0  0  0  0  0  0
  140.1480   74.5470  221.6750 C   0  0  0  0  0  0  0  0  0  0  0  0
  140.8890   74.1400  220.5230 N   0  0  0  0  0  0  0  0  0  0  0  0
  140.9420   72.7170  220.2500 C   0  0  0  0  0  0  0  0  0  0  0  0
  141.9880   72.4580  219.2310 C   0  0  0  0  0  0  0  0  0  0  0  0
  141.8180   71.7300  218.2220 O   0  0  0  0  0  0  0  0  0  0  0  0
  143.2680   73.0570  219.3820 N   0  0  0  0  0  0  0  0  0  0  0  0
  144.4560   72.8500  218.5590 C   0  0  0  0  0  0  0  0  0  0  0  0
  145.5850   73.0580  219.5340 C   0  0  2  0  0  0  0  0  0  0  0  0
  146.3100   71.8690  219.5940 O   0  0  0  0  0  0  0  0  0  0  0  0
  144.9230   73.3540  220.8770 C   0  0  0  0  0  0  0  0  0  0  0  0
  143.6500   74.0430  220.4460 C   0  0  1  0  0  0  0  0  0  0  0  0
  143.9130   75.3240  219.7530 C   0  0  0  0  0  0  0  0  0  0  0  0
  142.8470   76.0300  219.1390 N   0  0  0  0  0  0  0  0  0  0  0  0
  143.1920   76.2040  217.7330 C   0  0  0  0  0  0  0  0  0  0  0  0
  142.9210   77.6270  217.3710 C   0  0  0  0  0  0  0  0  0  0  0  0
  141.9300   78.0270  218.4370 C   0  0  2  0  0  0  0  0  0  0  0  0
  141.8110   79.4740  218.6030 C   0  0  0  0  0  0  0  0  0  0  0  0
  140.9080   79.9520  219.5500 C   0  0  0  0  0  0  0  0  0  0  0  0
  140.7490   81.3110  219.7510 C   0  0  0  0  0  0  0  0  0  0  0  0
  141.5120   82.1690  218.9870 C   0  0  0  0  0  0  0  0  0  0  0  0
  142.4020   81.7000  218.0560 C   0  0  0  0  0  0  0  0  0  0  0  0
  142.5540   80.3420  217.8610 C   0  0  0  0  0  0  0  0  0  0  0  0
  142.5540   77.3280  219.6570 C   0  0  0  0  0  0  0  0  0  0  0  0
  140.0510   75.9770  222.0160 C   0  0  0  0  0  0  0  0  0  0  0  0
  138.7990   76.5340  222.1670 C   0  0  0  0  0  0  0  0  0  0  0  0
  138.6770   77.8690  222.4860 C   0  0  0  0  0  0  0  0  0  0  0  0
  139.8290   78.6200  222.6460 C   0  0  0  0  0  0  0  0  0  0  0  0
  139.6820   79.9590  222.9670 C   0  0  0  0  0  0  0  0  0  0  0  0
  140.8670   80.6790  223.1200 C   0  0  0  0  0  0  0  0  0  0  0  0
  140.8480   81.9930  223.4320 F   0  0  0  0  0  0  0  0  0  0  0  0
  142.0910   80.0650  222.9560 C   0  0  0  0  0  0  0  0  0  0  0  0
  142.1880   78.7180  222.6350 C   0  0  0  0  0  0  0  0  0  0  0  0
  141.0360   78.0040  222.4820 C   0  0  0  0  0  0  0  0  0  0  0  0
  141.1630   76.6890  222.1680 N   0  0  0  0  0  0  0  0  0  0  0  0
  141.3520   74.8650  219.9380 H   0  0  0  0  0  0  0  0  0  0  0  0
  141.1856   72.1732  221.1746 H   0  0  0  0  0  0  0  0  0  0  0  0
  139.9661   72.3745  219.8753 H   0  0  0  0  0  0  0  0  0  0  0  0
  144.4759   71.8320  218.1426 H   0  0  0  0  0  0  0  0  0  0  0  0
  144.5040   73.5234  217.6905 H   0  0  0  0  0  0  0  0  0  0  0  0
  146.2649   73.8752  219.2514 H   0  0  0  0  0  0  0  0  0  0  0  0
  146.1970   71.5110  220.5160 H   0  0  0  0  0  0  0  0  0  0  0  0
  144.7098   72.4283  221.4316 H   0  0  0  0  0  0  0  0  0  0  0  0
  145.5452   73.9518  221.5592 H   0  0  0  0  0  0  0  0  0  0  0  0
  142.9489   74.2700  221.2627 H   0  0  0  0  0  0  0  0  0  0  0  0
  144.3563   76.0023  220.4969 H   0  0  0  0  0  0  0  0  0  0  0  0
  144.5426   75.0263  218.9016 H   0  0  0  0  0  0  0  0  0  0  0  0
  144.2564   75.9742  217.5774 H   0  0  0  0  0  0  0  0  0  0  0  0
  142.5961   75.5265  217.1037 H   0  0  0  0  0  0  0  0  0  0  0  0
  143.8355   78.2360  217.4241 H   0  0  0  0  0  0  0  0  0  0  0  0
  142.5537   77.7655  216.3434 H   0  0  0  0  0  0  0  0  0  0  0  0
  140.8897   77.7398  218.2244 H   0  0  0  0  0  0  0  0  0  0  0  0
  140.3152   79.2410  220.1442 H   0  0  0  0  0  0  0  0  0  0  0  0
  140.0369   81.6952  220.4962 H   0  0  0  0  0  0  0  0  0  0  0  0
  141.4039   83.2546  219.1280 H   0  0  0  0  0  0  0  0  0  0  0  0
  142.9975   82.4087  217.4618 H   0  0  0  0  0  0  0  0  0  0  0  0
  143.2678   79.9645  217.1140 H   0  0  0  0  0  0  0  0  0  0  0  0
  143.4686   77.8421  219.9875 H   0  0  0  0  0  0  0  0  0  0  0  0
  141.9011   77.3148  220.5421 H   0  0  0  0  0  0  0  0  0  0  0  0
  137.8999   75.9145  222.0332 H   0  0  0  0  0  0  0  0  0  0  0  0
  137.6853   78.3283  222.6109 H   0  0  0  0  0  0  0  0  0  0  0  0
  138.6937   80.4252  223.0933 H   0  0  0  0  0  0  0  0  0  0  0  0
  143.0104   80.6556  223.0823 H   0  0  0  0  0  0  0  0  0  0  0  0
  143.1696   78.2383  222.5072 H   0  0  0  0  0  0  0  0  0  0  0  0
  1  2  2  0
  2  3  1  0
  3  4  1  0
  4  5  1  0
  5  6  2  0
  5  7  1  0
  7  8  1  0
  8  9  1  0
  9 10  1  0
  9 11  1  0
 11 12  1  0
 12 13  1  0
 13 14  1  0
 14 15  1  0
 15 16  1  0
 16 17  1  0
 17 18  1  0
 18 19  2  0
 19 20  1  0
 20 21  2  0
 21 22  1  0
 22 23  2  0
 17 24  1  0
  2 25  1  0
 25 26  2  0
 26 27  1  0
 27 28  2  0
 28 29  1  0
 29 30  2  0
 30 31  1  0
 30 32  1  0
 32 33  2  0
 33 34  1  0
 34 35  2  0
 12  7  1  0
 24 14  1  0
 35 25  1  0
 23 18  1  0
 34 28  1  0
  3 36  1  0
  4 37  1  0
  4 38  1  0
  8 39  1  0
  8 40  1  0
  9 41  1  6
 10 42  1  0
 11 43  1  0
 11 44  1  0
 12 45  1  1
 13 46  1  0
 13 47  1  0
 15 48  1  0
 15 49  1  0
 16 50  1  0
 16 51  1  0
 17 52  1  6
 19 53  1  0
 20 54  1  0
 21 55  1  0
 22 56  1  0
 23 57  1  0
 24 58  1  0
 24 59  1  0
 26 60  1  0
 27 61  1  0
 29 62  1  0
 32 63  1  0
 33 64  1  0
M  END
>  <smiles>  (45) 
O=C(NCC(=O)N1C[C@H](O)C[C@H]1CN1CC[C@H](c2ccccc2)C1)c1ccc2cc(F)ccc2n1

>  <score_type>  (45) 
oracle

>  <origin>  (45) 
autodockgpu

>  <m_score__min__energy>  (45) 
-9.5500000000000007

>  <m_primary>  (45) 
energy

>  <rmsd>  (45) 
7.029275716307623

>  <m_score__min__rmsd>  (45) 
7.029275716307623

>  <meeko>  (45) 
{"free_energy": -7.7, "intermolecular_energy": -10.09, "internal_energy": -3.98, "cluster_size": 27, "cluster_id": 5, "rank_in_cluster": 14}

>  <energy>  (45) 
-7.99

>  <cluster_rmsd>  (45) 
0.0

>  <cluster>  (45) 
6

$$$$

     RDKit          3D

 64 68  0  0  0  0  0  0  0  0999 V2000
  139.9320   73.3560  222.3710 O   0  0  0  0  0  0  0  0  0  0  0  0
  140.1030   74.3340  221.5890 C   0  0  0  0  0  0  0  0  0  0  0  0
  140.6570   74.1130  220.2910 N   0  0  0  0  0  0  0  0  0  0  0  0
  140.9950   72.7460  219.9490 C   0  0  0  0  0  0  0  0  0  0  0  0
  142.2610   72.3760  220.6280 C   0  0  0  0  0  0  0  0  0  0  0  0
  142.3330   71.5560  221.5770 O   0  0  0  0  0  0  0  0  0  0  0  0
  143.4780   72.9690  220.1980 N   0  0  0  0  0  0  0  0  0  0  0  0
  144.3780   72.5040  219.1470 C   0  0  0  0  0  0  0  0  0  0  0  0
  145.7280   72.9730  219.6230 C   0  0  2  0  0  0  0  0  0  0  0  0
  146.5250   71.8430  219.7990 O   0  0  0  0  0  0  0  0  0  0  0  0
  145.4760   73.6680  220.9580 C   0  0  0  0  0  0  0  0  0  0  0  0
  144.0850   74.2210  220.7580 C   0  0  1  0  0  0  0  0  0  0  0  0
  144.0320   75.2310  219.6780 C   0  0  0  0  0  0  0  0  0  0  0  0
  142.7850   75.7750  219.2780 N   0  0  0  0  0  0  0  0  0  0  0  0
  142.9400   76.2610  217.9110 C   0  0  0  0  0  0  0  0  0  0  0  0
  142.3440   77.6280  217.8430 C   0  0  0  0  0  0  0  0  0  0  0  0
  141.4060   77.6080  219.0260 C   0  0  2  0  0  0  0  0  0  0  0  0
  141.0070   78.9420  219.4710 C   0  0  0  0  0  0  0  0  0  0  0  0
  142.0030   79.8130  219.9030 C   0  0  0  0  0  0  0  0  0  0  0  0
  141.6870   81.0870  220.3380 C   0  0  0  0  0  0  0  0  0  0  0  0
  140.3590   81.4610  220.3280 C   0  0  0  0  0  0  0  0  0  0  0  0
  139.3770   80.6040  219.9020 C   0  0  0  0  0  0  0  0  0  0  0  0
  139.7020   79.3340  219.4700 C   0  0  0  0  0  0  0  0  0  0  0  0
  142.2830   76.8670  220.0500 C   0  0  0  0  0  0  0  0  0  0  0  0
  139.7360   75.6990  222.0070 C   0  0  0  0  0  0  0  0  0  0  0  0
  138.4040   76.0520  222.0030 C   0  0  0  0  0  0  0  0  0  0  0  0
  138.0300   77.3210  222.3890 C   0  0  0  0  0  0  0  0  0  0  0  0
  139.0160   78.2140  222.7720 C   0  0  0  0  0  0  0  0  0  0  0  0
  138.6170   79.4830  223.1560 C   0  0  0  0  0  0  0  0  0  0  0  0
  139.6400   80.3520  223.5340 C   0  0  0  0  0  0  0  0  0  0  0  0
  139.3720   81.6160  223.9270 F   0  0  0  0  0  0  0  0  0  0  0  0
  140.9560   79.9400  223.5160 C   0  0  0  0  0  0  0  0  0  0  0  0
  141.3080   78.6560  223.1250 C   0  0  0  0  0  0  0  0  0  0  0  0
  140.3150   77.7980  222.7520 C   0  0  0  0  0  0  0  0  0  0  0  0
  140.6900   76.5490  222.3730 N   0  0  0  0  0  0  0  0  0  0  0  0
  140.7920   74.9250  219.6550 H   0  0  0  0  0  0  0  0  0  0  0  0
  140.1895   72.0735  220.2791 H   0  0  0  0  0  0  0  0  0  0  0  0
  141.1179   72.6555  218.8596 H   0  0  0  0  0  0  0  0  0  0  0  0
  144.3491   71.4079  219.0584 H   0  0  0  0  0  0  0  0  0  0  0  0
  144.1136   72.8864  218.1501 H   0  0  0  0  0  0  0  0  0  0  0  0
  146.2295   73.6557  218.9213 H   0  0  0  0  0  0  0  0  0  0  0  0
  146.3980   71.5470  220.7410 H   0  0  0  0  0  0  0  0  0  0  0  0
  145.5071   72.9537  221.7940 H   0  0  0  0  0  0  0  0  0  0  0  0
  146.2269   74.4302  221.2132 H   0  0  0  0  0  0  0  0  0  0  0  0
  143.6448   74.6958  221.6473 H   0  0  0  0  0  0  0  0  0  0  0  0
  144.6580   76.0756  220.0017 H   0  0  0  0  0  0  0  0  0  0  0  0
  144.3602   74.6703  218.7904 H   0  0  0  0  0  0  0  0  0  0  0  0
  144.0072   76.3045  217.6479 H   0  0  0  0  0  0  0  0  0  0  0  0
  142.4359   75.5862  217.2035 H   0  0  0  0  0  0  0  0  0  0  0  0
  143.1126   78.4072  217.9530 H   0  0  0  0  0  0  0  0  0  0  0  0
  141.8526   77.8554  216.8855 H   0  0  0  0  0  0  0  0  0  0  0  0
  140.4319   77.1369  218.8282 H   0  0  0  0  0  0  0  0  0  0  0  0
  143.0528   79.4844  219.8983 H   0  0  0  0  0  0  0  0  0  0  0  0
  142.4693   81.7800  220.6810 H   0  0  0  0  0  0  0  0  0  0  0  0
  140.0818   82.4693  220.6694 H   0  0  0  0  0  0  0  0  0  0  0  0
  138.3264   80.9298  219.9045 H   0  0  0  0  0  0  0  0  0  0  0  0
  138.9153   78.6452  219.1283 H   0  0  0  0  0  0  0  0  0  0  0  0
  143.0998   77.5075  220.4141 H   0  0  0  0  0  0  0  0  0  0  0  0
  141.7409   76.5570  220.9555 H   0  0  0  0  0  0  0  0  0  0  0  0
  137.6412   75.3228  221.6925 H   0  0  0  0  0  0  0  0  0  0  0  0
  136.9708   77.6179  222.3927 H   0  0  0  0  0  0  0  0  0  0  0  0
  137.5597   79.7866  223.1625 H   0  0  0  0  0  0  0  0  0  0  0  0
  141.7443   80.6451  223.8184 H   0  0  0  0  0  0  0  0  0  0  0  0
  142.3610   78.3380  223.1160 H   0  0  0  0  0  0  0  0  0  0  0  0
  1  2  2  0
  2  3  1  0
  3  4  1  0
  4  5  1  0
  5  6  2  0
  5  7  1  0
  7  8  1  0
  8  9  1  0
  9 10  1  0
  9 11  1  0
 11 12  1  0
 12 13  1  0
 13 14  1  0
 14 15  1  0
 15 16  1  0
 16 17  1  0
 17 18  1  0
 18 19  2  0
 19 20  1  0
 20 21  2  0
 21 22  1  0
 22 23  2  0
 17 24  1  0
  2 25  1  0
 25 26  2  0
 26 27  1  0
 27 28  2  0
 28 29  1  0
 29 30  2  0
 30 31  1  0
 30 32  1  0
 32 33  2  0
 33 34  1  0
 34 35  2  0
 12  7  1  0
 24 14  1  0
 35 25  1  0
 23 18  1  0
 34 28  1  0
  3 36  1  0
  4 37  1  0
  4 38  1  0
  8 39  1  0
  8 40  1  0
  9 41  1  6
 10 42  1  0
 11 43  1  0
 11 44  1  0
 12 45  1  1
 13 46  1  0
 13 47  1  0
 15 48  1  0
 15 49  1  0
 16 50  1  0
 16 51  1  0
 17 52  1  6
 19 53  1  0
 20 54  1  0
 21 55  1  0
 22 56  1  0
 23 57  1  0
 24 58  1  0
 24 59  1  0
 26 60  1  0
 27 61  1  0
 29 62  1  0
 32 63  1  0
 33 64  1  0
M  END
>  <smiles>  (46) 
O=C(NCC(=O)N1C[C@H](O)C[C@H]1CN1CC[C@H](c2ccccc2)C1)c1ccc2cc(F)ccc2n1

>  <score_type>  (46) 
oracle

>  <origin>  (46) 
autodockgpu

>  <m_score__min__energy>  (46) 
-9.5500000000000007

>  <m_primary>  (46) 
energy

>  <rmsd>  (46) 
6.838221067167002

>  <m_score__min__rmsd>  (46) 
6.838221067167002

>  <meeko>  (46) 
{"free_energy": -7.23, "intermolecular_energy": -9.62, "internal_energy": -4.49, "cluster_size": 27, "cluster_id": 5, "rank_in_cluster": 25}

>  <energy>  (46) 
-7.98

>  <cluster_rmsd>  (46) 
0.23

>  <cluster>  (46) 
6

$$$$

     RDKit          3D

 64 68  0  0  0  0  0  0  0  0999 V2000
  138.8010   74.9710  221.8720 O   0  0  0  0  0  0  0  0  0  0  0  0
  139.9370   75.5180  221.7730 C   0  0  0  0  0  0  0  0  0  0  0  0
  141.0090   74.8120  221.1440 N   0  0  0  0  0  0  0  0  0  0  0  0
  140.7140   73.4820  220.6500 C   0  0  0  0  0  0  0  0  0  0  0  0
  141.9390   72.6510  220.7370 C   0  0  0  0  0  0  0  0  0  0  0  0
  141.9810   71.5210  221.2840 O   0  0  0  0  0  0  0  0  0  0  0  0
  143.1500   73.1370  220.1750 N   0  0  0  0  0  0  0  0  0  0  0  0
  143.9630   72.5220  219.1300 C   0  0  0  0  0  0  0  0  0  0  0  0
  145.3580   72.9750  219.4740 C   0  0  2  0  0  0  0  0  0  0  0  0
  146.1180   71.8340  219.7250 O   0  0  0  0  0  0  0  0  0  0  0  0
  145.2180   73.8190  220.7380 C   0  0  0  0  0  0  0  0  0  0  0  0
  143.8400   74.4120  220.5610 C   0  0  1  0  0  0  0  0  0  0  0  0
  143.7610   75.3040  219.3820 C   0  0  0  0  0  0  0  0  0  0  0  0
  142.5940   76.0780  219.1570 N   0  0  0  0  0  0  0  0  0  0  0  0
  142.4450   76.2330  217.7140 C   0  0  0  0  0  0  0  0  0  0  0  0
  142.1540   77.6710  217.4390 C   0  0  0  0  0  0  0  0  0  0  0  0
  141.6160   78.1310  218.7720 C   0  0  2  0  0  0  0  0  0  0  0  0
  141.6500   79.5830  218.9400 C   0  0  0  0  0  0  0  0  0  0  0  0
  141.0100   80.1280  220.0500 C   0  0  0  0  0  0  0  0  0  0  0  0
  141.0060   81.4950  220.2620 C   0  0  0  0  0  0  0  0  0  0  0  0
  141.6550   82.2920  219.3420 C   0  0  0  0  0  0  0  0  0  0  0  0
  142.2870   81.7560  218.2490 C   0  0  0  0  0  0  0  0  0  0  0  0
  142.2850   80.3910  218.0460 C   0  0  0  0  0  0  0  0  0  0  0  0
  142.5770   77.3910  219.7180 C   0  0  0  0  0  0  0  0  0  0  0  0
  140.1620   76.8750  222.3010 C   0  0  0  0  0  0  0  0  0  0  0  0
  139.0730   77.6050  222.7260 C   0  0  0  0  0  0  0  0  0  0  0  0
  139.2530   78.8770  223.2240 C   0  0  0  0  0  0  0  0  0  0  0  0
  140.5370   79.3900  223.2830 C   0  0  0  0  0  0  0  0  0  0  0  0
  140.6930   80.6700  223.7870 C   0  0  0  0  0  0  0  0  0  0  0  0
  142.0030   81.1490  223.8280 C   0  0  0  0  0  0  0  0  0  0  0  0
  142.2780   82.3840  224.3000 F   0  0  0  0  0  0  0  0  0  0  0  0
  143.0520   80.3710  223.3870 C   0  0  0  0  0  0  0  0  0  0  0  0
  142.8460   79.0920  222.8900 C   0  0  0  0  0  0  0  0  0  0  0  0
  141.5700   78.6130  222.8440 C   0  0  0  0  0  0  0  0  0  0  0  0
  141.3990   77.3590  222.3520 N   0  0  0  0  0  0  0  0  0  0  0  0
  141.9390   75.2720  221.0670 H   0  0  0  0  0  0  0  0  0  0  0  0
  139.9180   73.0303  221.2602 H   0  0  0  0  0  0  0  0  0  0  0  0
  140.3785   73.5404  219.6040 H   0  0  0  0  0  0  0  0  0  0  0  0
  143.8844   71.4253  219.1622 H   0  0  0  0  0  0  0  0  0  0  0  0
  143.6525   72.8089  218.1145 H   0  0  0  0  0  0  0  0  0  0  0  0
  145.8421   73.5554  218.6748 H   0  0  0  0  0  0  0  0  0  0  0  0
  145.9820   71.6060  220.6850 H   0  0  0  0  0  0  0  0  0  0  0  0
  145.2732   73.1968  221.6435 H   0  0  0  0  0  0  0  0  0  0  0  0
  146.0132   74.5685  220.8641 H   0  0  0  0  0  0  0  0  0  0  0  0
  143.4750   74.9975  221.4178 H   0  0  0  0  0  0  0  0  0  0  0  0
  144.6005   76.0103  219.4610 H   0  0  0  0  0  0  0  0  0  0  0  0
  143.7685   74.6040  218.5335 H   0  0  0  0  0  0  0  0  0  0  0  0
  143.3750   75.9355  217.2074 H   0  0  0  0  0  0  0  0  0  0  0  0
  141.6290   75.5968  217.3407 H   0  0  0  0  0  0  0  0  0  0  0  0
  143.0666   78.2198  217.1633 H   0  0  0  0  0  0  0  0  0  0  0  0
  141.4654   77.8356  216.5971 H   0  0  0  0  0  0  0  0  0  0  0  0
  140.5505   77.9112  218.9346 H   0  0  0  0  0  0  0  0  0  0  0  0
  140.5023   79.4647  220.7657 H   0  0  0  0  0  0  0  0  0  0  0  0
  140.5015   81.9324  221.1361 H   0  0  0  0  0  0  0  0  0  0  0  0
  141.6659   83.3822  219.4882 H   0  0  0  0  0  0  0  0  0  0  0  0
  142.7970   82.4162  217.5320 H   0  0  0  0  0  0  0  0  0  0  0  0
  142.7916   79.9594  217.1702 H   0  0  0  0  0  0  0  0  0  0  0  0
  143.5791   77.8444  219.7044 H   0  0  0  0  0  0  0  0  0  0  0  0
  142.2685   77.4182  220.7735 H   0  0  0  0  0  0  0  0  0  0  0  0
  138.0629   77.1733  222.6678 H   0  0  0  0  0  0  0  0  0  0  0  0
  138.3941   79.4723  223.5675 H   0  0  0  0  0  0  0  0  0  0  0  0
  139.8390   81.2709  224.1329 H   0  0  0  0  0  0  0  0  0  0  0  0
  144.0750   80.7730  223.4300 H   0  0  0  0  0  0  0  0  0  0  0  0
  143.6909   78.4797  222.5418 H   0  0  0  0  0  0  0  0  0  0  0  0
  1  2  2  0
  2  3  1  0
  3  4  1  0
  4  5  1  0
  5  6  2  0
  5  7  1  0
  7  8  1  0
  8  9  1  0
  9 10  1  0
  9 11  1  0
 11 12  1  0
 12 13  1  0
 13 14  1  0
 14 15  1  0
 15 16  1  0
 16 17  1  0
 17 18  1  0
 18 19  2  0
 19 20  1  0
 20 21  2  0
 21 22  1  0
 22 23  2  0
 17 24  1  0
  2 25  1  0
 25 26  2  0
 26 27  1  0
 27 28  2  0
 28 29  1  0
 29 30  2  0
 30 31  1  0
 30 32  1  0
 32 33  2  0
 33 34  1  0
 34 35  2  0
 12  7  1  0
 24 14  1  0
 35 25  1  0
 23 18  1  0
 34 28  1  0
  3 36  1  0
  4 37  1  0
  4 38  1  0
  8 39  1  0
  8 40  1  0
  9 41  1  6
 10 42  1  0
 11 43  1  0
 11 44  1  0
 12 45  1  1
 13 46  1  0
 13 47  1  0
 15 48  1  0
 15 49  1  0
 16 50  1  0
 16 51  1  0
 17 52  1  1
 19 53  1  0
 20 54  1  0
 21 55  1  0
 22 56  1  0
 23 57  1  0
 24 58  1  0
 24 59  1  0
 26 60  1  0
 27 61  1  0
 29 62  1  0
 32 63  1  0
 33 64  1  0
M  END
>  <smiles>  (47) 
O=C(NCC(=O)N1C[C@H](O)C[C@H]1CN1CC[C@H](c2ccccc2)C1)c1ccc2cc(F)ccc2n1

>  <score_type>  (47) 
oracle

>  <origin>  (47) 
autodockgpu

>  <m_score__min__energy>  (47) 
-9.5500000000000007

>  <m_primary>  (47) 
energy

>  <rmsd>  (47) 
7.184161914831902

>  <m_score__min__rmsd>  (47) 
7.184161914831902

>  <meeko>  (47) 
{"free_energy": -8.0, "intermolecular_energy": -10.38, "internal_energy": -4.16, "cluster_size": 27, "cluster_id": 5, "rank_in_cluster": 1}

>  <energy>  (47) 
-7.71

>  <cluster_rmsd>  (47) 
0.64

>  <cluster>  (47) 
6

$$$$

     RDKit          3D

 64 68  0  0  0  0  0  0  0  0999 V2000
  137.5580   72.1040  222.9960 O   0  0  0  0  0  0  0  0  0  0  0  0
  138.0120   70.9340  222.8400 C   0  0  0  0  0  0  0  0  0  0  0  0
  137.8990   70.2960  221.5660 N   0  0  0  0  0  0  0  0  0  0  0  0
  137.2520   71.0520  220.5130 C   0  0  0  0  0  0  0  0  0  0  0  0
  138.2890   71.7330  219.6990 C   0  0  0  0  0  0  0  0  0  0  0  0
  138.3890   71.6160  218.4520 O   0  0  0  0  0  0  0  0  0  0  0  0
  139.2360   72.5730  220.3430 N   0  0  0  0  0  0  0  0  0  0  0  0
  140.4470   72.1760  221.0560 C   0  0  0  0  0  0  0  0  0  0  0  0
  140.5950   73.2510  222.1000 C   0  0  2  0  0  0  0  0  0  0  0  0
  140.5310   72.6330  223.3480 O   0  0  0  0  0  0  0  0  0  0  0  0
  139.4070   74.1870  221.9000 C   0  0  0  0  0  0  0  0  0  0  0  0
  139.1710   74.0700  220.4130 C   0  0  1  0  0  0  0  0  0  0  0  0
  140.3140   74.5760  219.6210 C   0  0  0  0  0  0  0  0  0  0  0  0
  140.5480   75.9720  219.5290 N   0  0  0  0  0  0  0  0  0  0  0  0
  141.9120   76.1530  219.0440 C   0  0  0  0  0  0  0  0  0  0  0  0
  142.5670   77.1850  219.9000 C   0  0  0  0  0  0  0  0  0  0  0  0
  141.3700   77.9140  220.4630 C   0  0  2  0  0  0  0  0  0  0  0  0
  141.6770   78.6920  221.6620 C   0  0  0  0  0  0  0  0  0  0  0  0
  142.2060   79.9690  221.4960 C   0  0  0  0  0  0  0  0  0  0  0  0
  142.5180   80.7520  222.5930 C   0  0  0  0  0  0  0  0  0  0  0  0
  142.2880   80.2260  223.8470 C   0  0  0  0  0  0  0  0  0  0  0  0
  141.7670   78.9690  224.0120 C   0  0  0  0  0  0  0  0  0  0  0  0
  141.4580   78.1940  222.9120 C   0  0  0  0  0  0  0  0  0  0  0  0
  140.4360   76.7230  220.7390 C   0  0  0  0  0  0  0  0  0  0  0  0
  138.6570   70.2260  223.9600 C   0  0  0  0  0  0  0  0  0  0  0  0
  138.6180   68.8490  223.9770 C   0  0  0  0  0  0  0  0  0  0  0  0
  139.2120   68.1590  225.0120 C   0  0  0  0  0  0  0  0  0  0  0  0
  139.8370   68.8790  226.0150 C   0  0  0  0  0  0  0  0  0  0  0  0
  140.4270   68.1650  227.0440 C   0  0  0  0  0  0  0  0  0  0  0  0
  141.0460   68.9280  228.0340 C   0  0  0  0  0  0  0  0  0  0  0  0
  141.6550   68.3410  229.0870 F   0  0  0  0  0  0  0  0  0  0  0  0
  141.0520   70.3050  227.9620 C   0  0  0  0  0  0  0  0  0  0  0  0
  140.4470   70.9780  226.9090 C   0  0  0  0  0  0  0  0  0  0  0  0
  139.8380   70.2420  225.9350 C   0  0  0  0  0  0  0  0  0  0  0  0
  139.2540   70.9270  224.9180 N   0  0  0  0  0  0  0  0  0  0  0  0
  138.2770   69.3340  221.4480 H   0  0  0  0  0  0  0  0  0  0  0  0
  136.6703   70.3710  219.8743 H   0  0  0  0  0  0  0  0  0  0  0  0
  136.5761   71.7994  220.9541 H   0  0  0  0  0  0  0  0  0  0  0  0
  140.3250   71.1870  221.5218 H   0  0  0  0  0  0  0  0  0  0  0  0
  141.3255   72.0856  220.4002 H   0  0  0  0  0  0  0  0  0  0  0  0
  141.5407   73.8081  222.0275 H   0  0  0  0  0  0  0  0  0  0  0  0
  139.5730   72.6360  223.6190 H   0  0  0  0  0  0  0  0  0  0  0  0
  138.5304   73.8501  222.4727 H   0  0  0  0  0  0  0  0  0  0  0  0
  139.5871   75.2163  222.2436 H   0  0  0  0  0  0  0  0  0  0  0  0
  138.2805   74.6000  220.0440 H   0  0  0  0  0  0  0  0  0  0  0  0
  141.2221   74.1291  220.0519 H   0  0  0  0  0  0  0  0  0  0  0  0
  140.0532   74.2939  218.5903 H   0  0  0  0  0  0  0  0  0  0  0  0
  142.4633   75.2037  219.1143 H   0  0  0  0  0  0  0  0  0  0  0  0
  141.9064   76.4736  217.9918 H   0  0  0  0  0  0  0  0  0  0  0  0
  143.1677   76.7232  220.6974 H   0  0  0  0  0  0  0  0  0  0  0  0
  143.2732   77.8328  219.3600 H   0  0  0  0  0  0  0  0  0  0  0  0
  140.9503   78.6830  219.7978 H   0  0  0  0  0  0  0  0  0  0  0  0
  142.3777   80.3595  220.4821 H   0  0  0  0  0  0  0  0  0  0  0  0
  142.9362   81.7618  222.4691 H   0  0  0  0  0  0  0  0  0  0  0  0
  142.5282   80.8290  224.7351 H   0  0  0  0  0  0  0  0  0  0  0  0
  141.5944   78.5761  225.0248 H   0  0  0  0  0  0  0  0  0  0  0  0
  141.0394   77.1852  223.0428 H   0  0  0  0  0  0  0  0  0  0  0  0
  140.7788   76.1385  221.6055 H   0  0  0  0  0  0  0  0  0  0  0  0
  139.4048   77.0156  220.9859 H   0  0  0  0  0  0  0  0  0  0  0  0
  138.1142   68.3016  223.1668 H   0  0  0  0  0  0  0  0  0  0  0  0
  139.1897   67.0596  225.0400 H   0  0  0  0  0  0  0  0  0  0  0  0
  140.4088   67.0657  227.0786 H   0  0  0  0  0  0  0  0  0  0  0  0
  141.5470   70.8830  228.7563 H   0  0  0  0  0  0  0  0  0  0  0  0
  140.4584   72.0769  226.8613 H   0  0  0  0  0  0  0  0  0  0  0  0
  1  2  2  0
  2  3  1  0
  3  4  1  0
  4  5  1  0
  5  6  2  0
  5  7  1  0
  7  8  1  0
  8  9  1  0
  9 10  1  0
  9 11  1  0
 11 12  1  0
 12 13  1  0
 13 14  1  0
 14 15  1  0
 15 16  1  0
 16 17  1  0
 17 18  1  0
 18 19  2  0
 19 20  1  0
 20 21  2  0
 21 22  1  0
 22 23  2  0
 17 24  1  0
  2 25  1  0
 25 26  2  0
 26 27  1  0
 27 28  2  0
 28 29  1  0
 29 30  2  0
 30 31  1  0
 30 32  1  0
 32 33  2  0
 33 34  1  0
 34 35  2  0
 12  7  1  0
 24 14  1  0
 35 25  1  0
 23 18  1  0
 34 28  1  0
  3 36  1  0
  4 37  1  0
  4 38  1  0
  8 39  1  0
  8 40  1  0
  9 41  1  6
 10 42  1  0
 11 43  1  0
 11 44  1  0
 12 45  1  6
 13 46  1  0
 13 47  1  0
 15 48  1  0
 15 49  1  0
 16 50  1  0
 16 51  1  0
 17 52  1  6
 19 53  1  0
 20 54  1  0
 21 55  1  0
 22 56  1  0
 23 57  1  0
 24 58  1  0
 24 59  1  0
 26 60  1  0
 27 61  1  0
 29 62  1  0
 32 63  1  0
 33 64  1  0
M  END
>  <smiles>  (48) 
O=C(NCC(=O)N1C[C@H](O)C[C@H]1CN1CC[C@H](c2ccccc2)C1)c1ccc2cc(F)ccc2n1

>  <score_type>  (48) 
oracle

>  <origin>  (48) 
autodockgpu

>  <m_score__min__energy>  (48) 
-9.5500000000000007

>  <m_primary>  (48) 
energy

>  <rmsd>  (48) 
3.5547688119812273

>  <m_score__min__rmsd>  (48) 
3.5547688119812273

>  <meeko>  (48) 
{"free_energy": -7.96, "intermolecular_energy": -10.34, "internal_energy": -3.25, "cluster_size": 6, "cluster_id": 1, "rank_in_cluster": 5}

>  <energy>  (48) 
-7.35

>  <cluster_rmsd>  (48) 
1.89

>  <cluster>  (48) 
6

$$$$

     RDKit          3D

 64 68  0  0  0  0  0  0  0  0999 V2000
  140.0760   73.3400  222.3960 O   0  0  0  0  0  0  0  0  0  0  0  0
  140.3330   74.2260  221.5310 C   0  0  0  0  0  0  0  0  0  0  0  0
  140.8380   73.8390  220.2510 N   0  0  0  0  0  0  0  0  0  0  0  0
  141.0280   72.4200  220.0260 C   0  0  0  0  0  0  0  0  0  0  0  0
  142.1910   72.2240  219.1260 C   0  0  0  0  0  0  0  0  0  0  0  0
  142.1670   71.5040  218.0970 O   0  0  0  0  0  0  0  0  0  0  0  0
  143.4170   72.8790  219.4220 N   0  0  0  0  0  0  0  0  0  0  0  0
  144.6640   72.8290  218.6660 C   0  0  0  0  0  0  0  0  0  0  0  0
  145.7150   73.0020  219.7310 C   0  0  2  0  0  0  0  0  0  0  0  0
  146.5110   71.8580  219.7220 O   0  0  0  0  0  0  0  0  0  0  0  0
  144.9530   73.1180  221.0480 C   0  0  0  0  0  0  0  0  0  0  0  0
  143.6660   73.7720  220.6010 C   0  0  1  0  0  0  0  0  0  0  0  0
  143.8870   75.1300  220.0580 C   0  0  0  0  0  0  0  0  0  0  0  0
  142.8090   75.8440  219.4750 N   0  0  0  0  0  0  0  0  0  0  0  0
  143.0630   75.9230  218.0410 C   0  0  0  0  0  0  0  0  0  0  0  0
  142.8220   77.3330  217.6130 C   0  0  0  0  0  0  0  0  0  0  0  0
  141.9220   77.8340  218.7170 C   0  0  2  0  0  0  0  0  0  0  0  0
  141.8700   79.2920  218.8040 C   0  0  0  0  0  0  0  0  0  0  0  0
  141.4730   79.8620  220.0120 C   0  0  0  0  0  0  0  0  0  0  0  0
  141.4020   81.2360  220.1540 C   0  0  0  0  0  0  0  0  0  0  0  0
  141.7360   82.0150  219.0660 C   0  0  0  0  0  0  0  0  0  0  0  0
  142.1270   81.4560  217.8770 C   0  0  0  0  0  0  0  0  0  0  0  0
  142.1950   80.0830  217.7440 C   0  0  0  0  0  0  0  0  0  0  0  0
  142.6010   77.1810  219.9330 C   0  0  0  0  0  0  0  0  0  0  0  0
  140.1150   75.6520  221.8330 C   0  0  0  0  0  0  0  0  0  0  0  0
  138.9230   76.2290  221.4550 C   0  0  0  0  0  0  0  0  0  0  0  0
  138.6910   77.5610  221.7230 C   0  0  0  0  0  0  0  0  0  0  0  0
  139.6740   78.2870  222.3720 C   0  0  0  0  0  0  0  0  0  0  0  0
  139.4190   79.6230  222.6310 C   0  0  0  0  0  0  0  0  0  0  0  0
  140.4360   80.3180  223.2860 C   0  0  0  0  0  0  0  0  0  0  0  0
  140.3000   81.6260  223.5920 F   0  0  0  0  0  0  0  0  0  0  0  0
  141.6090   79.6840  223.6390 C   0  0  0  0  0  0  0  0  0  0  0  0
  141.8190   78.3410  223.3580 C   0  0  0  0  0  0  0  0  0  0  0  0
  140.8320   77.6510  222.7170 C   0  0  0  0  0  0  0  0  0  0  0  0
  141.0670   76.3400  222.4550 N   0  0  0  0  0  0  0  0  0  0  0  0
  141.0450   74.5760  219.5460 H   0  0  0  0  0  0  0  0  0  0  0  0
  141.2157   71.9165  220.9858 H   0  0  0  0  0  0  0  0  0  0  0  0
  140.1254   71.9933  219.5643 H   0  0  0  0  0  0  0  0  0  0  0  0
  144.7766   71.8624  218.1531 H   0  0  0  0  0  0  0  0  0  0  0  0
  144.7209   73.5903  217.8741 H   0  0  0  0  0  0  0  0  0  0  0  0
  146.3562   73.8826  219.5778 H   0  0  0  0  0  0  0  0  0  0  0  0
  146.4960   71.4920  220.6480 H   0  0  0  0  0  0  0  0  0  0  0  0
  144.7670   72.1289  221.4921 H   0  0  0  0  0  0  0  0  0  0  0  0
  145.4910   73.6777  221.8273 H   0  0  0  0  0  0  0  0  0  0  0  0
  142.9018   73.8727  221.3857 H   0  0  0  0  0  0  0  0  0  0  0  0
  144.2646   75.7462  220.8873 H   0  0  0  0  0  0  0  0  0  0  0  0
  144.5642   74.9560  219.2088 H   0  0  0  0  0  0  0  0  0  0  0  0
  144.1047   75.6403  217.8291 H   0  0  0  0  0  0  0  0  0  0  0  0
  142.3999   75.2363  217.4944 H   0  0  0  0  0  0  0  0  0  0  0  0
  143.7603   77.9053  217.5689 H   0  0  0  0  0  0  0  0  0  0  0  0
  142.3909   77.4280  216.6055 H   0  0  0  0  0  0  0  0  0  0  0  0
  140.8596   77.5782  218.5909 H   0  0  0  0  0  0  0  0  0  0  0  0
  141.2135   79.2127  220.8612 H   0  0  0  0  0  0  0  0  0  0  0  0
  141.0891   81.6929  221.1045 H   0  0  0  0  0  0  0  0  0  0  0  0
  141.6875   83.1104  219.1544 H   0  0  0  0  0  0  0  0  0  0  0  0
  142.3874   82.1029  217.0263 H   0  0  0  0  0  0  0  0  0  0  0  0
  142.5088   79.6325  216.7908 H   0  0  0  0  0  0  0  0  0  0  0  0
  143.5547   77.6748  220.1711 H   0  0  0  0  0  0  0  0  0  0  0  0
  142.0101   77.2457  220.8586 H   0  0  0  0  0  0  0  0  0  0  0  0
  138.1582   75.6285  220.9407 H   0  0  0  0  0  0  0  0  0  0  0  0
  137.7444   78.0368  221.4272 H   0  0  0  0  0  0  0  0  0  0  0  0
  138.4747   80.1057  222.3389 H   0  0  0  0  0  0  0  0  0  0  0  0
  142.3952   80.2551  224.1545 H   0  0  0  0  0  0  0  0  0  0  0  0
  142.7581   77.8453  223.6451 H   0  0  0  0  0  0  0  0  0  0  0  0
  1  2  2  0
  2  3  1  0
  3  4  1  0
  4  5  1  0
  5  6  2  0
  5  7  1  0
  7  8  1  0
  8  9  1  0
  9 10  1  0
  9 11  1  0
 11 12  1  0
 12 13  1  0
 13 14  1  0
 14 15  1  0
 15 16  1  0
 16 17  1  0
 17 18  1  0
 18 19  2  0
 19 20  1  0
 20 21  2  0
 21 22  1  0
 22 23  2  0
 17 24  1  0
  2 25  1  0
 25 26  2  0
 26 27  1  0
 27 28  2  0
 28 29  1  0
 29 30  2  0
 30 31  1  0
 30 32  1  0
 32 33  2  0
 33 34  1  0
 34 35  2  0
 12  7  1  0
 24 14  1  0
 35 25  1  0
 23 18  1  0
 34 28  1  0
  3 36  1  0
  4 37  1  0
  4 38  1  0
  8 39  1  0
  8 40  1  0
  9 41  1  6
 10 42  1  0
 11 43  1  0
 11 44  1  0
 12 45  1  1
 13 46  1  0
 13 47  1  0
 15 48  1  0
 15 49  1  0
 16 50  1  0
 16 51  1  0
 17 52  1  6
 19 53  1  0
 20 54  1  0
 21 55  1  0
 22 56  1  0
 23 57  1  0
 24 58  1  0
 24 59  1  0
 26 60  1  0
 27 61  1  0
 29 62  1  0
 32 63  1  0
 33 64  1  0
M  END
>  <smiles>  (49) 
O=C(NCC(=O)N1C[C@H](O)C[C@H]1CN1CC[C@H](c2ccccc2)C1)c1ccc2cc(F)ccc2n1

>  <score_type>  (49) 
oracle

>  <origin>  (49) 
autodockgpu

>  <m_score__min__energy>  (49) 
-9.5500000000000007

>  <m_primary>  (49) 
energy

>  <rmsd>  (49) 
6.933762908532075

>  <m_score__min__rmsd>  (49) 
6.933762908532075

>  <meeko>  (49) 
{"free_energy": -7.72, "intermolecular_energy": -10.1, "internal_energy": -4.09, "cluster_size": 27, "cluster_id": 5, "rank_in_cluster": 12}

>  <energy>  (49) 
-7.34

>  <cluster_rmsd>  (49) 
1.77

>  <cluster>  (49) 
6

$$$$

     RDKit          3D

 64 68  0  0  0  0  0  0  0  0999 V2000
  139.7570   73.6160  222.7160 O   0  0  0  0  0  0  0  0  0  0  0  0
  140.1550   72.4230  222.5820 C   0  0  0  0  0  0  0  0  0  0  0  0
  140.6510   71.9810  221.3170 N   0  0  0  0  0  0  0  0  0  0  0  0
  140.6640   72.9550  220.2450 C   0  0  0  0  0  0  0  0  0  0  0  0
  141.6050   72.5030  219.1910 C   0  0  0  0  0  0  0  0  0  0  0  0
  141.3960   71.5170  218.4420 O   0  0  0  0  0  0  0  0  0  0  0  0
  142.8220   73.2110  218.9960 N   0  0  0  0  0  0  0  0  0  0  0  0
  143.8160   73.0100  217.9460 C   0  0  0  0  0  0  0  0  0  0  0  0
  145.1050   73.4060  218.6180 C   0  0  2  0  0  0  0  0  0  0  0  0
  145.9380   72.2890  218.6130 O   0  0  0  0  0  0  0  0  0  0  0  0
  144.7250   73.7900  220.0450 C   0  0  0  0  0  0  0  0  0  0  0  0
  143.3270   74.3310  219.8560 C   0  0  1  0  0  0  0  0  0  0  0  0
  143.3060   75.5480  219.0150 C   0  0  0  0  0  0  0  0  0  0  0  0
  142.2760   76.5080  219.1840 N   0  0  0  0  0  0  0  0  0  0  0  0
  142.4850   77.5520  218.1860 C   0  0  0  0  0  0  0  0  0  0  0  0
  142.3560   78.8700  218.8740 C   0  0  0  0  0  0  0  0  0  0  0  0
  141.5450   78.4980  220.0920 C   0  0  2  0  0  0  0  0  0  0  0  0
  141.6260   79.4870  221.1660 C   0  0  0  0  0  0  0  0  0  0  0  0
  141.9450   79.0380  222.4450 C   0  0  0  0  0  0  0  0  0  0  0  0
  142.0350   79.9250  223.5020 C   0  0  0  0  0  0  0  0  0  0  0  0
  141.8000   81.2600  223.2460 C   0  0  0  0  0  0  0  0  0  0  0  0
  141.4870   81.7030  221.9860 C   0  0  0  0  0  0  0  0  0  0  0  0
  141.4000   80.8100  220.9370 C   0  0  0  0  0  0  0  0  0  0  0  0
  142.2050   77.1570  220.4540 C   0  0  0  0  0  0  0  0  0  0  0  0
  140.1100   71.4870  223.7200 C   0  0  0  0  0  0  0  0  0  0  0  0
  139.5340   70.2500  223.5310 C   0  0  0  0  0  0  0  0  0  0  0  0
  139.4780   69.3530  224.5770 C   0  0  0  0  0  0  0  0  0  0  0  0
  140.0070   69.7280  225.7990 C   0  0  0  0  0  0  0  0  0  0  0  0
  139.9400   68.8120  226.8350 C   0  0  0  0  0  0  0  0  0  0  0  0
  140.4840   69.2290  228.0500 C   0  0  0  0  0  0  0  0  0  0  0  0
  140.4750   68.4200  229.1310 F   0  0  0  0  0  0  0  0  0  0  0  0
  141.0470   70.4810  228.1770 C   0  0  0  0  0  0  0  0  0  0  0  0
  141.0920   71.3670  227.1090 C   0  0  0  0  0  0  0  0  0  0  0  0
  140.5630   70.9700  225.9160 C   0  0  0  0  0  0  0  0  0  0  0  0
  140.6210   71.8570  224.8900 N   0  0  0  0  0  0  0  0  0  0  0  0
  140.9770   70.9980  221.2180 H   0  0  0  0  0  0  0  0  0  0  0  0
  139.6535   73.0497  219.8209 H   0  0  0  0  0  0  0  0  0  0  0  0
  140.9856   73.9319  220.6353 H   0  0  0  0  0  0  0  0  0  0  0  0
  143.8446   71.9583  217.6249 H   0  0  0  0  0  0  0  0  0  0  0  0
  143.6067   73.5896  217.0348 H   0  0  0  0  0  0  0  0  0  0  0  0
  145.6241   74.2385  218.1206 H   0  0  0  0  0  0  0  0  0  0  0  0
  145.3540   71.4980  218.4550 H   0  0  0  0  0  0  0  0  0  0  0  0
  144.7292   72.9141  220.7104 H   0  0  0  0  0  0  0  0  0  0  0  0
  145.4191   74.5022  220.5151 H   0  0  0  0  0  0  0  0  0  0  0  0
  142.8011   74.5895  220.7870 H   0  0  0  0  0  0  0  0  0  0  0  0
  144.2586   76.0702  219.1880 H   0  0  0  0  0  0  0  0  0  0  0  0
  143.1220   75.1544  218.0045 H   0  0  0  0  0  0  0  0  0  0  0  0
  143.4890   77.4552  217.7472 H   0  0  0  0  0  0  0  0  0  0  0  0
  141.7444   77.4656  217.3773 H   0  0  0  0  0  0  0  0  0  0  0  0
  143.3397   79.2743  219.1548 H   0  0  0  0  0  0  0  0  0  0  0  0
  141.8987   79.6556  218.2545 H   0  0  0  0  0  0  0  0  0  0  0  0
  140.4601   78.4441  219.9187 H   0  0  0  0  0  0  0  0  0  0  0  0
  142.1273   77.9668  222.6162 H   0  0  0  0  0  0  0  0  0  0  0  0
  142.2860   79.5771  224.5149 H   0  0  0  0  0  0  0  0  0  0  0  0
  141.8650   81.9853  224.0704 H   0  0  0  0  0  0  0  0  0  0  0  0
  141.3047   82.7736  221.8110 H   0  0  0  0  0  0  0  0  0  0  0  0
  141.1505   81.1638  219.9258 H   0  0  0  0  0  0  0  0  0  0  0  0
  143.2069   77.3075  220.8824 H   0  0  0  0  0  0  0  0  0  0  0  0
  141.6552   76.5834  221.2148 H   0  0  0  0  0  0  0  0  0  0  0  0
  139.1200   69.9785  222.5487 H   0  0  0  0  0  0  0  0  0  0  0  0
  139.0225   68.3608  224.4425 H   0  0  0  0  0  0  0  0  0  0  0  0
  139.4864   67.8180  226.7081 H   0  0  0  0  0  0  0  0  0  0  0  0
  141.4699   70.7847  229.1460 H   0  0  0  0  0  0  0  0  0  0  0  0
  141.5429   72.3640  227.2220 H   0  0  0  0  0  0  0  0  0  0  0  0
  1  2  2  0
  2  3  1  0
  3  4  1  0
  4  5  1  0
  5  6  2  0
  5  7  1  0
  7  8  1  0
  8  9  1  0
  9 10  1  0
  9 11  1  0
 11 12  1  0
 12 13  1  0
 13 14  1  0
 14 15  1  0
 15 16  1  0
 16 17  1  0
 17 18  1  0
 18 19  2  0
 19 20  1  0
 20 21  2  0
 21 22  1  0
 22 23  2  0
 17 24  1  0
  2 25  1  0
 25 26  2  0
 26 27  1  0
 27 28  2  0
 28 29  1  0
 29 30  2  0
 30 31  1  0
 30 32  1  0
 32 33  2  0
 33 34  1  0
 34 35  2  0
 12  7  1  0
 24 14  1  0
 35 25  1  0
 23 18  1  0
 34 28  1  0
  3 36  1  0
  4 37  1  0
  4 38  1  0
  8 39  1  0
  8 40  1  0
  9 41  1  6
 10 42  1  0
 11 43  1  0
 11 44  1  0
 12 45  1  1
 13 46  1  0
 13 47  1  0
 15 48  1  0
 15 49  1  0
 16 50  1  0
 16 51  1  0
 17 52  1  6
 19 53  1  0
 20 54  1  0
 21 55  1  0
 22 56  1  0
 23 57  1  0
 24 58  1  0
 24 59  1  0
 26 60  1  0
 27 61  1  0
 29 62  1  0
 32 63  1  0
 33 64  1  0
M  END
>  <smiles>  (50) 
O=C(NCC(=O)N1C[C@H](O)C[C@H]1CN1CC[C@H](c2ccccc2)C1)c1ccc2cc(F)ccc2n1

>  <score_type>  (50) 
oracle

>  <origin>  (50) 
autodockgpu

>  <m_score__min__energy>  (50) 
-9.5500000000000007

>  <m_primary>  (50) 
energy

>  <rmsd>  (50) 
3.6036945093376436

>  <m_score__min__rmsd>  (50) 
3.6036945093376436

>  <meeko>  (50) 
{"free_energy": -9.55, "intermolecular_energy": -11.93, "internal_energy": -1.69, "cluster_size": 6, "cluster_id": 1, "rank_in_cluster": 1}

>  <energy>  (50) 
-6.78

>  <cluster_rmsd>  (50) 
0.0

>  <cluster>  (50) 
7

$$$$
