
 60 65  0  0  0  0  0  0  0  0999 V2000
  141.4560   71.7490  222.6530 O   0  0  0  0  0  0  0  0  0  0  0  0
  140.3730   71.6680  223.2850 C   0  0  0  0  0  0  0  0  0  0  0  0
  139.3180   72.5720  222.9760 N   0  0  0  0  0  0  0  0  0  0  0  0
  139.4350   73.5730  221.9710 C   0  0  0  0  0  0  0  0  0  0  0  0
  139.3260   73.3150  220.6540 N   0  0  0  0  0  0  0  0  0  0  0  0
  139.4440   74.3000  219.7340 C   0  0  0  0  0  0  0  0  0  0  0  0
  139.3250   74.0040  218.3620 N   0  0  0  0  0  0  0  0  0  0  0  0
  139.9490   74.8400  217.3620 C   0  0  0  0  0  0  0  0  0  0  0  0
  140.7280   73.9460  216.4210 C   0  0  0  0  0  0  0  0  0  0  0  0
  139.9510   72.8590  215.8840 N   0  0  0  0  0  0  0  0  0  0  0  0
  138.6060   72.7840  216.4060 C   0  0  0  0  0  0  0  0  0  0  0  0
  138.5730   72.8550  217.9150 C   0  0  0  0  0  0  0  0  0  0  0  0
  139.6740   75.5530  220.1550 N   0  0  0  0  0  0  0  0  0  0  0  0
  139.7890   75.8550  221.4630 C   0  0  0  0  0  0  0  0  0  0  0  0
  140.0330   77.1750  221.9390 N   0  0  0  0  0  0  0  0  0  0  0  0
  139.0090   77.8910  222.6610 C   0  0  0  0  0  0  0  0  0  0  0  0
  139.2040   79.3830  222.6350 C   0  0  0  0  0  0  0  0  0  0  0  0
  140.5920   79.7810  222.9300 C   0  0  0  0  0  0  0  0  0  0  0  0
  140.8560   80.9340  223.6660 C   0  0  0  0  0  0  0  0  0  0  0  0
  142.1610   81.2840  223.9290 C   0  0  0  0  0  0  0  0  0  0  0  0
  143.2090   80.4880  223.4590 C   0  0  0  0  0  0  0  0  0  0  0  0
  142.9020   79.3540  222.7330 C   0  0  0  0  0  0  0  0  0  0  0  0
  141.6040   78.9720  222.4510 C   0  0  0  0  0  0  0  0  0  0  0  0
  141.3220   77.7610  221.6770 C   0  0  0  0  0  0  0  0  0  0  0  0
  139.6640   74.8370  222.3490 N   0  0  0  0  0  0  0  0  0  0  0  0
  140.2470   70.6600  224.3000 C   0  0  0  0  0  0  0  0  0  0  0  0
  139.5380   69.5050  223.9990 C   0  0  0  0  0  0  0  0  0  0  0  0
  139.3770   68.4940  224.9270 C   0  0  0  0  0  0  0  0  0  0  0  0
  139.9140   68.5850  226.1940 C   0  0  0  0  0  0  0  0  0  0  0  0
  139.9090   67.7750  227.2580 N   0  0  0  0  0  0  0  0  0  0  0  0
  140.5950   68.3580  228.2560 C   0  0  0  0  0  0  0  0  0  0  0  0
  141.0470   69.5860  227.7970 C   0  0  0  0  0  0  0  0  0  0  0  0
  140.6190   69.7360  226.4870 C   0  0  0  0  0  0  0  0  0  0  0  0
  140.7800   70.7480  225.5610 C   0  0  0  0  0  0  0  0  0  0  0  0
  138.3970   72.5320  223.4860 H   0  0  0  0  0  0  0  0  0  0  0  0
  139.1783   75.3895  216.8017 H   0  0  0  0  0  0  0  0  0  0  0  0
  140.6211   75.5682  217.8395 H   0  0  0  0  0  0  0  0  0  0  0  0
  141.0951   74.5580  215.5839 H   0  0  0  0  0  0  0  0  0  0  0  0
  141.5475   73.5000  217.0037 H   0  0  0  0  0  0  0  0  0  0  0  0
  140.4360   71.9390  215.9540 H   0  0  0  0  0  0  0  0  0  0  0  0
  138.0212   73.6222  215.9993 H   0  0  0  0  0  0  0  0  0  0  0  0
  138.1811   71.8151  216.1048 H   0  0  0  0  0  0  0  0  0  0  0  0
  137.5306   72.9449  218.2546 H   0  0  0  0  0  0  0  0  0  0  0  0
  139.0190   71.9408  218.3338 H   0  0  0  0  0  0  0  0  0  0  0  0
  138.0335   77.6572  222.2096 H   0  0  0  0  0  0  0  0  0  0  0  0
  139.0630   77.5708  223.7120 H   0  0  0  0  0  0  0  0  0  0  0  0
  138.9362   79.7554  221.6352 H   0  0  0  0  0  0  0  0  0  0  0  0
  138.5615   79.8155  223.4161 H   0  0  0  0  0  0  0  0  0  0  0  0
  140.0289   81.5591  224.0337 H   0  0  0  0  0  0  0  0  0  0  0  0
  142.3793   82.1920  224.5102 H   0  0  0  0  0  0  0  0  0  0  0  0
  144.2555   80.7587  223.6628 H   0  0  0  0  0  0  0  0  0  0  0  0
  143.7268   78.7273  222.3629 H   0  0  0  0  0  0  0  0  0  0  0  0
  141.3733   78.0159  220.6082 H   0  0  0  0  0  0  0  0  0  0  0  0
  142.0730   77.0150  221.9761 H   0  0  0  0  0  0  0  0  0  0  0  0
  139.0942   69.3921  222.9988 H   0  0  0  0  0  0  0  0  0  0  0  0
  138.8070   67.5953  224.6486 H   0  0  0  0  0  0  0  0  0  0  0  0
  139.4470   66.8250  227.3240 H   0  0  0  0  0  0  0  0  0  0  0  0
  140.7671   67.9366  229.2574 H   0  0  0  0  0  0  0  0  0  0  0  0
  141.6404   70.3128  228.3711 H   0  0  0  0  0  0  0  0  0  0  0  0
  141.3494   71.6464  225.8414 H   0  0  0  0  0  0  0  0  0  0  0  0
  1  2  2  0
  2  3  1  0
  3  4  1  0
  4  5  2  0
  5  6  1  0
  6  7  1  0
  7  8  1  0
  8  9  1  0
  9 10  1  0
 10 11  1  0
 11 12  1  0
  6 13  2  0
 13 14  1  0
 14 15  1  0
 15 16  1  0
 16 17  1  0
 17 18  1  0
 18 19  2  0
 19 20  1  0
 20 21  2  0
 21 22  1  0
 22 23  2  0
 23 24  1  0
 14 25  2  0
  2 26  1  0
 26 27  2  0
 27 28  1  0
 28 29  2  0
 29 30  1  0
 30 31  1  0
 31 32  2  0
 32 33  1  0
 33 34  2  0
 25  4  1  0
 34 26  1  0
 12  7  1  0
 24 15  1  0
 33 29  1  0
 23 18  1  0
  3 35  1  0
  8 36  1  0
  8 37  1  0
  9 38  1  0
  9 39  1  0
 10 40  1  0
 11 41  1  0
 11 42  1  0
 12 43  1  0
 12 44  1  0
 16 45  1  0
 16 46  1  0
 17 47  1  0
 17 48  1  0
 19 49  1  0
 20 50  1  0
 21 51  1  0
 22 52  1  0
 24 53  1  0
 24 54  1  0
 27 55  1  0
 28 56  1  0
 30 57  1  0
 31 58  1  0
 32 59  1  0
 34 60  1  0
M  END
