@<TRIPOS>MOLECULE
*****
 74 80 0 0 0
SMALL
GASTEIGER

@<TRIPOS>ATOM
      1 C         133.8730   70.1950  226.8360 C.ar    1  UNL1       -0.0617
      2 C         134.6720   69.9710  225.7290 C.ar    1  UNL1       -0.0615
      3 C         135.1030   71.0220  224.9650 C.ar    1  UNL1       -0.0573
      4 C         134.7660   72.3500  225.2560 C.ar    1  UNL1       -0.0334
      5 C         135.2790   73.4360  224.4010 C.3     1  UNL1        0.0241
      6 N         134.2120   74.3150  224.0340 N.3     1  UNL1       -0.2963
      7 C         134.6480   75.6710  223.9890 C.3     1  UNL1        0.0010
      8 C         135.5350   75.6980  222.7380 C.3     1  UNL1       -0.0205
      9 C         134.8020   74.7560  221.8100 C.3     1  UNL1        0.0372
     10 N         135.6840   73.7830  221.1880 N.pl3   1  UNL1       -0.3092
     11 C         137.0680   73.7370  221.5660 C.ar    1  UNL1        0.2213
     12 N         137.9400   74.6730  221.1680 N.ar    1  UNL1       -0.1809
     13 C         139.2270   74.6180  221.5280 C.ar    1  UNL1        0.2240
     14 N         140.1630   75.6160  221.1050 N.pl3   1  UNL1       -0.2948
     15 C         140.1160   76.2500  219.8170 C.3     1  UNL1        0.0192
     16 C         140.3440   77.7330  219.8560 C.3     1  UNL1       -0.0115
     17 C         140.6820   78.2570  221.1850 C.ar    1  UNL1       -0.0412
     18 C         140.5760   79.6190  221.3930 C.ar    1  UNL1       -0.0582
     19 C         140.8900   80.1450  222.6420 C.ar    1  UNL1       -0.0615
     20 C         141.3090   79.3370  223.6910 C.ar    1  UNL1       -0.0614
     21 C         141.4100   77.9830  223.4720 C.ar    1  UNL1       -0.0568
     22 C         141.0960   77.4770  222.2280 C.ar    1  UNL1       -0.0269
     23 C         141.2130   76.0140  222.0220 C.3     1  UNL1        0.0402
     24 N         139.6540   73.5990  222.3060 N.ar    1  UNL1       -0.1807
     25 C         138.7970   72.6320  222.7290 C.ar    1  UNL1        0.2240
     26 N         139.2210   71.5490  223.5490 N.pl3   1  UNL1       -0.2948
     27 C         138.3000   70.4690  223.8380 C.3     1  UNL1        0.0192
     28 C         139.1070   69.3610  224.4900 C.3     1  UNL1       -0.0115
     29 C         139.7040   69.9940  225.7140 C.ar    1  UNL1       -0.0412
     30 C         139.5090   69.4770  226.9770 C.ar    1  UNL1       -0.0582
     31 C         140.1210   70.1630  228.0220 C.ar    1  UNL1       -0.0615
     32 C         140.8740   71.2910  227.8050 C.ar    1  UNL1       -0.0614
     33 C         141.0640   71.8000  226.5380 C.ar    1  UNL1       -0.0568
     34 C         140.4610   71.1260  225.4970 C.ar    1  UNL1       -0.0269
     35 C         140.5860   71.5720  224.0720 C.3     1  UNL1        0.0402
     36 N         137.5130   72.7320  222.3400 N.ar    1  UNL1       -0.1809
     37 C         133.7540   74.0880  222.6700 C.3     1  UNL1        0.0177
     38 C         133.9690   72.5310  226.3640 C.ar    1  UNL1       -0.0573
     39 C         133.5290   71.4930  227.1410 C.ar    1  UNL1       -0.0615
     40 H         133.5215   69.3576  227.4567 H       1  UNL1        0.0618
     41 H         134.9621   68.9442  225.4616 H       1  UNL1        0.0618
     42 H         135.7374   70.8160  224.0903 H       1  UNL1        0.0621
     43 H         136.0446   74.0024  224.9516 H       1  UNL1        0.0476
     44 H         135.7187   73.0020  223.4909 H       1  UNL1        0.0476
     45 H         133.7956   76.3586  223.8859 H       1  UNL1        0.0427
     46 H         135.1707   75.9922  224.9020 H       1  UNL1        0.0427
     47 H         135.5952   76.7108  222.3130 H       1  UNL1        0.0296
     48 H         136.5788   75.4081  222.9291 H       1  UNL1        0.0296
     49 H         134.3564   75.3025  220.9657 H       1  UNL1        0.0511
     50 H         135.3590   73.1020  220.4670 H       1  UNL1        0.1492
     51 H         140.8911   75.7978  219.1808 H       1  UNL1        0.0468
     52 H         139.1004   76.0951  219.4238 H       1  UNL1        0.0468
     53 H         141.1703   77.9727  219.1707 H       1  UNL1        0.0328
     54 H         139.3950   78.2057  219.5628 H       1  UNL1        0.0328
     55 H         140.2465   80.2810  220.5787 H       1  UNL1        0.0620
     56 H         140.8041   81.2297  222.8030 H       1  UNL1        0.0618
     57 H         141.5540   79.7692  224.6724 H       1  UNL1        0.0618
     58 H         141.7374   77.3116  224.2795 H       1  UNL1        0.0621
     59 H         142.1969   75.7729  221.5933 H       1  UNL1        0.0514
     60 H         141.1142   75.4797  222.9784 H       1  UNL1        0.0514
     61 H         137.5130   70.8167  224.5233 H       1  UNL1        0.0468
     62 H         137.8130   70.1115  222.9188 H       1  UNL1        0.0468
     63 H         138.4562   68.5186  224.7671 H       1  UNL1        0.0328
     64 H         139.8746   68.9531  223.8159 H       1  UNL1        0.0328
     65 H         138.9045   68.5742  227.1490 H       1  UNL1        0.0620
     66 H         139.9982   69.7915  229.0501 H       1  UNL1        0.0618
     67 H         141.3367   71.8006  228.6630 H       1  UNL1        0.0618
     68 H         141.6689   72.7024  226.3653 H       1  UNL1        0.0621
     69 H         141.0032   72.5885  224.0199 H       1  UNL1        0.0514
     70 H         141.2618   70.9249  223.4936 H       1  UNL1        0.0514
     71 H         132.7671   74.5463  222.5087 H       1  UNL1        0.0445
     72 H         133.6374   73.0192  222.4375 H       1  UNL1        0.0445
     73 H         133.6727   73.5545  226.6370 H       1  UNL1        0.0621
     74 H         132.8953   71.6977  228.0165 H       1  UNL1        0.0618
@<TRIPOS>BOND
     1     1     2   ar
     2     2     3   ar
     3     3     4   ar
     4     4     5    1
     5     5     6    1
     6     6     7    1
     7     7     8    1
     8     8     9    1
     9     9    10    1
    10    10    11    1
    11    11    12   ar
    12    12    13   ar
    13    13    14    1
    14    14    15    1
    15    15    16    1
    16    16    17    1
    17    17    18   ar
    18    18    19   ar
    19    19    20   ar
    20    20    21   ar
    21    21    22   ar
    22    22    23    1
    23    13    24   ar
    24    24    25   ar
    25    25    26    1
    26    26    27    1
    27    27    28    1
    28    28    29    1
    29    29    30   ar
    30    30    31   ar
    31    31    32   ar
    32    32    33   ar
    33    33    34   ar
    34    34    35    1
    35    25    36   ar
    36     9    37    1
    37     4    38   ar
    38    38    39   ar
    39    39     1   ar
    40    37     6    1
    41    36    11   ar
    42    23    14    1
    43    35    26    1
    44    22    17   ar
    45    34    29   ar
    46     1    40    1
    47     2    41    1
    48     3    42    1
    49     5    43    1
    50     5    44    1
    51     7    45    1
    52     7    46    1
    53     8    47    1
    54     8    48    1
    55     9    49    1
    56    10    50    1
    57    15    51    1
    58    15    52    1
    59    16    53    1
    60    16    54    1
    61    18    55    1
    62    19    56    1
    63    20    57    1
    64    21    58    1
    65    23    59    1
    66    23    60    1
    67    27    61    1
    68    27    62    1
    69    28    63    1
    70    28    64    1
    71    30    65    1
    72    31    66    1
    73    32    67    1
    74    33    68    1
    75    35    69    1
    76    35    70    1
    77    37    71    1
    78    37    72    1
    79    38    73    1
    80    39    74    1
