@<TRIPOS>MOLECULE
*****
 74 80 0 0 0
SMALL
GASTEIGER

@<TRIPOS>ATOM
      1 C         139.4910   69.3730  228.1520 C.ar    1  UNL1       -0.0615
      2 C         140.3010   70.4710  228.3630 C.ar    1  UNL1       -0.0614
      3 C         140.8260   71.1750  227.2940 C.ar    1  UNL1       -0.0568
      4 C         140.5230   70.7580  226.0170 C.ar    1  UNL1       -0.0269
      5 C         139.7140   69.6620  225.7690 C.ar    1  UNL1       -0.0412
      6 C         139.2100   68.9870  226.8570 C.ar    1  UNL1       -0.0582
      7 C         139.4040   69.2350  224.3740 C.3     1  UNL1       -0.0115
      8 C         139.1800   70.4300  223.4950 C.3     1  UNL1        0.0192
      9 N         140.2110   71.4470  223.6920 N.pl3   1  UNL1       -0.2948
     10 C         140.3900   72.4550  222.6920 C.ar    1  UNL1        0.2240
     11 N         141.4540   72.4500  221.8690 N.ar    1  UNL1       -0.1809
     12 C         141.6520   73.3730  220.9250 C.ar    1  UNL1        0.2211
     13 N         142.7950   73.3500  220.0550 N.pl3   1  UNL1       -0.3133
     14 C         143.7180   74.4350  219.9540 C.3     1  UNL1        0.0119
     15 C         143.2790   75.4600  218.9250 C.3     1  UNL1       -0.0358
     16 C         143.0710   76.7680  219.6240 C.3     1  UNL1       -0.0335
     17 C         141.6310   77.1320  219.7990 C.3     1  UNL1        0.0247
     18 N         141.4700   77.7130  221.1240 N.ar    1  UNL1       -0.3301
     19 C         141.2110   77.0310  222.2620 C.ar    1  UNL1        0.0970
     20 N         141.1340   77.9180  223.2760 N.ar    1  UNL1       -0.2357
     21 C         141.3470   79.1610  222.7610 C.ar    1  UNL1        0.0890
     22 C         141.3700   80.3910  223.3850 C.ar    1  UNL1       -0.0342
     23 C         141.6180   81.5160  222.5890 C.ar    1  UNL1       -0.0596
     24 C         141.8250   81.3700  221.2480 C.ar    1  UNL1       -0.0597
     25 C         141.8010   80.1380  220.6320 C.ar    1  UNL1       -0.0361
     26 C         141.5600   79.0350  221.4010 C.ar    1  UNL1        0.0686
     27 N         140.7100   74.3460  220.8260 N.ar    1  UNL1       -0.1809
     28 C         139.6300   74.4080  221.6150 C.ar    1  UNL1        0.2240
     29 N         138.6480   75.4420  221.4950 N.pl3   1  UNL1       -0.2948
     30 C         138.1240   75.7770  220.1860 C.3     1  UNL1        0.0192
     31 C         136.7530   76.4340  220.3840 C.3     1  UNL1       -0.0115
     32 C         137.0520   77.6740  221.1850 C.ar    1  UNL1       -0.0412
     33 C         136.6080   78.8970  220.7630 C.ar    1  UNL1       -0.0582
     34 C         136.8940   80.0200  221.5140 C.ar    1  UNL1       -0.0615
     35 C         137.6350   79.8550  222.6840 C.ar    1  UNL1       -0.0614
     36 C         138.0750   78.5960  223.0880 C.ar    1  UNL1       -0.0568
     37 C         137.7870   77.4750  222.3370 C.ar    1  UNL1       -0.0269
     38 C         138.2270   76.1060  222.7140 C.3     1  UNL1        0.0402
     39 N         139.4880   73.4430  222.5500 N.ar    1  UNL1       -0.1807
     40 C         141.0630   71.4810  224.8570 C.3     1  UNL1        0.0402
     41 H         139.0757   68.8140  229.0035 H       1  UNL1        0.0618
     42 H         140.5310   70.7890  229.3906 H       1  UNL1        0.0618
     43 H         141.4720   72.0496  227.4606 H       1  UNL1        0.0621
     44 H         138.5634   68.1130  226.6895 H       1  UNL1        0.0620
     45 H         140.2469   68.6486  223.9794 H       1  UNL1        0.0328
     46 H         138.4887   68.6250  224.3843 H       1  UNL1        0.0328
     47 H         139.1943   70.1069  222.4436 H       1  UNL1        0.0468
     48 H         138.2077   70.8719  223.7584 H       1  UNL1        0.0468
     49 H         142.9360   72.5070  219.4910 H       1  UNL1        0.1489
     50 H         143.7964   74.9272  220.9346 H       1  UNL1        0.0462
     51 H         144.6886   74.0272  219.6351 H       1  UNL1        0.0462
     52 H         144.0560   75.5696  218.1541 H       1  UNL1        0.0281
     53 H         142.3457   75.1360  218.4413 H       1  UNL1        0.0281
     54 H         143.5379   76.7089  220.6182 H       1  UNL1        0.0283
     55 H         143.5257   77.5462  218.9934 H       1  UNL1        0.0283
     56 H         141.3354   77.8635  219.0325 H       1  UNL1        0.0492
     57 H         140.9965   76.2396  219.6942 H       1  UNL1        0.0492
     58 H         141.0848   75.9416  222.3468 H       1  UNL1        0.1029
     59 H         141.1998   80.4846  224.4677 H       1  UNL1        0.0639
     60 H         141.6460   82.5169  223.0444 H       1  UNL1        0.0618
     61 H         142.0173   82.2656  220.6389 H       1  UNL1        0.0618
     62 H         141.9714   80.0449  219.5493 H       1  UNL1        0.0639
     63 H         138.8044   76.4766  219.6784 H       1  UNL1        0.0468
     64 H         138.0308   74.8728  219.5665 H       1  UNL1        0.0468
     65 H         136.3012   76.6943  219.4154 H       1  UNL1        0.0328
     66 H         136.0351   75.7694  220.8870 H       1  UNL1        0.0328
     67 H         136.0277   78.9853  219.8327 H       1  UNL1        0.0620
     68 H         136.5476   81.0153  221.1988 H       1  UNL1        0.0618
     69 H         137.8764   80.7345  223.2990 H       1  UNL1        0.0618
     70 H         138.6580   78.4949  224.0153 H       1  UNL1        0.0621
     71 H         139.0665   76.1613  223.4227 H       1  UNL1        0.0514
     72 H         137.4099   75.5520  223.1992 H       1  UNL1        0.0514
     73 H         142.0310   71.0319  224.5901 H       1  UNL1        0.0514
     74 H         141.1516   72.5363  225.1543 H       1  UNL1        0.0514
@<TRIPOS>BOND
     1     1     2   ar
     2     2     3   ar
     3     3     4   ar
     4     4     5   ar
     5     5     6   ar
     6     5     7    1
     7     7     8    1
     8     8     9    1
     9     9    10    1
    10    10    11   ar
    11    11    12   ar
    12    12    13    1
    13    13    14    1
    14    14    15    1
    15    15    16    1
    16    16    17    1
    17    17    18    1
    18    18    19   ar
    19    19    20   ar
    20    20    21   ar
    21    21    22   ar
    22    22    23   ar
    23    23    24   ar
    24    24    25   ar
    25    25    26   ar
    26    12    27   ar
    27    27    28   ar
    28    28    29    1
    29    29    30    1
    30    30    31    1
    31    31    32    1
    32    32    33   ar
    33    33    34   ar
    34    34    35   ar
    35    35    36   ar
    36    36    37   ar
    37    37    38    1
    38    28    39   ar
    39     9    40    1
    40     6     1   ar
    41    39    10   ar
    42    40     4    1
    43    26    18   ar
    44    38    29    1
    45    26    21   ar
    46    37    32   ar
    47     1    41    1
    48     2    42    1
    49     3    43    1
    50     6    44    1
    51     7    45    1
    52     7    46    1
    53     8    47    1
    54     8    48    1
    55    13    49    1
    56    14    50    1
    57    14    51    1
    58    15    52    1
    59    15    53    1
    60    16    54    1
    61    16    55    1
    62    17    56    1
    63    17    57    1
    64    19    58    1
    65    22    59    1
    66    23    60    1
    67    24    61    1
    68    25    62    1
    69    30    63    1
    70    30    64    1
    71    31    65    1
    72    31    66    1
    73    33    67    1
    74    34    68    1
    75    35    69    1
    76    36    70    1
    77    38    71    1
    78    38    72    1
    79    40    73    1
    80    40    74    1
