@<TRIPOS>MOLECULE
*****
 61 65 0 0 0
SMALL
GASTEIGER

@<TRIPOS>ATOM
      1 O         140.1860   70.9120  221.3460 O.2     1  UNL1       -0.2685
      2 C         139.8440   71.3910  222.4620 C.2     1  UNL1        0.2628
      3 N         139.4260   72.7900  222.5190 N.am    1  UNL1       -0.3015
      4 C         139.4490   73.4850  221.2810 C.3     1  UNL1        0.0887
      5 C         140.6290   74.2810  220.9810 C.2     1  UNL1        0.2331
      6 O         141.7240   73.7940  221.4920 O.2     1  UNL1       -0.2739
      7 N         140.8170   75.4650  220.2530 N.am    1  UNL1       -0.2943
      8 C         140.0150   76.7110  220.4120 C.3     1  UNL1        0.0175
      9 C         141.0570   77.8040  220.1140 C.3     1  UNL1       -0.0092
     10 C         142.3690   77.0380  219.8160 C.3     1  UNL1        0.0755
     11 O         143.1660   77.7110  218.9250 O.3     1  UNL1       -0.3899
     12 C         141.7180   75.7850  219.2160 C.3     1  UNL1        0.0559
     13 C         142.5650   74.9010  218.4560 C.3     1  UNL1       -0.0065
     14 C         143.5450   74.0500  219.1280 C.ar    1  UNL1       -0.0449
     15 C         144.3730   74.7060  220.0660 C.ar    1  UNL1       -0.0585
     16 C         145.3110   74.0210  220.8030 C.ar    1  UNL1       -0.0609
     17 C         145.4610   72.6690  220.6390 C.ar    1  UNL1       -0.0525
     18 C         144.6730   71.9890  219.7360 C.ar    1  UNL1        0.0006
     19 C         144.8670   70.5520  219.5950 C.ar    1  UNL1        0.0710
     20 C         143.8610   69.6260  219.7300 C.ar    1  UNL1       -0.0357
     21 C         144.0670   68.2570  219.5920 C.ar    1  UNL1       -0.0583
     22 C         145.3440   67.8380  219.3050 C.ar    1  UNL1       -0.0436
     23 C         146.3140   68.7980  219.1770 C.ar    1  UNL1        0.0283
     24 N         146.0930   70.1150  219.3160 N.ar    1  UNL1       -0.2550
     25 C         143.7430   72.7090  219.0150 C.ar    1  UNL1       -0.0493
     26 C         139.8590   70.5830  223.6680 C.ar    1  UNL1        0.1260
     27 C         139.2980   69.3310  223.6360 C.ar    1  UNL1       -0.0306
     28 C         139.2880   68.5160  224.7720 C.ar    1  UNL1       -0.0503
     29 C         139.8700   69.0290  225.9260 C.ar    1  UNL1        0.0031
     30 C         139.9220   68.3210  227.1090 C.ar    1  UNL1       -0.0173
     31 C         140.4990   68.8300  228.2590 C.ar    1  UNL1        0.1241
     32 F         140.5440   68.1240  229.4160 F       1  UNL1       -0.2055
     33 C         141.0580   70.1080  228.2420 C.ar    1  UNL1       -0.0244
     34 C         141.0070   70.8190  227.0610 C.ar    1  UNL1       -0.0330
     35 C         140.4310   70.3110  225.9180 C.ar    1  UNL1        0.0720
     36 N         140.4230   71.0680  224.8090 N.ar    1  UNL1       -0.2421
     37 H         139.1380   73.0920  223.4540 H       1  UNL1        0.1496
     38 H         139.3435   72.7373  220.4811 H       1  UNL1        0.0558
     39 H         138.6290   74.2146  221.3532 H       1  UNL1        0.0558
     40 H         139.1833   76.7452  219.6929 H       1  UNL1        0.0465
     41 H         139.5400   76.8091  221.3993 H       1  UNL1        0.0465
     42 H         140.7518   78.4014  219.2422 H       1  UNL1        0.0306
     43 H         141.1705   78.5059  220.9534 H       1  UNL1        0.0306
     44 H         143.0556   76.8704  220.6589 H       1  UNL1        0.0612
     45 H         144.0720   77.8530  219.3300 H       1  UNL1        0.2099
     46 H         141.1364   75.8218  218.2831 H       1  UNL1        0.0529
     47 H         141.8973   74.2301  217.8955 H       1  UNL1        0.0332
     48 H         143.1950   75.5964  217.8820 H       1  UNL1        0.0332
     49 H         144.2650   75.7911  220.2105 H       1  UNL1        0.0620
     50 H         145.9419   74.5597  221.5254 H       1  UNL1        0.0618
     51 H         146.2126   72.1249  221.2299 H       1  UNL1        0.0624
     52 H         142.8459   69.9835  219.9577 H       1  UNL1        0.0639
     53 H         143.2415   67.5393  219.7079 H       1  UNL1        0.0619
     54 H         145.5793   66.7705  219.1824 H       1  UNL1        0.0633
     55 H         147.3378   68.4687  218.9459 H       1  UNL1        0.0830
     56 H         143.1166   72.1592  218.2972 H       1  UNL1        0.0627
     57 H         138.8491   68.9628  222.7017 H       1  UNL1        0.0641
     58 H         138.8390   67.5120  224.7537 H       1  UNL1        0.0625
     59 H         139.4872   67.3110  227.1392 H       1  UNL1        0.0653
     60 H         141.5247   70.5352  229.1418 H       1  UNL1        0.0647
     61 H         141.4424   71.8287  227.0312 H       1  UNL1        0.0640
@<TRIPOS>BOND
     1     1     2    2
     2     2     3   am
     3     3     4    1
     4     4     5    1
     5     5     6    2
     6     5     7   am
     7     7     8    1
     8     8     9    1
     9     9    10    1
    10    10    11    1
    11    10    12    1
    12    12    13    1
    13    13    14    1
    14    14    15   ar
    15    15    16   ar
    16    16    17   ar
    17    17    18   ar
    18    18    19    1
    19    19    20   ar
    20    20    21   ar
    21    21    22   ar
    22    22    23   ar
    23    23    24   ar
    24    18    25   ar
    25     2    26    1
    26    26    27   ar
    27    27    28   ar
    28    28    29   ar
    29    29    30   ar
    30    30    31   ar
    31    31    32    1
    32    31    33   ar
    33    33    34   ar
    34    34    35   ar
    35    35    36   ar
    36    12     7    1
    37    25    14   ar
    38    36    26   ar
    39    24    19   ar
    40    35    29   ar
    41     3    37    1
    42     4    38    1
    43     4    39    1
    44     8    40    1
    45     8    41    1
    46     9    42    1
    47     9    43    1
    48    10    44    1
    49    11    45    1
    50    12    46    1
    51    13    47    1
    52    13    48    1
    53    15    49    1
    54    16    50    1
    55    17    51    1
    56    20    52    1
    57    21    53    1
    58    22    54    1
    59    23    55    1
    60    25    56    1
    61    27    57    1
    62    28    58    1
    63    30    59    1
    64    33    60    1
    65    34    61    1
