
 61 64  0  0  0  0  0  0  0  0999 V2000
  143.0050   80.3970  223.3910 C   0  0  0  0  0  0  0  0  0  0  0  0
  142.2220   80.0590  222.1860 C   0  0  2  0  0  0  0  0  0  0  0  0
  141.2250   81.1310  221.8800 C   0  0  0  0  0  0  0  0  0  0  0  0
  139.9800   81.0860  222.5260 C   0  0  0  0  0  0  0  0  0  0  0  0
  139.0160   82.0360  222.3330 C   0  0  0  0  0  0  0  0  0  0  0  0
  139.2390   83.0940  221.4760 C   0  0  0  0  0  0  0  0  0  0  0  0
  140.4440   83.1530  220.8400 C   0  0  0  0  0  0  0  0  0  0  0  0
  141.4280   82.1820  221.0400 C   0  0  0  0  0  0  0  0  0  0  0  0
  141.7860   78.7260  222.0020 N   0  0  0  0  0  0  0  0  0  0  0  0
  141.4560   77.9680  223.2510 C   0  0  0  0  0  0  0  0  0  0  0  0
  141.6150   77.9970  220.8190 C   0  0  0  0  0  0  0  0  0  0  0  0
  142.5730   77.2020  220.4420 O   0  0  0  0  0  0  0  0  0  0  0  0
  140.4610   77.9830  219.8890 C   0  0  2  0  0  0  0  0  0  0  0  0
  140.2080   79.2900  219.2300 C   0  0  0  0  0  0  0  0  0  0  0  0
  138.6960   79.4150  219.2000 C   0  0  0  0  0  0  0  0  0  0  0  0
  138.3470   78.8680  220.6140 C   0  0  0  0  0  0  0  0  0  0  0  0
  139.2670   77.7570  220.7410 N   0  0  0  0  0  0  0  0  0  0  0  0
  139.1710   76.5720  221.5210 C   0  0  0  0  0  0  0  0  0  0  0  0
  138.7490   76.6950  222.7500 O   0  0  0  0  0  0  0  0  0  0  0  0
  139.4880   75.2030  221.1450 C   0  0  0  0  0  0  0  0  0  0  0  0
  139.5580   74.2050  222.1400 N   0  0  0  0  0  0  0  0  0  0  0  0
  139.8750   72.8260  221.8590 C   0  0  0  0  0  0  0  0  0  0  0  0
  140.1030   72.4450  220.6620 O   0  0  0  0  0  0  0  0  0  0  0  0
  139.9350   71.8590  222.9590 C   0  0  0  0  0  0  0  0  0  0  0  0
  139.4750   70.5790  222.7510 C   0  0  0  0  0  0  0  0  0  0  0  0
  139.5140   69.6300  223.7700 C   0  0  0  0  0  0  0  0  0  0  0  0
  140.0260   70.0170  224.9910 C   0  0  0  0  0  0  0  0  0  0  0  0
  140.1130   69.1700  226.0650 C   0  0  0  0  0  0  0  0  0  0  0  0
  140.6290   69.5590  227.2930 C   0  0  0  0  0  0  0  0  0  0  0  0
  140.7270   68.4470  228.6490 Cl  0  0  0  0  0  0  0  0  0  0  0  0
  141.0700   70.8700  227.4190 C   0  0  0  0  0  0  0  0  0  0  0  0
  140.9920   71.7350  226.3540 C   0  0  0  0  0  0  0  0  0  0  0  0
  140.4760   71.3210  225.1470 C   0  0  0  0  0  0  0  0  0  0  0  0
  140.4300   72.2160  224.1550 N   0  0  0  0  0  0  0  0  0  0  0  0
  142.4223   80.1455  224.2894 H   0  0  0  0  0  0  0  0  0  0  0  0
  143.9440   79.8241  223.3907 H   0  0  0  0  0  0  0  0  0  0  0  0
  143.2321   81.4733  223.3907 H   0  0  0  0  0  0  0  0  0  0  0  0
  142.9680   80.0534  221.3777 H   0  0  0  0  0  0  0  0  0  0  0  0
  139.7716   80.2538  223.2145 H   0  0  0  0  0  0  0  0  0  0  0  0
  138.0562   81.9563  222.8645 H   0  0  0  0  0  0  0  0  0  0  0  0
  138.4708   83.8639  221.3113 H   0  0  0  0  0  0  0  0  0  0  0  0
  140.6462   83.9869  220.1517 H   0  0  0  0  0  0  0  0  0  0  0  0
  142.3866   82.2688  220.5075 H   0  0  0  0  0  0  0  0  0  0  0  0
  141.7204   78.5754  224.1292 H   0  0  0  0  0  0  0  0  0  0  0  0
  140.3791   77.7445  223.2706 H   0  0  0  0  0  0  0  0  0  0  0  0
  142.0261   77.0275  223.2706 H   0  0  0  0  0  0  0  0  0  0  0  0
  140.6618   77.2290  219.1137 H   0  0  0  0  0  0  0  0  0  0  0  0
  140.6544   80.1108  219.8105 H   0  0  0  0  0  0  0  0  0  0  0  0
  140.6518   79.3442  218.2250 H   0  0  0  0  0  0  0  0  0  0  0  0
  138.3759   80.4602  219.0770 H   0  0  0  0  0  0  0  0  0  0  0  0
  138.2057   78.8889  218.3676 H   0  0  0  0  0  0  0  0  0  0  0  0
  138.5253   79.6258  221.3912 H   0  0  0  0  0  0  0  0  0  0  0  0
  137.2905   78.5855  220.7325 H   0  0  0  0  0  0  0  0  0  0  0  0
  138.7198   74.8834  220.4255 H   0  0  0  0  0  0  0  0  0  0  0  0
  140.5219   75.2707  220.7757 H   0  0  0  0  0  0  0  0  0  0  0  0
  139.3780   74.4190  223.1640 H   0  0  0  0  0  0  0  0  0  0  0  0
  139.0708   70.3012  221.7664 H   0  0  0  0  0  0  0  0  0  0  0  0
  139.1485   68.6055  223.6063 H   0  0  0  0  0  0  0  0  0  0  0  0
  139.7579   68.1355  225.9483 H   0  0  0  0  0  0  0  0  0  0  0  0
  141.4841   71.2179  228.3768 H   0  0  0  0  0  0  0  0  0  0  0  0
  141.3461   72.7703  226.4675 H   0  0  0  0  0  0  0  0  0  0  0  0
  1  2  1  0
  2  3  1  0
  3  4  2  0
  4  5  1  0
  5  6  2  0
  6  7  1  0
  7  8  2  0
  2  9  1  0
  9 10  1  0
  9 11  1  0
 11 12  2  0
 11 13  1  0
 13 14  1  0
 14 15  1  0
 15 16  1  0
 16 17  1  0
 17 18  1  0
 18 19  2  0
 18 20  1  0
 20 21  1  0
 21 22  1  0
 22 23  2  0
 22 24  1  0
 24 25  2  0
 25 26  1  0
 26 27  2  0
 27 28  1  0
 28 29  2  0
 29 30  1  0
 29 31  1  0
 31 32  2  0
 32 33  1  0
 33 34  2  0
  8  3  1  0
 17 13  1  0
 34 24  1  0
 33 27  1  0
  1 35  1  0
  1 36  1  0
  1 37  1  0
  2 38  1  6
  4 39  1  0
  5 40  1  0
  6 41  1  0
  7 42  1  0
  8 43  1  0
 10 44  1  0
 10 45  1  0
 10 46  1  0
 13 47  1  6
 14 48  1  0
 14 49  1  0
 15 50  1  0
 15 51  1  0
 16 52  1  0
 16 53  1  0
 20 54  1  0
 20 55  1  0
 21 56  1  0
 25 57  1  0
 26 58  1  0
 28 59  1  0
 31 60  1  0
 32 61  1  0
M  END
