@<TRIPOS>MOLECULE
*****
 65 70 0 0 0
SMALL
GASTEIGER

@<TRIPOS>ATOM
      1 N         146.2390   73.3830  217.6720 N.3     1  UNL1       -0.3272
      2 C         145.2650   73.0160  218.6780 C.3     1  UNL1        0.0049
      3 C         145.5610   73.7070  219.9950 C.3     1  UNL1       -0.0371
      4 C         144.3050   73.5170  220.8420 C.3     1  UNL1       -0.0419
      5 C         143.3050   74.5310  220.2900 C.3     1  UNL1        0.0193
      6 C         142.0190   74.5110  221.0070 C.ar    1  UNL1        0.1393
      7 N         141.5880   73.3620  221.5440 N.ar    1  UNL1       -0.1990
      8 C         140.4420   73.2270  222.2150 C.ar    1  UNL1        0.2227
      9 N         140.0100   71.9910  222.7770 N.pl3   1  UNL1       -0.2949
     10 C         138.9370   71.1990  222.2150 C.3     1  UNL1        0.0192
     11 C         139.2420   69.7200  222.3710 C.3     1  UNL1       -0.0115
     12 C         139.3380   69.4360  223.8250 C.ar    1  UNL1       -0.0412
     13 C         138.7670   68.3590  224.4390 C.ar    1  UNL1       -0.0582
     14 C         138.9020   68.1600  225.8130 C.ar    1  UNL1       -0.0615
     15 C         139.6190   69.0570  226.5810 C.ar    1  UNL1       -0.0614
     16 C         140.1960   70.1480  225.9580 C.ar    1  UNL1       -0.0568
     17 C         140.0670   70.3550  224.5840 C.ar    1  UNL1       -0.0269
     18 C         140.6980   71.5290  223.9700 C.3     1  UNL1        0.0402
     19 N         139.6680   74.3420  222.3540 N.ar    1  UNL1       -0.1808
     20 C         140.0850   75.5120  221.8190 C.ar    1  UNL1        0.2227
     21 N         139.2590   76.6620  221.9770 N.pl3   1  UNL1       -0.2949
     22 C         137.8350   76.4730  221.7870 C.3     1  UNL1        0.0192
     23 C         137.0210   77.7080  221.8560 C.3     1  UNL1       -0.0115
     24 C         137.5470   78.7990  222.6690 C.ar    1  UNL1       -0.0412
     25 C         136.6790   79.7250  223.2230 C.ar    1  UNL1       -0.0582
     26 C         137.1510   80.7750  224.0020 C.ar    1  UNL1       -0.0615
     27 C         138.5140   80.8800  224.2160 C.ar    1  UNL1       -0.0614
     28 C         139.3650   79.9450  223.6540 C.ar    1  UNL1       -0.0568
     29 C         138.9010   78.9010  222.8810 C.ar    1  UNL1       -0.0269
     30 C         139.8530   77.9430  222.3140 C.3     1  UNL1        0.0402
     31 N         141.2470   75.5930  221.1540 N.ar    1  UNL1       -0.1990
     32 C         143.1870   74.4400  218.7960 C.3     1  UNL1       -0.0419
     33 C         143.8500   73.2130  218.2250 C.3     1  UNL1       -0.0371
     34 H         145.7130   73.7800  216.8360 H       1  UNL1        0.1185
     35 H         146.8120   74.1780  218.0310 H       1  UNL1        0.1185
     36 H         145.3630   71.9330  218.8438 H       1  UNL1        0.0458
     37 H         145.7579   74.7770  219.8328 H       1  UNL1        0.0280
     38 H         146.4528   73.2896  220.4853 H       1  UNL1        0.0280
     39 H         144.5179   73.7203  221.9019 H       1  UNL1        0.0273
     40 H         143.9223   72.4869  220.7919 H       1  UNL1        0.0273
     41 H         143.7091   75.5345  220.4895 H       1  UNL1        0.0379
     42 H         137.9987   71.4340  222.7388 H       1  UNL1        0.0468
     43 H         138.8382   71.4349  221.1451 H       1  UNL1        0.0468
     44 H         138.4353   69.1208  221.9236 H       1  UNL1        0.0328
     45 H         140.1828   69.4623  221.8626 H       1  UNL1        0.0328
     46 H         138.1916   67.6369  223.8411 H       1  UNL1        0.0620
     47 H         138.4351   67.2843  226.2875 H       1  UNL1        0.0618
     48 H         139.7285   68.9064  227.6651 H       1  UNL1        0.0618
     49 H         140.7696   70.8691  226.5588 H       1  UNL1        0.0621
     50 H         140.7073   72.3460  224.7065 H       1  UNL1        0.0514
     51 H         141.7134   71.2332  223.6675 H       1  UNL1        0.0514
     52 H         137.6810   76.0186  220.7971 H       1  UNL1        0.0468
     53 H         137.4974   75.8376  222.6191 H       1  UNL1        0.0468
     54 H         136.9018   78.0855  220.8297 H       1  UNL1        0.0328
     55 H         136.0846   77.4078  222.3490 H       1  UNL1        0.0328
     56 H         135.5981   79.6280  223.0436 H       1  UNL1        0.0620
     57 H         136.4558   81.5069  224.4390 H       1  UNL1        0.0618
     58 H         138.9177   81.7001  224.8279 H       1  UNL1        0.0618
     59 H         140.4470   80.0372  223.8294 H       1  UNL1        0.0621
     60 H         140.2815   78.3788  221.3994 H       1  UNL1        0.0514
     61 H         140.6150   77.7521  223.0840 H       1  UNL1        0.0514
     62 H         143.6569   75.3303  218.3527 H       1  UNL1        0.0273
     63 H         142.1157   74.3768  218.5545 H       1  UNL1        0.0273
     64 H         143.8468   73.2972  217.1282 H       1  UNL1        0.0280
     65 H         143.2775   72.3458  218.5858 H       1  UNL1        0.0280
@<TRIPOS>BOND
     1     1     2    1
     2     2     3    1
     3     3     4    1
     4     4     5    1
     5     5     6    1
     6     6     7   ar
     7     7     8   ar
     8     8     9    1
     9     9    10    1
    10    10    11    1
    11    11    12    1
    12    12    13   ar
    13    13    14   ar
    14    14    15   ar
    15    15    16   ar
    16    16    17   ar
    17    17    18    1
    18     8    19   ar
    19    19    20   ar
    20    20    21    1
    21    21    22    1
    22    22    23    1
    23    23    24    1
    24    24    25   ar
    25    25    26   ar
    26    26    27   ar
    27    27    28   ar
    28    28    29   ar
    29    29    30    1
    30    20    31   ar
    31     5    32    1
    32    32    33    1
    33    33     2    1
    34    31     6   ar
    35    18     9    1
    36    30    21    1
    37    17    12   ar
    38    29    24   ar
    39     1    34    1
    40     1    35    1
    41     2    36    1
    42     3    37    1
    43     3    38    1
    44     4    39    1
    45     4    40    1
    46     5    41    1
    47    10    42    1
    48    10    43    1
    49    11    44    1
    50    11    45    1
    51    13    46    1
    52    14    47    1
    53    15    48    1
    54    16    49    1
    55    18    50    1
    56    18    51    1
    57    22    52    1
    58    22    53    1
    59    23    54    1
    60    23    55    1
    61    25    56    1
    62    26    57    1
    63    27    58    1
    64    28    59    1
    65    30    60    1
    66    30    61    1
    67    32    62    1
    68    32    63    1
    69    33    64    1
    70    33    65    1
