
     RDKit          3D

 60 64  0  0  0  0  0  0  0  0999 V2000
  141.1410   72.4760  221.7300 O   0  0  0  0  0  0  0  0  0  0  0  0
  140.1420   72.4790  222.5000 C   0  0  0  0  0  0  0  0  0  0  0  0
  139.0220   73.3410  222.3170 N   0  0  0  0  0  0  0  0  0  0  0  0
  139.0240   74.2800  221.1720 C   0  0  0  0  0  0  0  0  0  0  0  0
  140.0020   75.3450  221.3880 C   0  0  0  0  0  0  0  0  0  0  0  0
  141.1210   75.2200  220.7740 O   0  0  0  0  0  0  0  0  0  0  0  0
  139.8700   76.4930  222.1850 N   0  0  0  0  0  0  0  0  0  0  0  0
  141.0690   77.1930  222.7040 C   0  0  0  0  0  0  0  0  0  0  0  0
  140.6960   78.6300  222.8340 C   0  0  0  0  0  0  0  0  0  0  0  0
  139.1960   78.7190  222.6640 C   0  0  2  0  0  0  0  0  0  0  0  0
  138.6950   79.4060  223.7700 O   0  0  0  0  0  0  0  0  0  0  0  0
  138.7700   77.2640  222.6830 C   0  0  1  0  0  0  0  0  0  0  0  0
  137.4640   77.0390  222.0110 C   0  0  0  0  0  0  0  0  0  0  0  0
  136.4320   76.4710  222.9320 C   0  0  0  0  0  0  0  0  0  0  0  0
  135.4810   77.2530  223.5540 C   0  0  0  0  0  0  0  0  0  0  0  0
  134.5260   76.7350  224.4040 C   0  0  0  0  0  0  0  0  0  0  0  0
  134.5490   75.3720  224.6220 C   0  0  0  0  0  0  0  0  0  0  0  0
  135.4610   74.5400  224.0410 C   0  0  0  0  0  0  0  0  0  0  0  0
  135.5130   73.0980  224.2490 C   0  0  0  0  0  0  0  0  0  0  0  0
  134.6720   72.4320  225.1180 C   0  0  0  0  0  0  0  0  0  0  0  0
  134.7230   71.0940  225.3080 N   0  0  0  0  0  0  0  0  0  0  0  0
  135.6160   70.3500  224.6430 C   0  0  0  0  0  0  0  0  0  0  0  0
  136.4700   70.9830  223.7680 C   0  0  0  0  0  0  0  0  0  0  0  0
  136.4090   72.3140  223.5870 N   0  0  0  0  0  0  0  0  0  0  0  0
  136.3960   75.1040  223.1970 C   0  0  0  0  0  0  0  0  0  0  0  0
  140.1170   71.5500  223.6510 C   0  0  0  0  0  0  0  0  0  0  0  0
  139.5820   70.2860  223.5000 C   0  0  0  0  0  0  0  0  0  0  0  0
  139.5210   69.3630  224.5200 C   0  0  0  0  0  0  0  0  0  0  0  0
  140.0290   69.7520  225.7460 C   0  0  0  0  0  0  0  0  0  0  0  0
  139.9850   68.8500  226.7940 C   0  0  0  0  0  0  0  0  0  0  0  0
  140.4810   69.1990  228.0320 C   0  0  0  0  0  0  0  0  0  0  0  0
  140.4280   68.3030  229.0460 F   0  0  0  0  0  0  0  0  0  0  0  0
  141.0150   70.4680  228.1750 C   0  0  0  0  0  0  0  0  0  0  0  0
  141.0580   71.3670  227.1270 C   0  0  0  0  0  0  0  0  0  0  0  0
  140.5580   71.0210  225.8700 C   0  0  0  0  0  0  0  0  0  0  0  0
  140.6040   71.9030  224.8550 N   0  0  0  0  0  0  0  0  0  0  0  0
  138.2240   73.3010  222.9830 H   0  0  0  0  0  0  0  0  0  0  0  0
  139.2821   73.7316  220.2540 H   0  0  0  0  0  0  0  0  0  0  0  0
  138.0239   74.7280  221.0762 H   0  0  0  0  0  0  0  0  0  0  0  0
  141.3533   76.7838  223.6847 H   0  0  0  0  0  0  0  0  0  0  0  0
  141.9283   77.0642  222.0294 H   0  0  0  0  0  0  0  0  0  0  0  0
  140.9860   79.0065  223.8260 H   0  0  0  0  0  0  0  0  0  0  0  0
  141.2119   79.2378  222.0761 H   0  0  0  0  0  0  0  0  0  0  0  0
  138.8488   79.2381  221.7584 H   0  0  0  0  0  0  0  0  0  0  0  0
  137.7150   79.5410  223.7270 H   0  0  0  0  0  0  0  0  0  0  0  0
  138.5560   76.9237  223.7069 H   0  0  0  0  0  0  0  0  0  0  0  0
  137.0978   78.0007  221.6223 H   0  0  0  0  0  0  0  0  0  0  0  0
  137.6267   76.3097  221.2038 H   0  0  0  0  0  0  0  0  0  0  0  0
  135.4843   78.3365  223.3640 H   0  0  0  0  0  0  0  0  0  0  0  0
  133.7780   77.3805  224.8875 H   0  0  0  0  0  0  0  0  0  0  0  0
  133.7966   74.9362  225.2958 H   0  0  0  0  0  0  0  0  0  0  0  0
  133.9279   73.0151  225.6804 H   0  0  0  0  0  0  0  0  0  0  0  0
  135.6660   69.2613  224.7920 H   0  0  0  0  0  0  0  0  0  0  0  0
  137.2115   70.3925  223.2100 H   0  0  0  0  0  0  0  0  0  0  0  0
  137.1392   74.4508  222.7165 H   0  0  0  0  0  0  0  0  0  0  0  0
  139.1842   70.0019  222.5146 H   0  0  0  0  0  0  0  0  0  0  0  0
  139.0885   68.3632  224.3669 H   0  0  0  0  0  0  0  0  0  0  0  0
  139.5526   67.8505  226.6389 H   0  0  0  0  0  0  0  0  0  0  0  0
  141.4175   70.7699  229.1532 H   0  0  0  0  0  0  0  0  0  0  0  0
  141.4907   72.3660  227.2844 H   0  0  0  0  0  0  0  0  0  0  0  0
  1  2  2  0
  2  3  1  0
  3  4  1  0
  4  5  1  0
  5  6  2  0
  5  7  1  0
  7  8  1  0
  8  9  1  0
  9 10  1  0
 10 11  1  0
 10 12  1  0
 12 13  1  0
 13 14  1  0
 14 15  2  0
 15 16  1  0
 16 17  2  0
 17 18  1  0
 18 19  1  0
 19 20  2  0
 20 21  1  0
 21 22  2  0
 22 23  1  0
 23 24  2  0
 18 25  2  0
  2 26  1  0
 26 27  2  0
 27 28  1  0
 28 29  2  0
 29 30  1  0
 30 31  2  0
 31 32  1  0
 31 33  1  0
 33 34  2  0
 34 35  1  0
 35 36  2  0
 12  7  1  0
 25 14  1  0
 36 26  1  0
 24 19  1  0
 35 29  1  0
  3 37  1  0
  4 38  1  0
  4 39  1  0
  8 40  1  0
  8 41  1  0
  9 42  1  0
  9 43  1  0
 10 44  1  6
 11 45  1  0
 12 46  1  1
 13 47  1  0
 13 48  1  0
 15 49  1  0
 16 50  1  0
 17 51  1  0
 20 52  1  0
 22 53  1  0
 23 54  1  0
 25 55  1  0
 27 56  1  0
 28 57  1  0
 30 58  1  0
 33 59  1  0
 34 60  1  0
M  END
>  <smiles>  (1) 
O=C(NCC(=O)N1CC[C@H](O)[C@H]1Cc1cccc(-c2cnccn2)c1)c1ccc2cc(F)ccc2n1

>  <score_type>  (1) 
oracle

>  <origin>  (1) 
autodockgpu

>  <m_score__min__energy>  (1) 
-10.08

>  <m_primary>  (1) 
energy

>  <rmsd>  (1) 
3.816011820381543

>  <m_score__min__rmsd>  (1) 
3.816011820381543

>  <meeko>  (1) 
{"free_energy": -7.89, "intermolecular_energy": -10.28, "internal_energy": -3.02, "cluster_size": 5, "cluster_id": 7, "rank_in_cluster": 5}

>  <energy>  (1) 
-10.08

>  <cluster_rmsd>  (1) 
0.0

>  <cluster>  (1) 
1

$$$$

     RDKit          3D

 60 64  0  0  0  0  0  0  0  0999 V2000
  140.4200   71.3810  221.1740 O   0  0  0  0  0  0  0  0  0  0  0  0
  140.0990   71.9590  222.2480 C   0  0  0  0  0  0  0  0  0  0  0  0
  139.8090   73.3520  222.3240 N   0  0  0  0  0  0  0  0  0  0  0  0
  139.8860   74.1660  221.0890 C   0  0  0  0  0  0  0  0  0  0  0  0
  141.2660   74.5770  220.8350 C   0  0  0  0  0  0  0  0  0  0  0  0
  142.1790   73.7560  221.2080 O   0  0  0  0  0  0  0  0  0  0  0  0
  141.7210   75.7590  220.2300 N   0  0  0  0  0  0  0  0  0  0  0  0
  142.3130   75.7320  218.8730 C   0  0  0  0  0  0  0  0  0  0  0  0
  142.0160   77.0560  218.2550 C   0  0  0  0  0  0  0  0  0  0  0  0
  141.5010   77.9560  219.3570 C   0  0  2  0  0  0  0  0  0  0  0  0
  142.2740   79.1170  219.3370 O   0  0  0  0  0  0  0  0  0  0  0  0
  141.7660   77.1410  220.6080 C   0  0  1  0  0  0  0  0  0  0  0  0
  140.8940   77.5320  221.7440 C   0  0  0  0  0  0  0  0  0  0  0  0
  141.2790   78.8480  222.3410 C   0  0  0  0  0  0  0  0  0  0  0  0
  142.2050   78.9590  223.3570 C   0  0  0  0  0  0  0  0  0  0  0  0
  142.5660   80.1690  223.9120 C   0  0  0  0  0  0  0  0  0  0  0  0
  141.9550   81.3000  223.4080 C   0  0  0  0  0  0  0  0  0  0  0  0
  141.0310   81.2640  222.4040 C   0  0  0  0  0  0  0  0  0  0  0  0
  140.3690   82.4380  221.8490 C   0  0  0  0  0  0  0  0  0  0  0  0
  141.0440   83.4350  221.1760 C   0  0  0  0  0  0  0  0  0  0  0  0
  140.4260   84.5220  220.6620 N   0  0  0  0  0  0  0  0  0  0  0  0
  139.1020   84.6730  220.7930 C   0  0  0  0  0  0  0  0  0  0  0  0
  138.3970   83.6950  221.4600 C   0  0  0  0  0  0  0  0  0  0  0  0
  139.0230   82.6180  221.9660 N   0  0  0  0  0  0  0  0  0  0  0  0
  140.7030   80.0290  221.8800 C   0  0  0  0  0  0  0  0  0  0  0  0
  140.0160   71.1670  223.4940 C   0  0  0  0  0  0  0  0  0  0  0  0
  139.4800   69.8940  223.4630 C   0  0  0  0  0  0  0  0  0  0  0  0
  139.3660   69.0930  224.5780 C   0  0  0  0  0  0  0  0  0  0  0  0
  139.8200   69.6200  225.7740 C   0  0  0  0  0  0  0  0  0  0  0  0
  139.7220   68.8430  226.9150 C   0  0  0  0  0  0  0  0  0  0  0  0
  140.1630   69.3310  228.1270 C   0  0  0  0  0  0  0  0  0  0  0  0
  140.0580   68.5550  229.2320 F   0  0  0  0  0  0  0  0  0  0  0  0
  140.6980   70.6070  228.1490 C   0  0  0  0  0  0  0  0  0  0  0  0
  140.7950   71.3810  227.0080 C   0  0  0  0  0  0  0  0  0  0  0  0
  140.3510   70.8940  225.7770 C   0  0  0  0  0  0  0  0  0  0  0  0
  140.4490   71.6540  224.6720 N   0  0  0  0  0  0  0  0  0  0  0  0
  139.5490   73.7770  223.2370 H   0  0  0  0  0  0  0  0  0  0  0  0
  139.5230   73.5699  220.2388 H   0  0  0  0  0  0  0  0  0  0  0  0
  139.2633   75.0641  221.2141 H   0  0  0  0  0  0  0  0  0  0  0  0
  143.4003   75.5773  218.9358 H   0  0  0  0  0  0  0  0  0  0  0  0
  141.8950   74.9103  218.2730 H   0  0  0  0  0  0  0  0  0  0  0  0
  142.9308   77.4816  217.8169 H   0  0  0  0  0  0  0  0  0  0  0  0
  141.2711   76.9549  217.4519 H   0  0  0  0  0  0  0  0  0  0  0  0
  140.4448   78.2523  219.2756 H   0  0  0  0  0  0  0  0  0  0  0  0
  143.2460   78.9320  219.3310 H   0  0  0  0  0  0  0  0  0  0  0  0
  142.7666   77.3468  221.0159 H   0  0  0  0  0  0  0  0  0  0  0  0
  139.8565   77.5987  221.3845 H   0  0  0  0  0  0  0  0  0  0  0  0
  141.0050   76.7670  222.5266 H   0  0  0  0  0  0  0  0  0  0  0  0
  142.6763   78.0425  223.7415 H   0  0  0  0  0  0  0  0  0  0  0  0
  143.3086   80.2303  224.7212 H   0  0  0  0  0  0  0  0  0  0  0  0
  142.2258   82.2765  223.8360 H   0  0  0  0  0  0  0  0  0  0  0  0
  142.1330   83.3415  221.0520 H   0  0  0  0  0  0  0  0  0  0  0  0
  138.5907   85.5546  220.3790 H   0  0  0  0  0  0  0  0  0  0  0  0
  137.3083   83.7966  221.5801 H   0  0  0  0  0  0  0  0  0  0  0  0
  139.9606   79.9764  221.0700 H   0  0  0  0  0  0  0  0  0  0  0  0
  139.1262   69.4999  222.4989 H   0  0  0  0  0  0  0  0  0  0  0  0
  138.9346   68.0828  224.5202 H   0  0  0  0  0  0  0  0  0  0  0  0
  139.2909   67.8328  226.8549 H   0  0  0  0  0  0  0  0  0  0  0  0
  141.0572   71.0180  229.1040 H   0  0  0  0  0  0  0  0  0  0  0  0
  141.2264   72.3910  227.0703 H   0  0  0  0  0  0  0  0  0  0  0  0
  1  2  2  0
  2  3  1  0
  3  4  1  0
  4  5  1  0
  5  6  2  0
  5  7  1  0
  7  8  1  0
  8  9  1  0
  9 10  1  0
 10 11  1  0
 10 12  1  0
 12 13  1  0
 13 14  1  0
 14 15  2  0
 15 16  1  0
 16 17  2  0
 17 18  1  0
 18 19  1  0
 19 20  2  0
 20 21  1  0
 21 22  2  0
 22 23  1  0
 23 24  2  0
 18 25  2  0
  2 26  1  0
 26 27  2  0
 27 28  1  0
 28 29  2  0
 29 30  1  0
 30 31  2  0
 31 32  1  0
 31 33  1  0
 33 34  2  0
 34 35  1  0
 35 36  2  0
 12  7  1  0
 25 14  1  0
 36 26  1  0
 24 19  1  0
 35 29  1  0
  3 37  1  0
  4 38  1  0
  4 39  1  0
  8 40  1  0
  8 41  1  0
  9 42  1  0
  9 43  1  0
 10 44  1  6
 11 45  1  0
 12 46  1  1
 13 47  1  0
 13 48  1  0
 15 49  1  0
 16 50  1  0
 17 51  1  0
 20 52  1  0
 22 53  1  0
 23 54  1  0
 25 55  1  0
 27 56  1  0
 28 57  1  0
 30 58  1  0
 33 59  1  0
 34 60  1  0
M  END
>  <smiles>  (2) 
O=C(NCC(=O)N1CC[C@H](O)[C@H]1Cc1cccc(-c2cnccn2)c1)c1ccc2cc(F)ccc2n1

>  <score_type>  (2) 
oracle

>  <origin>  (2) 
autodockgpu

>  <m_score__min__energy>  (2) 
-10.08

>  <m_primary>  (2) 
energy

>  <rmsd>  (2) 
2.311601850420799

>  <m_score__min__rmsd>  (2) 
2.311601850420799

>  <meeko>  (2) 
{"free_energy": -9.29, "intermolecular_energy": -11.68, "internal_energy": -1.63, "cluster_size": 16, "cluster_id": 1, "rank_in_cluster": 5}

>  <energy>  (2) 
-9.62

>  <cluster_rmsd>  (2) 
0.99

>  <cluster>  (2) 
1

$$$$

     RDKit          3D

 60 64  0  0  0  0  0  0  0  0999 V2000
  139.7150   73.7080  222.6950 O   0  0  0  0  0  0  0  0  0  0  0  0
  140.2520   72.5750  222.5570 C   0  0  0  0  0  0  0  0  0  0  0  0
  140.9270   72.1750  221.3670 N   0  0  0  0  0  0  0  0  0  0  0  0
  141.0060   73.1270  220.2360 C   0  0  0  0  0  0  0  0  0  0  0  0
  142.2290   73.9230  220.3250 C   0  0  0  0  0  0  0  0  0  0  0  0
  143.2630   73.3220  220.7900 O   0  0  0  0  0  0  0  0  0  0  0  0
  142.4170   75.2660  219.9630 N   0  0  0  0  0  0  0  0  0  0  0  0
  143.2510   75.6220  218.7920 C   0  0  0  0  0  0  0  0  0  0  0  0
  142.6980   76.8960  218.2500 C   0  0  0  0  0  0  0  0  0  0  0  0
  141.7240   77.4310  219.2770 C   0  0  2  0  0  0  0  0  0  0  0  0
  142.0970   78.7460  219.5540 O   0  0  0  0  0  0  0  0  0  0  0  0
  141.9650   76.5280  220.4700 C   0  0  1  0  0  0  0  0  0  0  0  0
  140.8040   76.4760  221.3950 C   0  0  0  0  0  0  0  0  0  0  0  0
  140.7020   77.6920  222.2610 C   0  0  0  0  0  0  0  0  0  0  0  0
  141.8120   78.3670  222.7260 C   0  0  0  0  0  0  0  0  0  0  0  0
  141.7250   79.4890  223.5240 C   0  0  0  0  0  0  0  0  0  0  0  0
  140.4600   79.9300  223.8550 C   0  0  0  0  0  0  0  0  0  0  0  0
  139.3200   79.3120  223.4300 C   0  0  0  0  0  0  0  0  0  0  0  0
  137.9700   79.7520  223.7600 C   0  0  0  0  0  0  0  0  0  0  0  0
  137.7080   80.7770  224.6450 C   0  0  0  0  0  0  0  0  0  0  0  0
  136.4540   81.1830  224.9480 N   0  0  0  0  0  0  0  0  0  0  0  0
  135.3950   80.5870  224.3850 C   0  0  0  0  0  0  0  0  0  0  0  0
  135.6220   79.5600  223.4970 C   0  0  0  0  0  0  0  0  0  0  0  0
  136.8740   79.1660  223.2020 N   0  0  0  0  0  0  0  0  0  0  0  0
  139.4570   78.1940  222.6320 C   0  0  0  0  0  0  0  0  0  0  0  0
  140.1860   71.6070  223.6720 C   0  0  0  0  0  0  0  0  0  0  0  0
  139.6120   70.3660  223.4710 C   0  0  0  0  0  0  0  0  0  0  0  0
  139.5120   69.4090  224.4560 C   0  0  0  0  0  0  0  0  0  0  0  0
  140.0200   69.7390  225.7000 C   0  0  0  0  0  0  0  0  0  0  0  0
  139.9370   68.8010  226.7150 C   0  0  0  0  0  0  0  0  0  0  0  0
  140.4320   69.0890  227.9690 C   0  0  0  0  0  0  0  0  0  0  0  0
  140.3400   68.1590  228.9490 F   0  0  0  0  0  0  0  0  0  0  0  0
  141.0050   70.3350  228.1620 C   0  0  0  0  0  0  0  0  0  0  0  0
  141.0860   71.2690  227.1480 C   0  0  0  0  0  0  0  0  0  0  0  0
  140.5880   70.9850  225.8750 C   0  0  0  0  0  0  0  0  0  0  0  0
  140.6720   71.9000  224.8930 N   0  0  0  0  0  0  0  0  0  0  0  0
  141.3520   71.2270  221.3080 H   0  0  0  0  0  0  0  0  0  0  0  0
  141.0064   72.5664  219.2896 H   0  0  0  0  0  0  0  0  0  0  0  0
  140.1376   73.8011  220.2754 H   0  0  0  0  0  0  0  0  0  0  0  0
  144.2977   75.7625  219.0996 H   0  0  0  0  0  0  0  0  0  0  0  0
  143.2322   74.8256  218.0334 H   0  0  0  0  0  0  0  0  0  0  0  0
  143.5096   77.6203  218.0865 H   0  0  0  0  0  0  0  0  0  0  0  0
  142.1963   76.7261  217.2859 H   0  0  0  0  0  0  0  0  0  0  0  0
  140.6667   77.4374  218.9736 H   0  0  0  0  0  0  0  0  0  0  0  0
  143.0710   78.8470  219.6990 H   0  0  0  0  0  0  0  0  0  0  0  0
  142.7531   76.9310  221.1231 H   0  0  0  0  0  0  0  0  0  0  0  0
  139.8831   76.3895  220.7997 H   0  0  0  0  0  0  0  0  0  0  0  0
  140.9437   75.6077  222.0558 H   0  0  0  0  0  0  0  0  0  0  0  0
  142.8091   77.9945  222.4485 H   0  0  0  0  0  0  0  0  0  0  0  0
  142.6256   80.0099  223.8812 H   0  0  0  0  0  0  0  0  0  0  0  0
  140.3661   80.8221  224.4917 H   0  0  0  0  0  0  0  0  0  0  0  0
  138.5562   81.2866  225.1255 H   0  0  0  0  0  0  0  0  0  0  0  0
  134.3713   80.9095  224.6257 H   0  0  0  0  0  0  0  0  0  0  0  0
  134.7681   79.0546  223.0222 H   0  0  0  0  0  0  0  0  0  0  0  0
  138.5509   77.6815  222.2766 H   0  0  0  0  0  0  0  0  0  0  0  0
  139.2145   70.1306  222.4727 H   0  0  0  0  0  0  0  0  0  0  0  0
  139.0505   68.4293  224.2632 H   0  0  0  0  0  0  0  0  0  0  0  0
  139.4743   67.8223  226.5201 H   0  0  0  0  0  0  0  0  0  0  0  0
  141.4080   70.5885  229.1536 H   0  0  0  0  0  0  0  0  0  0  0  0
  141.5480   72.2475  227.3455 H   0  0  0  0  0  0  0  0  0  0  0  0
  1  2  2  0
  2  3  1  0
  3  4  1  0
  4  5  1  0
  5  6  2  0
  5  7  1  0
  7  8  1  0
  8  9  1  0
  9 10  1  0
 10 11  1  0
 10 12  1  0
 12 13  1  0
 13 14  1  0
 14 15  2  0
 15 16  1  0
 16 17  2  0
 17 18  1  0
 18 19  1  0
 19 20  2  0
 20 21  1  0
 21 22  2  0
 22 23  1  0
 23 24  2  0
 18 25  2  0
  2 26  1  0
 26 27  2  0
 27 28  1  0
 28 29  2  0
 29 30  1  0
 30 31  2  0
 31 32  1  0
 31 33  1  0
 33 34  2  0
 34 35  1  0
 35 36  2  0
 12  7  1  0
 25 14  1  0
 36 26  1  0
 24 19  1  0
 35 29  1  0
  3 37  1  0
  4 38  1  0
  4 39  1  0
  8 40  1  0
  8 41  1  0
  9 42  1  0
  9 43  1  0
 10 44  1  6
 11 45  1  0
 12 46  1  1
 13 47  1  0
 13 48  1  0
 15 49  1  0
 16 50  1  0
 17 51  1  0
 20 52  1  0
 22 53  1  0
 23 54  1  0
 25 55  1  0
 27 56  1  0
 28 57  1  0
 30 58  1  0
 33 59  1  0
 34 60  1  0
M  END
>  <smiles>  (3) 
O=C(NCC(=O)N1CC[C@H](O)[C@H]1Cc1cccc(-c2cnccn2)c1)c1ccc2cc(F)ccc2n1

>  <score_type>  (3) 
oracle

>  <origin>  (3) 
autodockgpu

>  <m_score__min__energy>  (3) 
-10.08

>  <m_primary>  (3) 
energy

>  <rmsd>  (3) 
2.7722950804031363

>  <m_score__min__rmsd>  (3) 
2.7722950804031363

>  <meeko>  (3) 
{"free_energy": -9.18, "intermolecular_energy": -11.57, "internal_energy": -1.74, "cluster_size": 16, "cluster_id": 1, "rank_in_cluster": 8}

>  <energy>  (3) 
-9.49

>  <cluster_rmsd>  (3) 
1.07

>  <cluster>  (3) 
1

$$$$

     RDKit          3D

 60 64  0  0  0  0  0  0  0  0999 V2000
  141.1340   71.9150  221.2120 O   0  0  0  0  0  0  0  0  0  0  0  0
  140.3140   72.2670  222.1030 C   0  0  0  0  0  0  0  0  0  0  0  0
  139.4810   73.4170  221.9820 N   0  0  0  0  0  0  0  0  0  0  0  0
  139.5780   74.2430  220.7570 C   0  0  0  0  0  0  0  0  0  0  0  0
  140.6720   75.2050  220.8750 C   0  0  0  0  0  0  0  0  0  0  0  0
  141.3240   75.1880  221.9800 O   0  0  0  0  0  0  0  0  0  0  0  0
  141.1030   76.1480  219.9290 N   0  0  0  0  0  0  0  0  0  0  0  0
  141.0910   77.5950  220.2470 C   0  0  0  0  0  0  0  0  0  0  0  0
  142.1950   78.2100  219.4570 C   0  0  0  0  0  0  0  0  0  0  0  0
  142.6640   77.1720  218.4620 C   0  0  2  0  0  0  0  0  0  0  0  0
  142.6250   77.7630  217.2000 O   0  0  0  0  0  0  0  0  0  0  0  0
  141.6140   76.0850  218.5920 C   0  0  1  0  0  0  0  0  0  0  0  0
  142.1060   74.7560  218.1480 C   0  0  0  0  0  0  0  0  0  0  0  0
  143.1710   74.2060  219.0430 C   0  0  0  0  0  0  0  0  0  0  0  0
  143.8620   74.9910  219.9430 C   0  0  0  0  0  0  0  0  0  0  0  0
  144.8450   74.4910  220.7720 C   0  0  0  0  0  0  0  0  0  0  0  0
  145.1270   73.1440  220.6720 C   0  0  0  0  0  0  0  0  0  0  0  0
  144.4840   72.3090  219.8040 C   0  0  0  0  0  0  0  0  0  0  0  0
  144.7570   70.8830  219.6740 C   0  0  0  0  0  0  0  0  0  0  0  0
  145.9990   70.3820  219.3430 C   0  0  0  0  0  0  0  0  0  0  0  0
  146.2490   69.0590  219.2230 N   0  0  0  0  0  0  0  0  0  0  0  0
  145.2720   68.1650  219.4270 C   0  0  0  0  0  0  0  0  0  0  0  0
  144.0200   68.6320  219.7590 C   0  0  0  0  0  0  0  0  0  0  0  0
  143.7840   69.9510  219.8760 N   0  0  0  0  0  0  0  0  0  0  0  0
  143.5070   72.8560  218.9960 C   0  0  0  0  0  0  0  0  0  0  0  0
  140.1990   71.4580  223.3360 C   0  0  0  0  0  0  0  0  0  0  0  0
  139.5780   70.2250  223.2920 C   0  0  0  0  0  0  0  0  0  0  0  0
  139.4310   69.4120  224.3940 C   0  0  0  0  0  0  0  0  0  0  0  0
  139.9410   69.8830  225.5900 C   0  0  0  0  0  0  0  0  0  0  0  0
  139.8120   69.0920  226.7190 C   0  0  0  0  0  0  0  0  0  0  0  0
  140.3070   69.5250  227.9300 C   0  0  0  0  0  0  0  0  0  0  0  0
  140.1690   68.7370  229.0230 F   0  0  0  0  0  0  0  0  0  0  0  0
  140.9280   70.7620  227.9650 C   0  0  0  0  0  0  0  0  0  0  0  0
  141.0560   71.5490  226.8380 C   0  0  0  0  0  0  0  0  0  0  0  0
  140.5570   71.1180  225.6070 C   0  0  0  0  0  0  0  0  0  0  0  0
  140.6860   71.8910  224.5140 N   0  0  0  0  0  0  0  0  0  0  0  0
  138.8220   73.6610  222.7490 H   0  0  0  0  0  0  0  0  0  0  0  0
  139.7629   73.5885  219.8925 H   0  0  0  0  0  0  0  0  0  0  0  0
  138.6342   74.7916  220.6215 H   0  0  0  0  0  0  0  0  0  0  0  0
  140.1260   78.0391  219.9613 H   0  0  0  0  0  0  0  0  0  0  0  0
  141.2288   77.7670  221.3247 H   0  0  0  0  0  0  0  0  0  0  0  0
  141.8282   79.1015  218.9272 H   0  0  0  0  0  0  0  0  0  0  0  0
  143.0198   78.5214  220.1148 H   0  0  0  0  0  0  0  0  0  0  0  0
  143.6807   76.7835  218.6216 H   0  0  0  0  0  0  0  0  0  0  0  0
  143.3050   78.4740  217.0870 H   0  0  0  0  0  0  0  0  0  0  0  0
  140.7746   76.2541  217.9015 H   0  0  0  0  0  0  0  0  0  0  0  0
  141.2595   74.0536  218.1355 H   0  0  0  0  0  0  0  0  0  0  0  0
  142.5452   74.8817  217.1474 H   0  0  0  0  0  0  0  0  0  0  0  0
  143.6186   76.0621  220.0021 H   0  0  0  0  0  0  0  0  0  0  0  0
  145.3808   75.1382  221.4820 H   0  0  0  0  0  0  0  0  0  0  0  0
  145.9073   72.7227  221.3228 H   0  0  0  0  0  0  0  0  0  0  0  0
  146.8223   71.0905  219.1690 H   0  0  0  0  0  0  0  0  0  0  0  0
  145.4651   67.0863  219.3317 H   0  0  0  0  0  0  0  0  0  0  0  0
  143.2020   67.9169  219.9308 H   0  0  0  0  0  0  0  0  0  0  0  0
  142.9751   72.2015  218.2898 H   0  0  0  0  0  0  0  0  0  0  0  0
  139.1807   69.8746  222.3280 H   0  0  0  0  0  0  0  0  0  0  0  0
  138.9315   68.4343  224.3260 H   0  0  0  0  0  0  0  0  0  0  0  0
  139.3126   68.1144  226.6491 H   0  0  0  0  0  0  0  0  0  0  0  0
  141.3318   71.1290  228.9201 H   0  0  0  0  0  0  0  0  0  0  0  0
  141.5564   72.5259  226.9104 H   0  0  0  0  0  0  0  0  0  0  0  0
  1  2  2  0
  2  3  1  0
  3  4  1  0
  4  5  1  0
  5  6  2  0
  5  7  1  0
  7  8  1  0
  8  9  1  0
  9 10  1  0
 10 11  1  0
 10 12  1  0
 12 13  1  0
 13 14  1  0
 14 15  2  0
 15 16  1  0
 16 17  2  0
 17 18  1  0
 18 19  1  0
 19 20  2  0
 20 21  1  0
 21 22  2  0
 22 23  1  0
 23 24  2  0
 18 25  2  0
  2 26  1  0
 26 27  2  0
 27 28  1  0
 28 29  2  0
 29 30  1  0
 30 31  2  0
 31 32  1  0
 31 33  1  0
 33 34  2  0
 34 35  1  0
 35 36  2  0
 12  7  1  0
 25 14  1  0
 36 26  1  0
 24 19  1  0
 35 29  1  0
  3 37  1  0
  4 38  1  0
  4 39  1  0
  8 40  1  0
  8 41  1  0
  9 42  1  0
  9 43  1  0
 10 44  1  1
 11 45  1  0
 12 46  1  6
 13 47  1  0
 13 48  1  0
 15 49  1  0
 16 50  1  0
 17 51  1  0
 20 52  1  0
 22 53  1  0
 23 54  1  0
 25 55  1  0
 27 56  1  0
 28 57  1  0
 30 58  1  0
 33 59  1  0
 34 60  1  0
M  END
>  <smiles>  (4) 
O=C(NCC(=O)N1CC[C@H](O)[C@H]1Cc1cccc(-c2cnccn2)c1)c1ccc2cc(F)ccc2n1

>  <score_type>  (4) 
oracle

>  <origin>  (4) 
autodockgpu

>  <m_score__min__energy>  (4) 
-10.08

>  <m_primary>  (4) 
energy

>  <rmsd>  (4) 
2.193166177491113

>  <m_score__min__rmsd>  (4) 
2.193166177491113

>  <meeko>  (4) 
{"free_energy": -9.24, "intermolecular_energy": -11.62, "internal_energy": -2.04, "cluster_size": 5, "cluster_id": 3, "rank_in_cluster": 3}

>  <energy>  (4) 
-9.49

>  <cluster_rmsd>  (4) 
1.01

>  <cluster>  (4) 
1

$$$$

     RDKit          3D

 60 64  0  0  0  0  0  0  0  0999 V2000
  141.4210   72.4200  221.3460 O   0  0  0  0  0  0  0  0  0  0  0  0
  140.5780   72.6720  222.2500 C   0  0  0  0  0  0  0  0  0  0  0  0
  139.8630   73.9030  222.3250 N   0  0  0  0  0  0  0  0  0  0  0  0
  140.1170   74.9390  221.2980 C   0  0  0  0  0  0  0  0  0  0  0  0
  140.1970   76.2610  221.9160 C   0  0  0  0  0  0  0  0  0  0  0  0
  139.4840   76.4380  222.9680 O   0  0  0  0  0  0  0  0  0  0  0  0
  140.9590   77.3650  221.5040 N   0  0  0  0  0  0  0  0  0  0  0  0
  141.4310   77.4750  220.1050 C   0  0  0  0  0  0  0  0  0  0  0  0
  141.5230   78.9320  219.8020 C   0  0  0  0  0  0  0  0  0  0  0  0
  141.3790   79.6690  221.1150 C   0  0  2  0  0  0  0  0  0  0  0  0
  142.4720   80.5300  221.2280 O   0  0  0  0  0  0  0  0  0  0  0  0
  141.4530   78.5520  222.1370 C   0  0  1  0  0  0  0  0  0  0  0  0
  140.8140   78.9120  223.4290 C   0  0  0  0  0  0  0  0  0  0  0  0
  139.4210   79.4280  223.2590 C   0  0  0  0  0  0  0  0  0  0  0  0
  138.6280   79.0850  222.1820 C   0  0  0  0  0  0  0  0  0  0  0  0
  137.3420   79.5570  222.0190 C   0  0  0  0  0  0  0  0  0  0  0  0
  136.8560   80.4090  222.9900 C   0  0  0  0  0  0  0  0  0  0  0  0
  137.5840   80.7910  224.0800 C   0  0  0  0  0  0  0  0  0  0  0  0
  137.1010   81.6870  225.1230 C   0  0  0  0  0  0  0  0  0  0  0  0
  136.7750   83.0070  224.8890 C   0  0  0  0  0  0  0  0  0  0  0  0
  136.3260   83.8350  225.8590 N   0  0  0  0  0  0  0  0  0  0  0  0
  136.1820   83.3910  227.1140 C   0  0  0  0  0  0  0  0  0  0  0  0
  136.4990   82.0790  227.3820 C   0  0  0  0  0  0  0  0  0  0  0  0
  136.9430   81.2640  226.4080 N   0  0  0  0  0  0  0  0  0  0  0  0
  138.8660   80.2910  224.2010 C   0  0  0  0  0  0  0  0  0  0  0  0
  140.3080   71.6530  223.2870 C   0  0  0  0  0  0  0  0  0  0  0  0
  139.6240   70.5000  222.9540 C   0  0  0  0  0  0  0  0  0  0  0  0
  139.3330   69.5030  223.8590 C   0  0  0  0  0  0  0  0  0  0  0  0
  139.7600   69.6980  225.1600 C   0  0  0  0  0  0  0  0  0  0  0  0
  139.4850   68.7170  226.0970 C   0  0  0  0  0  0  0  0  0  0  0  0
  139.8940   68.8720  227.4050 C   0  0  0  0  0  0  0  0  0  0  0  0
  139.6150   67.9020  228.3070 F   0  0  0  0  0  0  0  0  0  0  0  0
  140.5790   70.0310  227.7300 C   0  0  0  0  0  0  0  0  0  0  0  0
  140.8520   71.0080  226.7930 C   0  0  0  0  0  0  0  0  0  0  0  0
  140.4420   70.8590  225.4670 C   0  0  0  0  0  0  0  0  0  0  0  0
  140.7120   71.8150  224.5610 N   0  0  0  0  0  0  0  0  0  0  0  0
  139.1790   74.0570  223.0930 H   0  0  0  0  0  0  0  0  0  0  0  0
  141.0668   74.7191  220.7886 H   0  0  0  0  0  0  0  0  0  0  0  0
  139.2892   74.9335  220.5736 H   0  0  0  0  0  0  0  0  0  0  0  0
  142.4183   77.0018  219.9988 H   0  0  0  0  0  0  0  0  0  0  0  0
  140.7434   76.9675  219.4124 H   0  0  0  0  0  0  0  0  0  0  0  0
  142.4969   79.1617  219.3452 H   0  0  0  0  0  0  0  0  0  0  0  0
  140.7372   79.2352  219.0945 H   0  0  0  0  0  0  0  0  0  0  0  0
  140.4636   80.2688  221.2265 H   0  0  0  0  0  0  0  0  0  0  0  0
  143.3100   80.0590  221.4630 H   0  0  0  0  0  0  0  0  0  0  0  0
  142.4910   78.3618  222.4474 H   0  0  0  0  0  0  0  0  0  0  0  0
  140.7824   78.0169  224.0676 H   0  0  0  0  0  0  0  0  0  0  0  0
  141.4128   79.7148  223.8839 H   0  0  0  0  0  0  0  0  0  0  0  0
  139.0396   78.4058  221.4208 H   0  0  0  0  0  0  0  0  0  0  0  0
  136.7301   79.2667  221.1522 H   0  0  0  0  0  0  0  0  0  0  0  0
  135.8333   80.7989  222.8804 H   0  0  0  0  0  0  0  0  0  0  0  0
  136.8852   83.4031  223.8687 H   0  0  0  0  0  0  0  0  0  0  0  0
  135.8197   84.0578  227.9103 H   0  0  0  0  0  0  0  0  0  0  0  0
  136.3880   81.6917  228.4056 H   0  0  0  0  0  0  0  0  0  0  0  0
  139.4700   80.5848  225.0722 H   0  0  0  0  0  0  0  0  0  0  0  0
  139.2947   70.3713  221.9124 H   0  0  0  0  0  0  0  0  0  0  0  0
  138.7873   68.5955  223.5613 H   0  0  0  0  0  0  0  0  0  0  0  0
  138.9384   67.8107  225.7974 H   0  0  0  0  0  0  0  0  0  0  0  0
  140.9161   70.1779  228.7667 H   0  0  0  0  0  0  0  0  0  0  0  0
  141.3986   71.9136  227.0949 H   0  0  0  0  0  0  0  0  0  0  0  0
  1  2  2  0
  2  3  1  0
  3  4  1  0
  4  5  1  0
  5  6  2  0
  5  7  1  0
  7  8  1  0
  8  9  1  0
  9 10  1  0
 10 11  1  0
 10 12  1  0
 12 13  1  0
 13 14  1  0
 14 15  2  0
 15 16  1  0
 16 17  2  0
 17 18  1  0
 18 19  1  0
 19 20  2  0
 20 21  1  0
 21 22  2  0
 22 23  1  0
 23 24  2  0
 18 25  2  0
  2 26  1  0
 26 27  2  0
 27 28  1  0
 28 29  2  0
 29 30  1  0
 30 31  2  0
 31 32  1  0
 31 33  1  0
 33 34  2  0
 34 35  1  0
 35 36  2  0
 12  7  1  0
 25 14  1  0
 36 26  1  0
 24 19  1  0
 35 29  1  0
  3 37  1  0
  4 38  1  0
  4 39  1  0
  8 40  1  0
  8 41  1  0
  9 42  1  0
  9 43  1  0
 10 44  1  6
 11 45  1  0
 12 46  1  1
 13 47  1  0
 13 48  1  0
 15 49  1  0
 16 50  1  0
 17 51  1  0
 20 52  1  0
 22 53  1  0
 23 54  1  0
 25 55  1  0
 27 56  1  0
 28 57  1  0
 30 58  1  0
 33 59  1  0
 34 60  1  0
M  END
>  <smiles>  (5) 
O=C(NCC(=O)N1CC[C@H](O)[C@H]1Cc1cccc(-c2cnccn2)c1)c1ccc2cc(F)ccc2n1

>  <score_type>  (5) 
oracle

>  <origin>  (5) 
autodockgpu

>  <m_score__min__energy>  (5) 
-10.08

>  <m_primary>  (5) 
energy

>  <rmsd>  (5) 
3.313146783139162

>  <m_score__min__rmsd>  (5) 
3.313146783139162

>  <meeko>  (5) 
{"free_energy": -9.12, "intermolecular_energy": -11.51, "internal_energy": -1.74, "cluster_size": 16, "cluster_id": 1, "rank_in_cluster": 9}

>  <energy>  (5) 
-9.29

>  <cluster_rmsd>  (5) 
1.69

>  <cluster>  (5) 
1

$$$$

     RDKit          3D

 60 64  0  0  0  0  0  0  0  0999 V2000
  141.2340   72.2440  221.9390 O   0  0  0  0  0  0  0  0  0  0  0  0
  140.2080   72.2560  222.6730 C   0  0  0  0  0  0  0  0  0  0  0  0
  139.1040   73.1290  222.4500 N   0  0  0  0  0  0  0  0  0  0  0  0
  139.1560   74.0680  221.3070 C   0  0  0  0  0  0  0  0  0  0  0  0
  140.0820   75.1640  221.5890 C   0  0  0  0  0  0  0  0  0  0  0  0
  139.7960   75.9010  222.5990 O   0  0  0  0  0  0  0  0  0  0  0  0
  141.2490   75.5120  220.8910 N   0  0  0  0  0  0  0  0  0  0  0  0
  142.1990   74.4680  220.4420 C   0  0  0  0  0  0  0  0  0  0  0  0
  142.8510   74.9920  219.2080 C   0  0  0  0  0  0  0  0  0  0  0  0
  142.4900   76.4570  219.1010 C   0  0  2  0  0  0  0  0  0  0  0  0
  143.6820   77.1670  218.9630 O   0  0  0  0  0  0  0  0  0  0  0  0
  141.8340   76.7390  220.4380 C   0  0  1  0  0  0  0  0  0  0  0  0
  140.9260   77.9140  220.3960 C   0  0  0  0  0  0  0  0  0  0  0  0
  141.0620   78.7920  221.5990 C   0  0  0  0  0  0  0  0  0  0  0  0
  142.2730   79.0180  222.2190 C   0  0  0  0  0  0  0  0  0  0  0  0
  142.4060   79.8260  223.3290 C   0  0  0  0  0  0  0  0  0  0  0  0
  141.2600   80.4200  223.8170 C   0  0  0  0  0  0  0  0  0  0  0  0
  140.0290   80.2410  223.2530 C   0  0  0  0  0  0  0  0  0  0  0  0
  138.8000   80.8530  223.7420 C   0  0  0  0  0  0  0  0  0  0  0  0
  138.0630   81.7540  223.0020 C   0  0  0  0  0  0  0  0  0  0  0  0
  136.9220   82.3200  223.4590 N   0  0  0  0  0  0  0  0  0  0  0  0
  136.4580   82.0170  224.6780 C   0  0  0  0  0  0  0  0  0  0  0  0
  137.1710   81.1210  225.4430 C   0  0  0  0  0  0  0  0  0  0  0  0
  138.3030   80.5650  224.9770 N   0  0  0  0  0  0  0  0  0  0  0  0
  139.9470   79.4240  222.1430 C   0  0  0  0  0  0  0  0  0  0  0  0
  140.1330   71.3270  223.8210 C   0  0  0  0  0  0  0  0  0  0  0  0
  139.5250   70.0960  223.6680 C   0  0  0  0  0  0  0  0  0  0  0  0
  139.4140   69.1750  224.6860 C   0  0  0  0  0  0  0  0  0  0  0  0
  139.9480   69.5310  225.9110 C   0  0  0  0  0  0  0  0  0  0  0  0
  139.8550   68.6300  226.9580 C   0  0  0  0  0  0  0  0  0  0  0  0
  140.3740   68.9470  228.1950 C   0  0  0  0  0  0  0  0  0  0  0  0
  140.2730   68.0520  229.2060 F   0  0  0  0  0  0  0  0  0  0  0  0
  140.9820   70.1820  228.3390 C   0  0  0  0  0  0  0  0  0  0  0  0
  141.0730   71.0800  227.2930 C   0  0  0  0  0  0  0  0  0  0  0  0
  140.5500   70.7670  226.0370 C   0  0  0  0  0  0  0  0  0  0  0  0
  140.6430   71.6470  225.0250 N   0  0  0  0  0  0  0  0  0  0  0  0
  138.2820   73.0960  223.0870 H   0  0  0  0  0  0  0  0  0  0  0  0
  139.4951   73.5288  220.4102 H   0  0  0  0  0  0  0  0  0  0  0  0
  138.1512   74.4838  221.1410 H   0  0  0  0  0  0  0  0  0  0  0  0
  142.9535   74.2806  221.2202 H   0  0  0  0  0  0  0  0  0  0  0  0
  141.6818   73.5172  220.2458 H   0  0  0  0  0  0  0  0  0  0  0  0
  143.9426   74.8768  219.2802 H   0  0  0  0  0  0  0  0  0  0  0  0
  142.5097   74.4392  218.3204 H   0  0  0  0  0  0  0  0  0  0  0  0
  141.8374   76.7269  218.2577 H   0  0  0  0  0  0  0  0  0  0  0  0
  144.0300   77.5070  219.8250 H   0  0  0  0  0  0  0  0  0  0  0  0
  142.5741   77.0562  221.1875 H   0  0  0  0  0  0  0  0  0  0  0  0
  141.1592   78.5070  219.4994 H   0  0  0  0  0  0  0  0  0  0  0  0
  139.8934   77.5353  220.3762 H   0  0  0  0  0  0  0  0  0  0  0  0
  143.1718   78.5329  221.8106 H   0  0  0  0  0  0  0  0  0  0  0  0
  143.3841   79.9899  223.8050 H   0  0  0  0  0  0  0  0  0  0  0  0
  141.3418   81.0682  224.7020 H   0  0  0  0  0  0  0  0  0  0  0  0
  138.4182   82.0242  221.9966 H   0  0  0  0  0  0  0  0  0  0  0  0
  135.5315   82.4719  225.0584 H   0  0  0  0  0  0  0  0  0  0  0  0
  136.8099   80.8569  226.4479 H   0  0  0  0  0  0  0  0  0  0  0  0
  138.9657   79.2668  221.6716 H   0  0  0  0  0  0  0  0  0  0  0  0
  139.1084   69.8383  222.6831 H   0  0  0  0  0  0  0  0  0  0  0  0
  138.9238   68.2024  224.5320 H   0  0  0  0  0  0  0  0  0  0  0  0
  139.3651   67.6575  226.8021 H   0  0  0  0  0  0  0  0  0  0  0  0
  141.4057   70.4570  229.3162 H   0  0  0  0  0  0  0  0  0  0  0  0
  141.5628   72.0521  227.4515 H   0  0  0  0  0  0  0  0  0  0  0  0
  1  2  2  0
  2  3  1  0
  3  4  1  0
  4  5  1  0
  5  6  2  0
  5  7  1  0
  7  8  1  0
  8  9  1  0
  9 10  1  0
 10 11  1  0
 10 12  1  0
 12 13  1  0
 13 14  1  0
 14 15  2  0
 15 16  1  0
 16 17  2  0
 17 18  1  0
 18 19  1  0
 19 20  2  0
 20 21  1  0
 21 22  2  0
 22 23  1  0
 23 24  2  0
 18 25  2  0
  2 26  1  0
 26 27  2  0
 27 28  1  0
 28 29  2  0
 29 30  1  0
 30 31  2  0
 31 32  1  0
 31 33  1  0
 33 34  2  0
 34 35  1  0
 35 36  2  0
 12  7  1  0
 25 14  1  0
 36 26  1  0
 24 19  1  0
 35 29  1  0
  3 37  1  0
  4 38  1  0
  4 39  1  0
  8 40  1  0
  8 41  1  0
  9 42  1  0
  9 43  1  0
 10 44  1  6
 11 45  1  0
 12 46  1  1
 13 47  1  0
 13 48  1  0
 15 49  1  0
 16 50  1  0
 17 51  1  0
 20 52  1  0
 22 53  1  0
 23 54  1  0
 25 55  1  0
 27 56  1  0
 28 57  1  0
 30 58  1  0
 33 59  1  0
 34 60  1  0
M  END
>  <smiles>  (6) 
O=C(NCC(=O)N1CC[C@H](O)[C@H]1Cc1cccc(-c2cnccn2)c1)c1ccc2cc(F)ccc2n1

>  <score_type>  (6) 
oracle

>  <origin>  (6) 
autodockgpu

>  <m_score__min__energy>  (6) 
-10.08

>  <m_primary>  (6) 
energy

>  <rmsd>  (6) 
2.2027477355353815

>  <m_score__min__rmsd>  (6) 
2.2027477355353815

>  <meeko>  (6) 
{"free_energy": -10.08, "intermolecular_energy": -12.47, "internal_energy": -1.68, "cluster_size": 16, "cluster_id": 1, "rank_in_cluster": 1}

>  <energy>  (6) 
-9.25

>  <cluster_rmsd>  (6) 
1.09

>  <cluster>  (6) 
1

$$$$

     RDKit          3D

 60 64  0  0  0  0  0  0  0  0999 V2000
  136.7360   76.3030  220.5650 O   0  0  0  0  0  0  0  0  0  0  0  0
  136.7390   75.7430  221.6950 C   0  0  0  0  0  0  0  0  0  0  0  0
  137.6300   74.6850  222.0360 N   0  0  0  0  0  0  0  0  0  0  0  0
  138.6010   74.2140  221.0210 C   0  0  0  0  0  0  0  0  0  0  0  0
  139.9370   74.1090  221.6050 C   0  0  0  0  0  0  0  0  0  0  0  0
  140.0300   73.4260  222.6870 O   0  0  0  0  0  0  0  0  0  0  0  0
  141.1360   74.6610  221.1280 N   0  0  0  0  0  0  0  0  0  0  0  0
  142.2860   73.7890  220.7900 C   0  0  0  0  0  0  0  0  0  0  0  0
  143.0400   74.4840  219.7080 C   0  0  0  0  0  0  0  0  0  0  0  0
  142.4930   75.8910  219.6170 C   0  0  2  0  0  0  0  0  0  0  0  0
  143.5770   76.7630  219.7140 O   0  0  0  0  0  0  0  0  0  0  0  0
  141.6020   75.9850  220.8410 C   0  0  1  0  0  0  0  0  0  0  0  0
  140.5520   77.0270  220.7080 C   0  0  0  0  0  0  0  0  0  0  0  0
  140.6290   78.0630  221.7830 C   0  0  0  0  0  0  0  0  0  0  0  0
  141.8290   78.5510  222.2600 C   0  0  0  0  0  0  0  0  0  0  0  0
  141.9070   79.5070  223.2510 C   0  0  0  0  0  0  0  0  0  0  0  0
  140.7170   79.9750  223.7700 C   0  0  0  0  0  0  0  0  0  0  0  0
  139.4960   79.5380  223.3460 C   0  0  0  0  0  0  0  0  0  0  0  0
  138.2210   80.0120  223.8720 C   0  0  0  0  0  0  0  0  0  0  0  0
  137.0040   79.6580  223.3270 C   0  0  0  0  0  0  0  0  0  0  0  0
  135.8240   80.1000  223.8180 N   0  0  0  0  0  0  0  0  0  0  0  0
  135.7960   80.9190  224.8770 C   0  0  0  0  0  0  0  0  0  0  0  0
  136.9930   81.2920  225.4440 C   0  0  0  0  0  0  0  0  0  0  0  0
  138.1610   80.8450  224.9480 N   0  0  0  0  0  0  0  0  0  0  0  0
  139.4680   78.5820  222.3510 C   0  0  0  0  0  0  0  0  0  0  0  0
  135.7790   76.1950  222.7250 C   0  0  0  0  0  0  0  0  0  0  0  0
  134.9160   77.2380  222.4480 C   0  0  0  0  0  0  0  0  0  0  0  0
  133.9940   77.7180  223.3510 C   0  0  0  0  0  0  0  0  0  0  0  0
  133.9550   77.1040  224.5900 C   0  0  0  0  0  0  0  0  0  0  0  0
  133.0400   77.5600  225.5230 C   0  0  0  0  0  0  0  0  0  0  0  0
  132.9690   76.9750  226.7690 C   0  0  0  0  0  0  0  0  0  0  0  0
  132.0670   77.4360  227.6680 F   0  0  0  0  0  0  0  0  0  0  0  0
  133.8370   75.9310  227.0390 C   0  0  0  0  0  0  0  0  0  0  0  0
  134.7490   75.4770  226.1060 C   0  0  0  0  0  0  0  0  0  0  0  0
  134.8270   76.0640  224.8410 C   0  0  0  0  0  0  0  0  0  0  0  0
  135.7190   75.6160  223.9390 N   0  0  0  0  0  0  0  0  0  0  0  0
  137.5890   74.2590  222.9840 H   0  0  0  0  0  0  0  0  0  0  0  0
  138.2884   73.2264  220.6510 H   0  0  0  0  0  0  0  0  0  0  0  0
  138.6295   74.9362  220.1918 H   0  0  0  0  0  0  0  0  0  0  0  0
  142.9288   73.6489  221.6716 H   0  0  0  0  0  0  0  0  0  0  0  0
  141.9487   72.7940  220.4641 H   0  0  0  0  0  0  0  0  0  0  0  0
  144.1121   74.5112  219.9528 H   0  0  0  0  0  0  0  0  0  0  0  0
  142.9244   73.9566  218.7496 H   0  0  0  0  0  0  0  0  0  0  0  0
  141.9483   76.1311  218.6920 H   0  0  0  0  0  0  0  0  0  0  0  0
  143.6550   77.1830  220.6070 H   0  0  0  0  0  0  0  0  0  0  0  0
  142.1620   76.3432  221.7174 H   0  0  0  0  0  0  0  0  0  0  0  0
  140.6690   77.5222  219.7328 H   0  0  0  0  0  0  0  0  0  0  0  0
  139.5755   76.5283  220.7960 H   0  0  0  0  0  0  0  0  0  0  0  0
  142.7636   78.1604  221.8310 H   0  0  0  0  0  0  0  0  0  0  0  0
  142.8765   79.8806  223.6124 H   0  0  0  0  0  0  0  0  0  0  0  0
  140.7546   80.7364  224.5630 H   0  0  0  0  0  0  0  0  0  0  0  0
  136.9930   78.9871  222.4553 H   0  0  0  0  0  0  0  0  0  0  0  0
  134.8411   81.2841  225.2831 H   0  0  0  0  0  0  0  0  0  0  0  0
  136.9949   81.9646  226.3144 H   0  0  0  0  0  0  0  0  0  0  0  0
  138.4938   78.2168  221.9937 H   0  0  0  0  0  0  0  0  0  0  0  0
  134.9682   77.7089  221.4553 H   0  0  0  0  0  0  0  0  0  0  0  0
  133.3203   78.5503  223.0991 H   0  0  0  0  0  0  0  0  0  0  0  0
  132.3670   78.3923  225.2692 H   0  0  0  0  0  0  0  0  0  0  0  0
  133.7994   75.4482  228.0267 H   0  0  0  0  0  0  0  0  0  0  0  0
  135.4208   74.6445  226.3620 H   0  0  0  0  0  0  0  0  0  0  0  0
  1  2  2  0
  2  3  1  0
  3  4  1  0
  4  5  1  0
  5  6  2  0
  5  7  1  0
  7  8  1  0
  8  9  1  0
  9 10  1  0
 10 11  1  0
 10 12  1  0
 12 13  1  0
 13 14  1  0
 14 15  2  0
 15 16  1  0
 16 17  2  0
 17 18  1  0
 18 19  1  0
 19 20  2  0
 20 21  1  0
 21 22  2  0
 22 23  1  0
 23 24  2  0
 18 25  2  0
  2 26  1  0
 26 27  2  0
 27 28  1  0
 28 29  2  0
 29 30  1  0
 30 31  2  0
 31 32  1  0
 31 33  1  0
 33 34  2  0
 34 35  1  0
 35 36  2  0
 12  7  1  0
 25 14  1  0
 36 26  1  0
 24 19  1  0
 35 29  1  0
  3 37  1  0
  4 38  1  0
  4 39  1  0
  8 40  1  0
  8 41  1  0
  9 42  1  0
  9 43  1  0
 10 44  1  6
 11 45  1  0
 12 46  1  1
 13 47  1  0
 13 48  1  0
 15 49  1  0
 16 50  1  0
 17 51  1  0
 20 52  1  0
 22 53  1  0
 23 54  1  0
 25 55  1  0
 27 56  1  0
 28 57  1  0
 30 58  1  0
 33 59  1  0
 34 60  1  0
M  END
>  <smiles>  (7) 
O=C(NCC(=O)N1CC[C@H](O)[C@H]1Cc1cccc(-c2cnccn2)c1)c1ccc2cc(F)ccc2n1

>  <score_type>  (7) 
oracle

>  <origin>  (7) 
autodockgpu

>  <m_score__min__energy>  (7) 
-10.08

>  <m_primary>  (7) 
energy

>  <rmsd>  (7) 
6.750191046630063

>  <m_score__min__rmsd>  (7) 
6.750191046630063

>  <meeko>  (7) 
{"free_energy": -7.59, "intermolecular_energy": -9.98, "internal_energy": -3.03, "cluster_size": 6, "cluster_id": 6, "rank_in_cluster": 6}

>  <energy>  (7) 
-9.21

>  <cluster_rmsd>  (7) 
1.2

>  <cluster>  (7) 
1

$$$$

     RDKit          3D

 60 64  0  0  0  0  0  0  0  0999 V2000
  138.4520   72.0990  221.8990 O   0  0  0  0  0  0  0  0  0  0  0  0
  139.5590   72.0140  222.4980 C   0  0  0  0  0  0  0  0  0  0  0  0
  140.7220   72.7280  222.0880 N   0  0  0  0  0  0  0  0  0  0  0  0
  140.6350   73.6130  220.9040 C   0  0  0  0  0  0  0  0  0  0  0  0
  141.9080   74.2980  220.6860 C   0  0  0  0  0  0  0  0  0  0  0  0
  142.9670   73.6090  220.9060 O   0  0  0  0  0  0  0  0  0  0  0  0
  142.1190   75.6200  220.2640 N   0  0  0  0  0  0  0  0  0  0  0  0
  142.7780   75.9020  218.9670 C   0  0  0  0  0  0  0  0  0  0  0  0
  142.2270   77.2000  218.4850 C   0  0  0  0  0  0  0  0  0  0  0  0
  141.4620   77.8140  219.6370 C   0  0  2  0  0  0  0  0  0  0  0  0
  141.9540   79.1060  219.8180 O   0  0  0  0  0  0  0  0  0  0  0  0
  141.8320   76.9170  220.8020 C   0  0  1  0  0  0  0  0  0  0  0  0
  140.8300   76.9570  221.8980 C   0  0  0  0  0  0  0  0  0  0  0  0
  140.7700   78.2890  222.5750 C   0  0  0  0  0  0  0  0  0  0  0  0
  141.8860   79.0780  222.7610 C   0  0  0  0  0  0  0  0  0  0  0  0
  141.8370   80.3080  223.3850 C   0  0  0  0  0  0  0  0  0  0  0  0
  140.6050   80.7390  223.8330 C   0  0  0  0  0  0  0  0  0  0  0  0
  139.4600   80.0100  223.6830 C   0  0  0  0  0  0  0  0  0  0  0  0
  138.1440   80.4360  224.1420 C   0  0  0  0  0  0  0  0  0  0  0  0
  137.9610   81.2970  225.2040 C   0  0  0  0  0  0  0  0  0  0  0  0
  136.7380   81.6910  225.6270 N   0  0  0  0  0  0  0  0  0  0  0  0
  135.6340   81.2440  225.0150 C   0  0  0  0  0  0  0  0  0  0  0  0
  135.7820   80.3820  223.9510 C   0  0  0  0  0  0  0  0  0  0  0  0
  137.0030   79.9990  223.5390 N   0  0  0  0  0  0  0  0  0  0  0  0
  139.5590   78.7860  223.0510 C   0  0  0  0  0  0  0  0  0  0  0  0
  139.6700   71.1360  223.6830 C   0  0  0  0  0  0  0  0  0  0  0  0
  139.1230   69.8670  223.6510 C   0  0  0  0  0  0  0  0  0  0  0  0
  139.1830   68.9900  224.7100 C   0  0  0  0  0  0  0  0  0  0  0  0
  139.8300   69.4310  225.8500 C   0  0  0  0  0  0  0  0  0  0  0  0
  139.9100   68.5750  226.9350 C   0  0  0  0  0  0  0  0  0  0  0  0
  140.5480   68.9760  228.0900 C   0  0  0  0  0  0  0  0  0  0  0  0
  140.6150   68.1240  229.1410 F   0  0  0  0  0  0  0  0  0  0  0  0
  141.0930   70.2480  228.1140 C   0  0  0  0  0  0  0  0  0  0  0  0
  141.0110   71.1010  227.0300 C   0  0  0  0  0  0  0  0  0  0  0  0
  140.3690   70.7020  225.8560 C   0  0  0  0  0  0  0  0  0  0  0  0
  140.2940   71.5380  224.8050 N   0  0  0  0  0  0  0  0  0  0  0  0
  141.6090   72.6200  222.6200 H   0  0  0  0  0  0  0  0  0  0  0  0
  140.3915   73.0094  220.0172 H   0  0  0  0  0  0  0  0  0  0  0  0
  139.8502   74.3642  221.0765 H   0  0  0  0  0  0  0  0  0  0  0  0
  143.8669   75.9785  219.1029 H   0  0  0  0  0  0  0  0  0  0  0  0
  142.5896   75.0965  218.2420 H   0  0  0  0  0  0  0  0  0  0  0  0
  143.0462   77.8669  218.1780 H   0  0  0  0  0  0  0  0  0  0  0  0
  141.5702   77.0478  217.6158 H   0  0  0  0  0  0  0  0  0  0  0  0
  140.3726   77.8840  219.5018 H   0  0  0  0  0  0  0  0  0  0  0  0
  142.7360   79.1390  220.4240 H   0  0  0  0  0  0  0  0  0  0  0  0
  142.7367   77.2777  221.3133 H   0  0  0  0  0  0  0  0  0  0  0  0
  139.8390   76.7307  221.4776 H   0  0  0  0  0  0  0  0  0  0  0  0
  141.1309   76.2140  222.6513 H   0  0  0  0  0  0  0  0  0  0  0  0
  142.8568   78.7111  222.3963 H   0  0  0  0  0  0  0  0  0  0  0  0
  142.7418   80.9190  223.5196 H   0  0  0  0  0  0  0  0  0  0  0  0
  140.5422   81.7159  224.3346 H   0  0  0  0  0  0  0  0  0  0  0  0
  138.8481   81.6799  225.7298 H   0  0  0  0  0  0  0  0  0  0  0  0
  134.6352   81.5570  225.3531 H   0  0  0  0  0  0  0  0  0  0  0  0
  134.8898   80.0021  223.4318 H   0  0  0  0  0  0  0  0  0  0  0  0
  138.6491   78.1821  222.9188 H   0  0  0  0  0  0  0  0  0  0  0  0
  138.6136   69.5414  222.7320 H   0  0  0  0  0  0  0  0  0  0  0  0
  138.7375   67.9859  224.6524 H   0  0  0  0  0  0  0  0  0  0  0  0
  139.4632   67.5716  226.8757 H   0  0  0  0  0  0  0  0  0  0  0  0
  141.6073   70.5905  229.0241 H   0  0  0  0  0  0  0  0  0  0  0  0
  141.4562   72.1049  227.0926 H   0  0  0  0  0  0  0  0  0  0  0  0
  1  2  2  0
  2  3  1  0
  3  4  1  0
  4  5  1  0
  5  6  2  0
  5  7  1  0
  7  8  1  0
  8  9  1  0
  9 10  1  0
 10 11  1  0
 10 12  1  0
 12 13  1  0
 13 14  1  0
 14 15  2  0
 15 16  1  0
 16 17  2  0
 17 18  1  0
 18 19  1  0
 19 20  2  0
 20 21  1  0
 21 22  2  0
 22 23  1  0
 23 24  2  0
 18 25  2  0
  2 26  1  0
 26 27  2  0
 27 28  1  0
 28 29  2  0
 29 30  1  0
 30 31  2  0
 31 32  1  0
 31 33  1  0
 33 34  2  0
 34 35  1  0
 35 36  2  0
 12  7  1  0
 25 14  1  0
 36 26  1  0
 24 19  1  0
 35 29  1  0
  3 37  1  0
  4 38  1  0
  4 39  1  0
  8 40  1  0
  8 41  1  0
  9 42  1  0
  9 43  1  0
 10 44  1  6
 11 45  1  0
 12 46  1  1
 13 47  1  0
 13 48  1  0
 15 49  1  0
 16 50  1  0
 17 51  1  0
 20 52  1  0
 22 53  1  0
 23 54  1  0
 25 55  1  0
 27 56  1  0
 28 57  1  0
 30 58  1  0
 33 59  1  0
 34 60  1  0
M  END
>  <smiles>  (8) 
O=C(NCC(=O)N1CC[C@H](O)[C@H]1Cc1cccc(-c2cnccn2)c1)c1ccc2cc(F)ccc2n1

>  <score_type>  (8) 
oracle

>  <origin>  (8) 
autodockgpu

>  <m_score__min__energy>  (8) 
-10.08

>  <m_primary>  (8) 
energy

>  <rmsd>  (8) 
2.6310304808804035

>  <m_score__min__rmsd>  (8) 
2.6310304808804035

>  <meeko>  (8) 
{"free_energy": -9.01, "intermolecular_energy": -11.39, "internal_energy": -1.88, "cluster_size": 16, "cluster_id": 1, "rank_in_cluster": 10}

>  <energy>  (8) 
-9.18

>  <cluster_rmsd>  (8) 
1.5

>  <cluster>  (8) 
1

$$$$

     RDKit          3D

 60 64  0  0  0  0  0  0  0  0999 V2000
  139.9760   71.5410  220.9820 O   0  0  0  0  0  0  0  0  0  0  0  0
  139.7710   72.1320  222.0780 C   0  0  0  0  0  0  0  0  0  0  0  0
  139.4590   73.5200  222.1650 N   0  0  0  0  0  0  0  0  0  0  0  0
  139.3690   74.3110  220.9160 C   0  0  0  0  0  0  0  0  0  0  0  0
  139.4540   75.7400  221.2110 C   0  0  0  0  0  0  0  0  0  0  0  0
  139.2690   76.0780  222.4350 O   0  0  0  0  0  0  0  0  0  0  0  0
  139.7150   76.7940  220.3220 N   0  0  0  0  0  0  0  0  0  0  0  0
  138.7040   77.2020  219.3190 C   0  0  0  0  0  0  0  0  0  0  0  0
  138.9110   78.6590  219.0780 C   0  0  0  0  0  0  0  0  0  0  0  0
  140.2260   79.0350  219.7250 C   0  0  2  0  0  0  0  0  0  0  0  0
  140.9980   79.6700  218.7530 O   0  0  0  0  0  0  0  0  0  0  0  0
  140.8130   77.6880  220.1000 C   0  0  1  0  0  0  0  0  0  0  0  0
  141.8070   77.7810  221.1990 C   0  0  0  0  0  0  0  0  0  0  0  0
  141.5430   78.9310  222.1190 C   0  0  0  0  0  0  0  0  0  0  0  0
  142.5330   79.8070  222.5140 C   0  0  0  0  0  0  0  0  0  0  0  0
  142.2970   80.8690  223.3620 C   0  0  0  0  0  0  0  0  0  0  0  0
  141.0050   81.0350  223.8190 C   0  0  0  0  0  0  0  0  0  0  0  0
  139.9780   80.2070  223.4700 C   0  0  0  0  0  0  0  0  0  0  0  0
  138.6030   80.3550  223.9330 C   0  0  0  0  0  0  0  0  0  0  0  0
  137.5480   79.6490  223.3940 C   0  0  0  0  0  0  0  0  0  0  0  0
  136.2740   79.7880  223.8270 N   0  0  0  0  0  0  0  0  0  0  0  0
  135.9870   80.6400  224.8190 C   0  0  0  0  0  0  0  0  0  0  0  0
  137.0180   81.3610  225.3790 C   0  0  0  0  0  0  0  0  0  0  0  0
  138.2800   81.2130  224.9410 N   0  0  0  0  0  0  0  0  0  0  0  0
  140.2630   79.1590  222.6180 C   0  0  0  0  0  0  0  0  0  0  0  0
  139.8540   71.3630  223.3380 C   0  0  0  0  0  0  0  0  0  0  0  0
  139.3660   70.0720  223.3870 C   0  0  0  0  0  0  0  0  0  0  0  0
  139.4060   69.2900  224.5200 C   0  0  0  0  0  0  0  0  0  0  0  0
  139.9690   69.8560  225.6490 C   0  0  0  0  0  0  0  0  0  0  0  0
  140.0270   69.0990  226.8070 C   0  0  0  0  0  0  0  0  0  0  0  0
  140.5800   69.6260  227.9540 C   0  0  0  0  0  0  0  0  0  0  0  0
  140.6260   68.8690  229.0770 F   0  0  0  0  0  0  0  0  0  0  0  0
  141.0670   70.9200  227.8970 C   0  0  0  0  0  0  0  0  0  0  0  0
  141.0080   71.6740  226.7400 C   0  0  0  0  0  0  0  0  0  0  0  0
  140.4500   71.1480  225.5740 C   0  0  0  0  0  0  0  0  0  0  0  0
  140.3970   71.8890  224.4520 N   0  0  0  0  0  0  0  0  0  0  0  0
  139.2990   73.9570  223.0950 H   0  0  0  0  0  0  0  0  0  0  0  0
  140.1961   74.0290  220.2479 H   0  0  0  0  0  0  0  0  0  0  0  0
  138.4038   74.1035  220.4308 H   0  0  0  0  0  0  0  0  0  0  0  0
  138.8461   76.6384  218.3851 H   0  0  0  0  0  0  0  0  0  0  0  0
  137.6839   76.9989  219.6770 H   0  0  0  0  0  0  0  0  0  0  0  0
  138.9510   78.8607  217.9974 H   0  0  0  0  0  0  0  0  0  0  0  0
  138.0839   79.2472  219.5022 H   0  0  0  0  0  0  0  0  0  0  0  0
  140.1552   79.7082  220.5920 H   0  0  0  0  0  0  0  0  0  0  0  0
  141.9190   79.3130  218.6990 H   0  0  0  0  0  0  0  0  0  0  0  0
  141.4231   77.2754  219.2830 H   0  0  0  0  0  0  0  0  0  0  0  0
  141.7753   76.8489  221.7823 H   0  0  0  0  0  0  0  0  0  0  0  0
  142.7947   77.9406  220.7418 H   0  0  0  0  0  0  0  0  0  0  0  0
  143.5545   79.6518  222.1365 H   0  0  0  0  0  0  0  0  0  0  0  0
  143.1037   81.5543  223.6613 H   0  0  0  0  0  0  0  0  0  0  0  0
  140.7932   81.8750  224.4970 H   0  0  0  0  0  0  0  0  0  0  0  0
  137.7514   78.9420  222.5762 H   0  0  0  0  0  0  0  0  0  0  0  0
  134.9541   80.7610  225.1776 H   0  0  0  0  0  0  0  0  0  0  0  0
  136.8059   82.0672  226.1953 H   0  0  0  0  0  0  0  0  0  0  0  0
  139.4499   78.4796  222.3226 H   0  0  0  0  0  0  0  0  0  0  0  0
  138.9227   69.6466  222.4746 H   0  0  0  0  0  0  0  0  0  0  0  0
  139.0090   68.2641  224.5265 H   0  0  0  0  0  0  0  0  0  0  0  0
  139.6301   68.0731  226.8114 H   0  0  0  0  0  0  0  0  0  0  0  0
  141.5145   71.3618  228.7995 H   0  0  0  0  0  0  0  0  0  0  0  0
  141.4052   72.6998  226.7383 H   0  0  0  0  0  0  0  0  0  0  0  0
  1  2  2  0
  2  3  1  0
  3  4  1  0
  4  5  1  0
  5  6  2  0
  5  7  1  0
  7  8  1  0
  8  9  1  0
  9 10  1  0
 10 11  1  0
 10 12  1  0
 12 13  1  0
 13 14  1  0
 14 15  2  0
 15 16  1  0
 16 17  2  0
 17 18  1  0
 18 19  1  0
 19 20  2  0
 20 21  1  0
 21 22  2  0
 22 23  1  0
 23 24  2  0
 18 25  2  0
  2 26  1  0
 26 27  2  0
 27 28  1  0
 28 29  2  0
 29 30  1  0
 30 31  2  0
 31 32  1  0
 31 33  1  0
 33 34  2  0
 34 35  1  0
 35 36  2  0
 12  7  1  0
 25 14  1  0
 36 26  1  0
 24 19  1  0
 35 29  1  0
  3 37  1  0
  4 38  1  0
  4 39  1  0
  8 40  1  0
  8 41  1  0
  9 42  1  0
  9 43  1  0
 10 44  1  1
 11 45  1  0
 12 46  1  6
 13 47  1  0
 13 48  1  0
 15 49  1  0
 16 50  1  0
 17 51  1  0
 20 52  1  0
 22 53  1  0
 23 54  1  0
 25 55  1  0
 27 56  1  0
 28 57  1  0
 30 58  1  0
 33 59  1  0
 34 60  1  0
M  END
>  <smiles>  (9) 
O=C(NCC(=O)N1CC[C@H](O)[C@H]1Cc1cccc(-c2cnccn2)c1)c1ccc2cc(F)ccc2n1

>  <score_type>  (9) 
oracle

>  <origin>  (9) 
autodockgpu

>  <m_score__min__energy>  (9) 
-10.08

>  <m_primary>  (9) 
energy

>  <rmsd>  (9) 
2.1558537254064225

>  <m_score__min__rmsd>  (9) 
2.1558537254064225

>  <meeko>  (9) 
{"free_energy": -8.66, "intermolecular_energy": -11.05, "internal_energy": -2.32, "cluster_size": 16, "cluster_id": 1, "rank_in_cluster": 14}

>  <energy>  (9) 
-9.12

>  <cluster_rmsd>  (9) 
1.66

>  <cluster>  (9) 
1

$$$$

     RDKit          3D

 60 64  0  0  0  0  0  0  0  0999 V2000
  138.2630   72.2890  222.4150 O   0  0  0  0  0  0  0  0  0  0  0  0
  139.4400   72.0830  222.8200 C   0  0  0  0  0  0  0  0  0  0  0  0
  140.5780   72.7350  222.2630 N   0  0  0  0  0  0  0  0  0  0  0  0
  140.3780   73.7000  221.1580 C   0  0  0  0  0  0  0  0  0  0  0  0
  141.6580   74.2700  220.7410 C   0  0  0  0  0  0  0  0  0  0  0  0
  142.6710   73.4840  220.7910 O   0  0  0  0  0  0  0  0  0  0  0  0
  141.9210   75.5730  220.2910 N   0  0  0  0  0  0  0  0  0  0  0  0
  142.4390   75.8080  218.9230 C   0  0  0  0  0  0  0  0  0  0  0  0
  141.9370   77.1490  218.5050 C   0  0  0  0  0  0  0  0  0  0  0  0
  141.3680   77.8150  219.7380 C   0  0  2  0  0  0  0  0  0  0  0  0
  141.9800   79.0640  219.8520 O   0  0  0  0  0  0  0  0  0  0  0  0
  141.8040   76.8860  220.8540 C   0  0  1  0  0  0  0  0  0  0  0  0
  140.9490   76.9990  222.0630 C   0  0  0  0  0  0  0  0  0  0  0  0
  141.0120   78.3560  222.6880 C   0  0  0  0  0  0  0  0  0  0  0  0
  142.2040   79.0060  222.9330 C   0  0  0  0  0  0  0  0  0  0  0  0
  142.2690   80.2580  223.5090 C   0  0  0  0  0  0  0  0  0  0  0  0
  141.0730   80.8600  223.8450 C   0  0  0  0  0  0  0  0  0  0  0  0
  139.8580   80.2760  223.6310 C   0  0  0  0  0  0  0  0  0  0  0  0
  138.5780   80.8840  223.9720 C   0  0  0  0  0  0  0  0  0  0  0  0
  137.8690   81.6830  223.1000 C   0  0  0  0  0  0  0  0  0  0  0  0
  136.6810   82.2450  223.4200 N   0  0  0  0  0  0  0  0  0  0  0  0
  136.1390   82.0400  224.6270 C   0  0  0  0  0  0  0  0  0  0  0  0
  136.8210   81.2460  225.5220 C   0  0  0  0  0  0  0  0  0  0  0  0
  138.0010   80.6920  225.1920 N   0  0  0  0  0  0  0  0  0  0  0  0
  139.8440   79.0230  223.0510 C   0  0  0  0  0  0  0  0  0  0  0  0
  139.6640   71.1250  223.9230 C   0  0  0  0  0  0  0  0  0  0  0  0
  139.3430   69.7920  223.7500 C   0  0  0  0  0  0  0  0  0  0  0  0
  139.5210   68.8370  224.7260 C   0  0  0  0  0  0  0  0  0  0  0  0
  140.0500   69.2660  225.9300 C   0  0  0  0  0  0  0  0  0  0  0  0
  140.2430   68.3340  226.9340 C   0  0  0  0  0  0  0  0  0  0  0  0
  140.7680   68.7200  228.1490 C   0  0  0  0  0  0  0  0  0  0  0  0
  140.9490   67.7930  229.1190 F   0  0  0  0  0  0  0  0  0  0  0  0
  141.0880   70.0570  228.3140 C   0  0  0  0  0  0  0  0  0  0  0  0
  140.8940   70.9860  227.3100 C   0  0  0  0  0  0  0  0  0  0  0  0
  140.3630   70.6030  226.0770 C   0  0  0  0  0  0  0  0  0  0  0  0
  140.1770   71.5140  225.1050 N   0  0  0  0  0  0  0  0  0  0  0  0
  141.5260   72.5280  222.6370 H   0  0  0  0  0  0  0  0  0  0  0  0
  139.9163   73.1826  220.3041 H   0  0  0  0  0  0  0  0  0  0  0  0
  139.7230   74.5117  221.5074 H   0  0  0  0  0  0  0  0  0  0  0  0
  143.5389   75.7980  218.9262 H   0  0  0  0  0  0  0  0  0  0  0  0
  142.1022   75.0232  218.2297 H   0  0  0  0  0  0  0  0  0  0  0  0
  142.7628   77.7510  218.0981 H   0  0  0  0  0  0  0  0  0  0  0  0
  141.1699   77.0534  217.7224 H   0  0  0  0  0  0  0  0  0  0  0  0
  140.2791   77.9712  219.7355 H   0  0  0  0  0  0  0  0  0  0  0  0
  142.7540   79.0580  220.4680 H   0  0  0  0  0  0  0  0  0  0  0  0
  142.7892   77.1723  221.2507 H   0  0  0  0  0  0  0  0  0  0  0  0
  139.9072   76.7904  221.7783 H   0  0  0  0  0  0  0  0  0  0  0  0
  141.3208   76.2744  222.8025 H   0  0  0  0  0  0  0  0  0  0  0  0
  143.1433   78.5043  222.6571 H   0  0  0  0  0  0  0  0  0  0  0  0
  143.2328   80.7553  223.6927 H   0  0  0  0  0  0  0  0  0  0  0  0
  141.1005   81.8578  224.3072 H   0  0  0  0  0  0  0  0  0  0  0  0
  138.2878   81.8716  222.1005 H   0  0  0  0  0  0  0  0  0  0  0  0
  135.1741   82.4940  224.8968 H   0  0  0  0  0  0  0  0  0  0  0  0
  136.3951   81.0627  226.5195 H   0  0  0  0  0  0  0  0  0  0  0  0
  138.8757   78.5338  222.8690 H   0  0  0  0  0  0  0  0  0  0  0  0
  138.9237   69.4777  222.7828 H   0  0  0  0  0  0  0  0  0  0  0  0
  139.2552   67.7832  224.5563 H   0  0  0  0  0  0  0  0  0  0  0  0
  139.9765   67.2807  226.7622 H   0  0  0  0  0  0  0  0  0  0  0  0
  141.5096   70.3897  229.2740 H   0  0  0  0  0  0  0  0  0  0  0  0
  141.1608   72.0389  227.4840 H   0  0  0  0  0  0  0  0  0  0  0  0
  1  2  2  0
  2  3  1  0
  3  4  1  0
  4  5  1  0
  5  6  2  0
  5  7  1  0
  7  8  1  0
  8  9  1  0
  9 10  1  0
 10 11  1  0
 10 12  1  0
 12 13  1  0
 13 14  1  0
 14 15  2  0
 15 16  1  0
 16 17  2  0
 17 18  1  0
 18 19  1  0
 19 20  2  0
 20 21  1  0
 21 22  2  0
 22 23  1  0
 23 24  2  0
 18 25  2  0
  2 26  1  0
 26 27  2  0
 27 28  1  0
 28 29  2  0
 29 30  1  0
 30 31  2  0
 31 32  1  0
 31 33  1  0
 33 34  2  0
 34 35  1  0
 35 36  2  0
 12  7  1  0
 25 14  1  0
 36 26  1  0
 24 19  1  0
 35 29  1  0
  3 37  1  0
  4 38  1  0
  4 39  1  0
  8 40  1  0
  8 41  1  0
  9 42  1  0
  9 43  1  0
 10 44  1  6
 11 45  1  0
 12 46  1  1
 13 47  1  0
 13 48  1  0
 15 49  1  0
 16 50  1  0
 17 51  1  0
 20 52  1  0
 22 53  1  0
 23 54  1  0
 25 55  1  0
 27 56  1  0
 28 57  1  0
 30 58  1  0
 33 59  1  0
 34 60  1  0
M  END
>  <smiles>  (10) 
O=C(NCC(=O)N1CC[C@H](O)[C@H]1Cc1cccc(-c2cnccn2)c1)c1ccc2cc(F)ccc2n1

>  <score_type>  (10) 
oracle

>  <origin>  (10) 
autodockgpu

>  <m_score__min__energy>  (10) 
-10.08

>  <m_primary>  (10) 
energy

>  <rmsd>  (10) 
2.5802832071107975

>  <m_score__min__rmsd>  (10) 
2.5802832071107975

>  <meeko>  (10) 
{"free_energy": -9.21, "intermolecular_energy": -11.59, "internal_energy": -1.88, "cluster_size": 16, "cluster_id": 1, "rank_in_cluster": 7}

>  <energy>  (10) 
-9.01

>  <cluster_rmsd>  (10) 
1.37

>  <cluster>  (10) 
1

$$$$

     RDKit          3D

 60 64  0  0  0  0  0  0  0  0999 V2000
  141.0020   71.8540  221.1790 O   0  0  0  0  0  0  0  0  0  0  0  0
  140.3050   72.3480  222.1080 C   0  0  0  0  0  0  0  0  0  0  0  0
  139.7010   73.6360  222.0240 N   0  0  0  0  0  0  0  0  0  0  0  0
  139.8950   74.4370  220.7940 C   0  0  0  0  0  0  0  0  0  0  0  0
  141.1570   75.1730  220.8580 C   0  0  0  0  0  0  0  0  0  0  0  0
  142.1320   74.5740  221.4370 O   0  0  0  0  0  0  0  0  0  0  0  0
  141.4370   76.4560  220.3640 N   0  0  0  0  0  0  0  0  0  0  0  0
  141.5290   76.6990  218.9050 C   0  0  0  0  0  0  0  0  0  0  0  0
  141.1070   78.1120  218.6850 C   0  0  0  0  0  0  0  0  0  0  0  0
  141.0460   78.7760  220.0420 C   0  0  2  0  0  0  0  0  0  0  0  0
  141.8240   79.9310  219.9720 O   0  0  0  0  0  0  0  0  0  0  0  0
  141.6800   77.7410  220.9510 C   0  0  1  0  0  0  0  0  0  0  0  0
  141.2680   77.8930  222.3700 C   0  0  0  0  0  0  0  0  0  0  0  0
  139.7870   78.0270  222.5300 C   0  0  0  0  0  0  0  0  0  0  0  0
  139.1460   79.2480  222.5040 C   0  0  0  0  0  0  0  0  0  0  0  0
  137.7800   79.3790  222.6500 C   0  0  0  0  0  0  0  0  0  0  0  0
  137.0520   78.2200  222.8300 C   0  0  0  0  0  0  0  0  0  0  0  0
  137.6210   76.9800  222.8660 C   0  0  0  0  0  0  0  0  0  0  0  0
  136.8820   75.7370  223.0530 C   0  0  0  0  0  0  0  0  0  0  0  0
  135.8830   75.5900  223.9930 C   0  0  0  0  0  0  0  0  0  0  0  0
  135.1990   74.4360  224.1640 N   0  0  0  0  0  0  0  0  0  0  0  0
  135.4770   73.3680  223.4060 C   0  0  0  0  0  0  0  0  0  0  0  0
  136.4690   73.4810  222.4570 C   0  0  0  0  0  0  0  0  0  0  0  0
  137.1410   74.6340  222.2970 N   0  0  0  0  0  0  0  0  0  0  0  0
  138.9910   76.9000  222.7140 C   0  0  0  0  0  0  0  0  0  0  0  0
  140.0970   71.5670  223.3460 C   0  0  0  0  0  0  0  0  0  0  0  0
  139.2710   70.4610  223.3280 C   0  0  0  0  0  0  0  0  0  0  0  0
  139.0250   69.6810  224.4370 C   0  0  0  0  0  0  0  0  0  0  0  0
  139.6530   70.0520  225.6120 C   0  0  0  0  0  0  0  0  0  0  0  0
  139.4290   69.2920  226.7470 C   0  0  0  0  0  0  0  0  0  0  0  0
  140.0360   69.6270  227.9380 C   0  0  0  0  0  0  0  0  0  0  0  0
  139.8030   68.8710  229.0370 F   0  0  0  0  0  0  0  0  0  0  0  0
  140.8620   70.7370  227.9470 C   0  0  0  0  0  0  0  0  0  0  0  0
  141.0840   71.4950  226.8140 C   0  0  0  0  0  0  0  0  0  0  0  0
  140.4740   71.1620  225.6030 C   0  0  0  0  0  0  0  0  0  0  0  0
  140.6950   71.9050  224.5040 N   0  0  0  0  0  0  0  0  0  0  0  0
  139.1360   73.9950  222.8210 H   0  0  0  0  0  0  0  0  0  0  0  0
  139.9110   73.7654  219.9230 H   0  0  0  0  0  0  0  0  0  0  0  0
  139.0673   75.1557  220.7023 H   0  0  0  0  0  0  0  0  0  0  0  0
  142.5631   76.5529  218.5597 H   0  0  0  0  0  0  0  0  0  0  0  0
  140.8907   76.0007  218.3439 H   0  0  0  0  0  0  0  0  0  0  0  0
  141.8376   78.6284  218.0451 H   0  0  0  0  0  0  0  0  0  0  0  0
  140.1281   78.1542  218.1849 H   0  0  0  0  0  0  0  0  0  0  0  0
  140.0421   79.0657  220.3860 H   0  0  0  0  0  0  0  0  0  0  0  0
  142.6740   79.8530  220.4720 H   0  0  0  0  0  0  0  0  0  0  0  0
  142.7689   77.8814  221.0185 H   0  0  0  0  0  0  0  0  0  0  0  0
  141.6039   77.0082  222.9306 H   0  0  0  0  0  0  0  0  0  0  0  0
  141.7283   78.8159  222.7525 H   0  0  0  0  0  0  0  0  0  0  0  0
  139.7496   80.1564  222.3607 H   0  0  0  0  0  0  0  0  0  0  0  0
  137.2922   80.3646  222.6240 H   0  0  0  0  0  0  0  0  0  0  0  0
  135.9615   78.2997  222.9501 H   0  0  0  0  0  0  0  0  0  0  0  0
  135.6317   76.4496  224.6317 H   0  0  0  0  0  0  0  0  0  0  0  0
  134.9273   72.4244  223.5377 H   0  0  0  0  0  0  0  0  0  0  0  0
  136.7143   72.6168  221.8222 H   0  0  0  0  0  0  0  0  0  0  0  0
  139.4705   75.9103  222.7392 H   0  0  0  0  0  0  0  0  0  0  0  0
  138.7843   70.1885  222.3799 H   0  0  0  0  0  0  0  0  0  0  0  0
  138.3610   68.8053  224.3900 H   0  0  0  0  0  0  0  0  0  0  0  0
  138.7639   68.4172  226.6981 H   0  0  0  0  0  0  0  0  0  0  0  0
  141.3574   71.0248  228.8860 H   0  0  0  0  0  0  0  0  0  0  0  0
  141.7483   72.3702  226.8662 H   0  0  0  0  0  0  0  0  0  0  0  0
  1  2  2  0
  2  3  1  0
  3  4  1  0
  4  5  1  0
  5  6  2  0
  5  7  1  0
  7  8  1  0
  8  9  1  0
  9 10  1  0
 10 11  1  0
 10 12  1  0
 12 13  1  0
 13 14  1  0
 14 15  2  0
 15 16  1  0
 16 17  2  0
 17 18  1  0
 18 19  1  0
 19 20  2  0
 20 21  1  0
 21 22  2  0
 22 23  1  0
 23 24  2  0
 18 25  2  0
  2 26  1  0
 26 27  2  0
 27 28  1  0
 28 29  2  0
 29 30  1  0
 30 31  2  0
 31 32  1  0
 31 33  1  0
 33 34  2  0
 34 35  1  0
 35 36  2  0
 12  7  1  0
 25 14  1  0
 36 26  1  0
 24 19  1  0
 35 29  1  0
  3 37  1  0
  4 38  1  0
  4 39  1  0
  8 40  1  0
  8 41  1  0
  9 42  1  0
  9 43  1  0
 10 44  1  1
 11 45  1  0
 12 46  1  1
 13 47  1  0
 13 48  1  0
 15 49  1  0
 16 50  1  0
 17 51  1  0
 20 52  1  0
 22 53  1  0
 23 54  1  0
 25 55  1  0
 27 56  1  0
 28 57  1  0
 30 58  1  0
 33 59  1  0
 34 60  1  0
M  END
>  <smiles>  (11) 
O=C(NCC(=O)N1CC[C@H](O)[C@H]1Cc1cccc(-c2cnccn2)c1)c1ccc2cc(F)ccc2n1

>  <score_type>  (11) 
oracle

>  <origin>  (11) 
autodockgpu

>  <m_score__min__energy>  (11) 
-10.08

>  <m_primary>  (11) 
energy

>  <rmsd>  (11) 
2.660176348267375

>  <m_score__min__rmsd>  (11) 
2.660176348267375

>  <meeko>  (11) 
{"free_energy": -7.85, "intermolecular_energy": -10.24, "internal_energy": -2.93, "cluster_size": 1, "cluster_id": 9, "rank_in_cluster": 1}

>  <energy>  (11) 
-8.98

>  <cluster_rmsd>  (11) 
1.88

>  <cluster>  (11) 
1

$$$$

     RDKit          3D

 60 64  0  0  0  0  0  0  0  0999 V2000
  140.1960   70.9130  221.5020 O   0  0  0  0  0  0  0  0  0  0  0  0
  139.9630   71.6530  222.4970 C   0  0  0  0  0  0  0  0  0  0  0  0
  139.5380   73.0080  222.3750 N   0  0  0  0  0  0  0  0  0  0  0  0
  139.3580   73.5800  221.0210 C   0  0  0  0  0  0  0  0  0  0  0  0
  140.4230   74.5380  220.7270 C   0  0  0  0  0  0  0  0  0  0  0  0
  140.1150   75.7780  220.8350 O   0  0  0  0  0  0  0  0  0  0  0  0
  141.7460   74.2700  220.3420 N   0  0  0  0  0  0  0  0  0  0  0  0
  142.5400   73.2330  221.0400 C   0  0  0  0  0  0  0  0  0  0  0  0
  143.5020   72.6900  220.0380 C   0  0  0  0  0  0  0  0  0  0  0  0
  143.4620   73.6110  218.8390 C   0  0  2  0  0  0  0  0  0  0  0  0
  144.7750   73.9990  218.5730 O   0  0  0  0  0  0  0  0  0  0  0  0
  142.6350   74.7790  219.3400 C   0  0  1  0  0  0  0  0  0  0  0  0
  142.0000   75.5470  218.2380 C   0  0  0  0  0  0  0  0  0  0  0  0
  142.1110   77.0260  218.4280 C   0  0  0  0  0  0  0  0  0  0  0  0
  142.3790   77.8900  217.3850 C   0  0  0  0  0  0  0  0  0  0  0  0
  142.4830   79.2550  217.5530 C   0  0  0  0  0  0  0  0  0  0  0  0
  142.3070   79.7480  218.8300 C   0  0  0  0  0  0  0  0  0  0  0  0
  142.0400   78.9530  219.9060 C   0  0  0  0  0  0  0  0  0  0  0  0
  141.8480   79.4410  221.2670 C   0  0  0  0  0  0  0  0  0  0  0  0
  141.5480   78.6120  222.3280 C   0  0  0  0  0  0  0  0  0  0  0  0
  141.3710   79.0690  223.5880 N   0  0  0  0  0  0  0  0  0  0  0  0
  141.4830   80.3760  223.8560 C   0  0  0  0  0  0  0  0  0  0  0  0
  141.7820   81.2310  222.8190 C   0  0  0  0  0  0  0  0  0  0  0  0
  141.9560   80.7650  221.5700 N   0  0  0  0  0  0  0  0  0  0  0  0
  141.9440   77.5920  219.6890 C   0  0  0  0  0  0  0  0  0  0  0  0
  140.1350   71.1040  223.8590 C   0  0  0  0  0  0  0  0  0  0  0  0
  140.6640   71.8990  224.8580 C   0  0  0  0  0  0  0  0  0  0  0  0
  140.8560   71.4630  226.1500 C   0  0  0  0  0  0  0  0  0  0  0  0
  140.4910   70.1590  226.4300 C   0  0  0  0  0  0  0  0  0  0  0  0
  140.6700   69.6870  227.7190 C   0  0  0  0  0  0  0  0  0  0  0  0
  140.3190   68.3930  228.0390 C   0  0  0  0  0  0  0  0  0  0  0  0
  140.5030   67.9500  229.3060 F   0  0  0  0  0  0  0  0  0  0  0  0
  139.7900   67.6030  227.0330 C   0  0  0  0  0  0  0  0  0  0  0  0
  139.6130   68.0760  225.7470 C   0  0  0  0  0  0  0  0  0  0  0  0
  139.9650   69.3850  225.4150 C   0  0  0  0  0  0  0  0  0  0  0  0
  139.7890   69.8380  224.1600 N   0  0  0  0  0  0  0  0  0  0  0  0
  139.3600   73.5730  223.2300 H   0  0  0  0  0  0  0  0  0  0  0  0
  139.3848   72.7690  220.2783 H   0  0  0  0  0  0  0  0  0  0  0  0
  138.3892   74.0992  220.9787 H   0  0  0  0  0  0  0  0  0  0  0  0
  143.0837   73.6768  221.8870 H   0  0  0  0  0  0  0  0  0  0  0  0
  141.8926   72.4390  221.4406 H   0  0  0  0  0  0  0  0  0  0  0  0
  144.5165   72.6672  220.4626 H   0  0  0  0  0  0  0  0  0  0  0  0
  143.2315   71.6628  219.7520 H   0  0  0  0  0  0  0  0  0  0  0  0
  143.0449   73.1770  217.9183 H   0  0  0  0  0  0  0  0  0  0  0  0
  144.8390   74.9180  218.2090 H   0  0  0  0  0  0  0  0  0  0  0  0
  143.2681   75.5460  219.8099 H   0  0  0  0  0  0  0  0  0  0  0  0
  142.4907   75.2758  217.2916 H   0  0  0  0  0  0  0  0  0  0  0  0
  140.9300   75.2922  218.2285 H   0  0  0  0  0  0  0  0  0  0  0  0
  142.5154   77.4718  216.3768 H   0  0  0  0  0  0  0  0  0  0  0  0
  142.6971   79.9224  216.7052 H   0  0  0  0  0  0  0  0  0  0  0  0
  142.3858   80.8338  218.9877 H   0  0  0  0  0  0  0  0  0  0  0  0
  141.4485   77.5326  222.1408 H   0  0  0  0  0  0  0  0  0  0  0  0
  141.3399   80.7568  224.8780 H   0  0  0  0  0  0  0  0  0  0  0  0
  141.8797   82.3090  223.0149 H   0  0  0  0  0  0  0  0  0  0  0  0
  141.7281   76.9324  220.5424 H   0  0  0  0  0  0  0  0  0  0  0  0
  140.9460   72.9325  224.6084 H   0  0  0  0  0  0  0  0  0  0  0  0
  141.2798   72.1210  226.9229 H   0  0  0  0  0  0  0  0  0  0  0  0
  141.0937   70.3468  228.4904 H   0  0  0  0  0  0  0  0  0  0  0  0
  139.5017   66.5670  227.2645 H   0  0  0  0  0  0  0  0  0  0  0  0
  139.1903   67.4140  224.9769 H   0  0  0  0  0  0  0  0  0  0  0  0
  1  2  2  0
  2  3  1  0
  3  4  1  0
  4  5  1  0
  5  6  2  0
  5  7  1  0
  7  8  1  0
  8  9  1  0
  9 10  1  0
 10 11  1  0
 10 12  1  0
 12 13  1  0
 13 14  1  0
 14 15  2  0
 15 16  1  0
 16 17  2  0
 17 18  1  0
 18 19  1  0
 19 20  2  0
 20 21  1  0
 21 22  2  0
 22 23  1  0
 23 24  2  0
 18 25  2  0
  2 26  1  0
 26 27  2  0
 27 28  1  0
 28 29  2  0
 29 30  1  0
 30 31  2  0
 31 32  1  0
 31 33  1  0
 33 34  2  0
 34 35  1  0
 35 36  2  0
 12  7  1  0
 25 14  1  0
 36 26  1  0
 24 19  1  0
 35 29  1  0
  3 37  1  0
  4 38  1  0
  4 39  1  0
  8 40  1  0
  8 41  1  0
  9 42  1  0
  9 43  1  0
 10 44  1  6
 11 45  1  0
 12 46  1  1
 13 47  1  0
 13 48  1  0
 15 49  1  0
 16 50  1  0
 17 51  1  0
 20 52  1  0
 22 53  1  0
 23 54  1  0
 25 55  1  0
 27 56  1  0
 28 57  1  0
 30 58  1  0
 33 59  1  0
 34 60  1  0
M  END
>  <smiles>  (12) 
O=C(NCC(=O)N1CC[C@H](O)[C@H]1Cc1cccc(-c2cnccn2)c1)c1ccc2cc(F)ccc2n1

>  <score_type>  (12) 
oracle

>  <origin>  (12) 
autodockgpu

>  <m_score__min__energy>  (12) 
-10.08

>  <m_primary>  (12) 
energy

>  <rmsd>  (12) 
3.3239062741650636

>  <m_score__min__rmsd>  (12) 
3.3239062741650636

>  <meeko>  (12) 
{"free_energy": -8.82, "intermolecular_energy": -11.21, "internal_energy": -1.82, "cluster_size": 9, "cluster_id": 2, "rank_in_cluster": 9}

>  <energy>  (12) 
-8.77

>  <cluster_rmsd>  (12) 
1.32

>  <cluster>  (12) 
1

$$$$

     RDKit          3D

 60 64  0  0  0  0  0  0  0  0999 V2000
  139.3050   77.7200  218.5080 O   0  0  0  0  0  0  0  0  0  0  0  0
  139.3450   78.8950  218.9670 C   0  0  0  0  0  0  0  0  0  0  0  0
  138.3760   79.4060  219.8780 N   0  0  0  0  0  0  0  0  0  0  0  0
  137.2680   78.5250  220.3110 C   0  0  0  0  0  0  0  0  0  0  0  0
  137.5410   77.9770  221.6380 C   0  0  0  0  0  0  0  0  0  0  0  0
  137.3240   78.7610  222.6300 O   0  0  0  0  0  0  0  0  0  0  0  0
  138.0120   76.6960  221.9670 N   0  0  0  0  0  0  0  0  0  0  0  0
  137.0640   75.6000  222.2730 C   0  0  0  0  0  0  0  0  0  0  0  0
  137.7350   74.3330  221.8630 C   0  0  0  0  0  0  0  0  0  0  0  0
  139.1840   74.6670  221.5860 C   0  0  2  0  0  0  0  0  0  0  0  0
  139.9620   73.7920  222.3450 O   0  0  0  0  0  0  0  0  0  0  0  0
  139.3040   76.0900  222.0950 C   0  0  1  0  0  0  0  0  0  0  0  0
  140.4310   76.8300  221.4710 C   0  0  0  0  0  0  0  0  0  0  0  0
  140.8220   78.0470  222.2490 C   0  0  0  0  0  0  0  0  0  0  0  0
  141.4920   77.9740  223.4530 C   0  0  0  0  0  0  0  0  0  0  0  0
  141.8550   79.0920  224.1750 C   0  0  0  0  0  0  0  0  0  0  0  0
  141.5210   80.3210  223.6440 C   0  0  0  0  0  0  0  0  0  0  0  0
  140.8600   80.4670  222.4590 C   0  0  0  0  0  0  0  0  0  0  0  0
  140.4920   81.7490  221.8700 C   0  0  0  0  0  0  0  0  0  0  0  0
  141.3900   82.7820  221.6960 C   0  0  0  0  0  0  0  0  0  0  0  0
  141.0450   83.9690  221.1490 N   0  0  0  0  0  0  0  0  0  0  0  0
  139.7870   84.1890  220.7470 C   0  0  0  0  0  0  0  0  0  0  0  0
  138.8660   83.1790  220.9070 C   0  0  0  0  0  0  0  0  0  0  0  0
  139.2210   82.0010  221.4510 N   0  0  0  0  0  0  0  0  0  0  0  0
  140.5180   79.3190  221.7720 C   0  0  0  0  0  0  0  0  0  0  0  0
  140.4420   79.7930  218.5490 C   0  0  0  0  0  0  0  0  0  0  0  0
  141.6950   79.2720  218.2900 C   0  0  0  0  0  0  0  0  0  0  0  0
  142.7680   80.0400  217.8970 C   0  0  0  0  0  0  0  0  0  0  0  0
  142.5480   81.4000  217.7650 C   0  0  0  0  0  0  0  0  0  0  0  0
  143.6050   82.2030  217.3720 C   0  0  0  0  0  0  0  0  0  0  0  0
  143.4270   83.5630  217.2280 C   0  0  0  0  0  0  0  0  0  0  0  0
  144.4730   84.3320  216.8430 F   0  0  0  0  0  0  0  0  0  0  0  0
  142.1690   84.0770  217.4900 C   0  0  0  0  0  0  0  0  0  0  0  0
  141.1160   83.2730  217.8830 C   0  0  0  0  0  0  0  0  0  0  0  0
  141.2870   81.8950  218.0300 C   0  0  0  0  0  0  0  0  0  0  0  0
  140.2570   81.1200  218.4130 N   0  0  0  0  0  0  0  0  0  0  0  0
  138.4580   80.3830  220.2250 H   0  0  0  0  0  0  0  0  0  0  0  0
  136.3347   79.1062  220.3440 H   0  0  0  0  0  0  0  0  0  0  0  0
  137.1718   77.6952  219.5954 H   0  0  0  0  0  0  0  0  0  0  0  0
  136.8405   75.5804  223.3499 H   0  0  0  0  0  0  0  0  0  0  0  0
  136.1120   75.7368  221.7391 H   0  0  0  0  0  0  0  0  0  0  0  0
  137.6668   73.5909  222.6721 H   0  0  0  0  0  0  0  0  0  0  0  0
  137.2540   73.9060  220.9706 H   0  0  0  0  0  0  0  0  0  0  0  0
  139.5012   74.5774  220.5365 H   0  0  0  0  0  0  0  0  0  0  0  0
  139.4750   73.4190  223.1210 H   0  0  0  0  0  0  0  0  0  0  0  0
  139.5838   76.1121  223.1586 H   0  0  0  0  0  0  0  0  0  0  0  0
  141.3002   76.1589  221.4065 H   0  0  0  0  0  0  0  0  0  0  0  0
  140.1004   77.1629  220.4761 H   0  0  0  0  0  0  0  0  0  0  0  0
  141.7475   76.9822  223.8542 H   0  0  0  0  0  0  0  0  0  0  0  0
  142.3881   79.0073  225.1334 H   0  0  0  0  0  0  0  0  0  0  0  0
  141.8009   81.2264  224.2025 H   0  0  0  0  0  0  0  0  0  0  0  0
  142.4318   82.6332  222.0163 H   0  0  0  0  0  0  0  0  0  0  0  0
  139.4972   85.1517  220.3006 H   0  0  0  0  0  0  0  0  0  0  0  0
  137.8259   83.3370  220.5858 H   0  0  0  0  0  0  0  0  0  0  0  0
  139.9864   79.4130  220.8136 H   0  0  0  0  0  0  0  0  0  0  0  0
  141.8430   78.1879  218.4036 H   0  0  0  0  0  0  0  0  0  0  0  0
  143.7534   79.5938  217.6974 H   0  0  0  0  0  0  0  0  0  0  0  0
  144.5899   81.7549  217.1740 H   0  0  0  0  0  0  0  0  0  0  0  0
  142.0022   85.1589  217.3821 H   0  0  0  0  0  0  0  0  0  0  0  0
  140.1324   83.7235  218.0822 H   0  0  0  0  0  0  0  0  0  0  0  0
  1  2  2  0
  2  3  1  0
  3  4  1  0
  4  5  1  0
  5  6  2  0
  5  7  1  0
  7  8  1  0
  8  9  1  0
  9 10  1  0
 10 11  1  0
 10 12  1  0
 12 13  1  0
 13 14  1  0
 14 15  2  0
 15 16  1  0
 16 17  2  0
 17 18  1  0
 18 19  1  0
 19 20  2  0
 20 21  1  0
 21 22  2  0
 22 23  1  0
 23 24  2  0
 18 25  2  0
  2 26  1  0
 26 27  2  0
 27 28  1  0
 28 29  2  0
 29 30  1  0
 30 31  2  0
 31 32  1  0
 31 33  1  0
 33 34  2  0
 34 35  1  0
 35 36  2  0
 12  7  1  0
 25 14  1  0
 36 26  1  0
 24 19  1  0
 35 29  1  0
  3 37  1  0
  4 38  1  0
  4 39  1  0
  8 40  1  0
  8 41  1  0
  9 42  1  0
  9 43  1  0
 10 44  1  6
 11 45  1  0
 12 46  1  1
 13 47  1  0
 13 48  1  0
 15 49  1  0
 16 50  1  0
 17 51  1  0
 20 52  1  0
 22 53  1  0
 23 54  1  0
 25 55  1  0
 27 56  1  0
 28 57  1  0
 30 58  1  0
 33 59  1  0
 34 60  1  0
M  END
>  <smiles>  (13) 
O=C(NCC(=O)N1CC[C@H](O)[C@H]1Cc1cccc(-c2cnccn2)c1)c1ccc2cc(F)ccc2n1

>  <score_type>  (13) 
oracle

>  <origin>  (13) 
autodockgpu

>  <m_score__min__energy>  (13) 
-10.08

>  <m_primary>  (13) 
energy

>  <rmsd>  (13) 
10.596446156343777

>  <m_score__min__rmsd>  (13) 
10.596446156343777

>  <meeko>  (13) 
{"free_energy": -6.34, "intermolecular_energy": -8.73, "internal_energy": -4.35, "cluster_size": 1, "cluster_id": 11, "rank_in_cluster": 1}

>  <energy>  (13) 
-8.68

>  <cluster_rmsd>  (13) 
1.93

>  <cluster>  (13) 
1

$$$$

     RDKit          3D

 60 64  0  0  0  0  0  0  0  0999 V2000
  139.4220   71.0130  221.5570 O   0  0  0  0  0  0  0  0  0  0  0  0
  138.9160   71.4440  222.6290 C   0  0  0  0  0  0  0  0  0  0  0  0
  137.8160   72.3490  222.6600 N   0  0  0  0  0  0  0  0  0  0  0  0
  137.2340   72.8100  221.3790 C   0  0  0  0  0  0  0  0  0  0  0  0
  137.6050   74.2010  221.1220 C   0  0  0  0  0  0  0  0  0  0  0  0
  136.8500   74.8470  220.3110 O   0  0  0  0  0  0  0  0  0  0  0  0
  138.6860   74.9210  221.6530 N   0  0  0  0  0  0  0  0  0  0  0  0
  140.0380   74.3190  221.7100 C   0  0  0  0  0  0  0  0  0  0  0  0
  141.0080   75.4460  221.6030 C   0  0  0  0  0  0  0  0  0  0  0  0
  140.2220   76.7270  221.7720 C   0  0  2  0  0  0  0  0  0  0  0  0
  140.8420   77.4610  222.7840 O   0  0  0  0  0  0  0  0  0  0  0  0
  138.8590   76.2300  222.2110 C   0  0  1  0  0  0  0  0  0  0  0  0
  137.7740   77.2040  221.9290 C   0  0  0  0  0  0  0  0  0  0  0  0
  136.6440   77.1060  222.9030 C   0  0  0  0  0  0  0  0  0  0  0  0
  135.9160   78.2060  223.3080 C   0  0  0  0  0  0  0  0  0  0  0  0
  134.8720   78.1240  224.2070 C   0  0  0  0  0  0  0  0  0  0  0  0
  134.5680   76.8730  224.7050 C   0  0  0  0  0  0  0  0  0  0  0  0
  135.2450   75.7430  224.3480 C   0  0  0  0  0  0  0  0  0  0  0  0
  134.9490   74.4080  224.8550 C   0  0  0  0  0  0  0  0  0  0  0  0
  135.3850   73.2550  224.2360 C   0  0  0  0  0  0  0  0  0  0  0  0
  135.1090   72.0190  224.7090 N   0  0  0  0  0  0  0  0  0  0  0  0
  134.3810   71.8680  225.8230 C   0  0  0  0  0  0  0  0  0  0  0  0
  133.9300   72.9990  226.4650 C   0  0  0  0  0  0  0  0  0  0  0  0
  134.2130   74.2230  225.9860 N   0  0  0  0  0  0  0  0  0  0  0  0
  136.2810   75.8760  223.4450 C   0  0  0  0  0  0  0  0  0  0  0  0
  139.4790   70.9970  223.9210 C   0  0  0  0  0  0  0  0  0  0  0  0
  140.2560   71.8630  224.6660 C   0  0  0  0  0  0  0  0  0  0  0  0
  140.8170   71.5250  225.8780 C   0  0  0  0  0  0  0  0  0  0  0  0
  140.5710   70.2460  226.3450 C   0  0  0  0  0  0  0  0  0  0  0  0
  141.1190   69.8720  227.5600 C   0  0  0  0  0  0  0  0  0  0  0  0
  140.8970   68.6070  228.0610 C   0  0  0  0  0  0  0  0  0  0  0  0
  141.4420   68.2590  229.2510 F   0  0  0  0  0  0  0  0  0  0  0  0
  140.1170   67.7460  227.3080 C   0  0  0  0  0  0  0  0  0  0  0  0
  139.5720   68.1220  226.0950 C   0  0  0  0  0  0  0  0  0  0  0  0
  139.7910   69.4010  225.5820 C   0  0  0  0  0  0  0  0  0  0  0  0
  139.2560   69.7590  224.4000 N   0  0  0  0  0  0  0  0  0  0  0  0
  137.4380   72.6720  223.5740 H   0  0  0  0  0  0  0  0  0  0  0  0
  137.6103   72.1775  220.5615 H   0  0  0  0  0  0  0  0  0  0  0  0
  136.1380   72.7381  221.4386 H   0  0  0  0  0  0  0  0  0  0  0  0
  140.1772   73.7869  222.6627 H   0  0  0  0  0  0  0  0  0  0  0  0
  140.1836   73.5905  220.8988 H   0  0  0  0  0  0  0  0  0  0  0  0
  141.7701   75.3641  222.3920 H   0  0  0  0  0  0  0  0  0  0  0  0
  141.5232   75.4281  220.6313 H   0  0  0  0  0  0  0  0  0  0  0  0
  140.1580   77.3678  220.8802 H   0  0  0  0  0  0  0  0  0  0  0  0
  141.8290   77.4020  222.7530 H   0  0  0  0  0  0  0  0  0  0  0  0
  138.7986   76.1411  223.3057 H   0  0  0  0  0  0  0  0  0  0  0  0
  138.1922   78.2203  221.9761 H   0  0  0  0  0  0  0  0  0  0  0  0
  137.3731   76.9753  220.9305 H   0  0  0  0  0  0  0  0  0  0  0  0
  136.1793   79.1915  222.8963 H   0  0  0  0  0  0  0  0  0  0  0  0
  134.3068   79.0166  224.5133 H   0  0  0  0  0  0  0  0  0  0  0  0
  133.7405   76.7825  225.4240 H   0  0  0  0  0  0  0  0  0  0  0  0
  135.9834   73.3452  223.3174 H   0  0  0  0  0  0  0  0  0  0  0  0
  134.1496   70.8665  226.2146 H   0  0  0  0  0  0  0  0  0  0  0  0
  133.3303   72.9001  227.3818 H   0  0  0  0  0  0  0  0  0  0  0  0
  136.8397   74.9779  223.1430 H   0  0  0  0  0  0  0  0  0  0  0  0
  140.4359   72.8739  224.2713 H   0  0  0  0  0  0  0  0  0  0  0  0
  141.4313   72.2380  226.4474 H   0  0  0  0  0  0  0  0  0  0  0  0
  141.7335   70.5864  228.1274 H   0  0  0  0  0  0  0  0  0  0  0  0
  139.9252   66.7313  227.6869 H   0  0  0  0  0  0  0  0  0  0  0  0
  138.9593   67.4057  225.5281 H   0  0  0  0  0  0  0  0  0  0  0  0
  1  2  2  0
  2  3  1  0
  3  4  1  0
  4  5  1  0
  5  6  2  0
  5  7  1  0
  7  8  1  0
  8  9  1  0
  9 10  1  0
 10 11  1  0
 10 12  1  0
 12 13  1  0
 13 14  1  0
 14 15  2  0
 15 16  1  0
 16 17  2  0
 17 18  1  0
 18 19  1  0
 19 20  2  0
 20 21  1  0
 21 22  2  0
 22 23  1  0
 23 24  2  0
 18 25  2  0
  2 26  1  0
 26 27  2  0
 27 28  1  0
 28 29  2  0
 29 30  1  0
 30 31  2  0
 31 32  1  0
 31 33  1  0
 33 34  2  0
 34 35  1  0
 35 36  2  0
 12  7  1  0
 25 14  1  0
 36 26  1  0
 24 19  1  0
 35 29  1  0
  3 37  1  0
  4 38  1  0
  4 39  1  0
  8 40  1  0
  8 41  1  0
  9 42  1  0
  9 43  1  0
 10 44  1  6
 11 45  1  0
 12 46  1  1
 13 47  1  0
 13 48  1  0
 15 49  1  0
 16 50  1  0
 17 51  1  0
 20 52  1  0
 22 53  1  0
 23 54  1  0
 25 55  1  0
 27 56  1  0
 28 57  1  0
 30 58  1  0
 33 59  1  0
 34 60  1  0
M  END
>  <smiles>  (14) 
O=C(NCC(=O)N1CC[C@H](O)[C@H]1Cc1cccc(-c2cnccn2)c1)c1ccc2cc(F)ccc2n1

>  <score_type>  (14) 
oracle

>  <origin>  (14) 
autodockgpu

>  <m_score__min__energy>  (14) 
-10.08

>  <m_primary>  (14) 
energy

>  <rmsd>  (14) 
3.7183884806824636

>  <m_score__min__rmsd>  (14) 
3.7183884806824636

>  <meeko>  (14) 
{"free_energy": -8.15, "intermolecular_energy": -10.54, "internal_energy": -2.37, "cluster_size": 5, "cluster_id": 7, "rank_in_cluster": 4}

>  <energy>  (14) 
-8.66

>  <cluster_rmsd>  (14) 
1.36

>  <cluster>  (14) 
1

$$$$

     RDKit          3D

 60 64  0  0  0  0  0  0  0  0999 V2000
  139.4760   71.5300  221.0990 O   0  0  0  0  0  0  0  0  0  0  0  0
  139.5550   72.1330  222.2050 C   0  0  0  0  0  0  0  0  0  0  0  0
  139.4780   73.5510  222.3240 N   0  0  0  0  0  0  0  0  0  0  0  0
  139.2980   74.3620  221.0980 C   0  0  0  0  0  0  0  0  0  0  0  0
  139.6020   75.7660  221.3660 C   0  0  0  0  0  0  0  0  0  0  0  0
  139.7280   76.0920  222.6010 O   0  0  0  0  0  0  0  0  0  0  0  0
  139.7750   76.8070  220.4410 N   0  0  0  0  0  0  0  0  0  0  0  0
  138.7060   77.1400  219.4720 C   0  0  0  0  0  0  0  0  0  0  0  0
  138.8330   78.5980  219.1860 C   0  0  0  0  0  0  0  0  0  0  0  0
  140.1530   79.0520  219.7680 C   0  0  2  0  0  0  0  0  0  0  0  0
  140.8540   79.6960  218.7480 O   0  0  0  0  0  0  0  0  0  0  0  0
  140.8190   77.7450  220.1500 C   0  0  1  0  0  0  0  0  0  0  0  0
  141.8520   77.9130  221.2050 C   0  0  0  0  0  0  0  0  0  0  0  0
  141.5600   79.0600  222.1190 C   0  0  0  0  0  0  0  0  0  0  0  0
  142.5280   79.9620  222.5100 C   0  0  0  0  0  0  0  0  0  0  0  0
  142.2660   81.0220  223.3530 C   0  0  0  0  0  0  0  0  0  0  0  0
  140.9710   81.1580  223.8100 C   0  0  0  0  0  0  0  0  0  0  0  0
  139.9640   80.3040  223.4640 C   0  0  0  0  0  0  0  0  0  0  0  0
  138.5870   80.4190  223.9280 C   0  0  0  0  0  0  0  0  0  0  0  0
  137.5460   79.6980  223.3810 C   0  0  0  0  0  0  0  0  0  0  0  0
  136.2700   79.8080  223.8140 N   0  0  0  0  0  0  0  0  0  0  0  0
  135.9640   80.6440  224.8140 C   0  0  0  0  0  0  0  0  0  0  0  0
  136.9800   81.3800  225.3820 C   0  0  0  0  0  0  0  0  0  0  0  0
  138.2460   81.2610  224.9440 N   0  0  0  0  0  0  0  0  0  0  0  0
  140.2750   79.2580  222.6170 C   0  0  0  0  0  0  0  0  0  0  0  0
  139.7350   71.3450  223.4430 C   0  0  0  0  0  0  0  0  0  0  0  0
  139.3740   70.0110  223.4660 C   0  0  0  0  0  0  0  0  0  0  0  0
  139.5090   69.2090  224.5770 C   0  0  0  0  0  0  0  0  0  0  0  0
  140.0360   69.7990  225.7120 C   0  0  0  0  0  0  0  0  0  0  0  0
  140.1860   69.0230  226.8480 C   0  0  0  0  0  0  0  0  0  0  0  0
  140.7070   69.5720  228.0010 C   0  0  0  0  0  0  0  0  0  0  0  0
  140.8460   68.7970  229.1020 F   0  0  0  0  0  0  0  0  0  0  0  0
  141.0660   70.9090  227.9690 C   0  0  0  0  0  0  0  0  0  0  0  0
  140.9140   71.6820  226.8340 C   0  0  0  0  0  0  0  0  0  0  0  0
  140.3880   71.1330  225.6630 C   0  0  0  0  0  0  0  0  0  0  0  0
  140.2440   71.8920  224.5620 N   0  0  0  0  0  0  0  0  0  0  0  0
  139.5480   73.9950  223.2620 H   0  0  0  0  0  0  0  0  0  0  0  0
  139.9731   73.9883  220.3141 H   0  0  0  0  0  0  0  0  0  0  0  0
  138.2522   74.2805  220.7670 H   0  0  0  0  0  0  0  0  0  0  0  0
  138.8366   76.5586  218.5474 H   0  0  0  0  0  0  0  0  0  0  0  0
  137.7123   76.8993  219.8777 H   0  0  0  0  0  0  0  0  0  0  0  0
  138.8197   78.7720  218.0999 H   0  0  0  0  0  0  0  0  0  0  0  0
  137.9964   79.1582  219.6290 H   0  0  0  0  0  0  0  0  0  0  0  0
  140.0849   79.7437  220.6206 H   0  0  0  0  0  0  0  0  0  0  0  0
  140.6400   80.6610  218.6840 H   0  0  0  0  0  0  0  0  0  0  0  0
  141.4141   77.3410  219.3177 H   0  0  0  0  0  0  0  0  0  0  0  0
  141.8992   76.9902  221.8019 H   0  0  0  0  0  0  0  0  0  0  0  0
  142.8087   78.1218  220.7039 H   0  0  0  0  0  0  0  0  0  0  0  0
  143.5530   79.8302  222.1332 H   0  0  0  0  0  0  0  0  0  0  0  0
  143.0556   81.7287  223.6483 H   0  0  0  0  0  0  0  0  0  0  0  0
  140.7392   81.9947  224.4854 H   0  0  0  0  0  0  0  0  0  0  0  0
  137.7636   79.0032  222.5565 H   0  0  0  0  0  0  0  0  0  0  0  0
  134.9285   80.7404  225.1724 H   0  0  0  0  0  0  0  0  0  0  0  0
  136.7531   82.0742  226.2046 H   0  0  0  0  0  0  0  0  0  0  0  0
  139.4792   78.5567  222.3257 H   0  0  0  0  0  0  0  0  0  0  0  0
  138.9574   69.5673  222.5497 H   0  0  0  0  0  0  0  0  0  0  0  0
  139.2121   68.1499  224.5628 H   0  0  0  0  0  0  0  0  0  0  0  0
  139.8885   67.9641  226.8313 H   0  0  0  0  0  0  0  0  0  0  0  0
  141.4853   71.3700  228.8755 H   0  0  0  0  0  0  0  0  0  0  0  0
  141.2105   72.7411  226.8531 H   0  0  0  0  0  0  0  0  0  0  0  0
  1  2  2  0
  2  3  1  0
  3  4  1  0
  4  5  1  0
  5  6  2  0
  5  7  1  0
  7  8  1  0
  8  9  1  0
  9 10  1  0
 10 11  1  0
 10 12  1  0
 12 13  1  0
 13 14  1  0
 14 15  2  0
 15 16  1  0
 16 17  2  0
 17 18  1  0
 18 19  1  0
 19 20  2  0
 20 21  1  0
 21 22  2  0
 22 23  1  0
 23 24  2  0
 18 25  2  0
  2 26  1  0
 26 27  2  0
 27 28  1  0
 28 29  2  0
 29 30  1  0
 30 31  2  0
 31 32  1  0
 31 33  1  0
 33 34  2  0
 34 35  1  0
 35 36  2  0
 12  7  1  0
 25 14  1  0
 36 26  1  0
 24 19  1  0
 35 29  1  0
  3 37  1  0
  4 38  1  0
  4 39  1  0
  8 40  1  0
  8 41  1  0
  9 42  1  0
  9 43  1  0
 10 44  1  1
 11 45  1  0
 12 46  1  6
 13 47  1  0
 13 48  1  0
 15 49  1  0
 16 50  1  0
 17 51  1  0
 20 52  1  0
 22 53  1  0
 23 54  1  0
 25 55  1  0
 27 56  1  0
 28 57  1  0
 30 58  1  0
 33 59  1  0
 34 60  1  0
M  END
>  <smiles>  (15) 
O=C(NCC(=O)N1CC[C@H](O)[C@H]1Cc1cccc(-c2cnccn2)c1)c1ccc2cc(F)ccc2n1

>  <score_type>  (15) 
oracle

>  <origin>  (15) 
autodockgpu

>  <m_score__min__energy>  (15) 
-10.08

>  <m_primary>  (15) 
energy

>  <rmsd>  (15) 
2.215870272011724

>  <m_score__min__rmsd>  (15) 
2.215870272011724

>  <meeko>  (15) 
{"free_energy": -8.63, "intermolecular_energy": -11.01, "internal_energy": -2.34, "cluster_size": 16, "cluster_id": 1, "rank_in_cluster": 16}

>  <energy>  (15) 
-8.66

>  <cluster_rmsd>  (15) 
1.46

>  <cluster>  (15) 
1

$$$$

     RDKit          3D

 60 64  0  0  0  0  0  0  0  0999 V2000
  136.3720   77.7600  222.5700 O   0  0  0  0  0  0  0  0  0  0  0  0
  136.4390   76.5880  223.0310 C   0  0  0  0  0  0  0  0  0  0  0  0
  137.4510   75.6600  222.6490 N   0  0  0  0  0  0  0  0  0  0  0  0
  138.4740   76.0830  221.6660 C   0  0  0  0  0  0  0  0  0  0  0  0
  139.6710   75.2520  221.7850 C   0  0  0  0  0  0  0  0  0  0  0  0
  139.5750   74.2290  222.5530 O   0  0  0  0  0  0  0  0  0  0  0  0
  140.9160   75.4320  221.1640 N   0  0  0  0  0  0  0  0  0  0  0  0
  141.7850   74.2700  220.8650 C   0  0  0  0  0  0  0  0  0  0  0  0
  142.5760   74.6340  219.6550 C   0  0  0  0  0  0  0  0  0  0  0  0
  142.3760   76.1140  219.4200 C   0  0  2  0  0  0  0  0  0  0  0  0
  143.6420   76.6930  219.3320 O   0  0  0  0  0  0  0  0  0  0  0  0
  141.6560   76.5590  220.6780 C   0  0  1  0  0  0  0  0  0  0  0  0
  140.8780   77.8100  220.4820 C   0  0  0  0  0  0  0  0  0  0  0  0
  140.9570   78.7280  221.6600 C   0  0  0  0  0  0  0  0  0  0  0  0
  142.1450   79.0090  222.3030 C   0  0  0  0  0  0  0  0  0  0  0  0
  142.2250   79.8550  223.3900 C   0  0  0  0  0  0  0  0  0  0  0  0
  141.0490   80.4290  223.8290 C   0  0  0  0  0  0  0  0  0  0  0  0
  139.8400   80.1960  223.2410 C   0  0  0  0  0  0  0  0  0  0  0  0
  138.5810   80.7860  223.6790 C   0  0  0  0  0  0  0  0  0  0  0  0
  138.0490   80.5770  224.9350 C   0  0  0  0  0  0  0  0  0  0  0  0
  136.8810   81.1260  225.3380 N   0  0  0  0  0  0  0  0  0  0  0  0
  136.1810   81.9120  224.5090 C   0  0  0  0  0  0  0  0  0  0  0  0
  136.6840   82.1400  223.2480 C   0  0  0  0  0  0  0  0  0  0  0  0
  137.8470   81.5890  222.8590 N   0  0  0  0  0  0  0  0  0  0  0  0
  139.8100   79.3430  222.1560 C   0  0  0  0  0  0  0  0  0  0  0  0
  135.4290   76.1420  224.0150 C   0  0  0  0  0  0  0  0  0  0  0  0
  134.5700   77.0640  224.5820 C   0  0  0  0  0  0  0  0  0  0  0  0
  133.6030   76.7300  225.5040 C   0  0  0  0  0  0  0  0  0  0  0  0
  133.5130   75.3970  225.8600 C   0  0  0  0  0  0  0  0  0  0  0  0
  132.5530   75.0250  226.7840 C   0  0  0  0  0  0  0  0  0  0  0  0
  132.4300   73.7060  227.1650 C   0  0  0  0  0  0  0  0  0  0  0  0
  131.4840   73.3620  228.0720 F   0  0  0  0  0  0  0  0  0  0  0  0
  133.2940   72.7890  226.5920 C   0  0  0  0  0  0  0  0  0  0  0  0
  134.2530   73.1620  225.6700 C   0  0  0  0  0  0  0  0  0  0  0  0
  134.3830   74.4960  225.2780 C   0  0  0  0  0  0  0  0  0  0  0  0
  135.3190   74.8510  224.3800 N   0  0  0  0  0  0  0  0  0  0  0  0
  137.4590   74.7050  223.0620 H   0  0  0  0  0  0  0  0  0  0  0  0
  138.0634   75.9835  220.6504 H   0  0  0  0  0  0  0  0  0  0  0  0
  138.7462   77.1304  221.8633 H   0  0  0  0  0  0  0  0  0  0  0  0
  142.4571   74.0699  221.7125 H   0  0  0  0  0  0  0  0  0  0  0  0
  141.1894   73.3614  220.6927 H   0  0  0  0  0  0  0  0  0  0  0  0
  143.6418   74.4195  219.8226 H   0  0  0  0  0  0  0  0  0  0  0  0
  142.2458   74.0515  218.7823 H   0  0  0  0  0  0  0  0  0  0  0  0
  141.8184   76.3808  218.5101 H   0  0  0  0  0  0  0  0  0  0  0  0
  143.8100   77.3620  220.0420 H   0  0  0  0  0  0  0  0  0  0  0  0
  142.3673   76.8588  221.4617 H   0  0  0  0  0  0  0  0  0  0  0  0
  141.2720   78.3351  219.5994 H   0  0  0  0  0  0  0  0  0  0  0  0
  139.8229   77.5284  220.3497 H   0  0  0  0  0  0  0  0  0  0  0  0
  143.0679   78.5384  221.9331 H   0  0  0  0  0  0  0  0  0  0  0  0
  143.1848   80.0631  223.8855 H   0  0  0  0  0  0  0  0  0  0  0  0
  141.0884   81.1068  224.6944 H   0  0  0  0  0  0  0  0  0  0  0  0
  138.5993   79.9357  225.6392 H   0  0  0  0  0  0  0  0  0  0  0  0
  135.2297   82.3631  224.8275 H   0  0  0  0  0  0  0  0  0  0  0  0
  136.1270   82.7816  222.5494 H   0  0  0  0  0  0  0  0  0  0  0  0
  138.8460   79.1419  221.6658 H   0  0  0  0  0  0  0  0  0  0  0  0
  134.6633   78.1181  224.2817 H   0  0  0  0  0  0  0  0  0  0  0  0
  132.9337   77.4881  225.9368 H   0  0  0  0  0  0  0  0  0  0  0  0
  131.8852   75.7847  227.2163 H   0  0  0  0  0  0  0  0  0  0  0  0
  133.2147   71.7302  226.8796 H   0  0  0  0  0  0  0  0  0  0  0  0
  134.9207   72.4007  225.2405 H   0  0  0  0  0  0  0  0  0  0  0  0
  1  2  2  0
  2  3  1  0
  3  4  1  0
  4  5  1  0
  5  6  2  0
  5  7  1  0
  7  8  1  0
  8  9  1  0
  9 10  1  0
 10 11  1  0
 10 12  1  0
 12 13  1  0
 13 14  1  0
 14 15  2  0
 15 16  1  0
 16 17  2  0
 17 18  1  0
 18 19  1  0
 19 20  2  0
 20 21  1  0
 21 22  2  0
 22 23  1  0
 23 24  2  0
 18 25  2  0
  2 26  1  0
 26 27  2  0
 27 28  1  0
 28 29  2  0
 29 30  1  0
 30 31  2  0
 31 32  1  0
 31 33  1  0
 33 34  2  0
 34 35  1  0
 35 36  2  0
 12  7  1  0
 25 14  1  0
 36 26  1  0
 24 19  1  0
 35 29  1  0
  3 37  1  0
  4 38  1  0
  4 39  1  0
  8 40  1  0
  8 41  1  0
  9 42  1  0
  9 43  1  0
 10 44  1  6
 11 45  1  0
 12 46  1  1
 13 47  1  0
 13 48  1  0
 15 49  1  0
 16 50  1  0
 17 51  1  0
 20 52  1  0
 22 53  1  0
 23 54  1  0
 25 55  1  0
 27 56  1  0
 28 57  1  0
 30 58  1  0
 33 59  1  0
 34 60  1  0
M  END
>  <smiles>  (16) 
O=C(NCC(=O)N1CC[C@H](O)[C@H]1Cc1cccc(-c2cnccn2)c1)c1ccc2cc(F)ccc2n1

>  <score_type>  (16) 
oracle

>  <origin>  (16) 
autodockgpu

>  <m_score__min__energy>  (16) 
-10.08

>  <m_primary>  (16) 
energy

>  <rmsd>  (16) 
6.344473621798828

>  <m_score__min__rmsd>  (16) 
6.344473621798828

>  <meeko>  (16) 
{"free_energy": -8.34, "intermolecular_energy": -10.72, "internal_energy": -2.78, "cluster_size": 6, "cluster_id": 6, "rank_in_cluster": 4}

>  <energy>  (16) 
-8.63

>  <cluster_rmsd>  (16) 
1.51

>  <cluster>  (16) 
1

$$$$

     RDKit          3D

 60 64  0  0  0  0  0  0  0  0999 V2000
  140.9500   73.0370  222.3020 O   0  0  0  0  0  0  0  0  0  0  0  0
  139.8850   72.5830  222.8030 C   0  0  0  0  0  0  0  0  0  0  0  0
  138.5890   72.9880  222.3710 N   0  0  0  0  0  0  0  0  0  0  0  0
  138.4790   73.9880  221.2850 C   0  0  0  0  0  0  0  0  0  0  0  0
  139.0880   75.2530  221.6920 C   0  0  0  0  0  0  0  0  0  0  0  0
  138.8490   75.6360  222.8930 O   0  0  0  0  0  0  0  0  0  0  0  0
  139.9070   76.1040  220.9340 N   0  0  0  0  0  0  0  0  0  0  0  0
  139.6310   76.3310  219.4960 C   0  0  0  0  0  0  0  0  0  0  0  0
  140.1160   77.7060  219.1840 C   0  0  0  0  0  0  0  0  0  0  0  0
  140.9320   78.1700  220.3700 C   0  0  2  0  0  0  0  0  0  0  0  0
  142.1720   78.5820  219.8820 O   0  0  0  0  0  0  0  0  0  0  0  0
  141.0610   76.9100  221.2030 C   0  0  1  0  0  0  0  0  0  0  0  0
  141.3350   77.1930  222.6350 C   0  0  0  0  0  0  0  0  0  0  0  0
  141.1090   78.6280  222.9920 C   0  0  0  0  0  0  0  0  0  0  0  0
  142.1030   79.5800  222.9040 C   0  0  0  0  0  0  0  0  0  0  0  0
  141.9020   80.9050  223.2320 C   0  0  0  0  0  0  0  0  0  0  0  0
  140.6410   81.2620  223.6640 C   0  0  0  0  0  0  0  0  0  0  0  0
  139.6110   80.3730  223.7750 C   0  0  0  0  0  0  0  0  0  0  0  0
  138.2680   80.7170  224.2270 C   0  0  0  0  0  0  0  0  0  0  0  0
  137.1260   80.2890  223.5840 C   0  0  0  0  0  0  0  0  0  0  0  0
  135.8820   80.6100  224.0070 N   0  0  0  0  0  0  0  0  0  0  0  0
  135.7130   81.3760  225.0930 C   0  0  0  0  0  0  0  0  0  0  0  0
  136.8330   81.8200  225.7580 C   0  0  0  0  0  0  0  0  0  0  0  0
  138.0650   81.4930  225.3290 N   0  0  0  0  0  0  0  0  0  0  0  0
  139.8610   79.0580  223.4350 C   0  0  0  0  0  0  0  0  0  0  0  0
  139.9690   71.5830  223.8890 C   0  0  0  0  0  0  0  0  0  0  0  0
  139.5040   70.3000  223.6780 C   0  0  0  0  0  0  0  0  0  0  0  0
  139.5470   69.3110  224.6360 C   0  0  0  0  0  0  0  0  0  0  0  0
  140.0880   69.6540  225.8620 C   0  0  0  0  0  0  0  0  0  0  0  0
  140.1470   68.6850  226.8490 C   0  0  0  0  0  0  0  0  0  0  0  0
  140.6790   68.9860  228.0850 C   0  0  0  0  0  0  0  0  0  0  0  0
  140.7270   68.0250  229.0380 F   0  0  0  0  0  0  0  0  0  0  0  0
  141.1420   70.2740  228.2890 C   0  0  0  0  0  0  0  0  0  0  0  0
  141.0820   71.2390  227.3020 C   0  0  0  0  0  0  0  0  0  0  0  0
  140.5450   70.9430  226.0480 C   0  0  0  0  0  0  0  0  0  0  0  0
  140.4910   71.8880  225.0920 N   0  0  0  0  0  0  0  0  0  0  0  0
  137.7440   72.5800  222.8190 H   0  0  0  0  0  0  0  0  0  0  0  0
  138.9945   73.6092  220.3902 H   0  0  0  0  0  0  0  0  0  0  0  0
  137.4150   74.1593  221.0648 H   0  0  0  0  0  0  0  0  0  0  0  0
  140.1678   75.5908  218.8845 H   0  0  0  0  0  0  0  0  0  0  0  0
  138.5582   76.2279  219.2756 H   0  0  0  0  0  0  0  0  0  0  0  0
  140.7413   77.6892  218.2792 H   0  0  0  0  0  0  0  0  0  0  0  0
  139.2716   78.3864  218.9997 H   0  0  0  0  0  0  0  0  0  0  0  0
  140.5028   79.0022  220.9473 H   0  0  0  0  0  0  0  0  0  0  0  0
  142.9290   78.0910  220.2890 H   0  0  0  0  0  0  0  0  0  0  0  0
  141.9512   76.3308  220.9167 H   0  0  0  0  0  0  0  0  0  0  0  0
  140.6713   76.5682  223.2507 H   0  0  0  0  0  0  0  0  0  0  0  0
  142.3950   76.9664  222.8222 H   0  0  0  0  0  0  0  0  0  0  0  0
  143.0996   79.2694  222.5572 H   0  0  0  0  0  0  0  0  0  0  0  0
  142.7120   81.6449  223.1525 H   0  0  0  0  0  0  0  0  0  0  0  0
  140.4570   82.3130  223.9317 H   0  0  0  0  0  0  0  0  0  0  0  0
  137.2311   79.6592  222.6883 H   0  0  0  0  0  0  0  0  0  0  0  0
  134.7053   81.6431  225.4440 H   0  0  0  0  0  0  0  0  0  0  0  0
  136.7191   82.4506  226.6521 H   0  0  0  0  0  0  0  0  0  0  0  0
  139.0454   78.3245  223.5171 H   0  0  0  0  0  0  0  0  0  0  0  0
  139.0772   70.0551  222.6942 H   0  0  0  0  0  0  0  0  0  0  0  0
  139.1694   68.2975  224.4357 H   0  0  0  0  0  0  0  0  0  0  0  0
  139.7685   67.6722  226.6467 H   0  0  0  0  0  0  0  0  0  0  0  0
  141.5710   70.5377  229.2670 H   0  0  0  0  0  0  0  0  0  0  0  0
  141.4614   72.2511  227.5065 H   0  0  0  0  0  0  0  0  0  0  0  0
  1  2  2  0
  2  3  1  0
  3  4  1  0
  4  5  1  0
  5  6  2  0
  5  7  1  0
  7  8  1  0
  8  9  1  0
  9 10  1  0
 10 11  1  0
 10 12  1  0
 12 13  1  0
 13 14  1  0
 14 15  2  0
 15 16  1  0
 16 17  2  0
 17 18  1  0
 18 19  1  0
 19 20  2  0
 20 21  1  0
 21 22  2  0
 22 23  1  0
 23 24  2  0
 18 25  2  0
  2 26  1  0
 26 27  2  0
 27 28  1  0
 28 29  2  0
 29 30  1  0
 30 31  2  0
 31 32  1  0
 31 33  1  0
 33 34  2  0
 34 35  1  0
 35 36  2  0
 12  7  1  0
 25 14  1  0
 36 26  1  0
 24 19  1  0
 35 29  1  0
  3 37  1  0
  4 38  1  0
  4 39  1  0
  8 40  1  0
  8 41  1  0
  9 42  1  0
  9 43  1  0
 10 44  1  1
 11 45  1  0
 12 46  1  6
 13 47  1  0
 13 48  1  0
 15 49  1  0
 16 50  1  0
 17 51  1  0
 20 52  1  0
 22 53  1  0
 23 54  1  0
 25 55  1  0
 27 56  1  0
 28 57  1  0
 30 58  1  0
 33 59  1  0
 34 60  1  0
M  END
>  <smiles>  (17) 
O=C(NCC(=O)N1CC[C@H](O)[C@H]1Cc1cccc(-c2cnccn2)c1)c1ccc2cc(F)ccc2n1

>  <score_type>  (17) 
oracle

>  <origin>  (17) 
autodockgpu

>  <m_score__min__energy>  (17) 
-10.08

>  <m_primary>  (17) 
energy

>  <rmsd>  (17) 
2.2920103719540195

>  <m_score__min__rmsd>  (17) 
2.2920103719540195

>  <meeko>  (17) 
{"free_energy": -9.25, "intermolecular_energy": -11.64, "internal_energy": -1.75, "cluster_size": 16, "cluster_id": 1, "rank_in_cluster": 6}

>  <energy>  (17) 
-9.89

>  <cluster_rmsd>  (17) 
0.0

>  <cluster>  (17) 
2

$$$$

     RDKit          3D

 60 64  0  0  0  0  0  0  0  0999 V2000
  139.8160   73.5060  222.7150 O   0  0  0  0  0  0  0  0  0  0  0  0
  140.0220   72.2730  222.5470 C   0  0  0  0  0  0  0  0  0  0  0  0
  140.2490   71.6900  221.2660 N   0  0  0  0  0  0  0  0  0  0  0  0
  140.2440   72.5670  220.0730 C   0  0  0  0  0  0  0  0  0  0  0  0
  141.6120   72.8850  219.6680 C   0  0  0  0  0  0  0  0  0  0  0  0
  142.3850   71.8840  219.4520 O   0  0  0  0  0  0  0  0  0  0  0  0
  142.1890   74.1500  219.4830 N   0  0  0  0  0  0  0  0  0  0  0  0
  143.6020   74.2800  219.0560 C   0  0  0  0  0  0  0  0  0  0  0  0
  143.6940   75.5500  218.2800 C   0  0  0  0  0  0  0  0  0  0  0  0
  142.4000   76.3010  218.4990 C   0  0  2  0  0  0  0  0  0  0  0  0
  142.7350   77.5830  218.9350 O   0  0  0  0  0  0  0  0  0  0  0  0
  141.7310   75.5030  219.6020 C   0  0  1  0  0  0  0  0  0  0  0  0
  140.2580   75.6890  219.6320 C   0  0  0  0  0  0  0  0  0  0  0  0
  139.7960   76.4420  220.8390 C   0  0  0  0  0  0  0  0  0  0  0  0
  138.5980   76.1720  221.4680 C   0  0  0  0  0  0  0  0  0  0  0  0
  138.1660   76.8630  222.5820 C   0  0  0  0  0  0  0  0  0  0  0  0
  138.9900   77.8610  223.0630 C   0  0  0  0  0  0  0  0  0  0  0  0
  140.1870   78.1800  222.4900 C   0  0  0  0  0  0  0  0  0  0  0  0
  141.0800   79.2270  222.9730 C   0  0  0  0  0  0  0  0  0  0  0  0
  140.6430   80.3060  223.7130 C   0  0  0  0  0  0  0  0  0  0  0  0
  141.4750   81.2740  224.1590 N   0  0  0  0  0  0  0  0  0  0  0  0
  142.7850   81.2180  223.8900 C   0  0  0  0  0  0  0  0  0  0  0  0
  143.2540   80.1540  223.1530 C   0  0  0  0  0  0  0  0  0  0  0  0
  142.4170   79.1960  222.7150 N   0  0  0  0  0  0  0  0  0  0  0  0
  140.5770   77.4610  221.3780 C   0  0  0  0  0  0  0  0  0  0  0  0
  140.0320   71.3770  223.7240 C   0  0  0  0  0  0  0  0  0  0  0  0
  139.5130   70.1010  223.6190 C   0  0  0  0  0  0  0  0  0  0  0  0
  139.4850   69.2070  224.6660 C   0  0  0  0  0  0  0  0  0  0  0  0
  140.0090   69.6390  225.8710 C   0  0  0  0  0  0  0  0  0  0  0  0
  139.9980   68.7670  226.9450 C   0  0  0  0  0  0  0  0  0  0  0  0
  140.5110   69.1590  228.1630 C   0  0  0  0  0  0  0  0  0  0  0  0
  140.4890   68.2910  229.2030 F   0  0  0  0  0  0  0  0  0  0  0  0
  141.0280   70.4400  228.2600 C   0  0  0  0  0  0  0  0  0  0  0  0
  141.0380   71.3090  227.1860 C   0  0  0  0  0  0  0  0  0  0  0  0
  140.5210   70.9190  225.9490 C   0  0  0  0  0  0  0  0  0  0  0  0
  140.5350   71.7710  224.9080 N   0  0  0  0  0  0  0  0  0  0  0  0
  140.4140   70.6670  221.1860 H   0  0  0  0  0  0  0  0  0  0  0  0
  139.7320   72.0520  219.2468 H   0  0  0  0  0  0  0  0  0  0  0  0
  139.7188   73.5015  220.3196 H   0  0  0  0  0  0  0  0  0  0  0  0
  144.2623   74.3228  219.9348 H   0  0  0  0  0  0  0  0  0  0  0  0
  143.9150   73.4184  218.4479 H   0  0  0  0  0  0  0  0  0  0  0  0
  144.5435   76.1501  218.6381 H   0  0  0  0  0  0  0  0  0  0  0  0
  143.8507   75.3444  217.2108 H   0  0  0  0  0  0  0  0  0  0  0  0
  141.7532   76.4034  217.6152 H   0  0  0  0  0  0  0  0  0  0  0  0
  143.3470   77.5770  219.7130 H   0  0  0  0  0  0  0  0  0  0  0  0
  142.0223   75.8714  220.5967 H   0  0  0  0  0  0  0  0  0  0  0  0
  139.9551   76.2454  218.7328 H   0  0  0  0  0  0  0  0  0  0  0  0
  139.7975   74.6906  219.6667 H   0  0  0  0  0  0  0  0  0  0  0  0
  137.9600   75.3719  221.0645 H   0  0  0  0  0  0  0  0  0  0  0  0
  137.2063   76.6286  223.0659 H   0  0  0  0  0  0  0  0  0  0  0  0
  138.6665   78.4257  223.9499 H   0  0  0  0  0  0  0  0  0  0  0  0
  139.5716   80.3822  223.9504 H   0  0  0  0  0  0  0  0  0  0  0  0
  143.4688   82.0015  224.2484 H   0  0  0  0  0  0  0  0  0  0  0  0
  144.3267   80.0862  222.9192 H   0  0  0  0  0  0  0  0  0  0  0  0
  141.5385   77.7015  220.9010 H   0  0  0  0  0  0  0  0  0  0  0  0
  139.1012   69.7830  222.6498 H   0  0  0  0  0  0  0  0  0  0  0  0
  139.0656   68.1968  224.5495 H   0  0  0  0  0  0  0  0  0  0  0  0
  139.5783   67.7571  226.8266 H   0  0  0  0  0  0  0  0  0  0  0  0
  141.4434   70.7759  229.2215 H   0  0  0  0  0  0  0  0  0  0  0  0
  141.4576   72.3186  227.3067 H   0  0  0  0  0  0  0  0  0  0  0  0
  1  2  2  0
  2  3  1  0
  3  4  1  0
  4  5  1  0
  5  6  2  0
  5  7  1  0
  7  8  1  0
  8  9  1  0
  9 10  1  0
 10 11  1  0
 10 12  1  0
 12 13  1  0
 13 14  1  0
 14 15  2  0
 15 16  1  0
 16 17  2  0
 17 18  1  0
 18 19  1  0
 19 20  2  0
 20 21  1  0
 21 22  2  0
 22 23  1  0
 23 24  2  0
 18 25  2  0
  2 26  1  0
 26 27  2  0
 27 28  1  0
 28 29  2  0
 29 30  1  0
 30 31  2  0
 31 32  1  0
 31 33  1  0
 33 34  2  0
 34 35  1  0
 35 36  2  0
 12  7  1  0
 25 14  1  0
 36 26  1  0
 24 19  1  0
 35 29  1  0
  3 37  1  0
  4 38  1  0
  4 39  1  0
  8 40  1  0
  8 41  1  0
  9 42  1  0
  9 43  1  0
 10 44  1  6
 11 45  1  0
 12 46  1  1
 13 47  1  0
 13 48  1  0
 15 49  1  0
 16 50  1  0
 17 51  1  0
 20 52  1  0
 22 53  1  0
 23 54  1  0
 25 55  1  0
 27 56  1  0
 28 57  1  0
 30 58  1  0
 33 59  1  0
 34 60  1  0
M  END
>  <smiles>  (18) 
O=C(NCC(=O)N1CC[C@H](O)[C@H]1Cc1cccc(-c2cnccn2)c1)c1ccc2cc(F)ccc2n1

>  <score_type>  (18) 
oracle

>  <origin>  (18) 
autodockgpu

>  <m_score__min__energy>  (18) 
-10.08

>  <m_primary>  (18) 
energy

>  <rmsd>  (18) 
2.6612218602767896

>  <m_score__min__rmsd>  (18) 
2.6612218602767896

>  <meeko>  (18) 
{"free_energy": -8.98, "intermolecular_energy": -11.36, "internal_energy": -1.94, "cluster_size": 16, "cluster_id": 1, "rank_in_cluster": 11}

>  <energy>  (18) 
-9.81

>  <cluster_rmsd>  (18) 
0.45

>  <cluster>  (18) 
2

$$$$

     RDKit          3D

 60 64  0  0  0  0  0  0  0  0999 V2000
  136.3460   77.2740  222.6730 O   0  0  0  0  0  0  0  0  0  0  0  0
  136.4910   76.0970  223.1040 C   0  0  0  0  0  0  0  0  0  0  0  0
  137.5610   75.2480  222.6990 N   0  0  0  0  0  0  0  0  0  0  0  0
  138.5530   75.7640  221.7280 C   0  0  0  0  0  0  0  0  0  0  0  0
  139.7590   74.9380  221.7440 C   0  0  0  0  0  0  0  0  0  0  0  0
  139.6640   73.8080  222.3440 O   0  0  0  0  0  0  0  0  0  0  0  0
  141.0130   75.2250  221.1820 N   0  0  0  0  0  0  0  0  0  0  0  0
  141.9760   74.1370  220.8920 C   0  0  0  0  0  0  0  0  0  0  0  0
  142.7890   74.5910  219.7270 C   0  0  0  0  0  0  0  0  0  0  0  0
  142.4920   76.0590  219.5220 C   0  0  2  0  0  0  0  0  0  0  0  0
  143.7150   76.7300  219.5050 O   0  0  0  0  0  0  0  0  0  0  0  0
  141.6890   76.4150  220.7580 C   0  0  1  0  0  0  0  0  0  0  0  0
  140.8310   77.6120  220.5610 C   0  0  0  0  0  0  0  0  0  0  0  0
  140.9010   78.5670  221.7100 C   0  0  0  0  0  0  0  0  0  0  0  0
  142.0970   79.0410  222.2090 C   0  0  0  0  0  0  0  0  0  0  0  0
  142.1690   79.9220  223.2680 C   0  0  0  0  0  0  0  0  0  0  0  0
  140.9760   80.3270  223.8320 C   0  0  0  0  0  0  0  0  0  0  0  0
  139.7580   79.8990  223.3900 C   0  0  0  0  0  0  0  0  0  0  0  0
  138.4810   80.3080  223.9620 C   0  0  0  0  0  0  0  0  0  0  0  0
  137.2680   79.8310  223.5100 C   0  0  0  0  0  0  0  0  0  0  0  0
  136.0850   80.2130  224.0440 N   0  0  0  0  0  0  0  0  0  0  0  0
  136.0510   81.0910  225.0550 C   0  0  0  0  0  0  0  0  0  0  0  0
  137.2440   81.5860  225.5290 C   0  0  0  0  0  0  0  0  0  0  0  0
  138.4140   81.1980  224.9910 N   0  0  0  0  0  0  0  0  0  0  0  0
  139.7370   79.0190  222.3260 C   0  0  0  0  0  0  0  0  0  0  0  0
  135.5130   75.5590  224.0740 C   0  0  0  0  0  0  0  0  0  0  0  0
  134.6920   76.4240  224.7710 C   0  0  0  0  0  0  0  0  0  0  0  0
  133.7570   76.0050  225.6910 C   0  0  0  0  0  0  0  0  0  0  0  0
  133.6600   74.6420  225.9050 C   0  0  0  0  0  0  0  0  0  0  0  0
  132.7300   74.1840  226.8220 C   0  0  0  0  0  0  0  0  0  0  0  0
  132.6010   72.8330  227.0650 C   0  0  0  0  0  0  0  0  0  0  0  0
  131.6860   72.4050  227.9670 F   0  0  0  0  0  0  0  0  0  0  0  0
  133.4280   71.9730  226.3620 C   0  0  0  0  0  0  0  0  0  0  0  0
  134.3550   72.4320  225.4470 C   0  0  0  0  0  0  0  0  0  0  0  0
  134.4910   73.7990  225.1960 C   0  0  0  0  0  0  0  0  0  0  0  0
  135.3970   74.2380  224.3030 N   0  0  0  0  0  0  0  0  0  0  0  0
  137.6330   74.2850  223.0860 H   0  0  0  0  0  0  0  0  0  0  0  0
  138.1153   75.7469  220.7190 H   0  0  0  0  0  0  0  0  0  0  0  0
  138.8221   76.7938  222.0059 H   0  0  0  0  0  0  0  0  0  0  0  0
  142.6247   73.9614  221.7629 H   0  0  0  0  0  0  0  0  0  0  0  0
  141.4556   73.1935  220.6706 H   0  0  0  0  0  0  0  0  0  0  0  0
  143.8596   74.4483  219.9356 H   0  0  0  0  0  0  0  0  0  0  0  0
  142.5391   74.0117  218.8259 H   0  0  0  0  0  0  0  0  0  0  0  0
  141.9554   76.3111  218.5954 H   0  0  0  0  0  0  0  0  0  0  0  0
  143.8110   77.3750  220.2490 H   0  0  0  0  0  0  0  0  0  0  0  0
  142.3437   76.7422  221.5791 H   0  0  0  0  0  0  0  0  0  0  0  0
  141.1582   78.1335  219.6494 H   0  0  0  0  0  0  0  0  0  0  0  0
  139.7902   77.2654  220.4797 H   0  0  0  0  0  0  0  0  0  0  0  0
  143.0334   78.7017  221.7421 H   0  0  0  0  0  0  0  0  0  0  0  0
  143.1355   80.2861  223.6467 H   0  0  0  0  0  0  0  0  0  0  0  0
  141.0087   81.0286  224.6786 H   0  0  0  0  0  0  0  0  0  0  0  0
  137.2624   79.1092  222.6799 H   0  0  0  0  0  0  0  0  0  0  0  0
  135.0940   81.4081  225.4949 H   0  0  0  0  0  0  0  0  0  0  0  0
  137.2409   82.3083  226.3586 H   0  0  0  0  0  0  0  0  0  0  0  0
  138.7660   78.6624  221.9518 H   0  0  0  0  0  0  0  0  0  0  0  0
  134.7902   77.5031  224.5814 H   0  0  0  0  0  0  0  0  0  0  0  0
  133.1179   76.7200  226.2299 H   0  0  0  0  0  0  0  0  0  0  0  0
  132.0913   74.9007  227.3590 H   0  0  0  0  0  0  0  0  0  0  0  0
  133.3439   70.8904  226.5379 H   0  0  0  0  0  0  0  0  0  0  0  0
  134.9925   71.7138  224.9106 H   0  0  0  0  0  0  0  0  0  0  0  0
  1  2  2  0
  2  3  1  0
  3  4  1  0
  4  5  1  0
  5  6  2  0
  5  7  1  0
  7  8  1  0
  8  9  1  0
  9 10  1  0
 10 11  1  0
 10 12  1  0
 12 13  1  0
 13 14  1  0
 14 15  2  0
 15 16  1  0
 16 17  2  0
 17 18  1  0
 18 19  1  0
 19 20  2  0
 20 21  1  0
 21 22  2  0
 22 23  1  0
 23 24  2  0
 18 25  2  0
  2 26  1  0
 26 27  2  0
 27 28  1  0
 28 29  2  0
 29 30  1  0
 30 31  2  0
 31 32  1  0
 31 33  1  0
 33 34  2  0
 34 35  1  0
 35 36  2  0
 12  7  1  0
 25 14  1  0
 36 26  1  0
 24 19  1  0
 35 29  1  0
  3 37  1  0
  4 38  1  0
  4 39  1  0
  8 40  1  0
  8 41  1  0
  9 42  1  0
  9 43  1  0
 10 44  1  6
 11 45  1  0
 12 46  1  1
 13 47  1  0
 13 48  1  0
 15 49  1  0
 16 50  1  0
 17 51  1  0
 20 52  1  0
 22 53  1  0
 23 54  1  0
 25 55  1  0
 27 56  1  0
 28 57  1  0
 30 58  1  0
 33 59  1  0
 34 60  1  0
M  END
>  <smiles>  (19) 
O=C(NCC(=O)N1CC[C@H](O)[C@H]1Cc1cccc(-c2cnccn2)c1)c1ccc2cc(F)ccc2n1

>  <score_type>  (19) 
oracle

>  <origin>  (19) 
autodockgpu

>  <m_score__min__energy>  (19) 
-10.08

>  <m_primary>  (19) 
energy

>  <rmsd>  (19) 
6.048057614324038

>  <m_score__min__rmsd>  (19) 
6.048057614324038

>  <meeko>  (19) 
{"free_energy": -8.76, "intermolecular_energy": -11.15, "internal_energy": -2.75, "cluster_size": 6, "cluster_id": 6, "rank_in_cluster": 1}

>  <energy>  (19) 
-9.71

>  <cluster_rmsd>  (19) 
0.59

>  <cluster>  (19) 
2

$$$$

     RDKit          3D

 60 64  0  0  0  0  0  0  0  0999 V2000
  140.2370   73.1880  222.7210 O   0  0  0  0  0  0  0  0  0  0  0  0
  139.9360   71.9690  222.6020 C   0  0  0  0  0  0  0  0  0  0  0  0
  139.5540   71.3810  221.3610 N   0  0  0  0  0  0  0  0  0  0  0  0
  139.5040   72.2350  220.1520 C   0  0  0  0  0  0  0  0  0  0  0  0
  138.3520   73.1330  220.2100 C   0  0  0  0  0  0  0  0  0  0  0  0
  137.6720   73.2520  219.1280 O   0  0  0  0  0  0  0  0  0  0  0  0
  137.8940   73.8850  221.3020 N   0  0  0  0  0  0  0  0  0  0  0  0
  138.4270   75.2430  221.5610 C   0  0  0  0  0  0  0  0  0  0  0  0
  137.3340   76.0070  222.2270 C   0  0  0  0  0  0  0  0  0  0  0  0
  136.2650   75.0090  222.6140 C   0  0  2  0  0  0  0  0  0  0  0  0
  136.0090   75.1850  223.9740 O   0  0  0  0  0  0  0  0  0  0  0  0
  136.9380   73.6770  222.3500 C   0  0  1  0  0  0  0  0  0  0  0  0
  135.9660   72.5750  222.1310 C   0  0  0  0  0  0  0  0  0  0  0  0
  135.5290   71.9300  223.4070 C   0  0  0  0  0  0  0  0  0  0  0  0
  135.9250   70.6580  223.7690 C   0  0  0  0  0  0  0  0  0  0  0  0
  135.5260   70.0570  224.9450 C   0  0  0  0  0  0  0  0  0  0  0  0
  134.6950   70.7830  225.7730 C   0  0  0  0  0  0  0  0  0  0  0  0
  134.2640   72.0440  225.4780 C   0  0  0  0  0  0  0  0  0  0  0  0
  133.3860   72.8370  226.3300 C   0  0  0  0  0  0  0  0  0  0  0  0
  132.3220   72.2980  227.0230 C   0  0  0  0  0  0  0  0  0  0  0  0
  131.5110   73.0380  227.8130 N   0  0  0  0  0  0  0  0  0  0  0  0
  131.7180   74.3540  227.9520 C   0  0  0  0  0  0  0  0  0  0  0  0
  132.7720   74.9230  227.2740 C   0  0  0  0  0  0  0  0  0  0  0  0
  133.5730   74.1770  226.4920 N   0  0  0  0  0  0  0  0  0  0  0  0
  134.6900   72.6040  224.2910 C   0  0  0  0  0  0  0  0  0  0  0  0
  139.9790   71.0960  223.7950 C   0  0  0  0  0  0  0  0  0  0  0  0
  139.4970   69.8040  223.7170 C   0  0  0  0  0  0  0  0  0  0  0  0
  139.5000   68.9300  224.7810 C   0  0  0  0  0  0  0  0  0  0  0  0
  140.0190   69.4000  225.9740 C   0  0  0  0  0  0  0  0  0  0  0  0
  140.0390   68.5480  227.0650 C   0  0  0  0  0  0  0  0  0  0  0  0
  140.5470   68.9780  228.2720 C   0  0  0  0  0  0  0  0  0  0  0  0
  140.5570   68.1300  229.3280 F   0  0  0  0  0  0  0  0  0  0  0  0
  141.0280   70.2740  228.3410 C   0  0  0  0  0  0  0  0  0  0  0  0
  141.0070   71.1230  227.2510 C   0  0  0  0  0  0  0  0  0  0  0  0
  140.4940   70.6950  226.0250 C   0  0  0  0  0  0  0  0  0  0  0  0
  140.4770   71.5270  224.9690 N   0  0  0  0  0  0  0  0  0  0  0  0
  139.3160   70.3690  221.3200 H   0  0  0  0  0  0  0  0  0  0  0  0
  140.4261   72.8317  220.0913 H   0  0  0  0  0  0  0  0  0  0  0  0
  139.4109   71.5920  219.2644 H   0  0  0  0  0  0  0  0  0  0  0  0
  139.3068   75.1868  222.2189 H   0  0  0  0  0  0  0  0  0  0  0  0
  138.7417   75.7315  220.6270 H   0  0  0  0  0  0  0  0  0  0  0  0
  137.7200   76.5132  223.1241 H   0  0  0  0  0  0  0  0  0  0  0  0
  136.9267   76.7752  221.5532 H   0  0  0  0  0  0  0  0  0  0  0  0
  135.3100   75.1009  222.0760 H   0  0  0  0  0  0  0  0  0  0  0  0
  136.4720   74.5190  224.5420 H   0  0  0  0  0  0  0  0  0  0  0  0
  137.4819   73.3213  223.2375 H   0  0  0  0  0  0  0  0  0  0  0  0
  135.0805   72.9827  221.6213 H   0  0  0  0  0  0  0  0  0  0  0  0
  136.4662   71.8061  221.5240 H   0  0  0  0  0  0  0  0  0  0  0  0
  136.5870   70.0997  223.0907 H   0  0  0  0  0  0  0  0  0  0  0  0
  135.8564   69.0421  225.2111 H   0  0  0  0  0  0  0  0  0  0  0  0
  134.3639   70.3236  226.7161 H   0  0  0  0  0  0  0  0  0  0  0  0
  132.1246   71.2199  226.9291 H   0  0  0  0  0  0  0  0  0  0  0  0
  131.0628   74.9640  228.5912 H   0  0  0  0  0  0  0  0  0  0  0  0
  132.9619   76.0020  227.3729 H   0  0  0  0  0  0  0  0  0  0  0  0
  134.3548   73.6196  224.0336 H   0  0  0  0  0  0  0  0  0  0  0  0
  139.0901   69.4556  222.7562 H   0  0  0  0  0  0  0  0  0  0  0  0
  139.1082   67.9065  224.6868 H   0  0  0  0  0  0  0  0  0  0  0  0
  139.6481   67.5243  226.9683 H   0  0  0  0  0  0  0  0  0  0  0  0
  141.4398   70.6395  229.2933 H   0  0  0  0  0  0  0  0  0  0  0  0
  141.3983   72.1462  227.3502 H   0  0  0  0  0  0  0  0  0  0  0  0
  1  2  2  0
  2  3  1  0
  3  4  1  0
  4  5  1  0
  5  6  2  0
  5  7  1  0
  7  8  1  0
  8  9  1  0
  9 10  1  0
 10 11  1  0
 10 12  1  0
 12 13  1  0
 13 14  1  0
 14 15  2  0
 15 16  1  0
 16 17  2  0
 17 18  1  0
 18 19  1  0
 19 20  2  0
 20 21  1  0
 21 22  2  0
 22 23  1  0
 23 24  2  0
 18 25  2  0
  2 26  1  0
 26 27  2  0
 27 28  1  0
 28 29  2  0
 29 30  1  0
 30 31  2  0
 31 32  1  0
 31 33  1  0
 33 34  2  0
 34 35  1  0
 35 36  2  0
 12  7  1  0
 25 14  1  0
 36 26  1  0
 24 19  1  0
 35 29  1  0
  3 37  1  0
  4 38  1  0
  4 39  1  0
  8 40  1  0
  8 41  1  0
  9 42  1  0
  9 43  1  0
 10 44  1  6
 11 45  1  0
 12 46  1  1
 13 47  1  0
 13 48  1  0
 15 49  1  0
 16 50  1  0
 17 51  1  0
 20 52  1  0
 22 53  1  0
 23 54  1  0
 25 55  1  0
 27 56  1  0
 28 57  1  0
 30 58  1  0
 33 59  1  0
 34 60  1  0
M  END
>  <smiles>  (20) 
O=C(NCC(=O)N1CC[C@H](O)[C@H]1Cc1cccc(-c2cnccn2)c1)c1ccc2cc(F)ccc2n1

>  <score_type>  (20) 
oracle

>  <origin>  (20) 
autodockgpu

>  <m_score__min__energy>  (20) 
-10.08

>  <m_primary>  (20) 
energy

>  <rmsd>  (20) 
4.276718441122721

>  <m_score__min__rmsd>  (20) 
4.276718441122721

>  <meeko>  (20) 
{"free_energy": -8.36, "intermolecular_energy": -10.74, "internal_energy": -2.46, "cluster_size": 5, "cluster_id": 7, "rank_in_cluster": 2}

>  <energy>  (20) 
-9.41

>  <cluster_rmsd>  (20) 
0.62

>  <cluster>  (20) 
2

$$$$

     RDKit          3D

 60 64  0  0  0  0  0  0  0  0999 V2000
  139.7020   71.1000  220.9480 O   0  0  0  0  0  0  0  0  0  0  0  0
  140.1050   71.6680  222.0000 C   0  0  0  0  0  0  0  0  0  0  0  0
  140.6530   72.9830  222.0100 N   0  0  0  0  0  0  0  0  0  0  0  0
  140.7580   73.7230  220.7320 C   0  0  0  0  0  0  0  0  0  0  0  0
  141.0350   75.1370  220.9830 C   0  0  0  0  0  0  0  0  0  0  0  0
  141.0180   75.5080  222.2110 O   0  0  0  0  0  0  0  0  0  0  0  0
  141.3200   76.1430  220.0460 N   0  0  0  0  0  0  0  0  0  0  0  0
  141.2100   77.5730  220.4190 C   0  0  0  0  0  0  0  0  0  0  0  0
  142.2020   78.3050  219.5820 C   0  0  0  0  0  0  0  0  0  0  0  0
  142.6870   77.3430  218.5200 C   0  0  2  0  0  0  0  0  0  0  0  0
  142.5130   77.9690  217.2860 O   0  0  0  0  0  0  0  0  0  0  0  0
  141.7430   76.1670  218.6780 C   0  0  1  0  0  0  0  0  0  0  0  0
  142.3120   74.9000  218.1520 C   0  0  0  0  0  0  0  0  0  0  0  0
  143.3790   74.3370  219.0360 C   0  0  0  0  0  0  0  0  0  0  0  0
  144.0830   75.1120  219.9360 C   0  0  0  0  0  0  0  0  0  0  0  0
  145.0680   74.5990  220.7540 C   0  0  0  0  0  0  0  0  0  0  0  0
  145.3390   73.2500  220.6450 C   0  0  0  0  0  0  0  0  0  0  0  0
  144.6830   72.4250  219.7780 C   0  0  0  0  0  0  0  0  0  0  0  0
  144.9430   70.9980  219.6380 C   0  0  0  0  0  0  0  0  0  0  0  0
  144.0780   70.0270  220.0980 C   0  0  0  0  0  0  0  0  0  0  0  0
  144.3240   68.7030  219.9660 N   0  0  0  0  0  0  0  0  0  0  0  0
  145.4450   68.2790  219.3690 C   0  0  0  0  0  0  0  0  0  0  0  0
  146.3300   69.2230  218.8990 C   0  0  0  0  0  0  0  0  0  0  0  0
  146.0750   70.5360  219.0350 N   0  0  0  0  0  0  0  0  0  0  0  0
  143.7040   72.9840  218.9800 C   0  0  0  0  0  0  0  0  0  0  0  0
  140.0110   70.9490  223.2880 C   0  0  0  0  0  0  0  0  0  0  0  0
  139.4160   69.7030  223.3370 C   0  0  0  0  0  0  0  0  0  0  0  0
  139.2880   68.9690  224.4950 C   0  0  0  0  0  0  0  0  0  0  0  0
  139.7910   69.5370  225.6520 C   0  0  0  0  0  0  0  0  0  0  0  0
  139.6810   68.8270  226.8350 C   0  0  0  0  0  0  0  0  0  0  0  0
  140.1690   69.3570  228.0110 C   0  0  0  0  0  0  0  0  0  0  0  0
  140.0510   68.6480  229.1580 F   0  0  0  0  0  0  0  0  0  0  0  0
  140.7640   70.6060  227.9530 C   0  0  0  0  0  0  0  0  0  0  0  0
  140.8720   71.3130  226.7710 C   0  0  0  0  0  0  0  0  0  0  0  0
  140.3810   70.7830  225.5770 C   0  0  0  0  0  0  0  0  0  0  0  0
  140.4910   71.4770  224.4300 N   0  0  0  0  0  0  0  0  0  0  0  0
  140.9700   73.4040  222.9070 H   0  0  0  0  0  0  0  0  0  0  0  0
  141.5740   73.2949  220.1312 H   0  0  0  0  0  0  0  0  0  0  0  0
  139.8045   73.6368  220.1903 H   0  0  0  0  0  0  0  0  0  0  0  0
  140.1941   77.9421  220.2147 H   0  0  0  0  0  0  0  0  0  0  0  0
  141.4070   77.7212  221.4910 H   0  0  0  0  0  0  0  0  0  0  0  0
  141.7266   79.1781  219.1110 H   0  0  0  0  0  0  0  0  0  0  0  0
  143.0410   78.6650  220.1956 H   0  0  0  0  0  0  0  0  0  0  0  0
  143.7410   77.0379  218.5976 H   0  0  0  0  0  0  0  0  0  0  0  0
  143.2680   78.5620  217.0460 H   0  0  0  0  0  0  0  0  0  0  0  0
  140.8469   76.2859  218.0512 H   0  0  0  0  0  0  0  0  0  0  0  0
  141.5024   74.1607  218.0626 H   0  0  0  0  0  0  0  0  0  0  0  0
  142.7701   75.1206  217.1765 H   0  0  0  0  0  0  0  0  0  0  0  0
  143.8483   76.1845  220.0036 H   0  0  0  0  0  0  0  0  0  0  0  0
  145.6145   75.2380  221.4633 H   0  0  0  0  0  0  0  0  0  0  0  0
  146.1210   72.8193  221.2876 H   0  0  0  0  0  0  0  0  0  0  0  0
  143.1481   70.3426  220.5936 H   0  0  0  0  0  0  0  0  0  0  0  0
  145.6533   67.2047  219.2570 H   0  0  0  0  0  0  0  0  0  0  0  0
  147.2581   68.8987  218.4056 H   0  0  0  0  0  0  0  0  0  0  0  0
  143.1615   72.3372  218.2748 H   0  0  0  0  0  0  0  0  0  0  0  0
  139.0242   69.2751  222.4024 H   0  0  0  0  0  0  0  0  0  0  0  0
  138.8089   67.9788  224.5000 H   0  0  0  0  0  0  0  0  0  0  0  0
  139.2026   67.8365  226.8372 H   0  0  0  0  0  0  0  0  0  0  0  0
  141.1633   71.0493  228.8772 H   0  0  0  0  0  0  0  0  0  0  0  0
  141.3499   72.3038  226.7710 H   0  0  0  0  0  0  0  0  0  0  0  0
  1  2  2  0
  2  3  1  0
  3  4  1  0
  4  5  1  0
  5  6  2  0
  5  7  1  0
  7  8  1  0
  8  9  1  0
  9 10  1  0
 10 11  1  0
 10 12  1  0
 12 13  1  0
 13 14  1  0
 14 15  2  0
 15 16  1  0
 16 17  2  0
 17 18  1  0
 18 19  1  0
 19 20  2  0
 20 21  1  0
 21 22  2  0
 22 23  1  0
 23 24  2  0
 18 25  2  0
  2 26  1  0
 26 27  2  0
 27 28  1  0
 28 29  2  0
 29 30  1  0
 30 31  2  0
 31 32  1  0
 31 33  1  0
 33 34  2  0
 34 35  1  0
 35 36  2  0
 12  7  1  0
 25 14  1  0
 36 26  1  0
 24 19  1  0
 35 29  1  0
  3 37  1  0
  4 38  1  0
  4 39  1  0
  8 40  1  0
  8 41  1  0
  9 42  1  0
  9 43  1  0
 10 44  1  1
 11 45  1  0
 12 46  1  6
 13 47  1  0
 13 48  1  0
 15 49  1  0
 16 50  1  0
 17 51  1  0
 20 52  1  0
 22 53  1  0
 23 54  1  0
 25 55  1  0
 27 56  1  0
 28 57  1  0
 30 58  1  0
 33 59  1  0
 34 60  1  0
M  END
>  <smiles>  (21) 
O=C(NCC(=O)N1CC[C@H](O)[C@H]1Cc1cccc(-c2cnccn2)c1)c1ccc2cc(F)ccc2n1

>  <score_type>  (21) 
oracle

>  <origin>  (21) 
autodockgpu

>  <m_score__min__energy>  (21) 
-10.08

>  <m_primary>  (21) 
energy

>  <rmsd>  (21) 
2.2980476545549045

>  <m_score__min__rmsd>  (21) 
2.2980476545549045

>  <meeko>  (21) 
{"free_energy": -8.63, "intermolecular_energy": -11.02, "internal_energy": -2.5, "cluster_size": 5, "cluster_id": 3, "rank_in_cluster": 5}

>  <energy>  (21) 
-9.41

>  <cluster_rmsd>  (21) 
1.61

>  <cluster>  (21) 
2

$$$$

     RDKit          3D

 60 64  0  0  0  0  0  0  0  0999 V2000
  138.8250   70.8530  221.6490 O   0  0  0  0  0  0  0  0  0  0  0  0
  139.2820   71.3860  222.6980 C   0  0  0  0  0  0  0  0  0  0  0  0
  139.6180   72.7680  222.7840 N   0  0  0  0  0  0  0  0  0  0  0  0
  139.4250   73.6250  221.5910 C   0  0  0  0  0  0  0  0  0  0  0  0
  139.7370   75.0170  221.9090 C   0  0  0  0  0  0  0  0  0  0  0  0
  140.9820   75.3250  221.9470 O   0  0  0  0  0  0  0  0  0  0  0  0
  138.8430   76.0650  222.1780 N   0  0  0  0  0  0  0  0  0  0  0  0
  139.3370   77.4510  222.3550 C   0  0  0  0  0  0  0  0  0  0  0  0
  138.2390   78.3520  221.9010 C   0  0  0  0  0  0  0  0  0  0  0  0
  137.0030   77.4980  221.7310 C   0  0  2  0  0  0  0  0  0  0  0  0
  135.9830   78.0940  222.4730 O   0  0  0  0  0  0  0  0  0  0  0  0
  137.4230   76.1740  222.3390 C   0  0  1  0  0  0  0  0  0  0  0  0
  136.6240   75.0300  221.8320 C   0  0  0  0  0  0  0  0  0  0  0  0
  136.0600   74.1880  222.9330 C   0  0  0  0  0  0  0  0  0  0  0  0
  136.3170   72.8360  223.0390 C   0  0  0  0  0  0  0  0  0  0  0  0
  135.8000   72.0540  224.0510 C   0  0  0  0  0  0  0  0  0  0  0  0
  134.9960   72.6790  224.9820 C   0  0  0  0  0  0  0  0  0  0  0  0
  134.7010   74.0110  224.9380 C   0  0  0  0  0  0  0  0  0  0  0  0
  133.8560   74.7020  225.9050 C   0  0  0  0  0  0  0  0  0  0  0  0
  133.7170   76.0740  225.9370 C   0  0  0  0  0  0  0  0  0  0  0  0
  132.9310   76.7110  226.8350 N   0  0  0  0  0  0  0  0  0  0  0  0
  132.2450   76.0130  227.7490 C   0  0  0  0  0  0  0  0  0  0  0  0
  132.3620   74.6410  227.7450 C   0  0  0  0  0  0  0  0  0  0  0  0
  133.1450   74.0190  226.8460 N   0  0  0  0  0  0  0  0  0  0  0  0
  135.2410   74.7530  223.9070 C   0  0  0  0  0  0  0  0  0  0  0  0
  139.4830   70.5500  223.9010 C   0  0  0  0  0  0  0  0  0  0  0  0
  139.0530   69.2370  223.9040 C   0  0  0  0  0  0  0  0  0  0  0  0
  139.2030   68.3940  224.9830 C   0  0  0  0  0  0  0  0  0  0  0  0
  139.8170   68.9200  226.1050 C   0  0  0  0  0  0  0  0  0  0  0  0
  139.9840   68.1010  227.2080 C   0  0  0  0  0  0  0  0  0  0  0  0
  140.5920   68.5860  228.3470 C   0  0  0  0  0  0  0  0  0  0  0  0
  140.7460   67.7690  229.4160 F   0  0  0  0  0  0  0  0  0  0  0  0
  141.0190   69.9020  228.3360 C   0  0  0  0  0  0  0  0  0  0  0  0
  140.8510   70.7180  227.2330 C   0  0  0  0  0  0  0  0  0  0  0  0
  140.2370   70.2340  226.0760 C   0  0  0  0  0  0  0  0  0  0  0  0
  140.0770   71.0350  225.0070 N   0  0  0  0  0  0  0  0  0  0  0  0
  139.9910   73.1550  223.6740 H   0  0  0  0  0  0  0  0  0  0  0  0
  140.0891   73.2795  220.7850 H   0  0  0  0  0  0  0  0  0  0  0  0
  138.3751   73.5587  221.2695 H   0  0  0  0  0  0  0  0  0  0  0  0
  139.5702   77.6392  223.4134 H   0  0  0  0  0  0  0  0  0  0  0  0
  140.2573   77.6225  221.7774 H   0  0  0  0  0  0  0  0  0  0  0  0
  138.0569   79.1333  222.6535 H   0  0  0  0  0  0  0  0  0  0  0  0
  138.5052   78.8471  220.9555 H   0  0  0  0  0  0  0  0  0  0  0  0
  136.6439   77.3805  220.6979 H   0  0  0  0  0  0  0  0  0  0  0  0
  136.3240   78.7040  223.1740 H   0  0  0  0  0  0  0  0  0  0  0  0
  137.2018   76.1405  223.4160 H   0  0  0  0  0  0  0  0  0  0  0  0
  135.7929   75.4216  221.2271 H   0  0  0  0  0  0  0  0  0  0  0  0
  137.2950   74.3934  221.2366 H   0  0  0  0  0  0  0  0  0  0  0  0
  136.9616   72.3618  222.2843 H   0  0  0  0  0  0  0  0  0  0  0  0
  136.0194   70.9779  224.1131 H   0  0  0  0  0  0  0  0  0  0  0  0
  134.5727   72.0753  225.7983 H   0  0  0  0  0  0  0  0  0  0  0  0
  134.2692   76.6762  225.2004 H   0  0  0  0  0  0  0  0  0  0  0  0
  131.6045   76.5225  228.4840 H   0  0  0  0  0  0  0  0  0  0  0  0
  131.8081   74.0464  228.4864 H   0  0  0  0  0  0  0  0  0  0  0  0
  135.0164   75.8285  223.8529 H   0  0  0  0  0  0  0  0  0  0  0  0
  138.5662   68.8450  222.9989 H   0  0  0  0  0  0  0  0  0  0  0  0
  138.8512   67.3522  224.9536 H   0  0  0  0  0  0  0  0  0  0  0  0
  139.6306   67.0598  227.1762 H   0  0  0  0  0  0  0  0  0  0  0  0
  141.5072   70.3115  229.2326 H   0  0  0  0  0  0  0  0  0  0  0  0
  141.2045   71.7591  227.2670 H   0  0  0  0  0  0  0  0  0  0  0  0
  1  2  2  0
  2  3  1  0
  3  4  1  0
  4  5  1  0
  5  6  2  0
  5  7  1  0
  7  8  1  0
  8  9  1  0
  9 10  1  0
 10 11  1  0
 10 12  1  0
 12 13  1  0
 13 14  1  0
 14 15  2  0
 15 16  1  0
 16 17  2  0
 17 18  1  0
 18 19  1  0
 19 20  2  0
 20 21  1  0
 21 22  2  0
 22 23  1  0
 23 24  2  0
 18 25  2  0
  2 26  1  0
 26 27  2  0
 27 28  1  0
 28 29  2  0
 29 30  1  0
 30 31  2  0
 31 32  1  0
 31 33  1  0
 33 34  2  0
 34 35  1  0
 35 36  2  0
 12  7  1  0
 25 14  1  0
 36 26  1  0
 24 19  1  0
 35 29  1  0
  3 37  1  0
  4 38  1  0
  4 39  1  0
  8 40  1  0
  8 41  1  0
  9 42  1  0
  9 43  1  0
 10 44  1  6
 11 45  1  0
 12 46  1  1
 13 47  1  0
 13 48  1  0
 15 49  1  0
 16 50  1  0
 17 51  1  0
 20 52  1  0
 22 53  1  0
 23 54  1  0
 25 55  1  0
 27 56  1  0
 28 57  1  0
 30 58  1  0
 33 59  1  0
 34 60  1  0
M  END
>  <smiles>  (22) 
O=C(NCC(=O)N1CC[C@H](O)[C@H]1Cc1cccc(-c2cnccn2)c1)c1ccc2cc(F)ccc2n1

>  <score_type>  (22) 
oracle

>  <origin>  (22) 
autodockgpu

>  <m_score__min__energy>  (22) 
-10.08

>  <m_primary>  (22) 
energy

>  <rmsd>  (22) 
3.804830429989573

>  <m_score__min__rmsd>  (22) 
3.804830429989573

>  <meeko>  (22) 
{"free_energy": -8.36, "intermolecular_energy": -10.74, "internal_energy": -2.34, "cluster_size": 5, "cluster_id": 7, "rank_in_cluster": 3}

>  <energy>  (22) 
-9.26

>  <cluster_rmsd>  (22) 
1.53

>  <cluster>  (22) 
2

$$$$

     RDKit          3D

 60 64  0  0  0  0  0  0  0  0999 V2000
  136.3260   77.5640  222.3180 O   0  0  0  0  0  0  0  0  0  0  0  0
  136.5990   76.4960  222.9320 C   0  0  0  0  0  0  0  0  0  0  0  0
  137.8210   75.7870  222.7520 N   0  0  0  0  0  0  0  0  0  0  0  0
  138.8230   76.3210  221.8020 C   0  0  0  0  0  0  0  0  0  0  0  0
  139.9520   75.4000  221.6800 C   0  0  0  0  0  0  0  0  0  0  0  0
  139.8520   74.2940  222.3220 O   0  0  0  0  0  0  0  0  0  0  0  0
  141.1360   75.5730  220.9460 N   0  0  0  0  0  0  0  0  0  0  0  0
  141.9660   74.4050  220.5690 C   0  0  0  0  0  0  0  0  0  0  0  0
  142.6450   74.7640  219.2910 C   0  0  0  0  0  0  0  0  0  0  0  0
  142.4330   76.2460  219.0750 C   0  0  2  0  0  0  0  0  0  0  0  0
  143.6890   76.8170  218.8700 O   0  0  0  0  0  0  0  0  0  0  0  0
  141.8340   76.6950  220.3940 C   0  0  1  0  0  0  0  0  0  0  0  0
  141.0500   77.9500  220.2700 C   0  0  0  0  0  0  0  0  0  0  0  0
  141.0540   78.7590  221.5280 C   0  0  0  0  0  0  0  0  0  0  0  0
  142.2170   79.1050  222.1840 C   0  0  0  0  0  0  0  0  0  0  0  0
  142.2280   79.8510  223.3440 C   0  0  0  0  0  0  0  0  0  0  0  0
  141.0070   80.2520  223.8470 C   0  0  0  0  0  0  0  0  0  0  0  0
  139.8180   79.9460  223.2500 C   0  0  0  0  0  0  0  0  0  0  0  0
  138.5120   80.3540  223.7540 C   0  0  0  0  0  0  0  0  0  0  0  0
  137.3420   80.1710  223.0460 C   0  0  0  0  0  0  0  0  0  0  0  0
  136.1320   80.5500  223.5170 N   0  0  0  0  0  0  0  0  0  0  0  0
  136.0270   81.1340  224.7170 C   0  0  0  0  0  0  0  0  0  0  0  0
  137.1760   81.3320  225.4500 C   0  0  0  0  0  0  0  0  0  0  0  0
  138.3730   80.9490  224.9710 N   0  0  0  0  0  0  0  0  0  0  0  0
  139.8580   79.1980  222.0900 C   0  0  0  0  0  0  0  0  0  0  0  0
  135.6140   75.9440  223.8870 C   0  0  0  0  0  0  0  0  0  0  0  0
  134.7180   76.7880  224.5140 C   0  0  0  0  0  0  0  0  0  0  0  0
  133.7710   76.3530  225.4150 C   0  0  0  0  0  0  0  0  0  0  0  0
  133.7420   74.9970  225.6830 C   0  0  0  0  0  0  0  0  0  0  0  0
  132.8030   74.5240  226.5840 C   0  0  0  0  0  0  0  0  0  0  0  0
  132.7400   73.1780  226.8790 C   0  0  0  0  0  0  0  0  0  0  0  0
  131.8140   72.7360  227.7630 F   0  0  0  0  0  0  0  0  0  0  0  0
  133.6410   72.3390  226.2460 C   0  0  0  0  0  0  0  0  0  0  0  0
  134.5770   72.8140  225.3480 C   0  0  0  0  0  0  0  0  0  0  0  0
  134.6470   74.1750  225.0430 C   0  0  0  0  0  0  0  0  0  0  0  0
  135.5620   74.6280  224.1670 N   0  0  0  0  0  0  0  0  0  0  0  0
  137.9940   74.9110  223.2860 H   0  0  0  0  0  0  0  0  0  0  0  0
  138.3537   76.4516  220.8157 H   0  0  0  0  0  0  0  0  0  0  0  0
  139.1903   77.2876  222.1771 H   0  0  0  0  0  0  0  0  0  0  0  0
  142.7118   74.2002  221.3512 H   0  0  0  0  0  0  0  0  0  0  0  0
  141.3510   73.5005  220.4526 H   0  0  0  0  0  0  0  0  0  0  0  0
  143.7203   74.5429  219.3601 H   0  0  0  0  0  0  0  0  0  0  0  0
  142.2328   74.1835  218.4525 H   0  0  0  0  0  0  0  0  0  0  0  0
  141.7955   76.5169  218.2204 H   0  0  0  0  0  0  0  0  0  0  0  0
  144.3340   76.1910  218.4550 H   0  0  0  0  0  0  0  0  0  0  0  0
  142.6157   76.9903  221.1093 H   0  0  0  0  0  0  0  0  0  0  0  0
  141.4819   78.5563  219.4602 H   0  0  0  0  0  0  0  0  0  0  0  0
  140.0074   77.6711  220.0573 H   0  0  0  0  0  0  0  0  0  0  0  0
  143.1773   78.7715  221.7638 H   0  0  0  0  0  0  0  0  0  0  0  0
  143.1700   80.1151  223.8469 H   0  0  0  0  0  0  0  0  0  0  0  0
  140.9911   80.8462  224.7726 H   0  0  0  0  0  0  0  0  0  0  0  0
  137.3956   79.6961  222.0552 H   0  0  0  0  0  0  0  0  0  0  0  0
  135.0478   81.4478  225.1077 H   0  0  0  0  0  0  0  0  0  0  0  0
  137.1140   81.8092  226.4392 H   0  0  0  0  0  0  0  0  0  0  0  0
  138.9116   78.9398  221.5923 H   0  0  0  0  0  0  0  0  0  0  0  0
  134.7630   77.8623  224.2820 H   0  0  0  0  0  0  0  0  0  0  0  0
  133.0714   77.0511  225.8980 H   0  0  0  0  0  0  0  0  0  0  0  0
  132.1048   75.2240  227.0662 H   0  0  0  0  0  0  0  0  0  0  0  0
  133.6107   71.2614  226.4648 H   0  0  0  0  0  0  0  0  0  0  0  0
  135.2750   72.1124  224.8678 H   0  0  0  0  0  0  0  0  0  0  0  0
  1  2  2  0
  2  3  1  0
  3  4  1  0
  4  5  1  0
  5  6  2  0
  5  7  1  0
  7  8  1  0
  8  9  1  0
  9 10  1  0
 10 11  1  0
 10 12  1  0
 12 13  1  0
 13 14  1  0
 14 15  2  0
 15 16  1  0
 16 17  2  0
 17 18  1  0
 18 19  1  0
 19 20  2  0
 20 21  1  0
 21 22  2  0
 22 23  1  0
 23 24  2  0
 18 25  2  0
  2 26  1  0
 26 27  2  0
 27 28  1  0
 28 29  2  0
 29 30  1  0
 30 31  2  0
 31 32  1  0
 31 33  1  0
 33 34  2  0
 34 35  1  0
 35 36  2  0
 12  7  1  0
 25 14  1  0
 36 26  1  0
 24 19  1  0
 35 29  1  0
  3 37  1  0
  4 38  1  0
  4 39  1  0
  8 40  1  0
  8 41  1  0
  9 42  1  0
  9 43  1  0
 10 44  1  6
 11 45  1  0
 12 46  1  1
 13 47  1  0
 13 48  1  0
 15 49  1  0
 16 50  1  0
 17 51  1  0
 20 52  1  0
 22 53  1  0
 23 54  1  0
 25 55  1  0
 27 56  1  0
 28 57  1  0
 30 58  1  0
 33 59  1  0
 34 60  1  0
M  END
>  <smiles>  (23) 
O=C(NCC(=O)N1CC[C@H](O)[C@H]1Cc1cccc(-c2cnccn2)c1)c1ccc2cc(F)ccc2n1

>  <score_type>  (23) 
oracle

>  <origin>  (23) 
autodockgpu

>  <m_score__min__energy>  (23) 
-10.08

>  <m_primary>  (23) 
energy

>  <rmsd>  (23) 
6.071778890541986

>  <m_score__min__rmsd>  (23) 
6.071778890541986

>  <meeko>  (23) 
{"free_energy": -8.23, "intermolecular_energy": -10.61, "internal_energy": -2.78, "cluster_size": 6, "cluster_id": 6, "rank_in_cluster": 5}

>  <energy>  (23) 
-9.17

>  <cluster_rmsd>  (23) 
0.97

>  <cluster>  (23) 
2

$$$$

     RDKit          3D

 60 64  0  0  0  0  0  0  0  0999 V2000
  138.6060   71.8430  222.2420 O   0  0  0  0  0  0  0  0  0  0  0  0
  139.7330   71.4850  222.6820 C   0  0  0  0  0  0  0  0  0  0  0  0
  140.9620   71.8540  222.0610 N   0  0  0  0  0  0  0  0  0  0  0  0
  140.9220   72.6970  220.8450 C   0  0  0  0  0  0  0  0  0  0  0  0
  142.0210   73.6610  220.8570 C   0  0  0  0  0  0  0  0  0  0  0  0
  141.7770   74.7910  221.4140 O   0  0  0  0  0  0  0  0  0  0  0  0
  143.3140   73.5070  220.3340 N   0  0  0  0  0  0  0  0  0  0  0  0
  144.3110   72.6580  221.0270 C   0  0  0  0  0  0  0  0  0  0  0  0
  145.2150   72.1190  219.9710 C   0  0  0  0  0  0  0  0  0  0  0  0
  144.9190   72.8830  218.7000 C   0  0  2  0  0  0  0  0  0  0  0  0
  146.1310   73.3880  218.2300 O   0  0  0  0  0  0  0  0  0  0  0  0
  144.0090   73.9970  219.1810 C   0  0  1  0  0  0  0  0  0  0  0  0
  143.1580   74.5510  218.0980 C   0  0  0  0  0  0  0  0  0  0  0  0
  142.9100   76.0180  218.2530 C   0  0  0  0  0  0  0  0  0  0  0  0
  143.0700   76.9120  217.2140 C   0  0  0  0  0  0  0  0  0  0  0  0
  142.8440   78.2660  217.3500 C   0  0  0  0  0  0  0  0  0  0  0  0
  142.4410   78.7150  218.5910 C   0  0  0  0  0  0  0  0  0  0  0  0
  142.2630   77.8880  219.6620 C   0  0  0  0  0  0  0  0  0  0  0  0
  141.8380   78.3300  220.9850 C   0  0  0  0  0  0  0  0  0  0  0  0
  141.0640   77.5550  221.8240 C   0  0  0  0  0  0  0  0  0  0  0  0
  140.6730   77.9680  223.0510 N   0  0  0  0  0  0  0  0  0  0  0  0
  141.0320   79.1760  223.5050 C   0  0  0  0  0  0  0  0  0  0  0  0
  141.8050   79.9740  222.6920 C   0  0  0  0  0  0  0  0  0  0  0  0
  142.1890   79.5520  221.4740 N   0  0  0  0  0  0  0  0  0  0  0  0
  142.5010   76.5410  219.4770 C   0  0  0  0  0  0  0  0  0  0  0  0
  139.7980   70.6430  223.8950 C   0  0  0  0  0  0  0  0  0  0  0  0
  139.2050   69.3950  223.8980 C   0  0  0  0  0  0  0  0  0  0  0  0
  139.2210   68.5510  224.9860 C   0  0  0  0  0  0  0  0  0  0  0  0
  139.8710   69.0060  226.1190 C   0  0  0  0  0  0  0  0  0  0  0  0
  139.9070   68.1840  227.2320 C   0  0  0  0  0  0  0  0  0  0  0  0
  140.5450   68.5990  228.3810 C   0  0  0  0  0  0  0  0  0  0  0  0
  140.5680   67.7800  229.4600 F   0  0  0  0  0  0  0  0  0  0  0  0
  141.1360   69.8500  228.3710 C   0  0  0  0  0  0  0  0  0  0  0  0
  141.0990   70.6690  227.2590 C   0  0  0  0  0  0  0  0  0  0  0  0
  140.4550   70.2560  226.0910 C   0  0  0  0  0  0  0  0  0  0  0  0
  140.4240   71.0600  225.0120 N   0  0  0  0  0  0  0  0  0  0  0  0
  141.8630   71.5310  222.4670 H   0  0  0  0  0  0  0  0  0  0  0  0
  141.0123   72.0554  219.9560 H   0  0  0  0  0  0  0  0  0  0  0  0
  139.9678   73.2438  220.8211 H   0  0  0  0  0  0  0  0  0  0  0  0
  144.8849   73.2578  221.7487 H   0  0  0  0  0  0  0  0  0  0  0  0
  143.8225   71.8457  221.5851 H   0  0  0  0  0  0  0  0  0  0  0  0
  146.2654   72.2649  220.2630 H   0  0  0  0  0  0  0  0  0  0  0  0
  145.0501   71.0410  219.8272 H   0  0  0  0  0  0  0  0  0  0  0  0
  144.4597   72.2986  217.8891 H   0  0  0  0  0  0  0  0  0  0  0  0
  146.0160   74.1560  217.6160 H   0  0  0  0  0  0  0  0  0  0  0  0
  144.5861   74.8826  219.4855 H   0  0  0  0  0  0  0  0  0  0  0  0
  143.6586   74.3785  217.1338 H   0  0  0  0  0  0  0  0  0  0  0  0
  142.1841   74.0420  218.1470 H   0  0  0  0  0  0  0  0  0  0  0  0
  143.3918   76.5282  216.2347 H   0  0  0  0  0  0  0  0  0  0  0  0
  142.9792   78.9579  216.5056 H   0  0  0  0  0  0  0  0  0  0  0  0
  142.2543   79.7909  218.7234 H   0  0  0  0  0  0  0  0  0  0  0  0
  140.7514   76.5580  221.4800 H   0  0  0  0  0  0  0  0  0  0  0  0
  140.7175   79.5212  224.5010 H   0  0  0  0  0  0  0  0  0  0  0  0
  142.1127   80.9700  223.0432 H   0  0  0  0  0  0  0  0  0  0  0  0
  142.3627   75.8563  220.3268 H   0  0  0  0  0  0  0  0  0  0  0  0
  138.6937   69.0582  222.9841 H   0  0  0  0  0  0  0  0  0  0  0  0
  138.7399   67.5623  224.9555 H   0  0  0  0  0  0  0  0  0  0  0  0
  139.4247   67.1959  227.1994 H   0  0  0  0  0  0  0  0  0  0  0  0
  141.6512   70.2034  229.2764 H   0  0  0  0  0  0  0  0  0  0  0  0
  141.5819   71.6567  227.2942 H   0  0  0  0  0  0  0  0  0  0  0  0
  1  2  2  0
  2  3  1  0
  3  4  1  0
  4  5  1  0
  5  6  2  0
  5  7  1  0
  7  8  1  0
  8  9  1  0
  9 10  1  0
 10 11  1  0
 10 12  1  0
 12 13  1  0
 13 14  1  0
 14 15  2  0
 15 16  1  0
 16 17  2  0
 17 18  1  0
 18 19  1  0
 19 20  2  0
 20 21  1  0
 21 22  2  0
 22 23  1  0
 23 24  2  0
 18 25  2  0
  2 26  1  0
 26 27  2  0
 27 28  1  0
 28 29  2  0
 29 30  1  0
 30 31  2  0
 31 32  1  0
 31 33  1  0
 33 34  2  0
 34 35  1  0
 35 36  2  0
 12  7  1  0
 25 14  1  0
 36 26  1  0
 24 19  1  0
 35 29  1  0
  3 37  1  0
  4 38  1  0
  4 39  1  0
  8 40  1  0
  8 41  1  0
  9 42  1  0
  9 43  1  0
 10 44  1  6
 11 45  1  0
 12 46  1  1
 13 47  1  0
 13 48  1  0
 15 49  1  0
 16 50  1  0
 17 51  1  0
 20 52  1  0
 22 53  1  0
 23 54  1  0
 25 55  1  0
 27 56  1  0
 28 57  1  0
 30 58  1  0
 33 59  1  0
 34 60  1  0
M  END
>  <smiles>  (24) 
O=C(NCC(=O)N1CC[C@H](O)[C@H]1Cc1cccc(-c2cnccn2)c1)c1ccc2cc(F)ccc2n1

>  <score_type>  (24) 
oracle

>  <origin>  (24) 
autodockgpu

>  <m_score__min__energy>  (24) 
-10.08

>  <m_primary>  (24) 
energy

>  <rmsd>  (24) 
3.4943658316038477

>  <m_score__min__rmsd>  (24) 
3.4943658316038477

>  <meeko>  (24) 
{"free_energy": -9.41, "intermolecular_energy": -11.8, "internal_energy": -1.59, "cluster_size": 9, "cluster_id": 2, "rank_in_cluster": 4}

>  <energy>  (24) 
-9.04

>  <cluster_rmsd>  (24) 
1.82

>  <cluster>  (24) 
2

$$$$

     RDKit          3D

 60 64  0  0  0  0  0  0  0  0999 V2000
  139.7780   73.4370  222.7210 O   0  0  0  0  0  0  0  0  0  0  0  0
  140.2780   72.2800  222.6500 C   0  0  0  0  0  0  0  0  0  0  0  0
  140.9620   71.7990  221.4970 N   0  0  0  0  0  0  0  0  0  0  0  0
  141.0980   72.6910  220.3230 C   0  0  0  0  0  0  0  0  0  0  0  0
  142.2200   73.6090  220.5070 C   0  0  0  0  0  0  0  0  0  0  0  0
  141.9870   74.6530  221.2160 O   0  0  0  0  0  0  0  0  0  0  0  0
  143.5260   73.4930  220.0070 N   0  0  0  0  0  0  0  0  0  0  0  0
  144.5360   72.6720  220.7160 C   0  0  0  0  0  0  0  0  0  0  0  0
  145.4720   72.1600  219.6750 C   0  0  0  0  0  0  0  0  0  0  0  0
  145.1750   72.9150  218.3990 C   0  0  2  0  0  0  0  0  0  0  0  0
  146.3800   73.4550  217.9490 O   0  0  0  0  0  0  0  0  0  0  0  0
  144.2260   74.0020  218.8650 C   0  0  1  0  0  0  0  0  0  0  0  0
  143.3770   74.5320  217.7670 C   0  0  0  0  0  0  0  0  0  0  0  0
  143.0520   75.9820  217.9380 C   0  0  0  0  0  0  0  0  0  0  0  0
  143.1970   76.9000  216.9190 C   0  0  0  0  0  0  0  0  0  0  0  0
  142.9000   78.2390  217.0700 C   0  0  0  0  0  0  0  0  0  0  0  0
  142.4400   78.6460  218.3060 C   0  0  0  0  0  0  0  0  0  0  0  0
  142.2740   77.7930  219.3580 C   0  0  0  0  0  0  0  0  0  0  0  0
  141.7910   78.1910  220.6750 C   0  0  0  0  0  0  0  0  0  0  0  0
  141.8840   79.4810  221.1520 C   0  0  0  0  0  0  0  0  0  0  0  0
  141.4350   79.8460  222.3740 N   0  0  0  0  0  0  0  0  0  0  0  0
  140.8690   78.9430  223.1850 C   0  0  0  0  0  0  0  0  0  0  0  0
  140.7610   77.6450  222.7390 C   0  0  0  0  0  0  0  0  0  0  0  0
  141.2110   77.2940  221.5210 N   0  0  0  0  0  0  0  0  0  0  0  0
  142.5840   76.4630  219.1580 C   0  0  0  0  0  0  0  0  0  0  0  0
  140.1550   71.3710  223.8100 C   0  0  0  0  0  0  0  0  0  0  0  0
  139.4880   70.1690  223.6720 C   0  0  0  0  0  0  0  0  0  0  0  0
  139.3310   69.2690  224.7020 C   0  0  0  0  0  0  0  0  0  0  0  0
  139.8790   69.6150  225.9240 C   0  0  0  0  0  0  0  0  0  0  0  0
  139.7400   68.7330  226.9820 C   0  0  0  0  0  0  0  0  0  0  0  0
  140.2720   69.0400  228.2160 C   0  0  0  0  0  0  0  0  0  0  0  0
  140.1250   68.1650  229.2390 F   0  0  0  0  0  0  0  0  0  0  0  0
  140.9380   70.2470  228.3460 C   0  0  0  0  0  0  0  0  0  0  0  0
  141.0760   71.1250  227.2880 C   0  0  0  0  0  0  0  0  0  0  0  0
  140.5400   70.8210  226.0350 C   0  0  0  0  0  0  0  0  0  0  0  0
  140.6790   71.6820  225.0110 N   0  0  0  0  0  0  0  0  0  0  0  0
  141.3550   70.8350  221.4940 H   0  0  0  0  0  0  0  0  0  0  0  0
  141.2718   72.0821  219.4235 H   0  0  0  0  0  0  0  0  0  0  0  0
  140.1733   73.2762  220.2109 H   0  0  0  0  0  0  0  0  0  0  0  0
  145.0807   73.2875  221.4471 H   0  0  0  0  0  0  0  0  0  0  0  0
  144.0619   71.8455  221.2657 H   0  0  0  0  0  0  0  0  0  0  0  0
  146.5129   72.3363  219.9841 H   0  0  0  0  0  0  0  0  0  0  0  0
  145.3405   71.0777  219.5288 H   0  0  0  0  0  0  0  0  0  0  0  0
  144.7461   72.3179  217.5807 H   0  0  0  0  0  0  0  0  0  0  0  0
  146.3490   74.4400  217.8550 H   0  0  0  0  0  0  0  0  0  0  0  0
  144.7729   74.9032  219.1792 H   0  0  0  0  0  0  0  0  0  0  0  0
  143.9112   74.4009  216.8144 H   0  0  0  0  0  0  0  0  0  0  0  0
  142.4287   73.9747  217.7813 H   0  0  0  0  0  0  0  0  0  0  0  0
  143.5654   76.5495  215.9436 H   0  0  0  0  0  0  0  0  0  0  0  0
  143.0245   78.9513  216.2411 H   0  0  0  0  0  0  0  0  0  0  0  0
  142.1955   79.7088  218.4499 H   0  0  0  0  0  0  0  0  0  0  0  0
  142.3437   80.2471  220.5103 H   0  0  0  0  0  0  0  0  0  0  0  0
  140.5003   79.2306  224.1807 H   0  0  0  0  0  0  0  0  0  0  0  0
  140.3006   76.8849  223.3873 H   0  0  0  0  0  0  0  0  0  0  0  0
  142.4568   75.7576  219.9924 H   0  0  0  0  0  0  0  0  0  0  0  0
  139.0609   69.9184  222.6898 H   0  0  0  0  0  0  0  0  0  0  0  0
  138.7948   68.3191  224.5598 H   0  0  0  0  0  0  0  0  0  0  0  0
  139.2031   67.7839  226.8374 H   0  0  0  0  0  0  0  0  0  0  0  0
  141.3704   70.5151  229.3213 H   0  0  0  0  0  0  0  0  0  0  0  0
  141.6138   72.0734  227.4344 H   0  0  0  0  0  0  0  0  0  0  0  0
  1  2  2  0
  2  3  1  0
  3  4  1  0
  4  5  1  0
  5  6  2  0
  5  7  1  0
  7  8  1  0
  8  9  1  0
  9 10  1  0
 10 11  1  0
 10 12  1  0
 12 13  1  0
 13 14  1  0
 14 15  2  0
 15 16  1  0
 16 17  2  0
 17 18  1  0
 18 19  1  0
 19 20  2  0
 20 21  1  0
 21 22  2  0
 22 23  1  0
 23 24  2  0
 18 25  2  0
  2 26  1  0
 26 27  2  0
 27 28  1  0
 28 29  2  0
 29 30  1  0
 30 31  2  0
 31 32  1  0
 31 33  1  0
 33 34  2  0
 34 35  1  0
 35 36  2  0
 12  7  1  0
 25 14  1  0
 36 26  1  0
 24 19  1  0
 35 29  1  0
  3 37  1  0
  4 38  1  0
  4 39  1  0
  8 40  1  0
  8 41  1  0
  9 42  1  0
  9 43  1  0
 10 44  1  6
 11 45  1  0
 12 46  1  1
 13 47  1  0
 13 48  1  0
 15 49  1  0
 16 50  1  0
 17 51  1  0
 20 52  1  0
 22 53  1  0
 23 54  1  0
 25 55  1  0
 27 56  1  0
 28 57  1  0
 30 58  1  0
 33 59  1  0
 34 60  1  0
M  END
>  <smiles>  (25) 
O=C(NCC(=O)N1CC[C@H](O)[C@H]1Cc1cccc(-c2cnccn2)c1)c1ccc2cc(F)ccc2n1

>  <score_type>  (25) 
oracle

>  <origin>  (25) 
autodockgpu

>  <m_score__min__energy>  (25) 
-10.08

>  <m_primary>  (25) 
energy

>  <rmsd>  (25) 
3.6358356820990463

>  <m_score__min__rmsd>  (25) 
3.6358356820990463

>  <meeko>  (25) 
{"free_energy": -9.81, "intermolecular_energy": -12.2, "internal_energy": -1.69, "cluster_size": 9, "cluster_id": 2, "rank_in_cluster": 2}

>  <energy>  (25) 
-8.82

>  <cluster_rmsd>  (25) 
1.55

>  <cluster>  (25) 
2

$$$$

     RDKit          3D

 60 64  0  0  0  0  0  0  0  0999 V2000
  138.2990   70.2130  221.7440 O   0  0  0  0  0  0  0  0  0  0  0  0
  138.1300   70.7290  222.8830 C   0  0  0  0  0  0  0  0  0  0  0  0
  137.3750   71.9190  223.0930 N   0  0  0  0  0  0  0  0  0  0  0  0
  136.7580   72.5890  221.9250 C   0  0  0  0  0  0  0  0  0  0  0  0
  137.7790   73.2720  221.1320 C   0  0  0  0  0  0  0  0  0  0  0  0
  137.6700   73.1670  219.8580 O   0  0  0  0  0  0  0  0  0  0  0  0
  138.8660   74.0320  221.5890 N   0  0  0  0  0  0  0  0  0  0  0  0
  140.1850   73.3970  221.8220 C   0  0  0  0  0  0  0  0  0  0  0  0
  141.2110   74.4510  221.5750 C   0  0  0  0  0  0  0  0  0  0  0  0
  140.4790   75.7710  221.4790 C   0  0  2  0  0  0  0  0  0  0  0  0
  141.0850   76.6460  222.3810 O   0  0  0  0  0  0  0  0  0  0  0  0
  139.0750   75.4100  221.9220 C   0  0  1  0  0  0  0  0  0  0  0  0
  138.0510   76.3610  221.4180 C   0  0  0  0  0  0  0  0  0  0  0  0
  136.9510   76.5990  222.4030 C   0  0  0  0  0  0  0  0  0  0  0  0
  136.4150   77.8510  222.6280 C   0  0  0  0  0  0  0  0  0  0  0  0
  135.4010   78.0780  223.5350 C   0  0  0  0  0  0  0  0  0  0  0  0
  134.9230   76.9870  224.2320 C   0  0  0  0  0  0  0  0  0  0  0  0
  135.4060   75.7220  224.0600 C   0  0  0  0  0  0  0  0  0  0  0  0
  134.9240   74.5490  224.7780 C   0  0  0  0  0  0  0  0  0  0  0  0
  134.0670   74.6270  225.8570 C   0  0  0  0  0  0  0  0  0  0  0  0
  133.6210   73.5360  226.5210 N   0  0  0  0  0  0  0  0  0  0  0  0
  134.0080   72.3100  226.1440 C   0  0  0  0  0  0  0  0  0  0  0  0
  134.8640   72.1980  225.0720 C   0  0  0  0  0  0  0  0  0  0  0  0
  135.2990   73.2900  224.4190 N   0  0  0  0  0  0  0  0  0  0  0  0
  136.4210   75.5440  223.1400 C   0  0  0  0  0  0  0  0  0  0  0  0
  138.7360   70.0780  224.0650 C   0  0  0  0  0  0  0  0  0  0  0  0
  138.6790   68.7040  224.1960 C   0  0  0  0  0  0  0  0  0  0  0  0
  139.2190   68.0220  225.2640 C   0  0  0  0  0  0  0  0  0  0  0  0
  139.8410   68.7810  226.2390 C   0  0  0  0  0  0  0  0  0  0  0  0
  140.3950   68.1300  227.3270 C   0  0  0  0  0  0  0  0  0  0  0  0
  141.0240   68.8490  228.3210 C   0  0  0  0  0  0  0  0  0  0  0  0
  141.5590   68.1930  229.3780 F   0  0  0  0  0  0  0  0  0  0  0  0
  141.0760   70.2250  228.1820 C   0  0  0  0  0  0  0  0  0  0  0  0
  140.5220   70.8740  227.0950 C   0  0  0  0  0  0  0  0  0  0  0  0
  139.8840   70.1520  226.0840 C   0  0  0  0  0  0  0  0  0  0  0  0
  139.3470   70.7910  225.0290 N   0  0  0  0  0  0  0  0  0  0  0  0
  137.2680   72.3000  224.0550 H   0  0  0  0  0  0  0  0  0  0  0  0
  136.2558   71.8367  221.2990 H   0  0  0  0  0  0  0  0  0  0  0  0
  136.0285   73.3305  222.2828 H   0  0  0  0  0  0  0  0  0  0  0  0
  140.2545   73.0342  222.8581 H   0  0  0  0  0  0  0  0  0  0  0  0
  140.3338   72.5330  221.1577 H   0  0  0  0  0  0  0  0  0  0  0  0
  141.9312   74.4786  222.4060 H   0  0  0  0  0  0  0  0  0  0  0  0
  141.7690   74.2448  220.6497 H   0  0  0  0  0  0  0  0  0  0  0  0
  140.4868   76.2491  220.4884 H   0  0  0  0  0  0  0  0  0  0  0  0
  142.0570   76.7440  222.2270 H   0  0  0  0  0  0  0  0  0  0  0  0
  138.9602   75.5150  223.0109 H   0  0  0  0  0  0  0  0  0  0  0  0
  138.5404   77.3213  221.1979 H   0  0  0  0  0  0  0  0  0  0  0  0
  137.6008   75.9184  220.5172 H   0  0  0  0  0  0  0  0  0  0  0  0
  136.8136   78.7042  222.0596 H   0  0  0  0  0  0  0  0  0  0  0  0
  134.9907   79.0859  223.6960 H   0  0  0  0  0  0  0  0  0  0  0  0
  134.1143   77.1443  224.9608 H   0  0  0  0  0  0  0  0  0  0  0  0
  133.7319   75.6198  226.1917 H   0  0  0  0  0  0  0  0  0  0  0  0
  133.6510   71.4165  226.6771 H   0  0  0  0  0  0  0  0  0  0  0  0
  135.1967   71.2018  224.7451 H   0  0  0  0  0  0  0  0  0  0  0  0
  136.8246   74.5326  222.9844 H   0  0  0  0  0  0  0  0  0  0  0  0
  138.1767   68.1249  223.4071 H   0  0  0  0  0  0  0  0  0  0  0  0
  139.1585   66.9262  225.3381 H   0  0  0  0  0  0  0  0  0  0  0  0
  140.3333   67.0341  227.3992 H   0  0  0  0  0  0  0  0  0  0  0  0
  141.5739   70.8207  228.9612 H   0  0  0  0  0  0  0  0  0  0  0  0
  140.5841   71.9700  227.0254 H   0  0  0  0  0  0  0  0  0  0  0  0
  1  2  2  0
  2  3  1  0
  3  4  1  0
  4  5  1  0
  5  6  2  0
  5  7  1  0
  7  8  1  0
  8  9  1  0
  9 10  1  0
 10 11  1  0
 10 12  1  0
 12 13  1  0
 13 14  1  0
 14 15  2  0
 15 16  1  0
 16 17  2  0
 17 18  1  0
 18 19  1  0
 19 20  2  0
 20 21  1  0
 21 22  2  0
 22 23  1  0
 23 24  2  0
 18 25  2  0
  2 26  1  0
 26 27  2  0
 27 28  1  0
 28 29  2  0
 29 30  1  0
 30 31  2  0
 31 32  1  0
 31 33  1  0
 33 34  2  0
 34 35  1  0
 35 36  2  0
 12  7  1  0
 25 14  1  0
 36 26  1  0
 24 19  1  0
 35 29  1  0
  3 37  1  0
  4 38  1  0
  4 39  1  0
  8 40  1  0
  8 41  1  0
  9 42  1  0
  9 43  1  0
 10 44  1  6
 11 45  1  0
 12 46  1  1
 13 47  1  0
 13 48  1  0
 15 49  1  0
 16 50  1  0
 17 51  1  0
 20 52  1  0
 22 53  1  0
 23 54  1  0
 25 55  1  0
 27 56  1  0
 28 57  1  0
 30 58  1  0
 33 59  1  0
 34 60  1  0
M  END
>  <smiles>  (26) 
O=C(NCC(=O)N1CC[C@H](O)[C@H]1Cc1cccc(-c2cnccn2)c1)c1ccc2cc(F)ccc2n1

>  <score_type>  (26) 
oracle

>  <origin>  (26) 
autodockgpu

>  <m_score__min__energy>  (26) 
-10.08

>  <m_primary>  (26) 
energy

>  <rmsd>  (26) 
3.0751332342595443

>  <m_score__min__rmsd>  (26) 
3.0751332342595443

>  <meeko>  (26) 
{"free_energy": -8.41, "intermolecular_energy": -10.8, "internal_energy": -2.91, "cluster_size": 5, "cluster_id": 7, "rank_in_cluster": 1}

>  <energy>  (26) 
-9.54

>  <cluster_rmsd>  (26) 
0.0

>  <cluster>  (26) 
3

$$$$

     RDKit          3D

 60 64  0  0  0  0  0  0  0  0999 V2000
  138.8310   70.7620  221.5900 O   0  0  0  0  0  0  0  0  0  0  0  0
  139.1980   71.3500  222.6440 C   0  0  0  0  0  0  0  0  0  0  0  0
  139.3820   72.7610  222.7230 N   0  0  0  0  0  0  0  0  0  0  0  0
  139.1330   73.5820  221.5160 C   0  0  0  0  0  0  0  0  0  0  0  0
  139.8500   74.8530  221.6070 C   0  0  0  0  0  0  0  0  0  0  0  0
  139.2320   75.8110  222.1960 O   0  0  0  0  0  0  0  0  0  0  0  0
  141.1340   75.1590  221.1310 N   0  0  0  0  0  0  0  0  0  0  0  0
  142.1230   74.0830  220.8840 C   0  0  0  0  0  0  0  0  0  0  0  0
  143.0030   74.5630  219.7810 C   0  0  0  0  0  0  0  0  0  0  0  0
  142.7070   76.0330  219.5820 C   0  0  2  0  0  0  0  0  0  0  0  0
  143.9230   76.7130  219.6530 O   0  0  0  0  0  0  0  0  0  0  0  0
  141.8240   76.3610  220.7710 C   0  0  1  0  0  0  0  0  0  0  0  0
  140.9710   77.5550  220.5400 C   0  0  0  0  0  0  0  0  0  0  0  0
  140.9700   78.4970  221.7010 C   0  0  0  0  0  0  0  0  0  0  0  0
  142.1330   78.9860  222.2610 C   0  0  0  0  0  0  0  0  0  0  0  0
  142.1390   79.8550  223.3320 C   0  0  0  0  0  0  0  0  0  0  0  0
  140.9150   80.2320  223.8450 C   0  0  0  0  0  0  0  0  0  0  0  0
  139.7270   79.7880  223.3410 C   0  0  0  0  0  0  0  0  0  0  0  0
  138.4170   80.1670  223.8580 C   0  0  0  0  0  0  0  0  0  0  0  0
  138.2380   81.1630  224.7950 C   0  0  0  0  0  0  0  0  0  0  0  0
  137.0210   81.5120  225.2720 N   0  0  0  0  0  0  0  0  0  0  0  0
  135.9200   80.8840  224.8400 C   0  0  0  0  0  0  0  0  0  0  0  0
  136.0640   79.8850  223.9050 C   0  0  0  0  0  0  0  0  0  0  0  0
  137.2790   79.5470  223.4370 N   0  0  0  0  0  0  0  0  0  0  0  0
  139.7710   78.9200  222.2680 C   0  0  0  0  0  0  0  0  0  0  0  0
  139.4540   70.5510  223.8620 C   0  0  0  0  0  0  0  0  0  0  0  0
  139.1270   69.2090  223.8830 C   0  0  0  0  0  0  0  0  0  0  0  0
  139.3320   68.3970  224.9760 C   0  0  0  0  0  0  0  0  0  0  0  0
  139.8960   68.9850  226.0940 C   0  0  0  0  0  0  0  0  0  0  0  0
  140.1170   68.1990  227.2110 C   0  0  0  0  0  0  0  0  0  0  0  0
  140.6770   68.7460  228.3450 C   0  0  0  0  0  0  0  0  0  0  0  0
  140.8850   67.9610  229.4290 F   0  0  0  0  0  0  0  0  0  0  0  0
  141.0020   70.0920  228.3160 C   0  0  0  0  0  0  0  0  0  0  0  0
  140.7800   70.8750  227.1990 C   0  0  0  0  0  0  0  0  0  0  0  0
  140.2140   70.3280  226.0470 C   0  0  0  0  0  0  0  0  0  0  0  0
  140.0010   71.0970  224.9640 N   0  0  0  0  0  0  0  0  0  0  0  0
  139.6870   73.1930  223.6190 H   0  0  0  0  0  0  0  0  0  0  0  0
  139.4786   73.0338  220.6272 H   0  0  0  0  0  0  0  0  0  0  0  0
  138.0547   73.7854  221.4392 H   0  0  0  0  0  0  0  0  0  0  0  0
  142.7172   73.8973  221.7909 H   0  0  0  0  0  0  0  0  0  0  0  0
  141.6258   73.1395  220.6146 H   0  0  0  0  0  0  0  0  0  0  0  0
  144.0595   74.4247  220.0542 H   0  0  0  0  0  0  0  0  0  0  0  0
  142.8148   73.9976  218.8564 H   0  0  0  0  0  0  0  0  0  0  0  0
  142.2279   76.2977  218.6279 H   0  0  0  0  0  0  0  0  0  0  0  0
  143.9120   77.4540  220.3090 H   0  0  0  0  0  0  0  0  0  0  0  0
  142.4215   76.6785  221.6383 H   0  0  0  0  0  0  0  0  0  0  0  0
  141.3454   78.0888  219.6541 H   0  0  0  0  0  0  0  0  0  0  0  0
  139.9387   77.2031  220.3969 H   0  0  0  0  0  0  0  0  0  0  0  0
  143.0963   78.6690  221.8348 H   0  0  0  0  0  0  0  0  0  0  0  0
  143.0801   80.2317  223.7592 H   0  0  0  0  0  0  0  0  0  0  0  0
  140.8957   80.9231  224.7006 H   0  0  0  0  0  0  0  0  0  0  0  0
  139.1233   81.6969  225.1709 H   0  0  0  0  0  0  0  0  0  0  0  0
  134.9263   81.1597  225.2227 H   0  0  0  0  0  0  0  0  0  0  0  0
  135.1735   79.3555  223.5352 H   0  0  0  0  0  0  0  0  0  0  0  0
  138.8250   78.5496  221.8463 H   0  0  0  0  0  0  0  0  0  0  0  0
  138.6801   68.7665  222.9805 H   0  0  0  0  0  0  0  0  0  0  0  0
  139.0602   67.3312  224.9609 H   0  0  0  0  0  0  0  0  0  0  0  0
  139.8446   67.1334  227.1937 H   0  0  0  0  0  0  0  0  0  0  0  0
  141.4504   70.5518  229.2091 H   0  0  0  0  0  0  0  0  0  0  0  0
  141.0524   71.9406  227.2184 H   0  0  0  0  0  0  0  0  0  0  0  0
  1  2  2  0
  2  3  1  0
  3  4  1  0
  4  5  1  0
  5  6  2  0
  5  7  1  0
  7  8  1  0
  8  9  1  0
  9 10  1  0
 10 11  1  0
 10 12  1  0
 12 13  1  0
 13 14  1  0
 14 15  2  0
 15 16  1  0
 16 17  2  0
 17 18  1  0
 18 19  1  0
 19 20  2  0
 20 21  1  0
 21 22  2  0
 22 23  1  0
 23 24  2  0
 18 25  2  0
  2 26  1  0
 26 27  2  0
 27 28  1  0
 28 29  2  0
 29 30  1  0
 30 31  2  0
 31 32  1  0
 31 33  1  0
 33 34  2  0
 34 35  1  0
 35 36  2  0
 12  7  1  0
 25 14  1  0
 36 26  1  0
 24 19  1  0
 35 29  1  0
  3 37  1  0
  4 38  1  0
  4 39  1  0
  8 40  1  0
  8 41  1  0
  9 42  1  0
  9 43  1  0
 10 44  1  6
 11 45  1  0
 12 46  1  1
 13 47  1  0
 13 48  1  0
 15 49  1  0
 16 50  1  0
 17 51  1  0
 20 52  1  0
 22 53  1  0
 23 54  1  0
 25 55  1  0
 27 56  1  0
 28 57  1  0
 30 58  1  0
 33 59  1  0
 34 60  1  0
M  END
>  <smiles>  (27) 
O=C(NCC(=O)N1CC[C@H](O)[C@H]1Cc1cccc(-c2cnccn2)c1)c1ccc2cc(F)ccc2n1

>  <score_type>  (27) 
oracle

>  <origin>  (27) 
autodockgpu

>  <m_score__min__energy>  (27) 
-10.08

>  <m_primary>  (27) 
energy

>  <rmsd>  (27) 
2.2930564853152116

>  <m_score__min__rmsd>  (27) 
2.2930564853152116

>  <meeko>  (27) 
{"free_energy": -9.62, "intermolecular_energy": -12.01, "internal_energy": -1.86, "cluster_size": 16, "cluster_id": 1, "rank_in_cluster": 2}

>  <energy>  (27) 
-9.25

>  <cluster_rmsd>  (27) 
0.98

>  <cluster>  (27) 
3

$$$$

     RDKit          3D

 60 64  0  0  0  0  0  0  0  0999 V2000
  138.1460   70.6500  221.8460 O   0  0  0  0  0  0  0  0  0  0  0  0
  138.8150   71.1960  222.7660 C   0  0  0  0  0  0  0  0  0  0  0  0
  139.2330   72.5580  222.7190 N   0  0  0  0  0  0  0  0  0  0  0  0
  138.8690   73.3760  221.5400 C   0  0  0  0  0  0  0  0  0  0  0  0
  139.3810   74.7370  221.6860 C   0  0  0  0  0  0  0  0  0  0  0  0
  140.4780   74.8620  222.3400 O   0  0  0  0  0  0  0  0  0  0  0  0
  138.8230   75.9300  221.2000 N   0  0  0  0  0  0  0  0  0  0  0  0
  137.3530   76.0890  221.1020 C   0  0  0  0  0  0  0  0  0  0  0  0
  137.0730   77.5430  221.2790 C   0  0  0  0  0  0  0  0  0  0  0  0
  138.3990   78.2660  221.1930 C   0  0  2  0  0  0  0  0  0  0  0  0
  138.2630   79.2650  220.2290 O   0  0  0  0  0  0  0  0  0  0  0  0
  139.3450   77.1770  220.7260 C   0  0  1  0  0  0  0  0  0  0  0  0
  140.7620   77.4600  221.0720 C   0  0  0  0  0  0  0  0  0  0  0  0
  141.7120   77.0480  219.9940 C   0  0  0  0  0  0  0  0  0  0  0  0
  141.7840   77.6990  218.7790 C   0  0  0  0  0  0  0  0  0  0  0  0
  142.6580   77.3240  217.7800 C   0  0  0  0  0  0  0  0  0  0  0  0
  143.4830   76.2480  218.0360 C   0  0  0  0  0  0  0  0  0  0  0  0
  143.4650   75.5580  219.2140 C   0  0  0  0  0  0  0  0  0  0  0  0
  144.3230   74.4180  219.5160 C   0  0  0  0  0  0  0  0  0  0  0  0
  144.8210   73.5730  218.5460 C   0  0  0  0  0  0  0  0  0  0  0  0
  145.6160   72.5170  218.8310 N   0  0  0  0  0  0  0  0  0  0  0  0
  145.9550   72.2480  220.0980 C   0  0  0  0  0  0  0  0  0  0  0  0
  145.4750   73.0720  221.0900 C   0  0  0  0  0  0  0  0  0  0  0  0
  144.6850   74.1200  220.7950 N   0  0  0  0  0  0  0  0  0  0  0  0
  142.5740   75.9710  220.1840 C   0  0  0  0  0  0  0  0  0  0  0  0
  139.1900   70.3990  223.9540 C   0  0  0  0  0  0  0  0  0  0  0  0
  138.9080   69.0470  223.9900 C   0  0  0  0  0  0  0  0  0  0  0  0
  139.2240   68.2360  225.0570 C   0  0  0  0  0  0  0  0  0  0  0  0
  139.8540   68.8360  226.1320 C   0  0  0  0  0  0  0  0  0  0  0  0
  140.1870   68.0510  227.2220 C   0  0  0  0  0  0  0  0  0  0  0  0
  140.8170   68.6110  228.3140 C   0  0  0  0  0  0  0  0  0  0  0  0
  141.1330   67.8260  229.3710 F   0  0  0  0  0  0  0  0  0  0  0  0
  141.0960   69.9660  228.2700 C   0  0  0  0  0  0  0  0  0  0  0  0
  140.7620   70.7470  227.1800 C   0  0  0  0  0  0  0  0  0  0  0  0
  140.1250   70.1880  226.0710 C   0  0  0  0  0  0  0  0  0  0  0  0
  139.8040   70.9570  225.0140 N   0  0  0  0  0  0  0  0  0  0  0  0
  139.7830   72.9570  223.5060 H   0  0  0  0  0  0  0  0  0  0  0  0
  139.3009   72.9214  220.6362 H   0  0  0  0  0  0  0  0  0  0  0  0
  137.7728   73.4143  221.4572 H   0  0  0  0  0  0  0  0  0  0  0  0
  136.9988   75.7507  220.1171 H   0  0  0  0  0  0  0  0  0  0  0  0
  136.8356   75.4880  221.8643 H   0  0  0  0  0  0  0  0  0  0  0  0
  136.3985   77.8965  220.4853 H   0  0  0  0  0  0  0  0  0  0  0  0
  136.5862   77.7326  222.2471 H   0  0  0  0  0  0  0  0  0  0  0  0
  138.7448   78.7400  222.1235 H   0  0  0  0  0  0  0  0  0  0  0  0
  138.7570   80.0910  220.4590 H   0  0  0  0  0  0  0  0  0  0  0  0
  139.3886   77.1289  219.6279 H   0  0  0  0  0  0  0  0  0  0  0  0
  140.8730   78.5406  221.2449 H   0  0  0  0  0  0  0  0  0  0  0  0
  141.0073   76.8769  221.9719 H   0  0  0  0  0  0  0  0  0  0  0  0
  141.1154   78.5539  218.5997 H   0  0  0  0  0  0  0  0  0  0  0  0
  142.6957   77.8599  216.8201 H   0  0  0  0  0  0  0  0  0  0  0  0
  144.1886   75.9311  217.2539 H   0  0  0  0  0  0  0  0  0  0  0  0
  144.5601   73.7666  217.4951 H   0  0  0  0  0  0  0  0  0  0  0  0
  146.6004   71.3906  220.3397 H   0  0  0  0  0  0  0  0  0  0  0  0
  145.7409   72.8710  222.1383 H   0  0  0  0  0  0  0  0  0  0  0  0
  142.5438   75.4300  221.1413 H   0  0  0  0  0  0  0  0  0  0  0  0
  138.4054   68.5954  223.1220 H   0  0  0  0  0  0  0  0  0  0  0  0
  138.9866   67.1619  225.0544 H   0  0  0  0  0  0  0  0  0  0  0  0
  139.9486   66.9772  227.2176 H   0  0  0  0  0  0  0  0  0  0  0  0
  141.5987   70.4353  229.1285 H   0  0  0  0  0  0  0  0  0  0  0  0
  141.0007   71.8208  227.1864 H   0  0  0  0  0  0  0  0  0  0  0  0
  1  2  2  0
  2  3  1  0
  3  4  1  0
  4  5  1  0
  5  6  2  0
  5  7  1  0
  7  8  1  0
  8  9  1  0
  9 10  1  0
 10 11  1  0
 10 12  1  0
 12 13  1  0
 13 14  1  0
 14 15  2  0
 15 16  1  0
 16 17  2  0
 17 18  1  0
 18 19  1  0
 19 20  2  0
 20 21  1  0
 21 22  2  0
 22 23  1  0
 23 24  2  0
 18 25  2  0
  2 26  1  0
 26 27  2  0
 27 28  1  0
 28 29  2  0
 29 30  1  0
 30 31  2  0
 31 32  1  0
 31 33  1  0
 33 34  2  0
 34 35  1  0
 35 36  2  0
 12  7  1  0
 25 14  1  0
 36 26  1  0
 24 19  1  0
 35 29  1  0
  3 37  1  0
  4 38  1  0
  4 39  1  0
  8 40  1  0
  8 41  1  0
  9 42  1  0
  9 43  1  0
 10 44  1  1
 11 45  1  0
 12 46  1  6
 13 47  1  0
 13 48  1  0
 15 49  1  0
 16 50  1  0
 17 51  1  0
 20 52  1  0
 22 53  1  0
 23 54  1  0
 25 55  1  0
 27 56  1  0
 28 57  1  0
 30 58  1  0
 33 59  1  0
 34 60  1  0
M  END
>  <smiles>  (28) 
O=C(NCC(=O)N1CC[C@H](O)[C@H]1Cc1cccc(-c2cnccn2)c1)c1ccc2cc(F)ccc2n1

>  <score_type>  (28) 
oracle

>  <origin>  (28) 
autodockgpu

>  <m_score__min__energy>  (28) 
-10.08

>  <m_primary>  (28) 
energy

>  <rmsd>  (28) 
2.7379287561993007

>  <m_score__min__rmsd>  (28) 
2.7379287561993007

>  <meeko>  (28) 
{"free_energy": -8.77, "intermolecular_energy": -11.15, "internal_energy": -2.23, "cluster_size": 3, "cluster_id": 5, "rank_in_cluster": 2}

>  <energy>  (28) 
-9.24

>  <cluster_rmsd>  (28) 
1.19

>  <cluster>  (28) 
3

$$$$

     RDKit          3D

 60 64  0  0  0  0  0  0  0  0999 V2000
  141.0110   71.3520  221.1710 O   0  0  0  0  0  0  0  0  0  0  0  0
  140.5530   72.0040  222.1490 C   0  0  0  0  0  0  0  0  0  0  0  0
  140.2860   73.4030  222.0940 N   0  0  0  0  0  0  0  0  0  0  0  0
  140.5550   74.1310  220.8330 C   0  0  0  0  0  0  0  0  0  0  0  0
  141.1220   75.4480  221.1160 C   0  0  0  0  0  0  0  0  0  0  0  0
  140.8870   75.9270  222.2830 O   0  0  0  0  0  0  0  0  0  0  0  0
  141.8950   76.2590  220.2700 N   0  0  0  0  0  0  0  0  0  0  0  0
  143.0030   75.6790  219.4760 C   0  0  0  0  0  0  0  0  0  0  0  0
  143.1170   76.5070  218.2410 C   0  0  0  0  0  0  0  0  0  0  0  0
  142.2670   77.7390  218.4510 C   0  0  2  0  0  0  0  0  0  0  0  0
  143.0760   78.8470  218.2000 O   0  0  0  0  0  0  0  0  0  0  0  0
  141.9000   77.6480  219.9200 C   0  0  1  0  0  0  0  0  0  0  0  0
  140.6670   78.4050  220.2520 C   0  0  0  0  0  0  0  0  0  0  0  0
  140.8060   79.2160  221.5010 C   0  0  0  0  0  0  0  0  0  0  0  0
  142.0230   79.4280  222.1160 C   0  0  0  0  0  0  0  0  0  0  0  0
  142.1590   80.1740  223.2690 C   0  0  0  0  0  0  0  0  0  0  0  0
  141.0100   80.7180  223.8060 C   0  0  0  0  0  0  0  0  0  0  0  0
  139.7740   80.5480  223.2510 C   0  0  0  0  0  0  0  0  0  0  0  0
  138.5420   81.1080  223.7930 C   0  0  0  0  0  0  0  0  0  0  0  0
  138.0100   80.7230  225.0050 C   0  0  0  0  0  0  0  0  0  0  0  0
  136.8660   81.2460  225.5050 N   0  0  0  0  0  0  0  0  0  0  0  0
  136.1940   82.1790  224.8190 C   0  0  0  0  0  0  0  0  0  0  0  0
  136.6980   82.5860  223.6040 C   0  0  0  0  0  0  0  0  0  0  0  0
  137.8360   82.0590  223.1190 N   0  0  0  0  0  0  0  0  0  0  0  0
  139.6890   79.7940  222.0980 C   0  0  0  0  0  0  0  0  0  0  0  0
  140.2770   71.2990  223.4190 C   0  0  0  0  0  0  0  0  0  0  0  0
  139.5580   70.1190  223.4060 C   0  0  0  0  0  0  0  0  0  0  0  0
  139.2590   69.4020  224.5430 C   0  0  0  0  0  0  0  0  0  0  0  0
  139.7150   69.9160  225.7440 C   0  0  0  0  0  0  0  0  0  0  0  0
  139.4330   69.2220  226.9070 C   0  0  0  0  0  0  0  0  0  0  0  0
  139.8690   69.7010  228.1240 C   0  0  0  0  0  0  0  0  0  0  0  0
  139.5820   69.0070  229.2520 F   0  0  0  0  0  0  0  0  0  0  0  0
  140.5890   70.8830  228.1290 C   0  0  0  0  0  0  0  0  0  0  0  0
  140.8690   71.5750  226.9660 C   0  0  0  0  0  0  0  0  0  0  0  0
  140.4310   71.0970  225.7290 C   0  0  0  0  0  0  0  0  0  0  0  0
  140.7080   71.7760  224.6020 N   0  0  0  0  0  0  0  0  0  0  0  0
  139.9090   73.8910  222.9310 H   0  0  0  0  0  0  0  0  0  0  0  0
  141.2668   73.5529  220.2255 H   0  0  0  0  0  0  0  0  0  0  0  0
  139.6090   74.2597  220.2865 H   0  0  0  0  0  0  0  0  0  0  0  0
  143.9417   75.7184  220.0480 H   0  0  0  0  0  0  0  0  0  0  0  0
  142.8078   74.6244  219.2315 H   0  0  0  0  0  0  0  0  0  0  0  0
  144.1655   76.7958  218.0760 H   0  0  0  0  0  0  0  0  0  0  0  0
  142.7778   75.9433  217.3594 H   0  0  0  0  0  0  0  0  0  0  0  0
  141.3772   77.8187  217.8092 H   0  0  0  0  0  0  0  0  0  0  0  0
  143.3600   78.9100  217.2540 H   0  0  0  0  0  0  0  0  0  0  0  0
  142.6467   78.1521  220.5511 H   0  0  0  0  0  0  0  0  0  0  0  0
  140.4342   79.0821  219.4169 H   0  0  0  0  0  0  0  0  0  0  0  0
  139.8628   77.6733  220.4189 H   0  0  0  0  0  0  0  0  0  0  0  0
  142.9237   78.9831  221.6678 H   0  0  0  0  0  0  0  0  0  0  0  0
  143.1411   80.3284  223.7398 H   0  0  0  0  0  0  0  0  0  0  0  0
  141.0938   81.3170  224.7248 H   0  0  0  0  0  0  0  0  0  0  0  0
  138.5384   79.9571  225.5917 H   0  0  0  0  0  0  0  0  0  0  0  0
  135.2628   82.6095  225.2160 H   0  0  0  0  0  0  0  0  0  0  0  0
  136.1631   83.3517  223.0230 H   0  0  0  0  0  0  0  0  0  0  0  0
  138.7029   79.6444  221.6340 H   0  0  0  0  0  0  0  0  0  0  0  0
  139.2065   69.7327  222.4379 H   0  0  0  0  0  0  0  0  0  0  0  0
  138.6847   68.4648  224.4986 H   0  0  0  0  0  0  0  0  0  0  0  0
  138.8589   68.2848  226.8606 H   0  0  0  0  0  0  0  0  0  0  0  0
  140.9493   71.2838  229.0879 H   0  0  0  0  0  0  0  0  0  0  0  0
  141.4429   72.5121  227.0151 H   0  0  0  0  0  0  0  0  0  0  0  0
  1  2  2  0
  2  3  1  0
  3  4  1  0
  4  5  1  0
  5  6  2  0
  5  7  1  0
  7  8  1  0
  8  9  1  0
  9 10  1  0
 10 11  1  0
 10 12  1  0
 12 13  1  0
 13 14  1  0
 14 15  2  0
 15 16  1  0
 16 17  2  0
 17 18  1  0
 18 19  1  0
 19 20  2  0
 20 21  1  0
 21 22  2  0
 22 23  1  0
 23 24  2  0
 18 25  2  0
  2 26  1  0
 26 27  2  0
 27 28  1  0
 28 29  2  0
 29 30  1  0
 30 31  2  0
 31 32  1  0
 31 33  1  0
 33 34  2  0
 34 35  1  0
 35 36  2  0
 12  7  1  0
 25 14  1  0
 36 26  1  0
 24 19  1  0
 35 29  1  0
  3 37  1  0
  4 38  1  0
  4 39  1  0
  8 40  1  0
  8 41  1  0
  9 42  1  0
  9 43  1  0
 10 44  1  6
 11 45  1  0
 12 46  1  1
 13 47  1  0
 13 48  1  0
 15 49  1  0
 16 50  1  0
 17 51  1  0
 20 52  1  0
 22 53  1  0
 23 54  1  0
 25 55  1  0
 27 56  1  0
 28 57  1  0
 30 58  1  0
 33 59  1  0
 34 60  1  0
M  END
>  <smiles>  (29) 
O=C(NCC(=O)N1CC[C@H](O)[C@H]1Cc1cccc(-c2cnccn2)c1)c1ccc2cc(F)ccc2n1

>  <score_type>  (29) 
oracle

>  <origin>  (29) 
autodockgpu

>  <m_score__min__energy>  (29) 
-10.08

>  <m_primary>  (29) 
energy

>  <rmsd>  (29) 
2.366722627631749

>  <m_score__min__rmsd>  (29) 
2.366722627631749

>  <meeko>  (29) 
{"free_energy": -9.49, "intermolecular_energy": -11.88, "internal_energy": -2.01, "cluster_size": 16, "cluster_id": 1, "rank_in_cluster": 3}

>  <energy>  (29) 
-8.98

>  <cluster_rmsd>  (29) 
1.27

>  <cluster>  (29) 
3

$$$$

     RDKit          3D

 60 64  0  0  0  0  0  0  0  0999 V2000
  139.7640   73.5250  222.4030 O   0  0  0  0  0  0  0  0  0  0  0  0
  140.1690   72.3320  222.3340 C   0  0  0  0  0  0  0  0  0  0  0  0
  140.6970   71.7580  221.1410 N   0  0  0  0  0  0  0  0  0  0  0  0
  140.7770   72.5950  219.9220 C   0  0  0  0  0  0  0  0  0  0  0  0
  141.7330   73.6850  220.1130 C   0  0  0  0  0  0  0  0  0  0  0  0
  141.2560   74.7810  220.5790 O   0  0  0  0  0  0  0  0  0  0  0  0
  143.1120   73.6840  219.8520 N   0  0  0  0  0  0  0  0  0  0  0  0
  144.0680   74.2250  220.8450 C   0  0  0  0  0  0  0  0  0  0  0  0
  145.3410   73.4710  220.6620 C   0  0  0  0  0  0  0  0  0  0  0  0
  145.2140   72.6900  219.3730 C   0  0  2  0  0  0  0  0  0  0  0  0
  146.3250   73.0040  218.5890 O   0  0  0  0  0  0  0  0  0  0  0  0
  143.9400   73.2460  218.7680 C   0  0  1  0  0  0  0  0  0  0  0  0
  143.3060   72.3100  217.8040 C   0  0  0  0  0  0  0  0  0  0  0  0
  143.5180   70.8750  218.1700 C   0  0  0  0  0  0  0  0  0  0  0  0
  144.7070   70.2170  217.9350 C   0  0  0  0  0  0  0  0  0  0  0  0
  144.9090   68.8940  218.2700 C   0  0  0  0  0  0  0  0  0  0  0  0
  143.8570   68.2270  218.8640 C   0  0  0  0  0  0  0  0  0  0  0  0
  142.6530   68.8150  219.1250 C   0  0  0  0  0  0  0  0  0  0  0  0
  141.5220   68.1400  219.7510 C   0  0  0  0  0  0  0  0  0  0  0  0
  141.3590   66.7710  219.7300 C   0  0  0  0  0  0  0  0  0  0  0  0
  140.3090   66.1480  220.3110 N   0  0  0  0  0  0  0  0  0  0  0  0
  139.3660   66.8590  220.9430 C   0  0  0  0  0  0  0  0  0  0  0  0
  139.4990   68.2290  220.9820 C   0  0  0  0  0  0  0  0  0  0  0  0
  140.5490   68.8370  220.4010 N   0  0  0  0  0  0  0  0  0  0  0  0
  142.4990   70.1410  218.7730 C   0  0  0  0  0  0  0  0  0  0  0  0
  140.0990   71.4770  223.5390 C   0  0  0  0  0  0  0  0  0  0  0  0
  139.4670   70.2500  223.4730 C   0  0  0  0  0  0  0  0  0  0  0  0
  139.3590   69.3960  224.5480 C   0  0  0  0  0  0  0  0  0  0  0  0
  139.9210   69.8180  225.7390 C   0  0  0  0  0  0  0  0  0  0  0  0
  139.8310   68.9850  226.8410 C   0  0  0  0  0  0  0  0  0  0  0  0
  140.3790   69.3680  228.0470 C   0  0  0  0  0  0  0  0  0  0  0  0
  140.2800   68.5390  229.1140 F   0  0  0  0  0  0  0  0  0  0  0  0
  141.0100   70.5980  228.1040 C   0  0  0  0  0  0  0  0  0  0  0  0
  141.0980   71.4280  227.0030 C   0  0  0  0  0  0  0  0  0  0  0  0
  140.5470   71.0480  225.7780 C   0  0  0  0  0  0  0  0  0  0  0  0
  140.6370   71.8620  224.7110 N   0  0  0  0  0  0  0  0  0  0  0  0
  141.0170   70.7690  221.1410 H   0  0  0  0  0  0  0  0  0  0  0  0
  141.1020   71.9722  219.0755 H   0  0  0  0  0  0  0  0  0  0  0  0
  139.7845   73.0230  219.7177 H   0  0  0  0  0  0  0  0  0  0  0  0
  144.2331   75.2980  220.6680 H   0  0  0  0  0  0  0  0  0  0  0  0
  143.6832   74.1130  221.8694 H   0  0  0  0  0  0  0  0  0  0  0  0
  146.1878   74.1702  220.5977 H   0  0  0  0  0  0  0  0  0  0  0  0
  145.5223   72.7968  221.5120 H   0  0  0  0  0  0  0  0  0  0  0  0
  145.1748   71.5959  219.4802 H   0  0  0  0  0  0  0  0  0  0  0  0
  146.4110   73.9750  218.4160 H   0  0  0  0  0  0  0  0  0  0  0  0
  144.1471   74.1171  218.1290 H   0  0  0  0  0  0  0  0  0  0  0  0
  142.2248   72.5106  217.7776 H   0  0  0  0  0  0  0  0  0  0  0  0
  143.7740   72.4757  216.8224 H   0  0  0  0  0  0  0  0  0  0  0  0
  145.5300   70.7710  217.4599 H   0  0  0  0  0  0  0  0  0  0  0  0
  145.8677   68.3922  218.0721 H   0  0  0  0  0  0  0  0  0  0  0  0
  143.9952   67.1713  219.1403 H   0  0  0  0  0  0  0  0  0  0  0  0
  142.1163   66.1589  219.2182 H   0  0  0  0  0  0  0  0  0  0  0  0
  138.5078   66.3615  221.4184 H   0  0  0  0  0  0  0  0  0  0  0  0
  138.7368   68.8341  221.4948 H   0  0  0  0  0  0  0  0  0  0  0  0
  141.5376   70.6355  218.9758 H   0  0  0  0  0  0  0  0  0  0  0  0
  139.0280   69.9397  222.5134 H   0  0  0  0  0  0  0  0  0  0  0  0
  138.8500   68.4246  224.4633 H   0  0  0  0  0  0  0  0  0  0  0  0
  139.3207   68.0144  226.7543 H   0  0  0  0  0  0  0  0  0  0  0  0
  141.4553   70.9251  229.0552 H   0  0  0  0  0  0  0  0  0  0  0  0
  141.6077   72.3986  227.0927 H   0  0  0  0  0  0  0  0  0  0  0  0
  1  2  2  0
  2  3  1  0
  3  4  1  0
  4  5  1  0
  5  6  2  0
  5  7  1  0
  7  8  1  0
  8  9  1  0
  9 10  1  0
 10 11  1  0
 10 12  1  0
 12 13  1  0
 13 14  1  0
 14 15  2  0
 15 16  1  0
 16 17  2  0
 17 18  1  0
 18 19  1  0
 19 20  2  0
 20 21  1  0
 21 22  2  0
 22 23  1  0
 23 24  2  0
 18 25  2  0
  2 26  1  0
 26 27  2  0
 27 28  1  0
 28 29  2  0
 29 30  1  0
 30 31  2  0
 31 32  1  0
 31 33  1  0
 33 34  2  0
 34 35  1  0
 35 36  2  0
 12  7  1  0
 25 14  1  0
 36 26  1  0
 24 19  1  0
 35 29  1  0
  3 37  1  0
  4 38  1  0
  4 39  1  0
  8 40  1  0
  8 41  1  0
  9 42  1  0
  9 43  1  0
 10 44  1  1
 11 45  1  0
 12 46  1  6
 13 47  1  0
 13 48  1  0
 15 49  1  0
 16 50  1  0
 17 51  1  0
 20 52  1  0
 22 53  1  0
 23 54  1  0
 25 55  1  0
 27 56  1  0
 28 57  1  0
 30 58  1  0
 33 59  1  0
 34 60  1  0
M  END
>  <smiles>  (30) 
O=C(NCC(=O)N1CC[C@H](O)[C@H]1Cc1cccc(-c2cnccn2)c1)c1ccc2cc(F)ccc2n1

>  <score_type>  (30) 
oracle

>  <origin>  (30) 
autodockgpu

>  <m_score__min__energy>  (30) 
-10.08

>  <m_primary>  (30) 
energy

>  <rmsd>  (30) 
3.6396408245272998

>  <m_score__min__rmsd>  (30) 
3.6396408245272998

>  <meeko>  (30) 
{"free_energy": -8.2, "intermolecular_energy": -10.58, "internal_energy": -2.72, "cluster_size": 1, "cluster_id": 8, "rank_in_cluster": 1}

>  <energy>  (30) 
-8.63

>  <cluster_rmsd>  (30) 
1.38

>  <cluster>  (30) 
3

$$$$

     RDKit          3D

 60 64  0  0  0  0  0  0  0  0999 V2000
  141.2300   72.0480  221.6490 O   0  0  0  0  0  0  0  0  0  0  0  0
  140.2960   72.2600  222.4690 C   0  0  0  0  0  0  0  0  0  0  0  0
  139.3250   73.2870  222.2930 N   0  0  0  0  0  0  0  0  0  0  0  0
  139.4100   74.1520  221.0940 C   0  0  0  0  0  0  0  0  0  0  0  0
  140.6150   74.9770  221.1450 C   0  0  0  0  0  0  0  0  0  0  0  0
  141.0740   75.2370  222.3140 O   0  0  0  0  0  0  0  0  0  0  0  0
  141.3370   75.5220  220.0720 N   0  0  0  0  0  0  0  0  0  0  0  0
  140.8490   76.7330  219.3720 C   0  0  0  0  0  0  0  0  0  0  0  0
  142.0570   77.4460  218.8660 C   0  0  0  0  0  0  0  0  0  0  0  0
  143.2290   76.5020  219.0230 C   0  0  2  0  0  0  0  0  0  0  0  0
  143.8540   76.4110  217.7800 O   0  0  0  0  0  0  0  0  0  0  0  0
  142.5590   75.1950  219.3980 C   0  0  1  0  0  0  0  0  0  0  0  0
  143.4690   74.2700  220.1200 C   0  0  0  0  0  0  0  0  0  0  0  0
  144.1910   73.3370  219.2000 C   0  0  0  0  0  0  0  0  0  0  0  0
  144.8450   73.7720  218.0660 C   0  0  0  0  0  0  0  0  0  0  0  0
  145.5130   72.9170  217.2130 C   0  0  0  0  0  0  0  0  0  0  0  0
  145.5080   71.5750  217.5360 C   0  0  0  0  0  0  0  0  0  0  0  0
  144.8820   71.0760  218.6410 C   0  0  0  0  0  0  0  0  0  0  0  0
  144.8580   69.6650  219.0110 C   0  0  0  0  0  0  0  0  0  0  0  0
  143.7130   68.8970  218.9700 C   0  0  0  0  0  0  0  0  0  0  0  0
  143.6950   67.5890  219.3130 N   0  0  0  0  0  0  0  0  0  0  0  0
  144.8170   66.9790  219.7160 C   0  0  0  0  0  0  0  0  0  0  0  0
  145.9770   67.7180  219.7680 C   0  0  0  0  0  0  0  0  0  0  0  0
  145.9830   69.0180  219.4230 N   0  0  0  0  0  0  0  0  0  0  0  0
  144.2280   71.9700  219.4650 C   0  0  0  0  0  0  0  0  0  0  0  0
  140.1900   71.4090  223.6750 C   0  0  0  0  0  0  0  0  0  0  0  0
  139.5680   70.1780  223.5940 C   0  0  0  0  0  0  0  0  0  0  0  0
  139.4290   69.3280  224.6680 C   0  0  0  0  0  0  0  0  0  0  0  0
  139.9480   69.7580  225.8760 C   0  0  0  0  0  0  0  0  0  0  0  0
  139.8270   68.9290  226.9780 C   0  0  0  0  0  0  0  0  0  0  0  0
  140.3310   69.3210  228.2000 C   0  0  0  0  0  0  0  0  0  0  0  0
  140.2010   68.4960  229.2660 F   0  0  0  0  0  0  0  0  0  0  0  0
  140.9520   70.5560  228.2720 C   0  0  0  0  0  0  0  0  0  0  0  0
  141.0720   71.3810  227.1710 C   0  0  0  0  0  0  0  0  0  0  0  0
  140.5650   70.9920  225.9300 C   0  0  0  0  0  0  0  0  0  0  0  0
  140.6860   71.8020  224.8630 N   0  0  0  0  0  0  0  0  0  0  0  0
  138.5750   73.4170  223.0020 H   0  0  0  0  0  0  0  0  0  0  0  0
  139.4406   73.5211  220.1934 H   0  0  0  0  0  0  0  0  0  0  0  0
  138.5286   74.8095  221.0653 H   0  0  0  0  0  0  0  0  0  0  0  0
  140.1959   76.4498  218.5334 H   0  0  0  0  0  0  0  0  0  0  0  0
  140.2631   77.3737  220.0475 H   0  0  0  0  0  0  0  0  0  0  0  0
  141.9237   77.7090  217.8063 H   0  0  0  0  0  0  0  0  0  0  0  0
  142.2261   78.3768  219.4272 H   0  0  0  0  0  0  0  0  0  0  0  0
  143.9874   76.8017  219.7612 H   0  0  0  0  0  0  0  0  0  0  0  0
  144.7820   76.0720  217.8400 H   0  0  0  0  0  0  0  0  0  0  0  0
  142.3041   74.6060  218.5046 H   0  0  0  0  0  0  0  0  0  0  0  0
  144.2115   74.8656  220.6713 H   0  0  0  0  0  0  0  0  0  0  0  0
  142.8539   73.6595  220.7974 H   0  0  0  0  0  0  0  0  0  0  0  0
  144.8336   74.8466  217.8315 H   0  0  0  0  0  0  0  0  0  0  0  0
  146.0272   73.2890  216.3145 H   0  0  0  0  0  0  0  0  0  0  0  0
  146.0338   70.8743  216.8708 H   0  0  0  0  0  0  0  0  0  0  0  0
  142.7742   69.3687  218.6443 H   0  0  0  0  0  0  0  0  0  0  0  0
  144.8117   65.9158  219.9979 H   0  0  0  0  0  0  0  0  0  0  0  0
  146.9114   67.2392  220.0960 H   0  0  0  0  0  0  0  0  0  0  0  0
  143.7182   71.5894  220.3624 H   0  0  0  0  0  0  0  0  0  0  0  0
  139.1631   69.8608  222.6216 H   0  0  0  0  0  0  0  0  0  0  0  0
  138.9289   68.3531  224.5702 H   0  0  0  0  0  0  0  0  0  0  0  0
  139.3271   67.9542  226.8784 H   0  0  0  0  0  0  0  0  0  0  0  0
  141.3626   70.8907  229.2360 H   0  0  0  0  0  0  0  0  0  0  0  0
  141.5725   72.3552  227.2731 H   0  0  0  0  0  0  0  0  0  0  0  0
  1  2  2  0
  2  3  1  0
  3  4  1  0
  4  5  1  0
  5  6  2  0
  5  7  1  0
  7  8  1  0
  8  9  1  0
  9 10  1  0
 10 11  1  0
 10 12  1  0
 12 13  1  0
 13 14  1  0
 14 15  2  0
 15 16  1  0
 16 17  2  0
 17 18  1  0
 18 19  1  0
 19 20  2  0
 20 21  1  0
 21 22  2  0
 22 23  1  0
 23 24  2  0
 18 25  2  0
  2 26  1  0
 26 27  2  0
 27 28  1  0
 28 29  2  0
 29 30  1  0
 30 31  2  0
 31 32  1  0
 31 33  1  0
 33 34  2  0
 34 35  1  0
 35 36  2  0
 12  7  1  0
 25 14  1  0
 36 26  1  0
 24 19  1  0
 35 29  1  0
  3 37  1  0
  4 38  1  0
  4 39  1  0
  8 40  1  0
  8 41  1  0
  9 42  1  0
  9 43  1  0
 10 44  1  1
 11 45  1  0
 12 46  1  6
 13 47  1  0
 13 48  1  0
 15 49  1  0
 16 50  1  0
 17 51  1  0
 20 52  1  0
 22 53  1  0
 23 54  1  0
 25 55  1  0
 27 56  1  0
 28 57  1  0
 30 58  1  0
 33 59  1  0
 34 60  1  0
M  END
>  <smiles>  (31) 
O=C(NCC(=O)N1CC[C@H](O)[C@H]1Cc1cccc(-c2cnccn2)c1)c1ccc2cc(F)ccc2n1

>  <score_type>  (31) 
oracle

>  <origin>  (31) 
autodockgpu

>  <m_score__min__energy>  (31) 
-10.08

>  <m_primary>  (31) 
energy

>  <rmsd>  (31) 
2.204646490819984

>  <m_score__min__rmsd>  (31) 
2.204646490819984

>  <meeko>  (31) 
{"free_energy": -9.25, "intermolecular_energy": -11.64, "internal_energy": -1.69, "cluster_size": 5, "cluster_id": 3, "rank_in_cluster": 2}

>  <energy>  (31) 
-9.0

>  <cluster_rmsd>  (31) 
0.0

>  <cluster>  (31) 
4

$$$$

     RDKit          3D

 60 64  0  0  0  0  0  0  0  0999 V2000
  140.4080   71.7750  221.0990 O   0  0  0  0  0  0  0  0  0  0  0  0
  140.0100   72.2770  222.1860 C   0  0  0  0  0  0  0  0  0  0  0  0
  139.5510   73.6220  222.2980 N   0  0  0  0  0  0  0  0  0  0  0  0
  139.5380   74.4750  221.0870 C   0  0  0  0  0  0  0  0  0  0  0  0
  140.8570   75.0640  220.8650 C   0  0  0  0  0  0  0  0  0  0  0  0
  141.8240   74.5580  221.5390 O   0  0  0  0  0  0  0  0  0  0  0  0
  141.2010   76.1170  220.0030 N   0  0  0  0  0  0  0  0  0  0  0  0
  141.1070   77.5240  220.4570 C   0  0  0  0  0  0  0  0  0  0  0  0
  142.1480   78.2820  219.7050 C   0  0  0  0  0  0  0  0  0  0  0  0
  142.6540   77.3730  218.6070 C   0  0  2  0  0  0  0  0  0  0  0  0
  142.5440   78.0750  217.4070 O   0  0  0  0  0  0  0  0  0  0  0  0
  141.6790   76.2130  218.6560 C   0  0  1  0  0  0  0  0  0  0  0  0
  142.2420   74.9660  218.0770 C   0  0  0  0  0  0  0  0  0  0  0  0
  143.2770   74.3380  218.9560 C   0  0  0  0  0  0  0  0  0  0  0  0
  144.0570   75.0730  219.8250 C   0  0  0  0  0  0  0  0  0  0  0  0
  145.0130   74.5010  220.6380 C   0  0  0  0  0  0  0  0  0  0  0  0
  145.1740   73.1330  220.5550 C   0  0  0  0  0  0  0  0  0  0  0  0
  144.4380   72.3450  219.7190 C   0  0  0  0  0  0  0  0  0  0  0  0
  144.5810   70.8980  219.6070 C   0  0  0  0  0  0  0  0  0  0  0  0
  145.7950   70.2770  219.4010 C   0  0  0  0  0  0  0  0  0  0  0  0
  145.9250   68.9340  219.2990 N   0  0  0  0  0  0  0  0  0  0  0  0
  144.8500   68.1420  219.3960 C   0  0  0  0  0  0  0  0  0  0  0  0
  143.6220   68.7310  219.6020 C   0  0  0  0  0  0  0  0  0  0  0  0
  143.5060   70.0670  219.7030 N   0  0  0  0  0  0  0  0  0  0  0  0
  143.4920   72.9630  218.9250 C   0  0  0  0  0  0  0  0  0  0  0  0
  140.0130   71.4450  223.4080 C   0  0  0  0  0  0  0  0  0  0  0  0
  139.5190   70.1560  223.3620 C   0  0  0  0  0  0  0  0  0  0  0  0
  139.4870   69.3180  224.4540 C   0  0  0  0  0  0  0  0  0  0  0  0
  139.9810   69.8220  225.6430 C   0  0  0  0  0  0  0  0  0  0  0  0
  139.9640   69.0080  226.7620 C   0  0  0  0  0  0  0  0  0  0  0  0
  140.4480   69.4730  227.9660 C   0  0  0  0  0  0  0  0  0  0  0  0
  140.4230   68.6600  229.0490 F   0  0  0  0  0  0  0  0  0  0  0  0
  140.9420   70.7650  228.0040 C   0  0  0  0  0  0  0  0  0  0  0  0
  140.9570   71.5770  226.8860 C   0  0  0  0  0  0  0  0  0  0  0  0
  140.4690   71.1140  225.6630 C   0  0  0  0  0  0  0  0  0  0  0  0
  140.4880   71.9100  224.5790 N   0  0  0  0  0  0  0  0  0  0  0  0
  139.2330   73.9850  223.2190 H   0  0  0  0  0  0  0  0  0  0  0  0
  139.2629   73.8629  220.2154 H   0  0  0  0  0  0  0  0  0  0  0  0
  138.8052   75.2832  221.2275 H   0  0  0  0  0  0  0  0  0  0  0  0
  140.1083   77.9287  220.2360 H   0  0  0  0  0  0  0  0  0  0  0  0
  141.2641   77.6030  221.5429 H   0  0  0  0  0  0  0  0  0  0  0  0
  141.7108   79.1926  219.2694 H   0  0  0  0  0  0  0  0  0  0  0  0
  142.9689   78.5856  220.3712 H   0  0  0  0  0  0  0  0  0  0  0  0
  143.6969   77.0381  218.7079 H   0  0  0  0  0  0  0  0  0  0  0  0
  143.3380   78.6340  217.2140 H   0  0  0  0  0  0  0  0  0  0  0  0
  140.8118   76.3910  218.0031 H   0  0  0  0  0  0  0  0  0  0  0  0
  141.4235   74.2465  217.9275 H   0  0  0  0  0  0  0  0  0  0  0  0
  142.7290   75.2309  217.1269 H   0  0  0  0  0  0  0  0  0  0  0  0
  143.9100   76.1621  219.8713 H   0  0  0  0  0  0  0  0  0  0  0  0
  145.6213   75.1094  221.3235 H   0  0  0  0  0  0  0  0  0  0  0  0
  145.9318   72.6551  221.1932 H   0  0  0  0  0  0  0  0  0  0  0  0
  146.6971   70.9007  219.3159 H   0  0  0  0  0  0  0  0  0  0  0  0
  144.9449   67.0492  219.3133 H   0  0  0  0  0  0  0  0  0  0  0  0
  142.7245   68.1004  219.6850 H   0  0  0  0  0  0  0  0  0  0  0  0
  142.8868   72.3467  218.2438 H   0  0  0  0  0  0  0  0  0  0  0  0
  139.1313   69.7796  222.4039 H   0  0  0  0  0  0  0  0  0  0  0  0
  139.0872   68.2956  224.3838 H   0  0  0  0  0  0  0  0  0  0  0  0
  139.5628   67.9863  226.6904 H   0  0  0  0  0  0  0  0  0  0  0  0
  141.3349   71.1578  228.9534 H   0  0  0  0  0  0  0  0  0  0  0  0
  141.3576   72.5987  226.9606 H   0  0  0  0  0  0  0  0  0  0  0  0
  1  2  2  0
  2  3  1  0
  3  4  1  0
  4  5  1  0
  5  6  2  0
  5  7  1  0
  7  8  1  0
  8  9  1  0
  9 10  1  0
 10 11  1  0
 10 12  1  0
 12 13  1  0
 13 14  1  0
 14 15  2  0
 15 16  1  0
 16 17  2  0
 17 18  1  0
 18 19  1  0
 19 20  2  0
 20 21  1  0
 21 22  2  0
 22 23  1  0
 23 24  2  0
 18 25  2  0
  2 26  1  0
 26 27  2  0
 27 28  1  0
 28 29  2  0
 29 30  1  0
 30 31  2  0
 31 32  1  0
 31 33  1  0
 33 34  2  0
 34 35  1  0
 35 36  2  0
 12  7  1  0
 25 14  1  0
 36 26  1  0
 24 19  1  0
 35 29  1  0
  3 37  1  0
  4 38  1  0
  4 39  1  0
  8 40  1  0
  8 41  1  0
  9 42  1  0
  9 43  1  0
 10 44  1  1
 11 45  1  0
 12 46  1  6
 13 47  1  0
 13 48  1  0
 15 49  1  0
 16 50  1  0
 17 51  1  0
 20 52  1  0
 22 53  1  0
 23 54  1  0
 25 55  1  0
 27 56  1  0
 28 57  1  0
 30 58  1  0
 33 59  1  0
 34 60  1  0
M  END
>  <smiles>  (32) 
O=C(NCC(=O)N1CC[C@H](O)[C@H]1Cc1cccc(-c2cnccn2)c1)c1ccc2cc(F)ccc2n1

>  <score_type>  (32) 
oracle

>  <origin>  (32) 
autodockgpu

>  <m_score__min__energy>  (32) 
-10.08

>  <m_primary>  (32) 
energy

>  <rmsd>  (32) 
2.213016206779158

>  <m_score__min__rmsd>  (32) 
2.213016206779158

>  <meeko>  (32) 
{"free_energy": -8.98, "intermolecular_energy": -11.37, "internal_energy": -1.97, "cluster_size": 5, "cluster_id": 3, "rank_in_cluster": 4}

>  <energy>  (32) 
-8.71

>  <cluster_rmsd>  (32) 
0.96

>  <cluster>  (32) 
4

$$$$

     RDKit          3D

 60 64  0  0  0  0  0  0  0  0999 V2000
  137.9180   70.3670  222.1450 O   0  0  0  0  0  0  0  0  0  0  0  0
  138.6690   70.9150  222.9970 C   0  0  0  0  0  0  0  0  0  0  0  0
  139.1040   72.2680  222.8950 N   0  0  0  0  0  0  0  0  0  0  0  0
  138.6580   73.0750  221.7360 C   0  0  0  0  0  0  0  0  0  0  0  0
  139.4010   74.3320  221.6740 C   0  0  0  0  0  0  0  0  0  0  0  0
  140.6470   74.2690  221.9720 O   0  0  0  0  0  0  0  0  0  0  0  0
  138.9220   75.6050  221.3280 N   0  0  0  0  0  0  0  0  0  0  0  0
  137.6980   75.7530  220.5060 C   0  0  0  0  0  0  0  0  0  0  0  0
  137.0700   77.0430  220.9100 C   0  0  0  0  0  0  0  0  0  0  0  0
  138.0790   77.7820  221.7610 C   0  0  2  0  0  0  0  0  0  0  0  0
  138.2330   79.0530  221.2070 O   0  0  0  0  0  0  0  0  0  0  0  0
  139.3360   76.9520  221.5880 C   0  0  1  0  0  0  0  0  0  0  0  0
  140.3000   77.1300  222.7040 C   0  0  0  0  0  0  0  0  0  0  0  0
  141.0030   78.4490  222.6540 C   0  0  0  0  0  0  0  0  0  0  0  0
  141.5500   79.0420  223.7740 C   0  0  0  0  0  0  0  0  0  0  0  0
  142.2000   80.2570  223.7340 C   0  0  0  0  0  0  0  0  0  0  0  0
  142.2910   80.8840  222.5070 C   0  0  0  0  0  0  0  0  0  0  0  0
  141.7740   80.3550  221.3600 C   0  0  0  0  0  0  0  0  0  0  0  0
  141.8530   80.9900  220.0500 C   0  0  0  0  0  0  0  0  0  0  0  0
  141.3520   82.2490  219.7930 C   0  0  0  0  0  0  0  0  0  0  0  0
  141.4280   82.8350  218.5760 N   0  0  0  0  0  0  0  0  0  0  0  0
  142.0050   82.1940  217.5510 C   0  0  0  0  0  0  0  0  0  0  0  0
  142.5150   80.9340  217.7750 C   0  0  0  0  0  0  0  0  0  0  0  0
  142.4350   80.3630  218.9890 N   0  0  0  0  0  0  0  0  0  0  0  0
  141.1330   79.1360  221.4490 C   0  0  0  0  0  0  0  0  0  0  0  0
  139.1280   70.1290  224.1640 C   0  0  0  0  0  0  0  0  0  0  0  0
  138.8640   68.7740  224.2240 C   0  0  0  0  0  0  0  0  0  0  0  0
  139.2560   67.9730  225.2740 C   0  0  0  0  0  0  0  0  0  0  0  0
  139.9460   68.5870  226.3040 C   0  0  0  0  0  0  0  0  0  0  0  0
  140.3560   67.8120  227.3750 C   0  0  0  0  0  0  0  0  0  0  0  0
  141.0460   68.3850  228.4220 C   0  0  0  0  0  0  0  0  0  0  0  0
  141.4370   67.6110  229.4620 F   0  0  0  0  0  0  0  0  0  0  0  0
  141.3050   69.7430  228.3540 C   0  0  0  0  0  0  0  0  0  0  0  0
  140.8950   70.5140  227.2830 C   0  0  0  0  0  0  0  0  0  0  0  0
  140.1960   69.9420  226.2190 C   0  0  0  0  0  0  0  0  0  0  0  0
  139.8000   70.7000  225.1800 N   0  0  0  0  0  0  0  0  0  0  0  0
  139.7230   72.6690  223.6280 H   0  0  0  0  0  0  0  0  0  0  0  0
  138.8304   72.5061  220.8104 H   0  0  0  0  0  0  0  0  0  0  0  0
  137.5869   73.2989  221.8482 H   0  0  0  0  0  0  0  0  0  0  0  0
  137.9583   75.7753  219.4375 H   0  0  0  0  0  0  0  0  0  0  0  0
  137.0096   74.9094  220.6623 H   0  0  0  0  0  0  0  0  0  0  0  0
  136.8213   77.6371  220.0183 H   0  0  0  0  0  0  0  0  0  0  0  0
  136.1398   76.8670  221.4701 H   0  0  0  0  0  0  0  0  0  0  0  0
  137.8102   77.9052  222.8205 H   0  0  0  0  0  0  0  0  0  0  0  0
  137.7460   79.1630  220.3520 H   0  0  0  0  0  0  0  0  0  0  0  0
  139.9269   77.2957  220.7262 H   0  0  0  0  0  0  0  0  0  0  0  0
  139.7536   77.0582  223.6560 H   0  0  0  0  0  0  0  0  0  0  0  0
  141.0631   76.3429  222.6129 H   0  0  0  0  0  0  0  0  0  0  0  0
  141.4635   78.5228  224.7399 H   0  0  0  0  0  0  0  0  0  0  0  0
  142.6282   80.7081  224.6413 H   0  0  0  0  0  0  0  0  0  0  0  0
  142.8042   81.8553  222.4515 H   0  0  0  0  0  0  0  0  0  0  0  0
  140.8696   82.8007  220.6133 H   0  0  0  0  0  0  0  0  0  0  0  0
  142.0699   82.6611  216.5572 H   0  0  0  0  0  0  0  0  0  0  0  0
  142.9942   80.3879  216.9491 H   0  0  0  0  0  0  0  0  0  0  0  0
  140.7098   78.6912  220.5363 H   0  0  0  0  0  0  0  0  0  0  0  0
  138.3132   68.3117  223.3916 H   0  0  0  0  0  0  0  0  0  0  0  0
  139.0311   66.8964  225.2926 H   0  0  0  0  0  0  0  0  0  0  0  0
  140.1306   66.7355  227.3908 H   0  0  0  0  0  0  0  0  0  0  0  0
  141.8539   70.2231  229.1776 H   0  0  0  0  0  0  0  0  0  0  0  0
  141.1220   71.5902  227.2689 H   0  0  0  0  0  0  0  0  0  0  0  0
  1  2  2  0
  2  3  1  0
  3  4  1  0
  4  5  1  0
  5  6  2  0
  5  7  1  0
  7  8  1  0
  8  9  1  0
  9 10  1  0
 10 11  1  0
 10 12  1  0
 12 13  1  0
 13 14  1  0
 14 15  2  0
 15 16  1  0
 16 17  2  0
 17 18  1  0
 18 19  1  0
 19 20  2  0
 20 21  1  0
 21 22  2  0
 22 23  1  0
 23 24  2  0
 18 25  2  0
  2 26  1  0
 26 27  2  0
 27 28  1  0
 28 29  2  0
 29 30  1  0
 30 31  2  0
 31 32  1  0
 31 33  1  0
 33 34  2  0
 34 35  1  0
 35 36  2  0
 12  7  1  0
 25 14  1  0
 36 26  1  0
 24 19  1  0
 35 29  1  0
  3 37  1  0
  4 38  1  0
  4 39  1  0
  8 40  1  0
  8 41  1  0
  9 42  1  0
  9 43  1  0
 10 44  1  1
 11 45  1  0
 12 46  1  6
 13 47  1  0
 13 48  1  0
 15 49  1  0
 16 50  1  0
 17 51  1  0
 20 52  1  0
 22 53  1  0
 23 54  1  0
 25 55  1  0
 27 56  1  0
 28 57  1  0
 30 58  1  0
 33 59  1  0
 34 60  1  0
M  END
>  <smiles>  (33) 
O=C(NCC(=O)N1CC[C@H](O)[C@H]1Cc1cccc(-c2cnccn2)c1)c1ccc2cc(F)ccc2n1

>  <score_type>  (33) 
oracle

>  <origin>  (33) 
autodockgpu

>  <m_score__min__energy>  (33) 
-10.08

>  <m_primary>  (33) 
energy

>  <rmsd>  (33) 
2.8848961099922774

>  <m_score__min__rmsd>  (33) 
2.8848961099922774

>  <meeko>  (33) 
{"free_energy": -9.0, "intermolecular_energy": -11.39, "internal_energy": -1.99, "cluster_size": 2, "cluster_id": 4, "rank_in_cluster": 1}

>  <energy>  (33) 
-8.9

>  <cluster_rmsd>  (33) 
0.0

>  <cluster>  (33) 
5

$$$$

     RDKit          3D

 60 64  0  0  0  0  0  0  0  0999 V2000
  138.1940   70.6900  221.8290 O   0  0  0  0  0  0  0  0  0  0  0  0
  138.8490   71.2410  222.7550 C   0  0  0  0  0  0  0  0  0  0  0  0
  139.2640   72.6040  222.7090 N   0  0  0  0  0  0  0  0  0  0  0  0
  138.9160   73.4160  221.5210 C   0  0  0  0  0  0  0  0  0  0  0  0
  139.5540   74.7290  221.5960 C   0  0  0  0  0  0  0  0  0  0  0  0
  140.6290   74.7970  222.2930 O   0  0  0  0  0  0  0  0  0  0  0  0
  139.1400   75.9290  220.9980 N   0  0  0  0  0  0  0  0  0  0  0  0
  138.3760   75.9150  219.7290 C   0  0  0  0  0  0  0  0  0  0  0  0
  137.5060   77.1250  219.7450 C   0  0  0  0  0  0  0  0  0  0  0  0
  137.9720   77.9940  220.8920 C   0  0  2  0  0  0  0  0  0  0  0  0
  138.2150   79.2660  220.3750 O   0  0  0  0  0  0  0  0  0  0  0  0
  139.2610   77.3200  221.3210 C   0  0  1  0  0  0  0  0  0  0  0  0
  139.6310   77.6300  222.7260 C   0  0  0  0  0  0  0  0  0  0  0  0
  140.6130   78.7530  222.8290 C   0  0  0  0  0  0  0  0  0  0  0  0
  141.6590   78.7450  223.7290 C   0  0  0  0  0  0  0  0  0  0  0  0
  142.5680   79.7780  223.8290 C   0  0  0  0  0  0  0  0  0  0  0  0
  142.3960   80.8520  222.9800 C   0  0  0  0  0  0  0  0  0  0  0  0
  141.3850   80.9270  222.0670 C   0  0  0  0  0  0  0  0  0  0  0  0
  141.1760   82.0460  221.1560 C   0  0  0  0  0  0  0  0  0  0  0  0
  141.4410   81.9750  219.8040 C   0  0  0  0  0  0  0  0  0  0  0  0
  141.2450   83.0150  218.9620 N   0  0  0  0  0  0  0  0  0  0  0  0
  140.7770   84.1810  219.4250 C   0  0  0  0  0  0  0  0  0  0  0  0
  140.5030   84.2860  220.7700 C   0  0  0  0  0  0  0  0  0  0  0  0
  140.7000   83.2440  221.5970 N   0  0  0  0  0  0  0  0  0  0  0  0
  140.5010   79.8690  222.0030 C   0  0  0  0  0  0  0  0  0  0  0  0
  139.2090   70.4500  223.9520 C   0  0  0  0  0  0  0  0  0  0  0  0
  138.9190   69.1000  223.9940 C   0  0  0  0  0  0  0  0  0  0  0  0
  139.2210   68.2950  225.0700 C   0  0  0  0  0  0  0  0  0  0  0  0
  139.8450   68.8980  226.1460 C   0  0  0  0  0  0  0  0  0  0  0  0
  140.1630   68.1190  227.2450 C   0  0  0  0  0  0  0  0  0  0  0  0
  140.7860   68.6820  228.3380 C   0  0  0  0  0  0  0  0  0  0  0  0
  141.0890   67.9030  229.4040 F   0  0  0  0  0  0  0  0  0  0  0  0
  141.0730   70.0350  228.2880 C   0  0  0  0  0  0  0  0  0  0  0  0
  140.7540   70.8110  227.1900 C   0  0  0  0  0  0  0  0  0  0  0  0
  140.1240   70.2490  226.0790 C   0  0  0  0  0  0  0  0  0  0  0  0
  139.8160   71.0110  225.0140 N   0  0  0  0  0  0  0  0  0  0  0  0
  139.8020   73.0070  223.5020 H   0  0  0  0  0  0  0  0  0  0  0  0
  139.2600   72.8972  220.6141 H   0  0  0  0  0  0  0  0  0  0  0  0
  137.8248   73.5511  221.4885 H   0  0  0  0  0  0  0  0  0  0  0  0
  139.0635   75.9527  218.8712 H   0  0  0  0  0  0  0  0  0  0  0  0
  137.7780   74.9965  219.6350 H   0  0  0  0  0  0  0  0  0  0  0  0
  137.6019   77.6711  218.7949 H   0  0  0  0  0  0  0  0  0  0  0  0
  136.4495   76.8454  219.8703 H   0  0  0  0  0  0  0  0  0  0  0  0
  137.2646   78.0994  221.7278 H   0  0  0  0  0  0  0  0  0  0  0  0
  137.9320   79.3580  219.4310 H   0  0  0  0  0  0  0  0  0  0  0  0
  140.1247   77.7201  220.7697 H   0  0  0  0  0  0  0  0  0  0  0  0
  138.7202   77.9072  223.2770 H   0  0  0  0  0  0  0  0  0  0  0  0
  140.1057   76.7331  223.1506 H   0  0  0  0  0  0  0  0  0  0  0  0
  141.7730   77.8774  224.3956 H   0  0  0  0  0  0  0  0  0  0  0  0
  143.3943   79.7468  224.5544 H   0  0  0  0  0  0  0  0  0  0  0  0
  143.1083   81.6879  223.0423 H   0  0  0  0  0  0  0  0  0  0  0  0
  141.8287   81.0312  219.3929 H   0  0  0  0  0  0  0  0  0  0  0  0
  140.6156   85.0329  218.7481 H   0  0  0  0  0  0  0  0  0  0  0  0
  140.1181   85.2342  221.1734 H   0  0  0  0  0  0  0  0  0  0  0  0
  139.6786   79.9085  221.2736 H   0  0  0  0  0  0  0  0  0  0  0  0
  138.4220   68.6451  223.1245 H   0  0  0  0  0  0  0  0  0  0  0  0
  138.9770   67.2224  225.0730 H   0  0  0  0  0  0  0  0  0  0  0  0
  139.9176   67.0467  227.2461 H   0  0  0  0  0  0  0  0  0  0  0  0
  141.5701   70.5069  229.1483 H   0  0  0  0  0  0  0  0  0  0  0  0
  140.9993   71.8833  227.1918 H   0  0  0  0  0  0  0  0  0  0  0  0
  1  2  2  0
  2  3  1  0
  3  4  1  0
  4  5  1  0
  5  6  2  0
  5  7  1  0
  7  8  1  0
  8  9  1  0
  9 10  1  0
 10 11  1  0
 10 12  1  0
 12 13  1  0
 13 14  1  0
 14 15  2  0
 15 16  1  0
 16 17  2  0
 17 18  1  0
 18 19  1  0
 19 20  2  0
 20 21  1  0
 21 22  2  0
 22 23  1  0
 23 24  2  0
 18 25  2  0
  2 26  1  0
 26 27  2  0
 27 28  1  0
 28 29  2  0
 29 30  1  0
 30 31  2  0
 31 32  1  0
 31 33  1  0
 33 34  2  0
 34 35  1  0
 35 36  2  0
 12  7  1  0
 25 14  1  0
 36 26  1  0
 24 19  1  0
 35 29  1  0
  3 37  1  0
  4 38  1  0
  4 39  1  0
  8 40  1  0
  8 41  1  0
  9 42  1  0
  9 43  1  0
 10 44  1  1
 11 45  1  0
 12 46  1  6
 13 47  1  0
 13 48  1  0
 15 49  1  0
 16 50  1  0
 17 51  1  0
 20 52  1  0
 22 53  1  0
 23 54  1  0
 25 55  1  0
 27 56  1  0
 28 57  1  0
 30 58  1  0
 33 59  1  0
 34 60  1  0
M  END
>  <smiles>  (34) 
O=C(NCC(=O)N1CC[C@H](O)[C@H]1Cc1cccc(-c2cnccn2)c1)c1ccc2cc(F)ccc2n1

>  <score_type>  (34) 
oracle

>  <origin>  (34) 
autodockgpu

>  <m_score__min__energy>  (34) 
-10.08

>  <m_primary>  (34) 
energy

>  <rmsd>  (34) 
2.6070030011557463

>  <m_score__min__rmsd>  (34) 
2.6070030011557463

>  <meeko>  (34) 
{"free_energy": -8.71, "intermolecular_energy": -11.09, "internal_energy": -2.19, "cluster_size": 2, "cluster_id": 4, "rank_in_cluster": 2}

>  <energy>  (34) 
-8.77

>  <cluster_rmsd>  (34) 
0.5

>  <cluster>  (34) 
5

$$$$

     RDKit          3D

 60 64  0  0  0  0  0  0  0  0999 V2000
  139.9810   73.4150  222.5600 O   0  0  0  0  0  0  0  0  0  0  0  0
  140.3170   72.1990  222.5170 C   0  0  0  0  0  0  0  0  0  0  0  0
  140.8350   71.5780  221.3440 N   0  0  0  0  0  0  0  0  0  0  0  0
  140.9890   72.3900  220.1150 C   0  0  0  0  0  0  0  0  0  0  0  0
  142.2890   73.0580  220.1040 C   0  0  0  0  0  0  0  0  0  0  0  0
  143.2930   72.3490  220.4740 O   0  0  0  0  0  0  0  0  0  0  0  0
  142.5800   74.3810  219.7390 N   0  0  0  0  0  0  0  0  0  0  0  0
  143.9070   74.7360  219.1830 C   0  0  0  0  0  0  0  0  0  0  0  0
  143.6880   75.8950  218.2710 C   0  0  0  0  0  0  0  0  0  0  0  0
  142.2820   76.3960  218.5180 C   0  0  2  0  0  0  0  0  0  0  0  0
  142.3710   77.7620  218.7850 O   0  0  0  0  0  0  0  0  0  0  0  0
  141.8610   75.6200  219.7510 C   0  0  1  0  0  0  0  0  0  0  0  0
  140.3860   75.5120  219.8850 C   0  0  0  0  0  0  0  0  0  0  0  0
  139.8470   76.3410  221.0080 C   0  0  0  0  0  0  0  0  0  0  0  0
  138.6130   76.1040  221.5800 C   0  0  0  0  0  0  0  0  0  0  0  0
  138.1100   76.8640  222.6150 C   0  0  0  0  0  0  0  0  0  0  0  0
  138.8980   77.8990  223.0770 C   0  0  0  0  0  0  0  0  0  0  0  0
  140.1270   78.1900  222.5590 C   0  0  0  0  0  0  0  0  0  0  0  0
  140.9840   79.2740  223.0240 C   0  0  0  0  0  0  0  0  0  0  0  0
  140.4900   80.4690  223.5050 C   0  0  0  0  0  0  0  0  0  0  0  0
  141.2880   81.4720  223.9350 N   0  0  0  0  0  0  0  0  0  0  0  0
  142.6200   81.3370  223.9080 C   0  0  0  0  0  0  0  0  0  0  0  0
  143.1450   80.1560  223.4330 C   0  0  0  0  0  0  0  0  0  0  0  0
  142.3420   79.1650  223.0090 N   0  0  0  0  0  0  0  0  0  0  0  0
  140.5880   77.4010  221.5240 C   0  0  0  0  0  0  0  0  0  0  0  0
  140.1730   71.3690  223.7320 C   0  0  0  0  0  0  0  0  0  0  0  0
  139.4830   70.1740  223.6680 C   0  0  0  0  0  0  0  0  0  0  0  0
  139.3040   69.3440  224.7520 C   0  0  0  0  0  0  0  0  0  0  0  0
  139.8550   69.7560  225.9510 C   0  0  0  0  0  0  0  0  0  0  0  0
  139.6950   68.9470  227.0630 C   0  0  0  0  0  0  0  0  0  0  0  0
  140.2300   69.3210  228.2770 C   0  0  0  0  0  0  0  0  0  0  0  0
  140.0620   68.5160  229.3530 F   0  0  0  0  0  0  0  0  0  0  0  0
  140.9200   70.5200  228.3330 C   0  0  0  0  0  0  0  0  0  0  0  0
  141.0780   71.3260  227.2220 C   0  0  0  0  0  0  0  0  0  0  0  0
  140.5400   70.9540  225.9890 C   0  0  0  0  0  0  0  0  0  0  0  0
  140.6990   71.7450  224.9120 N   0  0  0  0  0  0  0  0  0  0  0  0
  141.0970   70.5720  221.3650 H   0  0  0  0  0  0  0  0  0  0  0  0
  140.9113   71.7341  219.2354 H   0  0  0  0  0  0  0  0  0  0  0  0
  140.1964   73.1523  220.0899 H   0  0  0  0  0  0  0  0  0  0  0  0
  144.5962   75.0153  219.9936 H   0  0  0  0  0  0  0  0  0  0  0  0
  144.3533   73.8861  218.6459 H   0  0  0  0  0  0  0  0  0  0  0  0
  144.4158   76.6902  218.4899 H   0  0  0  0  0  0  0  0  0  0  0  0
  143.8183   75.5965  217.2203 H   0  0  0  0  0  0  0  0  0  0  0  0
  141.5747   76.2610  217.6864 H   0  0  0  0  0  0  0  0  0  0  0  0
  141.7300   78.0610  219.4780 H   0  0  0  0  0  0  0  0  0  0  0  0
  142.1304   76.1568  220.6726 H   0  0  0  0  0  0  0  0  0  0  0  0
  139.9217   75.8469  218.9457 H   0  0  0  0  0  0  0  0  0  0  0  0
  140.1479   74.4606  220.1036 H   0  0  0  0  0  0  0  0  0  0  0  0
  138.0047   75.2730  221.1935 H   0  0  0  0  0  0  0  0  0  0  0  0
  137.1232   76.6545  223.0536 H   0  0  0  0  0  0  0  0  0  0  0  0
  138.5173   78.5190  223.9021 H   0  0  0  0  0  0  0  0  0  0  0  0
  139.3999   80.6118  223.5402 H   0  0  0  0  0  0  0  0  0  0  0  0
  143.2770   82.1477  224.2559 H   0  0  0  0  0  0  0  0  0  0  0  0
  144.2363   80.0217  223.4001 H   0  0  0  0  0  0  0  0  0  0  0  0
  141.5760   77.6175  221.0916 H   0  0  0  0  0  0  0  0  0  0  0  0
  139.0546   69.8699  222.7016 H   0  0  0  0  0  0  0  0  0  0  0  0
  138.7489   68.3981  224.6679 H   0  0  0  0  0  0  0  0  0  0  0  0
  139.1387   68.0019  226.9774 H   0  0  0  0  0  0  0  0  0  0  0  0
  141.3555   70.8406  229.2909 H   0  0  0  0  0  0  0  0  0  0  0  0
  141.6338   72.2711  227.3102 H   0  0  0  0  0  0  0  0  0  0  0  0
  1  2  2  0
  2  3  1  0
  3  4  1  0
  4  5  1  0
  5  6  2  0
  5  7  1  0
  7  8  1  0
  8  9  1  0
  9 10  1  0
 10 11  1  0
 10 12  1  0
 12 13  1  0
 13 14  1  0
 14 15  2  0
 15 16  1  0
 16 17  2  0
 17 18  1  0
 18 19  1  0
 19 20  2  0
 20 21  1  0
 21 22  2  0
 22 23  1  0
 23 24  2  0
 18 25  2  0
  2 26  1  0
 26 27  2  0
 27 28  1  0
 28 29  2  0
 29 30  1  0
 30 31  2  0
 31 32  1  0
 31 33  1  0
 33 34  2  0
 34 35  1  0
 35 36  2  0
 12  7  1  0
 25 14  1  0
 36 26  1  0
 24 19  1  0
 35 29  1  0
  3 37  1  0
  4 38  1  0
  4 39  1  0
  8 40  1  0
  8 41  1  0
  9 42  1  0
  9 43  1  0
 10 44  1  6
 11 45  1  0
 12 46  1  1
 13 47  1  0
 13 48  1  0
 15 49  1  0
 16 50  1  0
 17 51  1  0
 20 52  1  0
 22 53  1  0
 23 54  1  0
 25 55  1  0
 27 56  1  0
 28 57  1  0
 30 58  1  0
 33 59  1  0
 34 60  1  0
M  END
>  <smiles>  (35) 
O=C(NCC(=O)N1CC[C@H](O)[C@H]1Cc1cccc(-c2cnccn2)c1)c1ccc2cc(F)ccc2n1

>  <score_type>  (35) 
oracle

>  <origin>  (35) 
autodockgpu

>  <m_score__min__energy>  (35) 
-10.08

>  <m_primary>  (35) 
energy

>  <rmsd>  (35) 
2.805045900357269

>  <m_score__min__rmsd>  (35) 
2.805045900357269

>  <meeko>  (35) 
{"free_energy": -8.68, "intermolecular_energy": -11.06, "internal_energy": -1.93, "cluster_size": 16, "cluster_id": 1, "rank_in_cluster": 13}

>  <energy>  (35) 
-8.7

>  <cluster_rmsd>  (35) 
1.34

>  <cluster>  (35) 
5

$$$$

     RDKit          3D

 60 64  0  0  0  0  0  0  0  0999 V2000
  140.3790   73.1030  222.6920 O   0  0  0  0  0  0  0  0  0  0  0  0
  140.1390   71.8700  222.5750 C   0  0  0  0  0  0  0  0  0  0  0  0
  139.9110   71.2380  221.3180 N   0  0  0  0  0  0  0  0  0  0  0  0
  139.9560   72.0600  220.0870 C   0  0  0  0  0  0  0  0  0  0  0  0
  141.2810   71.9870  219.4740 C   0  0  0  0  0  0  0  0  0  0  0  0
  141.3820   71.2480  218.4300 O   0  0  0  0  0  0  0  0  0  0  0  0
  142.4620   72.6250  219.8840 N   0  0  0  0  0  0  0  0  0  0  0  0
  143.6730   71.8350  220.2080 C   0  0  0  0  0  0  0  0  0  0  0  0
  144.8420   72.7040  219.8880 C   0  0  0  0  0  0  0  0  0  0  0  0
  144.3080   74.0990  219.6510 C   0  0  2  0  0  0  0  0  0  0  0  0
  145.0240   74.9620  220.4820 O   0  0  0  0  0  0  0  0  0  0  0  0
  142.8620   73.9850  220.0920 C   0  0  1  0  0  0  0  0  0  0  0  0
  141.9910   75.0190  219.4770 C   0  0  0  0  0  0  0  0  0  0  0  0
  141.1360   75.7240  220.4810 C   0  0  0  0  0  0  0  0  0  0  0  0
  139.9250   75.2190  220.9100 C   0  0  0  0  0  0  0  0  0  0  0  0
  139.1310   75.8640  221.8350 C   0  0  0  0  0  0  0  0  0  0  0  0
  139.5950   77.0640  222.3360 C   0  0  0  0  0  0  0  0  0  0  0  0
  140.7810   77.6210  221.9570 C   0  0  0  0  0  0  0  0  0  0  0  0
  141.3000   78.8850  222.4660 C   0  0  0  0  0  0  0  0  0  0  0  0
  141.8330   79.0250  223.7300 C   0  0  0  0  0  0  0  0  0  0  0  0
  142.3130   80.1990  224.1990 N   0  0  0  0  0  0  0  0  0  0  0  0
  142.2870   81.2960  223.4300 C   0  0  0  0  0  0  0  0  0  0  0  0
  141.7610   81.1900  222.1620 C   0  0  0  0  0  0  0  0  0  0  0  0
  141.2870   80.0170  221.7070 N   0  0  0  0  0  0  0  0  0  0  0  0
  141.5420   76.9380  221.0280 C   0  0  0  0  0  0  0  0  0  0  0  0
  140.0880   71.0280  223.7900 C   0  0  0  0  0  0  0  0  0  0  0  0
  139.4530   69.8020  223.7500 C   0  0  0  0  0  0  0  0  0  0  0  0
  139.3620   68.9600  224.8360 C   0  0  0  0  0  0  0  0  0  0  0  0
  139.9460   69.3940  226.0120 C   0  0  0  0  0  0  0  0  0  0  0  0
  139.8750   68.5730  227.1240 C   0  0  0  0  0  0  0  0  0  0  0  0
  140.4450   68.9670  228.3160 C   0  0  0  0  0  0  0  0  0  0  0  0
  140.3640   68.1510  229.3930 F   0  0  0  0  0  0  0  0  0  0  0  0
  141.0800   70.1970  228.3480 C   0  0  0  0  0  0  0  0  0  0  0  0
  141.1500   71.0150  227.2360 C   0  0  0  0  0  0  0  0  0  0  0  0
  140.5750   70.6220  226.0260 C   0  0  0  0  0  0  0  0  0  0  0  0
  140.6480   71.4240  224.9480 N   0  0  0  0  0  0  0  0  0  0  0  0
  139.7180   70.2160  221.2810 H   0  0  0  0  0  0  0  0  0  0  0  0
  139.2058   71.6868  219.3743 H   0  0  0  0  0  0  0  0  0  0  0  0
  139.7409   73.1066  220.3486 H   0  0  0  0  0  0  0  0  0  0  0  0
  143.6785   71.5679  221.2751 H   0  0  0  0  0  0  0  0  0  0  0  0
  143.7035   70.8983  219.6320 H   0  0  0  0  0  0  0  0  0  0  0  0
  145.5500   72.7090  220.7299 H   0  0  0  0  0  0  0  0  0  0  0  0
  145.3742   72.3326  218.9999 H   0  0  0  0  0  0  0  0  0  0  0  0
  144.3947   74.4737  218.6204 H   0  0  0  0  0  0  0  0  0  0  0  0
  145.9700   75.0620  220.2100 H   0  0  0  0  0  0  0  0  0  0  0  0
  142.7509   74.2091  221.1632 H   0  0  0  0  0  0  0  0  0  0  0  0
  142.6276   75.7614  218.9735 H   0  0  0  0  0  0  0  0  0  0  0  0
  141.3209   74.5106  218.7681 H   0  0  0  0  0  0  0  0  0  0  0  0
  139.5783   74.2606  220.4962 H   0  0  0  0  0  0  0  0  0  0  0  0
  138.1691   75.4405  222.1598 H   0  0  0  0  0  0  0  0  0  0  0  0
  138.9790   77.5961  223.0759 H   0  0  0  0  0  0  0  0  0  0  0  0
  141.8693   78.1427  224.3858 H   0  0  0  0  0  0  0  0  0  0  0  0
  142.6755   82.2556  223.8018 H   0  0  0  0  0  0  0  0  0  0  0  0
  141.7281   82.0771  221.5124 H   0  0  0  0  0  0  0  0  0  0  0  0
  142.5027   77.3687  220.7093 H   0  0  0  0  0  0  0  0  0  0  0  0
  138.9965   69.4817  222.8019 H   0  0  0  0  0  0  0  0  0  0  0  0
  138.8494   67.9889  224.7711 H   0  0  0  0  0  0  0  0  0  0  0  0
  139.3618   67.6024  227.0565 H   0  0  0  0  0  0  0  0  0  0  0  0
  141.5430   70.5336  229.2873 H   0  0  0  0  0  0  0  0  0  0  0  0
  141.6638   71.9852  227.3051 H   0  0  0  0  0  0  0  0  0  0  0  0
  1  2  2  0
  2  3  1  0
  3  4  1  0
  4  5  1  0
  5  6  2  0
  5  7  1  0
  7  8  1  0
  8  9  1  0
  9 10  1  0
 10 11  1  0
 10 12  1  0
 12 13  1  0
 13 14  1  0
 14 15  2  0
 15 16  1  0
 16 17  2  0
 17 18  1  0
 18 19  1  0
 19 20  2  0
 20 21  1  0
 21 22  2  0
 22 23  1  0
 23 24  2  0
 18 25  2  0
  2 26  1  0
 26 27  2  0
 27 28  1  0
 28 29  2  0
 29 30  1  0
 30 31  2  0
 31 32  1  0
 31 33  1  0
 33 34  2  0
 34 35  1  0
 35 36  2  0
 12  7  1  0
 25 14  1  0
 36 26  1  0
 24 19  1  0
 35 29  1  0
  3 37  1  0
  4 38  1  0
  4 39  1  0
  8 40  1  0
  8 41  1  0
  9 42  1  0
  9 43  1  0
 10 44  1  6
 11 45  1  0
 12 46  1  1
 13 47  1  0
 13 48  1  0
 15 49  1  0
 16 50  1  0
 17 51  1  0
 20 52  1  0
 22 53  1  0
 23 54  1  0
 25 55  1  0
 27 56  1  0
 28 57  1  0
 30 58  1  0
 33 59  1  0
 34 60  1  0
M  END
>  <smiles>  (36) 
O=C(NCC(=O)N1CC[C@H](O)[C@H]1Cc1cccc(-c2cnccn2)c1)c1ccc2cc(F)ccc2n1

>  <score_type>  (36) 
oracle

>  <origin>  (36) 
autodockgpu

>  <m_score__min__energy>  (36) 
-10.08

>  <m_primary>  (36) 
energy

>  <rmsd>  (36) 
3.410211867651368

>  <m_score__min__rmsd>  (36) 
3.410211867651368

>  <meeko>  (36) 
{"free_energy": -9.26, "intermolecular_energy": -11.64, "internal_energy": -1.92, "cluster_size": 9, "cluster_id": 2, "rank_in_cluster": 6}

>  <energy>  (36) 
-8.76

>  <cluster_rmsd>  (36) 
0.0

>  <cluster>  (36) 
6

$$$$

     RDKit          3D

 60 64  0  0  0  0  0  0  0  0999 V2000
  140.0030   73.3950  222.7060 O   0  0  0  0  0  0  0  0  0  0  0  0
  140.2100   72.1600  222.5510 C   0  0  0  0  0  0  0  0  0  0  0  0
  140.4930   71.5720  221.2850 N   0  0  0  0  0  0  0  0  0  0  0  0
  140.5490   72.4450  220.0890 C   0  0  0  0  0  0  0  0  0  0  0  0
  141.5780   73.4700  220.2540 C   0  0  0  0  0  0  0  0  0  0  0  0
  141.1740   74.6170  220.6640 O   0  0  0  0  0  0  0  0  0  0  0  0
  142.9570   73.3580  220.0210 N   0  0  0  0  0  0  0  0  0  0  0  0
  143.7940   72.4700  220.8610 C   0  0  0  0  0  0  0  0  0  0  0  0
  144.9190   72.0070  219.9980 C   0  0  0  0  0  0  0  0  0  0  0  0
  144.8940   72.8530  218.7440 C   0  0  2  0  0  0  0  0  0  0  0  0
  146.1700   73.3950  218.5870 O   0  0  0  0  0  0  0  0  0  0  0  0
  143.8790   73.9270  219.0840 C   0  0  1  0  0  0  0  0  0  0  0  0
  143.2760   74.5490  217.8770 C   0  0  0  0  0  0  0  0  0  0  0  0
  143.0060   76.0090  218.0540 C   0  0  0  0  0  0  0  0  0  0  0  0
  143.1690   76.9230  217.0330 C   0  0  0  0  0  0  0  0  0  0  0  0
  142.9230   78.2710  217.1900 C   0  0  0  0  0  0  0  0  0  0  0  0
  142.4960   78.6930  218.4330 C   0  0  0  0  0  0  0  0  0  0  0  0
  142.3140   77.8450  219.4860 C   0  0  0  0  0  0  0  0  0  0  0  0
  141.8650   78.2580  220.8110 C   0  0  0  0  0  0  0  0  0  0  0  0
  142.1300   79.5030  221.3410 C   0  0  0  0  0  0  0  0  0  0  0  0
  141.7110   79.8830  222.5690 N   0  0  0  0  0  0  0  0  0  0  0  0
  141.0060   79.0390  223.3340 C   0  0  0  0  0  0  0  0  0  0  0  0
  140.7240   77.7880  222.8340 C   0  0  0  0  0  0  0  0  0  0  0  0
  141.1450   77.4220  221.6110 N   0  0  0  0  0  0  0  0  0  0  0  0
  142.5730   76.5050  219.2810 C   0  0  0  0  0  0  0  0  0  0  0  0
  140.1590   71.2690  223.7300 C   0  0  0  0  0  0  0  0  0  0  0  0
  139.5970   70.0120  223.6160 C   0  0  0  0  0  0  0  0  0  0  0  0
  139.5110   69.1230  224.6650 C   0  0  0  0  0  0  0  0  0  0  0  0
  140.0220   69.5410  225.8800 C   0  0  0  0  0  0  0  0  0  0  0  0
  139.9530   68.6730  226.9570 C   0  0  0  0  0  0  0  0  0  0  0  0
  140.4510   69.0510  228.1860 C   0  0  0  0  0  0  0  0  0  0  0  0
  140.3730   68.1880  229.2260 F   0  0  0  0  0  0  0  0  0  0  0  0
  141.0120   70.3120  228.2910 C   0  0  0  0  0  0  0  0  0  0  0  0
  141.0800   71.1760  227.2160 C   0  0  0  0  0  0  0  0  0  0  0  0
  140.5780   70.8010  225.9680 C   0  0  0  0  0  0  0  0  0  0  0  0
  140.6480   71.6490  224.9260 N   0  0  0  0  0  0  0  0  0  0  0  0
  140.6550   70.5470  221.2150 H   0  0  0  0  0  0  0  0  0  0  0  0
  140.7844   71.8341  219.2051 H   0  0  0  0  0  0  0  0  0  0  0  0
  139.5734   72.9364  219.9600 H   0  0  0  0  0  0  0  0  0  0  0  0
  144.1833   73.0234  221.7283 H   0  0  0  0  0  0  0  0  0  0  0  0
  143.2109   71.6197  221.2444 H   0  0  0  0  0  0  0  0  0  0  0  0
  145.8765   72.1387  220.5232 H   0  0  0  0  0  0  0  0  0  0  0  0
  144.8115   70.9400  219.7531 H   0  0  0  0  0  0  0  0  0  0  0  0
  144.6357   72.3224  217.8157 H   0  0  0  0  0  0  0  0  0  0  0  0
  146.2870   74.2500  219.0710 H   0  0  0  0  0  0  0  0  0  0  0  0
  144.3579   74.7922  219.5658 H   0  0  0  0  0  0  0  0  0  0  0  0
  143.9674   74.4190  217.0314 H   0  0  0  0  0  0  0  0  0  0  0  0
  142.3116   74.0526  217.6940 H   0  0  0  0  0  0  0  0  0  0  0  0
  143.5098   76.5609  216.0518 H   0  0  0  0  0  0  0  0  0  0  0  0
  143.0612   78.9796  216.3601 H   0  0  0  0  0  0  0  0  0  0  0  0
  142.2929   79.7638  218.5815 H   0  0  0  0  0  0  0  0  0  0  0  0
  142.7079   80.2188  220.7380 H   0  0  0  0  0  0  0  0  0  0  0  0
  140.6616   79.3378  224.3351 H   0  0  0  0  0  0  0  0  0  0  0  0
  140.1461   77.0779  223.4437 H   0  0  0  0  0  0  0  0  0  0  0  0
  142.4324   75.8037  220.1167 H   0  0  0  0  0  0  0  0  0  0  0  0
  139.1979   69.7054  222.6379 H   0  0  0  0  0  0  0  0  0  0  0  0
  139.0576   68.1284  224.5419 H   0  0  0  0  0  0  0  0  0  0  0  0
  139.4994   67.6787  226.8316 H   0  0  0  0  0  0  0  0  0  0  0  0
  141.4164   70.6360  229.2613 H   0  0  0  0  0  0  0  0  0  0  0  0
  141.5342   72.1697  227.3440 H   0  0  0  0  0  0  0  0  0  0  0  0
  1  2  2  0
  2  3  1  0
  3  4  1  0
  4  5  1  0
  5  6  2  0
  5  7  1  0
  7  8  1  0
  8  9  1  0
  9 10  1  0
 10 11  1  0
 10 12  1  0
 12 13  1  0
 13 14  1  0
 14 15  2  0
 15 16  1  0
 16 17  2  0
 17 18  1  0
 18 19  1  0
 19 20  2  0
 20 21  1  0
 21 22  2  0
 22 23  1  0
 23 24  2  0
 18 25  2  0
  2 26  1  0
 26 27  2  0
 27 28  1  0
 28 29  2  0
 29 30  1  0
 30 31  2  0
 31 32  1  0
 31 33  1  0
 33 34  2  0
 34 35  1  0
 35 36  2  0
 12  7  1  0
 25 14  1  0
 36 26  1  0
 24 19  1  0
 35 29  1  0
  3 37  1  0
  4 38  1  0
  4 39  1  0
  8 40  1  0
  8 41  1  0
  9 42  1  0
  9 43  1  0
 10 44  1  6
 11 45  1  0
 12 46  1  1
 13 47  1  0
 13 48  1  0
 15 49  1  0
 16 50  1  0
 17 51  1  0
 20 52  1  0
 22 53  1  0
 23 54  1  0
 25 55  1  0
 27 56  1  0
 28 57  1  0
 30 58  1  0
 33 59  1  0
 34 60  1  0
M  END
>  <smiles>  (37) 
O=C(NCC(=O)N1CC[C@H](O)[C@H]1Cc1cccc(-c2cnccn2)c1)c1ccc2cc(F)ccc2n1

>  <score_type>  (37) 
oracle

>  <origin>  (37) 
autodockgpu

>  <m_score__min__energy>  (37) 
-10.08

>  <m_primary>  (37) 
energy

>  <rmsd>  (37) 
3.4887461333685

>  <m_score__min__rmsd>  (37) 
3.4887461333685

>  <meeko>  (37) 
{"free_energy": -9.71, "intermolecular_energy": -12.09, "internal_energy": -1.69, "cluster_size": 9, "cluster_id": 2, "rank_in_cluster": 3}

>  <energy>  (37) 
-8.7

>  <cluster_rmsd>  (37) 
0.13

>  <cluster>  (37) 
6

$$$$

     RDKit          3D

 60 64  0  0  0  0  0  0  0  0999 V2000
  140.2810   73.0630  222.7390 O   0  0  0  0  0  0  0  0  0  0  0  0
  140.4290   71.8140  222.8370 C   0  0  0  0  0  0  0  0  0  0  0  0
  140.5730   70.9570  221.7080 N   0  0  0  0  0  0  0  0  0  0  0  0
  140.5470   71.5530  220.3520 C   0  0  0  0  0  0  0  0  0  0  0  0
  141.8880   71.9830  219.9590 C   0  0  0  0  0  0  0  0  0  0  0  0
  142.6660   71.0680  219.5080 O   0  0  0  0  0  0  0  0  0  0  0  0
  142.4340   73.2750  220.0120 N   0  0  0  0  0  0  0  0  0  0  0  0
  143.8880   73.4870  219.8260 C   0  0  0  0  0  0  0  0  0  0  0  0
  144.0440   74.8420  219.2240 C   0  0  0  0  0  0  0  0  0  0  0  0
  142.7020   75.5320  219.3250 C   0  0  2  0  0  0  0  0  0  0  0  0
  142.9150   76.7600  219.9520 O   0  0  0  0  0  0  0  0  0  0  0  0
  141.9080   74.5930  220.2130 C   0  0  1  0  0  0  0  0  0  0  0  0
  140.4410   74.7390  220.0360 C   0  0  0  0  0  0  0  0  0  0  0  0
  139.8290   75.6640  221.0390 C   0  0  0  0  0  0  0  0  0  0  0  0
  138.5660   75.4660  221.5580 C   0  0  0  0  0  0  0  0  0  0  0  0
  137.9960   76.3150  222.4840 C   0  0  0  0  0  0  0  0  0  0  0  0
  138.7450   77.4020  222.8880 C   0  0  0  0  0  0  0  0  0  0  0  0
  140.0000   77.6590  222.4160 C   0  0  0  0  0  0  0  0  0  0  0  0
  140.8180   78.7950  222.8220 C   0  0  0  0  0  0  0  0  0  0  0  0
  140.3040   79.8960  223.4750 C   0  0  0  0  0  0  0  0  0  0  0  0
  141.0670   80.9490  223.8510 N   0  0  0  0  0  0  0  0  0  0  0  0
  142.3810   80.9580  223.5930 C   0  0  0  0  0  0  0  0  0  0  0  0
  142.9250   79.8740  222.9420 C   0  0  0  0  0  0  0  0  0  0  0  0
  142.1570   78.8330  222.5750 N   0  0  0  0  0  0  0  0  0  0  0  0
  140.5290   76.7800  221.4920 C   0  0  0  0  0  0  0  0  0  0  0  0
  140.4580   71.1960  224.1800 C   0  0  0  0  0  0  0  0  0  0  0  0
  140.7630   71.9680  225.2850 C   0  0  0  0  0  0  0  0  0  0  0  0
  140.8100   71.4690  226.5670 C   0  0  0  0  0  0  0  0  0  0  0  0
  140.5340   70.1230  226.7240 C   0  0  0  0  0  0  0  0  0  0  0  0
  140.5720   69.5870  228.0000 C   0  0  0  0  0  0  0  0  0  0  0  0
  140.3030   68.2500  228.2000 C   0  0  0  0  0  0  0  0  0  0  0  0
  140.3460   67.7440  229.4550 F   0  0  0  0  0  0  0  0  0  0  0  0
  139.9980   67.4830  227.0880 C   0  0  0  0  0  0  0  0  0  0  0  0
  139.9610   68.0200  225.8160 C   0  0  0  0  0  0  0  0  0  0  0  0
  140.2320   69.3730  225.6050 C   0  0  0  0  0  0  0  0  0  0  0  0
  140.1930   69.8880  224.3630 N   0  0  0  0  0  0  0  0  0  0  0  0
  140.6920   69.9330  221.8470 H   0  0  0  0  0  0  0  0  0  0  0  0
  140.1813   70.8043  219.6339 H   0  0  0  0  0  0  0  0  0  0  0  0
  139.8795   72.4273  220.3590 H   0  0  0  0  0  0  0  0  0  0  0  0
  144.4061   73.4397  220.7952 H   0  0  0  0  0  0  0  0  0  0  0  0
  144.3238   72.7114  219.1790 H   0  0  0  0  0  0  0  0  0  0  0  0
  144.8047   75.4143  219.7752 H   0  0  0  0  0  0  0  0  0  0  0  0
  144.3682   74.7690  218.1754 H   0  0  0  0  0  0  0  0  0  0  0  0
  142.1922   75.7246  218.3695 H   0  0  0  0  0  0  0  0  0  0  0  0
  143.7940   77.1570  219.7310 H   0  0  0  0  0  0  0  0  0  0  0  0
  142.0307   74.8474  221.2761 H   0  0  0  0  0  0  0  0  0  0  0  0
  140.2455   75.1335  219.0279 H   0  0  0  0  0  0  0  0  0  0  0  0
  139.9882   73.7467  220.1788 H   0  0  0  0  0  0  0  0  0  0  0  0
  137.9886   74.5934  221.2187 H   0  0  0  0  0  0  0  0  0  0  0  0
  136.9873   76.1335  222.8835 H   0  0  0  0  0  0  0  0  0  0  0  0
  138.3102   78.0935  223.6248 H   0  0  0  0  0  0  0  0  0  0  0  0
  139.2275   79.9193  223.6999 H   0  0  0  0  0  0  0  0  0  0  0  0
  143.0093   81.8095  223.8935 H   0  0  0  0  0  0  0  0  0  0  0  0
  144.0021   79.8591  222.7191 H   0  0  0  0  0  0  0  0  0  0  0  0
  141.5393   76.9676  221.0995 H   0  0  0  0  0  0  0  0  0  0  0  0
  140.9792   73.0357  225.1322 H   0  0  0  0  0  0  0  0  0  0  0  0
  141.0555   72.1106  227.4261 H   0  0  0  0  0  0  0  0  0  0  0  0
  140.8178   70.2306  228.8575 H   0  0  0  0  0  0  0  0  0  0  0  0
  139.7785   66.4135  227.2219 H   0  0  0  0  0  0  0  0  0  0  0  0
  139.7153   67.3744  224.9599 H   0  0  0  0  0  0  0  0  0  0  0  0
  1  2  2  0
  2  3  1  0
  3  4  1  0
  4  5  1  0
  5  6  2  0
  5  7  1  0
  7  8  1  0
  8  9  1  0
  9 10  1  0
 10 11  1  0
 10 12  1  0
 12 13  1  0
 13 14  1  0
 14 15  2  0
 15 16  1  0
 16 17  2  0
 17 18  1  0
 18 19  1  0
 19 20  2  0
 20 21  1  0
 21 22  2  0
 22 23  1  0
 23 24  2  0
 18 25  2  0
  2 26  1  0
 26 27  2  0
 27 28  1  0
 28 29  2  0
 29 30  1  0
 30 31  2  0
 31 32  1  0
 31 33  1  0
 33 34  2  0
 34 35  1  0
 35 36  2  0
 12  7  1  0
 25 14  1  0
 36 26  1  0
 24 19  1  0
 35 29  1  0
  3 37  1  0
  4 38  1  0
  4 39  1  0
  8 40  1  0
  8 41  1  0
  9 42  1  0
  9 43  1  0
 10 44  1  6
 11 45  1  0
 12 46  1  1
 13 47  1  0
 13 48  1  0
 15 49  1  0
 16 50  1  0
 17 51  1  0
 20 52  1  0
 22 53  1  0
 23 54  1  0
 25 55  1  0
 27 56  1  0
 28 57  1  0
 30 58  1  0
 33 59  1  0
 34 60  1  0
M  END
>  <smiles>  (38) 
O=C(NCC(=O)N1CC[C@H](O)[C@H]1Cc1cccc(-c2cnccn2)c1)c1ccc2cc(F)ccc2n1

>  <score_type>  (38) 
oracle

>  <origin>  (38) 
autodockgpu

>  <m_score__min__energy>  (38) 
-10.08

>  <m_primary>  (38) 
energy

>  <rmsd>  (38) 
3.7936677497873665

>  <m_score__min__rmsd>  (38) 
3.7936677497873665

>  <meeko>  (38) 
{"free_energy": -9.04, "intermolecular_energy": -11.43, "internal_energy": -2.21, "cluster_size": 9, "cluster_id": 2, "rank_in_cluster": 8}

>  <energy>  (38) 
-8.47

>  <cluster_rmsd>  (38) 
0.51

>  <cluster>  (38) 
6

$$$$

     RDKit          3D

 60 64  0  0  0  0  0  0  0  0999 V2000
  141.1130   72.3100  221.5320 O   0  0  0  0  0  0  0  0  0  0  0  0
  140.2180   72.4970  222.4020 C   0  0  0  0  0  0  0  0  0  0  0  0
  139.2880   73.5750  222.3400 N   0  0  0  0  0  0  0  0  0  0  0  0
  139.3690   74.5240  221.2060 C   0  0  0  0  0  0  0  0  0  0  0  0
  140.4530   75.4810  221.4190 C   0  0  0  0  0  0  0  0  0  0  0  0
  141.5050   75.0260  221.9950 O   0  0  0  0  0  0  0  0  0  0  0  0
  140.4880   76.8410  221.0720 N   0  0  0  0  0  0  0  0  0  0  0  0
  140.9110   77.8610  222.0600 C   0  0  0  0  0  0  0  0  0  0  0  0
  141.5280   78.9730  221.2830 C   0  0  0  0  0  0  0  0  0  0  0  0
  141.2070   78.7290  219.8250 C   0  0  2  0  0  0  0  0  0  0  0  0
  140.6220   79.8950  219.3310 O   0  0  0  0  0  0  0  0  0  0  0  0
  140.2020   77.5950  219.8880 C   0  0  1  0  0  0  0  0  0  0  0  0
  140.1350   76.8170  218.6240 C   0  0  0  0  0  0  0  0  0  0  0  0
  141.4870   76.4910  218.0750 C   0  0  0  0  0  0  0  0  0  0  0  0
  141.9520   77.0150  216.8860 C   0  0  0  0  0  0  0  0  0  0  0  0
  143.1980   76.7190  216.3740 C   0  0  0  0  0  0  0  0  0  0  0  0
  143.9910   75.8580  217.1050 C   0  0  0  0  0  0  0  0  0  0  0  0
  143.5960   75.3030  218.2870 C   0  0  0  0  0  0  0  0  0  0  0  0
  144.4080   74.3910  219.0840 C   0  0  0  0  0  0  0  0  0  0  0  0
  145.1930   73.4020  218.5280 C   0  0  0  0  0  0  0  0  0  0  0  0
  145.9450   72.5580  219.2700 N   0  0  0  0  0  0  0  0  0  0  0  0
  145.9540   72.6560  220.6060 C   0  0  0  0  0  0  0  0  0  0  0  0
  145.1810   73.6330  221.1920 C   0  0  0  0  0  0  0  0  0  0  0  0
  144.4380   74.4670  220.4440 N   0  0  0  0  0  0  0  0  0  0  0  0
  142.3410   75.6300  218.7600 C   0  0  0  0  0  0  0  0  0  0  0  0
  140.1180   71.5620  223.5430 C   0  0  0  0  0  0  0  0  0  0  0  0
  139.4750   70.3500  223.3830 C   0  0  0  0  0  0  0  0  0  0  0  0
  139.3390   69.4250  224.3940 C   0  0  0  0  0  0  0  0  0  0  0  0
  139.8840   69.7580  225.6220 C   0  0  0  0  0  0  0  0  0  0  0  0
  139.7660   68.8530  226.6620 C   0  0  0  0  0  0  0  0  0  0  0  0
  140.2950   69.1460  227.9010 C   0  0  0  0  0  0  0  0  0  0  0  0
  140.1680   68.2470  228.9060 F   0  0  0  0  0  0  0  0  0  0  0  0
  140.9360   70.3630  228.0530 C   0  0  0  0  0  0  0  0  0  0  0  0
  141.0520   71.2650  227.0130 C   0  0  0  0  0  0  0  0  0  0  0  0
  140.5200   70.9760  225.7560 C   0  0  0  0  0  0  0  0  0  0  0  0
  140.6380   71.8600  224.7490 N   0  0  0  0  0  0  0  0  0  0  0  0
  138.5700   73.6810  223.0850 H   0  0  0  0  0  0  0  0  0  0  0  0
  139.5567   73.9644  220.2778 H   0  0  0  0  0  0  0  0  0  0  0  0
  138.4184   75.0724  221.1310 H   0  0  0  0  0  0  0  0  0  0  0  0
  140.0405   78.2284  222.6232 H   0  0  0  0  0  0  0  0  0  0  0  0
  141.6226   77.4405  222.7858 H   0  0  0  0  0  0  0  0  0  0  0  0
  141.1079   79.9371  221.6056 H   0  0  0  0  0  0  0  0  0  0  0  0
  142.6156   79.0065  221.4440 H   0  0  0  0  0  0  0  0  0  0  0  0
  142.0653   78.4829  219.1825 H   0  0  0  0  0  0  0  0  0  0  0  0
  141.0450   80.2130  218.4950 H   0  0  0  0  0  0  0  0  0  0  0  0
  139.1732   77.9755  219.9708 H   0  0  0  0  0  0  0  0  0  0  0  0
  139.5976   75.8769  218.8174 H   0  0  0  0  0  0  0  0  0  0  0  0
  139.6146   77.4371  217.8793 H   0  0  0  0  0  0  0  0  0  0  0  0
  141.3004   77.6986  216.3220 H   0  0  0  0  0  0  0  0  0  0  0  0
  143.5448   77.1508  215.4236 H   0  0  0  0  0  0  0  0  0  0  0  0
  144.9890   75.6073  216.7161 H   0  0  0  0  0  0  0  0  0  0  0  0
  145.2078   73.2954  217.4333 H   0  0  0  0  0  0  0  0  0  0  0  0
  146.5626   71.9743  221.2183 H   0  0  0  0  0  0  0  0  0  0  0  0
  145.1712   73.7325  222.2874 H   0  0  0  0  0  0  0  0  0  0  0  0
  142.0033   75.1949  219.7122 H   0  0  0  0  0  0  0  0  0  0  0  0
  139.0496   70.1114  222.3970 H   0  0  0  0  0  0  0  0  0  0  0  0
  138.8221   68.4674  224.2334 H   0  0  0  0  0  0  0  0  0  0  0  0
  139.2482   67.8962  226.4996 H   0  0  0  0  0  0  0  0  0  0  0  0
  141.3665   70.6201  229.0321 H   0  0  0  0  0  0  0  0  0  0  0  0
  141.5695   72.2216  227.1778 H   0  0  0  0  0  0  0  0  0  0  0  0
  1  2  2  0
  2  3  1  0
  3  4  1  0
  4  5  1  0
  5  6  2  0
  5  7  1  0
  7  8  1  0
  8  9  1  0
  9 10  1  0
 10 11  1  0
 10 12  1  0
 12 13  1  0
 13 14  1  0
 14 15  2  0
 15 16  1  0
 16 17  2  0
 17 18  1  0
 18 19  1  0
 19 20  2  0
 20 21  1  0
 21 22  2  0
 22 23  1  0
 23 24  2  0
 18 25  2  0
  2 26  1  0
 26 27  2  0
 27 28  1  0
 28 29  2  0
 29 30  1  0
 30 31  2  0
 31 32  1  0
 31 33  1  0
 33 34  2  0
 34 35  1  0
 35 36  2  0
 12  7  1  0
 25 14  1  0
 36 26  1  0
 24 19  1  0
 35 29  1  0
  3 37  1  0
  4 38  1  0
  4 39  1  0
  8 40  1  0
  8 41  1  0
  9 42  1  0
  9 43  1  0
 10 44  1  6
 11 45  1  0
 12 46  1  1
 13 47  1  0
 13 48  1  0
 15 49  1  0
 16 50  1  0
 17 51  1  0
 20 52  1  0
 22 53  1  0
 23 54  1  0
 25 55  1  0
 27 56  1  0
 28 57  1  0
 30 58  1  0
 33 59  1  0
 34 60  1  0
M  END
>  <smiles>  (39) 
O=C(NCC(=O)N1CC[C@H](O)[C@H]1Cc1cccc(-c2cnccn2)c1)c1ccc2cc(F)ccc2n1

>  <score_type>  (39) 
oracle

>  <origin>  (39) 
autodockgpu

>  <m_score__min__energy>  (39) 
-10.08

>  <m_primary>  (39) 
energy

>  <rmsd>  (39) 
2.776596986890629

>  <m_score__min__rmsd>  (39) 
2.776596986890629

>  <meeko>  (39) 
{"free_energy": -8.7, "intermolecular_energy": -11.09, "internal_energy": -2.04, "cluster_size": 3, "cluster_id": 5, "rank_in_cluster": 3}

>  <energy>  (39) 
-8.34

>  <cluster_rmsd>  (39) 
0.78

>  <cluster>  (39) 
6

$$$$

     RDKit          3D

 60 64  0  0  0  0  0  0  0  0999 V2000
  142.6610   77.2440  217.5110 O   0  0  0  0  0  0  0  0  0  0  0  0
  142.5910   77.7780  218.6520 C   0  0  0  0  0  0  0  0  0  0  0  0
  142.8260   77.0610  219.8610 N   0  0  0  0  0  0  0  0  0  0  0  0
  143.1710   75.6230  219.7830 C   0  0  0  0  0  0  0  0  0  0  0  0
  141.9990   74.8390  219.3960 C   0  0  0  0  0  0  0  0  0  0  0  0
  141.7190   74.8190  218.1440 O   0  0  0  0  0  0  0  0  0  0  0  0
  141.1390   74.1010  220.2240 N   0  0  0  0  0  0  0  0  0  0  0  0
  141.6750   73.0620  221.1340 C   0  0  0  0  0  0  0  0  0  0  0  0
  140.7510   73.0060  222.3030 C   0  0  0  0  0  0  0  0  0  0  0  0
  139.5220   73.8090  221.9380 C   0  0  2  0  0  0  0  0  0  0  0  0
  138.4150   72.9880  222.1530 O   0  0  0  0  0  0  0  0  0  0  0  0
  139.7260   74.0810  220.4600 C   0  0  1  0  0  0  0  0  0  0  0  0
  138.9720   75.2710  219.9870 C   0  0  0  0  0  0  0  0  0  0  0  0
  138.7110   76.2600  221.0780 C   0  0  0  0  0  0  0  0  0  0  0  0
  137.4810   76.3820  221.6900 C   0  0  0  0  0  0  0  0  0  0  0  0
  137.2330   77.2920  222.6970 C   0  0  0  0  0  0  0  0  0  0  0  0
  138.2810   78.1010  223.0870 C   0  0  0  0  0  0  0  0  0  0  0  0
  139.5230   78.0350  222.5250 C   0  0  0  0  0  0  0  0  0  0  0  0
  140.6510   78.8730  222.9130 C   0  0  0  0  0  0  0  0  0  0  0  0
  140.5320   79.9410  223.7780 C   0  0  0  0  0  0  0  0  0  0  0  0
  141.5800   80.7170  224.1360 N   0  0  0  0  0  0  0  0  0  0  0  0
  142.8020   80.4680  223.6480 C   0  0  0  0  0  0  0  0  0  0  0  0
  142.9560   79.4100  222.7820 C   0  0  0  0  0  0  0  0  0  0  0  0
  141.9060   78.6450  222.4340 N   0  0  0  0  0  0  0  0  0  0  0  0
  139.7230   77.1080  221.5220 C   0  0  0  0  0  0  0  0  0  0  0  0
  142.2480   79.2130  218.7560 C   0  0  0  0  0  0  0  0  0  0  0  0
  142.5670   80.0700  217.7210 C   0  0  0  0  0  0  0  0  0  0  0  0
  142.2830   81.4180  217.7390 C   0  0  0  0  0  0  0  0  0  0  0  0
  141.6470   81.9060  218.8670 C   0  0  0  0  0  0  0  0  0  0  0  0
  141.3460   83.2560  218.9200 C   0  0  0  0  0  0  0  0  0  0  0  0
  140.7130   83.7830  220.0260 C   0  0  0  0  0  0  0  0  0  0  0  0
  140.4270   85.1060  220.0590 F   0  0  0  0  0  0  0  0  0  0  0  0
  140.3970   82.9170  221.0580 C   0  0  0  0  0  0  0  0  0  0  0  0
  140.6990   81.5700  221.0030 C   0  0  0  0  0  0  0  0  0  0  0  0
  141.3400   81.0280  219.8870 C   0  0  0  0  0  0  0  0  0  0  0  0
  141.6300   79.7160  219.8410 N   0  0  0  0  0  0  0  0  0  0  0  0
  142.7550   77.5520  220.7750 H   0  0  0  0  0  0  0  0  0  0  0  0
  143.9655   75.4807  219.0356 H   0  0  0  0  0  0  0  0  0  0  0  0
  143.5170   75.2845  220.7708 H   0  0  0  0  0  0  0  0  0  0  0  0
  141.7024   72.0877  220.6242 H   0  0  0  0  0  0  0  0  0  0  0  0
  142.7016   73.3003  221.4492 H   0  0  0  0  0  0  0  0  0  0  0  0
  140.4715   71.9631  222.5133 H   0  0  0  0  0  0  0  0  0  0  0  0
  141.2331   73.4157  223.2028 H   0  0  0  0  0  0  0  0  0  0  0  0
  139.3707   74.7366  222.5095 H   0  0  0  0  0  0  0  0  0  0  0  0
  137.9580   73.1750  223.0110 H   0  0  0  0  0  0  0  0  0  0  0  0
  139.2926   73.2813  219.8414 H   0  0  0  0  0  0  0  0  0  0  0  0
  139.5549   75.7654  219.1959 H   0  0  0  0  0  0  0  0  0  0  0  0
  137.9975   74.9209  219.6158 H   0  0  0  0  0  0  0  0  0  0  0  0
  136.6622   75.7253  221.3610 H   0  0  0  0  0  0  0  0  0  0  0  0
  136.2424   77.3694  223.1689 H   0  0  0  0  0  0  0  0  0  0  0  0
  138.1070   78.8337  223.8888 H   0  0  0  0  0  0  0  0  0  0  0  0
  139.5406   80.1716  224.1951 H   0  0  0  0  0  0  0  0  0  0  0  0
  143.6610   81.0936  223.9323 H   0  0  0  0  0  0  0  0  0  0  0  0
  143.9508   79.1869  222.3689 H   0  0  0  0  0  0  0  0  0  0  0  0
  140.7172   77.0363  221.0567 H   0  0  0  0  0  0  0  0  0  0  0  0
  143.0737   79.6551  216.8372 H   0  0  0  0  0  0  0  0  0  0  0  0
  142.5489   82.0746  216.8975 H   0  0  0  0  0  0  0  0  0  0  0  0
  141.6126   83.9106  218.0771 H   0  0  0  0  0  0  0  0  0  0  0  0
  139.8896   83.3134  221.9498 H   0  0  0  0  0  0  0  0  0  0  0  0
  140.4317   80.9175  221.8473 H   0  0  0  0  0  0  0  0  0  0  0  0
  1  2  2  0
  2  3  1  0
  3  4  1  0
  4  5  1  0
  5  6  2  0
  5  7  1  0
  7  8  1  0
  8  9  1  0
  9 10  1  0
 10 11  1  0
 10 12  1  0
 12 13  1  0
 13 14  1  0
 14 15  2  0
 15 16  1  0
 16 17  2  0
 17 18  1  0
 18 19  1  0
 19 20  2  0
 20 21  1  0
 21 22  2  0
 22 23  1  0
 23 24  2  0
 18 25  2  0
  2 26  1  0
 26 27  2  0
 27 28  1  0
 28 29  2  0
 29 30  1  0
 30 31  2  0
 31 32  1  0
 31 33  1  0
 33 34  2  0
 34 35  1  0
 35 36  2  0
 12  7  1  0
 25 14  1  0
 36 26  1  0
 24 19  1  0
 35 29  1  0
  3 37  1  0
  4 38  1  0
  4 39  1  0
  8 40  1  0
  8 41  1  0
  9 42  1  0
  9 43  1  0
 10 44  1  1
 11 45  1  0
 12 46  1  6
 13 47  1  0
 13 48  1  0
 15 49  1  0
 16 50  1  0
 17 51  1  0
 20 52  1  0
 22 53  1  0
 23 54  1  0
 25 55  1  0
 27 56  1  0
 28 57  1  0
 30 58  1  0
 33 59  1  0
 34 60  1  0
M  END
>  <smiles>  (40) 
O=C(NCC(=O)N1CC[C@H](O)[C@H]1Cc1cccc(-c2cnccn2)c1)c1ccc2cc(F)ccc2n1

>  <score_type>  (40) 
oracle

>  <origin>  (40) 
autodockgpu

>  <m_score__min__energy>  (40) 
-10.08

>  <m_primary>  (40) 
energy

>  <rmsd>  (40) 
10.108505697724771

>  <m_score__min__rmsd>  (40) 
10.108505697724771

>  <meeko>  (40) 
{"free_energy": -6.44, "intermolecular_energy": -8.82, "internal_energy": -3.98, "cluster_size": 1, "cluster_id": 10, "rank_in_cluster": 1}

>  <energy>  (40) 
-8.23

>  <cluster_rmsd>  (40) 
0.57

>  <cluster>  (40) 
6

$$$$

     RDKit          3D

 60 64  0  0  0  0  0  0  0  0999 V2000
  138.8510   72.1730  220.9540 O   0  0  0  0  0  0  0  0  0  0  0  0
  139.5980   72.4410  221.9340 C   0  0  0  0  0  0  0  0  0  0  0  0
  140.4190   73.6050  221.9900 N   0  0  0  0  0  0  0  0  0  0  0  0
  140.3990   74.5480  220.8480 C   0  0  0  0  0  0  0  0  0  0  0  0
  141.3060   75.6680  221.0970 C   0  0  0  0  0  0  0  0  0  0  0  0
  141.4550   76.0150  222.3230 O   0  0  0  0  0  0  0  0  0  0  0  0
  142.0370   76.4140  220.1600 N   0  0  0  0  0  0  0  0  0  0  0  0
  143.1190   75.7800  219.3700 C   0  0  0  0  0  0  0  0  0  0  0  0
  143.1760   76.5090  218.0710 C   0  0  0  0  0  0  0  0  0  0  0  0
  142.3240   77.7500  218.2180 C   0  0  2  0  0  0  0  0  0  0  0  0
  143.1130   78.8400  217.8490 O   0  0  0  0  0  0  0  0  0  0  0  0
  142.0170   77.7720  219.7030 C   0  0  1  0  0  0  0  0  0  0  0  0
  140.7900   78.5450  220.0240 C   0  0  0  0  0  0  0  0  0  0  0  0
  140.8550   79.1960  221.3690 C   0  0  0  0  0  0  0  0  0  0  0  0
  142.0490   79.5160  221.9820 C   0  0  0  0  0  0  0  0  0  0  0  0
  142.1160   80.1160  223.2220 C   0  0  0  0  0  0  0  0  0  0  0  0
  140.9200   80.3950  223.8530 C   0  0  0  0  0  0  0  0  0  0  0  0
  139.7040   80.1060  223.3060 C   0  0  0  0  0  0  0  0  0  0  0  0
  138.4230   80.3870  223.9440 C   0  0  0  0  0  0  0  0  0  0  0  0
  137.2370   79.8110  223.5360 C   0  0  0  0  0  0  0  0  0  0  0  0
  136.0520   80.0740  224.1310 N   0  0  0  0  0  0  0  0  0  0  0  0
  135.9860   80.9260  225.1620 C   0  0  0  0  0  0  0  0  0  0  0  0
  137.1520   81.5180  225.5940 C   0  0  0  0  0  0  0  0  0  0  0  0
  138.3250   81.2480  224.9950 N   0  0  0  0  0  0  0  0  0  0  0  0
  139.6870   79.5060  222.0620 C   0  0  0  0  0  0  0  0  0  0  0  0
  139.6340   71.5150  223.0860 C   0  0  0  0  0  0  0  0  0  0  0  0
  138.9500   70.3160  223.0240 C   0  0  0  0  0  0  0  0  0  0  0  0
  138.9330   69.4000  224.0520 C   0  0  0  0  0  0  0  0  0  0  0  0
  139.6480   69.7260  225.1910 C   0  0  0  0  0  0  0  0  0  0  0  0
  139.6540   68.8290  226.2440 C   0  0  0  0  0  0  0  0  0  0  0  0
  140.3540   69.1160  227.3970 C   0  0  0  0  0  0  0  0  0  0  0  0
  140.3470   68.2250  228.4170 F   0  0  0  0  0  0  0  0  0  0  0  0
  141.0370   70.3190  227.4510 C   0  0  0  0  0  0  0  0  0  0  0  0
  141.0290   71.2130  226.3980 C   0  0  0  0  0  0  0  0  0  0  0  0
  140.3230   70.9300  225.2270 C   0  0  0  0  0  0  0  0  0  0  0  0
  140.3210   71.8060  224.2060 N   0  0  0  0  0  0  0  0  0  0  0  0
  141.0160   73.7770  222.8240 H   0  0  0  0  0  0  0  0  0  0  0  0
  140.7161   74.0203  219.9364 H   0  0  0  0  0  0  0  0  0  0  0  0
  139.3775   74.9365  220.7233 H   0  0  0  0  0  0  0  0  0  0  0  0
  144.0791   75.8704  219.8991 H   0  0  0  0  0  0  0  0  0  0  0  0
  142.9247   74.7082  219.2170 H   0  0  0  0  0  0  0  0  0  0  0  0
  144.2145   76.7896  217.8414 H   0  0  0  0  0  0  0  0  0  0  0  0
  142.8063   75.8759  217.2509 H   0  0  0  0  0  0  0  0  0  0  0  0
  141.4090   77.7745  217.6080 H   0  0  0  0  0  0  0  0  0  0  0  0
  143.7060   78.6430  217.0820 H   0  0  0  0  0  0  0  0  0  0  0  0
  142.7842   78.3279  220.2619 H   0  0  0  0  0  0  0  0  0  0  0  0
  140.6560   79.3258  219.2609 H   0  0  0  0  0  0  0  0  0  0  0  0
  139.9459   77.8398  220.0360 H   0  0  0  0  0  0  0  0  0  0  0  0
  142.9881   79.2824  221.4590 H   0  0  0  0  0  0  0  0  0  0  0  0
  143.0813   80.3619  223.6885 H   0  0  0  0  0  0  0  0  0  0  0  0
  140.9489   80.8728  224.8434 H   0  0  0  0  0  0  0  0  0  0  0  0
  137.2569   79.1078  222.6904 H   0  0  0  0  0  0  0  0  0  0  0  0
  135.0258   81.1472  225.6510 H   0  0  0  0  0  0  0  0  0  0  0  0
  137.1232   82.2207  226.4398 H   0  0  0  0  0  0  0  0  0  0  0  0
  138.7172   79.2645  221.6024 H   0  0  0  0  0  0  0  0  0  0  0  0
  138.3904   70.0812  222.1065 H   0  0  0  0  0  0  0  0  0  0  0  0
  138.3774   68.4540  223.9716 H   0  0  0  0  0  0  0  0  0  0  0  0
  139.0984   67.8833  226.1614 H   0  0  0  0  0  0  0  0  0  0  0  0
  141.6032   70.5706  228.3599 H   0  0  0  0  0  0  0  0  0  0  0  0
  141.5850   72.1583  226.4829 H   0  0  0  0  0  0  0  0  0  0  0  0
  1  2  2  0
  2  3  1  0
  3  4  1  0
  4  5  1  0
  5  6  2  0
  5  7  1  0
  7  8  1  0
  8  9  1  0
  9 10  1  0
 10 11  1  0
 10 12  1  0
 12 13  1  0
 13 14  1  0
 14 15  2  0
 15 16  1  0
 16 17  2  0
 17 18  1  0
 18 19  1  0
 19 20  2  0
 20 21  1  0
 21 22  2  0
 22 23  1  0
 23 24  2  0
 18 25  2  0
  2 26  1  0
 26 27  2  0
 27 28  1  0
 28 29  2  0
 29 30  1  0
 30 31  2  0
 31 32  1  0
 31 33  1  0
 33 34  2  0
 34 35  1  0
 35 36  2  0
 12  7  1  0
 25 14  1  0
 36 26  1  0
 24 19  1  0
 35 29  1  0
  3 37  1  0
  4 38  1  0
  4 39  1  0
  8 40  1  0
  8 41  1  0
  9 42  1  0
  9 43  1  0
 10 44  1  6
 11 45  1  0
 12 46  1  1
 13 47  1  0
 13 48  1  0
 15 49  1  0
 16 50  1  0
 17 51  1  0
 20 52  1  0
 22 53  1  0
 23 54  1  0
 25 55  1  0
 27 56  1  0
 28 57  1  0
 30 58  1  0
 33 59  1  0
 34 60  1  0
M  END
>  <smiles>  (41) 
O=C(NCC(=O)N1CC[C@H](O)[C@H]1Cc1cccc(-c2cnccn2)c1)c1ccc2cc(F)ccc2n1

>  <score_type>  (41) 
oracle

>  <origin>  (41) 
autodockgpu

>  <m_score__min__energy>  (41) 
-10.08

>  <m_primary>  (41) 
energy

>  <rmsd>  (41) 
2.345951154551797

>  <m_score__min__rmsd>  (41) 
2.345951154551797

>  <meeko>  (41) 
{"free_energy": -8.77, "intermolecular_energy": -11.15, "internal_energy": -2.26, "cluster_size": 16, "cluster_id": 1, "rank_in_cluster": 12}

>  <energy>  (41) 
-7.59

>  <cluster_rmsd>  (41) 
1.32

>  <cluster>  (41) 
6

$$$$

     RDKit          3D

 60 64  0  0  0  0  0  0  0  0999 V2000
  139.8580   73.3940  222.7190 O   0  0  0  0  0  0  0  0  0  0  0  0
  140.2920   72.2120  222.6400 C   0  0  0  0  0  0  0  0  0  0  0  0
  140.9180   71.6910  221.4700 N   0  0  0  0  0  0  0  0  0  0  0  0
  141.0690   72.5720  220.2890 C   0  0  0  0  0  0  0  0  0  0  0  0
  142.1790   73.5020  220.4850 C   0  0  0  0  0  0  0  0  0  0  0  0
  141.9270   74.5450  221.1880 O   0  0  0  0  0  0  0  0  0  0  0  0
  143.4920   73.3980  220.0000 N   0  0  0  0  0  0  0  0  0  0  0  0
  144.4930   72.5640  220.7060 C   0  0  0  0  0  0  0  0  0  0  0  0
  145.4440   72.0750  219.6670 C   0  0  0  0  0  0  0  0  0  0  0  0
  145.1640   72.8570  218.4030 C   0  0  2  0  0  0  0  0  0  0  0  0
  146.3740   73.4080  217.9820 O   0  0  0  0  0  0  0  0  0  0  0  0
  144.2070   73.9320  218.8790 C   0  0  1  0  0  0  0  0  0  0  0  0
  143.3720   74.4840  217.7810 C   0  0  0  0  0  0  0  0  0  0  0  0
  143.0590   75.9340  217.9690 C   0  0  0  0  0  0  0  0  0  0  0  0
  143.2010   76.8620  216.9570 C   0  0  0  0  0  0  0  0  0  0  0  0
  142.9140   78.2010  217.1240 C   0  0  0  0  0  0  0  0  0  0  0  0
  142.4670   78.5990  218.3670 C   0  0  0  0  0  0  0  0  0  0  0  0
  142.3030   77.7370  219.4120 C   0  0  0  0  0  0  0  0  0  0  0  0
  141.8330   78.1250  220.7370 C   0  0  0  0  0  0  0  0  0  0  0  0
  141.0560   77.3050  221.5290 C   0  0  0  0  0  0  0  0  0  0  0  0
  140.6220   77.6680  222.7570 N   0  0  0  0  0  0  0  0  0  0  0  0
  140.9400   78.8680  223.2600 C   0  0  0  0  0  0  0  0  0  0  0  0
  141.7150   79.7110  222.4940 C   0  0  0  0  0  0  0  0  0  0  0  0
  142.1410   79.3380  221.2740 N   0  0  0  0  0  0  0  0  0  0  0  0
  142.6030   76.4060  219.1970 C   0  0  0  0  0  0  0  0  0  0  0  0
  140.1530   71.3140  223.8060 C   0  0  0  0  0  0  0  0  0  0  0  0
  139.4610   70.1260  223.6790 C   0  0  0  0  0  0  0  0  0  0  0  0
  139.2870   69.2360  224.7150 C   0  0  0  0  0  0  0  0  0  0  0  0
  139.8450   69.5790  225.9330 C   0  0  0  0  0  0  0  0  0  0  0  0
  139.6900   68.7080  226.9980 C   0  0  0  0  0  0  0  0  0  0  0  0
  140.2310   69.0130  228.2290 C   0  0  0  0  0  0  0  0  0  0  0  0
  140.0680   68.1480  229.2580 F   0  0  0  0  0  0  0  0  0  0  0  0
  140.9230   70.2060  228.3480 C   0  0  0  0  0  0  0  0  0  0  0  0
  141.0760   71.0740  227.2840 C   0  0  0  0  0  0  0  0  0  0  0  0
  140.5320   70.7720  226.0350 C   0  0  0  0  0  0  0  0  0  0  0  0
  140.6860   71.6230  225.0040 N   0  0  0  0  0  0  0  0  0  0  0  0
  141.2580   70.7080  221.4600 H   0  0  0  0  0  0  0  0  0  0  0  0
  141.2658   71.9552  219.3997 H   0  0  0  0  0  0  0  0  0  0  0  0
  140.1415   73.1475  220.1526 H   0  0  0  0  0  0  0  0  0  0  0  0
  145.0266   73.1649  221.4571 H   0  0  0  0  0  0  0  0  0  0  0  0
  144.0128   71.7258  221.2322 H   0  0  0  0  0  0  0  0  0  0  0  0
  146.4803   72.2454  219.9942 H   0  0  0  0  0  0  0  0  0  0  0  0
  145.3154   70.9960  219.4959 H   0  0  0  0  0  0  0  0  0  0  0  0
  144.7479   72.2772  217.5659 H   0  0  0  0  0  0  0  0  0  0  0  0
  146.3250   74.3870  217.8470 H   0  0  0  0  0  0  0  0  0  0  0  0
  144.7483   74.8268  219.2199 H   0  0  0  0  0  0  0  0  0  0  0  0
  143.9129   74.3607  216.8311 H   0  0  0  0  0  0  0  0  0  0  0  0
  142.4187   73.9352  217.7796 H   0  0  0  0  0  0  0  0  0  0  0  0
  143.5585   76.5190  215.9749 H   0  0  0  0  0  0  0  0  0  0  0  0
  143.0364   78.9207  216.3011 H   0  0  0  0  0  0  0  0  0  0  0  0
  142.2315   79.6621  218.5232 H   0  0  0  0  0  0  0  0  0  0  0  0
  140.7775   76.3127  221.1447 H   0  0  0  0  0  0  0  0  0  0  0  0
  140.5917   79.1723  224.2580 H   0  0  0  0  0  0  0  0  0  0  0  0
  141.9889   80.7019  222.8852 H   0  0  0  0  0  0  0  0  0  0  0  0
  142.4772   75.6934  220.0255 H   0  0  0  0  0  0  0  0  0  0  0  0
  139.0262   69.8778  222.6995 H   0  0  0  0  0  0  0  0  0  0  0  0
  138.7306   68.2967  224.5803 H   0  0  0  0  0  0  0  0  0  0  0  0
  139.1332   67.7692  226.8615 H   0  0  0  0  0  0  0  0  0  0  0  0
  141.3648   70.4712  229.3199 H   0  0  0  0  0  0  0  0  0  0  0  0
  141.6323   72.0127  227.4229 H   0  0  0  0  0  0  0  0  0  0  0  0
  1  2  2  0
  2  3  1  0
  3  4  1  0
  4  5  1  0
  5  6  2  0
  5  7  1  0
  7  8  1  0
  8  9  1  0
  9 10  1  0
 10 11  1  0
 10 12  1  0
 12 13  1  0
 13 14  1  0
 14 15  2  0
 15 16  1  0
 16 17  2  0
 17 18  1  0
 18 19  1  0
 19 20  2  0
 20 21  1  0
 21 22  2  0
 22 23  1  0
 23 24  2  0
 18 25  2  0
  2 26  1  0
 26 27  2  0
 27 28  1  0
 28 29  2  0
 29 30  1  0
 30 31  2  0
 31 32  1  0
 31 33  1  0
 33 34  2  0
 34 35  1  0
 35 36  2  0
 12  7  1  0
 25 14  1  0
 36 26  1  0
 24 19  1  0
 35 29  1  0
  3 37  1  0
  4 38  1  0
  4 39  1  0
  8 40  1  0
  8 41  1  0
  9 42  1  0
  9 43  1  0
 10 44  1  6
 11 45  1  0
 12 46  1  1
 13 47  1  0
 13 48  1  0
 15 49  1  0
 16 50  1  0
 17 51  1  0
 20 52  1  0
 22 53  1  0
 23 54  1  0
 25 55  1  0
 27 56  1  0
 28 57  1  0
 30 58  1  0
 33 59  1  0
 34 60  1  0
M  END
>  <smiles>  (42) 
O=C(NCC(=O)N1CC[C@H](O)[C@H]1Cc1cccc(-c2cnccn2)c1)c1ccc2cc(F)ccc2n1

>  <score_type>  (42) 
oracle

>  <origin>  (42) 
autodockgpu

>  <m_score__min__energy>  (42) 
-10.08

>  <m_primary>  (42) 
energy

>  <rmsd>  (42) 
3.6432644378772614

>  <m_score__min__rmsd>  (42) 
3.6432644378772614

>  <meeko>  (42) 
{"free_energy": -9.89, "intermolecular_energy": -12.28, "internal_energy": -1.71, "cluster_size": 9, "cluster_id": 2, "rank_in_cluster": 1}

>  <energy>  (42) 
-8.41

>  <cluster_rmsd>  (42) 
0.0

>  <cluster>  (42) 
7

$$$$

     RDKit          3D

 60 64  0  0  0  0  0  0  0  0999 V2000
  136.3170   77.1930  222.2770 O   0  0  0  0  0  0  0  0  0  0  0  0
  136.5350   76.0700  222.8090 C   0  0  0  0  0  0  0  0  0  0  0  0
  137.6550   75.2550  222.4720 N   0  0  0  0  0  0  0  0  0  0  0  0
  138.6110   75.7420  221.4510 C   0  0  0  0  0  0  0  0  0  0  0  0
  139.8910   75.0490  221.5810 C   0  0  0  0  0  0  0  0  0  0  0  0
  139.9120   74.0400  222.3730 O   0  0  0  0  0  0  0  0  0  0  0  0
  141.1060   75.3480  220.9440 N   0  0  0  0  0  0  0  0  0  0  0  0
  142.0540   74.2680  220.5830 C   0  0  0  0  0  0  0  0  0  0  0  0
  142.7900   74.7380  219.3740 C   0  0  0  0  0  0  0  0  0  0  0  0
  142.4740   76.2070  219.2040 C   0  0  2  0  0  0  0  0  0  0  0  0
  143.6910   76.8830  219.1170 O   0  0  0  0  0  0  0  0  0  0  0  0
  141.7490   76.5460  220.4920 C   0  0  1  0  0  0  0  0  0  0  0  0
  140.8750   77.7400  220.3610 C   0  0  0  0  0  0  0  0  0  0  0  0
  140.8890   78.6000  221.5850 C   0  0  0  0  0  0  0  0  0  0  0  0
  142.0590   79.0170  222.1860 C   0  0  0  0  0  0  0  0  0  0  0  0
  142.0780   79.8110  223.3150 C   0  0  0  0  0  0  0  0  0  0  0  0
  140.8590   80.1860  223.8420 C   0  0  0  0  0  0  0  0  0  0  0  0
  139.6640   79.8110  223.2990 C   0  0  0  0  0  0  0  0  0  0  0  0
  138.3600   80.1900  223.8300 C   0  0  0  0  0  0  0  0  0  0  0  0
  138.1850   81.2250  224.7250 C   0  0  0  0  0  0  0  0  0  0  0  0
  136.9740   81.5740  225.2150 N   0  0  0  0  0  0  0  0  0  0  0  0
  135.8740   80.9080  224.8390 C   0  0  0  0  0  0  0  0  0  0  0  0
  136.0150   79.8690  223.9470 C   0  0  0  0  0  0  0  0  0  0  0  0
  137.2250   79.5320  223.4650 N   0  0  0  0  0  0  0  0  0  0  0  0
  139.6950   79.0170  222.1700 C   0  0  0  0  0  0  0  0  0  0  0  0
  135.5950   75.5630  223.8310 C   0  0  0  0  0  0  0  0  0  0  0  0
  134.8200   76.4520  224.5510 C   0  0  0  0  0  0  0  0  0  0  0  0
  133.9210   76.0610  225.5190 C   0  0  0  0  0  0  0  0  0  0  0  0
  133.8130   74.7030  225.7590 C   0  0  0  0  0  0  0  0  0  0  0  0
  132.9200   74.2730  226.7250 C   0  0  0  0  0  0  0  0  0  0  0  0
  132.7820   72.9280  226.9940 C   0  0  0  0  0  0  0  0  0  0  0  0
  131.9030   72.5280  227.9430 F   0  0  0  0  0  0  0  0  0  0  0  0
  133.5620   72.0450  226.2680 C   0  0  0  0  0  0  0  0  0  0  0  0
  134.4540   72.4760  225.3040 C   0  0  0  0  0  0  0  0  0  0  0  0
  134.5990   73.8360  225.0250 C   0  0  0  0  0  0  0  0  0  0  0  0
  135.4690   74.2470  224.0860 N   0  0  0  0  0  0  0  0  0  0  0  0
  137.7860   74.3370  222.9430 H   0  0  0  0  0  0  0  0  0  0  0  0
  138.1976   75.5551  220.4489 H   0  0  0  0  0  0  0  0  0  0  0  0
  138.7721   76.8202  221.5980 H   0  0  0  0  0  0  0  0  0  0  0  0
  142.7569   74.0872  221.4095 H   0  0  0  0  0  0  0  0  0  0  0  0
  141.5252   73.3239  220.3851 H   0  0  0  0  0  0  0  0  0  0  0  0
  143.8722   74.5985  219.5132 H   0  0  0  0  0  0  0  0  0  0  0  0
  142.4865   74.1668  218.4843 H   0  0  0  0  0  0  0  0  0  0  0  0
  141.8785   76.4668  218.3163 H   0  0  0  0  0  0  0  0  0  0  0  0
  143.9020   77.4020  219.9330 H   0  0  0  0  0  0  0  0  0  0  0  0
  142.4520   76.8678  221.2744 H   0  0  0  0  0  0  0  0  0  0  0  0
  141.2220   78.3386  219.5058 H   0  0  0  0  0  0  0  0  0  0  0  0
  139.8443   77.3842  220.2154 H   0  0  0  0  0  0  0  0  0  0  0  0
  143.0175   78.7033  221.7467 H   0  0  0  0  0  0  0  0  0  0  0  0
  143.0245   80.1312  223.7750 H   0  0  0  0  0  0  0  0  0  0  0  0
  140.8498   80.8173  224.7427 H   0  0  0  0  0  0  0  0  0  0  0  0
  139.0689   81.7909  225.0544 H   0  0  0  0  0  0  0  0  0  0  0  0
  134.8846   81.1840  225.2326 H   0  0  0  0  0  0  0  0  0  0  0  0
  135.1264   79.3068  223.6240 H   0  0  0  0  0  0  0  0  0  0  0  0
  138.7436   78.7025  221.7162 H   0  0  0  0  0  0  0  0  0  0  0  0
  134.9262   77.5265  224.3406 H   0  0  0  0  0  0  0  0  0  0  0  0
  133.3177   76.7940  226.0747 H   0  0  0  0  0  0  0  0  0  0  0  0
  132.3180   75.0073  227.2803 H   0  0  0  0  0  0  0  0  0  0  0  0
  133.4693   70.9666  226.4642 H   0  0  0  0  0  0  0  0  0  0  0  0
  135.0557   71.7397  224.7511 H   0  0  0  0  0  0  0  0  0  0  0  0
  1  2  2  0
  2  3  1  0
  3  4  1  0
  4  5  1  0
  5  6  2  0
  5  7  1  0
  7  8  1  0
  8  9  1  0
  9 10  1  0
 10 11  1  0
 10 12  1  0
 12 13  1  0
 13 14  1  0
 14 15  2  0
 15 16  1  0
 16 17  2  0
 17 18  1  0
 18 19  1  0
 19 20  2  0
 20 21  1  0
 21 22  2  0
 22 23  1  0
 23 24  2  0
 18 25  2  0
  2 26  1  0
 26 27  2  0
 27 28  1  0
 28 29  2  0
 29 30  1  0
 30 31  2  0
 31 32  1  0
 31 33  1  0
 33 34  2  0
 34 35  1  0
 35 36  2  0
 12  7  1  0
 25 14  1  0
 36 26  1  0
 24 19  1  0
 35 29  1  0
  3 37  1  0
  4 38  1  0
  4 39  1  0
  8 40  1  0
  8 41  1  0
  9 42  1  0
  9 43  1  0
 10 44  1  6
 11 45  1  0
 12 46  1  1
 13 47  1  0
 13 48  1  0
 15 49  1  0
 16 50  1  0
 17 51  1  0
 20 52  1  0
 22 53  1  0
 23 54  1  0
 25 55  1  0
 27 56  1  0
 28 57  1  0
 30 58  1  0
 33 59  1  0
 34 60  1  0
M  END
>  <smiles>  (43) 
O=C(NCC(=O)N1CC[C@H](O)[C@H]1Cc1cccc(-c2cnccn2)c1)c1ccc2cc(F)ccc2n1

>  <score_type>  (43) 
oracle

>  <origin>  (43) 
autodockgpu

>  <m_score__min__energy>  (43) 
-10.08

>  <m_primary>  (43) 
energy

>  <rmsd>  (43) 
5.9496639856139595

>  <m_score__min__rmsd>  (43) 
5.9496639856139595

>  <meeko>  (43) 
{"free_energy": -8.47, "intermolecular_energy": -10.85, "internal_energy": -2.85, "cluster_size": 6, "cluster_id": 6, "rank_in_cluster": 3}

>  <energy>  (43) 
-8.36

>  <cluster_rmsd>  (43) 
1.9

>  <cluster>  (43) 
7

$$$$

     RDKit          3D

 60 64  0  0  0  0  0  0  0  0999 V2000
  138.4350   70.8270  221.7200 O   0  0  0  0  0  0  0  0  0  0  0  0
  139.0450   71.3560  222.6900 C   0  0  0  0  0  0  0  0  0  0  0  0
  139.4590   72.7190  222.6960 N   0  0  0  0  0  0  0  0  0  0  0  0
  139.1650   73.5610  221.5140 C   0  0  0  0  0  0  0  0  0  0  0  0
  139.8150   74.8640  221.6410 C   0  0  0  0  0  0  0  0  0  0  0  0
  141.0560   74.8480  221.9680 O   0  0  0  0  0  0  0  0  0  0  0  0
  139.2530   76.1350  221.4480 N   0  0  0  0  0  0  0  0  0  0  0  0
  137.8190   76.3770  221.7350 C   0  0  0  0  0  0  0  0  0  0  0  0
  137.7050   77.8060  222.1420 C   0  0  0  0  0  0  0  0  0  0  0  0
  139.0240   78.4690  221.8170 C   0  0  2  0  0  0  0  0  0  0  0  0
  138.7410   79.5920  221.0380 O   0  0  0  0  0  0  0  0  0  0  0  0
  139.7430   77.4070  221.0080 C   0  0  1  0  0  0  0  0  0  0  0  0
  141.2190   77.5740  221.0250 C   0  0  0  0  0  0  0  0  0  0  0  0
  141.8900   76.8920  219.8760 C   0  0  0  0  0  0  0  0  0  0  0  0
  141.6100   77.2040  218.5610 C   0  0  0  0  0  0  0  0  0  0  0  0
  142.2240   76.5790  217.4960 C   0  0  0  0  0  0  0  0  0  0  0  0
  143.1540   75.6020  217.7900 C   0  0  0  0  0  0  0  0  0  0  0  0
  143.4800   75.2430  219.0660 C   0  0  0  0  0  0  0  0  0  0  0  0
  144.4570   74.2180  219.4110 C   0  0  0  0  0  0  0  0  0  0  0  0
  145.0030   73.3560  218.4830 C   0  0  0  0  0  0  0  0  0  0  0  0
  145.9100   72.4060  218.8070 N   0  0  0  0  0  0  0  0  0  0  0  0
  146.3190   72.2650  220.0740 C   0  0  0  0  0  0  0  0  0  0  0  0
  145.7930   73.1100  221.0260 C   0  0  0  0  0  0  0  0  0  0  0  0
  144.8930   74.0510  220.6910 N   0  0  0  0  0  0  0  0  0  0  0  0
  142.8390   75.8980  220.0990 C   0  0  0  0  0  0  0  0  0  0  0  0
  139.3500   70.5360  223.8820 C   0  0  0  0  0  0  0  0  0  0  0  0
  139.0090   69.1970  223.8990 C   0  0  0  0  0  0  0  0  0  0  0  0
  139.2580   68.3660  224.9690 C   0  0  0  0  0  0  0  0  0  0  0  0
  139.8820   68.9310  226.0660 C   0  0  0  0  0  0  0  0  0  0  0  0
  140.1490   68.1250  227.1590 C   0  0  0  0  0  0  0  0  0  0  0  0
  140.7700   68.6490  228.2730 C   0  0  0  0  0  0  0  0  0  0  0  0
  141.0210   67.8450  229.3330 F   0  0  0  0  0  0  0  0  0  0  0  0
  141.1080   69.9910  228.2480 C   0  0  0  0  0  0  0  0  0  0  0  0
  140.8410   70.7940  227.1550 C   0  0  0  0  0  0  0  0  0  0  0  0
  140.2130   70.2710  226.0230 C   0  0  0  0  0  0  0  0  0  0  0  0
  139.9560   71.0590  224.9640 N   0  0  0  0  0  0  0  0  0  0  0  0
  139.9590   73.1040  223.5240 H   0  0  0  0  0  0  0  0  0  0  0  0
  139.5363   73.0576  220.6092 H   0  0  0  0  0  0  0  0  0  0  0  0
  138.0774   73.7105  221.4446 H   0  0  0  0  0  0  0  0  0  0  0  0
  137.2142   76.1885  220.8357 H   0  0  0  0  0  0  0  0  0  0  0  0
  137.4529   75.7071  222.5270 H   0  0  0  0  0  0  0  0  0  0  0  0
  136.8909   78.2929  221.5850 H   0  0  0  0  0  0  0  0  0  0  0  0
  137.4794   77.8899  223.2153 H   0  0  0  0  0  0  0  0  0  0  0  0
  139.6174   78.7991  222.6824 H   0  0  0  0  0  0  0  0  0  0  0  0
  137.8450   79.5540  220.6200 H   0  0  0  0  0  0  0  0  0  0  0  0
  139.5197   77.5017  219.9351 H   0  0  0  0  0  0  0  0  0  0  0  0
  141.4522   78.6481  220.9816 H   0  0  0  0  0  0  0  0  0  0  0  0
  141.5949   77.1133  221.9504 H   0  0  0  0  0  0  0  0  0  0  0  0
  140.8643   77.9856  218.3533 H   0  0  0  0  0  0  0  0  0  0  0  0
  141.9831   76.8474  216.4568 H   0  0  0  0  0  0  0  0  0  0  0  0
  143.6560   75.0886  216.9567 H   0  0  0  0  0  0  0  0  0  0  0  0
  144.6870   73.4449  217.4331 H   0  0  0  0  0  0  0  0  0  0  0  0
  147.0554   71.4949  220.3474 H   0  0  0  0  0  0  0  0  0  0  0  0
  146.1134   73.0138  222.0739 H   0  0  0  0  0  0  0  0  0  0  0  0
  143.0871   75.6246  221.1352 H   0  0  0  0  0  0  0  0  0  0  0  0
  138.5135   68.7732  223.0131 H   0  0  0  0  0  0  0  0  0  0  0  0
  138.9739   67.3035  224.9516 H   0  0  0  0  0  0  0  0  0  0  0  0
  139.8648   67.0625  227.1389 H   0  0  0  0  0  0  0  0  0  0  0  0
  141.6044   70.4321  229.1249 H   0  0  0  0  0  0  0  0  0  0  0  0
  141.1263   71.8561  227.1773 H   0  0  0  0  0  0  0  0  0  0  0  0
  1  2  2  0
  2  3  1  0
  3  4  1  0
  4  5  1  0
  5  6  2  0
  5  7  1  0
  7  8  1  0
  8  9  1  0
  9 10  1  0
 10 11  1  0
 10 12  1  0
 12 13  1  0
 13 14  1  0
 14 15  2  0
 15 16  1  0
 16 17  2  0
 17 18  1  0
 18 19  1  0
 19 20  2  0
 20 21  1  0
 21 22  2  0
 22 23  1  0
 23 24  2  0
 18 25  2  0
  2 26  1  0
 26 27  2  0
 27 28  1  0
 28 29  2  0
 29 30  1  0
 30 31  2  0
 31 32  1  0
 31 33  1  0
 33 34  2  0
 34 35  1  0
 35 36  2  0
 12  7  1  0
 25 14  1  0
 36 26  1  0
 24 19  1  0
 35 29  1  0
  3 37  1  0
  4 38  1  0
  4 39  1  0
  8 40  1  0
  8 41  1  0
  9 42  1  0
  9 43  1  0
 10 44  1  1
 11 45  1  0
 12 46  1  6
 13 47  1  0
 13 48  1  0
 15 49  1  0
 16 50  1  0
 17 51  1  0
 20 52  1  0
 22 53  1  0
 23 54  1  0
 25 55  1  0
 27 56  1  0
 28 57  1  0
 30 58  1  0
 33 59  1  0
 34 60  1  0
M  END
>  <smiles>  (44) 
O=C(NCC(=O)N1CC[C@H](O)[C@H]1Cc1cccc(-c2cnccn2)c1)c1ccc2cc(F)ccc2n1

>  <score_type>  (44) 
oracle

>  <origin>  (44) 
autodockgpu

>  <m_score__min__energy>  (44) 
-10.08

>  <m_primary>  (44) 
energy

>  <rmsd>  (44) 
2.8980325749274534

>  <m_score__min__rmsd>  (44) 
2.8980325749274534

>  <meeko>  (44) 
{"free_energy": -8.9, "intermolecular_energy": -11.29, "internal_energy": -1.98, "cluster_size": 3, "cluster_id": 5, "rank_in_cluster": 1}

>  <energy>  (44) 
-8.36

>  <cluster_rmsd>  (44) 
1.98

>  <cluster>  (44) 
7

$$$$

     RDKit          3D

 60 64  0  0  0  0  0  0  0  0999 V2000
  140.6560   71.7450  221.5000 O   0  0  0  0  0  0  0  0  0  0  0  0
  139.8080   71.9370  222.4140 C   0  0  0  0  0  0  0  0  0  0  0  0
  138.7930   72.9340  222.3350 N   0  0  0  0  0  0  0  0  0  0  0  0
  138.7250   73.7890  221.1280 C   0  0  0  0  0  0  0  0  0  0  0  0
  138.9810   75.1850  221.4780 C   0  0  0  0  0  0  0  0  0  0  0  0
  138.3440   75.6410  222.4940 O   0  0  0  0  0  0  0  0  0  0  0  0
  139.8410   76.0940  220.8410 N   0  0  0  0  0  0  0  0  0  0  0  0
  139.6900   76.3890  219.3970 C   0  0  0  0  0  0  0  0  0  0  0  0
  140.1620   77.7900  219.2000 C   0  0  0  0  0  0  0  0  0  0  0  0
  140.8550   78.2100  220.4770 C   0  0  2  0  0  0  0  0  0  0  0  0
  142.1220   78.6750  220.1250 O   0  0  0  0  0  0  0  0  0  0  0  0
  140.9430   76.9110  221.2540 C   0  0  1  0  0  0  0  0  0  0  0  0
  141.0790   77.1250  222.7170 C   0  0  0  0  0  0  0  0  0  0  0  0
  141.0580   78.5730  223.0920 C   0  0  0  0  0  0  0  0  0  0  0  0
  142.2040   79.3400  223.1530 C   0  0  0  0  0  0  0  0  0  0  0  0
  142.1920   80.6750  223.4980 C   0  0  0  0  0  0  0  0  0  0  0  0
  140.9670   81.2400  223.7900 C   0  0  0  0  0  0  0  0  0  0  0  0
  139.7950   80.5410  223.7500 C   0  0  0  0  0  0  0  0  0  0  0  0
  138.4860   81.1070  224.0520 C   0  0  0  0  0  0  0  0  0  0  0  0
  137.7160   81.7640  223.1140 C   0  0  0  0  0  0  0  0  0  0  0  0
  136.5020   82.2870  223.3980 N   0  0  0  0  0  0  0  0  0  0  0  0
  135.9920   82.1820  224.6320 C   0  0  0  0  0  0  0  0  0  0  0  0
  136.7350   81.5320  225.5910 C   0  0  0  0  0  0  0  0  0  0  0  0
  137.9410   81.0160  225.2970 N   0  0  0  0  0  0  0  0  0  0  0  0
  139.8570   79.2070  223.3990 C   0  0  0  0  0  0  0  0  0  0  0  0
  139.8550   71.0950  223.6290 C   0  0  0  0  0  0  0  0  0  0  0  0
  139.3330   69.8160  223.5980 C   0  0  0  0  0  0  0  0  0  0  0  0
  139.3380   68.9700  224.6850 C   0  0  0  0  0  0  0  0  0  0  0  0
  139.9010   69.4550  225.8510 C   0  0  0  0  0  0  0  0  0  0  0  0
  139.9240   68.6320  226.9640 C   0  0  0  0  0  0  0  0  0  0  0  0
  140.4770   69.0780  228.1460 C   0  0  0  0  0  0  0  0  0  0  0  0
  140.4890   68.2570  229.2230 F   0  0  0  0  0  0  0  0  0  0  0  0
  140.9980   70.3600  228.1680 C   0  0  0  0  0  0  0  0  0  0  0  0
  140.9740   71.1800  227.0560 C   0  0  0  0  0  0  0  0  0  0  0  0
  140.4170   70.7360  225.8550 C   0  0  0  0  0  0  0  0  0  0  0  0
  140.3970   71.5410  224.7770 N   0  0  0  0  0  0  0  0  0  0  0  0
  138.1180   73.0480  223.1180 H   0  0  0  0  0  0  0  0  0  0  0  0
  139.4804   73.4527  220.4025 H   0  0  0  0  0  0  0  0  0  0  0  0
  137.7190   73.7093  220.6902 H   0  0  0  0  0  0  0  0  0  0  0  0
  140.3009   75.6948  218.8013 H   0  0  0  0  0  0  0  0  0  0  0  0
  138.6450   76.2719  219.0740 H   0  0  0  0  0  0  0  0  0  0  0  0
  140.8661   77.8357  218.3561 H   0  0  0  0  0  0  0  0  0  0  0  0
  139.3185   78.4590  218.9742 H   0  0  0  0  0  0  0  0  0  0  0  0
  140.3532   79.0009  221.0538 H   0  0  0  0  0  0  0  0  0  0  0  0
  142.8470   78.2540  220.6510 H   0  0  0  0  0  0  0  0  0  0  0  0
  141.8708   76.3679  221.0212 H   0  0  0  0  0  0  0  0  0  0  0  0
  140.2464   76.6173  223.2260 H   0  0  0  0  0  0  0  0  0  0  0  0
  142.0528   76.7159  223.0240 H   0  0  0  0  0  0  0  0  0  0  0  0
  143.1680   78.8660  222.9163 H   0  0  0  0  0  0  0  0  0  0  0  0
  143.1196   81.2648  223.5388 H   0  0  0  0  0  0  0  0  0  0  0  0
  140.9335   82.3037  224.0681 H   0  0  0  0  0  0  0  0  0  0  0  0
  138.1069   81.8666  222.0909 H   0  0  0  0  0  0  0  0  0  0  0  0
  135.0052   82.6042  224.8727 H   0  0  0  0  0  0  0  0  0  0  0  0
  136.3367   81.4334  226.6116 H   0  0  0  0  0  0  0  0  0  0  0  0
  138.9246   78.6246  223.3606 H   0  0  0  0  0  0  0  0  0  0  0  0
  138.8910   69.4551  222.6576 H   0  0  0  0  0  0  0  0  0  0  0  0
  138.9142   67.9565  224.6281 H   0  0  0  0  0  0  0  0  0  0  0  0
  139.4997   67.6188  226.9053 H   0  0  0  0  0  0  0  0  0  0  0  0
  141.4450   70.7378  229.0994 H   0  0  0  0  0  0  0  0  0  0  0  0
  141.3981   72.1931  227.1176 H   0  0  0  0  0  0  0  0  0  0  0  0
  1  2  2  0
  2  3  1  0
  3  4  1  0
  4  5  1  0
  5  6  2  0
  5  7  1  0
  7  8  1  0
  8  9  1  0
  9 10  1  0
 10 11  1  0
 10 12  1  0
 12 13  1  0
 13 14  1  0
 14 15  2  0
 15 16  1  0
 16 17  2  0
 17 18  1  0
 18 19  1  0
 19 20  2  0
 20 21  1  0
 21 22  2  0
 22 23  1  0
 23 24  2  0
 18 25  2  0
  2 26  1  0
 26 27  2  0
 27 28  1  0
 28 29  2  0
 29 30  1  0
 30 31  2  0
 31 32  1  0
 31 33  1  0
 33 34  2  0
 34 35  1  0
 35 36  2  0
 12  7  1  0
 25 14  1  0
 36 26  1  0
 24 19  1  0
 35 29  1  0
  3 37  1  0
  4 38  1  0
  4 39  1  0
  8 40  1  0
  8 41  1  0
  9 42  1  0
  9 43  1  0
 10 44  1  1
 11 45  1  0
 12 46  1  6
 13 47  1  0
 13 48  1  0
 15 49  1  0
 16 50  1  0
 17 51  1  0
 20 52  1  0
 22 53  1  0
 23 54  1  0
 25 55  1  0
 27 56  1  0
 28 57  1  0
 30 58  1  0
 33 59  1  0
 34 60  1  0
M  END
>  <smiles>  (45) 
O=C(NCC(=O)N1CC[C@H](O)[C@H]1Cc1cccc(-c2cnccn2)c1)c1ccc2cc(F)ccc2n1

>  <score_type>  (45) 
oracle

>  <origin>  (45) 
autodockgpu

>  <m_score__min__energy>  (45) 
-10.08

>  <m_primary>  (45) 
energy

>  <rmsd>  (45) 
2.2725594263344795

>  <m_score__min__rmsd>  (45) 
2.2725594263344795

>  <meeko>  (45) 
{"free_energy": -9.49, "intermolecular_energy": -11.87, "internal_energy": -1.75, "cluster_size": 16, "cluster_id": 1, "rank_in_cluster": 4}

>  <energy>  (45) 
-8.15

>  <cluster_rmsd>  (45) 
0.99

>  <cluster>  (45) 
7

$$$$

     RDKit          3D

 60 64  0  0  0  0  0  0  0  0999 V2000
  139.9160   73.7700  222.6320 O   0  0  0  0  0  0  0  0  0  0  0  0
  140.1020   72.5440  222.4010 C   0  0  0  0  0  0  0  0  0  0  0  0
  140.3540   72.0280  221.0970 N   0  0  0  0  0  0  0  0  0  0  0  0
  140.4020   72.9690  219.9540 C   0  0  0  0  0  0  0  0  0  0  0  0
  141.4680   72.5930  219.0290 C   0  0  0  0  0  0  0  0  0  0  0  0
  141.0960   72.1800  217.8720 O   0  0  0  0  0  0  0  0  0  0  0  0
  142.8550   72.6260  219.2450 N   0  0  0  0  0  0  0  0  0  0  0  0
  143.4900   71.6960  220.2070 C   0  0  0  0  0  0  0  0  0  0  0  0
  144.8750   71.4530  219.7100 C   0  0  0  0  0  0  0  0  0  0  0  0
  145.1390   72.4650  218.6170 C   0  0  2  0  0  0  0  0  0  0  0  0
  146.3250   73.1240  218.9430 O   0  0  0  0  0  0  0  0  0  0  0  0
  143.9460   73.3950  218.7250 C   0  0  1  0  0  0  0  0  0  0  0  0
  143.6770   74.1330  217.4650 C   0  0  0  0  0  0  0  0  0  0  0  0
  143.2360   75.5420  217.7040 C   0  0  0  0  0  0  0  0  0  0  0  0
  143.3040   76.5170  216.7300 C   0  0  0  0  0  0  0  0  0  0  0  0
  142.8990   77.8180  216.9440 C   0  0  0  0  0  0  0  0  0  0  0  0
  142.4100   78.1270  218.1970 C   0  0  0  0  0  0  0  0  0  0  0  0
  142.3140   77.2140  219.2070 C   0  0  0  0  0  0  0  0  0  0  0  0
  141.8020   77.5070  220.5400 C   0  0  0  0  0  0  0  0  0  0  0  0
  141.1210   76.5830  221.3040 C   0  0  0  0  0  0  0  0  0  0  0  0
  140.6470   76.8580  222.5410 N   0  0  0  0  0  0  0  0  0  0  0  0
  140.8290   78.0710  223.0790 C   0  0  0  0  0  0  0  0  0  0  0  0
  141.5050   79.0170  222.3430 C   0  0  0  0  0  0  0  0  0  0  0  0
  141.9720   78.7310  221.1140 N   0  0  0  0  0  0  0  0  0  0  0  0
  142.7310   75.9240  218.9450 C   0  0  0  0  0  0  0  0  0  0  0  0
  140.0590   71.5850  223.5260 C   0  0  0  0  0  0  0  0  0  0  0  0
  139.4520   70.3550  223.3570 C   0  0  0  0  0  0  0  0  0  0  0  0
  139.3700   69.4080  224.3530 C   0  0  0  0  0  0  0  0  0  0  0  0
  139.9330   69.7350  225.5740 C   0  0  0  0  0  0  0  0  0  0  0  0
  139.8690   68.8070  226.5980 C   0  0  0  0  0  0  0  0  0  0  0  0
  140.4180   69.0940  227.8300 C   0  0  0  0  0  0  0  0  0  0  0  0
  140.3450   68.1730  228.8200 F   0  0  0  0  0  0  0  0  0  0  0  0
  141.0240   70.3280  227.9910 C   0  0  0  0  0  0  0  0  0  0  0  0
  141.0860   71.2530  226.9670 C   0  0  0  0  0  0  0  0  0  0  0  0
  140.5330   70.9700  225.7170 C   0  0  0  0  0  0  0  0  0  0  0  0
  140.5980   71.8770  224.7250 N   0  0  0  0  0  0  0  0  0  0  0  0
  140.5000   71.0070  220.9640 H   0  0  0  0  0  0  0  0  0  0  0  0
  139.4380   72.9457  219.4247 H   0  0  0  0  0  0  0  0  0  0  0  0
  140.6003   73.9820  220.3340 H   0  0  0  0  0  0  0  0  0  0  0  0
  143.5198   72.1481  221.2094 H   0  0  0  0  0  0  0  0  0  0  0  0
  142.9243   70.7557  220.2838 H   0  0  0  0  0  0  0  0  0  0  0  0
  145.5981   71.5842  220.5285 H   0  0  0  0  0  0  0  0  0  0  0  0
  144.9794   70.4270  219.3273 H   0  0  0  0  0  0  0  0  0  0  0  0
  145.2489   72.0537  217.6027 H   0  0  0  0  0  0  0  0  0  0  0  0
  146.2770   74.1010  218.7880 H   0  0  0  0  0  0  0  0  0  0  0  0
  144.1429   74.2185  219.4272 H   0  0  0  0  0  0  0  0  0  0  0  0
  144.5979   74.1497  216.8636 H   0  0  0  0  0  0  0  0  0  0  0  0
  142.8598   73.6131  216.9435 H   0  0  0  0  0  0  0  0  0  0  0  0
  143.6983   76.2449  215.7398 H   0  0  0  0  0  0  0  0  0  0  0  0
  142.9630   78.5767  216.1501 H   0  0  0  0  0  0  0  0  0  0  0  0
  142.0818   79.1588  218.3911 H   0  0  0  0  0  0  0  0  0  0  0  0
  140.9558   75.5776  220.8894 H   0  0  0  0  0  0  0  0  0  0  0  0
  140.4477   78.3051  224.0839 H   0  0  0  0  0  0  0  0  0  0  0  0
  141.6657   80.0201  222.7649 H   0  0  0  0  0  0  0  0  0  0  0  0
  142.6621   75.1714  219.7443 H   0  0  0  0  0  0  0  0  0  0  0  0
  139.0118   70.1206  222.3765 H   0  0  0  0  0  0  0  0  0  0  0  0
  138.8801   68.4374  224.1860 H   0  0  0  0  0  0  0  0  0  0  0  0
  139.3786   67.8370  226.4289 H   0  0  0  0  0  0  0  0  0  0  0  0
  141.4700   70.5798  228.9645 H   0  0  0  0  0  0  0  0  0  0  0  0
  141.5762   72.2227  227.1384 H   0  0  0  0  0  0  0  0  0  0  0  0
  1  2  2  0
  2  3  1  0
  3  4  1  0
  4  5  1  0
  5  6  2  0
  5  7  1  0
  7  8  1  0
  8  9  1  0
  9 10  1  0
 10 11  1  0
 10 12  1  0
 12 13  1  0
 13 14  1  0
 14 15  2  0
 15 16  1  0
 16 17  2  0
 17 18  1  0
 18 19  1  0
 19 20  2  0
 20 21  1  0
 21 22  2  0
 22 23  1  0
 23 24  2  0
 18 25  2  0
  2 26  1  0
 26 27  2  0
 27 28  1  0
 28 29  2  0
 29 30  1  0
 30 31  2  0
 31 32  1  0
 31 33  1  0
 33 34  2  0
 34 35  1  0
 35 36  2  0
 12  7  1  0
 25 14  1  0
 36 26  1  0
 24 19  1  0
 35 29  1  0
  3 37  1  0
  4 38  1  0
  4 39  1  0
  8 40  1  0
  8 41  1  0
  9 42  1  0
  9 43  1  0
 10 44  1  6
 11 45  1  0
 12 46  1  1
 13 47  1  0
 13 48  1  0
 15 49  1  0
 16 50  1  0
 17 51  1  0
 20 52  1  0
 22 53  1  0
 23 54  1  0
 25 55  1  0
 27 56  1  0
 28 57  1  0
 30 58  1  0
 33 59  1  0
 34 60  1  0
M  END
>  <smiles>  (46) 
O=C(NCC(=O)N1CC[C@H](O)[C@H]1Cc1cccc(-c2cnccn2)c1)c1ccc2cc(F)ccc2n1

>  <score_type>  (46) 
oracle

>  <origin>  (46) 
autodockgpu

>  <m_score__min__energy>  (46) 
-10.08

>  <m_primary>  (46) 
energy

>  <rmsd>  (46) 
3.679302996425936

>  <m_score__min__rmsd>  (46) 
3.679302996425936

>  <meeko>  (46) 
{"free_energy": -9.17, "intermolecular_energy": -11.56, "internal_energy": -1.95, "cluster_size": 9, "cluster_id": 2, "rank_in_cluster": 7}

>  <energy>  (46) 
-7.89

>  <cluster_rmsd>  (46) 
1.93

>  <cluster>  (46) 
7

$$$$

     RDKit          3D

 60 64  0  0  0  0  0  0  0  0999 V2000
  136.4020   77.2330  222.4510 O   0  0  0  0  0  0  0  0  0  0  0  0
  136.5380   76.0670  222.9140 C   0  0  0  0  0  0  0  0  0  0  0  0
  137.5930   75.1930  222.5220 N   0  0  0  0  0  0  0  0  0  0  0  0
  138.5800   75.6670  221.5250 C   0  0  0  0  0  0  0  0  0  0  0  0
  139.8270   74.9140  221.6440 C   0  0  0  0  0  0  0  0  0  0  0  0
  139.7780   73.8450  222.3510 O   0  0  0  0  0  0  0  0  0  0  0  0
  141.0770   75.2140  221.0810 N   0  0  0  0  0  0  0  0  0  0  0  0
  142.0420   74.1340  220.7680 C   0  0  0  0  0  0  0  0  0  0  0  0
  142.8470   74.6090  219.6070 C   0  0  0  0  0  0  0  0  0  0  0  0
  142.5440   76.0800  219.4270 C   0  0  2  0  0  0  0  0  0  0  0  0
  143.7650   76.7550  219.4130 O   0  0  0  0  0  0  0  0  0  0  0  0
  141.7460   76.4130  220.6720 C   0  0  1  0  0  0  0  0  0  0  0  0
  140.8840   77.6100  220.4990 C   0  0  0  0  0  0  0  0  0  0  0  0
  140.9460   78.5400  221.6680 C   0  0  0  0  0  0  0  0  0  0  0  0
  142.1380   78.9960  222.1920 C   0  0  0  0  0  0  0  0  0  0  0  0
  142.2030   79.8540  223.2700 C   0  0  0  0  0  0  0  0  0  0  0  0
  141.0060   80.2550  223.8290 C   0  0  0  0  0  0  0  0  0  0  0  0
  139.7910   79.8430  223.3620 C   0  0  0  0  0  0  0  0  0  0  0  0
  138.5090   80.2480  223.9280 C   0  0  0  0  0  0  0  0  0  0  0  0
  137.2990   79.7710  223.4670 C   0  0  0  0  0  0  0  0  0  0  0  0
  136.1130   80.1480  223.9940 N   0  0  0  0  0  0  0  0  0  0  0  0
  136.0700   81.0220  225.0080 C   0  0  0  0  0  0  0  0  0  0  0  0
  137.2600   81.5170  225.4920 C   0  0  0  0  0  0  0  0  0  0  0  0
  138.4340   81.1340  224.9600 N   0  0  0  0  0  0  0  0  0  0  0  0
  139.7770   78.9860  222.2800 C   0  0  0  0  0  0  0  0  0  0  0  0
  135.5650   75.5710  223.9110 C   0  0  0  0  0  0  0  0  0  0  0  0
  134.7520   76.4660  224.5800 C   0  0  0  0  0  0  0  0  0  0  0  0
  133.8220   76.0850  225.5220 C   0  0  0  0  0  0  0  0  0  0  0  0
  133.7210   74.7320  225.7890 C   0  0  0  0  0  0  0  0  0  0  0  0
  132.7970   74.3130  226.7300 C   0  0  0  0  0  0  0  0  0  0  0  0
  132.6650   72.9730  227.0250 C   0  0  0  0  0  0  0  0  0  0  0  0
  131.7550   72.5830  227.9490 F   0  0  0  0  0  0  0  0  0  0  0  0
  133.4830   72.0830  226.3500 C   0  0  0  0  0  0  0  0  0  0  0  0
  134.4050   72.5040  225.4110 C   0  0  0  0  0  0  0  0  0  0  0  0
  134.5450   73.8590  225.1060 C   0  0  0  0  0  0  0  0  0  0  0  0
  135.4450   74.2600  224.1910 N   0  0  0  0  0  0  0  0  0  0  0  0
  137.6570   74.2410  222.9370 H   0  0  0  0  0  0  0  0  0  0  0  0
  138.1686   75.5293  220.5141 H   0  0  0  0  0  0  0  0  0  0  0  0
  138.7876   76.7318  221.7071 H   0  0  0  0  0  0  0  0  0  0  0  0
  142.6959   73.9464  221.6324 H   0  0  0  0  0  0  0  0  0  0  0  0
  141.5233   73.1927  220.5339 H   0  0  0  0  0  0  0  0  0  0  0  0
  143.9191   74.4665  219.8078 H   0  0  0  0  0  0  0  0  0  0  0  0
  142.5943   74.0434  218.6980 H   0  0  0  0  0  0  0  0  0  0  0  0
  142.0015   76.3458  218.5077 H   0  0  0  0  0  0  0  0  0  0  0  0
  143.8630   77.3890  220.1670 H   0  0  0  0  0  0  0  0  0  0  0  0
  142.4034   76.7293  221.4953 H   0  0  0  0  0  0  0  0  0  0  0  0
  141.2117   78.1526  219.6000 H   0  0  0  0  0  0  0  0  0  0  0  0
  139.8450   77.2606  220.4074 H   0  0  0  0  0  0  0  0  0  0  0  0
  143.0781   78.6605  221.7297 H   0  0  0  0  0  0  0  0  0  0  0  0
  143.1673   80.2038  223.6673 H   0  0  0  0  0  0  0  0  0  0  0  0
  141.0324   80.9382  224.6907 H   0  0  0  0  0  0  0  0  0  0  0  0
  137.2998   79.0525  222.6341 H   0  0  0  0  0  0  0  0  0  0  0  0
  135.1095   81.3359  225.4425 H   0  0  0  0  0  0  0  0  0  0  0  0
  137.2502   82.2354  226.3250 H   0  0  0  0  0  0  0  0  0  0  0  0
  138.8084   78.6432  221.8872 H   0  0  0  0  0  0  0  0  0  0  0  0
  134.8526   77.5367  224.3486 H   0  0  0  0  0  0  0  0  0  0  0  0
  133.1894   76.8225  226.0377 H   0  0  0  0  0  0  0  0  0  0  0  0
  132.1654   75.0521  227.2446 H   0  0  0  0  0  0  0  0  0  0  0  0
  133.3963   71.0083  226.5679 H   0  0  0  0  0  0  0  0  0  0  0  0
  135.0358   71.7631  224.8980 H   0  0  0  0  0  0  0  0  0  0  0  0
  1  2  2  0
  2  3  1  0
  3  4  1  0
  4  5  1  0
  5  6  2  0
  5  7  1  0
  7  8  1  0
  8  9  1  0
  9 10  1  0
 10 11  1  0
 10 12  1  0
 12 13  1  0
 13 14  1  0
 14 15  2  0
 15 16  1  0
 16 17  2  0
 17 18  1  0
 18 19  1  0
 19 20  2  0
 20 21  1  0
 21 22  2  0
 22 23  1  0
 23 24  2  0
 18 25  2  0
  2 26  1  0
 26 27  2  0
 27 28  1  0
 28 29  2  0
 29 30  1  0
 30 31  2  0
 31 32  1  0
 31 33  1  0
 33 34  2  0
 34 35  1  0
 35 36  2  0
 12  7  1  0
 25 14  1  0
 36 26  1  0
 24 19  1  0
 35 29  1  0
  3 37  1  0
  4 38  1  0
  4 39  1  0
  8 40  1  0
  8 41  1  0
  9 42  1  0
  9 43  1  0
 10 44  1  6
 11 45  1  0
 12 46  1  1
 13 47  1  0
 13 48  1  0
 15 49  1  0
 16 50  1  0
 17 51  1  0
 20 52  1  0
 22 53  1  0
 23 54  1  0
 25 55  1  0
 27 56  1  0
 28 57  1  0
 30 58  1  0
 33 59  1  0
 34 60  1  0
M  END
>  <smiles>  (47) 
O=C(NCC(=O)N1CC[C@H](O)[C@H]1Cc1cccc(-c2cnccn2)c1)c1ccc2cc(F)ccc2n1

>  <score_type>  (47) 
oracle

>  <origin>  (47) 
autodockgpu

>  <m_score__min__energy>  (47) 
-10.08

>  <m_primary>  (47) 
energy

>  <rmsd>  (47) 
6.0228182759973325

>  <m_score__min__rmsd>  (47) 
6.0228182759973325

>  <meeko>  (47) 
{"free_energy": -8.7, "intermolecular_energy": -11.08, "internal_energy": -2.78, "cluster_size": 6, "cluster_id": 6, "rank_in_cluster": 2}

>  <energy>  (47) 
-8.2

>  <cluster_rmsd>  (47) 
0.0

>  <cluster>  (47) 
8

$$$$

     RDKit          3D

 60 64  0  0  0  0  0  0  0  0999 V2000
  139.6950   71.5220  221.0020 O   0  0  0  0  0  0  0  0  0  0  0  0
  139.6690   72.1350  222.1040 C   0  0  0  0  0  0  0  0  0  0  0  0
  139.5520   73.5520  222.2020 N   0  0  0  0  0  0  0  0  0  0  0  0
  139.4550   74.3480  220.9570 C   0  0  0  0  0  0  0  0  0  0  0  0
  139.9040   75.7190  221.1920 C   0  0  0  0  0  0  0  0  0  0  0  0
  140.2600   76.0000  222.3930 O   0  0  0  0  0  0  0  0  0  0  0  0
  139.9960   76.7710  220.2680 N   0  0  0  0  0  0  0  0  0  0  0  0
  138.8590   77.0910  219.3740 C   0  0  0  0  0  0  0  0  0  0  0  0
  138.9380   78.5530  219.0950 C   0  0  0  0  0  0  0  0  0  0  0  0
  140.2840   79.0290  219.5940 C   0  0  2  0  0  0  0  0  0  0  0  0
  140.9040   79.6970  218.5370 O   0  0  0  0  0  0  0  0  0  0  0  0
  140.9990   77.7330  219.9190 C   0  0  1  0  0  0  0  0  0  0  0  0
  142.0950   77.9130  220.9060 C   0  0  0  0  0  0  0  0  0  0  0  0
  141.7850   78.9610  221.9270 C   0  0  0  0  0  0  0  0  0  0  0  0
  142.7510   79.7940  222.4530 C   0  0  0  0  0  0  0  0  0  0  0  0
  142.4720   80.7620  223.3950 C   0  0  0  0  0  0  0  0  0  0  0  0
  141.1610   80.8780  223.8090 C   0  0  0  0  0  0  0  0  0  0  0  0
  140.1550   80.0890  223.3320 C   0  0  0  0  0  0  0  0  0  0  0  0
  138.7610   80.1850  223.7480 C   0  0  0  0  0  0  0  0  0  0  0  0
  137.7530   79.4330  223.1810 C   0  0  0  0  0  0  0  0  0  0  0  0
  136.4610   79.5250  223.5700 N   0  0  0  0  0  0  0  0  0  0  0  0
  136.1060   80.3730  224.5440 C   0  0  0  0  0  0  0  0  0  0  0  0
  137.0890   81.1390  225.1310 C   0  0  0  0  0  0  0  0  0  0  0  0
  138.3700   81.0380  224.7360 N   0  0  0  0  0  0  0  0  0  0  0  0
  140.4830   79.1340  222.3900 C   0  0  0  0  0  0  0  0  0  0  0  0
  139.7640   71.3620  223.3610 C   0  0  0  0  0  0  0  0  0  0  0  0
  139.2730   70.0720  223.4110 C   0  0  0  0  0  0  0  0  0  0  0  0
  139.3230   69.2860  224.5410 C   0  0  0  0  0  0  0  0  0  0  0  0
  139.9000   69.8470  225.6660 C   0  0  0  0  0  0  0  0  0  0  0  0
  139.9680   69.0860  226.8210 C   0  0  0  0  0  0  0  0  0  0  0  0
  140.5350   69.6080  227.9640 C   0  0  0  0  0  0  0  0  0  0  0  0
  140.5910   68.8480  229.0830 F   0  0  0  0  0  0  0  0  0  0  0  0
  141.0250   70.9010  227.9050 C   0  0  0  0  0  0  0  0  0  0  0  0
  140.9560   71.6590  226.7510 C   0  0  0  0  0  0  0  0  0  0  0  0
  140.3840   71.1380  225.5900 C   0  0  0  0  0  0  0  0  0  0  0  0
  140.3210   71.8820  224.4710 N   0  0  0  0  0  0  0  0  0  0  0  0
  139.5360   74.0060  223.1380 H   0  0  0  0  0  0  0  0  0  0  0  0
  140.0861   73.8877  220.1825 H   0  0  0  0  0  0  0  0  0  0  0  0
  138.4058   74.3679  220.6273 H   0  0  0  0  0  0  0  0  0  0  0  0
  138.9401   76.5205  218.4370 H   0  0  0  0  0  0  0  0  0  0  0  0
  137.8990   76.8267  219.8415 H   0  0  0  0  0  0  0  0  0  0  0  0
  138.8501   78.7361  218.0139 H   0  0  0  0  0  0  0  0  0  0  0  0
  138.1213   79.0921  219.5974 H   0  0  0  0  0  0  0  0  0  0  0  0
  140.2582   79.7118  220.4560 H   0  0  0  0  0  0  0  0  0  0  0  0
  140.7040   79.2920  217.6560 H   0  0  0  0  0  0  0  0  0  0  0  0
  141.5460   77.3487  219.0454 H   0  0  0  0  0  0  0  0  0  0  0  0
  142.2637   76.9568  221.4230 H   0  0  0  0  0  0  0  0  0  0  0  0
  142.9888   78.2401  220.3545 H   0  0  0  0  0  0  0  0  0  0  0  0
  143.7887   79.6812  222.1060 H   0  0  0  0  0  0  0  0  0  0  0  0
  143.2609   81.4136  223.7989 H   0  0  0  0  0  0  0  0  0  0  0  0
  140.9149   81.6434  224.5598 H   0  0  0  0  0  0  0  0  0  0  0  0
  138.0114   78.7277  222.3774 H   0  0  0  0  0  0  0  0  0  0  0  0
  135.0576   80.4556  224.8666 H   0  0  0  0  0  0  0  0  0  0  0  0
  136.8223   81.8425  225.9334 H   0  0  0  0  0  0  0  0  0  0  0  0
  139.6877   78.4870  221.9912 H   0  0  0  0  0  0  0  0  0  0  0  0
  138.8188   69.6508  222.5020 H   0  0  0  0  0  0  0  0  0  0  0  0
  138.9232   68.2612  224.5484 H   0  0  0  0  0  0  0  0  0  0  0  0
  139.5681   68.0613  226.8264 H   0  0  0  0  0  0  0  0  0  0  0  0
  141.4834   71.3390  228.8039 H   0  0  0  0  0  0  0  0  0  0  0  0
  141.3562   72.6836  226.7481 H   0  0  0  0  0  0  0  0  0  0  0  0
  1  2  2  0
  2  3  1  0
  3  4  1  0
  4  5  1  0
  5  6  2  0
  5  7  1  0
  7  8  1  0
  8  9  1  0
  9 10  1  0
 10 11  1  0
 10 12  1  0
 12 13  1  0
 13 14  1  0
 14 15  2  0
 15 16  1  0
 16 17  2  0
 17 18  1  0
 18 19  1  0
 19 20  2  0
 20 21  1  0
 21 22  2  0
 22 23  1  0
 23 24  2  0
 18 25  2  0
  2 26  1  0
 26 27  2  0
 27 28  1  0
 28 29  2  0
 29 30  1  0
 30 31  2  0
 31 32  1  0
 31 33  1  0
 33 34  2  0
 34 35  1  0
 35 36  2  0
 12  7  1  0
 25 14  1  0
 36 26  1  0
 24 19  1  0
 35 29  1  0
  3 37  1  0
  4 38  1  0
  4 39  1  0
  8 40  1  0
  8 41  1  0
  9 42  1  0
  9 43  1  0
 10 44  1  1
 11 45  1  0
 12 46  1  6
 13 47  1  0
 13 48  1  0
 15 49  1  0
 16 50  1  0
 17 51  1  0
 20 52  1  0
 22 53  1  0
 23 54  1  0
 25 55  1  0
 27 56  1  0
 28 57  1  0
 30 58  1  0
 33 59  1  0
 34 60  1  0
M  END
>  <smiles>  (48) 
O=C(NCC(=O)N1CC[C@H](O)[C@H]1Cc1cccc(-c2cnccn2)c1)c1ccc2cc(F)ccc2n1

>  <score_type>  (48) 
oracle

>  <origin>  (48) 
autodockgpu

>  <m_score__min__energy>  (48) 
-10.08

>  <m_primary>  (48) 
energy

>  <rmsd>  (48) 
2.0701692821268147

>  <m_score__min__rmsd>  (48) 
2.0701692821268147

>  <meeko>  (48) 
{"free_energy": -8.66, "intermolecular_energy": -11.05, "internal_energy": -2.19, "cluster_size": 16, "cluster_id": 1, "rank_in_cluster": 15}

>  <energy>  (48) 
-7.85

>  <cluster_rmsd>  (48) 
0.0

>  <cluster>  (48) 
9

$$$$

     RDKit          3D

 60 64  0  0  0  0  0  0  0  0999 V2000
  140.7710   71.8230  221.2080 O   0  0  0  0  0  0  0  0  0  0  0  0
  140.2310   72.2990  222.2440 C   0  0  0  0  0  0  0  0  0  0  0  0
  139.6920   73.6170  222.3050 N   0  0  0  0  0  0  0  0  0  0  0  0
  139.7650   74.4740  221.0990 C   0  0  0  0  0  0  0  0  0  0  0  0
  141.0480   75.1740  221.0490 C   0  0  0  0  0  0  0  0  0  0  0  0
  141.1660   76.1950  221.8170 O   0  0  0  0  0  0  0  0  0  0  0  0
  142.1710   74.8690  220.2650 N   0  0  0  0  0  0  0  0  0  0  0  0
  143.1220   73.8140  220.6890 C   0  0  0  0  0  0  0  0  0  0  0  0
  143.7000   73.2400  219.4400 C   0  0  0  0  0  0  0  0  0  0  0  0
  143.3010   74.1540  218.3030 C   0  0  2  0  0  0  0  0  0  0  0  0
  144.4690   74.5050  217.6260 O   0  0  0  0  0  0  0  0  0  0  0  0
  142.7050   75.3470  219.0250 C   0  0  1  0  0  0  0  0  0  0  0  0
  141.7690   76.1250  218.1730 C   0  0  0  0  0  0  0  0  0  0  0  0
  141.9080   77.6020  218.3640 C   0  0  0  0  0  0  0  0  0  0  0  0
  142.0820   78.4730  217.3080 C   0  0  0  0  0  0  0  0  0  0  0  0
  142.2110   79.8360  217.4760 C   0  0  0  0  0  0  0  0  0  0  0  0
  142.1600   80.3190  218.7690 C   0  0  0  0  0  0  0  0  0  0  0  0
  141.9900   79.5150  219.8590 C   0  0  0  0  0  0  0  0  0  0  0  0
  141.9310   79.9920  221.2350 C   0  0  0  0  0  0  0  0  0  0  0  0
  142.1700   79.1790  222.3240 C   0  0  0  0  0  0  0  0  0  0  0  0
  142.1150   79.6250  223.5990 N   0  0  0  0  0  0  0  0  0  0  0  0
  141.8180   80.9050  223.8560 C   0  0  0  0  0  0  0  0  0  0  0  0
  141.5740   81.7440  222.7910 C   0  0  0  0  0  0  0  0  0  0  0  0
  141.6330   81.2890  221.5270 N   0  0  0  0  0  0  0  0  0  0  0  0
  141.8650   78.1570  219.6400 C   0  0  0  0  0  0  0  0  0  0  0  0
  140.1450   71.4620  223.4610 C   0  0  0  0  0  0  0  0  0  0  0  0
  139.5690   70.2090  223.3920 C   0  0  0  0  0  0  0  0  0  0  0  0
  139.4510   69.3690  224.4770 C   0  0  0  0  0  0  0  0  0  0  0  0
  139.9440   69.8330  225.6820 C   0  0  0  0  0  0  0  0  0  0  0  0
  139.8420   69.0160  226.7950 C   0  0  0  0  0  0  0  0  0  0  0  0
  140.3220   69.4410  228.0150 C   0  0  0  0  0  0  0  0  0  0  0  0
  140.2130   68.6270  229.0910 F   0  0  0  0  0  0  0  0  0  0  0  0
  140.8980   70.6990  228.0760 C   0  0  0  0  0  0  0  0  0  0  0  0
  140.9980   71.5130  226.9640 C   0  0  0  0  0  0  0  0  0  0  0  0
  140.5150   71.0890  225.7240 C   0  0  0  0  0  0  0  0  0  0  0  0
  140.6170   71.8890  224.6470 N   0  0  0  0  0  0  0  0  0  0  0  0
  139.2570   73.9580  223.1860 H   0  0  0  0  0  0  0  0  0  0  0  0
  139.6589   73.8469  220.2015 H   0  0  0  0  0  0  0  0  0  0  0  0
  138.9543   75.2164  221.1388 H   0  0  0  0  0  0  0  0  0  0  0  0
  143.9181   74.2477  221.3120 H   0  0  0  0  0  0  0  0  0  0  0  0
  142.6180   73.0403  221.2869 H   0  0  0  0  0  0  0  0  0  0  0  0
  144.7961   73.1926  219.5188 H   0  0  0  0  0  0  0  0  0  0  0  0
  143.3276   72.2190  219.2701 H   0  0  0  0  0  0  0  0  0  0  0  0
  142.6018   73.7255  217.5698 H   0  0  0  0  0  0  0  0  0  0  0  0
  144.7980   75.4070  217.8670 H   0  0  0  0  0  0  0  0  0  0  0  0
  143.4736   76.0991  219.2566 H   0  0  0  0  0  0  0  0  0  0  0  0
  141.9711   75.8858  217.1185 H   0  0  0  0  0  0  0  0  0  0  0  0
  140.7452   75.8469  218.4637 H   0  0  0  0  0  0  0  0  0  0  0  0
  142.1195   78.0626  216.2881 H   0  0  0  0  0  0  0  0  0  0  0  0
  142.3486   80.5094  216.6171 H   0  0  0  0  0  0  0  0  0  0  0  0
  142.2612   81.4027  218.9279 H   0  0  0  0  0  0  0  0  0  0  0  0
  142.4161   78.1216  222.1469 H   0  0  0  0  0  0  0  0  0  0  0  0
  141.7701   81.2768  224.8902 H   0  0  0  0  0  0  0  0  0  0  0  0
  141.3277   82.7998  222.9770 H   0  0  0  0  0  0  0  0  0  0  0  0
  141.7266   77.4906  220.5042 H   0  0  0  0  0  0  0  0  0  0  0  0
  139.1847   69.8641  222.4207 H   0  0  0  0  0  0  0  0  0  0  0  0
  138.9864   68.3758  224.3888 H   0  0  0  0  0  0  0  0  0  0  0  0
  139.3760   68.0237  226.7052 H   0  0  0  0  0  0  0  0  0  0  0  0
  141.2876   71.0611  229.0388 H   0  0  0  0  0  0  0  0  0  0  0  0
  141.4630   72.5056  227.0563 H   0  0  0  0  0  0  0  0  0  0  0  0
  1  2  2  0
  2  3  1  0
  3  4  1  0
  4  5  1  0
  5  6  2  0
  5  7  1  0
  7  8  1  0
  8  9  1  0
  9 10  1  0
 10 11  1  0
 10 12  1  0
 12 13  1  0
 13 14  1  0
 14 15  2  0
 15 16  1  0
 16 17  2  0
 17 18  1  0
 18 19  1  0
 19 20  2  0
 20 21  1  0
 21 22  2  0
 22 23  1  0
 23 24  2  0
 18 25  2  0
  2 26  1  0
 26 27  2  0
 27 28  1  0
 28 29  2  0
 29 30  1  0
 30 31  2  0
 31 32  1  0
 31 33  1  0
 33 34  2  0
 34 35  1  0
 35 36  2  0
 12  7  1  0
 25 14  1  0
 36 26  1  0
 24 19  1  0
 35 29  1  0
  3 37  1  0
  4 38  1  0
  4 39  1  0
  8 40  1  0
  8 41  1  0
  9 42  1  0
  9 43  1  0
 10 44  1  6
 11 45  1  0
 12 46  1  1
 13 47  1  0
 13 48  1  0
 15 49  1  0
 16 50  1  0
 17 51  1  0
 20 52  1  0
 22 53  1  0
 23 54  1  0
 25 55  1  0
 27 56  1  0
 28 57  1  0
 30 58  1  0
 33 59  1  0
 34 60  1  0
M  END
>  <smiles>  (49) 
O=C(NCC(=O)N1CC[C@H](O)[C@H]1Cc1cccc(-c2cnccn2)c1)c1ccc2cc(F)ccc2n1

>  <score_type>  (49) 
oracle

>  <origin>  (49) 
autodockgpu

>  <m_score__min__energy>  (49) 
-10.08

>  <m_primary>  (49) 
energy

>  <rmsd>  (49) 
2.4759320433053205

>  <m_score__min__rmsd>  (49) 
2.4759320433053205

>  <meeko>  (49) 
{"free_energy": -9.41, "intermolecular_energy": -11.79, "internal_energy": -2.01, "cluster_size": 9, "cluster_id": 2, "rank_in_cluster": 5}

>  <energy>  (49) 
-6.44

>  <cluster_rmsd>  (49) 
0.0

>  <cluster>  (49) 
10

$$$$

     RDKit          3D

 60 64  0  0  0  0  0  0  0  0999 V2000
  140.4190   71.7880  221.1380 O   0  0  0  0  0  0  0  0  0  0  0  0
  139.7700   72.1570  222.1550 C   0  0  0  0  0  0  0  0  0  0  0  0
  138.9350   73.3120  222.1660 N   0  0  0  0  0  0  0  0  0  0  0  0
  138.8180   74.1210  220.9310 C   0  0  0  0  0  0  0  0  0  0  0  0
  139.7980   75.2060  220.9390 C   0  0  0  0  0  0  0  0  0  0  0  0
  139.6700   76.0780  221.8720 O   0  0  0  0  0  0  0  0  0  0  0  0
  140.8640   75.4170  220.0510 N   0  0  0  0  0  0  0  0  0  0  0  0
  140.8380   76.5480  219.0950 C   0  0  0  0  0  0  0  0  0  0  0  0
  142.2580   76.9380  218.8620 C   0  0  0  0  0  0  0  0  0  0  0  0
  143.1230   75.8490  219.4590 C   0  0  2  0  0  0  0  0  0  0  0  0
  144.0040   75.4290  218.4620 O   0  0  0  0  0  0  0  0  0  0  0  0
  142.1150   74.7670  219.7930 C   0  0  1  0  0  0  0  0  0  0  0  0
  142.5960   73.8430  220.8520 C   0  0  0  0  0  0  0  0  0  0  0  0
  143.7990   73.0600  220.4320 C   0  0  0  0  0  0  0  0  0  0  0  0
  145.0480   73.6310  220.3030 C   0  0  0  0  0  0  0  0  0  0  0  0
  146.1620   72.9150  219.9150 C   0  0  0  0  0  0  0  0  0  0  0  0
  145.9870   71.5720  219.6510 C   0  0  0  0  0  0  0  0  0  0  0  0
  144.7800   70.9420  219.7580 C   0  0  0  0  0  0  0  0  0  0  0  0
  144.5610   69.5260  219.4880 C   0  0  0  0  0  0  0  0  0  0  0  0
  143.3720   69.0300  218.9960 C   0  0  0  0  0  0  0  0  0  0  0  0
  143.1730   67.7150  218.7460 N   0  0  0  0  0  0  0  0  0  0  0  0
  144.1490   66.8280  218.9750 C   0  0  0  0  0  0  0  0  0  0  0  0
  145.3490   67.2900  219.4670 C   0  0  0  0  0  0  0  0  0  0  0  0
  145.5350   68.6000  219.7100 N   0  0  0  0  0  0  0  0  0  0  0  0
  143.6950   71.7000  220.1500 C   0  0  0  0  0  0  0  0  0  0  0  0
  139.8710   71.3660  223.3990 C   0  0  0  0  0  0  0  0  0  0  0  0
  139.4450   70.0510  223.4130 C   0  0  0  0  0  0  0  0  0  0  0  0
  139.5050   69.2470  224.5290 C   0  0  0  0  0  0  0  0  0  0  0  0
  140.0210   69.8150  225.6800 C   0  0  0  0  0  0  0  0  0  0  0  0
  140.0960   69.0360  226.8220 C   0  0  0  0  0  0  0  0  0  0  0  0
  140.6050   69.5640  227.9900 C   0  0  0  0  0  0  0  0  0  0  0  0
  140.6690   68.7860  229.0960 F   0  0  0  0  0  0  0  0  0  0  0  0
  141.0290   70.8810  227.9680 C   0  0  0  0  0  0  0  0  0  0  0  0
  140.9520   71.6570  226.8270 C   0  0  0  0  0  0  0  0  0  0  0  0
  140.4390   71.1300  225.6400 C   0  0  0  0  0  0  0  0  0  0  0  0
  140.3690   71.8920  224.5340 N   0  0  0  0  0  0  0  0  0  0  0  0
  138.4220   73.5700  223.0330 H   0  0  0  0  0  0  0  0  0  0  0  0
  138.9970   73.4771  220.0573 H   0  0  0  0  0  0  0  0  0  0  0  0
  137.8075   74.5526  220.8810 H   0  0  0  0  0  0  0  0  0  0  0  0
  140.3696   76.2360  218.1499 H   0  0  0  0  0  0  0  0  0  0  0  0
  140.2539   77.3912  219.4922 H   0  0  0  0  0  0  0  0  0  0  0  0
  142.4529   77.0255  217.7830 H   0  0  0  0  0  0  0  0  0  0  0  0
  142.4778   77.9108  219.3262 H   0  0  0  0  0  0  0  0  0  0  0  0
  143.7199   76.1403  220.3359 H   0  0  0  0  0  0  0  0  0  0  0  0
  144.5110   76.1760  218.0570 H   0  0  0  0  0  0  0  0  0  0  0  0
  141.9692   74.0804  218.9460 H   0  0  0  0  0  0  0  0  0  0  0  0
  142.8540   74.4334  221.7436 H   0  0  0  0  0  0  0  0  0  0  0  0
  141.7882   73.1256  221.0590 H   0  0  0  0  0  0  0  0  0  0  0  0
  145.1609   74.7037  220.5188 H   0  0  0  0  0  0  0  0  0  0  0  0
  147.1475   73.3944  219.8202 H   0  0  0  0  0  0  0  0  0  0  0  0
  146.8609   70.9809  219.3397 H   0  0  0  0  0  0  0  0  0  0  0  0
  142.5499   69.7336  218.7982 H   0  0  0  0  0  0  0  0  0  0  0  0
  143.9962   65.7572  218.7752 H   0  0  0  0  0  0  0  0  0  0  0  0
  146.1654   66.5795  219.6637 H   0  0  0  0  0  0  0  0  0  0  0  0
  142.7133   71.2126  220.2430 H   0  0  0  0  0  0  0  0  0  0  0  0
  139.0370   69.6250  222.4845 H   0  0  0  0  0  0  0  0  0  0  0  0
  139.1592   68.2030  224.5065 H   0  0  0  0  0  0  0  0  0  0  0  0
  139.7485   67.9926  226.7977 H   0  0  0  0  0  0  0  0  0  0  0  0
  141.4401   71.3240  228.8871 H   0  0  0  0  0  0  0  0  0  0  0  0
  141.2984   72.7007  226.8542 H   0  0  0  0  0  0  0  0  0  0  0  0
  1  2  2  0
  2  3  1  0
  3  4  1  0
  4  5  1  0
  5  6  2  0
  5  7  1  0
  7  8  1  0
  8  9  1  0
  9 10  1  0
 10 11  1  0
 10 12  1  0
 12 13  1  0
 13 14  1  0
 14 15  2  0
 15 16  1  0
 16 17  2  0
 17 18  1  0
 18 19  1  0
 19 20  2  0
 20 21  1  0
 21 22  2  0
 22 23  1  0
 23 24  2  0
 18 25  2  0
  2 26  1  0
 26 27  2  0
 27 28  1  0
 28 29  2  0
 29 30  1  0
 30 31  2  0
 31 32  1  0
 31 33  1  0
 33 34  2  0
 34 35  1  0
 35 36  2  0
 12  7  1  0
 25 14  1  0
 36 26  1  0
 24 19  1  0
 35 29  1  0
  3 37  1  0
  4 38  1  0
  4 39  1  0
  8 40  1  0
  8 41  1  0
  9 42  1  0
  9 43  1  0
 10 44  1  1
 11 45  1  0
 12 46  1  6
 13 47  1  0
 13 48  1  0
 15 49  1  0
 16 50  1  0
 17 51  1  0
 20 52  1  0
 22 53  1  0
 23 54  1  0
 25 55  1  0
 27 56  1  0
 28 57  1  0
 30 58  1  0
 33 59  1  0
 34 60  1  0
M  END
>  <smiles>  (50) 
O=C(NCC(=O)N1CC[C@H](O)[C@H]1Cc1cccc(-c2cnccn2)c1)c1ccc2cc(F)ccc2n1

>  <score_type>  (50) 
oracle

>  <origin>  (50) 
autodockgpu

>  <m_score__min__energy>  (50) 
-10.08

>  <m_primary>  (50) 
energy

>  <rmsd>  (50) 
2.1492481116395057

>  <m_score__min__rmsd>  (50) 
2.1492481116395057

>  <meeko>  (50) 
{"free_energy": -9.54, "intermolecular_energy": -11.93, "internal_energy": -1.86, "cluster_size": 5, "cluster_id": 3, "rank_in_cluster": 1}

>  <energy>  (50) 
-6.34

>  <cluster_rmsd>  (50) 
0.0

>  <cluster>  (50) 
11

$$$$
