@<TRIPOS>MOLECULE
*****
 43 46 0 0 0
SMALL
GASTEIGER

@<TRIPOS>ATOM
      1 O         140.2110   71.9010  225.0070 O.2     1  UNL1       -0.2669
      2 C         139.6240   70.7940  224.9600 C.ar    1  UNL1        0.2623
      3 C         139.9260   69.9150  226.0070 C.ar    1  UNL1        0.0649
      4 C         140.8180   70.2800  227.0090 C.ar    1  UNL1       -0.0474
      5 C         141.0710   69.3640  228.0130 C.ar    1  UNL1       -0.0609
      6 C         140.4810   68.1160  228.0600 C.ar    1  UNL1       -0.0597
      7 C         139.5980   67.7610  227.0650 C.ar    1  UNL1       -0.0355
      8 C         139.3400   68.6680  226.0610 C.ar    1  UNL1        0.0785
      9 N         138.4850   68.3630  225.0680 N.ar    1  UNL1       -0.2293
     10 C         138.2120   69.2270  224.0730 C.ar    1  UNL1        0.1371
     11 C         137.2770   68.7460  223.0430 C.2     1  UNL1       -0.0184
     12 C         135.9870   68.7400  223.2650 C.2     1  UNL1       -0.0497
     13 C         135.3320   69.3450  224.4120 C.ar    1  UNL1       -0.0068
     14 C         135.3050   70.7280  224.5890 C.ar    1  UNL1       -0.0517
     15 C         134.6830   71.3110  225.6770 C.ar    1  UNL1       -0.0430
     16 C         134.0640   70.5280  226.6280 C.ar    1  UNL1        0.0276
     17 N         134.0900   69.1930  226.4570 N.ar    1  UNL1       -0.2627
     18 C         134.6940   68.6120  225.3990 C.ar    1  UNL1        0.0347
     19 N         138.7570   70.4520  223.9790 N.ar    1  UNL1       -0.2883
     20 C         138.4470   71.3970  222.9330 C.3     1  UNL1        0.0531
     21 C         139.6370   72.0010  222.2900 C.ar    1  UNL1       -0.0275
     22 C         140.7180   71.3040  221.8210 C.ar    1  UNL1       -0.0555
     23 C         141.8150   71.9290  221.2280 C.ar    1  UNL1       -0.0431
     24 C         141.8590   73.2870  221.0870 C.ar    1  UNL1        0.0410
     25 CL        143.2300   74.0680  220.3450 Cl      1  UNL1       -0.0835
     26 C         140.7830   74.0120  221.5490 C.ar    1  UNL1       -0.0431
     27 C         139.6860   73.3870  222.1430 C.ar    1  UNL1       -0.0555
     28 H         141.3065   71.2656  227.0031 H       1  UNL1        0.0626
     29 H         141.7748   69.6419  228.8114 H       1  UNL1        0.0618
     30 H         140.7125   67.4180  228.8780 H       1  UNL1        0.0618
     31 H         139.1097   66.7754  227.0717 H       1  UNL1        0.0639
     32 H         137.6657   68.3884  222.0781 H       1  UNL1        0.0654
     33 H         135.3481   68.2369  222.5242 H       1  UNL1        0.0625
     34 H         135.7920   71.3725  223.8424 H       1  UNL1        0.0624
     35 H         134.6819   72.4057  225.7847 H       1  UNL1        0.0633
     36 H         133.5651   70.9795  227.4982 H       1  UNL1        0.0829
     37 H         134.6790   67.5151  225.3175 H       1  UNL1        0.0835
     38 H         137.8634   70.8765  222.1594 H       1  UNL1        0.0543
     39 H         137.8899   72.2199  223.4046 H       1  UNL1        0.0543
     40 H         140.7216   70.2081  221.9155 H       1  UNL1        0.0621
     41 H         142.6571   71.3193  220.8686 H       1  UNL1        0.0632
     42 H         140.7886   75.1073  221.4475 H       1  UNL1        0.0632
     43 H         138.8448   73.9984  222.5018 H       1  UNL1        0.0621
@<TRIPOS>BOND
     1     1     2    2
     2     2     3   ar
     3     3     4   ar
     4     4     5   ar
     5     5     6   ar
     6     6     7   ar
     7     7     8   ar
     8     8     9   ar
     9     9    10   ar
    10    10    11    1
    11    11    12    2
    12    12    13    1
    13    13    14   ar
    14    14    15   ar
    15    15    16   ar
    16    16    17   ar
    17    17    18   ar
    18    10    19   ar
    19    19    20    1
    20    20    21    1
    21    21    22   ar
    22    22    23   ar
    23    23    24   ar
    24    24    25    1
    25    24    26   ar
    26    26    27   ar
    27    19     2   ar
    28    27    21   ar
    29     8     3   ar
    30    18    13   ar
    31     4    28    1
    32     5    29    1
    33     6    30    1
    34     7    31    1
    35    11    32    1
    36    12    33    1
    37    14    34    1
    38    15    35    1
    39    16    36    1
    40    18    37    1
    41    20    38    1
    42    20    39    1
    43    22    40    1
    44    23    41    1
    45    26    42    1
    46    27    43    1
