
 63 67  0  0  0  0  0  0  0  0999 V2000
  141.0530   69.9400  228.2760 C   0  0  0  0  0  0  0  0  0  0  0  0
  140.9720   71.1140  227.5910 C   0  0  0  0  0  0  0  0  0  0  0  0
  140.3540   71.1640  226.3710 C   0  0  0  0  0  0  0  0  0  0  0  0
  139.7960   70.0320  225.8020 C   0  0  0  0  0  0  0  0  0  0  0  0
  139.1370   70.1510  224.4720 C   0  0  0  0  0  0  0  0  0  0  0  0
  140.0430   71.0460  223.6310 C   0  0  0  0  0  0  0  0  0  0  0  0
  139.2900   71.4590  222.4000 C   0  0  0  0  0  0  0  0  0  0  0  0
  139.0700   72.8890  222.4030 N   0  0  0  0  0  0  0  0  0  0  0  0
  140.1580   73.7010  221.9460 C   0  0  0  0  0  0  0  0  0  0  0  0
  141.2290   73.0880  221.4540 N   0  0  0  0  0  0  0  0  0  0  0  0
  142.2460   73.8460  221.0280 C   0  0  0  0  0  0  0  0  0  0  0  0
  143.4050   73.2200  220.4940 N   0  0  0  0  0  0  0  0  0  0  0  0
  144.5820   74.0130  220.1450 C   0  0  0  0  0  0  0  0  0  0  0  0
  145.7820   73.1960  220.5790 C   0  0  0  0  0  0  0  0  0  0  0  0
  145.8940   72.0420  219.7170 N   0  0  0  0  0  0  0  0  0  0  0  0
  144.6090   71.5600  219.2740 C   0  0  0  0  0  0  0  0  0  0  0  0
  143.4980   71.7950  220.2640 C   0  0  0  0  0  0  0  0  0  0  0  0
  142.1930   75.1840  221.0920 N   0  0  0  0  0  0  0  0  0  0  0  0
  141.1160   75.8360  221.5890 C   0  0  0  0  0  0  0  0  0  0  0  0
  141.0530   77.2610  221.6610 N   0  0  0  0  0  0  0  0  0  0  0  0
  140.7210   77.8760  222.9310 C   0  0  0  0  0  0  0  0  0  0  0  0
  141.5460   79.1110  223.2150 C   0  0  0  0  0  0  0  0  0  0  0  0
  141.4880   79.9670  222.0010 C   0  0  0  0  0  0  0  0  0  0  0  0
  141.5360   81.3400  222.1290 C   0  0  0  0  0  0  0  0  0  0  0  0
  141.4840   82.1800  221.0260 C   0  0  0  0  0  0  0  0  0  0  0  0
  141.3820   81.6580  219.7400 C   0  0  0  0  0  0  0  0  0  0  0  0
  141.3330   80.2920  219.6040 C   0  0  0  0  0  0  0  0  0  0  0  0
  141.3860   79.4590  220.7220 C   0  0  0  0  0  0  0  0  0  0  0  0
  141.3250   77.9990  220.4550 C   0  0  0  0  0  0  0  0  0  0  0  0
  140.0930   75.0600  222.0160 N   0  0  0  0  0  0  0  0  0  0  0  0
  139.8770   68.8420  226.4960 C   0  0  0  0  0  0  0  0  0  0  0  0
  140.5030   68.8000  227.7260 C   0  0  0  0  0  0  0  0  0  0  0  0
  141.5509   69.9007  229.2561 H   0  0  0  0  0  0  0  0  0  0  0  0
  141.4063   72.0285  228.0212 H   0  0  0  0  0  0  0  0  0  0  0  0
  140.2996   72.1216  225.8324 H   0  0  0  0  0  0  0  0  0  0  0  0
  139.0383   69.1602  224.0045 H   0  0  0  0  0  0  0  0  0  0  0  0
  138.1249   70.5726  224.5606 H   0  0  0  0  0  0  0  0  0  0  0  0
  140.3258   71.9374  224.2101 H   0  0  0  0  0  0  0  0  0  0  0  0
  140.9569   70.5018  223.3504 H   0  0  0  0  0  0  0  0  0  0  0  0
  139.8724   71.1832  221.5085 H   0  0  0  0  0  0  0  0  0  0  0  0
  138.3166   70.9469  222.3869 H   0  0  0  0  0  0  0  0  0  0  0  0
  138.2130   73.3650  222.7000 H   0  0  0  0  0  0  0  0  0  0  0  0
  144.6140   74.1919  219.0601 H   0  0  0  0  0  0  0  0  0  0  0  0
  144.5652   74.9961  220.6381 H   0  0  0  0  0  0  0  0  0  0  0  0
  146.6935   73.8067  220.5000 H   0  0  0  0  0  0  0  0  0  0  0  0
  145.6571   72.8728  221.6230 H   0  0  0  0  0  0  0  0  0  0  0  0
  146.5000   71.3020  220.1440 H   0  0  0  0  0  0  0  0  0  0  0  0
  144.3512   72.0720  218.3352 H   0  0  0  0  0  0  0  0  0  0  0  0
  144.7010   70.4712  219.1477 H   0  0  0  0  0  0  0  0  0  0  0  0
  142.5480   71.4189  219.8566 H   0  0  0  0  0  0  0  0  0  0  0  0
  143.7047   71.2663  221.2062 H   0  0  0  0  0  0  0  0  0  0  0  0
  139.6579   78.1583  222.9180 H   0  0  0  0  0  0  0  0  0  0  0  0
  140.9376   77.1427  223.7218 H   0  0  0  0  0  0  0  0  0  0  0  0
  141.1301   79.6519  224.0778 H   0  0  0  0  0  0  0  0  0  0  0  0
  142.5853   78.8402  223.4526 H   0  0  0  0  0  0  0  0  0  0  0  0
  141.6178   81.7809  223.1335 H   0  0  0  0  0  0  0  0  0  0  0  0
  141.5238   83.2699  221.1695 H   0  0  0  0  0  0  0  0  0  0  0  0
  141.3419   82.3179  218.8609 H   0  0  0  0  0  0  0  0  0  0  0  0
  141.2509   79.8490  218.6005 H   0  0  0  0  0  0  0  0  0  0  0  0
  140.5265   77.8006  219.7249 H   0  0  0  0  0  0  0  0  0  0  0  0
  142.2996   77.6756  220.0606 H   0  0  0  0  0  0  0  0  0  0  0  0
  139.4425   67.9261  226.0690 H   0  0  0  0  0  0  0  0  0  0  0  0
  140.5640   67.8478  228.2733 H   0  0  0  0  0  0  0  0  0  0  0  0
  1  2  2  0
  2  3  1  0
  3  4  2  0
  4  5  1  0
  5  6  1  0
  6  7  1  0
  7  8  1  0
  8  9  1  0
  9 10  2  0
 10 11  1  0
 11 12  1  0
 12 13  1  0
 13 14  1  0
 14 15  1  0
 15 16  1  0
 16 17  1  0
 11 18  2  0
 18 19  1  0
 19 20  1  0
 20 21  1  0
 21 22  1  0
 22 23  1  0
 23 24  2  0
 24 25  1  0
 25 26  2  0
 26 27  1  0
 27 28  2  0
 28 29  1  0
 19 30  2  0
  4 31  1  0
 31 32  2  0
 32  1  1  0
 30  9  1  0
 17 12  1  0
 29 20  1  0
 28 23  1  0
  1 33  1  0
  2 34  1  0
  3 35  1  0
  5 36  1  0
  5 37  1  0
  6 38  1  0
  6 39  1  0
  7 40  1  0
  7 41  1  0
  8 42  1  0
 13 43  1  0
 13 44  1  0
 14 45  1  0
 14 46  1  0
 15 47  1  0
 16 48  1  0
 16 49  1  0
 17 50  1  0
 17 51  1  0
 21 52  1  0
 21 53  1  0
 22 54  1  0
 22 55  1  0
 24 56  1  0
 25 57  1  0
 26 58  1  0
 27 59  1  0
 29 60  1  0
 29 61  1  0
 31 62  1  0
 32 63  1  0
M  END
