
     RDKit          3D

 59 64  0  0  0  0  0  0  0  0999 V2000
  139.5980   69.8320  221.6150 O   0  0  0  0  0  0  0  0  0  0  0  0
  139.6130   70.9210  222.2770 C   0  0  0  0  0  0  0  0  0  0  0  0
  139.9400   70.8700  223.7120 C   0  0  0  0  0  0  0  0  0  0  0  0
  139.9280   69.7070  224.4940 C   0  0  0  0  0  0  0  0  0  0  0  0
  140.2960   70.0800  225.7690 C   0  0  0  0  0  0  0  0  0  0  0  0
  140.4690   69.3860  226.9720 C   0  0  0  0  0  0  0  0  0  0  0  0
  140.2300   68.0480  226.9280 F   0  0  0  0  0  0  0  0  0  0  0  0
  140.8540   70.0190  228.1220 C   0  0  0  0  0  0  0  0  0  0  0  0
  141.0890   71.3730  228.1350 C   0  0  0  0  0  0  0  0  0  0  0  0
  140.9220   72.0750  226.9510 C   0  0  0  0  0  0  0  0  0  0  0  0
  140.5300   71.4570  225.7720 C   0  0  0  0  0  0  0  0  0  0  0  0
  140.3010   71.8870  224.5080 N   0  0  0  0  0  0  0  0  0  0  0  0
  139.3220   72.1210  221.6040 N   0  0  0  0  0  0  0  0  0  0  0  0
  140.0020   72.7320  220.4690 C   0  0  0  0  0  0  0  0  0  0  0  0
  139.8480   74.2000  220.8330 C   0  0  2  0  0  0  0  0  0  0  0  0
  139.7830   75.0940  219.6140 C   0  0  0  0  0  0  0  0  0  0  0  0
  140.6120   76.2930  220.0570 C   0  0  0  0  0  0  0  0  0  0  0  0
  141.7240   75.6820  220.7560 N   0  0  0  0  0  0  0  0  0  0  0  0
  142.6840   75.1270  219.8550 C   0  0  0  0  0  0  0  0  0  0  0  0
  143.5340   74.0950  220.5410 C   0  0  0  0  0  0  0  0  0  0  0  0
  143.4700   72.7300  219.9560 C   0  0  0  0  0  0  0  0  0  0  0  0
  144.8350   72.1040  220.0690 C   0  0  0  0  0  0  0  0  0  0  0  0
  145.6810   73.1280  220.8250 C   0  0  0  0  0  0  0  0  0  0  0  0
  145.0090   74.4580  220.4860 C   0  0  0  0  0  0  0  0  0  0  0  0
  141.0640   74.6530  221.5540 C   0  0  0  0  0  0  0  0  0  0  0  0
  138.5740   74.3060  221.5440 C   0  0  0  0  0  0  0  0  0  0  0  0
  137.6690   75.3110  221.8310 C   0  0  0  0  0  0  0  0  0  0  0  0
  136.4850   75.0980  222.5020 C   0  0  0  0  0  0  0  0  0  0  0  0
  136.1680   73.8340  222.9140 C   0  0  0  0  0  0  0  0  0  0  0  0
  137.0500   72.8080  222.6440 C   0  0  0  0  0  0  0  0  0  0  0  0
  138.2520   73.0160  221.9670 C   0  0  0  0  0  0  0  0  0  0  0  0
  139.6738   68.6917  224.1554 H   0  0  0  0  0  0  0  0  0  0  0  0
  140.9770   69.4372  229.0474 H   0  0  0  0  0  0  0  0  0  0  0  0
  141.4004   71.8848  229.0575 H   0  0  0  0  0  0  0  0  0  0  0  0
  141.1066   73.1594  226.9461 H   0  0  0  0  0  0  0  0  0  0  0  0
  140.4050   72.8830  224.2250 H   0  0  0  0  0  0  0  0  0  0  0  0
  141.0591   72.4326  220.4162 H   0  0  0  0  0  0  0  0  0  0  0  0
  139.6024   72.4533  219.4828 H   0  0  0  0  0  0  0  0  0  0  0  0
  140.2267   74.6041  218.7347 H   0  0  0  0  0  0  0  0  0  0  0  0
  138.7587   75.3518  219.3068 H   0  0  0  0  0  0  0  0  0  0  0  0
  140.9611   76.8738  219.1905 H   0  0  0  0  0  0  0  0  0  0  0  0
  140.0476   77.0034  220.6789 H   0  0  0  0  0  0  0  0  0  0  0  0
  142.1562   74.6559  219.0127 H   0  0  0  0  0  0  0  0  0  0  0  0
  143.3370   75.9366  219.4969 H   0  0  0  0  0  0  0  0  0  0  0  0
  143.1184   74.0866  221.5594 H   0  0  0  0  0  0  0  0  0  0  0  0
  142.7356   72.1234  220.5062 H   0  0  0  0  0  0  0  0  0  0  0  0
  143.1631   72.7833  218.9010 H   0  0  0  0  0  0  0  0  0  0  0  0
  144.7812   71.1587  220.6289 H   0  0  0  0  0  0  0  0  0  0  0  0
  145.2613   71.8639  219.0838 H   0  0  0  0  0  0  0  0  0  0  0  0
  145.6548   72.9381  221.9082 H   0  0  0  0  0  0  0  0  0  0  0  0
  146.7443   73.0991  220.5446 H   0  0  0  0  0  0  0  0  0  0  0  0
  145.2575   75.2311  221.2280 H   0  0  0  0  0  0  0  0  0  0  0  0
  145.3247   74.8789  219.5200 H   0  0  0  0  0  0  0  0  0  0  0  0
  141.7465   73.8027  221.6996 H   0  0  0  0  0  0  0  0  0  0  0  0
  140.7871   75.0609  222.5373 H   0  0  0  0  0  0  0  0  0  0  0  0
  137.9070   76.3347  221.5064 H   0  0  0  0  0  0  0  0  0  0  0  0
  135.8020   75.9362  222.7041 H   0  0  0  0  0  0  0  0  0  0  0  0
  135.2278   73.6385  223.4505 H   0  0  0  0  0  0  0  0  0  0  0  0
  136.7965   71.7898  222.9742 H   0  0  0  0  0  0  0  0  0  0  0  0
  1  2  2  0
  2  3  1  0
  3  4  2  0
  4  5  1  0
  5  6  2  0
  6  7  1  0
  6  8  1  0
  8  9  2  0
  9 10  1  0
 10 11  2  0
 11 12  1  0
  2 13  1  0
 13 14  1  0
 15 14  1  6
 15 16  1  0
 16 17  1  0
 17 18  1  0
 18 19  1  0
 19 20  1  0
 20 21  1  0
 21 22  1  0
 22 23  1  0
 23 24  1  0
 18 25  1  0
 15 26  1  0
 26 27  2  0
 27 28  1  0
 28 29  2  0
 29 30  1  0
 30 31  2  0
 12  3  1  0
 31 13  1  0
 11  5  1  0
 25 15  1  0
 31 26  1  0
 24 20  1  0
  4 32  1  0
  8 33  1  0
  9 34  1  0
 10 35  1  0
 12 36  1  0
 14 37  1  0
 14 38  1  0
 16 39  1  0
 16 40  1  0
 17 41  1  0
 17 42  1  0
 19 43  1  0
 19 44  1  0
 20 45  1  0
 21 46  1  0
 21 47  1  0
 22 48  1  0
 22 49  1  0
 23 50  1  0
 23 51  1  0
 24 52  1  0
 24 53  1  0
 25 54  1  0
 25 55  1  0
 27 56  1  0
 28 57  1  0
 29 58  1  0
 30 59  1  0
M  END
>  <smiles>  (1) 
O=C(c1cc2c(F)cccc2[nH]1)N1C[C@@]2(CCN(CC3CCCC3)C2)c2ccccc21

>  <score_type>  (1) 
oracle

>  <origin>  (1) 
autodockgpu

>  <m_score__min__energy>  (1) 
-8.6600000000000001

>  <m_primary>  (1) 
energy

>  <rmsd>  (1) 
5.017395194803756

>  <m_score__min__rmsd>  (1) 
5.017395194803756

>  <meeko>  (1) 
{"free_energy": -8.01, "intermolecular_energy": -9.21, "internal_energy": -1.64, "cluster_size": 17, "cluster_id": 3, "rank_in_cluster": 7}

>  <energy>  (1) 
-8.66

>  <cluster_rmsd>  (1) 
0.0

>  <cluster>  (1) 
1

$$$$

     RDKit          3D

 59 64  0  0  0  0  0  0  0  0999 V2000
  139.9120   75.1660  222.3290 O   0  0  0  0  0  0  0  0  0  0  0  0
  140.8290   75.5760  221.5430 C   0  0  0  0  0  0  0  0  0  0  0  0
  141.8530   74.6180  221.0950 C   0  0  0  0  0  0  0  0  0  0  0  0
  141.6340   73.2480  220.8910 C   0  0  0  0  0  0  0  0  0  0  0  0
  142.8310   72.7110  220.4710 C   0  0  0  0  0  0  0  0  0  0  0  0
  143.2450   71.4230  220.1100 C   0  0  0  0  0  0  0  0  0  0  0  0
  142.2960   70.4520  220.1770 F   0  0  0  0  0  0  0  0  0  0  0  0
  144.5280   71.1610  219.7150 C   0  0  0  0  0  0  0  0  0  0  0  0
  145.4660   72.1640  219.6570 C   0  0  0  0  0  0  0  0  0  0  0  0
  145.0720   73.4450  220.0110 C   0  0  0  0  0  0  0  0  0  0  0  0
  143.7770   73.7380  220.4160 C   0  0  0  0  0  0  0  0  0  0  0  0
  143.1380   74.8680  220.8020 N   0  0  0  0  0  0  0  0  0  0  0  0
  140.8140   76.9220  221.1380 N   0  0  0  0  0  0  0  0  0  0  0  0
  140.3720   77.5020  219.8770 C   0  0  0  0  0  0  0  0  0  0  0  0
  141.3810   78.6330  219.7430 C   0  0  2  0  0  0  0  0  0  0  0  0
  140.8210   79.8200  218.9920 C   0  0  0  0  0  0  0  0  0  0  0  0
  142.0120   80.2450  218.1410 C   0  0  0  0  0  0  0  0  0  0  0  0
  142.5600   78.9820  217.6920 N   0  0  0  0  0  0  0  0  0  0  0  0
  141.7880   78.4050  216.6380 C   0  0  0  0  0  0  0  0  0  0  0  0
  142.2660   77.0180  216.3160 C   0  0  0  0  0  0  0  0  0  0  0  0
  143.7010   76.7590  216.6040 C   0  0  0  0  0  0  0  0  0  0  0  0
  143.8380   75.3380  217.0820 C   0  0  0  0  0  0  0  0  0  0  0  0
  142.4320   74.7460  216.9780 C   0  0  0  0  0  0  0  0  0  0  0  0
  141.5250   75.9670  217.1270 C   0  0  0  0  0  0  0  0  0  0  0  0
  142.5180   78.1740  218.9070 C   0  0  0  0  0  0  0  0  0  0  0  0
  141.6870   79.0610  221.1080 C   0  0  0  0  0  0  0  0  0  0  0  0
  142.2020   80.1940  221.7090 C   0  0  0  0  0  0  0  0  0  0  0  0
  142.3360   80.3370  223.0720 C   0  0  0  0  0  0  0  0  0  0  0  0
  141.9460   79.3160  223.8930 C   0  0  0  0  0  0  0  0  0  0  0  0
  141.4290   78.1700  223.3250 C   0  0  0  0  0  0  0  0  0  0  0  0
  141.2910   78.0170  221.9450 C   0  0  0  0  0  0  0  0  0  0  0  0
  140.6881   72.7062  221.0381 H   0  0  0  0  0  0  0  0  0  0  0  0
  144.8128   70.1346  219.4403 H   0  0  0  0  0  0  0  0  0  0  0  0
  146.4984   71.9564  219.3392 H   0  0  0  0  0  0  0  0  0  0  0  0
  145.8117   74.2581  219.9695 H   0  0  0  0  0  0  0  0  0  0  0  0
  143.6110   75.7930  220.8520 H   0  0  0  0  0  0  0  0  0  0  0  0
  140.4499   76.7841  219.0472 H   0  0  0  0  0  0  0  0  0  0  0  0
  139.3176   77.8145  219.8534 H   0  0  0  0  0  0  0  0  0  0  0  0
  139.9651   79.5292  218.3652 H   0  0  0  0  0  0  0  0  0  0  0  0
  140.4347   80.6166  219.6448 H   0  0  0  0  0  0  0  0  0  0  0  0
  141.6890   80.8609  217.2888 H   0  0  0  0  0  0  0  0  0  0  0  0
  142.7387   80.8616  218.6903 H   0  0  0  0  0  0  0  0  0  0  0  0
  140.7337   78.3589  216.9484 H   0  0  0  0  0  0  0  0  0  0  0  0
  141.8991   79.0306  215.7401 H   0  0  0  0  0  0  0  0  0  0  0  0
  142.0823   76.9514  215.2335 H   0  0  0  0  0  0  0  0  0  0  0  0
  144.2957   76.9030  215.6899 H   0  0  0  0  0  0  0  0  0  0  0  0
  144.0646   77.4548  217.3745 H   0  0  0  0  0  0  0  0  0  0  0  0
  144.5396   74.7815  216.4432 H   0  0  0  0  0  0  0  0  0  0  0  0
  144.2333   75.2841  218.1071 H   0  0  0  0  0  0  0  0  0  0  0  0
  142.2805   74.2591  216.0033 H   0  0  0  0  0  0  0  0  0  0  0  0
  142.2352   73.9689  217.7312 H   0  0  0  0  0  0  0  0  0  0  0  0
  140.5250   75.7742  216.7112 H   0  0  0  0  0  0  0  0  0  0  0  0
  141.3470   76.2601  218.1722 H   0  0  0  0  0  0  0  0  0  0  0  0
  142.3799   77.1151  218.6430 H   0  0  0  0  0  0  0  0  0  0  0  0
  143.4608   78.2831  219.4631 H   0  0  0  0  0  0  0  0  0  0  0  0
  142.5219   81.0258  221.0642 H   0  0  0  0  0  0  0  0  0  0  0  0
  142.7524   81.2629  223.4956 H   0  0  0  0  0  0  0  0  0  0  0  0
  142.0425   79.4064  224.9850 H   0  0  0  0  0  0  0  0  0  0  0  0
  141.1142   77.3472  223.9838 H   0  0  0  0  0  0  0  0  0  0  0  0
  1  2  2  0
  2  3  1  0
  3  4  2  0
  4  5  1  0
  5  6  2  0
  6  7  1  0
  6  8  1  0
  8  9  2  0
  9 10  1  0
 10 11  2  0
 11 12  1  0
  2 13  1  0
 13 14  1  0
 15 14  1  1
 15 16  1  0
 16 17  1  0
 17 18  1  0
 18 19  1  0
 19 20  1  0
 20 21  1  0
 21 22  1  0
 22 23  1  0
 23 24  1  0
 18 25  1  0
 15 26  1  0
 26 27  2  0
 27 28  1  0
 28 29  2  0
 29 30  1  0
 30 31  2  0
 12  3  1  0
 31 13  1  0
 11  5  1  0
 25 15  1  0
 31 26  1  0
 24 20  1  0
  4 32  1  0
  8 33  1  0
  9 34  1  0
 10 35  1  0
 12 36  1  0
 14 37  1  0
 14 38  1  0
 16 39  1  0
 16 40  1  0
 17 41  1  0
 17 42  1  0
 19 43  1  0
 19 44  1  0
 20 45  1  0
 21 46  1  0
 21 47  1  0
 22 48  1  0
 22 49  1  0
 23 50  1  0
 23 51  1  0
 24 52  1  0
 24 53  1  0
 25 54  1  0
 25 55  1  0
 27 56  1  0
 28 57  1  0
 29 58  1  0
 30 59  1  0
M  END
>  <smiles>  (2) 
O=C(c1cc2c(F)cccc2[nH]1)N1C[C@@]2(CCN(CC3CCCC3)C2)c2ccccc21

>  <score_type>  (2) 
oracle

>  <origin>  (2) 
autodockgpu

>  <m_score__min__energy>  (2) 
-8.6600000000000001

>  <m_primary>  (2) 
energy

>  <rmsd>  (2) 
5.8682446294961315

>  <m_score__min__rmsd>  (2) 
5.8682446294961315

>  <meeko>  (2) 
{"free_energy": -7.38, "intermolecular_energy": -8.58, "internal_energy": -2.11, "cluster_size": 6, "cluster_id": 5, "rank_in_cluster": 4}

>  <energy>  (2) 
-8.66

>  <cluster_rmsd>  (2) 
0.03

>  <cluster>  (2) 
1

$$$$

     RDKit          3D

 59 64  0  0  0  0  0  0  0  0999 V2000
  141.6630   71.7640  221.5820 O   0  0  0  0  0  0  0  0  0  0  0  0
  140.6240   72.0400  222.2690 C   0  0  0  0  0  0  0  0  0  0  0  0
  140.4210   71.3450  223.5510 C   0  0  0  0  0  0  0  0  0  0  0  0
  140.7070   71.8890  224.8110 C   0  0  0  0  0  0  0  0  0  0  0  0
  140.3720   70.9320  225.7430 C   0  0  0  0  0  0  0  0  0  0  0  0
  140.4210   70.8780  227.1410 C   0  0  0  0  0  0  0  0  0  0  0  0
  140.9010   71.9880  227.7640 F   0  0  0  0  0  0  0  0  0  0  0  0
  140.0110   69.7740  227.8370 C   0  0  0  0  0  0  0  0  0  0  0  0
  139.5310   68.6660  227.1800 C   0  0  0  0  0  0  0  0  0  0  0  0
  139.4760   68.7030  225.7960 C   0  0  0  0  0  0  0  0  0  0  0  0
  139.8870   69.8100  225.0660 C   0  0  0  0  0  0  0  0  0  0  0  0
  139.9360   70.1090  223.7460 N   0  0  0  0  0  0  0  0  0  0  0  0
  139.7250   73.0000  221.7710 N   0  0  0  0  0  0  0  0  0  0  0  0
  139.9760   74.1280  220.8840 C   0  0  0  0  0  0  0  0  0  0  0  0
  138.9960   75.1370  221.4630 C   0  0  2  0  0  0  0  0  0  0  0  0
  138.4780   76.1020  220.4200 C   0  0  0  0  0  0  0  0  0  0  0  0
  138.4540   77.4170  221.1910 C   0  0  0  0  0  0  0  0  0  0  0  0
  139.6880   77.3740  221.9480 N   0  0  0  0  0  0  0  0  0  0  0  0
  140.8260   77.6670  221.1360 C   0  0  0  0  0  0  0  0  0  0  0  0
  141.7240   78.6680  221.8080 C   0  0  0  0  0  0  0  0  0  0  0  0
  141.5590   80.0730  221.3530 C   0  0  0  0  0  0  0  0  0  0  0  0
  141.7600   80.9800  222.5380 C   0  0  0  0  0  0  0  0  0  0  0  0
  142.1370   80.0490  223.6910 C   0  0  0  0  0  0  0  0  0  0  0  0
  141.4750   78.7260  223.3060 C   0  0  0  0  0  0  0  0  0  0  0  0
  139.7050   76.0000  222.4400 C   0  0  0  0  0  0  0  0  0  0  0  0
  137.8640   74.3560  221.9620 C   0  0  0  0  0  0  0  0  0  0  0  0
  136.5370   74.5980  222.2640 C   0  0  0  0  0  0  0  0  0  0  0  0
  135.6630   73.6210  222.6850 C   0  0  0  0  0  0  0  0  0  0  0  0
  136.1110   72.3360  222.8180 C   0  0  0  0  0  0  0  0  0  0  0  0
  137.4300   72.0600  222.5260 C   0  0  0  0  0  0  0  0  0  0  0  0
  138.3220   73.0460  222.1000 C   0  0  0  0  0  0  0  0  0  0  0  0
  141.1196   72.8879  225.0158 H   0  0  0  0  0  0  0  0  0  0  0  0
  140.0661   69.7729  228.9356 H   0  0  0  0  0  0  0  0  0  0  0  0
  139.2004   67.7765  227.7364 H   0  0  0  0  0  0  0  0  0  0  0  0
  139.0931   67.8241  225.2566 H   0  0  0  0  0  0  0  0  0  0  0  0
  139.6290   69.4450  223.0060 H   0  0  0  0  0  0  0  0  0  0  0  0
  141.0156   74.4805  220.9549 H   0  0  0  0  0  0  0  0  0  0  0  0
  139.8454   73.9151  219.8127 H   0  0  0  0  0  0  0  0  0  0  0  0
  139.1555   76.1578  219.5552 H   0  0  0  0  0  0  0  0  0  0  0  0
  137.5033   75.8175  219.9969 H   0  0  0  0  0  0  0  0  0  0  0  0
  138.4407   78.2770  220.5053 H   0  0  0  0  0  0  0  0  0  0  0  0
  137.5615   77.5322  221.8235 H   0  0  0  0  0  0  0  0  0  0  0  0
  141.3902   76.7394  220.9592 H   0  0  0  0  0  0  0  0  0  0  0  0
  140.4768   78.0931  220.1839 H   0  0  0  0  0  0  0  0  0  0  0  0
  142.7266   78.3027  221.5407 H   0  0  0  0  0  0  0  0  0  0  0  0
  142.3047   80.3030  220.5778 H   0  0  0  0  0  0  0  0  0  0  0  0
  140.5542   80.2190  220.9299 H   0  0  0  0  0  0  0  0  0  0  0  0
  142.5690   81.6990  222.3415 H   0  0  0  0  0  0  0  0  0  0  0  0
  140.8601   81.5714  222.7624 H   0  0  0  0  0  0  0  0  0  0  0  0
  143.2287   79.9363  223.7656 H   0  0  0  0  0  0  0  0  0  0  0  0
  141.8099   80.4245  224.6718 H   0  0  0  0  0  0  0  0  0  0  0  0
  141.9483   77.8778  223.8223 H   0  0  0  0  0  0  0  0  0  0  0  0
  140.4113   78.6678  223.5799 H   0  0  0  0  0  0  0  0  0  0  0  0
  140.7450   75.6586  222.5493 H   0  0  0  0  0  0  0  0  0  0  0  0
  139.2068   75.9459  223.4192 H   0  0  0  0  0  0  0  0  0  0  0  0
  136.1591   75.6261  222.1626 H   0  0  0  0  0  0  0  0  0  0  0  0
  134.6161   73.8714  222.9118 H   0  0  0  0  0  0  0  0  0  0  0  0
  135.4320   71.5375  223.1516 H   0  0  0  0  0  0  0  0  0  0  0  0
  137.7922   71.0268  222.6324 H   0  0  0  0  0  0  0  0  0  0  0  0
  1  2  2  0
  2  3  1  0
  3  4  2  0
  4  5  1  0
  5  6  2  0
  6  7  1  0
  6  8  1  0
  8  9  2  0
  9 10  1  0
 10 11  2  0
 11 12  1  0
  2 13  1  0
 13 14  1  0
 15 14  1  6
 15 16  1  0
 16 17  1  0
 17 18  1  0
 18 19  1  0
 19 20  1  0
 20 21  1  0
 21 22  1  0
 22 23  1  0
 23 24  1  0
 18 25  1  0
 15 26  1  0
 26 27  2  0
 27 28  1  0
 28 29  2  0
 29 30  1  0
 30 31  2  0
 12  3  1  0
 31 13  1  0
 11  5  1  0
 25 15  1  0
 31 26  1  0
 24 20  1  0
  4 32  1  0
  8 33  1  0
  9 34  1  0
 10 35  1  0
 12 36  1  0
 14 37  1  0
 14 38  1  0
 16 39  1  0
 16 40  1  0
 17 41  1  0
 17 42  1  0
 19 43  1  0
 19 44  1  0
 20 45  1  0
 21 46  1  0
 21 47  1  0
 22 48  1  0
 22 49  1  0
 23 50  1  0
 23 51  1  0
 24 52  1  0
 24 53  1  0
 25 54  1  0
 25 55  1  0
 27 56  1  0
 28 57  1  0
 29 58  1  0
 30 59  1  0
M  END
>  <smiles>  (3) 
O=C(c1cc2c(F)cccc2[nH]1)N1C[C@@]2(CCN(CC3CCCC3)C2)c2ccccc21

>  <score_type>  (3) 
oracle

>  <origin>  (3) 
autodockgpu

>  <m_score__min__energy>  (3) 
-8.6600000000000001

>  <m_primary>  (3) 
energy

>  <rmsd>  (3) 
4.738444189812072

>  <m_score__min__rmsd>  (3) 
4.738444189812072

>  <meeko>  (3) 
{"free_energy": -8.17, "intermolecular_energy": -9.36, "internal_energy": -1.39, "cluster_size": 7, "cluster_id": 2, "rank_in_cluster": 1}

>  <energy>  (3) 
-8.66

>  <cluster_rmsd>  (3) 
0.02

>  <cluster>  (3) 
1

$$$$

     RDKit          3D

 59 64  0  0  0  0  0  0  0  0999 V2000
  137.8360   76.3390  222.8920 O   0  0  0  0  0  0  0  0  0  0  0  0
  139.0140   76.3720  222.4030 C   0  0  0  0  0  0  0  0  0  0  0  0
  139.8390   77.5690  222.6330 C   0  0  0  0  0  0  0  0  0  0  0  0
  139.3670   78.8880  222.5830 C   0  0  0  0  0  0  0  0  0  0  0  0
  140.4410   79.7060  222.8600 C   0  0  0  0  0  0  0  0  0  0  0  0
  140.6060   81.0930  222.9600 C   0  0  0  0  0  0  0  0  0  0  0  0
  139.4920   81.8430  222.7400 F   0  0  0  0  0  0  0  0  0  0  0  0
  141.8150   81.6570  223.2610 C   0  0  0  0  0  0  0  0  0  0  0  0
  142.9230   80.8730  223.4780 C   0  0  0  0  0  0  0  0  0  0  0  0
  142.7760   79.4980  223.3820 C   0  0  0  0  0  0  0  0  0  0  0  0
  141.5610   78.9010  223.0780 C   0  0  0  0  0  0  0  0  0  0  0  0
  141.1460   77.6200  222.9290 N   0  0  0  0  0  0  0  0  0  0  0  0
  139.4690   75.2610  221.6730 N   0  0  0  0  0  0  0  0  0  0  0  0
  138.8610   73.9460  221.5150 C   0  0  0  0  0  0  0  0  0  0  0  0
  140.1130   73.0840  221.4710 C   0  0  2  0  0  0  0  0  0  0  0  0
  139.9270   71.8370  220.6350 C   0  0  0  0  0  0  0  0  0  0  0  0
  140.6700   70.7920  221.4580 C   0  0  0  0  0  0  0  0  0  0  0  0
  140.2910   71.1160  222.8180 N   0  0  0  0  0  0  0  0  0  0  0  0
  138.9680   70.6750  223.1260 C   0  0  0  0  0  0  0  0  0  0  0  0
  138.8730   70.2120  224.5530 C   0  0  0  0  0  0  0  0  0  0  0  0
  138.8790   68.7380  224.7430 C   0  0  0  0  0  0  0  0  0  0  0  0
  139.6270   68.4290  226.0130 C   0  0  0  0  0  0  0  0  0  0  0  0
  139.9840   69.7910  226.6050 C   0  0  0  0  0  0  0  0  0  0  0  0
  140.0510   70.7010  225.3800 C   0  0  0  0  0  0  0  0  0  0  0  0
  140.4010   72.5720  222.8340 C   0  0  0  0  0  0  0  0  0  0  0  0
  141.1440   73.9060  220.8370 C   0  0  0  0  0  0  0  0  0  0  0  0
  142.3400   73.6810  220.1800 C   0  0  0  0  0  0  0  0  0  0  0  0
  143.1020   74.6850  219.6250 C   0  0  0  0  0  0  0  0  0  0  0  0
  142.6720   75.9790  219.7170 C   0  0  0  0  0  0  0  0  0  0  0  0
  141.4840   76.2390  220.3670 C   0  0  0  0  0  0  0  0  0  0  0  0
  140.7070   75.2270  220.9340 C   0  0  0  0  0  0  0  0  0  0  0  0
  138.3376   79.2084  222.3647 H   0  0  0  0  0  0  0  0  0  0  0  0
  141.9018   82.7514  223.3303 H   0  0  0  0  0  0  0  0  0  0  0  0
  143.8969   81.3232  223.7205 H   0  0  0  0  0  0  0  0  0  0  0  0
  143.6538   78.8574  223.5529 H   0  0  0  0  0  0  0  0  0  0  0  0
  141.7840   76.8050  223.0400 H   0  0  0  0  0  0  0  0  0  0  0  0
  138.2169   73.6881  222.3686 H   0  0  0  0  0  0  0  0  0  0  0  0
  138.1952   73.8433  220.6454 H   0  0  0  0  0  0  0  0  0  0  0  0
  138.8624   71.5808  220.5304 H   0  0  0  0  0  0  0  0  0  0  0  0
  140.2963   71.9347  219.6035 H   0  0  0  0  0  0  0  0  0  0  0  0
  140.3474   69.7752  221.1896 H   0  0  0  0  0  0  0  0  0  0  0  0
  141.7580   70.8074  221.2966 H   0  0  0  0  0  0  0  0  0  0  0  0
  138.2660   71.5075  222.9704 H   0  0  0  0  0  0  0  0  0  0  0  0
  138.7174   69.8312  222.4664 H   0  0  0  0  0  0  0  0  0  0  0  0
  137.9058   70.6279  224.8716 H   0  0  0  0  0  0  0  0  0  0  0  0
  137.8458   68.3686  224.8204 H   0  0  0  0  0  0  0  0  0  0  0  0
  139.3654   68.2471  223.8872 H   0  0  0  0  0  0  0  0  0  0  0  0
  138.9908   67.8607  226.7075 H   0  0  0  0  0  0  0  0  0  0  0  0
  140.5194   67.8135  225.8267 H   0  0  0  0  0  0  0  0  0  0  0  0
  139.2080   70.1312  227.3065 H   0  0  0  0  0  0  0  0  0  0  0  0
  140.9203   69.7770  227.1821 H   0  0  0  0  0  0  0  0  0  0  0  0
  139.9301   71.7576  225.6608 H   0  0  0  0  0  0  0  0  0  0  0  0
  141.0130   70.6563  224.8484 H   0  0  0  0  0  0  0  0  0  0  0  0
  139.6762   72.9905  223.5478 H   0  0  0  0  0  0  0  0  0  0  0  0
  141.4150   72.8688  223.1403 H   0  0  0  0  0  0  0  0  0  0  0  0
  142.7017   72.6455  220.0963 H   0  0  0  0  0  0  0  0  0  0  0  0
  144.0464   74.4480  219.1133 H   0  0  0  0  0  0  0  0  0  0  0  0
  143.2627   76.7979  219.2806 H   0  0  0  0  0  0  0  0  0  0  0  0
  141.1364   77.2800  220.4414 H   0  0  0  0  0  0  0  0  0  0  0  0
  1  2  2  0
  2  3  1  0
  3  4  2  0
  4  5  1  0
  5  6  2  0
  6  7  1  0
  6  8  1  0
  8  9  2  0
  9 10  1  0
 10 11  2  0
 11 12  1  0
  2 13  1  0
 13 14  1  0
 15 14  1  1
 15 16  1  0
 16 17  1  0
 17 18  1  0
 18 19  1  0
 19 20  1  0
 20 21  1  0
 21 22  1  0
 22 23  1  0
 23 24  1  0
 18 25  1  0
 15 26  1  0
 26 27  2  0
 27 28  1  0
 28 29  2  0
 29 30  1  0
 30 31  2  0
 12  3  1  0
 31 13  1  0
 11  5  1  0
 25 15  1  0
 31 26  1  0
 24 20  1  0
  4 32  1  0
  8 33  1  0
  9 34  1  0
 10 35  1  0
 12 36  1  0
 14 37  1  0
 14 38  1  0
 16 39  1  0
 16 40  1  0
 17 41  1  0
 17 42  1  0
 19 43  1  0
 19 44  1  0
 20 45  1  0
 21 46  1  0
 21 47  1  0
 22 48  1  0
 22 49  1  0
 23 50  1  0
 23 51  1  0
 24 52  1  0
 24 53  1  0
 25 54  1  0
 25 55  1  0
 27 56  1  0
 28 57  1  0
 29 58  1  0
 30 59  1  0
M  END
>  <smiles>  (4) 
O=C(c1cc2c(F)cccc2[nH]1)N1C[C@@]2(CCN(CC3CCCC3)C2)c2ccccc21

>  <score_type>  (4) 
oracle

>  <origin>  (4) 
autodockgpu

>  <m_score__min__energy>  (4) 
-8.6600000000000001

>  <m_primary>  (4) 
energy

>  <rmsd>  (4) 
7.601764259036649

>  <m_score__min__rmsd>  (4) 
7.601764259036649

>  <meeko>  (4) 
{"free_energy": -8.62, "intermolecular_energy": -9.82, "internal_energy": -1.25, "cluster_size": 19, "cluster_id": 1, "rank_in_cluster": 13}

>  <energy>  (4) 
-8.66

>  <cluster_rmsd>  (4) 
0.02

>  <cluster>  (4) 
1

$$$$

     RDKit          3D

 59 64  0  0  0  0  0  0  0  0999 V2000
  139.6990   69.7580  221.7460 O   0  0  0  0  0  0  0  0  0  0  0  0
  139.6580   70.8610  222.3850 C   0  0  0  0  0  0  0  0  0  0  0  0
  139.9750   70.8560  223.8220 C   0  0  0  0  0  0  0  0  0  0  0  0
  139.9730   69.7150  224.6380 C   0  0  0  0  0  0  0  0  0  0  0  0
  140.3270   70.1300  225.9030 C   0  0  0  0  0  0  0  0  0  0  0  0
  140.5010   69.4740  227.1280 C   0  0  0  0  0  0  0  0  0  0  0  0
  140.2780   68.1320  227.1210 F   0  0  0  0  0  0  0  0  0  0  0  0
  140.8710   70.1440  228.2610 C   0  0  0  0  0  0  0  0  0  0  0  0
  141.0890   71.5010  228.2360 C   0  0  0  0  0  0  0  0  0  0  0  0
  140.9210   72.1660  227.0310 C   0  0  0  0  0  0  0  0  0  0  0  0
  140.5450   71.5100  225.8680 C   0  0  0  0  0  0  0  0  0  0  0  0
  140.3200   71.9000  224.5900 N   0  0  0  0  0  0  0  0  0  0  0  0
  139.3170   72.0310  221.6840 N   0  0  0  0  0  0  0  0  0  0  0  0
  139.9670   72.6410  220.5310 C   0  0  0  0  0  0  0  0  0  0  0  0
  139.7550   74.1100  220.8600 C   0  0  2  0  0  0  0  0  0  0  0  0
  139.6490   74.9710  219.6210 C   0  0  0  0  0  0  0  0  0  0  0  0
  140.4300   76.2130  220.0310 C   0  0  0  0  0  0  0  0  0  0  0  0
  141.5690   75.6640  220.7390 N   0  0  0  0  0  0  0  0  0  0  0  0
  142.5470   75.1270  219.8470 C   0  0  0  0  0  0  0  0  0  0  0  0
  143.4220   74.1260  220.5470 C   0  0  0  0  0  0  0  0  0  0  0  0
  143.3560   72.7420  220.0090 C   0  0  0  0  0  0  0  0  0  0  0  0
  144.7280   72.1300  220.1100 C   0  0  0  0  0  0  0  0  0  0  0  0
  145.5830   73.1860  220.8110 C   0  0  0  0  0  0  0  0  0  0  0  0
  144.8920   74.4980  220.4440 C   0  0  0  0  0  0  0  0  0  0  0  0
  140.9540   74.6300  221.5650 C   0  0  0  0  0  0  0  0  0  0  0  0
  138.4800   74.1820  221.5740 C   0  0  0  0  0  0  0  0  0  0  0  0
  137.5360   75.1560  221.8420 C   0  0  0  0  0  0  0  0  0  0  0  0
  136.3650   74.9130  222.5230 C   0  0  0  0  0  0  0  0  0  0  0  0
  136.1000   73.6470  222.9670 C   0  0  0  0  0  0  0  0  0  0  0  0
  137.0210   72.6510  222.7180 C   0  0  0  0  0  0  0  0  0  0  0  0
  138.2120   72.8910  222.0300 C   0  0  0  0  0  0  0  0  0  0  0  0
  139.7347   68.6870  224.3276 H   0  0  0  0  0  0  0  0  0  0  0  0
  140.9957   69.5907  229.2035 H   0  0  0  0  0  0  0  0  0  0  0  0
  141.3879   72.0433  229.1451 H   0  0  0  0  0  0  0  0  0  0  0  0
  141.0919   73.2521  226.9960 H   0  0  0  0  0  0  0  0  0  0  0  0
  140.4130   72.8880  224.2790 H   0  0  0  0  0  0  0  0  0  0  0  0
  141.0352   72.3834  220.4801 H   0  0  0  0  0  0  0  0  0  0  0  0
  139.5750   72.3223  219.5539 H   0  0  0  0  0  0  0  0  0  0  0  0
  140.1089   74.4786  218.7515 H   0  0  0  0  0  0  0  0  0  0  0  0
  138.6138   75.1795  219.3129 H   0  0  0  0  0  0  0  0  0  0  0  0
  140.7517   76.7865  219.1492 H   0  0  0  0  0  0  0  0  0  0  0  0
  139.8397   76.9149  220.6384 H   0  0  0  0  0  0  0  0  0  0  0  0
  142.0357   74.6331  219.0076 H   0  0  0  0  0  0  0  0  0  0  0  0
  143.1787   75.9505  219.4825 H   0  0  0  0  0  0  0  0  0  0  0  0
  143.0312   74.1491  221.5750 H   0  0  0  0  0  0  0  0  0  0  0  0
  142.6397   72.1484  220.5961 H   0  0  0  0  0  0  0  0  0  0  0  0
  143.0244   72.7583  218.9603 H   0  0  0  0  0  0  0  0  0  0  0  0
  144.6953   71.2037  220.7024 H   0  0  0  0  0  0  0  0  0  0  0  0
  145.1328   71.8594  219.1236 H   0  0  0  0  0  0  0  0  0  0  0  0
  145.5841   73.0325  221.9002 H   0  0  0  0  0  0  0  0  0  0  0  0
  146.6395   73.1560  220.5063 H   0  0  0  0  0  0  0  0  0  0  0  0
  145.1517   75.2976  221.1533 H   0  0  0  0  0  0  0  0  0  0  0  0
  145.1808   74.8882  219.4569 H   0  0  0  0  0  0  0  0  0  0  0  0
  141.6709   73.8120  221.7293 H   0  0  0  0  0  0  0  0  0  0  0  0
  140.6637   75.0509  222.5389 H   0  0  0  0  0  0  0  0  0  0  0  0
  137.7314   76.1804  221.4920 H   0  0  0  0  0  0  0  0  0  0  0  0
  135.6500   75.7282  222.7081 H   0  0  0  0  0  0  0  0  0  0  0  0
  135.1702   73.4273  223.5122 H   0  0  0  0  0  0  0  0  0  0  0  0
  136.8098   71.6318  223.0739 H   0  0  0  0  0  0  0  0  0  0  0  0
  1  2  2  0
  2  3  1  0
  3  4  2  0
  4  5  1  0
  5  6  2  0
  6  7  1  0
  6  8  1  0
  8  9  2  0
  9 10  1  0
 10 11  2  0
 11 12  1  0
  2 13  1  0
 13 14  1  0
 15 14  1  6
 15 16  1  0
 16 17  1  0
 17 18  1  0
 18 19  1  0
 19 20  1  0
 20 21  1  0
 21 22  1  0
 22 23  1  0
 23 24  1  0
 18 25  1  0
 15 26  1  0
 26 27  2  0
 27 28  1  0
 28 29  2  0
 29 30  1  0
 30 31  2  0
 12  3  1  0
 31 13  1  0
 11  5  1  0
 25 15  1  0
 31 26  1  0
 24 20  1  0
  4 32  1  0
  8 33  1  0
  9 34  1  0
 10 35  1  0
 12 36  1  0
 14 37  1  0
 14 38  1  0
 16 39  1  0
 16 40  1  0
 17 41  1  0
 17 42  1  0
 19 43  1  0
 19 44  1  0
 20 45  1  0
 21 46  1  0
 21 47  1  0
 22 48  1  0
 22 49  1  0
 23 50  1  0
 23 51  1  0
 24 52  1  0
 24 53  1  0
 25 54  1  0
 25 55  1  0
 27 56  1  0
 28 57  1  0
 29 58  1  0
 30 59  1  0
M  END
>  <smiles>  (5) 
O=C(c1cc2c(F)cccc2[nH]1)N1C[C@@]2(CCN(CC3CCCC3)C2)c2ccccc21

>  <score_type>  (5) 
oracle

>  <origin>  (5) 
autodockgpu

>  <m_score__min__energy>  (5) 
-8.6600000000000001

>  <m_primary>  (5) 
energy

>  <rmsd>  (5) 
5.119205299082454

>  <m_score__min__rmsd>  (5) 
5.119205299082454

>  <meeko>  (5) 
{"free_energy": -7.98, "intermolecular_energy": -9.17, "internal_energy": -1.65, "cluster_size": 17, "cluster_id": 3, "rank_in_cluster": 11}

>  <energy>  (5) 
-8.65

>  <cluster_rmsd>  (5) 
0.05

>  <cluster>  (5) 
1

$$$$

     RDKit          3D

 59 64  0  0  0  0  0  0  0  0999 V2000
  139.5750   69.8500  221.6290 O   0  0  0  0  0  0  0  0  0  0  0  0
  139.5970   70.9380  222.2940 C   0  0  0  0  0  0  0  0  0  0  0  0
  139.9250   70.8810  223.7290 C   0  0  0  0  0  0  0  0  0  0  0  0
  139.9210   69.7140  224.5050 C   0  0  0  0  0  0  0  0  0  0  0  0
  140.2880   70.0830  225.7810 C   0  0  0  0  0  0  0  0  0  0  0  0
  140.4660   69.3840  226.9810 C   0  0  0  0  0  0  0  0  0  0  0  0
  140.2330   68.0450  226.9310 F   0  0  0  0  0  0  0  0  0  0  0  0
  140.8500   70.0130  228.1330 C   0  0  0  0  0  0  0  0  0  0  0  0
  141.0780   71.3690  228.1530 C   0  0  0  0  0  0  0  0  0  0  0  0
  140.9060   72.0750  226.9720 C   0  0  0  0  0  0  0  0  0  0  0  0
  140.5150   71.4610  225.7910 C   0  0  0  0  0  0  0  0  0  0  0  0
  140.2830   71.8960  224.5290 N   0  0  0  0  0  0  0  0  0  0  0  0
  139.3120   72.1410  221.6240 N   0  0  0  0  0  0  0  0  0  0  0  0
  139.9890   72.7480  220.4870 C   0  0  0  0  0  0  0  0  0  0  0  0
  139.8480   74.2170  220.8540 C   0  0  2  0  0  0  0  0  0  0  0  0
  139.7830   75.1130  219.6370 C   0  0  0  0  0  0  0  0  0  0  0  0
  140.6230   76.3050  220.0770 C   0  0  0  0  0  0  0  0  0  0  0  0
  141.7350   75.6850  220.7680 N   0  0  0  0  0  0  0  0  0  0  0  0
  142.6850   75.1250  219.8610 C   0  0  0  0  0  0  0  0  0  0  0  0
  143.5320   74.0860  220.5420 C   0  0  0  0  0  0  0  0  0  0  0  0
  143.4650   72.7250  219.9470 C   0  0  0  0  0  0  0  0  0  0  0  0
  144.8270   72.0940  220.0570 C   0  0  0  0  0  0  0  0  0  0  0  0
  145.6760   73.1110  220.8200 C   0  0  0  0  0  0  0  0  0  0  0  0
  145.0080   74.4450  220.4890 C   0  0  0  0  0  0  0  0  0  0  0  0
  141.0710   74.6600  221.5690 C   0  0  0  0  0  0  0  0  0  0  0  0
  138.5790   74.3320  221.5720 C   0  0  0  0  0  0  0  0  0  0  0  0
  137.6840   75.3430  221.8660 C   0  0  0  0  0  0  0  0  0  0  0  0
  136.5020   75.1380  222.5430 C   0  0  0  0  0  0  0  0  0  0  0  0
  136.1780   73.8750  222.9550 C   0  0  0  0  0  0  0  0  0  0  0  0
  137.0500   72.8430  222.6790 C   0  0  0  0  0  0  0  0  0  0  0  0
  138.2500   73.0430  221.9950 C   0  0  0  0  0  0  0  0  0  0  0  0
  139.6727   68.6989  224.1616 H   0  0  0  0  0  0  0  0  0  0  0  0
  140.9781   69.4270  229.0551 H   0  0  0  0  0  0  0  0  0  0  0  0
  141.3874   71.8781  229.0777 H   0  0  0  0  0  0  0  0  0  0  0  0
  141.0859   73.1602  226.9715 H   0  0  0  0  0  0  0  0  0  0  0  0
  140.3810   72.8940  224.2500 H   0  0  0  0  0  0  0  0  0  0  0  0
  141.0436   72.4409  220.4275 H   0  0  0  0  0  0  0  0  0  0  0  0
  139.5814   72.4737  219.5028 H   0  0  0  0  0  0  0  0  0  0  0  0
  140.2183   74.6211  218.7547 H   0  0  0  0  0  0  0  0  0  0  0  0
  138.7590   75.3787  219.3357 H   0  0  0  0  0  0  0  0  0  0  0  0
  140.9709   76.8849  219.2094 H   0  0  0  0  0  0  0  0  0  0  0  0
  140.0674   77.0181  220.7037 H   0  0  0  0  0  0  0  0  0  0  0  0
  142.1490   74.6584  219.0213 H   0  0  0  0  0  0  0  0  0  0  0  0
  143.3413   75.9303  219.4992 H   0  0  0  0  0  0  0  0  0  0  0  0
  143.1161   74.0724  221.5603 H   0  0  0  0  0  0  0  0  0  0  0  0
  142.7281   72.1167  220.4918 H   0  0  0  0  0  0  0  0  0  0  0  0
  143.1599   72.7870  218.8920 H   0  0  0  0  0  0  0  0  0  0  0  0
  144.7697   71.1455  220.6111 H   0  0  0  0  0  0  0  0  0  0  0  0
  145.2532   71.8583  219.0707 H   0  0  0  0  0  0  0  0  0  0  0  0
  145.6488   72.9144  221.9020 H   0  0  0  0  0  0  0  0  0  0  0  0
  146.7393   73.0807  220.5399 H   0  0  0  0  0  0  0  0  0  0  0  0
  145.2589   75.2129  221.2356 H   0  0  0  0  0  0  0  0  0  0  0  0
  145.3248   74.8707  219.5255 H   0  0  0  0  0  0  0  0  0  0  0  0
  141.7477   73.8044  221.7104 H   0  0  0  0  0  0  0  0  0  0  0  0
  140.8023   75.0692  222.5541 H   0  0  0  0  0  0  0  0  0  0  0  0
  137.9284   76.3655  221.5423 H   0  0  0  0  0  0  0  0  0  0  0  0
  135.8262   75.9809  222.7499 H   0  0  0  0  0  0  0  0  0  0  0  0
  135.2394   73.6858  223.4964 H   0  0  0  0  0  0  0  0  0  0  0  0
  136.7907   71.8264  223.0096 H   0  0  0  0  0  0  0  0  0  0  0  0
  1  2  2  0
  2  3  1  0
  3  4  2  0
  4  5  1  0
  5  6  2  0
  6  7  1  0
  6  8  1  0
  8  9  2  0
  9 10  1  0
 10 11  2  0
 11 12  1  0
  2 13  1  0
 13 14  1  0
 15 14  1  6
 15 16  1  0
 16 17  1  0
 17 18  1  0
 18 19  1  0
 19 20  1  0
 20 21  1  0
 21 22  1  0
 22 23  1  0
 23 24  1  0
 18 25  1  0
 15 26  1  0
 26 27  2  0
 27 28  1  0
 28 29  2  0
 29 30  1  0
 30 31  2  0
 12  3  1  0
 31 13  1  0
 11  5  1  0
 25 15  1  0
 31 26  1  0
 24 20  1  0
  4 32  1  0
  8 33  1  0
  9 34  1  0
 10 35  1  0
 12 36  1  0
 14 37  1  0
 14 38  1  0
 16 39  1  0
 16 40  1  0
 17 41  1  0
 17 42  1  0
 19 43  1  0
 19 44  1  0
 20 45  1  0
 21 46  1  0
 21 47  1  0
 22 48  1  0
 22 49  1  0
 23 50  1  0
 23 51  1  0
 24 52  1  0
 24 53  1  0
 25 54  1  0
 25 55  1  0
 27 56  1  0
 28 57  1  0
 29 58  1  0
 30 59  1  0
M  END
>  <smiles>  (6) 
O=C(c1cc2c(F)cccc2[nH]1)N1C[C@@]2(CCN(CC3CCCC3)C2)c2ccccc21

>  <score_type>  (6) 
oracle

>  <origin>  (6) 
autodockgpu

>  <m_score__min__energy>  (6) 
-8.6600000000000001

>  <m_primary>  (6) 
energy

>  <rmsd>  (6) 
5.019081014791353

>  <m_score__min__rmsd>  (6) 
5.019081014791353

>  <meeko>  (6) 
{"free_energy": -8.01, "intermolecular_energy": -9.21, "internal_energy": -1.64, "cluster_size": 17, "cluster_id": 3, "rank_in_cluster": 6}

>  <energy>  (6) 
-8.65

>  <cluster_rmsd>  (6) 
0.03

>  <cluster>  (6) 
1

$$$$

     RDKit          3D

 59 64  0  0  0  0  0  0  0  0999 V2000
  141.5620   71.7640  221.6340 O   0  0  0  0  0  0  0  0  0  0  0  0
  140.5590   72.0510  222.3680 C   0  0  0  0  0  0  0  0  0  0  0  0
  140.4000   71.3480  223.6520 C   0  0  0  0  0  0  0  0  0  0  0  0
  140.7120   71.8910  224.9060 C   0  0  0  0  0  0  0  0  0  0  0  0
  140.4160   70.9260  225.8430 C   0  0  0  0  0  0  0  0  0  0  0  0
  140.5040   70.8670  227.2390 C   0  0  0  0  0  0  0  0  0  0  0  0
  140.9850   71.9810  227.8530 F   0  0  0  0  0  0  0  0  0  0  0  0
  140.1280   69.7550  227.9410 C   0  0  0  0  0  0  0  0  0  0  0  0
  139.6450   68.6430  227.2920 C   0  0  0  0  0  0  0  0  0  0  0  0
  139.5530   68.6850  225.9100 C   0  0  0  0  0  0  0  0  0  0  0  0
  139.9280   69.8000  225.1740 C   0  0  0  0  0  0  0  0  0  0  0  0
  139.9380   70.1050  223.8540 N   0  0  0  0  0  0  0  0  0  0  0  0
  139.6550   73.0300  221.9170 N   0  0  0  0  0  0  0  0  0  0  0  0
  139.8930   74.1790  221.0530 C   0  0  0  0  0  0  0  0  0  0  0  0
  138.9350   75.1790  221.6820 C   0  0  2  0  0  0  0  0  0  0  0  0
  138.3990   76.1740  220.6770 C   0  0  0  0  0  0  0  0  0  0  0  0
  138.4040   77.4690  221.4810 C   0  0  0  0  0  0  0  0  0  0  0  0
  139.6570   77.3980  222.2060 N   0  0  0  0  0  0  0  0  0  0  0  0
  140.7760   77.7030  221.3740 C   0  0  0  0  0  0  0  0  0  0  0  0
  141.5760   78.8420  221.9410 C   0  0  0  0  0  0  0  0  0  0  0  0
  140.9560   80.1860  221.7970 C   0  0  0  0  0  0  0  0  0  0  0  0
  141.2900   80.9940  223.0230 C   0  0  0  0  0  0  0  0  0  0  0  0
  142.2060   80.0960  223.8540 C   0  0  0  0  0  0  0  0  0  0  0  0
  141.7870   78.6860  223.4390 C   0  0  0  0  0  0  0  0  0  0  0  0
  139.6750   76.0110  222.6620 C   0  0  0  0  0  0  0  0  0  0  0  0
  137.8100   74.3940  222.1890 C   0  0  0  0  0  0  0  0  0  0  0  0
  136.4930   74.6370  222.5310 C   0  0  0  0  0  0  0  0  0  0  0  0
  135.6220   73.6560  222.9490 C   0  0  0  0  0  0  0  0  0  0  0  0
  136.0640   72.3650  223.0370 C   0  0  0  0  0  0  0  0  0  0  0  0
  137.3730   72.0870  222.7050 C   0  0  0  0  0  0  0  0  0  0  0  0
  138.2610   73.0770  222.2830 C   0  0  0  0  0  0  0  0  0  0  0  0
  141.1157   72.8950  225.1037 H   0  0  0  0  0  0  0  0  0  0  0  0
  140.2130   69.7501  229.0377 H   0  0  0  0  0  0  0  0  0  0  0  0
  139.3408   67.7471  227.8531 H   0  0  0  0  0  0  0  0  0  0  0  0
  139.1688   67.8027  225.3772 H   0  0  0  0  0  0  0  0  0  0  0  0
  139.6200   69.4400  223.1200 H   0  0  0  0  0  0  0  0  0  0  0  0
  140.9366   74.5224  221.1073 H   0  0  0  0  0  0  0  0  0  0  0  0
  139.7350   73.9949  219.9801 H   0  0  0  0  0  0  0  0  0  0  0  0
  139.0555   76.2469  219.7974 H   0  0  0  0  0  0  0  0  0  0  0  0
  137.4120   75.9072  220.2713 H   0  0  0  0  0  0  0  0  0  0  0  0
  138.3802   78.3462  220.8177 H   0  0  0  0  0  0  0  0  0  0  0  0
  137.5283   77.5744  222.1383 H   0  0  0  0  0  0  0  0  0  0  0  0
  141.4199   76.8144  221.2976 H   0  0  0  0  0  0  0  0  0  0  0  0
  140.4041   77.9968  220.3813 H   0  0  0  0  0  0  0  0  0  0  0  0
  142.5056   78.7923  221.3550 H   0  0  0  0  0  0  0  0  0  0  0  0
  141.3549   80.6858  220.9020 H   0  0  0  0  0  0  0  0  0  0  0  0
  139.8652   80.0910  221.6910 H   0  0  0  0  0  0  0  0  0  0  0  0
  141.8092   81.9227  222.7438 H   0  0  0  0  0  0  0  0  0  0  0  0
  140.3886   81.2909  223.5792 H   0  0  0  0  0  0  0  0  0  0  0  0
  143.2632   80.2801  223.6123 H   0  0  0  0  0  0  0  0  0  0  0  0
  142.1144   80.2713  224.9361 H   0  0  0  0  0  0  0  0  0  0  0  0
  142.5791   77.9543  223.6562 H   0  0  0  0  0  0  0  0  0  0  0  0
  140.9008   78.3131  223.9735 H   0  0  0  0  0  0  0  0  0  0  0  0
  140.7146   75.6591  222.7361 H   0  0  0  0  0  0  0  0  0  0  0  0
  139.2009   75.9355  223.6517 H   0  0  0  0  0  0  0  0  0  0  0  0
  136.1206   75.6700  222.4657 H   0  0  0  0  0  0  0  0  0  0  0  0
  134.5832   73.9077  223.2090 H   0  0  0  0  0  0  0  0  0  0  0  0
  135.3875   71.5628  223.3667 H   0  0  0  0  0  0  0  0  0  0  0  0
  137.7296   71.0488  222.7753 H   0  0  0  0  0  0  0  0  0  0  0  0
  1  2  2  0
  2  3  1  0
  3  4  2  0
  4  5  1  0
  5  6  2  0
  6  7  1  0
  6  8  1  0
  8  9  2  0
  9 10  1  0
 10 11  2  0
 11 12  1  0
  2 13  1  0
 13 14  1  0
 15 14  1  6
 15 16  1  0
 16 17  1  0
 17 18  1  0
 18 19  1  0
 19 20  1  0
 20 21  1  0
 21 22  1  0
 22 23  1  0
 23 24  1  0
 18 25  1  0
 15 26  1  0
 26 27  2  0
 27 28  1  0
 28 29  2  0
 29 30  1  0
 30 31  2  0
 12  3  1  0
 31 13  1  0
 11  5  1  0
 25 15  1  0
 31 26  1  0
 24 20  1  0
  4 32  1  0
  8 33  1  0
  9 34  1  0
 10 35  1  0
 12 36  1  0
 14 37  1  0
 14 38  1  0
 16 39  1  0
 16 40  1  0
 17 41  1  0
 17 42  1  0
 19 43  1  0
 19 44  1  0
 20 45  1  0
 21 46  1  0
 21 47  1  0
 22 48  1  0
 22 49  1  0
 23 50  1  0
 23 51  1  0
 24 52  1  0
 24 53  1  0
 25 54  1  0
 25 55  1  0
 27 56  1  0
 28 57  1  0
 29 58  1  0
 30 59  1  0
M  END
>  <smiles>  (7) 
O=C(c1cc2c(F)cccc2[nH]1)N1C[C@@]2(CCN(CC3CCCC3)C2)c2ccccc21

>  <score_type>  (7) 
oracle

>  <origin>  (7) 
autodockgpu

>  <m_score__min__energy>  (7) 
-8.6600000000000001

>  <m_primary>  (7) 
energy

>  <rmsd>  (7) 
4.826095797833521

>  <m_score__min__rmsd>  (7) 
4.826095797833521

>  <meeko>  (7) 
{"free_energy": -8.11, "intermolecular_energy": -9.3, "internal_energy": -1.41, "cluster_size": 7, "cluster_id": 2, "rank_in_cluster": 4}

>  <energy>  (7) 
-8.65

>  <cluster_rmsd>  (7) 
0.03

>  <cluster>  (7) 
1

$$$$

     RDKit          3D

 59 64  0  0  0  0  0  0  0  0999 V2000
  137.8210   76.3640  222.8690 O   0  0  0  0  0  0  0  0  0  0  0  0
  139.0080   76.3810  222.4040 C   0  0  0  0  0  0  0  0  0  0  0  0
  139.8430   77.5700  222.6450 C   0  0  0  0  0  0  0  0  0  0  0  0
  139.3630   78.8860  222.7020 C   0  0  0  0  0  0  0  0  0  0  0  0
  140.4500   79.6960  222.9510 C   0  0  0  0  0  0  0  0  0  0  0  0
  140.6150   81.0760  223.1180 C   0  0  0  0  0  0  0  0  0  0  0  0
  139.4860   81.8280  223.0180 F   0  0  0  0  0  0  0  0  0  0  0  0
  141.8400   81.6320  223.3670 C   0  0  0  0  0  0  0  0  0  0  0  0
  142.9630   80.8460  223.4640 C   0  0  0  0  0  0  0  0  0  0  0  0
  142.8160   79.4770  223.3000 C   0  0  0  0  0  0  0  0  0  0  0  0
  141.5860   78.8880  223.0450 C   0  0  0  0  0  0  0  0  0  0  0  0
  141.1670   77.6140  222.8530 N   0  0  0  0  0  0  0  0  0  0  0  0
  139.4650   75.2620  221.6870 N   0  0  0  0  0  0  0  0  0  0  0  0
  138.8620   73.9430  221.5500 C   0  0  0  0  0  0  0  0  0  0  0  0
  140.1170   73.0850  221.5120 C   0  0  2  0  0  0  0  0  0  0  0  0
  139.9320   71.8260  220.6950 C   0  0  0  0  0  0  0  0  0  0  0  0
  140.6830   70.7950  221.5290 C   0  0  0  0  0  0  0  0  0  0  0  0
  140.3090   71.1370  222.8860 N   0  0  0  0  0  0  0  0  0  0  0  0
  138.9890   70.6950  223.2060 C   0  0  0  0  0  0  0  0  0  0  0  0
  138.9110   70.2130  224.6280 C   0  0  0  0  0  0  0  0  0  0  0  0
  139.0040   68.7400  224.8040 C   0  0  0  0  0  0  0  0  0  0  0  0
  139.7600   68.4640  226.0770 C   0  0  0  0  0  0  0  0  0  0  0  0
  140.0320   69.8400  226.6850 C   0  0  0  0  0  0  0  0  0  0  0  0
  140.0520   70.7640  225.4680 C   0  0  0  0  0  0  0  0  0  0  0  0
  140.4120   72.5930  222.8810 C   0  0  0  0  0  0  0  0  0  0  0  0
  141.1420   73.9020  220.8630 C   0  0  0  0  0  0  0  0  0  0  0  0
  142.3350   73.6730  220.2040 C   0  0  0  0  0  0  0  0  0  0  0  0
  143.0910   74.6720  219.6320 C   0  0  0  0  0  0  0  0  0  0  0  0
  142.6570   75.9660  219.7080 C   0  0  0  0  0  0  0  0  0  0  0  0
  141.4710   76.2300  220.3590 C   0  0  0  0  0  0  0  0  0  0  0  0
  140.7000   75.2230  220.9430 C   0  0  0  0  0  0  0  0  0  0  0  0
  138.3197   79.2098  222.5728 H   0  0  0  0  0  0  0  0  0  0  0  0
  141.9270   82.7215  223.4911 H   0  0  0  0  0  0  0  0  0  0  0  0
  143.9492   81.2896  223.6657 H   0  0  0  0  0  0  0  0  0  0  0  0
  143.7062   78.8352  223.3747 H   0  0  0  0  0  0  0  0  0  0  0  0
  141.8140   76.8000  222.8730 H   0  0  0  0  0  0  0  0  0  0  0  0
  138.2228   73.6945  222.4101 H   0  0  0  0  0  0  0  0  0  0  0  0
  138.1928   73.8258  220.6848 H   0  0  0  0  0  0  0  0  0  0  0  0
  138.8679   71.5643  220.5991 H   0  0  0  0  0  0  0  0  0  0  0  0
  140.2963   71.9106  219.6605 H   0  0  0  0  0  0  0  0  0  0  0  0
  140.3628   69.7734  221.2764 H   0  0  0  0  0  0  0  0  0  0  0  0
  141.7701   70.8118  221.3621 H   0  0  0  0  0  0  0  0  0  0  0  0
  138.2872   71.5312  223.0708 H   0  0  0  0  0  0  0  0  0  0  0  0
  138.7280   69.8604  222.5387 H   0  0  0  0  0  0  0  0  0  0  0  0
  137.9182   70.5664  224.9434 H   0  0  0  0  0  0  0  0  0  0  0  0
  137.9943   68.3085  224.8698 H   0  0  0  0  0  0  0  0  0  0  0  0
  139.5251   68.2875  223.9474 H   0  0  0  0  0  0  0  0  0  0  0  0
  139.1537   67.8524  226.7614 H   0  0  0  0  0  0  0  0  0  0  0  0
  140.6887   67.9044  225.8917 H   0  0  0  0  0  0  0  0  0  0  0  0
  139.2329   70.1267  227.3844 H   0  0  0  0  0  0  0  0  0  0  0  0
  140.9637   69.8763  227.2686 H   0  0  0  0  0  0  0  0  0  0  0  0
  139.8659   71.8088  225.7574 H   0  0  0  0  0  0  0  0  0  0  0  0
  141.0184   70.7819  224.9429 H   0  0  0  0  0  0  0  0  0  0  0  0
  139.6876   73.0180  223.5914 H   0  0  0  0  0  0  0  0  0  0  0  0
  141.4257   72.8986  223.1793 H   0  0  0  0  0  0  0  0  0  0  0  0
  142.7001   72.6378  220.1325 H   0  0  0  0  0  0  0  0  0  0  0  0
  144.0340   74.4312  219.1195 H   0  0  0  0  0  0  0  0  0  0  0  0
  143.2430   76.7811  219.2582 H   0  0  0  0  0  0  0  0  0  0  0  0
  141.1196   77.2706  220.4206 H   0  0  0  0  0  0  0  0  0  0  0  0
  1  2  2  0
  2  3  1  0
  3  4  2  0
  4  5  1  0
  5  6  2  0
  6  7  1  0
  6  8  1  0
  8  9  2  0
  9 10  1  0
 10 11  2  0
 11 12  1  0
  2 13  1  0
 13 14  1  0
 15 14  1  1
 15 16  1  0
 16 17  1  0
 17 18  1  0
 18 19  1  0
 19 20  1  0
 20 21  1  0
 21 22  1  0
 22 23  1  0
 23 24  1  0
 18 25  1  0
 15 26  1  0
 26 27  2  0
 27 28  1  0
 28 29  2  0
 29 30  1  0
 30 31  2  0
 12  3  1  0
 31 13  1  0
 11  5  1  0
 25 15  1  0
 31 26  1  0
 24 20  1  0
  4 32  1  0
  8 33  1  0
  9 34  1  0
 10 35  1  0
 12 36  1  0
 14 37  1  0
 14 38  1  0
 16 39  1  0
 16 40  1  0
 17 41  1  0
 17 42  1  0
 19 43  1  0
 19 44  1  0
 20 45  1  0
 21 46  1  0
 21 47  1  0
 22 48  1  0
 22 49  1  0
 23 50  1  0
 23 51  1  0
 24 52  1  0
 24 53  1  0
 25 54  1  0
 25 55  1  0
 27 56  1  0
 28 57  1  0
 29 58  1  0
 30 59  1  0
M  END
>  <smiles>  (8) 
O=C(c1cc2c(F)cccc2[nH]1)N1C[C@@]2(CCN(CC3CCCC3)C2)c2ccccc21

>  <score_type>  (8) 
oracle

>  <origin>  (8) 
autodockgpu

>  <m_score__min__energy>  (8) 
-8.6600000000000001

>  <m_primary>  (8) 
energy

>  <rmsd>  (8) 
7.585489104462999

>  <m_score__min__rmsd>  (8) 
7.585489104462999

>  <meeko>  (8) 
{"free_energy": -8.66, "intermolecular_energy": -9.85, "internal_energy": -1.23, "cluster_size": 19, "cluster_id": 1, "rank_in_cluster": 3}

>  <energy>  (8) 
-8.65

>  <cluster_rmsd>  (8) 
0.06

>  <cluster>  (8) 
1

$$$$

     RDKit          3D

 59 64  0  0  0  0  0  0  0  0999 V2000
  139.7650   69.7710  221.3960 O   0  0  0  0  0  0  0  0  0  0  0  0
  139.6490   70.8030  222.1360 C   0  0  0  0  0  0  0  0  0  0  0  0
  139.8420   70.6550  223.5880 C   0  0  0  0  0  0  0  0  0  0  0  0
  140.5580   71.5490  224.3960 C   0  0  0  0  0  0  0  0  0  0  0  0
  140.4980   71.0600  225.6820 C   0  0  0  0  0  0  0  0  0  0  0  0
  141.0030   71.4970  226.9130 C   0  0  0  0  0  0  0  0  0  0  0  0
  141.7220   72.6510  226.8860 F   0  0  0  0  0  0  0  0  0  0  0  0
  140.7860   70.8020  228.0710 C   0  0  0  0  0  0  0  0  0  0  0  0
  140.0550   69.6380  228.0670 C   0  0  0  0  0  0  0  0  0  0  0  0
  139.5480   69.1920  226.8560 C   0  0  0  0  0  0  0  0  0  0  0  0
  139.7550   69.8770  225.6670 C   0  0  0  0  0  0  0  0  0  0  0  0
  139.3820   69.6750  224.3810 N   0  0  0  0  0  0  0  0  0  0  0  0
  139.3460   72.0350  221.5290 N   0  0  0  0  0  0  0  0  0  0  0  0
  140.0110   72.7070  220.4210 C   0  0  0  0  0  0  0  0  0  0  0  0
  139.8540   74.1540  220.8630 C   0  0  2  0  0  0  0  0  0  0  0  0
  139.7720   75.1100  219.6930 C   0  0  0  0  0  0  0  0  0  0  0  0
  140.6000   76.2880  220.1900 C   0  0  0  0  0  0  0  0  0  0  0  0
  141.7230   75.6470  220.8450 N   0  0  0  0  0  0  0  0  0  0  0  0
  142.6760   75.1450  219.9070 C   0  0  0  0  0  0  0  0  0  0  0  0
  143.5280   74.0730  220.5260 C   0  0  0  0  0  0  0  0  0  0  0  0
  143.4560   72.7450  219.8630 C   0  0  0  0  0  0  0  0  0  0  0  0
  144.8200   72.1100  219.9290 C   0  0  0  0  0  0  0  0  0  0  0  0
  145.6740   73.0870  220.7360 C   0  0  0  0  0  0  0  0  0  0  0  0
  145.0030   74.4360  220.4800 C   0  0  0  0  0  0  0  0  0  0  0  0
  141.0750   74.5750  221.5950 C   0  0  0  0  0  0  0  0  0  0  0  0
  138.5870   74.2160  221.5910 C   0  0  0  0  0  0  0  0  0  0  0  0
  137.6800   75.2000  221.9390 C   0  0  0  0  0  0  0  0  0  0  0  0
  136.5040   74.9470  222.6100 C   0  0  0  0  0  0  0  0  0  0  0  0
  136.1970   73.6610  222.9580 C   0  0  0  0  0  0  0  0  0  0  0  0
  137.0800   72.6550  222.6260 C   0  0  0  0  0  0  0  0  0  0  0  0
  138.2750   72.9040  221.9490 C   0  0  0  0  0  0  0  0  0  0  0  0
  141.0696   72.4653  224.0662 H   0  0  0  0  0  0  0  0  0  0  0  0
  141.2016   71.1793  229.0170 H   0  0  0  0  0  0  0  0  0  0  0  0
  139.8775   69.0772  228.9965 H   0  0  0  0  0  0  0  0  0  0  0  0
  138.9608   68.2621  226.8371 H   0  0  0  0  0  0  0  0  0  0  0  0
  138.8110   68.8580  224.0810 H   0  0  0  0  0  0  0  0  0  0  0  0
  141.0689   72.4161  220.3419 H   0  0  0  0  0  0  0  0  0  0  0  0
  139.6025   72.4779  219.4257 H   0  0  0  0  0  0  0  0  0  0  0  0
  140.2088   74.6690  218.7848 H   0  0  0  0  0  0  0  0  0  0  0  0
  138.7435   75.3781  219.4098 H   0  0  0  0  0  0  0  0  0  0  0  0
  140.9373   76.9153  219.3517 H   0  0  0  0  0  0  0  0  0  0  0  0
  140.0387   76.9615  220.8543 H   0  0  0  0  0  0  0  0  0  0  0  0
  142.1422   74.7253  219.0416 H   0  0  0  0  0  0  0  0  0  0  0  0
  143.3283   75.9732  219.5929 H   0  0  0  0  0  0  0  0  0  0  0  0
  143.1204   74.0058  221.5455 H   0  0  0  0  0  0  0  0  0  0  0  0
  142.7239   72.1090  220.3823 H   0  0  0  0  0  0  0  0  0  0  0  0
  143.1416   72.8606  218.8152 H   0  0  0  0  0  0  0  0  0  0  0  0
  144.7679   71.1341  220.4340 H   0  0  0  0  0  0  0  0  0  0  0  0
  145.2382   71.9256  218.9284 H   0  0  0  0  0  0  0  0  0  0  0  0
  145.6558   72.8348  221.8065 H   0  0  0  0  0  0  0  0  0  0  0  0
  146.7349   73.0723  220.4457 H   0  0  0  0  0  0  0  0  0  0  0  0
  145.2594   75.1643  221.2635 H   0  0  0  0  0  0  0  0  0  0  0  0
  145.3121   74.9118  219.5376 H   0  0  0  0  0  0  0  0  0  0  0  0
  141.7625   73.7216  221.6901 H   0  0  0  0  0  0  0  0  0  0  0  0
  140.8058   74.9303  222.6006 H   0  0  0  0  0  0  0  0  0  0  0  0
  137.9099   76.2403  221.6654 H   0  0  0  0  0  0  0  0  0  0  0  0
  135.8197   75.7702  222.8630 H   0  0  0  0  0  0  0  0  0  0  0  0
  135.2632   73.4330  223.4928 H   0  0  0  0  0  0  0  0  0  0  0  0
  136.8339   71.6197  222.9046 H   0  0  0  0  0  0  0  0  0  0  0  0
  1  2  2  0
  2  3  1  0
  3  4  2  0
  4  5  1  0
  5  6  2  0
  6  7  1  0
  6  8  1  0
  8  9  2  0
  9 10  1  0
 10 11  2  0
 11 12  1  0
  2 13  1  0
 13 14  1  0
 15 14  1  6
 15 16  1  0
 16 17  1  0
 17 18  1  0
 18 19  1  0
 19 20  1  0
 20 21  1  0
 21 22  1  0
 22 23  1  0
 23 24  1  0
 18 25  1  0
 15 26  1  0
 26 27  2  0
 27 28  1  0
 28 29  2  0
 29 30  1  0
 30 31  2  0
 12  3  1  0
 31 13  1  0
 11  5  1  0
 25 15  1  0
 31 26  1  0
 24 20  1  0
  4 32  1  0
  8 33  1  0
  9 34  1  0
 10 35  1  0
 12 36  1  0
 14 37  1  0
 14 38  1  0
 16 39  1  0
 16 40  1  0
 17 41  1  0
 17 42  1  0
 19 43  1  0
 19 44  1  0
 20 45  1  0
 21 46  1  0
 21 47  1  0
 22 48  1  0
 22 49  1  0
 23 50  1  0
 23 51  1  0
 24 52  1  0
 24 53  1  0
 25 54  1  0
 25 55  1  0
 27 56  1  0
 28 57  1  0
 29 58  1  0
 30 59  1  0
M  END
>  <smiles>  (9) 
O=C(c1cc2c(F)cccc2[nH]1)N1C[C@@]2(CCN(CC3CCCC3)C2)c2ccccc21

>  <score_type>  (9) 
oracle

>  <origin>  (9) 
autodockgpu

>  <m_score__min__energy>  (9) 
-8.6600000000000001

>  <m_primary>  (9) 
energy

>  <rmsd>  (9) 
5.022676033819454

>  <m_score__min__rmsd>  (9) 
5.022676033819454

>  <meeko>  (9) 
{"free_energy": -7.82, "intermolecular_energy": -9.02, "internal_energy": -1.72, "cluster_size": 17, "cluster_id": 3, "rank_in_cluster": 15}

>  <energy>  (9) 
-8.65

>  <cluster_rmsd>  (9) 
0.05

>  <cluster>  (9) 
1

$$$$

     RDKit          3D

 59 64  0  0  0  0  0  0  0  0999 V2000
  141.5390   72.0140  221.1540 O   0  0  0  0  0  0  0  0  0  0  0  0
  140.5750   72.3340  221.9250 C   0  0  0  0  0  0  0  0  0  0  0  0
  140.3440   71.5300  223.1370 C   0  0  0  0  0  0  0  0  0  0  0  0
  140.7010   71.9200  224.4350 C   0  0  0  0  0  0  0  0  0  0  0  0
  140.3110   70.9010  225.2780 C   0  0  0  0  0  0  0  0  0  0  0  0
  140.3870   70.7020  226.6610 C   0  0  0  0  0  0  0  0  0  0  0  0
  140.9690   71.7020  227.3760 F   0  0  0  0  0  0  0  0  0  0  0  0
  139.9040   69.5690  227.2560 C   0  0  0  0  0  0  0  0  0  0  0  0
  139.3210   68.5750  226.5070 C   0  0  0  0  0  0  0  0  0  0  0  0
  139.2380   68.7570  225.1350 C   0  0  0  0  0  0  0  0  0  0  0  0
  139.7210   69.8960  224.5070 C   0  0  0  0  0  0  0  0  0  0  0  0
  139.7660   70.3230  223.2220 N   0  0  0  0  0  0  0  0  0  0  0  0
  139.7820   73.4440  221.5840 N   0  0  0  0  0  0  0  0  0  0  0  0
  140.1400   74.6400  220.8330 C   0  0  0  0  0  0  0  0  0  0  0  0
  139.2970   75.6700  221.5680 C   0  0  2  0  0  0  0  0  0  0  0  0
  138.8690   76.8120  220.6730 C   0  0  0  0  0  0  0  0  0  0  0  0
  139.0160   78.0130  221.5990 C   0  0  0  0  0  0  0  0  0  0  0  0
  140.2550   77.7370  222.2980 N   0  0  0  0  0  0  0  0  0  0  0  0
  141.3990   78.0010  221.4850 C   0  0  0  0  0  0  0  0  0  0  0  0
  142.1400   79.2130  221.9750 C   0  0  0  0  0  0  0  0  0  0  0  0
  141.5500   80.5190  221.5820 C   0  0  0  0  0  0  0  0  0  0  0  0
  141.7540   81.4900  222.7150 C   0  0  0  0  0  0  0  0  0  0  0  0
  142.5680   80.7210  223.7550 C   0  0  0  0  0  0  0  0  0  0  0  0
  142.1860   79.2650  223.4940 C   0  0  0  0  0  0  0  0  0  0  0  0
  140.1250   76.3180  222.6160 C   0  0  0  0  0  0  0  0  0  0  0  0
  138.0950   74.9640  222.0100 C   0  0  0  0  0  0  0  0  0  0  0  0
  136.8130   75.3130  222.3900 C   0  0  0  0  0  0  0  0  0  0  0  0
  135.8420   74.3940  222.7210 C   0  0  0  0  0  0  0  0  0  0  0  0
  136.1410   73.0610  222.6780 C   0  0  0  0  0  0  0  0  0  0  0  0
  137.4120   72.6780  222.3040 C   0  0  0  0  0  0  0  0  0  0  0  0
  138.4010   73.6040  221.9690 C   0  0  0  0  0  0  0  0  0  0  0  0
  141.1967   72.8581  224.7252 H   0  0  0  0  0  0  0  0  0  0  0  0
  139.9832   69.4520  228.3469 H   0  0  0  0  0  0  0  0  0  0  0  0
  138.9318   67.6623  226.9819 H   0  0  0  0  0  0  0  0  0  0  0  0
  138.7727   67.9705  224.5227 H   0  0  0  0  0  0  0  0  0  0  0  0
  139.3890   69.7640  222.4300 H   0  0  0  0  0  0  0  0  0  0  0  0
  141.2146   74.8630  220.9070 H   0  0  0  0  0  0  0  0  0  0  0  0
  139.9604   74.5798  219.7494 H   0  0  0  0  0  0  0  0  0  0  0  0
  139.5271   76.9007  219.7960 H   0  0  0  0  0  0  0  0  0  0  0  0
  137.8576   76.6941  220.2570 H   0  0  0  0  0  0  0  0  0  0  0  0
  139.0862   78.9486  221.0247 H   0  0  0  0  0  0  0  0  0  0  0  0
  138.1582   78.1467  222.2744 H   0  0  0  0  0  0  0  0  0  0  0  0
  142.0714   77.1310  221.5169 H   0  0  0  0  0  0  0  0  0  0  0  0
  141.0611   78.1895  220.4553 H   0  0  0  0  0  0  0  0  0  0  0  0
  143.1275   79.0907  221.5060 H   0  0  0  0  0  0  0  0  0  0  0  0
  142.0481   80.8946  220.6760 H   0  0  0  0  0  0  0  0  0  0  0  0
  140.4767   80.4021  221.3716 H   0  0  0  0  0  0  0  0  0  0  0  0
  142.3068   82.3761  222.3697 H   0  0  0  0  0  0  0  0  0  0  0  0
  140.7997   81.8532  223.1241 H   0  0  0  0  0  0  0  0  0  0  0  0
  143.6465   80.8782  223.6061 H   0  0  0  0  0  0  0  0  0  0  0  0
  142.3612   81.0419  224.7866 H   0  0  0  0  0  0  0  0  0  0  0  0
  142.9443   78.5758  223.8940 H   0  0  0  0  0  0  0  0  0  0  0  0
  141.2443   78.9622  223.9752 H   0  0  0  0  0  0  0  0  0  0  0  0
  141.1209   75.8516  222.6420 H   0  0  0  0  0  0  0  0  0  0  0  0
  139.6478   76.1962  223.5996 H   0  0  0  0  0  0  0  0  0  0  0  0
  136.5543   76.3814  222.4303 H   0  0  0  0  0  0  0  0  0  0  0  0
  134.8369   74.7291  223.0167 H   0  0  0  0  0  0  0  0  0  0  0  0
  135.3822   72.3079  222.9368 H   0  0  0  0  0  0  0  0  0  0  0  0
  137.6546   71.6057  222.2685 H   0  0  0  0  0  0  0  0  0  0  0  0
  1  2  2  0
  2  3  1  0
  3  4  2  0
  4  5  1  0
  5  6  2  0
  6  7  1  0
  6  8  1  0
  8  9  2  0
  9 10  1  0
 10 11  2  0
 11 12  1  0
  2 13  1  0
 13 14  1  0
 15 14  1  6
 15 16  1  0
 16 17  1  0
 17 18  1  0
 18 19  1  0
 19 20  1  0
 20 21  1  0
 21 22  1  0
 22 23  1  0
 23 24  1  0
 18 25  1  0
 15 26  1  0
 26 27  2  0
 27 28  1  0
 28 29  2  0
 29 30  1  0
 30 31  2  0
 12  3  1  0
 31 13  1  0
 11  5  1  0
 25 15  1  0
 31 26  1  0
 24 20  1  0
  4 32  1  0
  8 33  1  0
  9 34  1  0
 10 35  1  0
 12 36  1  0
 14 37  1  0
 14 38  1  0
 16 39  1  0
 16 40  1  0
 17 41  1  0
 17 42  1  0
 19 43  1  0
 19 44  1  0
 20 45  1  0
 21 46  1  0
 21 47  1  0
 22 48  1  0
 22 49  1  0
 23 50  1  0
 23 51  1  0
 24 52  1  0
 24 53  1  0
 25 54  1  0
 25 55  1  0
 27 56  1  0
 28 57  1  0
 29 58  1  0
 30 59  1  0
M  END
>  <smiles>  (10) 
O=C(c1cc2c(F)cccc2[nH]1)N1C[C@@]2(CCN(CC3CCCC3)C2)c2ccccc21

>  <score_type>  (10) 
oracle

>  <origin>  (10) 
autodockgpu

>  <m_score__min__energy>  (10) 
-8.6600000000000001

>  <m_primary>  (10) 
energy

>  <rmsd>  (10) 
4.358860836657261

>  <m_score__min__rmsd>  (10) 
4.358860836657261

>  <meeko>  (10) 
{"free_energy": -8.08, "intermolecular_energy": -9.27, "internal_energy": -1.41, "cluster_size": 7, "cluster_id": 2, "rank_in_cluster": 7}

>  <energy>  (10) 
-8.65

>  <cluster_rmsd>  (10) 
0.05

>  <cluster>  (10) 
1

$$$$

     RDKit          3D

 59 64  0  0  0  0  0  0  0  0999 V2000
  137.8690   76.3180  222.9730 O   0  0  0  0  0  0  0  0  0  0  0  0
  139.0330   76.3620  222.4540 C   0  0  0  0  0  0  0  0  0  0  0  0
  139.8570   77.5630  222.6700 C   0  0  0  0  0  0  0  0  0  0  0  0
  139.3800   78.8800  222.6180 C   0  0  0  0  0  0  0  0  0  0  0  0
  140.4530   79.7030  222.8800 C   0  0  0  0  0  0  0  0  0  0  0  0
  140.6140   81.0910  222.9720 C   0  0  0  0  0  0  0  0  0  0  0  0
  139.4970   81.8350  222.7590 F   0  0  0  0  0  0  0  0  0  0  0  0
  141.8250   81.6600  223.2580 C   0  0  0  0  0  0  0  0  0  0  0  0
  142.9370   80.8810  223.4680 C   0  0  0  0  0  0  0  0  0  0  0  0
  142.7950   79.5050  223.3810 C   0  0  0  0  0  0  0  0  0  0  0  0
  141.5790   78.9020  223.0910 C   0  0  0  0  0  0  0  0  0  0  0  0
  141.1670   77.6190  222.9530 N   0  0  0  0  0  0  0  0  0  0  0  0
  139.4770   75.2580  221.7040 N   0  0  0  0  0  0  0  0  0  0  0  0
  138.8600   73.9490  221.5340 C   0  0  0  0  0  0  0  0  0  0  0  0
  140.1070   73.0810  221.4670 C   0  0  2  0  0  0  0  0  0  0  0  0
  139.9070   71.8470  220.6160 C   0  0  0  0  0  0  0  0  0  0  0  0
  140.6510   70.7860  221.4180 C   0  0  0  0  0  0  0  0  0  0  0  0
  140.2850   71.0940  222.7850 N   0  0  0  0  0  0  0  0  0  0  0  0
  138.9630   70.6550  223.0990 C   0  0  0  0  0  0  0  0  0  0  0  0
  138.8700   70.2010  224.5280 C   0  0  0  0  0  0  0  0  0  0  0  0
  138.8910   68.7290  224.7290 C   0  0  0  0  0  0  0  0  0  0  0  0
  139.6390   68.4360  226.0020 C   0  0  0  0  0  0  0  0  0  0  0  0
  139.9830   69.8060  226.5850 C   0  0  0  0  0  0  0  0  0  0  0  0
  140.0420   70.7080  225.3530 C   0  0  0  0  0  0  0  0  0  0  0  0
  140.4030   72.5480  222.8200 C   0  0  0  0  0  0  0  0  0  0  0  0
  141.1370   73.9060  220.8350 C   0  0  0  0  0  0  0  0  0  0  0  0
  142.3250   73.6840  220.1650 C   0  0  0  0  0  0  0  0  0  0  0  0
  143.0890   74.6910  219.6170 C   0  0  0  0  0  0  0  0  0  0  0  0
  142.6670   75.9860  219.7310 C   0  0  0  0  0  0  0  0  0  0  0  0
  141.4860   76.2430  220.3950 C   0  0  0  0  0  0  0  0  0  0  0  0
  140.7080   75.2280  220.9540 C   0  0  0  0  0  0  0  0  0  0  0  0
  138.3473   79.1956  222.4083 H   0  0  0  0  0  0  0  0  0  0  0  0
  141.9093   82.7550  223.3206 H   0  0  0  0  0  0  0  0  0  0  0  0
  143.9116   81.3360  223.6985 H   0  0  0  0  0  0  0  0  0  0  0  0
  143.6767   78.8687  223.5476 H   0  0  0  0  0  0  0  0  0  0  0  0
  141.8080   76.8070  223.0610 H   0  0  0  0  0  0  0  0  0  0  0  0
  138.2222   73.6832  222.3899 H   0  0  0  0  0  0  0  0  0  0  0  0
  138.1856   73.8616  220.6694 H   0  0  0  0  0  0  0  0  0  0  0  0
  138.8401   71.5982  220.5170 H   0  0  0  0  0  0  0  0  0  0  0  0
  140.2684   71.9570  219.5829 H   0  0  0  0  0  0  0  0  0  0  0  0
  140.3201   69.7749  221.1384 H   0  0  0  0  0  0  0  0  0  0  0  0
  141.7376   70.7968  221.2475 H   0  0  0  0  0  0  0  0  0  0  0  0
  138.2608   71.4866  222.9396 H   0  0  0  0  0  0  0  0  0  0  0  0
  138.7117   69.8067  222.4454 H   0  0  0  0  0  0  0  0  0  0  0  0
  137.8976   70.6086  224.8417 H   0  0  0  0  0  0  0  0  0  0  0  0
  137.8615   68.3496  224.8069 H   0  0  0  0  0  0  0  0  0  0  0  0
  139.3848   68.2374  223.8778 H   0  0  0  0  0  0  0  0  0  0  0  0
  139.0066   67.8671  226.6994 H   0  0  0  0  0  0  0  0  0  0  0  0
  140.5372   67.8271  225.8218 H   0  0  0  0  0  0  0  0  0  0  0  0
  139.2035   70.1439  227.2837 H   0  0  0  0  0  0  0  0  0  0  0  0
  140.9190   69.8050  227.1628 H   0  0  0  0  0  0  0  0  0  0  0  0
  139.9099   71.7654  225.6260 H   0  0  0  0  0  0  0  0  0  0  0  0
  141.0050   70.6692  224.8228 H   0  0  0  0  0  0  0  0  0  0  0  0
  139.6863   72.9604  223.5455 H   0  0  0  0  0  0  0  0  0  0  0  0
  141.4212   72.8347  223.1218 H   0  0  0  0  0  0  0  0  0  0  0  0
  142.6797   72.6477  220.0637 H   0  0  0  0  0  0  0  0  0  0  0  0
  144.0276   74.4556  219.0939 H   0  0  0  0  0  0  0  0  0  0  0  0
  143.2584   76.8079  219.3011 H   0  0  0  0  0  0  0  0  0  0  0  0
  141.1451   77.2847  220.4874 H   0  0  0  0  0  0  0  0  0  0  0  0
  1  2  2  0
  2  3  1  0
  3  4  2  0
  4  5  1  0
  5  6  2  0
  6  7  1  0
  6  8  1  0
  8  9  2  0
  9 10  1  0
 10 11  2  0
 11 12  1  0
  2 13  1  0
 13 14  1  0
 15 14  1  1
 15 16  1  0
 16 17  1  0
 17 18  1  0
 18 19  1  0
 19 20  1  0
 20 21  1  0
 21 22  1  0
 22 23  1  0
 23 24  1  0
 18 25  1  0
 15 26  1  0
 26 27  2  0
 27 28  1  0
 28 29  2  0
 29 30  1  0
 30 31  2  0
 12  3  1  0
 31 13  1  0
 11  5  1  0
 25 15  1  0
 31 26  1  0
 24 20  1  0
  4 32  1  0
  8 33  1  0
  9 34  1  0
 10 35  1  0
 12 36  1  0
 14 37  1  0
 14 38  1  0
 16 39  1  0
 16 40  1  0
 17 41  1  0
 17 42  1  0
 19 43  1  0
 19 44  1  0
 20 45  1  0
 21 46  1  0
 21 47  1  0
 22 48  1  0
 22 49  1  0
 23 50  1  0
 23 51  1  0
 24 52  1  0
 24 53  1  0
 25 54  1  0
 25 55  1  0
 27 56  1  0
 28 57  1  0
 29 58  1  0
 30 59  1  0
M  END
>  <smiles>  (11) 
O=C(c1cc2c(F)cccc2[nH]1)N1C[C@@]2(CCN(CC3CCCC3)C2)c2ccccc21

>  <score_type>  (11) 
oracle

>  <origin>  (11) 
autodockgpu

>  <m_score__min__energy>  (11) 
-8.6600000000000001

>  <m_primary>  (11) 
energy

>  <rmsd>  (11) 
7.605365847306496

>  <m_score__min__rmsd>  (11) 
7.605365847306496

>  <meeko>  (11) 
{"free_energy": -8.63, "intermolecular_energy": -9.83, "internal_energy": -1.24, "cluster_size": 19, "cluster_id": 1, "rank_in_cluster": 11}

>  <energy>  (11) 
-8.63

>  <cluster_rmsd>  (11) 
0.11

>  <cluster>  (11) 
1

$$$$

     RDKit          3D

 59 64  0  0  0  0  0  0  0  0999 V2000
  137.8290   76.3500  222.8780 O   0  0  0  0  0  0  0  0  0  0  0  0
  139.0110   76.3760  222.4010 C   0  0  0  0  0  0  0  0  0  0  0  0
  139.8420   77.5680  222.6400 C   0  0  0  0  0  0  0  0  0  0  0  0
  139.3610   78.8850  222.6750 C   0  0  0  0  0  0  0  0  0  0  0  0
  140.4440   79.6970  222.9310 C   0  0  0  0  0  0  0  0  0  0  0  0
  140.6070   81.0790  223.0840 C   0  0  0  0  0  0  0  0  0  0  0  0
  139.4790   81.8300  222.9580 F   0  0  0  0  0  0  0  0  0  0  0  0
  141.8270   81.6390  223.3440 C   0  0  0  0  0  0  0  0  0  0  0  0
  142.9490   80.8540  223.4670 C   0  0  0  0  0  0  0  0  0  0  0  0
  142.8050   79.4840  223.3170 C   0  0  0  0  0  0  0  0  0  0  0  0
  141.5790   78.8910  223.0510 C   0  0  0  0  0  0  0  0  0  0  0  0
  141.1630   77.6150  222.8680 N   0  0  0  0  0  0  0  0  0  0  0  0
  139.4670   75.2630  221.6730 N   0  0  0  0  0  0  0  0  0  0  0  0
  138.8640   73.9450  221.5280 C   0  0  0  0  0  0  0  0  0  0  0  0
  140.1200   73.0880  221.4790 C   0  0  2  0  0  0  0  0  0  0  0  0
  139.9330   71.8360  220.6520 C   0  0  0  0  0  0  0  0  0  0  0  0
  140.6870   70.7990  221.4750 C   0  0  0  0  0  0  0  0  0  0  0  0
  140.3160   71.1290  222.8360 N   0  0  0  0  0  0  0  0  0  0  0  0
  138.9980   70.6830  223.1560 C   0  0  0  0  0  0  0  0  0  0  0  0
  138.9190   70.2110  224.5810 C   0  0  0  0  0  0  0  0  0  0  0  0
  138.9480   68.7360  224.7630 C   0  0  0  0  0  0  0  0  0  0  0  0
  139.7090   68.4310  226.0260 C   0  0  0  0  0  0  0  0  0  0  0  0
  140.0510   69.7960  226.6230 C   0  0  0  0  0  0  0  0  0  0  0  0
  140.0960   70.7130  225.4020 C   0  0  0  0  0  0  0  0  0  0  0  0
  140.4190   72.5850  222.8430 C   0  0  0  0  0  0  0  0  0  0  0  0
  141.1420   73.9110  220.8330 C   0  0  0  0  0  0  0  0  0  0  0  0
  142.3340   73.6890  220.1690 C   0  0  0  0  0  0  0  0  0  0  0  0
  143.0880   74.6930  219.6030 C   0  0  0  0  0  0  0  0  0  0  0  0
  142.6520   75.9850  219.6910 C   0  0  0  0  0  0  0  0  0  0  0  0
  141.4680   76.2430  220.3480 C   0  0  0  0  0  0  0  0  0  0  0  0
  140.7000   75.2310  220.9260 C   0  0  0  0  0  0  0  0  0  0  0  0
  138.3198   79.2074  222.5267 H   0  0  0  0  0  0  0  0  0  0  0  0
  141.9117   82.7300  223.4560 H   0  0  0  0  0  0  0  0  0  0  0  0
  143.9320   81.3003  223.6782 H   0  0  0  0  0  0  0  0  0  0  0  0
  143.6943   78.8437  223.4122 H   0  0  0  0  0  0  0  0  0  0  0  0
  141.8090   76.8010  222.9080 H   0  0  0  0  0  0  0  0  0  0  0  0
  138.2280   73.6895  222.3884 H   0  0  0  0  0  0  0  0  0  0  0  0
  138.1917   73.8340  220.6645 H   0  0  0  0  0  0  0  0  0  0  0  0
  138.8687   71.5745  220.5572 H   0  0  0  0  0  0  0  0  0  0  0  0
  140.2938   71.9294  219.6171 H   0  0  0  0  0  0  0  0  0  0  0  0
  140.3673   69.7792  221.2145 H   0  0  0  0  0  0  0  0  0  0  0  0
  141.7737   70.8185  221.3056 H   0  0  0  0  0  0  0  0  0  0  0  0
  138.2924   71.5147  223.0131 H   0  0  0  0  0  0  0  0  0  0  0  0
  138.7427   69.8423  222.4942 H   0  0  0  0  0  0  0  0  0  0  0  0
  137.9479   70.6105  224.9086 H   0  0  0  0  0  0  0  0  0  0  0  0
  137.9209   68.3510  224.8453 H   0  0  0  0  0  0  0  0  0  0  0  0
  139.4358   68.2570  223.9012 H   0  0  0  0  0  0  0  0  0  0  0  0
  139.0858   67.8501  226.7219 H   0  0  0  0  0  0  0  0  0  0  0  0
  140.6087   67.8291  225.8304 H   0  0  0  0  0  0  0  0  0  0  0  0
  139.2753   70.1215  227.3318 H   0  0  0  0  0  0  0  0  0  0  0  0
  140.9915   69.7926  227.1934 H   0  0  0  0  0  0  0  0  0  0  0  0
  139.9619   71.7664  225.6890 H   0  0  0  0  0  0  0  0  0  0  0  0
  141.0546   70.6848  224.8633 H   0  0  0  0  0  0  0  0  0  0  0  0
  139.6967   73.0041  223.5590 H   0  0  0  0  0  0  0  0  0  0  0  0
  141.4335   72.8883  223.1411 H   0  0  0  0  0  0  0  0  0  0  0  0
  142.7000   72.6548  220.0884 H   0  0  0  0  0  0  0  0  0  0  0  0
  144.0301   74.4576  219.0862 H   0  0  0  0  0  0  0  0  0  0  0  0
  143.2353   76.8044  219.2456 H   0  0  0  0  0  0  0  0  0  0  0  0
  141.1162   77.2828  220.4193 H   0  0  0  0  0  0  0  0  0  0  0  0
  1  2  2  0
  2  3  1  0
  3  4  2  0
  4  5  1  0
  5  6  2  0
  6  7  1  0
  6  8  1  0
  8  9  2  0
  9 10  1  0
 10 11  2  0
 11 12  1  0
  2 13  1  0
 13 14  1  0
 15 14  1  1
 15 16  1  0
 16 17  1  0
 17 18  1  0
 18 19  1  0
 19 20  1  0
 20 21  1  0
 21 22  1  0
 22 23  1  0
 23 24  1  0
 18 25  1  0
 15 26  1  0
 26 27  2  0
 27 28  1  0
 28 29  2  0
 29 30  1  0
 30 31  2  0
 12  3  1  0
 31 13  1  0
 11  5  1  0
 25 15  1  0
 31 26  1  0
 24 20  1  0
  4 32  1  0
  8 33  1  0
  9 34  1  0
 10 35  1  0
 12 36  1  0
 14 37  1  0
 14 38  1  0
 16 39  1  0
 16 40  1  0
 17 41  1  0
 17 42  1  0
 19 43  1  0
 19 44  1  0
 20 45  1  0
 21 46  1  0
 21 47  1  0
 22 48  1  0
 22 49  1  0
 23 50  1  0
 23 51  1  0
 24 52  1  0
 24 53  1  0
 25 54  1  0
 25 55  1  0
 27 56  1  0
 28 57  1  0
 29 58  1  0
 30 59  1  0
M  END
>  <smiles>  (12) 
O=C(c1cc2c(F)cccc2[nH]1)N1C[C@@]2(CCN(CC3CCCC3)C2)c2ccccc21

>  <score_type>  (12) 
oracle

>  <origin>  (12) 
autodockgpu

>  <m_score__min__energy>  (12) 
-8.6600000000000001

>  <m_primary>  (12) 
energy

>  <rmsd>  (12) 
7.586222909390688

>  <m_score__min__rmsd>  (12) 
7.586222909390688

>  <meeko>  (12) 
{"free_energy": -8.65, "intermolecular_energy": -9.85, "internal_energy": -1.24, "cluster_size": 19, "cluster_id": 1, "rank_in_cluster": 5}

>  <energy>  (12) 
-8.63

>  <cluster_rmsd>  (12) 
0.12

>  <cluster>  (12) 
1

$$$$

     RDKit          3D

 59 64  0  0  0  0  0  0  0  0999 V2000
  139.9500   75.1260  222.3280 O   0  0  0  0  0  0  0  0  0  0  0  0
  140.8650   75.5490  221.5480 C   0  0  0  0  0  0  0  0  0  0  0  0
  141.9010   74.6040  221.1000 C   0  0  0  0  0  0  0  0  0  0  0  0
  141.6990   73.2310  220.8980 C   0  0  0  0  0  0  0  0  0  0  0  0
  142.9030   72.7090  220.4770 C   0  0  0  0  0  0  0  0  0  0  0  0
  143.3330   71.4260  220.1170 C   0  0  0  0  0  0  0  0  0  0  0  0
  142.3970   70.4430  220.1870 F   0  0  0  0  0  0  0  0  0  0  0  0
  144.6190   71.1800  219.7210 C   0  0  0  0  0  0  0  0  0  0  0  0
  145.5440   72.1950  219.6610 C   0  0  0  0  0  0  0  0  0  0  0  0
  145.1330   73.4710  220.0130 C   0  0  0  0  0  0  0  0  0  0  0  0
  143.8360   73.7480  220.4200 C   0  0  0  0  0  0  0  0  0  0  0  0
  143.1830   74.8700  220.8050 N   0  0  0  0  0  0  0  0  0  0  0  0
  140.8380   76.8970  221.1480 N   0  0  0  0  0  0  0  0  0  0  0  0
  140.3840   77.4790  219.8920 C   0  0  0  0  0  0  0  0  0  0  0  0
  141.3830   78.6170  219.7570 C   0  0  2  0  0  0  0  0  0  0  0  0
  140.8100   79.8040  219.0140 C   0  0  0  0  0  0  0  0  0  0  0  0
  141.9920   80.2410  218.1580 C   0  0  0  0  0  0  0  0  0  0  0  0
  142.5480   78.9840  217.7000 N   0  0  0  0  0  0  0  0  0  0  0  0
  141.7720   78.4060  216.6490 C   0  0  0  0  0  0  0  0  0  0  0  0
  142.2580   77.0230  216.3190 C   0  0  0  0  0  0  0  0  0  0  0  0
  143.6960   76.7710  216.5990 C   0  0  0  0  0  0  0  0  0  0  0  0
  143.8440   75.3490  217.0710 C   0  0  0  0  0  0  0  0  0  0  0  0
  142.4410   74.7500  216.9730 C   0  0  0  0  0  0  0  0  0  0  0  0
  141.5280   75.9650  217.1310 C   0  0  0  0  0  0  0  0  0  0  0  0
  142.5190   78.1700  218.9120 C   0  0  0  0  0  0  0  0  0  0  0  0
  141.6950   79.0420  221.1220 C   0  0  0  0  0  0  0  0  0  0  0  0
  142.2050   80.1770  221.7240 C   0  0  0  0  0  0  0  0  0  0  0  0
  142.3470   80.3150  223.0870 C   0  0  0  0  0  0  0  0  0  0  0  0
  141.9690   79.2870  223.9060 C   0  0  0  0  0  0  0  0  0  0  0  0
  141.4570   78.1400  223.3370 C   0  0  0  0  0  0  0  0  0  0  0  0
  141.3120   77.9920  221.9570 C   0  0  0  0  0  0  0  0  0  0  0  0
  140.7603   72.6773  221.0469 H   0  0  0  0  0  0  0  0  0  0  0  0
  144.9167   70.1571  219.4471 H   0  0  0  0  0  0  0  0  0  0  0  0
  146.5790   72.0005  219.3433 H   0  0  0  0  0  0  0  0  0  0  0  0
  145.8616   74.2939  219.9680 H   0  0  0  0  0  0  0  0  0  0  0  0
  143.6440   75.8020  220.8530 H   0  0  0  0  0  0  0  0  0  0  0  0
  140.4622   76.7652  219.0587 H   0  0  0  0  0  0  0  0  0  0  0  0
  139.3272   77.7837  219.8760 H   0  0  0  0  0  0  0  0  0  0  0  0
  139.9523   79.5099  218.3912 H   0  0  0  0  0  0  0  0  0  0  0  0
  140.4223   80.5951  219.6727 H   0  0  0  0  0  0  0  0  0  0  0  0
  141.6591   80.8578  217.3103 H   0  0  0  0  0  0  0  0  0  0  0  0
  142.7172   80.8607  218.7059 H   0  0  0  0  0  0  0  0  0  0  0  0
  140.7202   78.3515  216.9666 H   0  0  0  0  0  0  0  0  0  0  0  0
  141.8717   79.0357  215.7526 H   0  0  0  0  0  0  0  0  0  0  0  0
  142.0699   76.9598  215.2370 H   0  0  0  0  0  0  0  0  0  0  0  0
  144.2853   76.9219  215.6825 H   0  0  0  0  0  0  0  0  0  0  0  0
  144.0592   77.4660  217.3705 H   0  0  0  0  0  0  0  0  0  0  0  0
  144.5449   74.7988  216.4260 H   0  0  0  0  0  0  0  0  0  0  0  0
  144.2459   75.2934  218.0934 H   0  0  0  0  0  0  0  0  0  0  0  0
  142.2867   74.2654  215.9976 H   0  0  0  0  0  0  0  0  0  0  0  0
  142.2528   73.9695  217.7250 H   0  0  0  0  0  0  0  0  0  0  0  0
  140.5268   75.7676  216.7204 H   0  0  0  0  0  0  0  0  0  0  0  0
  141.3545   76.2538  218.1781 H   0  0  0  0  0  0  0  0  0  0  0  0
  142.3872   77.1113  218.6441 H   0  0  0  0  0  0  0  0  0  0  0  0
  143.4642   78.2836  219.4631 H   0  0  0  0  0  0  0  0  0  0  0  0
  142.5137   81.0141  221.0806 H   0  0  0  0  0  0  0  0  0  0  0  0
  142.7598   81.2417  223.5121 H   0  0  0  0  0  0  0  0  0  0  0  0
  142.0714   79.3735  224.9978 H   0  0  0  0  0  0  0  0  0  0  0  0
  141.1521   77.3123  223.9942 H   0  0  0  0  0  0  0  0  0  0  0  0
  1  2  2  0
  2  3  1  0
  3  4  2  0
  4  5  1  0
  5  6  2  0
  6  7  1  0
  6  8  1  0
  8  9  2  0
  9 10  1  0
 10 11  2  0
 11 12  1  0
  2 13  1  0
 13 14  1  0
 15 14  1  1
 15 16  1  0
 16 17  1  0
 17 18  1  0
 18 19  1  0
 19 20  1  0
 20 21  1  0
 21 22  1  0
 22 23  1  0
 23 24  1  0
 18 25  1  0
 15 26  1  0
 26 27  2  0
 27 28  1  0
 28 29  2  0
 29 30  1  0
 30 31  2  0
 12  3  1  0
 31 13  1  0
 11  5  1  0
 25 15  1  0
 31 26  1  0
 24 20  1  0
  4 32  1  0
  8 33  1  0
  9 34  1  0
 10 35  1  0
 12 36  1  0
 14 37  1  0
 14 38  1  0
 16 39  1  0
 16 40  1  0
 17 41  1  0
 17 42  1  0
 19 43  1  0
 19 44  1  0
 20 45  1  0
 21 46  1  0
 21 47  1  0
 22 48  1  0
 22 49  1  0
 23 50  1  0
 23 51  1  0
 24 52  1  0
 24 53  1  0
 25 54  1  0
 25 55  1  0
 27 56  1  0
 28 57  1  0
 29 58  1  0
 30 59  1  0
M  END
>  <smiles>  (13) 
O=C(c1cc2c(F)cccc2[nH]1)N1C[C@@]2(CCN(CC3CCCC3)C2)c2ccccc21

>  <score_type>  (13) 
oracle

>  <origin>  (13) 
autodockgpu

>  <m_score__min__energy>  (13) 
-8.6600000000000001

>  <m_primary>  (13) 
energy

>  <rmsd>  (13) 
5.8964158621919

>  <m_score__min__rmsd>  (13) 
5.8964158621919

>  <meeko>  (13) 
{"free_energy": -7.39, "intermolecular_energy": -8.58, "internal_energy": -2.11, "cluster_size": 6, "cluster_id": 5, "rank_in_cluster": 2}

>  <energy>  (13) 
-8.62

>  <cluster_rmsd>  (13) 
0.1

>  <cluster>  (13) 
1

$$$$

     RDKit          3D

 59 64  0  0  0  0  0  0  0  0999 V2000
  140.9780   71.4850  221.3420 O   0  0  0  0  0  0  0  0  0  0  0  0
  140.1590   71.9490  222.2030 C   0  0  0  0  0  0  0  0  0  0  0  0
  140.1200   71.3340  223.5410 C   0  0  0  0  0  0  0  0  0  0  0  0
  140.6980   71.8870  224.6920 C   0  0  0  0  0  0  0  0  0  0  0  0
  140.4350   71.0160  225.7270 C   0  0  0  0  0  0  0  0  0  0  0  0
  140.7390   71.0110  227.0930 C   0  0  0  0  0  0  0  0  0  0  0  0
  141.4530   72.0750  227.5490 F   0  0  0  0  0  0  0  0  0  0  0  0
  140.3420   69.9940  227.9180 C   0  0  0  0  0  0  0  0  0  0  0  0
  139.6210   68.9310  227.4280 C   0  0  0  0  0  0  0  0  0  0  0  0
  139.3120   68.9210  226.0770 C   0  0  0  0  0  0  0  0  0  0  0  0
  139.7050   69.9390  225.2190 C   0  0  0  0  0  0  0  0  0  0  0  0
  139.5410   70.1780  223.8960 N   0  0  0  0  0  0  0  0  0  0  0  0
  139.3360   73.0280  221.8350 N   0  0  0  0  0  0  0  0  0  0  0  0
  139.6450   74.1840  221.0050 C   0  0  0  0  0  0  0  0  0  0  0  0
  138.8190   75.2430  221.7170 C   0  0  2  0  0  0  0  0  0  0  0  0
  138.3370   76.3280  220.7790 C   0  0  0  0  0  0  0  0  0  0  0  0
  138.5050   77.5800  221.6300 C   0  0  0  0  0  0  0  0  0  0  0  0
  139.7760   77.3590  222.2890 N   0  0  0  0  0  0  0  0  0  0  0  0
  140.8810   77.5910  221.4150 C   0  0  0  0  0  0  0  0  0  0  0  0
  141.7940   78.6480  221.9690 C   0  0  0  0  0  0  0  0  0  0  0  0
  141.4650   80.0420  221.5730 C   0  0  0  0  0  0  0  0  0  0  0  0
  141.7730   80.9490  222.7350 C   0  0  0  0  0  0  0  0  0  0  0  0
  142.3790   80.0370  223.8010 C   0  0  0  0  0  0  0  0  0  0  0  0
  141.7630   78.6730  223.4890 C   0  0  0  0  0  0  0  0  0  0  0  0
  139.6800   75.9590  222.6910 C   0  0  0  0  0  0  0  0  0  0  0  0
  137.6470   74.5490  222.2490 C   0  0  0  0  0  0  0  0  0  0  0  0
  136.3760   74.9020  222.6640 C   0  0  0  0  0  0  0  0  0  0  0  0
  135.4340   73.9910  223.0860 C   0  0  0  0  0  0  0  0  0  0  0  0
  135.7510   72.6620  223.1040 C   0  0  0  0  0  0  0  0  0  0  0  0
  137.0100   72.2740  222.6980 C   0  0  0  0  0  0  0  0  0  0  0  0
  137.9710   73.1920  222.2700 C   0  0  0  0  0  0  0  0  0  0  0  0
  141.2543   72.8338  224.7567 H   0  0  0  0  0  0  0  0  0  0  0  0
  140.6029   70.0274  228.9861 H   0  0  0  0  0  0  0  0  0  0  0  0
  139.2989   68.1126  228.0886 H   0  0  0  0  0  0  0  0  0  0  0  0
  138.7353   68.0771  225.6705 H   0  0  0  0  0  0  0  0  0  0  0  0
  139.0250   69.5300  223.2660 H   0  0  0  0  0  0  0  0  0  0  0  0
  140.7185   74.4236  221.0209 H   0  0  0  0  0  0  0  0  0  0  0  0
  139.4211   74.0613  219.9350 H   0  0  0  0  0  0  0  0  0  0  0  0
  138.9564   76.3757  219.8712 H   0  0  0  0  0  0  0  0  0  0  0  0
  137.3109   76.1746  220.4135 H   0  0  0  0  0  0  0  0  0  0  0  0
  138.5369   78.4830  221.0026 H   0  0  0  0  0  0  0  0  0  0  0  0
  137.6746   77.7403  222.3333 H   0  0  0  0  0  0  0  0  0  0  0  0
  141.4462   76.6552  221.2937 H   0  0  0  0  0  0  0  0  0  0  0  0
  140.4937   77.9362  220.4450 H   0  0  0  0  0  0  0  0  0  0  0  0
  142.7695   78.3597  221.5504 H   0  0  0  0  0  0  0  0  0  0  0  0
  142.0706   80.3341  220.7025 H   0  0  0  0  0  0  0  0  0  0  0  0
  140.4011   80.1185  221.3042 H   0  0  0  0  0  0  0  0  0  0  0  0
  142.4918   81.7268  222.4380 H   0  0  0  0  0  0  0  0  0  0  0  0
  140.8761   81.4708  223.1000 H   0  0  0  0  0  0  0  0  0  0  0  0
  143.4750   80.0035  223.7140 H   0  0  0  0  0  0  0  0  0  0  0  0
  142.1731   80.3777  224.8264 H   0  0  0  0  0  0  0  0  0  0  0  0
  142.3654   77.8565  223.9139 H   0  0  0  0  0  0  0  0  0  0  0  0
  140.7574   78.5347  223.9129 H   0  0  0  0  0  0  0  0  0  0  0  0
  140.6828   75.5070  222.7010 H   0  0  0  0  0  0  0  0  0  0  0  0
  139.2459   75.8871  223.6991 H   0  0  0  0  0  0  0  0  0  0  0  0
  136.1031   75.9676  222.6566 H   0  0  0  0  0  0  0  0  0  0  0  0
  134.4372   74.3293  223.4052 H   0  0  0  0  0  0  0  0  0  0  0  0
  135.0149   71.9152  223.4364 H   0  0  0  0  0  0  0  0  0  0  0  0
  137.2663   71.2044  222.7117 H   0  0  0  0  0  0  0  0  0  0  0  0
  1  2  2  0
  2  3  1  0
  3  4  2  0
  4  5  1  0
  5  6  2  0
  6  7  1  0
  6  8  1  0
  8  9  2  0
  9 10  1  0
 10 11  2  0
 11 12  1  0
  2 13  1  0
 13 14  1  0
 15 14  1  6
 15 16  1  0
 16 17  1  0
 17 18  1  0
 18 19  1  0
 19 20  1  0
 20 21  1  0
 21 22  1  0
 22 23  1  0
 23 24  1  0
 18 25  1  0
 15 26  1  0
 26 27  2  0
 27 28  1  0
 28 29  2  0
 29 30  1  0
 30 31  2  0
 12  3  1  0
 31 13  1  0
 11  5  1  0
 25 15  1  0
 31 26  1  0
 24 20  1  0
  4 32  1  0
  8 33  1  0
  9 34  1  0
 10 35  1  0
 12 36  1  0
 14 37  1  0
 14 38  1  0
 16 39  1  0
 16 40  1  0
 17 41  1  0
 17 42  1  0
 19 43  1  0
 19 44  1  0
 20 45  1  0
 21 46  1  0
 21 47  1  0
 22 48  1  0
 22 49  1  0
 23 50  1  0
 23 51  1  0
 24 52  1  0
 24 53  1  0
 25 54  1  0
 25 55  1  0
 27 56  1  0
 28 57  1  0
 29 58  1  0
 30 59  1  0
M  END
>  <smiles>  (14) 
O=C(c1cc2c(F)cccc2[nH]1)N1C[C@@]2(CCN(CC3CCCC3)C2)c2ccccc21

>  <score_type>  (14) 
oracle

>  <origin>  (14) 
autodockgpu

>  <m_score__min__energy>  (14) 
-8.6600000000000001

>  <m_primary>  (14) 
energy

>  <rmsd>  (14) 
4.8582326074921065

>  <m_score__min__rmsd>  (14) 
4.8582326074921065

>  <meeko>  (14) 
{"free_energy": -8.13, "intermolecular_energy": -9.32, "internal_energy": -1.41, "cluster_size": 7, "cluster_id": 2, "rank_in_cluster": 2}

>  <energy>  (14) 
-8.62

>  <cluster_rmsd>  (14) 
0.1

>  <cluster>  (14) 
1

$$$$

     RDKit          3D

 59 64  0  0  0  0  0  0  0  0999 V2000
  139.6440   69.6800  221.3510 O   0  0  0  0  0  0  0  0  0  0  0  0
  139.5940   70.7100  222.1010 C   0  0  0  0  0  0  0  0  0  0  0  0
  139.8370   70.5440  223.5440 C   0  0  0  0  0  0  0  0  0  0  0  0
  140.4080   71.5160  224.3770 C   0  0  0  0  0  0  0  0  0  0  0  0
  140.4550   70.9770  225.6440 C   0  0  0  0  0  0  0  0  0  0  0  0
  140.9030   71.4480  226.8840 C   0  0  0  0  0  0  0  0  0  0  0  0
  141.4190   72.7060  226.8930 F   0  0  0  0  0  0  0  0  0  0  0  0
  140.8270   70.6850  228.0170 C   0  0  0  0  0  0  0  0  0  0  0  0
  140.3000   69.4160  227.9770 C   0  0  0  0  0  0  0  0  0  0  0  0
  139.8530   68.9350  226.7570 C   0  0  0  0  0  0  0  0  0  0  0  0
  139.9200   69.6870  225.5930 C   0  0  0  0  0  0  0  0  0  0  0  0
  139.5620   69.4730  224.3040 N   0  0  0  0  0  0  0  0  0  0  0  0
  139.3140   71.9560  221.5140 N   0  0  0  0  0  0  0  0  0  0  0  0
  139.9900   72.6330  220.4150 C   0  0  0  0  0  0  0  0  0  0  0  0
  139.8620   74.0750  220.8790 C   0  0  2  0  0  0  0  0  0  0  0  0
  139.7970   75.0500  219.7240 C   0  0  0  0  0  0  0  0  0  0  0  0
  140.6480   76.2050  220.2370 C   0  0  0  0  0  0  0  0  0  0  0  0
  141.7590   75.5320  220.8800 N   0  0  0  0  0  0  0  0  0  0  0  0
  142.7010   75.0260  219.9320 C   0  0  0  0  0  0  0  0  0  0  0  0
  143.5850   73.9830  220.5550 C   0  0  0  0  0  0  0  0  0  0  0  0
  143.5290   72.6410  219.9190 C   0  0  0  0  0  0  0  0  0  0  0  0
  144.9060   72.0350  219.9720 C   0  0  0  0  0  0  0  0  0  0  0  0
  145.7550   73.0430  220.7450 C   0  0  0  0  0  0  0  0  0  0  0  0
  145.0520   74.3740  220.4760 C   0  0  0  0  0  0  0  0  0  0  0  0
  141.0920   74.4610  221.6140 C   0  0  0  0  0  0  0  0  0  0  0  0
  138.5980   74.1510  221.6100 C   0  0  0  0  0  0  0  0  0  0  0  0
  137.7110   75.1470  221.9760 C   0  0  0  0  0  0  0  0  0  0  0  0
  136.5320   74.9060  222.6450 C   0  0  0  0  0  0  0  0  0  0  0  0
  136.2000   73.6220  222.9740 C   0  0  0  0  0  0  0  0  0  0  0  0
  137.0630   72.6040  222.6250 C   0  0  0  0  0  0  0  0  0  0  0  0
  138.2610   72.8400  221.9490 C   0  0  0  0  0  0  0  0  0  0  0  0
  140.7523   72.5167  224.0768 H   0  0  0  0  0  0  0  0  0  0  0  0
  141.1920   71.0919  228.9716 H   0  0  0  0  0  0  0  0  0  0  0  0
  140.2351   68.8007  228.8865 H   0  0  0  0  0  0  0  0  0  0  0  0
  139.4299   67.9207  226.7096 H   0  0  0  0  0  0  0  0  0  0  0  0
  139.1300   68.5840  223.9800 H   0  0  0  0  0  0  0  0  0  0  0  0
  141.0419   72.3231  220.3292 H   0  0  0  0  0  0  0  0  0  0  0  0
  139.5750   72.4275  219.4172 H   0  0  0  0  0  0  0  0  0  0  0  0
  140.2241   74.6145  218.8086 H   0  0  0  0  0  0  0  0  0  0  0  0
  138.7733   75.3420  219.4468 H   0  0  0  0  0  0  0  0  0  0  0  0
  140.9960   76.8383  219.4076 H   0  0  0  0  0  0  0  0  0  0  0  0
  140.1009   76.8796  220.9120 H   0  0  0  0  0  0  0  0  0  0  0  0
  142.1564   74.5782  219.0877 H   0  0  0  0  0  0  0  0  0  0  0  0
  143.3315   75.8584  219.5861 H   0  0  0  0  0  0  0  0  0  0  0  0
  143.1958   73.9275  221.5823 H   0  0  0  0  0  0  0  0  0  0  0  0
  142.8196   72.0006  220.4636 H   0  0  0  0  0  0  0  0  0  0  0  0
  143.1940   72.7300  218.8750 H   0  0  0  0  0  0  0  0  0  0  0  0
  144.8824   71.0679  220.4957 H   0  0  0  0  0  0  0  0  0  0  0  0
  145.3097   71.8407  218.9674 H   0  0  0  0  0  0  0  0  0  0  0  0
  145.7611   72.8107  221.8202 H   0  0  0  0  0  0  0  0  0  0  0  0
  146.8107   73.0435  220.4360 H   0  0  0  0  0  0  0  0  0  0  0  0
  145.3073   75.1219  221.2412 H   0  0  0  0  0  0  0  0  0  0  0  0
  145.3348   74.8378  219.5195 H   0  0  0  0  0  0  0  0  0  0  0  0
  141.7632   73.5932  221.6939 H   0  0  0  0  0  0  0  0  0  0  0  0
  140.8315   74.8056  222.6256 H   0  0  0  0  0  0  0  0  0  0  0  0
  137.9607   76.1870  221.7189 H   0  0  0  0  0  0  0  0  0  0  0  0
  135.8643   75.7384  222.9119 H   0  0  0  0  0  0  0  0  0  0  0  0
  135.2626   73.4043  223.5069 H   0  0  0  0  0  0  0  0  0  0  0  0
  136.7976   71.5696  222.8888 H   0  0  0  0  0  0  0  0  0  0  0  0
  1  2  2  0
  2  3  1  0
  3  4  2  0
  4  5  1  0
  5  6  2  0
  6  7  1  0
  6  8  1  0
  8  9  2  0
  9 10  1  0
 10 11  2  0
 11 12  1  0
  2 13  1  0
 13 14  1  0
 15 14  1  6
 15 16  1  0
 16 17  1  0
 17 18  1  0
 18 19  1  0
 19 20  1  0
 20 21  1  0
 21 22  1  0
 22 23  1  0
 23 24  1  0
 18 25  1  0
 15 26  1  0
 26 27  2  0
 27 28  1  0
 28 29  2  0
 29 30  1  0
 30 31  2  0
 12  3  1  0
 31 13  1  0
 11  5  1  0
 25 15  1  0
 31 26  1  0
 24 20  1  0
  4 32  1  0
  8 33  1  0
  9 34  1  0
 10 35  1  0
 12 36  1  0
 14 37  1  0
 14 38  1  0
 16 39  1  0
 16 40  1  0
 17 41  1  0
 17 42  1  0
 19 43  1  0
 19 44  1  0
 20 45  1  0
 21 46  1  0
 21 47  1  0
 22 48  1  0
 22 49  1  0
 23 50  1  0
 23 51  1  0
 24 52  1  0
 24 53  1  0
 25 54  1  0
 25 55  1  0
 27 56  1  0
 28 57  1  0
 29 58  1  0
 30 59  1  0
M  END
>  <smiles>  (15) 
O=C(c1cc2c(F)cccc2[nH]1)N1C[C@@]2(CCN(CC3CCCC3)C2)c2ccccc21

>  <score_type>  (15) 
oracle

>  <origin>  (15) 
autodockgpu

>  <m_score__min__energy>  (15) 
-8.6600000000000001

>  <m_primary>  (15) 
energy

>  <rmsd>  (15) 
5.051965535238442

>  <m_score__min__rmsd>  (15) 
5.051965535238442

>  <meeko>  (15) 
{"free_energy": -7.82, "intermolecular_energy": -9.01, "internal_energy": -1.72, "cluster_size": 17, "cluster_id": 3, "rank_in_cluster": 16}

>  <energy>  (15) 
-8.62

>  <cluster_rmsd>  (15) 
0.11

>  <cluster>  (15) 
1

$$$$

     RDKit          3D

 59 64  0  0  0  0  0  0  0  0999 V2000
  137.8910   76.3040  222.9740 O   0  0  0  0  0  0  0  0  0  0  0  0
  139.0560   76.3480  222.4580 C   0  0  0  0  0  0  0  0  0  0  0  0
  139.8800   77.5490  222.6770 C   0  0  0  0  0  0  0  0  0  0  0  0
  139.4070   78.8670  222.6090 C   0  0  0  0  0  0  0  0  0  0  0  0
  140.4790   79.6880  222.8810 C   0  0  0  0  0  0  0  0  0  0  0  0
  140.6430   81.0760  222.9650 C   0  0  0  0  0  0  0  0  0  0  0  0
  139.5300   81.8230  222.7310 F   0  0  0  0  0  0  0  0  0  0  0  0
  141.8500   81.6450  223.2650 C   0  0  0  0  0  0  0  0  0  0  0  0
  142.9570   80.8640  223.4980 C   0  0  0  0  0  0  0  0  0  0  0  0
  142.8120   79.4880  223.4180 C   0  0  0  0  0  0  0  0  0  0  0  0
  141.5990   78.8860  223.1140 C   0  0  0  0  0  0  0  0  0  0  0  0
  141.1850   77.6030  222.9790 N   0  0  0  0  0  0  0  0  0  0  0  0
  139.5010   75.2450  221.7070 N   0  0  0  0  0  0  0  0  0  0  0  0
  138.8860   73.9350  221.5370 C   0  0  0  0  0  0  0  0  0  0  0  0
  140.1340   73.0700  221.4680 C   0  0  2  0  0  0  0  0  0  0  0  0
  139.9350   71.8350  220.6170 C   0  0  0  0  0  0  0  0  0  0  0  0
  140.6820   70.7750  221.4180 C   0  0  0  0  0  0  0  0  0  0  0  0
  140.3170   71.0820  222.7860 N   0  0  0  0  0  0  0  0  0  0  0  0
  138.9960   70.6410  223.1010 C   0  0  0  0  0  0  0  0  0  0  0  0
  138.9040   70.1910  224.5320 C   0  0  0  0  0  0  0  0  0  0  0  0
  138.9040   68.7190  224.7340 C   0  0  0  0  0  0  0  0  0  0  0  0
  139.6550   68.4170  226.0040 C   0  0  0  0  0  0  0  0  0  0  0  0
  140.0220   69.7830  226.5830 C   0  0  0  0  0  0  0  0  0  0  0  0
  140.0880   70.6820  225.3500 C   0  0  0  0  0  0  0  0  0  0  0  0
  140.4330   72.5370  222.8210 C   0  0  0  0  0  0  0  0  0  0  0  0
  141.1620   73.8960  220.8370 C   0  0  0  0  0  0  0  0  0  0  0  0
  142.3500   73.6760  220.1650 C   0  0  0  0  0  0  0  0  0  0  0  0
  143.1110   74.6850  219.6170 C   0  0  0  0  0  0  0  0  0  0  0  0
  142.6880   75.9790  219.7310 C   0  0  0  0  0  0  0  0  0  0  0  0
  141.5070   76.2340  220.3960 C   0  0  0  0  0  0  0  0  0  0  0  0
  140.7310   75.2180  220.9560 C   0  0  0  0  0  0  0  0  0  0  0  0
  138.3784   79.1842  222.3822 H   0  0  0  0  0  0  0  0  0  0  0  0
  141.9359   82.7402  223.3205 H   0  0  0  0  0  0  0  0  0  0  0  0
  143.9292   81.3178  223.7408 H   0  0  0  0  0  0  0  0  0  0  0  0
  143.6893   78.8505  223.6020 H   0  0  0  0  0  0  0  0  0  0  0  0
  141.8230   76.7900  223.1030 H   0  0  0  0  0  0  0  0  0  0  0  0
  138.2498   73.6675  222.3936 H   0  0  0  0  0  0  0  0  0  0  0  0
  138.2105   73.8468  220.6733 H   0  0  0  0  0  0  0  0  0  0  0  0
  138.8684   71.5844  220.5194 H   0  0  0  0  0  0  0  0  0  0  0  0
  140.2949   71.9456  219.5835 H   0  0  0  0  0  0  0  0  0  0  0  0
  140.3526   69.7634  221.1386 H   0  0  0  0  0  0  0  0  0  0  0  0
  141.7684   70.7879  221.2462 H   0  0  0  0  0  0  0  0  0  0  0  0
  138.2919   71.4705  222.9390 H   0  0  0  0  0  0  0  0  0  0  0  0
  138.7465   69.7902  222.4499 H   0  0  0  0  0  0  0  0  0  0  0  0
  137.9400   70.6138  224.8513 H   0  0  0  0  0  0  0  0  0  0  0  0
  137.8694   68.3549  224.8179 H   0  0  0  0  0  0  0  0  0  0  0  0
  139.3852   68.2189  223.8806 H   0  0  0  0  0  0  0  0  0  0  0  0
  139.0183   67.8584  226.7058 H   0  0  0  0  0  0  0  0  0  0  0  0
  140.5433   67.7949  225.8199 H   0  0  0  0  0  0  0  0  0  0  0  0
  139.2510   70.1333  227.2851 H   0  0  0  0  0  0  0  0  0  0  0  0
  140.9609   69.7691  227.1559 H   0  0  0  0  0  0  0  0  0  0  0  0
  139.9730   71.7416  225.6222 H   0  0  0  0  0  0  0  0  0  0  0  0
  141.0475   70.6284  224.8148 H   0  0  0  0  0  0  0  0  0  0  0  0
  139.7168   72.9482  223.5476 H   0  0  0  0  0  0  0  0  0  0  0  0
  141.4513   72.8251  223.1212 H   0  0  0  0  0  0  0  0  0  0  0  0
  142.7064   72.6404  220.0625 H   0  0  0  0  0  0  0  0  0  0  0  0
  144.0495   74.4513  219.0931 H   0  0  0  0  0  0  0  0  0  0  0  0
  143.2780   76.8016  219.3007 H   0  0  0  0  0  0  0  0  0  0  0  0
  141.1644   77.2752  220.4883 H   0  0  0  0  0  0  0  0  0  0  0  0
  1  2  2  0
  2  3  1  0
  3  4  2  0
  4  5  1  0
  5  6  2  0
  6  7  1  0
  6  8  1  0
  8  9  2  0
  9 10  1  0
 10 11  2  0
 11 12  1  0
  2 13  1  0
 13 14  1  0
 15 14  1  1
 15 16  1  0
 16 17  1  0
 17 18  1  0
 18 19  1  0
 19 20  1  0
 20 21  1  0
 21 22  1  0
 22 23  1  0
 23 24  1  0
 18 25  1  0
 15 26  1  0
 26 27  2  0
 27 28  1  0
 28 29  2  0
 29 30  1  0
 30 31  2  0
 12  3  1  0
 31 13  1  0
 11  5  1  0
 25 15  1  0
 31 26  1  0
 24 20  1  0
  4 32  1  0
  8 33  1  0
  9 34  1  0
 10 35  1  0
 12 36  1  0
 14 37  1  0
 14 38  1  0
 16 39  1  0
 16 40  1  0
 17 41  1  0
 17 42  1  0
 19 43  1  0
 19 44  1  0
 20 45  1  0
 21 46  1  0
 21 47  1  0
 22 48  1  0
 22 49  1  0
 23 50  1  0
 23 51  1  0
 24 52  1  0
 24 53  1  0
 25 54  1  0
 25 55  1  0
 27 56  1  0
 28 57  1  0
 29 58  1  0
 30 59  1  0
M  END
>  <smiles>  (16) 
O=C(c1cc2c(F)cccc2[nH]1)N1C[C@@]2(CCN(CC3CCCC3)C2)c2ccccc21

>  <score_type>  (16) 
oracle

>  <origin>  (16) 
autodockgpu

>  <m_score__min__energy>  (16) 
-8.6600000000000001

>  <m_primary>  (16) 
energy

>  <rmsd>  (16) 
7.601039088639551

>  <m_score__min__rmsd>  (16) 
7.601039088639551

>  <meeko>  (16) 
{"free_energy": -8.62, "intermolecular_energy": -9.81, "internal_energy": -1.24, "cluster_size": 19, "cluster_id": 1, "rank_in_cluster": 17}

>  <energy>  (16) 
-8.62

>  <cluster_rmsd>  (16) 
0.08

>  <cluster>  (16) 
1

$$$$

     RDKit          3D

 59 64  0  0  0  0  0  0  0  0999 V2000
  139.9050   75.1790  222.3470 O   0  0  0  0  0  0  0  0  0  0  0  0
  140.8240   75.5930  221.5660 C   0  0  0  0  0  0  0  0  0  0  0  0
  141.8500   74.6380  221.1150 C   0  0  0  0  0  0  0  0  0  0  0  0
  141.6360   73.2660  220.9220 C   0  0  0  0  0  0  0  0  0  0  0  0
  142.8320   72.7330  220.4940 C   0  0  0  0  0  0  0  0  0  0  0  0
  143.2490   71.4450  220.1380 C   0  0  0  0  0  0  0  0  0  0  0  0
  142.3060   70.4690  220.2210 F   0  0  0  0  0  0  0  0  0  0  0  0
  144.5300   71.1870  219.7330 C   0  0  0  0  0  0  0  0  0  0  0  0
  145.4620   72.1940  219.6600 C   0  0  0  0  0  0  0  0  0  0  0  0
  145.0640   73.4750  220.0090 C   0  0  0  0  0  0  0  0  0  0  0  0
  143.7720   73.7640  220.4240 C   0  0  0  0  0  0  0  0  0  0  0  0
  143.1300   74.8930  220.8090 N   0  0  0  0  0  0  0  0  0  0  0  0
  140.8110   76.9420  221.1690 N   0  0  0  0  0  0  0  0  0  0  0  0
  140.3670   77.5320  219.9130 C   0  0  0  0  0  0  0  0  0  0  0  0
  141.3770   78.6610  219.7840 C   0  0  2  0  0  0  0  0  0  0  0  0
  140.8180   79.8540  219.0420 C   0  0  0  0  0  0  0  0  0  0  0  0
  142.0070   80.2820  218.1910 C   0  0  0  0  0  0  0  0  0  0  0  0
  142.5520   79.0200  217.7320 N   0  0  0  0  0  0  0  0  0  0  0  0
  141.7760   78.4520  216.6770 C   0  0  0  0  0  0  0  0  0  0  0  0
  142.2570   77.0690  216.3380 C   0  0  0  0  0  0  0  0  0  0  0  0
  143.6920   76.8100  216.6230 C   0  0  0  0  0  0  0  0  0  0  0  0
  143.8320   75.3830  217.0840 C   0  0  0  0  0  0  0  0  0  0  0  0
  142.4270   74.7910  216.9750 C   0  0  0  0  0  0  0  0  0  0  0  0
  141.5180   76.0090  217.1380 C   0  0  0  0  0  0  0  0  0  0  0  0
  142.5120   78.2050  218.9420 C   0  0  0  0  0  0  0  0  0  0  0  0
  141.6880   79.0800  221.1510 C   0  0  0  0  0  0  0  0  0  0  0  0
  142.2060   80.2080  221.7580 C   0  0  0  0  0  0  0  0  0  0  0  0
  142.3450   80.3420  223.1210 C   0  0  0  0  0  0  0  0  0  0  0  0
  141.9540   79.3160  223.9360 C   0  0  0  0  0  0  0  0  0  0  0  0
  141.4340   78.1750  223.3630 C   0  0  0  0  0  0  0  0  0  0  0  0
  141.2920   78.0320  221.9820 C   0  0  0  0  0  0  0  0  0  0  0  0
  140.6944   72.7202  221.0816 H   0  0  0  0  0  0  0  0  0  0  0  0
  144.8175   70.1603  219.4624 H   0  0  0  0  0  0  0  0  0  0  0  0
  146.4927   71.9897  219.3345 H   0  0  0  0  0  0  0  0  0  0  0  0
  145.7988   74.2918  219.9550 H   0  0  0  0  0  0  0  0  0  0  0  0
  143.5990   75.8220  220.8480 H   0  0  0  0  0  0  0  0  0  0  0  0
  140.4412   76.8198  219.0780 H   0  0  0  0  0  0  0  0  0  0  0  0
  139.3132   77.8470  219.8946 H   0  0  0  0  0  0  0  0  0  0  0  0
  139.9599   79.5691  218.4156 H   0  0  0  0  0  0  0  0  0  0  0  0
  140.4354   80.6472  219.7011 H   0  0  0  0  0  0  0  0  0  0  0  0
  141.6829   80.9040  217.3436 H   0  0  0  0  0  0  0  0  0  0  0  0
  142.7363   80.8936  218.7424 H   0  0  0  0  0  0  0  0  0  0  0  0
  140.7236   78.3994  216.9929 H   0  0  0  0  0  0  0  0  0  0  0  0
  141.8797   79.0872  215.7850 H   0  0  0  0  0  0  0  0  0  0  0  0
  142.0739   77.0135  215.2548 H   0  0  0  0  0  0  0  0  0  0  0  0
  144.2866   76.9663  215.7108 H   0  0  0  0  0  0  0  0  0  0  0  0
  144.0540   77.4973  217.4018 H   0  0  0  0  0  0  0  0  0  0  0  0
  144.5334   74.8351  216.4375 H   0  0  0  0  0  0  0  0  0  0  0  0
  144.2293   75.3171  218.1076 H   0  0  0  0  0  0  0  0  0  0  0  0
  142.2752   74.3144  215.9953 H   0  0  0  0  0  0  0  0  0  0  0  0
  142.2320   74.0058  217.7203 H   0  0  0  0  0  0  0  0  0  0  0  0
  140.5180   75.8193  216.7209 H   0  0  0  0  0  0  0  0  0  0  0  0
  141.3400   76.2906  218.1864 H   0  0  0  0  0  0  0  0  0  0  0  0
  142.3717   77.1479  218.6721 H   0  0  0  0  0  0  0  0  0  0  0  0
  143.4564   78.3093  219.4963 H   0  0  0  0  0  0  0  0  0  0  0  0
  142.5244   81.0438  221.1177 H   0  0  0  0  0  0  0  0  0  0  0  0
  142.7657   81.2636  223.5495 H   0  0  0  0  0  0  0  0  0  0  0  0
  142.0525   79.3995  225.0284 H   0  0  0  0  0  0  0  0  0  0  0  0
  141.1200   77.3483  224.0172 H   0  0  0  0  0  0  0  0  0  0  0  0
  1  2  2  0
  2  3  1  0
  3  4  2  0
  4  5  1  0
  5  6  2  0
  6  7  1  0
  6  8  1  0
  8  9  2  0
  9 10  1  0
 10 11  2  0
 11 12  1  0
  2 13  1  0
 13 14  1  0
 15 14  1  1
 15 16  1  0
 16 17  1  0
 17 18  1  0
 18 19  1  0
 19 20  1  0
 20 21  1  0
 21 22  1  0
 22 23  1  0
 23 24  1  0
 18 25  1  0
 15 26  1  0
 26 27  2  0
 27 28  1  0
 28 29  2  0
 29 30  1  0
 30 31  2  0
 12  3  1  0
 31 13  1  0
 11  5  1  0
 25 15  1  0
 31 26  1  0
 24 20  1  0
  4 32  1  0
  8 33  1  0
  9 34  1  0
 10 35  1  0
 12 36  1  0
 14 37  1  0
 14 38  1  0
 16 39  1  0
 16 40  1  0
 17 41  1  0
 17 42  1  0
 19 43  1  0
 19 44  1  0
 20 45  1  0
 21 46  1  0
 21 47  1  0
 22 48  1  0
 22 49  1  0
 23 50  1  0
 23 51  1  0
 24 52  1  0
 24 53  1  0
 25 54  1  0
 25 55  1  0
 27 56  1  0
 28 57  1  0
 29 58  1  0
 30 59  1  0
M  END
>  <smiles>  (17) 
O=C(c1cc2c(F)cccc2[nH]1)N1C[C@@]2(CCN(CC3CCCC3)C2)c2ccccc21

>  <score_type>  (17) 
oracle

>  <origin>  (17) 
autodockgpu

>  <m_score__min__energy>  (17) 
-8.6600000000000001

>  <m_primary>  (17) 
energy

>  <rmsd>  (17) 
5.879335264772194

>  <m_score__min__rmsd>  (17) 
5.879335264772194

>  <meeko>  (17) 
{"free_energy": -7.38, "intermolecular_energy": -8.57, "internal_energy": -2.11, "cluster_size": 6, "cluster_id": 5, "rank_in_cluster": 6}

>  <energy>  (17) 
-8.62

>  <cluster_rmsd>  (17) 
0.12

>  <cluster>  (17) 
1

$$$$

     RDKit          3D

 59 64  0  0  0  0  0  0  0  0999 V2000
  137.8900   76.2740  223.0140 O   0  0  0  0  0  0  0  0  0  0  0  0
  139.0500   76.3270  222.4870 C   0  0  0  0  0  0  0  0  0  0  0  0
  139.8670   77.5330  222.7000 C   0  0  0  0  0  0  0  0  0  0  0  0
  139.3830   78.8470  222.6440 C   0  0  0  0  0  0  0  0  0  0  0  0
  140.4520   79.6770  222.9040 C   0  0  0  0  0  0  0  0  0  0  0  0
  140.6050   81.0650  222.9920 C   0  0  0  0  0  0  0  0  0  0  0  0
  139.4830   81.8030  222.7770 F   0  0  0  0  0  0  0  0  0  0  0  0
  141.8120   81.6430  223.2760 C   0  0  0  0  0  0  0  0  0  0  0  0
  142.9290   80.8700  223.4880 C   0  0  0  0  0  0  0  0  0  0  0  0
  142.7940   79.4930  223.4040 C   0  0  0  0  0  0  0  0  0  0  0  0
  141.5820   78.8830  223.1170 C   0  0  0  0  0  0  0  0  0  0  0  0
  141.1760   77.5970  222.9820 N   0  0  0  0  0  0  0  0  0  0  0  0
  139.4950   75.2270  221.7320 N   0  0  0  0  0  0  0  0  0  0  0  0
  138.8790   73.9190  221.5540 C   0  0  0  0  0  0  0  0  0  0  0  0
  140.1270   73.0520  221.4850 C   0  0  2  0  0  0  0  0  0  0  0  0
  139.9290   71.8220  220.6260 C   0  0  0  0  0  0  0  0  0  0  0  0
  140.6720   70.7570  221.4240 C   0  0  0  0  0  0  0  0  0  0  0  0
  140.3030   71.0570  222.7930 N   0  0  0  0  0  0  0  0  0  0  0  0
  138.9790   70.6170  223.1010 C   0  0  0  0  0  0  0  0  0  0  0  0
  138.8820   70.1600  224.5290 C   0  0  0  0  0  0  0  0  0  0  0  0
  138.8730   68.6870  224.7250 C   0  0  0  0  0  0  0  0  0  0  0  0
  139.6200   68.3740  225.9940 C   0  0  0  0  0  0  0  0  0  0  0  0
  139.9930   69.7350  226.5810 C   0  0  0  0  0  0  0  0  0  0  0  0
  140.0670   70.6400  225.3520 C   0  0  0  0  0  0  0  0  0  0  0  0
  140.4200   72.5120  222.8360 C   0  0  0  0  0  0  0  0  0  0  0  0
  141.1580   73.8800  220.8600 C   0  0  0  0  0  0  0  0  0  0  0  0
  142.3480   73.6620  220.1920 C   0  0  0  0  0  0  0  0  0  0  0  0
  143.1120   74.6720  219.6510 C   0  0  0  0  0  0  0  0  0  0  0  0
  142.6900   75.9670  219.7710 C   0  0  0  0  0  0  0  0  0  0  0  0
  141.5070   76.2200  220.4330 C   0  0  0  0  0  0  0  0  0  0  0  0
  140.7280   75.2020  220.9850 C   0  0  0  0  0  0  0  0  0  0  0  0
  138.3487   79.1564  222.4331 H   0  0  0  0  0  0  0  0  0  0  0  0
  141.8897   82.7386  223.3354 H   0  0  0  0  0  0  0  0  0  0  0  0
  143.9012   81.3307  223.7175 H   0  0  0  0  0  0  0  0  0  0  0  0
  143.6793   78.8619  223.5709 H   0  0  0  0  0  0  0  0  0  0  0  0
  141.8220   76.7890  223.0930 H   0  0  0  0  0  0  0  0  0  0  0  0
  138.2397   73.6484  222.4073 H   0  0  0  0  0  0  0  0  0  0  0  0
  138.2062   73.8357  220.6877 H   0  0  0  0  0  0  0  0  0  0  0  0
  138.8624   71.5733  220.5234 H   0  0  0  0  0  0  0  0  0  0  0  0
  140.2922   71.9378  219.5942 H   0  0  0  0  0  0  0  0  0  0  0  0
  140.3423   69.7473  221.1381 H   0  0  0  0  0  0  0  0  0  0  0  0
  141.7590   70.7697  221.2559 H   0  0  0  0  0  0  0  0  0  0  0  0
  138.2772   71.4488  222.9410 H   0  0  0  0  0  0  0  0  0  0  0  0
  138.7294   69.7705  222.4444 H   0  0  0  0  0  0  0  0  0  0  0  0
  137.9195   70.5867  224.8475 H   0  0  0  0  0  0  0  0  0  0  0  0
  137.8361   68.3289  224.8059 H   0  0  0  0  0  0  0  0  0  0  0  0
  139.3529   68.1881  223.8701 H   0  0  0  0  0  0  0  0  0  0  0  0
  138.9792   67.8148  226.6917 H   0  0  0  0  0  0  0  0  0  0  0  0
  140.5053   67.7482  225.8080 H   0  0  0  0  0  0  0  0  0  0  0  0
  139.2222   70.0860  227.2829 H   0  0  0  0  0  0  0  0  0  0  0  0
  140.9303   69.7132  227.1564 H   0  0  0  0  0  0  0  0  0  0  0  0
  139.9576   71.6989  225.6291 H   0  0  0  0  0  0  0  0  0  0  0  0
  141.0274   70.5834  224.8187 H   0  0  0  0  0  0  0  0  0  0  0  0
  139.7012   72.9201  223.5618 H   0  0  0  0  0  0  0  0  0  0  0  0
  141.4372   72.7978  223.1418 H   0  0  0  0  0  0  0  0  0  0  0  0
  142.7039   72.6265  220.0868 H   0  0  0  0  0  0  0  0  0  0  0  0
  144.0514   74.4395  219.1281 H   0  0  0  0  0  0  0  0  0  0  0  0
  143.2828   76.7912  219.3476 H   0  0  0  0  0  0  0  0  0  0  0  0
  141.1652   77.2611  220.5294 H   0  0  0  0  0  0  0  0  0  0  0  0
  1  2  2  0
  2  3  1  0
  3  4  2  0
  4  5  1  0
  5  6  2  0
  6  7  1  0
  6  8  1  0
  8  9  2  0
  9 10  1  0
 10 11  2  0
 11 12  1  0
  2 13  1  0
 13 14  1  0
 15 14  1  1
 15 16  1  0
 16 17  1  0
 17 18  1  0
 18 19  1  0
 19 20  1  0
 20 21  1  0
 21 22  1  0
 22 23  1  0
 23 24  1  0
 18 25  1  0
 15 26  1  0
 26 27  2  0
 27 28  1  0
 28 29  2  0
 29 30  1  0
 30 31  2  0
 12  3  1  0
 31 13  1  0
 11  5  1  0
 25 15  1  0
 31 26  1  0
 24 20  1  0
  4 32  1  0
  8 33  1  0
  9 34  1  0
 10 35  1  0
 12 36  1  0
 14 37  1  0
 14 38  1  0
 16 39  1  0
 16 40  1  0
 17 41  1  0
 17 42  1  0
 19 43  1  0
 19 44  1  0
 20 45  1  0
 21 46  1  0
 21 47  1  0
 22 48  1  0
 22 49  1  0
 23 50  1  0
 23 51  1  0
 24 52  1  0
 24 53  1  0
 25 54  1  0
 25 55  1  0
 27 56  1  0
 28 57  1  0
 29 58  1  0
 30 59  1  0
M  END
>  <smiles>  (18) 
O=C(c1cc2c(F)cccc2[nH]1)N1C[C@@]2(CCN(CC3CCCC3)C2)c2ccccc21

>  <score_type>  (18) 
oracle

>  <origin>  (18) 
autodockgpu

>  <m_score__min__energy>  (18) 
-8.6600000000000001

>  <m_primary>  (18) 
energy

>  <rmsd>  (18) 
7.597445841408197

>  <m_score__min__rmsd>  (18) 
7.597445841408197

>  <meeko>  (18) 
{"free_energy": -8.63, "intermolecular_energy": -9.82, "internal_energy": -1.24, "cluster_size": 19, "cluster_id": 1, "rank_in_cluster": 12}

>  <energy>  (18) 
-8.61

>  <cluster_rmsd>  (18) 
0.12

>  <cluster>  (18) 
1

$$$$

     RDKit          3D

 59 64  0  0  0  0  0  0  0  0999 V2000
  139.5590   69.8660  221.6190 O   0  0  0  0  0  0  0  0  0  0  0  0
  139.5910   70.9490  222.2910 C   0  0  0  0  0  0  0  0  0  0  0  0
  139.9210   70.8800  223.7240 C   0  0  0  0  0  0  0  0  0  0  0  0
  139.9090   69.7070  224.4920 C   0  0  0  0  0  0  0  0  0  0  0  0
  140.2800   70.0650  225.7700 C   0  0  0  0  0  0  0  0  0  0  0  0
  140.4540   69.3560  226.9650 C   0  0  0  0  0  0  0  0  0  0  0  0
  140.2120   68.0190  226.9060 F   0  0  0  0  0  0  0  0  0  0  0  0
  140.8440   69.9750  228.1220 C   0  0  0  0  0  0  0  0  0  0  0  0
  141.0810   71.3280  228.1500 C   0  0  0  0  0  0  0  0  0  0  0  0
  140.9130   72.0440  226.9750 C   0  0  0  0  0  0  0  0  0  0  0  0
  140.5170   71.4410  225.7900 C   0  0  0  0  0  0  0  0  0  0  0  0
  140.2870   71.8870  224.5310 N   0  0  0  0  0  0  0  0  0  0  0  0
  139.3150   72.1590  221.6290 N   0  0  0  0  0  0  0  0  0  0  0  0
  140.0000   72.7710  220.4990 C   0  0  0  0  0  0  0  0  0  0  0  0
  139.8670   74.2380  220.8770 C   0  0  2  0  0  0  0  0  0  0  0  0
  139.8110   75.1430  219.6670 C   0  0  0  0  0  0  0  0  0  0  0  0
  140.6560   76.3270  220.1190 C   0  0  0  0  0  0  0  0  0  0  0  0
  141.7620   75.6950  220.8090 N   0  0  0  0  0  0  0  0  0  0  0  0
  142.7120   75.1360  219.9010 C   0  0  0  0  0  0  0  0  0  0  0  0
  143.5500   74.0870  220.5760 C   0  0  0  0  0  0  0  0  0  0  0  0
  143.4400   72.7210  220.0010 C   0  0  0  0  0  0  0  0  0  0  0  0
  144.7900   72.0610  220.0890 C   0  0  0  0  0  0  0  0  0  0  0  0
  145.6780   73.0670  220.8200 C   0  0  0  0  0  0  0  0  0  0  0  0
  145.0330   74.4120  220.4870 C   0  0  0  0  0  0  0  0  0  0  0  0
  141.0900   74.6680  221.5990 C   0  0  0  0  0  0  0  0  0  0  0  0
  138.5950   74.3540  221.5910 C   0  0  0  0  0  0  0  0  0  0  0  0
  137.7050   75.3680  221.8910 C   0  0  0  0  0  0  0  0  0  0  0  0
  136.5200   75.1650  222.5620 C   0  0  0  0  0  0  0  0  0  0  0  0
  136.1870   73.9010  222.9630 C   0  0  0  0  0  0  0  0  0  0  0  0
  137.0540   72.8660  222.6810 C   0  0  0  0  0  0  0  0  0  0  0  0
  138.2570   73.0650  222.0030 C   0  0  0  0  0  0  0  0  0  0  0  0
  139.6529   68.6961  224.1420 H   0  0  0  0  0  0  0  0  0  0  0  0
  140.9691   69.3822  229.0401 H   0  0  0  0  0  0  0  0  0  0  0  0
  141.3949   71.8285  229.0778 H   0  0  0  0  0  0  0  0  0  0  0  0
  141.1002   73.1279  226.9824 H   0  0  0  0  0  0  0  0  0  0  0  0
  140.3910   72.8860  224.2600 H   0  0  0  0  0  0  0  0  0  0  0  0
  141.0528   72.4577  220.4407 H   0  0  0  0  0  0  0  0  0  0  0  0
  139.5941   72.5071  219.5113 H   0  0  0  0  0  0  0  0  0  0  0  0
  140.2467   74.6554  218.7825 H   0  0  0  0  0  0  0  0  0  0  0  0
  138.7895   75.4166  219.3642 H   0  0  0  0  0  0  0  0  0  0  0  0
  141.0102   76.9116  219.2571 H   0  0  0  0  0  0  0  0  0  0  0  0
  140.1024   77.0386  220.7491 H   0  0  0  0  0  0  0  0  0  0  0  0
  142.1761   74.6793  219.0558 H   0  0  0  0  0  0  0  0  0  0  0  0
  143.3746   75.9401  219.5482 H   0  0  0  0  0  0  0  0  0  0  0  0
  143.1557   74.0955  221.6029 H   0  0  0  0  0  0  0  0  0  0  0  0
  142.7023   72.1362  220.5700 H   0  0  0  0  0  0  0  0  0  0  0  0
  143.1129   72.7765  218.9522 H   0  0  0  0  0  0  0  0  0  0  0  0
  144.7239   71.1207  220.6560 H   0  0  0  0  0  0  0  0  0  0  0  0
  145.1887   71.8042  219.0965 H   0  0  0  0  0  0  0  0  0  0  0  0
  145.6704   72.8841  221.9047 H   0  0  0  0  0  0  0  0  0  0  0  0
  146.7339   73.0091  220.5171 H   0  0  0  0  0  0  0  0  0  0  0  0
  145.3171   75.1828  221.2186 H   0  0  0  0  0  0  0  0  0  0  0  0
  145.3384   74.8191  219.5118 H   0  0  0  0  0  0  0  0  0  0  0  0
  141.7613   73.8074  221.7354 H   0  0  0  0  0  0  0  0  0  0  0  0
  140.8206   75.0707  222.5865 H   0  0  0  0  0  0  0  0  0  0  0  0
  137.9568   76.3917  221.5770 H   0  0  0  0  0  0  0  0  0  0  0  0
  135.8486   76.0104  222.7731 H   0  0  0  0  0  0  0  0  0  0  0  0
  135.2457   73.7131  223.5002 H   0  0  0  0  0  0  0  0  0  0  0  0
  136.7876   71.8481  223.0019 H   0  0  0  0  0  0  0  0  0  0  0  0
  1  2  2  0
  2  3  1  0
  3  4  2  0
  4  5  1  0
  5  6  2  0
  6  7  1  0
  6  8  1  0
  8  9  2  0
  9 10  1  0
 10 11  2  0
 11 12  1  0
  2 13  1  0
 13 14  1  0
 15 14  1  6
 15 16  1  0
 16 17  1  0
 17 18  1  0
 18 19  1  0
 19 20  1  0
 20 21  1  0
 21 22  1  0
 22 23  1  0
 23 24  1  0
 18 25  1  0
 15 26  1  0
 26 27  2  0
 27 28  1  0
 28 29  2  0
 29 30  1  0
 30 31  2  0
 12  3  1  0
 31 13  1  0
 11  5  1  0
 25 15  1  0
 31 26  1  0
 24 20  1  0
  4 32  1  0
  8 33  1  0
  9 34  1  0
 10 35  1  0
 12 36  1  0
 14 37  1  0
 14 38  1  0
 16 39  1  0
 16 40  1  0
 17 41  1  0
 17 42  1  0
 19 43  1  0
 19 44  1  0
 20 45  1  0
 21 46  1  0
 21 47  1  0
 22 48  1  0
 22 49  1  0
 23 50  1  0
 23 51  1  0
 24 52  1  0
 24 53  1  0
 25 54  1  0
 25 55  1  0
 27 56  1  0
 28 57  1  0
 29 58  1  0
 30 59  1  0
M  END
>  <smiles>  (19) 
O=C(c1cc2c(F)cccc2[nH]1)N1C[C@@]2(CCN(CC3CCCC3)C2)c2ccccc21

>  <score_type>  (19) 
oracle

>  <origin>  (19) 
autodockgpu

>  <m_score__min__energy>  (19) 
-8.6600000000000001

>  <m_primary>  (19) 
energy

>  <rmsd>  (19) 
5.010219669385791

>  <m_score__min__rmsd>  (19) 
5.010219669385791

>  <meeko>  (19) 
{"free_energy": -8.02, "intermolecular_energy": -9.21, "internal_energy": -1.64, "cluster_size": 17, "cluster_id": 3, "rank_in_cluster": 5}

>  <energy>  (19) 
-8.59

>  <cluster_rmsd>  (19) 
0.21

>  <cluster>  (19) 
1

$$$$

     RDKit          3D

 59 64  0  0  0  0  0  0  0  0999 V2000
  133.7520   69.2140  226.4760 O   0  0  0  0  0  0  0  0  0  0  0  0
  134.2150   70.1710  225.7720 C   0  0  0  0  0  0  0  0  0  0  0  0
  133.8150   71.5490  226.1050 C   0  0  0  0  0  0  0  0  0  0  0  0
  134.4100   72.7040  225.5800 C   0  0  0  0  0  0  0  0  0  0  0  0
  133.7480   73.7790  226.1320 C   0  0  0  0  0  0  0  0  0  0  0  0
  133.8710   75.1670  226.0030 C   0  0  0  0  0  0  0  0  0  0  0  0
  134.8480   75.6020  225.1620 F   0  0  0  0  0  0  0  0  0  0  0  0
  133.0580   76.0320  226.6820 C   0  0  0  0  0  0  0  0  0  0  0  0
  132.0790   75.5620  227.5250 C   0  0  0  0  0  0  0  0  0  0  0  0
  131.9440   74.1900  227.6650 C   0  0  0  0  0  0  0  0  0  0  0  0
  132.7570   73.2910  226.9880 C   0  0  0  0  0  0  0  0  0  0  0  0
  132.8380   71.9400  226.9370 N   0  0  0  0  0  0  0  0  0  0  0  0
  135.0900   69.8660  224.7150 N   0  0  0  0  0  0  0  0  0  0  0  0
  136.2870   69.0350  224.7170 C   0  0  0  0  0  0  0  0  0  0  0  0
  137.1410   69.8080  223.7240 C   0  0  2  0  0  0  0  0  0  0  0  0
  138.0960   68.9140  222.9640 C   0  0  0  0  0  0  0  0  0  0  0  0
  139.3530   69.7720  222.9060 C   0  0  0  0  0  0  0  0  0  0  0  0
  139.4130   70.3550  224.2320 N   0  0  0  0  0  0  0  0  0  0  0  0
  139.8810   69.4220  225.2070 C   0  0  0  0  0  0  0  0  0  0  0  0
  140.7380   70.1030  226.2360 C   0  0  0  0  0  0  0  0  0  0  0  0
  141.0370   71.5330  225.9670 C   0  0  0  0  0  0  0  0  0  0  0  0
  141.0730   72.2650  227.2820 C   0  0  0  0  0  0  0  0  0  0  0  0
  140.8680   71.1840  228.3440 C   0  0  0  0  0  0  0  0  0  0  0  0
  140.0720   70.1100  227.6030 C   0  0  0  0  0  0  0  0  0  0  0  0
  138.0250   70.7420  224.4650 C   0  0  0  0  0  0  0  0  0  0  0  0
  136.2070   70.3970  222.7630 C   0  0  0  0  0  0  0  0  0  0  0  0
  136.2760   70.8880  221.4730 C   0  0  0  0  0  0  0  0  0  0  0  0
  135.1820   71.3510  220.7770 C   0  0  0  0  0  0  0  0  0  0  0  0
  133.9530   71.3320  221.3750 C   0  0  0  0  0  0  0  0  0  0  0  0
  133.8490   70.8490  222.6620 C   0  0  0  0  0  0  0  0  0  0  0  0
  134.9530   70.3800  223.3750 C   0  0  0  0  0  0  0  0  0  0  0  0
  135.2448   72.7446  224.8649 H   0  0  0  0  0  0  0  0  0  0  0  0
  133.1889   77.1164  226.5521 H   0  0  0  0  0  0  0  0  0  0  0  0
  131.4223   76.2545  228.0721 H   0  0  0  0  0  0  0  0  0  0  0  0
  131.1651   73.7993  228.3363 H   0  0  0  0  0  0  0  0  0  0  0  0
  132.2080   71.3170  227.4830 H   0  0  0  0  0  0  0  0  0  0  0  0
  136.7539   68.9928  225.7121 H   0  0  0  0  0  0  0  0  0  0  0  0
  136.1198   67.9780  224.4626 H   0  0  0  0  0  0  0  0  0  0  0  0
  138.2786   67.9733  223.5041 H   0  0  0  0  0  0  0  0  0  0  0  0
  137.7236   68.6048  221.9762 H   0  0  0  0  0  0  0  0  0  0  0  0
  140.2423   69.1568  222.7042 H   0  0  0  0  0  0  0  0  0  0  0  0
  139.3274   70.5237  222.1033 H   0  0  0  0  0  0  0  0  0  0  0  0
  139.0168   68.9604  225.7071 H   0  0  0  0  0  0  0  0  0  0  0  0
  140.4857   68.6569  224.6980 H   0  0  0  0  0  0  0  0  0  0  0  0
  141.6653   69.5125  226.1981 H   0  0  0  0  0  0  0  0  0  0  0  0
  142.0122   71.6210  225.4657 H   0  0  0  0  0  0  0  0  0  0  0  0
  140.2641   71.9650  225.3143 H   0  0  0  0  0  0  0  0  0  0  0  0
  142.0438   72.7634  227.4203 H   0  0  0  0  0  0  0  0  0  0  0  0
  140.3045   73.0500  227.3385 H   0  0  0  0  0  0  0  0  0  0  0  0
  141.8325   70.7881  228.6946 H   0  0  0  0  0  0  0  0  0  0  0  0
  140.3556   71.5558  229.2436 H   0  0  0  0  0  0  0  0  0  0  0  0
  140.1657   69.1318  228.0974 H   0  0  0  0  0  0  0  0  0  0  0  0
  138.9906   70.3081  227.5665 H   0  0  0  0  0  0  0  0  0  0  0  0
  137.8013   70.6889  225.5407 H   0  0  0  0  0  0  0  0  0  0  0  0
  137.8590   71.7720  224.1164 H   0  0  0  0  0  0  0  0  0  0  0  0
  137.2570   70.9101  220.9759 H   0  0  0  0  0  0  0  0  0  0  0  0
  135.2957   71.7319  219.7513 H   0  0  0  0  0  0  0  0  0  0  0  0
  133.0636   71.6953  220.8393 H   0  0  0  0  0  0  0  0  0  0  0  0
  132.8604   70.8327  223.1441 H   0  0  0  0  0  0  0  0  0  0  0  0
  1  2  2  0
  2  3  1  0
  3  4  2  0
  4  5  1  0
  5  6  2  0
  6  7  1  0
  6  8  1  0
  8  9  2  0
  9 10  1  0
 10 11  2  0
 11 12  1  0
  2 13  1  0
 13 14  1  0
 15 14  1  1
 15 16  1  0
 16 17  1  0
 17 18  1  0
 18 19  1  0
 19 20  1  0
 20 21  1  0
 21 22  1  0
 22 23  1  0
 23 24  1  0
 18 25  1  0
 15 26  1  0
 26 27  2  0
 27 28  1  0
 28 29  2  0
 29 30  1  0
 30 31  2  0
 12  3  1  0
 31 13  1  0
 11  5  1  0
 25 15  1  0
 31 26  1  0
 24 20  1  0
  4 32  1  0
  8 33  1  0
  9 34  1  0
 10 35  1  0
 12 36  1  0
 14 37  1  0
 14 38  1  0
 16 39  1  0
 16 40  1  0
 17 41  1  0
 17 42  1  0
 19 43  1  0
 19 44  1  0
 20 45  1  0
 21 46  1  0
 21 47  1  0
 22 48  1  0
 22 49  1  0
 23 50  1  0
 23 51  1  0
 24 52  1  0
 24 53  1  0
 25 54  1  0
 25 55  1  0
 27 56  1  0
 28 57  1  0
 29 58  1  0
 30 59  1  0
M  END
>  <smiles>  (20) 
O=C(c1cc2c(F)cccc2[nH]1)N1C[C@@]2(CCN(CC3CCCC3)C2)c2ccccc21

>  <score_type>  (20) 
oracle

>  <origin>  (20) 
autodockgpu

>  <m_score__min__energy>  (20) 
-8.6600000000000001

>  <m_primary>  (20) 
energy

>  <rmsd>  (20) 
8.986472106944502

>  <m_score__min__rmsd>  (20) 
8.986472106944502

>  <meeko>  (20) 
{"free_energy": -7.7, "intermolecular_energy": -8.89, "internal_energy": -1.59, "cluster_size": 1, "cluster_id": 4, "rank_in_cluster": 1}

>  <energy>  (20) 
-8.17

>  <cluster_rmsd>  (20) 
0.0

>  <cluster>  (20) 
2

$$$$

     RDKit          3D

 59 64  0  0  0  0  0  0  0  0999 V2000
  137.8470   76.3320  222.9130 O   0  0  0  0  0  0  0  0  0  0  0  0
  139.0260   76.3700  222.4280 C   0  0  0  0  0  0  0  0  0  0  0  0
  139.8490   77.5660  222.6710 C   0  0  0  0  0  0  0  0  0  0  0  0
  139.3770   78.8850  222.6290 C   0  0  0  0  0  0  0  0  0  0  0  0
  140.4490   79.7020  222.9160 C   0  0  0  0  0  0  0  0  0  0  0  0
  140.6120   81.0880  223.0270 C   0  0  0  0  0  0  0  0  0  0  0  0
  139.5000   81.8380  222.8090 F   0  0  0  0  0  0  0  0  0  0  0  0
  141.8200   81.6500  223.3370 C   0  0  0  0  0  0  0  0  0  0  0  0
  142.9280   80.8650  223.5530 C   0  0  0  0  0  0  0  0  0  0  0  0
  142.7820   79.4910  223.4470 C   0  0  0  0  0  0  0  0  0  0  0  0
  141.5690   78.8950  223.1320 C   0  0  0  0  0  0  0  0  0  0  0  0
  141.1550   77.6150  222.9730 N   0  0  0  0  0  0  0  0  0  0  0  0
  139.4840   75.2650  221.6890 N   0  0  0  0  0  0  0  0  0  0  0  0
  138.8760   73.9530  221.5160 C   0  0  0  0  0  0  0  0  0  0  0  0
  140.1270   73.0900  221.4700 C   0  0  2  0  0  0  0  0  0  0  0  0
  139.9440   71.8510  220.6220 C   0  0  0  0  0  0  0  0  0  0  0  0
  140.6820   70.7980  221.4390 C   0  0  0  0  0  0  0  0  0  0  0  0
  140.2960   71.1090  222.8000 N   0  0  0  0  0  0  0  0  0  0  0  0
  138.9710   70.6660  223.0960 C   0  0  0  0  0  0  0  0  0  0  0  0
  138.8670   70.1920  224.5190 C   0  0  0  0  0  0  0  0  0  0  0  0
  138.8580   68.7160  224.6960 C   0  0  0  0  0  0  0  0  0  0  0  0
  139.5990   68.3890  225.9650 C   0  0  0  0  0  0  0  0  0  0  0  0
  139.9680   69.7430  226.5710 C   0  0  0  0  0  0  0  0  0  0  0  0
  140.0470   70.6630  225.3530 C   0  0  0  0  0  0  0  0  0  0  0  0
  140.4070   72.5650  222.8300 C   0  0  0  0  0  0  0  0  0  0  0  0
  141.1630   73.9170  220.8500 C   0  0  0  0  0  0  0  0  0  0  0  0
  142.3610   73.6970  220.1980 C   0  0  0  0  0  0  0  0  0  0  0  0
  143.1280   74.7050  219.6560 C   0  0  0  0  0  0  0  0  0  0  0  0
  142.6990   75.9990  219.7590 C   0  0  0  0  0  0  0  0  0  0  0  0
  141.5070   76.2540  220.4050 C   0  0  0  0  0  0  0  0  0  0  0  0
  140.7260   75.2380  220.9570 C   0  0  0  0  0  0  0  0  0  0  0  0
  138.3482   79.2064  222.4091 H   0  0  0  0  0  0  0  0  0  0  0  0
  141.9061   82.7439  223.4145 H   0  0  0  0  0  0  0  0  0  0  0  0
  143.9007   81.3140  223.8023 H   0  0  0  0  0  0  0  0  0  0  0  0
  143.6591   78.8498  223.6187 H   0  0  0  0  0  0  0  0  0  0  0  0
  141.7930   76.8000  223.0800 H   0  0  0  0  0  0  0  0  0  0  0  0
  138.2275   73.6880  222.3641 H   0  0  0  0  0  0  0  0  0  0  0  0
  138.2145   73.8591  220.6422 H   0  0  0  0  0  0  0  0  0  0  0  0
  138.8797   71.5967  220.5099 H   0  0  0  0  0  0  0  0  0  0  0  0
  140.3184   71.9577  219.5932 H   0  0  0  0  0  0  0  0  0  0  0  0
  140.3604   69.7840  221.1591 H   0  0  0  0  0  0  0  0  0  0  0  0
  141.7708   70.8146  221.2836 H   0  0  0  0  0  0  0  0  0  0  0  0
  138.2701   71.4998  222.9424 H   0  0  0  0  0  0  0  0  0  0  0  0
  138.7243   69.8274  222.4282 H   0  0  0  0  0  0  0  0  0  0  0  0
  137.9030   70.6142  224.8390 H   0  0  0  0  0  0  0  0  0  0  0  0
  137.8210   68.3560  224.7672 H   0  0  0  0  0  0  0  0  0  0  0  0
  139.3420   68.2278  223.8373 H   0  0  0  0  0  0  0  0  0  0  0  0
  138.9553   67.8207  226.6525 H   0  0  0  0  0  0  0  0  0  0  0  0
  140.4861   67.7668  225.7755 H   0  0  0  0  0  0  0  0  0  0  0  0
  139.1935   70.0847  227.2734 H   0  0  0  0  0  0  0  0  0  0  0  0
  140.9023   69.7150  227.1509 H   0  0  0  0  0  0  0  0  0  0  0  0
  139.9352   71.7184  225.6422 H   0  0  0  0  0  0  0  0  0  0  0  0
  141.0100   70.6137  224.8236 H   0  0  0  0  0  0  0  0  0  0  0  0
  139.6785   72.9775  223.5436 H   0  0  0  0  0  0  0  0  0  0  0  0
  141.4195   72.8581  223.1446 H   0  0  0  0  0  0  0  0  0  0  0  0
  142.7217   72.6618  220.1067 H   0  0  0  0  0  0  0  0  0  0  0  0
  144.0744   74.4714  219.1464 H   0  0  0  0  0  0  0  0  0  0  0  0
  143.2933   76.8216  219.3346 H   0  0  0  0  0  0  0  0  0  0  0  0
  141.1602   77.2946  220.4878 H   0  0  0  0  0  0  0  0  0  0  0  0
  1  2  2  0
  2  3  1  0
  3  4  2  0
  4  5  1  0
  5  6  2  0
  6  7  1  0
  6  8  1  0
  8  9  2  0
  9 10  1  0
 10 11  2  0
 11 12  1  0
  2 13  1  0
 13 14  1  0
 15 14  1  1
 15 16  1  0
 16 17  1  0
 17 18  1  0
 18 19  1  0
 19 20  1  0
 20 21  1  0
 21 22  1  0
 22 23  1  0
 23 24  1  0
 18 25  1  0
 15 26  1  0
 26 27  2  0
 27 28  1  0
 28 29  2  0
 29 30  1  0
 30 31  2  0
 12  3  1  0
 31 13  1  0
 11  5  1  0
 25 15  1  0
 31 26  1  0
 24 20  1  0
  4 32  1  0
  8 33  1  0
  9 34  1  0
 10 35  1  0
 12 36  1  0
 14 37  1  0
 14 38  1  0
 16 39  1  0
 16 40  1  0
 17 41  1  0
 17 42  1  0
 19 43  1  0
 19 44  1  0
 20 45  1  0
 21 46  1  0
 21 47  1  0
 22 48  1  0
 22 49  1  0
 23 50  1  0
 23 51  1  0
 24 52  1  0
 24 53  1  0
 25 54  1  0
 25 55  1  0
 27 56  1  0
 28 57  1  0
 29 58  1  0
 30 59  1  0
M  END
>  <smiles>  (21) 
O=C(c1cc2c(F)cccc2[nH]1)N1C[C@@]2(CCN(CC3CCCC3)C2)c2ccccc21

>  <score_type>  (21) 
oracle

>  <origin>  (21) 
autodockgpu

>  <m_score__min__energy>  (21) 
-8.6600000000000001

>  <m_primary>  (21) 
energy

>  <rmsd>  (21) 
7.599561191248627

>  <m_score__min__rmsd>  (21) 
7.599561191248627

>  <meeko>  (21) 
{"free_energy": -8.62, "intermolecular_energy": -9.82, "internal_energy": -1.25, "cluster_size": 19, "cluster_id": 1, "rank_in_cluster": 15}

>  <energy>  (21) 
-8.13

>  <cluster_rmsd>  (21) 
0.42

>  <cluster>  (21) 
2

$$$$

     RDKit          3D

 59 64  0  0  0  0  0  0  0  0999 V2000
  139.4670   69.9270  221.5280 O   0  0  0  0  0  0  0  0  0  0  0  0
  139.5350   70.9980  222.2180 C   0  0  0  0  0  0  0  0  0  0  0  0
  139.8760   70.8950  223.6470 C   0  0  0  0  0  0  0  0  0  0  0  0
  139.8840   69.7020  224.3830 C   0  0  0  0  0  0  0  0  0  0  0  0
  140.2600   70.0300  225.6680 C   0  0  0  0  0  0  0  0  0  0  0  0
  140.4520   69.2930  226.8420 C   0  0  0  0  0  0  0  0  0  0  0  0
  140.2270   67.9550  226.7490 F   0  0  0  0  0  0  0  0  0  0  0  0
  140.8420   69.8850  228.0120 C   0  0  0  0  0  0  0  0  0  0  0  0
  141.0620   71.2400  228.0750 C   0  0  0  0  0  0  0  0  0  0  0  0
  140.8760   71.9850  226.9210 C   0  0  0  0  0  0  0  0  0  0  0  0
  140.4790   71.4090  225.7220 C   0  0  0  0  0  0  0  0  0  0  0  0
  140.2340   71.8840  224.4780 N   0  0  0  0  0  0  0  0  0  0  0  0
  139.2870   72.2260  221.5800 N   0  0  0  0  0  0  0  0  0  0  0  0
  139.9870   72.8450  220.4630 C   0  0  0  0  0  0  0  0  0  0  0  0
  139.8850   74.3060  220.8690 C   0  0  2  0  0  0  0  0  0  0  0  0
  139.8510   75.2370  219.6770 C   0  0  0  0  0  0  0  0  0  0  0  0
  140.7210   76.3930  220.1530 C   0  0  0  0  0  0  0  0  0  0  0  0
  141.8120   75.7230  220.8330 N   0  0  0  0  0  0  0  0  0  0  0  0
  142.7510   75.1620  219.9160 C   0  0  0  0  0  0  0  0  0  0  0  0
  143.5840   74.1010  220.5790 C   0  0  0  0  0  0  0  0  0  0  0  0
  143.4860   72.7470  219.9740 C   0  0  0  0  0  0  0  0  0  0  0  0
  144.8370   72.0890  220.0650 C   0  0  0  0  0  0  0  0  0  0  0  0
  145.7120   73.0830  220.8280 C   0  0  0  0  0  0  0  0  0  0  0  0
  145.0660   74.4330  220.5160 C   0  0  0  0  0  0  0  0  0  0  0  0
  141.1160   74.6960  221.6020 C   0  0  0  0  0  0  0  0  0  0  0  0
  138.6150   74.4370  221.5840 C   0  0  0  0  0  0  0  0  0  0  0  0
  137.7460   75.4640  221.9010 C   0  0  0  0  0  0  0  0  0  0  0  0
  136.5560   75.2730  222.5670 C   0  0  0  0  0  0  0  0  0  0  0  0
  136.1950   74.0100  222.9420 C   0  0  0  0  0  0  0  0  0  0  0  0
  137.0390   72.9620  222.6420 C   0  0  0  0  0  0  0  0  0  0  0  0
  138.2480   73.1470  221.9700 C   0  0  0  0  0  0  0  0  0  0  0  0
  139.6377   68.6978  224.0076 H   0  0  0  0  0  0  0  0  0  0  0  0
  140.9811   69.2692  228.9128 H   0  0  0  0  0  0  0  0  0  0  0  0
  141.3765   71.7194  229.0138 H   0  0  0  0  0  0  0  0  0  0  0  0
  141.0491   73.0707  226.9566 H   0  0  0  0  0  0  0  0  0  0  0  0
  140.3240   72.8920  224.2320 H   0  0  0  0  0  0  0  0  0  0  0  0
  141.0330   72.5103  220.4000 H   0  0  0  0  0  0  0  0  0  0  0  0
  139.5772   72.6091  219.4698 H   0  0  0  0  0  0  0  0  0  0  0  0
  140.2771   74.7577  218.7833 H   0  0  0  0  0  0  0  0  0  0  0  0
  138.8361   75.5392  219.3791 H   0  0  0  0  0  0  0  0  0  0  0  0
  141.0898   76.9860  219.3031 H   0  0  0  0  0  0  0  0  0  0  0  0
  140.1820   77.1046  220.7957 H   0  0  0  0  0  0  0  0  0  0  0  0
  142.2060   74.7157  219.0712 H   0  0  0  0  0  0  0  0  0  0  0  0
  143.4185   75.9626  219.5645 H   0  0  0  0  0  0  0  0  0  0  0  0
  143.1765   74.0857  221.6006 H   0  0  0  0  0  0  0  0  0  0  0  0
  142.7431   72.1481  220.5212 H   0  0  0  0  0  0  0  0  0  0  0  0
  143.1722   72.8238  218.9225 H   0  0  0  0  0  0  0  0  0  0  0  0
  144.7671   71.1369  220.6115 H   0  0  0  0  0  0  0  0  0  0  0  0
  145.2490   71.8536  219.0726 H   0  0  0  0  0  0  0  0  0  0  0  0
  145.6920   72.8770  221.9084 H   0  0  0  0  0  0  0  0  0  0  0  0
  146.7716   73.0355  220.5364 H   0  0  0  0  0  0  0  0  0  0  0  0
  145.3379   75.1886  221.2677 H   0  0  0  0  0  0  0  0  0  0  0  0
  145.3822   74.8623  219.5539 H   0  0  0  0  0  0  0  0  0  0  0  0
  141.7683   73.8186  221.7235 H   0  0  0  0  0  0  0  0  0  0  0  0
  140.8529   75.0857  222.5964 H   0  0  0  0  0  0  0  0  0  0  0  0
  138.0194   76.4878  221.6057 H   0  0  0  0  0  0  0  0  0  0  0  0
  135.9030   76.1284  222.7947 H   0  0  0  0  0  0  0  0  0  0  0  0
  135.2484   73.8325  223.4735 H   0  0  0  0  0  0  0  0  0  0  0  0
  136.7493   71.9444  222.9428 H   0  0  0  0  0  0  0  0  0  0  0  0
  1  2  2  0
  2  3  1  0
  3  4  2  0
  4  5  1  0
  5  6  2  0
  6  7  1  0
  6  8  1  0
  8  9  2  0
  9 10  1  0
 10 11  2  0
 11 12  1  0
  2 13  1  0
 13 14  1  0
 15 14  1  6
 15 16  1  0
 16 17  1  0
 17 18  1  0
 18 19  1  0
 19 20  1  0
 20 21  1  0
 21 22  1  0
 22 23  1  0
 23 24  1  0
 18 25  1  0
 15 26  1  0
 26 27  2  0
 27 28  1  0
 28 29  2  0
 29 30  1  0
 30 31  2  0
 12  3  1  0
 31 13  1  0
 11  5  1  0
 25 15  1  0
 31 26  1  0
 24 20  1  0
  4 32  1  0
  8 33  1  0
  9 34  1  0
 10 35  1  0
 12 36  1  0
 14 37  1  0
 14 38  1  0
 16 39  1  0
 16 40  1  0
 17 41  1  0
 17 42  1  0
 19 43  1  0
 19 44  1  0
 20 45  1  0
 21 46  1  0
 21 47  1  0
 22 48  1  0
 22 49  1  0
 23 50  1  0
 23 51  1  0
 24 52  1  0
 24 53  1  0
 25 54  1  0
 25 55  1  0
 27 56  1  0
 28 57  1  0
 29 58  1  0
 30 59  1  0
M  END
>  <smiles>  (22) 
O=C(c1cc2c(F)cccc2[nH]1)N1C[C@@]2(CCN(CC3CCCC3)C2)c2ccccc21

>  <score_type>  (22) 
oracle

>  <origin>  (22) 
autodockgpu

>  <m_score__min__energy>  (22) 
-8.6600000000000001

>  <m_primary>  (22) 
energy

>  <rmsd>  (22) 
4.948847794668794

>  <m_score__min__rmsd>  (22) 
4.948847794668794

>  <meeko>  (22) 
{"free_energy": -8.03, "intermolecular_energy": -9.22, "internal_energy": -1.63, "cluster_size": 17, "cluster_id": 3, "rank_in_cluster": 3}

>  <energy>  (22) 
-8.12

>  <cluster_rmsd>  (22) 
0.64

>  <cluster>  (22) 
2

$$$$

     RDKit          3D

 59 64  0  0  0  0  0  0  0  0999 V2000
  139.7120   69.6730  221.3610 O   0  0  0  0  0  0  0  0  0  0  0  0
  139.6380   70.7060  222.1060 C   0  0  0  0  0  0  0  0  0  0  0  0
  139.8700   70.5500  223.5520 C   0  0  0  0  0  0  0  0  0  0  0  0
  140.4410   71.5260  224.3810 C   0  0  0  0  0  0  0  0  0  0  0  0
  140.4770   70.9970  225.6520 C   0  0  0  0  0  0  0  0  0  0  0  0
  140.9190   71.4750  226.8920 C   0  0  0  0  0  0  0  0  0  0  0  0
  141.4420   72.7310  226.8940 F   0  0  0  0  0  0  0  0  0  0  0  0
  140.8310   70.7220  228.0300 C   0  0  0  0  0  0  0  0  0  0  0  0
  140.2970   69.4560  227.9970 C   0  0  0  0  0  0  0  0  0  0  0  0
  139.8550   68.9680  226.7780 C   0  0  0  0  0  0  0  0  0  0  0  0
  139.9340   69.7100  225.6080 C   0  0  0  0  0  0  0  0  0  0  0  0
  139.5840   69.4870  224.3180 N   0  0  0  0  0  0  0  0  0  0  0  0
  139.3440   71.9450  221.5110 N   0  0  0  0  0  0  0  0  0  0  0  0
  140.0150   72.6230  220.4100 C   0  0  0  0  0  0  0  0  0  0  0  0
  139.8670   74.0670  220.8650 C   0  0  2  0  0  0  0  0  0  0  0  0
  139.7930   75.0340  219.7040 C   0  0  0  0  0  0  0  0  0  0  0  0
  140.6280   76.2020  220.2130 C   0  0  0  0  0  0  0  0  0  0  0  0
  141.7450   75.5480  220.8630 N   0  0  0  0  0  0  0  0  0  0  0  0
  142.6960   75.0490  219.9210 C   0  0  0  0  0  0  0  0  0  0  0  0
  143.5620   73.9890  220.5410 C   0  0  0  0  0  0  0  0  0  0  0  0
  143.4860   72.6510  219.8980 C   0  0  0  0  0  0  0  0  0  0  0  0
  144.8530   72.0230  219.9510 C   0  0  0  0  0  0  0  0  0  0  0  0
  145.7160   73.0140  220.7310 C   0  0  0  0  0  0  0  0  0  0  0  0
  145.0360   74.3570  220.4670 C   0  0  0  0  0  0  0  0  0  0  0  0
  141.0890   74.4730  221.6020 C   0  0  0  0  0  0  0  0  0  0  0  0
  138.5990   74.1310  221.5910 C   0  0  0  0  0  0  0  0  0  0  0  0
  137.6990   75.1170  221.9480 C   0  0  0  0  0  0  0  0  0  0  0  0
  136.5200   74.8650  222.6140 C   0  0  0  0  0  0  0  0  0  0  0  0
  136.2040   73.5780  222.9510 C   0  0  0  0  0  0  0  0  0  0  0  0
  137.0810   72.5700  222.6100 C   0  0  0  0  0  0  0  0  0  0  0  0
  138.2780   72.8180  221.9370 C   0  0  0  0  0  0  0  0  0  0  0  0
  140.7925   72.5224  224.0751 H   0  0  0  0  0  0  0  0  0  0  0  0
  141.1920   71.1346  228.9836 H   0  0  0  0  0  0  0  0  0  0  0  0
  140.2228   68.8485  228.9110 H   0  0  0  0  0  0  0  0  0  0  0  0
  139.4260   67.9560  226.7361 H   0  0  0  0  0  0  0  0  0  0  0  0
  139.1490   68.5970  223.9990 H   0  0  0  0  0  0  0  0  0  0  0  0
  141.0710   72.3258  220.3296 H   0  0  0  0  0  0  0  0  0  0  0  0
  139.6063   72.4058  219.4121 H   0  0  0  0  0  0  0  0  0  0  0  0
  140.2282   74.5985  218.7924 H   0  0  0  0  0  0  0  0  0  0  0  0
  138.7666   75.3115  219.4218 H   0  0  0  0  0  0  0  0  0  0  0  0
  140.9705   76.8348  219.3810 H   0  0  0  0  0  0  0  0  0  0  0  0
  140.0702   76.8731  220.8827 H   0  0  0  0  0  0  0  0  0  0  0  0
  142.1600   74.6188  219.0621 H   0  0  0  0  0  0  0  0  0  0  0  0
  143.3382   75.8811  219.5967 H   0  0  0  0  0  0  0  0  0  0  0  0
  143.1698   73.9348  221.5673 H   0  0  0  0  0  0  0  0  0  0  0  0
  142.7652   72.0193  220.4378 H   0  0  0  0  0  0  0  0  0  0  0  0
  143.1548   72.7505  218.8538 H   0  0  0  0  0  0  0  0  0  0  0  0
  144.8130   71.0539  220.4699 H   0  0  0  0  0  0  0  0  0  0  0  0
  145.2559   71.8271  218.9464 H   0  0  0  0  0  0  0  0  0  0  0  0
  145.7155   72.7766  221.8051 H   0  0  0  0  0  0  0  0  0  0  0  0
  146.7723   72.9989  220.4243 H   0  0  0  0  0  0  0  0  0  0  0  0
  145.3017   75.0970  221.2363 H   0  0  0  0  0  0  0  0  0  0  0  0
  145.3286   74.8209  219.5135 H   0  0  0  0  0  0  0  0  0  0  0  0
  141.7709   73.6143  221.6899 H   0  0  0  0  0  0  0  0  0  0  0  0
  140.8207   74.8205  222.6106 H   0  0  0  0  0  0  0  0  0  0  0  0
  137.9369   76.1586  221.6863 H   0  0  0  0  0  0  0  0  0  0  0  0
  135.8399   75.6902  222.8720 H   0  0  0  0  0  0  0  0  0  0  0  0
  135.2686   73.3513  223.4836 H   0  0  0  0  0  0  0  0  0  0  0  0
  136.8280   71.5336  222.8780 H   0  0  0  0  0  0  0  0  0  0  0  0
  1  2  2  0
  2  3  1  0
  3  4  2  0
  4  5  1  0
  5  6  2  0
  6  7  1  0
  6  8  1  0
  8  9  2  0
  9 10  1  0
 10 11  2  0
 11 12  1  0
  2 13  1  0
 13 14  1  0
 15 14  1  6
 15 16  1  0
 16 17  1  0
 17 18  1  0
 18 19  1  0
 19 20  1  0
 20 21  1  0
 21 22  1  0
 22 23  1  0
 23 24  1  0
 18 25  1  0
 15 26  1  0
 26 27  2  0
 27 28  1  0
 28 29  2  0
 29 30  1  0
 30 31  2  0
 12  3  1  0
 31 13  1  0
 11  5  1  0
 25 15  1  0
 31 26  1  0
 24 20  1  0
  4 32  1  0
  8 33  1  0
  9 34  1  0
 10 35  1  0
 12 36  1  0
 14 37  1  0
 14 38  1  0
 16 39  1  0
 16 40  1  0
 17 41  1  0
 17 42  1  0
 19 43  1  0
 19 44  1  0
 20 45  1  0
 21 46  1  0
 21 47  1  0
 22 48  1  0
 22 49  1  0
 23 50  1  0
 23 51  1  0
 24 52  1  0
 24 53  1  0
 25 54  1  0
 25 55  1  0
 27 56  1  0
 28 57  1  0
 29 58  1  0
 30 59  1  0
M  END
>  <smiles>  (23) 
O=C(c1cc2c(F)cccc2[nH]1)N1C[C@@]2(CCN(CC3CCCC3)C2)c2ccccc21

>  <score_type>  (23) 
oracle

>  <origin>  (23) 
autodockgpu

>  <m_score__min__energy>  (23) 
-8.6600000000000001

>  <m_primary>  (23) 
energy

>  <rmsd>  (23) 
5.058998918020407

>  <m_score__min__rmsd>  (23) 
5.058998918020407

>  <meeko>  (23) 
{"free_energy": -7.81, "intermolecular_energy": -9.0, "internal_energy": -1.73, "cluster_size": 17, "cluster_id": 3, "rank_in_cluster": 17}

>  <energy>  (23) 
-8.11

>  <cluster_rmsd>  (23) 
0.26

>  <cluster>  (23) 
2

$$$$

     RDKit          3D

 59 64  0  0  0  0  0  0  0  0999 V2000
  139.4920   69.9040  221.5360 O   0  0  0  0  0  0  0  0  0  0  0  0
  139.5490   70.9760  222.2250 C   0  0  0  0  0  0  0  0  0  0  0  0
  139.8850   70.8780  223.6550 C   0  0  0  0  0  0  0  0  0  0  0  0
  139.8870   69.6890  224.3970 C   0  0  0  0  0  0  0  0  0  0  0  0
  140.2600   70.0210  225.6810 C   0  0  0  0  0  0  0  0  0  0  0  0
  140.4450   69.2890  226.8600 C   0  0  0  0  0  0  0  0  0  0  0  0
  140.2160   67.9510  226.7720 F   0  0  0  0  0  0  0  0  0  0  0  0
  140.8330   69.8850  228.0280 C   0  0  0  0  0  0  0  0  0  0  0  0
  141.0580   71.2400  228.0860 C   0  0  0  0  0  0  0  0  0  0  0  0
  140.8780   71.9800  226.9270 C   0  0  0  0  0  0  0  0  0  0  0  0
  140.4830   71.4000  225.7300 C   0  0  0  0  0  0  0  0  0  0  0  0
  140.2440   71.8700  224.4830 N   0  0  0  0  0  0  0  0  0  0  0  0
  139.2940   72.2010  221.5830 N   0  0  0  0  0  0  0  0  0  0  0  0
  139.9910   72.8200  220.4640 C   0  0  0  0  0  0  0  0  0  0  0  0
  139.8800   74.2820  220.8670 C   0  0  2  0  0  0  0  0  0  0  0  0
  139.8410   75.2090  219.6720 C   0  0  0  0  0  0  0  0  0  0  0  0
  140.7050   76.3720  220.1450 C   0  0  0  0  0  0  0  0  0  0  0  0
  141.7990   75.7100  220.8270 N   0  0  0  0  0  0  0  0  0  0  0  0
  142.7420   75.1510  219.9110 C   0  0  0  0  0  0  0  0  0  0  0  0
  143.5820   74.0980  220.5770 C   0  0  0  0  0  0  0  0  0  0  0  0
  143.5160   72.7490  219.9580 C   0  0  0  0  0  0  0  0  0  0  0  0
  144.8760   72.1130  220.0650 C   0  0  0  0  0  0  0  0  0  0  0  0
  145.7220   73.1130  220.8520 C   0  0  0  0  0  0  0  0  0  0  0  0
  145.0590   74.4550  220.5420 C   0  0  0  0  0  0  0  0  0  0  0  0
  141.1090   74.6810  221.5980 C   0  0  0  0  0  0  0  0  0  0  0  0
  138.6100   74.4080  221.5810 C   0  0  0  0  0  0  0  0  0  0  0  0
  137.7350   75.4310  221.8950 C   0  0  0  0  0  0  0  0  0  0  0  0
  136.5460   75.2350  222.5610 C   0  0  0  0  0  0  0  0  0  0  0  0
  136.1920   73.9710  222.9400 C   0  0  0  0  0  0  0  0  0  0  0  0
  137.0420   72.9270  222.6430 C   0  0  0  0  0  0  0  0  0  0  0  0
  138.2500   73.1170  221.9700 C   0  0  0  0  0  0  0  0  0  0  0  0
  139.6385   68.6839  224.0256 H   0  0  0  0  0  0  0  0  0  0  0  0
  140.9667   69.2728  228.9321 H   0  0  0  0  0  0  0  0  0  0  0  0
  141.3714   71.7227  229.0235 H   0  0  0  0  0  0  0  0  0  0  0  0
  141.0547   73.0653  226.9578 H   0  0  0  0  0  0  0  0  0  0  0  0
  140.3380   72.8760  224.2330 H   0  0  0  0  0  0  0  0  0  0  0  0
  141.0388   72.4911  220.4023 H   0  0  0  0  0  0  0  0  0  0  0  0
  139.5836   72.5788  219.4711 H   0  0  0  0  0  0  0  0  0  0  0  0
  140.2700   74.7293  218.7799 H   0  0  0  0  0  0  0  0  0  0  0  0
  138.8245   75.5045  219.3728 H   0  0  0  0  0  0  0  0  0  0  0  0
  141.0708   76.9645  219.2935 H   0  0  0  0  0  0  0  0  0  0  0  0
  140.1620   77.0827  220.7854 H   0  0  0  0  0  0  0  0  0  0  0  0
  142.1994   74.6981  219.0681 H   0  0  0  0  0  0  0  0  0  0  0  0
  143.4043   75.9546  219.5565 H   0  0  0  0  0  0  0  0  0  0  0  0
  143.1587   74.0662  221.5918 H   0  0  0  0  0  0  0  0  0  0  0  0
  142.7745   72.1327  220.4874 H   0  0  0  0  0  0  0  0  0  0  0  0
  143.2177   72.8305  218.9024 H   0  0  0  0  0  0  0  0  0  0  0  0
  144.8130   71.1544  220.6008 H   0  0  0  0  0  0  0  0  0  0  0  0
  145.3080   71.8950  219.0772 H   0  0  0  0  0  0  0  0  0  0  0  0
  145.6875   72.8961  221.9299 H   0  0  0  0  0  0  0  0  0  0  0  0
  146.7870   73.0855  220.5781 H   0  0  0  0  0  0  0  0  0  0  0  0
  145.3058   75.2077  221.3053 H   0  0  0  0  0  0  0  0  0  0  0  0
  145.3839   74.8989  219.5894 H   0  0  0  0  0  0  0  0  0  0  0  0
  141.7663   73.8077  221.7212 H   0  0  0  0  0  0  0  0  0  0  0  0
  140.8438   75.0719  222.5914 H   0  0  0  0  0  0  0  0  0  0  0  0
  138.0027   76.4555  221.5971 H   0  0  0  0  0  0  0  0  0  0  0  0
  135.8879   76.0873  222.7856 H   0  0  0  0  0  0  0  0  0  0  0  0
  135.2465   73.7897  223.4721 H   0  0  0  0  0  0  0  0  0  0  0  0
  136.7583   71.9086  222.9471 H   0  0  0  0  0  0  0  0  0  0  0  0
  1  2  2  0
  2  3  1  0
  3  4  2  0
  4  5  1  0
  5  6  2  0
  6  7  1  0
  6  8  1  0
  8  9  2  0
  9 10  1  0
 10 11  2  0
 11 12  1  0
  2 13  1  0
 13 14  1  0
 15 14  1  6
 15 16  1  0
 16 17  1  0
 17 18  1  0
 18 19  1  0
 19 20  1  0
 20 21  1  0
 21 22  1  0
 22 23  1  0
 23 24  1  0
 18 25  1  0
 15 26  1  0
 26 27  2  0
 27 28  1  0
 28 29  2  0
 29 30  1  0
 30 31  2  0
 12  3  1  0
 31 13  1  0
 11  5  1  0
 25 15  1  0
 31 26  1  0
 24 20  1  0
  4 32  1  0
  8 33  1  0
  9 34  1  0
 10 35  1  0
 12 36  1  0
 14 37  1  0
 14 38  1  0
 16 39  1  0
 16 40  1  0
 17 41  1  0
 17 42  1  0
 19 43  1  0
 19 44  1  0
 20 45  1  0
 21 46  1  0
 21 47  1  0
 22 48  1  0
 22 49  1  0
 23 50  1  0
 23 51  1  0
 24 52  1  0
 24 53  1  0
 25 54  1  0
 25 55  1  0
 27 56  1  0
 28 57  1  0
 29 58  1  0
 30 59  1  0
M  END
>  <smiles>  (24) 
O=C(c1cc2c(F)cccc2[nH]1)N1C[C@@]2(CCN(CC3CCCC3)C2)c2ccccc21

>  <score_type>  (24) 
oracle

>  <origin>  (24) 
autodockgpu

>  <m_score__min__energy>  (24) 
-8.6600000000000001

>  <m_primary>  (24) 
energy

>  <rmsd>  (24) 
4.961180459317852

>  <m_score__min__rmsd>  (24) 
4.961180459317852

>  <meeko>  (24) 
{"free_energy": -8.02, "intermolecular_energy": -9.21, "internal_energy": -1.63, "cluster_size": 17, "cluster_id": 3, "rank_in_cluster": 4}

>  <energy>  (24) 
-8.1

>  <cluster_rmsd>  (24) 
0.34

>  <cluster>  (24) 
2

$$$$

     RDKit          3D

 59 64  0  0  0  0  0  0  0  0999 V2000
  139.3000   69.9100  221.5260 O   0  0  0  0  0  0  0  0  0  0  0  0
  139.4180   70.9760  222.2160 C   0  0  0  0  0  0  0  0  0  0  0  0
  139.7850   70.8600  223.6370 C   0  0  0  0  0  0  0  0  0  0  0  0
  139.7620   69.6670  224.3740 C   0  0  0  0  0  0  0  0  0  0  0  0
  140.1790   69.9800  225.6500 C   0  0  0  0  0  0  0  0  0  0  0  0
  140.3670   69.2350  226.8200 C   0  0  0  0  0  0  0  0  0  0  0  0
  140.0870   67.9070  226.7330 F   0  0  0  0  0  0  0  0  0  0  0  0
  140.8060   69.8110  227.9810 C   0  0  0  0  0  0  0  0  0  0  0  0
  141.0810   71.1570  228.0380 C   0  0  0  0  0  0  0  0  0  0  0  0
  140.8990   71.9080  226.8880 C   0  0  0  0  0  0  0  0  0  0  0  0
  140.4540   71.3490  225.6990 C   0  0  0  0  0  0  0  0  0  0  0  0
  140.2010   71.8340  224.4600 N   0  0  0  0  0  0  0  0  0  0  0  0
  139.1950   72.2130  221.5850 N   0  0  0  0  0  0  0  0  0  0  0  0
  139.8970   72.8150  220.4590 C   0  0  0  0  0  0  0  0  0  0  0  0
  139.8430   74.2780  220.8710 C   0  0  2  0  0  0  0  0  0  0  0  0
  139.8190   75.2120  219.6820 C   0  0  0  0  0  0  0  0  0  0  0  0
  140.7290   76.3410  220.1480 C   0  0  0  0  0  0  0  0  0  0  0  0
  141.8100   75.6380  220.8100 N   0  0  0  0  0  0  0  0  0  0  0  0
  142.7190   75.0520  219.8770 C   0  0  0  0  0  0  0  0  0  0  0  0
  143.6090   74.0460  220.5510 C   0  0  0  0  0  0  0  0  0  0  0  0
  143.5940   72.6860  219.9530 C   0  0  0  0  0  0  0  0  0  0  0  0
  144.9820   72.1100  220.0560 C   0  0  0  0  0  0  0  0  0  0  0  0
  145.7920   73.1580  220.8190 C   0  0  0  0  0  0  0  0  0  0  0  0
  145.0690   74.4650  220.4950 C   0  0  0  0  0  0  0  0  0  0  0  0
  141.0950   74.6290  221.5860 C   0  0  0  0  0  0  0  0  0  0  0  0
  138.5890   74.4430  221.6050 C   0  0  0  0  0  0  0  0  0  0  0  0
  137.7550   75.4930  221.9380 C   0  0  0  0  0  0  0  0  0  0  0  0
  136.5690   75.3360  222.6210 C   0  0  0  0  0  0  0  0  0  0  0  0
  136.1770   74.0820  222.9980 C   0  0  0  0  0  0  0  0  0  0  0  0
  136.9860   73.0110  222.6830 C   0  0  0  0  0  0  0  0  0  0  0  0
  138.1900   73.1630  221.9930 C   0  0  0  0  0  0  0  0  0  0  0  0
  139.4679   68.6733  224.0050 H   0  0  0  0  0  0  0  0  0  0  0  0
  140.9404   69.1901  228.8790 H   0  0  0  0  0  0  0  0  0  0  0  0
  141.4350   71.6237  228.9690 H   0  0  0  0  0  0  0  0  0  0  0  0
  141.1151   72.9861  226.9189 H   0  0  0  0  0  0  0  0  0  0  0  0
  140.3250   72.8370  224.2120 H   0  0  0  0  0  0  0  0  0  0  0  0
  140.9318   72.4504  220.3801 H   0  0  0  0  0  0  0  0  0  0  0  0
  139.4666   72.5941  219.4711 H   0  0  0  0  0  0  0  0  0  0  0  0
  140.2182   74.7228  218.7813 H   0  0  0  0  0  0  0  0  0  0  0  0
  138.8092   75.5442  219.3992 H   0  0  0  0  0  0  0  0  0  0  0  0
  141.1022   76.9256  219.2942 H   0  0  0  0  0  0  0  0  0  0  0  0
  140.2203   77.0659  220.8005 H   0  0  0  0  0  0  0  0  0  0  0  0
  142.1460   74.5505  219.0831 H   0  0  0  0  0  0  0  0  0  0  0  0
  143.3485   75.8486  219.4537 H   0  0  0  0  0  0  0  0  0  0  0  0
  143.1976   74.0119  221.5706 H   0  0  0  0  0  0  0  0  0  0  0  0
  142.8844   72.0471  220.4992 H   0  0  0  0  0  0  0  0  0  0  0  0
  143.2820   72.7381  218.8995 H   0  0  0  0  0  0  0  0  0  0  0  0
  144.9653   71.1582  220.6072 H   0  0  0  0  0  0  0  0  0  0  0  0
  145.4135   71.8949  219.0673 H   0  0  0  0  0  0  0  0  0  0  0  0
  145.7772   72.9570  221.9004 H   0  0  0  0  0  0  0  0  0  0  0  0
  146.8546   73.1718  220.5347 H   0  0  0  0  0  0  0  0  0  0  0  0
  145.2907   75.2398  221.2437 H   0  0  0  0  0  0  0  0  0  0  0  0
  145.3652   74.9068  219.5321 H   0  0  0  0  0  0  0  0  0  0  0  0
  141.7228   73.7324  221.6950 H   0  0  0  0  0  0  0  0  0  0  0  0
  140.8581   75.0231  222.5853 H   0  0  0  0  0  0  0  0  0  0  0  0
  138.0542   76.5092  221.6417 H   0  0  0  0  0  0  0  0  0  0  0  0
  135.9448   76.2096  222.8602 H   0  0  0  0  0  0  0  0  0  0  0  0
  135.2335   73.9301  223.5427 H   0  0  0  0  0  0  0  0  0  0  0  0
  136.6717   72.0013  222.9860 H   0  0  0  0  0  0  0  0  0  0  0  0
  1  2  2  0
  2  3  1  0
  3  4  2  0
  4  5  1  0
  5  6  2  0
  6  7  1  0
  6  8  1  0
  8  9  2  0
  9 10  1  0
 10 11  2  0
 11 12  1  0
  2 13  1  0
 13 14  1  0
 15 14  1  6
 15 16  1  0
 16 17  1  0
 17 18  1  0
 18 19  1  0
 19 20  1  0
 20 21  1  0
 21 22  1  0
 22 23  1  0
 23 24  1  0
 18 25  1  0
 15 26  1  0
 26 27  2  0
 27 28  1  0
 28 29  2  0
 29 30  1  0
 30 31  2  0
 12  3  1  0
 31 13  1  0
 11  5  1  0
 25 15  1  0
 31 26  1  0
 24 20  1  0
  4 32  1  0
  8 33  1  0
  9 34  1  0
 10 35  1  0
 12 36  1  0
 14 37  1  0
 14 38  1  0
 16 39  1  0
 16 40  1  0
 17 41  1  0
 17 42  1  0
 19 43  1  0
 19 44  1  0
 20 45  1  0
 21 46  1  0
 21 47  1  0
 22 48  1  0
 22 49  1  0
 23 50  1  0
 23 51  1  0
 24 52  1  0
 24 53  1  0
 25 54  1  0
 25 55  1  0
 27 56  1  0
 28 57  1  0
 29 58  1  0
 30 59  1  0
M  END
>  <smiles>  (25) 
O=C(c1cc2c(F)cccc2[nH]1)N1C[C@@]2(CCN(CC3CCCC3)C2)c2ccccc21

>  <score_type>  (25) 
oracle

>  <origin>  (25) 
autodockgpu

>  <m_score__min__energy>  (25) 
-8.6600000000000001

>  <m_primary>  (25) 
energy

>  <rmsd>  (25) 
4.9504587765897305

>  <m_score__min__rmsd>  (25) 
4.9504587765897305

>  <meeko>  (25) 
{"free_energy": -8.05, "intermolecular_energy": -9.24, "internal_energy": -1.59, "cluster_size": 17, "cluster_id": 3, "rank_in_cluster": 1}

>  <energy>  (25) 
-8.1

>  <cluster_rmsd>  (25) 
0.36

>  <cluster>  (25) 
2

$$$$

     RDKit          3D

 59 64  0  0  0  0  0  0  0  0999 V2000
  141.1960   71.6110  221.1350 O   0  0  0  0  0  0  0  0  0  0  0  0
  140.3400   72.0360  221.9790 C   0  0  0  0  0  0  0  0  0  0  0  0
  140.2440   71.3650  223.2850 C   0  0  0  0  0  0  0  0  0  0  0  0
  140.7000   71.9020  224.4970 C   0  0  0  0  0  0  0  0  0  0  0  0
  140.4200   70.9730  225.4750 C   0  0  0  0  0  0  0  0  0  0  0  0
  140.6240   70.9290  226.8600 C   0  0  0  0  0  0  0  0  0  0  0  0
  141.2330   72.0150  227.4070 F   0  0  0  0  0  0  0  0  0  0  0  0
  140.2330   69.8560  227.6130 C   0  0  0  0  0  0  0  0  0  0  0  0
  139.6200   68.7730  227.0310 C   0  0  0  0  0  0  0  0  0  0  0  0
  139.4110   68.8010  225.6610 C   0  0  0  0  0  0  0  0  0  0  0  0
  139.7990   69.8760  224.8740 C   0  0  0  0  0  0  0  0  0  0  0  0
  139.7150   70.1610  223.5520 N   0  0  0  0  0  0  0  0  0  0  0  0
  139.5320   73.1300  221.6220 N   0  0  0  0  0  0  0  0  0  0  0  0
  139.8730   74.3180  220.8500 C   0  0  0  0  0  0  0  0  0  0  0  0
  139.0200   75.3500  221.5720 C   0  0  2  0  0  0  0  0  0  0  0  0
  138.5750   76.4710  220.6590 C   0  0  0  0  0  0  0  0  0  0  0  0
  138.7100   77.6890  221.5650 C   0  0  0  0  0  0  0  0  0  0  0  0
  139.9550   77.4400  222.2640 N   0  0  0  0  0  0  0  0  0  0  0  0
  141.0930   77.7040  221.4420 C   0  0  0  0  0  0  0  0  0  0  0  0
  141.9090   78.8360  222.0000 C   0  0  0  0  0  0  0  0  0  0  0  0
  141.5010   80.1930  221.5520 C   0  0  0  0  0  0  0  0  0  0  0  0
  141.7000   81.1490  222.6980 C   0  0  0  0  0  0  0  0  0  0  0  0
  142.3240   80.3090  223.8120 C   0  0  0  0  0  0  0  0  0  0  0  0
  141.8160   78.8990  223.5160 C   0  0  0  0  0  0  0  0  0  0  0  0
  139.8430   76.0250  222.6060 C   0  0  0  0  0  0  0  0  0  0  0  0
  137.8280   74.6370  222.0300 C   0  0  0  0  0  0  0  0  0  0  0  0
  136.5430   74.9760  222.4100 C   0  0  0  0  0  0  0  0  0  0  0  0
  135.5850   74.0510  222.7590 C   0  0  0  0  0  0  0  0  0  0  0  0
  135.9000   72.7210  222.7370 C   0  0  0  0  0  0  0  0  0  0  0  0
  137.1740   72.3480  222.3640 C   0  0  0  0  0  0  0  0  0  0  0  0
  138.1510   73.2800  222.0100 C   0  0  0  0  0  0  0  0  0  0  0  0
  141.1876   72.8776  224.6397 H   0  0  0  0  0  0  0  0  0  0  0  0
  140.4117   69.8604  228.6984 H   0  0  0  0  0  0  0  0  0  0  0  0
  139.3043   67.9091  227.6344 H   0  0  0  0  0  0  0  0  0  0  0  0
  138.9206   67.9413  225.1810 H   0  0  0  0  0  0  0  0  0  0  0  0
  139.2890   69.5100  222.8610 H   0  0  0  0  0  0  0  0  0  0  0  0
  140.9451   74.5550  220.9162 H   0  0  0  0  0  0  0  0  0  0  0  0
  139.6902   74.2381  219.7683 H   0  0  0  0  0  0  0  0  0  0  0  0
  139.2293   76.5531  219.7786 H   0  0  0  0  0  0  0  0  0  0  0  0
  137.5640   76.3336  220.2478 H   0  0  0  0  0  0  0  0  0  0  0  0
  138.7664   78.6159  220.9753 H   0  0  0  0  0  0  0  0  0  0  0  0
  137.8529   77.8229  222.2413 H   0  0  0  0  0  0  0  0  0  0  0  0
  141.7182   76.8003  221.3920 H   0  0  0  0  0  0  0  0  0  0  0  0
  140.7426   77.9859  220.4381 H   0  0  0  0  0  0  0  0  0  0  0  0
  142.9178   78.6048  221.6274 H   0  0  0  0  0  0  0  0  0  0  0  0
  142.1191   80.5038  220.6968 H   0  0  0  0  0  0  0  0  0  0  0  0
  140.4458   80.1882  221.2414 H   0  0  0  0  0  0  0  0  0  0  0  0
  142.3754   81.9667  222.4062 H   0  0  0  0  0  0  0  0  0  0  0  0
  140.7559   81.6170  223.0136 H   0  0  0  0  0  0  0  0  0  0  0  0
  143.4224   80.3494  223.7678 H   0  0  0  0  0  0  0  0  0  0  0  0
  142.0546   80.6610  224.8187 H   0  0  0  0  0  0  0  0  0  0  0  0
  142.4553   78.1377  223.9868 H   0  0  0  0  0  0  0  0  0  0  0  0
  140.8060   78.7028  223.9050 H   0  0  0  0  0  0  0  0  0  0  0  0
  140.8445   75.5711  222.6366 H   0  0  0  0  0  0  0  0  0  0  0  0
  139.3703   75.9140  223.5930 H   0  0  0  0  0  0  0  0  0  0  0  0
  136.2714   76.0416  222.4349 H   0  0  0  0  0  0  0  0  0  0  0  0
  134.5768   74.3787  223.0525 H   0  0  0  0  0  0  0  0  0  0  0  0
  135.1516   71.9630  223.0115 H   0  0  0  0  0  0  0  0  0  0  0  0
  137.4294   71.2782  222.3447 H   0  0  0  0  0  0  0  0  0  0  0  0
  1  2  2  0
  2  3  1  0
  3  4  2  0
  4  5  1  0
  5  6  2  0
  6  7  1  0
  6  8  1  0
  8  9  2  0
  9 10  1  0
 10 11  2  0
 11 12  1  0
  2 13  1  0
 13 14  1  0
 15 14  1  6
 15 16  1  0
 16 17  1  0
 17 18  1  0
 18 19  1  0
 19 20  1  0
 20 21  1  0
 21 22  1  0
 22 23  1  0
 23 24  1  0
 18 25  1  0
 15 26  1  0
 26 27  2  0
 27 28  1  0
 28 29  2  0
 29 30  1  0
 30 31  2  0
 12  3  1  0
 31 13  1  0
 11  5  1  0
 25 15  1  0
 31 26  1  0
 24 20  1  0
  4 32  1  0
  8 33  1  0
  9 34  1  0
 10 35  1  0
 12 36  1  0
 14 37  1  0
 14 38  1  0
 16 39  1  0
 16 40  1  0
 17 41  1  0
 17 42  1  0
 19 43  1  0
 19 44  1  0
 20 45  1  0
 21 46  1  0
 21 47  1  0
 22 48  1  0
 22 49  1  0
 23 50  1  0
 23 51  1  0
 24 52  1  0
 24 53  1  0
 25 54  1  0
 25 55  1  0
 27 56  1  0
 28 57  1  0
 29 58  1  0
 30 59  1  0
M  END
>  <smiles>  (26) 
O=C(c1cc2c(F)cccc2[nH]1)N1C[C@@]2(CCN(CC3CCCC3)C2)c2ccccc21

>  <score_type>  (26) 
oracle

>  <origin>  (26) 
autodockgpu

>  <m_score__min__energy>  (26) 
-8.6600000000000001

>  <m_primary>  (26) 
energy

>  <rmsd>  (26) 
4.634641928143673

>  <m_score__min__rmsd>  (26) 
4.634641928143673

>  <meeko>  (26) 
{"free_energy": -8.1, "intermolecular_energy": -9.29, "internal_energy": -1.42, "cluster_size": 7, "cluster_id": 2, "rank_in_cluster": 6}

>  <energy>  (26) 
-8.08

>  <cluster_rmsd>  (26) 
0.65

>  <cluster>  (26) 
2

$$$$

     RDKit          3D

 59 64  0  0  0  0  0  0  0  0999 V2000
  139.5340   69.8980  221.5190 O   0  0  0  0  0  0  0  0  0  0  0  0
  139.5810   70.9740  222.2030 C   0  0  0  0  0  0  0  0  0  0  0  0
  139.9140   70.8850  223.6340 C   0  0  0  0  0  0  0  0  0  0  0  0
  139.9080   69.7010  224.3850 C   0  0  0  0  0  0  0  0  0  0  0  0
  140.2810   70.0410  225.6670 C   0  0  0  0  0  0  0  0  0  0  0  0
  140.4610   69.3160  226.8510 C   0  0  0  0  0  0  0  0  0  0  0  0
  140.2250   67.9790  226.7730 F   0  0  0  0  0  0  0  0  0  0  0  0
  140.8510   69.9190  228.0150 C   0  0  0  0  0  0  0  0  0  0  0  0
  141.0820   71.2730  228.0640 C   0  0  0  0  0  0  0  0  0  0  0  0
  140.9080   72.0050  226.8990 C   0  0  0  0  0  0  0  0  0  0  0  0
  140.5120   71.4180  225.7060 C   0  0  0  0  0  0  0  0  0  0  0  0
  140.2770   71.8810  224.4550 N   0  0  0  0  0  0  0  0  0  0  0  0
  139.3170   72.1940  221.5550 N   0  0  0  0  0  0  0  0  0  0  0  0
  140.0190   72.8190  220.4420 C   0  0  0  0  0  0  0  0  0  0  0  0
  139.8860   74.2810  220.8400 C   0  0  2  0  0  0  0  0  0  0  0  0
  139.8480   75.2040  219.6420 C   0  0  0  0  0  0  0  0  0  0  0  0
  140.6920   76.3780  220.1220 C   0  0  0  0  0  0  0  0  0  0  0  0
  141.7870   75.7320  220.8170 N   0  0  0  0  0  0  0  0  0  0  0  0
  142.7470   75.1830  219.9130 C   0  0  0  0  0  0  0  0  0  0  0  0
  143.5680   74.1160  220.5810 C   0  0  0  0  0  0  0  0  0  0  0  0
  143.4550   72.7610  219.9810 C   0  0  0  0  0  0  0  0  0  0  0  0
  144.8000   72.0890  220.0760 C   0  0  0  0  0  0  0  0  0  0  0  0
  145.6840   73.0770  220.8360 C   0  0  0  0  0  0  0  0  0  0  0  0
  145.0530   74.4320  220.5180 C   0  0  0  0  0  0  0  0  0  0  0  0
  141.1010   74.6960  221.5830 C   0  0  0  0  0  0  0  0  0  0  0  0
  138.6060   74.3920  221.5400 C   0  0  0  0  0  0  0  0  0  0  0  0
  137.7150   75.4050  221.8420 C   0  0  0  0  0  0  0  0  0  0  0  0
  136.5210   75.1970  222.4960 C   0  0  0  0  0  0  0  0  0  0  0  0
  136.1790   73.9280  222.8740 C   0  0  0  0  0  0  0  0  0  0  0  0
  137.0450   72.8940  222.5880 C   0  0  0  0  0  0  0  0  0  0  0  0
  138.2580   73.0980  221.9280 C   0  0  0  0  0  0  0  0  0  0  0  0
  139.6544   68.6945  224.0208 H   0  0  0  0  0  0  0  0  0  0  0  0
  140.9814   69.3126  228.9235 H   0  0  0  0  0  0  0  0  0  0  0  0
  141.3953   71.7611  228.9987 H   0  0  0  0  0  0  0  0  0  0  0  0
  141.0905   73.0895  226.9217 H   0  0  0  0  0  0  0  0  0  0  0  0
  140.3770   72.8850  224.1980 H   0  0  0  0  0  0  0  0  0  0  0  0
  141.0714   72.5026  220.3927 H   0  0  0  0  0  0  0  0  0  0  0  0
  139.6254   72.5705  219.4453 H   0  0  0  0  0  0  0  0  0  0  0  0
  140.2927   74.7276  218.7558 H   0  0  0  0  0  0  0  0  0  0  0  0
  138.8314   75.4858  219.3305 H   0  0  0  0  0  0  0  0  0  0  0  0
  141.0594   76.9735  219.2732 H   0  0  0  0  0  0  0  0  0  0  0  0
  140.1330   77.0824  220.7554 H   0  0  0  0  0  0  0  0  0  0  0  0
  142.2208   74.7455  219.0517 H   0  0  0  0  0  0  0  0  0  0  0  0
  143.4201   75.9888  219.5850 H   0  0  0  0  0  0  0  0  0  0  0  0
  143.1604   74.1089  221.6026 H   0  0  0  0  0  0  0  0  0  0  0  0
  142.7053   72.1723  220.5299 H   0  0  0  0  0  0  0  0  0  0  0  0
  143.1422   72.8367  218.9291 H   0  0  0  0  0  0  0  0  0  0  0  0
  144.7198   71.1398  220.6262 H   0  0  0  0  0  0  0  0  0  0  0  0
  145.2107   71.8454  219.0850 H   0  0  0  0  0  0  0  0  0  0  0  0
  145.6604   72.8756  221.9171 H   0  0  0  0  0  0  0  0  0  0  0  0
  146.7434   73.0174  220.5458 H   0  0  0  0  0  0  0  0  0  0  0  0
  145.3322   75.1878  221.2669 H   0  0  0  0  0  0  0  0  0  0  0  0
  145.3746   74.8541  219.5545 H   0  0  0  0  0  0  0  0  0  0  0  0
  141.7675   73.8310  221.7153 H   0  0  0  0  0  0  0  0  0  0  0  0
  140.8203   75.0856  222.5727 H   0  0  0  0  0  0  0  0  0  0  0  0
  137.9735   76.4318  221.5440 H   0  0  0  0  0  0  0  0  0  0  0  0
  135.8502   76.0417  222.7118 H   0  0  0  0  0  0  0  0  0  0  0  0
  135.2304   73.7358  223.3966 H   0  0  0  0  0  0  0  0  0  0  0  0
  136.7705   71.8726  222.8905 H   0  0  0  0  0  0  0  0  0  0  0  0
  1  2  2  0
  2  3  1  0
  3  4  2  0
  4  5  1  0
  5  6  2  0
  6  7  1  0
  6  8  1  0
  8  9  2  0
  9 10  1  0
 10 11  2  0
 11 12  1  0
  2 13  1  0
 13 14  1  0
 15 14  1  6
 15 16  1  0
 16 17  1  0
 17 18  1  0
 18 19  1  0
 19 20  1  0
 20 21  1  0
 21 22  1  0
 22 23  1  0
 23 24  1  0
 18 25  1  0
 15 26  1  0
 26 27  2  0
 27 28  1  0
 28 29  2  0
 29 30  1  0
 30 31  2  0
 12  3  1  0
 31 13  1  0
 11  5  1  0
 25 15  1  0
 31 26  1  0
 24 20  1  0
  4 32  1  0
  8 33  1  0
  9 34  1  0
 10 35  1  0
 12 36  1  0
 14 37  1  0
 14 38  1  0
 16 39  1  0
 16 40  1  0
 17 41  1  0
 17 42  1  0
 19 43  1  0
 19 44  1  0
 20 45  1  0
 21 46  1  0
 21 47  1  0
 22 48  1  0
 22 49  1  0
 23 50  1  0
 23 51  1  0
 24 52  1  0
 24 53  1  0
 25 54  1  0
 25 55  1  0
 27 56  1  0
 28 57  1  0
 29 58  1  0
 30 59  1  0
M  END
>  <smiles>  (27) 
O=C(c1cc2c(F)cccc2[nH]1)N1C[C@@]2(CCN(CC3CCCC3)C2)c2ccccc21

>  <score_type>  (27) 
oracle

>  <origin>  (27) 
autodockgpu

>  <m_score__min__energy>  (27) 
-8.6600000000000001

>  <m_primary>  (27) 
energy

>  <rmsd>  (27) 
4.953402066527705

>  <m_score__min__rmsd>  (27) 
4.953402066527705

>  <meeko>  (27) 
{"free_energy": -8.0, "intermolecular_energy": -9.19, "internal_energy": -1.65, "cluster_size": 17, "cluster_id": 3, "rank_in_cluster": 10}

>  <energy>  (27) 
-8.05

>  <cluster_rmsd>  (27) 
0.0

>  <cluster>  (27) 
3

$$$$

     RDKit          3D

 59 64  0  0  0  0  0  0  0  0999 V2000
  139.5780   69.8850  221.5600 O   0  0  0  0  0  0  0  0  0  0  0  0
  139.6060   70.9650  222.2390 C   0  0  0  0  0  0  0  0  0  0  0  0
  139.9300   70.8880  223.6730 C   0  0  0  0  0  0  0  0  0  0  0  0
  139.9130   69.7110  224.4350 C   0  0  0  0  0  0  0  0  0  0  0  0
  140.2790   70.0610  225.7160 C   0  0  0  0  0  0  0  0  0  0  0  0
  140.4480   69.3460  226.9080 C   0  0  0  0  0  0  0  0  0  0  0  0
  140.2050   68.0100  226.8410 F   0  0  0  0  0  0  0  0  0  0  0  0
  140.8330   69.9580  228.0690 C   0  0  0  0  0  0  0  0  0  0  0  0
  141.0720   71.3110  228.1060 C   0  0  0  0  0  0  0  0  0  0  0  0
  140.9090   72.0330  226.9340 C   0  0  0  0  0  0  0  0  0  0  0  0
  140.5180   71.4370  225.7440 C   0  0  0  0  0  0  0  0  0  0  0  0
  140.2930   71.8900  224.4870 N   0  0  0  0  0  0  0  0  0  0  0  0
  139.3320   72.1780  221.5830 N   0  0  0  0  0  0  0  0  0  0  0  0
  140.0240   72.7990  220.4610 C   0  0  0  0  0  0  0  0  0  0  0  0
  139.8850   74.2630  220.8470 C   0  0  2  0  0  0  0  0  0  0  0  0
  139.8360   75.1760  219.6430 C   0  0  0  0  0  0  0  0  0  0  0  0
  140.6760   76.3590  220.1090 C   0  0  0  0  0  0  0  0  0  0  0  0
  141.7780   75.7240  220.8030 N   0  0  0  0  0  0  0  0  0  0  0  0
  142.7360   75.1730  219.8980 C   0  0  0  0  0  0  0  0  0  0  0  0
  143.5690   74.1200  220.5720 C   0  0  0  0  0  0  0  0  0  0  0  0
  143.4910   72.7660  219.9650 C   0  0  0  0  0  0  0  0  0  0  0  0
  144.8470   72.1200  220.0740 C   0  0  0  0  0  0  0  0  0  0  0  0
  145.7030   73.1220  220.8490 C   0  0  0  0  0  0  0  0  0  0  0  0
  145.0490   74.4660  220.5280 C   0  0  0  0  0  0  0  0  0  0  0  0
  141.1020   74.6910  221.5810 C   0  0  0  0  0  0  0  0  0  0  0  0
  138.6080   74.3720  221.5530 C   0  0  0  0  0  0  0  0  0  0  0  0
  137.7140   75.3820  221.8520 C   0  0  0  0  0  0  0  0  0  0  0  0
  136.5240   75.1720  222.5140 C   0  0  0  0  0  0  0  0  0  0  0  0
  136.1910   73.9050  222.9040 C   0  0  0  0  0  0  0  0  0  0  0  0
  137.0620   72.8740  222.6230 C   0  0  0  0  0  0  0  0  0  0  0  0
  138.2700   73.0790  221.9540 C   0  0  0  0  0  0  0  0  0  0  0  0
  139.6567   68.7024  224.0785 H   0  0  0  0  0  0  0  0  0  0  0  0
  140.9528   69.3600  228.9844 H   0  0  0  0  0  0  0  0  0  0  0  0
  141.3833   71.8060  229.0377 H   0  0  0  0  0  0  0  0  0  0  0  0
  141.0963   73.1168  226.9481 H   0  0  0  0  0  0  0  0  0  0  0  0
  140.4000   72.8900  224.2210 H   0  0  0  0  0  0  0  0  0  0  0  0
  141.0779   72.4885  220.4083 H   0  0  0  0  0  0  0  0  0  0  0  0
  139.6257   72.5403  219.4688 H   0  0  0  0  0  0  0  0  0  0  0  0
  140.2788   74.6951  218.7583 H   0  0  0  0  0  0  0  0  0  0  0  0
  138.8161   75.4498  219.3349 H   0  0  0  0  0  0  0  0  0  0  0  0
  141.0355   76.9498  219.2536 H   0  0  0  0  0  0  0  0  0  0  0  0
  140.1166   77.0658  220.7396 H   0  0  0  0  0  0  0  0  0  0  0  0
  142.2075   74.7223  219.0450 H   0  0  0  0  0  0  0  0  0  0  0  0
  143.4005   75.9803  219.5563 H   0  0  0  0  0  0  0  0  0  0  0  0
  143.1488   74.1003  221.5884 H   0  0  0  0  0  0  0  0  0  0  0  0
  142.7461   72.1601  220.5017 H   0  0  0  0  0  0  0  0  0  0  0  0
  143.1906   72.8406  218.9095 H   0  0  0  0  0  0  0  0  0  0  0  0
  144.7784   71.1672  220.6194 H   0  0  0  0  0  0  0  0  0  0  0  0
  145.2744   71.8886  219.0872 H   0  0  0  0  0  0  0  0  0  0  0  0
  145.6702   72.9158  221.9290 H   0  0  0  0  0  0  0  0  0  0  0  0
  146.7669   73.0840  220.5720 H   0  0  0  0  0  0  0  0  0  0  0  0
  145.3042   75.2244  221.2828 H   0  0  0  0  0  0  0  0  0  0  0  0
  145.3737   74.8981  219.5700 H   0  0  0  0  0  0  0  0  0  0  0  0
  141.7740   73.8308  221.7171 H   0  0  0  0  0  0  0  0  0  0  0  0
  140.8242   75.0871  222.5689 H   0  0  0  0  0  0  0  0  0  0  0  0
  137.9655   76.4080  221.5454 H   0  0  0  0  0  0  0  0  0  0  0  0
  135.8495   76.0146  222.7263 H   0  0  0  0  0  0  0  0  0  0  0  0
  135.2457   73.7116  223.4322 H   0  0  0  0  0  0  0  0  0  0  0  0
  136.7958   71.8539  222.9370 H   0  0  0  0  0  0  0  0  0  0  0  0
  1  2  2  0
  2  3  1  0
  3  4  2  0
  4  5  1  0
  5  6  2  0
  6  7  1  0
  6  8  1  0
  8  9  2  0
  9 10  1  0
 10 11  2  0
 11 12  1  0
  2 13  1  0
 13 14  1  0
 15 14  1  6
 15 16  1  0
 16 17  1  0
 17 18  1  0
 18 19  1  0
 19 20  1  0
 20 21  1  0
 21 22  1  0
 22 23  1  0
 23 24  1  0
 18 25  1  0
 15 26  1  0
 26 27  2  0
 27 28  1  0
 28 29  2  0
 29 30  1  0
 30 31  2  0
 12  3  1  0
 31 13  1  0
 11  5  1  0
 25 15  1  0
 31 26  1  0
 24 20  1  0
  4 32  1  0
  8 33  1  0
  9 34  1  0
 10 35  1  0
 12 36  1  0
 14 37  1  0
 14 38  1  0
 16 39  1  0
 16 40  1  0
 17 41  1  0
 17 42  1  0
 19 43  1  0
 19 44  1  0
 20 45  1  0
 21 46  1  0
 21 47  1  0
 22 48  1  0
 22 49  1  0
 23 50  1  0
 23 51  1  0
 24 52  1  0
 24 53  1  0
 25 54  1  0
 25 55  1  0
 27 56  1  0
 28 57  1  0
 29 58  1  0
 30 59  1  0
M  END
>  <smiles>  (28) 
O=C(c1cc2c(F)cccc2[nH]1)N1C[C@@]2(CCN(CC3CCCC3)C2)c2ccccc21

>  <score_type>  (28) 
oracle

>  <origin>  (28) 
autodockgpu

>  <m_score__min__energy>  (28) 
-8.6600000000000001

>  <m_primary>  (28) 
energy

>  <rmsd>  (28) 
4.976466111123543

>  <m_score__min__rmsd>  (28) 
4.976466111123543

>  <meeko>  (28) 
{"free_energy": -8.01, "intermolecular_energy": -9.2, "internal_energy": -1.64, "cluster_size": 17, "cluster_id": 3, "rank_in_cluster": 9}

>  <energy>  (28) 
-8.03

>  <cluster_rmsd>  (28) 
0.06

>  <cluster>  (28) 
3

$$$$

     RDKit          3D

 59 64  0  0  0  0  0  0  0  0999 V2000
  137.8160   76.3470  222.8740 O   0  0  0  0  0  0  0  0  0  0  0  0
  139.0020   76.3670  222.4060 C   0  0  0  0  0  0  0  0  0  0  0  0
  139.8350   77.5560  222.6470 C   0  0  0  0  0  0  0  0  0  0  0  0
  139.3570   78.8720  222.6940 C   0  0  0  0  0  0  0  0  0  0  0  0
  140.4430   79.6820  222.9470 C   0  0  0  0  0  0  0  0  0  0  0  0
  140.6080   81.0630  223.1090 C   0  0  0  0  0  0  0  0  0  0  0  0
  139.4820   81.8160  222.9950 F   0  0  0  0  0  0  0  0  0  0  0  0
  141.8320   81.6190  223.3640 C   0  0  0  0  0  0  0  0  0  0  0  0
  142.9530   80.8320  223.4740 C   0  0  0  0  0  0  0  0  0  0  0  0
  142.8060   79.4630  223.3170 C   0  0  0  0  0  0  0  0  0  0  0  0
  141.5770   78.8740  223.0550 C   0  0  0  0  0  0  0  0  0  0  0  0
  141.1580   77.5990  222.8670 N   0  0  0  0  0  0  0  0  0  0  0  0
  139.4580   75.2490  221.6860 N   0  0  0  0  0  0  0  0  0  0  0  0
  138.8530   73.9310  221.5440 C   0  0  0  0  0  0  0  0  0  0  0  0
  140.1070   73.0720  221.5050 C   0  0  2  0  0  0  0  0  0  0  0  0
  139.9210   71.8160  220.6830 C   0  0  0  0  0  0  0  0  0  0  0  0
  140.6700   70.7810  221.5140 C   0  0  0  0  0  0  0  0  0  0  0  0
  140.2950   71.1190  222.8720 N   0  0  0  0  0  0  0  0  0  0  0  0
  138.9740   70.6770  223.1890 C   0  0  0  0  0  0  0  0  0  0  0  0
  138.8910   70.2050  224.6140 C   0  0  0  0  0  0  0  0  0  0  0  0
  138.9470   68.7310  224.7980 C   0  0  0  0  0  0  0  0  0  0  0  0
  139.7010   68.4420  226.0680 C   0  0  0  0  0  0  0  0  0  0  0  0
  140.0110   69.8130  226.6670 C   0  0  0  0  0  0  0  0  0  0  0  0
  140.0500   70.7310  225.4460 C   0  0  0  0  0  0  0  0  0  0  0  0
  140.4010   72.5750  222.8720 C   0  0  0  0  0  0  0  0  0  0  0  0
  141.1340   73.8900  220.8590 C   0  0  0  0  0  0  0  0  0  0  0  0
  142.3270   73.6610  220.2000 C   0  0  0  0  0  0  0  0  0  0  0  0
  143.0850   74.6610  219.6320 C   0  0  0  0  0  0  0  0  0  0  0  0
  142.6520   75.9550  219.7120 C   0  0  0  0  0  0  0  0  0  0  0  0
  141.4660   76.2190  220.3630 C   0  0  0  0  0  0  0  0  0  0  0  0
  140.6930   75.2110  220.9430 C   0  0  0  0  0  0  0  0  0  0  0  0
  138.3151   79.1965  222.5556 H   0  0  0  0  0  0  0  0  0  0  0  0
  141.9196   82.7091  223.4824 H   0  0  0  0  0  0  0  0  0  0  0  0
  143.9381   81.2756  223.6806 H   0  0  0  0  0  0  0  0  0  0  0  0
  143.6947   78.8206  223.4031 H   0  0  0  0  0  0  0  0  0  0  0  0
  141.8040   76.7840  222.8960 H   0  0  0  0  0  0  0  0  0  0  0  0
  138.2124   73.6805  222.4024 H   0  0  0  0  0  0  0  0  0  0  0  0
  138.1846   73.8173  220.6778 H   0  0  0  0  0  0  0  0  0  0  0  0
  138.8566   71.5561  220.5852 H   0  0  0  0  0  0  0  0  0  0  0  0
  140.2862   71.9039  219.6491 H   0  0  0  0  0  0  0  0  0  0  0  0
  140.3488   69.7607  221.2576 H   0  0  0  0  0  0  0  0  0  0  0  0
  141.7573   70.7968  221.3482 H   0  0  0  0  0  0  0  0  0  0  0  0
  138.2714   71.5110  223.0448 H   0  0  0  0  0  0  0  0  0  0  0  0
  138.7170   69.8375  222.5263 H   0  0  0  0  0  0  0  0  0  0  0  0
  137.9092   70.5859  224.9319 H   0  0  0  0  0  0  0  0  0  0  0  0
  137.9268   68.3262  224.8707 H   0  0  0  0  0  0  0  0  0  0  0  0
  139.4526   68.2609  223.9416 H   0  0  0  0  0  0  0  0  0  0  0  0
  139.0823   67.8498  226.7583 H   0  0  0  0  0  0  0  0  0  0  0  0
  140.6140   67.8575  225.8816 H   0  0  0  0  0  0  0  0  0  0  0  0
  139.2226   70.1237  227.3683 H   0  0  0  0  0  0  0  0  0  0  0  0
  140.9462   69.8277  227.2460 H   0  0  0  0  0  0  0  0  0  0  0  0
  139.8921   71.7816  225.7313 H   0  0  0  0  0  0  0  0  0  0  0  0
  141.0142   70.7223  224.9167 H   0  0  0  0  0  0  0  0  0  0  0  0
  139.6775   72.9991  223.5839 H   0  0  0  0  0  0  0  0  0  0  0  0
  141.4153   72.8775  223.1714 H   0  0  0  0  0  0  0  0  0  0  0  0
  142.6904   72.6255  220.1251 H   0  0  0  0  0  0  0  0  0  0  0  0
  144.0284   74.4209  219.1197 H   0  0  0  0  0  0  0  0  0  0  0  0
  143.2392   76.7707  219.2651 H   0  0  0  0  0  0  0  0  0  0  0  0
  141.1163   77.2599  220.4279 H   0  0  0  0  0  0  0  0  0  0  0  0
  1  2  2  0
  2  3  1  0
  3  4  2  0
  4  5  1  0
  5  6  2  0
  6  7  1  0
  6  8  1  0
  8  9  2  0
  9 10  1  0
 10 11  2  0
 11 12  1  0
  2 13  1  0
 13 14  1  0
 15 14  1  1
 15 16  1  0
 16 17  1  0
 17 18  1  0
 18 19  1  0
 19 20  1  0
 20 21  1  0
 21 22  1  0
 22 23  1  0
 23 24  1  0
 18 25  1  0
 15 26  1  0
 26 27  2  0
 27 28  1  0
 28 29  2  0
 29 30  1  0
 30 31  2  0
 12  3  1  0
 31 13  1  0
 11  5  1  0
 25 15  1  0
 31 26  1  0
 24 20  1  0
  4 32  1  0
  8 33  1  0
  9 34  1  0
 10 35  1  0
 12 36  1  0
 14 37  1  0
 14 38  1  0
 16 39  1  0
 16 40  1  0
 17 41  1  0
 17 42  1  0
 19 43  1  0
 19 44  1  0
 20 45  1  0
 21 46  1  0
 21 47  1  0
 22 48  1  0
 22 49  1  0
 23 50  1  0
 23 51  1  0
 24 52  1  0
 24 53  1  0
 25 54  1  0
 25 55  1  0
 27 56  1  0
 28 57  1  0
 29 58  1  0
 30 59  1  0
M  END
>  <smiles>  (29) 
O=C(c1cc2c(F)cccc2[nH]1)N1C[C@@]2(CCN(CC3CCCC3)C2)c2ccccc21

>  <score_type>  (29) 
oracle

>  <origin>  (29) 
autodockgpu

>  <m_score__min__energy>  (29) 
-8.6600000000000001

>  <m_primary>  (29) 
energy

>  <rmsd>  (29) 
7.577162719617774

>  <m_score__min__rmsd>  (29) 
7.577162719617774

>  <meeko>  (29) 
{"free_energy": -8.65, "intermolecular_energy": -9.85, "internal_energy": -1.23, "cluster_size": 19, "cluster_id": 1, "rank_in_cluster": 7}

>  <energy>  (29) 
-8.03

>  <cluster_rmsd>  (29) 
0.09

>  <cluster>  (29) 
3

$$$$

     RDKit          3D

 59 64  0  0  0  0  0  0  0  0999 V2000
  139.9070   75.1660  222.3260 O   0  0  0  0  0  0  0  0  0  0  0  0
  140.8250   75.5790  221.5420 C   0  0  0  0  0  0  0  0  0  0  0  0
  141.8520   74.6230  221.0940 C   0  0  0  0  0  0  0  0  0  0  0  0
  141.6350   73.2540  220.8880 C   0  0  0  0  0  0  0  0  0  0  0  0
  142.8340   72.7200  220.4680 C   0  0  0  0  0  0  0  0  0  0  0  0
  143.2500   71.4330  220.1060 C   0  0  0  0  0  0  0  0  0  0  0  0
  142.3020   70.4600  220.1690 F   0  0  0  0  0  0  0  0  0  0  0  0
  144.5340   71.1730  219.7140 C   0  0  0  0  0  0  0  0  0  0  0  0
  145.4710   72.1780  219.6590 C   0  0  0  0  0  0  0  0  0  0  0  0
  145.0740   73.4570  220.0150 C   0  0  0  0  0  0  0  0  0  0  0  0
  143.7790   73.7470  220.4180 C   0  0  0  0  0  0  0  0  0  0  0  0
  143.1370   74.8760  220.8050 N   0  0  0  0  0  0  0  0  0  0  0  0
  140.8100   76.9260  221.1400 N   0  0  0  0  0  0  0  0  0  0  0  0
  140.3650   77.5090  219.8810 C   0  0  0  0  0  0  0  0  0  0  0  0
  141.3730   78.6400  219.7480 C   0  0  2  0  0  0  0  0  0  0  0  0
  140.8120   79.8290  219.0000 C   0  0  0  0  0  0  0  0  0  0  0  0
  142.0010   80.2560  218.1480 C   0  0  0  0  0  0  0  0  0  0  0  0
  142.5480   78.9930  217.6940 N   0  0  0  0  0  0  0  0  0  0  0  0
  141.7730   78.4190  216.6410 C   0  0  0  0  0  0  0  0  0  0  0  0
  142.2520   77.0330  216.3130 C   0  0  0  0  0  0  0  0  0  0  0  0
  143.6860   76.7730  216.6010 C   0  0  0  0  0  0  0  0  0  0  0  0
  143.8230   75.3500  217.0730 C   0  0  0  0  0  0  0  0  0  0  0  0
  142.4180   74.7590  216.9670 C   0  0  0  0  0  0  0  0  0  0  0  0
  141.5110   75.9800  217.1210 C   0  0  0  0  0  0  0  0  0  0  0  0
  142.5090   78.1830  218.9080 C   0  0  0  0  0  0  0  0  0  0  0  0
  141.6830   79.0650  221.1130 C   0  0  0  0  0  0  0  0  0  0  0  0
  142.1990   80.1970  221.7150 C   0  0  0  0  0  0  0  0  0  0  0  0
  142.3370   80.3370  223.0780 C   0  0  0  0  0  0  0  0  0  0  0  0
  141.9490   79.3130  223.8970 C   0  0  0  0  0  0  0  0  0  0  0  0
  141.4300   78.1690  223.3290 C   0  0  0  0  0  0  0  0  0  0  0  0
  141.2890   78.0200  221.9480 C   0  0  0  0  0  0  0  0  0  0  0  0
  140.6898   72.7104  221.0335 H   0  0  0  0  0  0  0  0  0  0  0  0
  144.8209   70.1472  219.4393 H   0  0  0  0  0  0  0  0  0  0  0  0
  146.5042   71.9729  219.3420 H   0  0  0  0  0  0  0  0  0  0  0  0
  145.8124   74.2714  219.9766 H   0  0  0  0  0  0  0  0  0  0  0  0
  143.6090   75.8020  220.8580 H   0  0  0  0  0  0  0  0  0  0  0  0
  140.4414   76.7932  219.0493 H   0  0  0  0  0  0  0  0  0  0  0  0
  139.3104   77.8212  219.8602 H   0  0  0  0  0  0  0  0  0  0  0  0
  139.9550   79.5395  218.3741 H   0  0  0  0  0  0  0  0  0  0  0  0
  140.4272   80.6243  219.6553 H   0  0  0  0  0  0  0  0  0  0  0  0
  141.6765   80.8744  217.2982 H   0  0  0  0  0  0  0  0  0  0  0  0
  142.7290   80.8709  218.6974 H   0  0  0  0  0  0  0  0  0  0  0  0
  140.7198   78.3706  216.9549 H   0  0  0  0  0  0  0  0  0  0  0  0
  141.8798   79.0477  215.7447 H   0  0  0  0  0  0  0  0  0  0  0  0
  142.0695   76.9703  215.2301 H   0  0  0  0  0  0  0  0  0  0  0  0
  144.2815   76.9210  215.6880 H   0  0  0  0  0  0  0  0  0  0  0  0
  144.0487   77.4655  217.3748 H   0  0  0  0  0  0  0  0  0  0  0  0
  144.5244   74.7962  216.4317 H   0  0  0  0  0  0  0  0  0  0  0  0
  144.2186   75.2917  218.0977 H   0  0  0  0  0  0  0  0  0  0  0  0
  142.2662   74.2759  215.9905 H   0  0  0  0  0  0  0  0  0  0  0  0
  142.2212   73.9789  217.7171 H   0  0  0  0  0  0  0  0  0  0  0  0
  140.5107   75.7890  216.7053 H   0  0  0  0  0  0  0  0  0  0  0  0
  141.3336   76.2696  218.1672 H   0  0  0  0  0  0  0  0  0  0  0  0
  142.3709   77.1245  218.6426 H   0  0  0  0  0  0  0  0  0  0  0  0
  143.4529   78.2920  219.4622 H   0  0  0  0  0  0  0  0  0  0  0  0
  142.5164   81.0305  221.0711 H   0  0  0  0  0  0  0  0  0  0  0  0
  142.7545   81.2617  223.5029 H   0  0  0  0  0  0  0  0  0  0  0  0
  142.0491   79.4004  224.9889 H   0  0  0  0  0  0  0  0  0  0  0  0
  141.1161   77.3450  223.9867 H   0  0  0  0  0  0  0  0  0  0  0  0
  1  2  2  0
  2  3  1  0
  3  4  2  0
  4  5  1  0
  5  6  2  0
  6  7  1  0
  6  8  1  0
  8  9  2  0
  9 10  1  0
 10 11  2  0
 11 12  1  0
  2 13  1  0
 13 14  1  0
 15 14  1  1
 15 16  1  0
 16 17  1  0
 17 18  1  0
 18 19  1  0
 19 20  1  0
 20 21  1  0
 21 22  1  0
 22 23  1  0
 23 24  1  0
 18 25  1  0
 15 26  1  0
 26 27  2  0
 27 28  1  0
 28 29  2  0
 29 30  1  0
 30 31  2  0
 12  3  1  0
 31 13  1  0
 11  5  1  0
 25 15  1  0
 31 26  1  0
 24 20  1  0
  4 32  1  0
  8 33  1  0
  9 34  1  0
 10 35  1  0
 12 36  1  0
 14 37  1  0
 14 38  1  0
 16 39  1  0
 16 40  1  0
 17 41  1  0
 17 42  1  0
 19 43  1  0
 19 44  1  0
 20 45  1  0
 21 46  1  0
 21 47  1  0
 22 48  1  0
 22 49  1  0
 23 50  1  0
 23 51  1  0
 24 52  1  0
 24 53  1  0
 25 54  1  0
 25 55  1  0
 27 56  1  0
 28 57  1  0
 29 58  1  0
 30 59  1  0
M  END
>  <smiles>  (30) 
O=C(c1cc2c(F)cccc2[nH]1)N1C[C@@]2(CCN(CC3CCCC3)C2)c2ccccc21

>  <score_type>  (30) 
oracle

>  <origin>  (30) 
autodockgpu

>  <m_score__min__energy>  (30) 
-8.6600000000000001

>  <m_primary>  (30) 
energy

>  <rmsd>  (30) 
5.873110112634813

>  <m_score__min__rmsd>  (30) 
5.873110112634813

>  <meeko>  (30) 
{"free_energy": -7.38, "intermolecular_energy": -8.57, "internal_energy": -2.11, "cluster_size": 6, "cluster_id": 5, "rank_in_cluster": 5}

>  <energy>  (30) 
-8.02

>  <cluster_rmsd>  (30) 
0.1

>  <cluster>  (30) 
3

$$$$

     RDKit          3D

 59 64  0  0  0  0  0  0  0  0999 V2000
  137.8050   76.3450  222.8580 O   0  0  0  0  0  0  0  0  0  0  0  0
  138.9890   76.3730  222.3850 C   0  0  0  0  0  0  0  0  0  0  0  0
  139.8190   77.5640  222.6320 C   0  0  0  0  0  0  0  0  0  0  0  0
  139.3330   78.8760  222.7050 C   0  0  0  0  0  0  0  0  0  0  0  0
  140.4170   79.6890  222.9550 C   0  0  0  0  0  0  0  0  0  0  0  0
  140.5770   81.0680  223.1340 C   0  0  0  0  0  0  0  0  0  0  0  0
  139.4440   81.8150  223.0490 F   0  0  0  0  0  0  0  0  0  0  0  0
  141.8000   81.6280  223.3800 C   0  0  0  0  0  0  0  0  0  0  0  0
  142.9280   80.8470  223.4620 C   0  0  0  0  0  0  0  0  0  0  0  0
  142.7870   79.4790  223.2860 C   0  0  0  0  0  0  0  0  0  0  0  0
  141.5580   78.8870  223.0340 C   0  0  0  0  0  0  0  0  0  0  0  0
  141.1440   77.6130  222.8320 N   0  0  0  0  0  0  0  0  0  0  0  0
  139.4470   75.2620  221.6550 N   0  0  0  0  0  0  0  0  0  0  0  0
  138.8520   73.9400  221.5140 C   0  0  0  0  0  0  0  0  0  0  0  0
  140.1130   73.0920  221.4560 C   0  0  2  0  0  0  0  0  0  0  0  0
  139.9290   71.8380  220.6310 C   0  0  0  0  0  0  0  0  0  0  0  0
  140.6960   70.8060  221.4490 C   0  0  0  0  0  0  0  0  0  0  0  0
  140.3330   71.1340  222.8130 N   0  0  0  0  0  0  0  0  0  0  0  0
  139.0200   70.6800  223.1430 C   0  0  0  0  0  0  0  0  0  0  0  0
  138.9430   70.2530  224.5810 C   0  0  0  0  0  0  0  0  0  0  0  0
  138.9310   68.7840  224.8070 C   0  0  0  0  0  0  0  0  0  0  0  0
  139.6960   68.4930  226.0710 C   0  0  0  0  0  0  0  0  0  0  0  0
  140.0840   69.8640  226.6240 C   0  0  0  0  0  0  0  0  0  0  0  0
  140.1430   70.7430  225.3750 C   0  0  0  0  0  0  0  0  0  0  0  0
  140.4260   72.5910  222.8180 C   0  0  0  0  0  0  0  0  0  0  0  0
  141.1250   73.9220  220.8030 C   0  0  0  0  0  0  0  0  0  0  0  0
  142.3140   73.7070  220.1300 C   0  0  0  0  0  0  0  0  0  0  0  0
  143.0560   74.7160  219.5580 C   0  0  0  0  0  0  0  0  0  0  0  0
  142.6130   76.0060  219.6490 C   0  0  0  0  0  0  0  0  0  0  0  0
  141.4310   76.2560  220.3140 C   0  0  0  0  0  0  0  0  0  0  0  0
  140.6740   75.2390  220.8980 C   0  0  0  0  0  0  0  0  0  0  0  0
  138.2872   79.1956  222.5857 H   0  0  0  0  0  0  0  0  0  0  0  0
  141.8821   82.7167  223.5139 H   0  0  0  0  0  0  0  0  0  0  0  0
  143.9132   81.2939  223.6613 H   0  0  0  0  0  0  0  0  0  0  0  0
  143.6808   78.8408  223.3483 H   0  0  0  0  0  0  0  0  0  0  0  0
  141.7950   76.8010  222.8400 H   0  0  0  0  0  0  0  0  0  0  0  0
  138.2239   73.6800  222.3788 H   0  0  0  0  0  0  0  0  0  0  0  0
  138.1743   73.8245  220.6553 H   0  0  0  0  0  0  0  0  0  0  0  0
  138.8659   71.5692  220.5439 H   0  0  0  0  0  0  0  0  0  0  0  0
  140.2822   71.9335  219.5936 H   0  0  0  0  0  0  0  0  0  0  0  0
  140.3810   69.7841  221.1912 H   0  0  0  0  0  0  0  0  0  0  0  0
  141.7813   70.8326  221.2715 H   0  0  0  0  0  0  0  0  0  0  0  0
  138.3034   71.4968  222.9715 H   0  0  0  0  0  0  0  0  0  0  0  0
  138.7785   69.8152  222.5075 H   0  0  0  0  0  0  0  0  0  0  0  0
  137.9876   70.6910  224.9057 H   0  0  0  0  0  0  0  0  0  0  0  0
  137.8939   68.4322  224.9107 H   0  0  0  0  0  0  0  0  0  0  0  0
  139.3960   68.2660  223.9552 H   0  0  0  0  0  0  0  0  0  0  0  0
  139.0634   67.9513  226.7896 H   0  0  0  0  0  0  0  0  0  0  0  0
  140.5754   67.8590  225.8847 H   0  0  0  0  0  0  0  0  0  0  0  0
  139.3256   70.2331  227.3301 H   0  0  0  0  0  0  0  0  0  0  0  0
  141.0298   69.8498  227.1854 H   0  0  0  0  0  0  0  0  0  0  0  0
  140.0436   71.8080  225.6317 H   0  0  0  0  0  0  0  0  0  0  0  0
  141.0945   70.6697  224.8279 H   0  0  0  0  0  0  0  0  0  0  0  0
  139.7064   73.0055  223.5394 H   0  0  0  0  0  0  0  0  0  0  0  0
  141.4409   72.9010  223.1076 H   0  0  0  0  0  0  0  0  0  0  0  0
  142.6866   72.6753  220.0474 H   0  0  0  0  0  0  0  0  0  0  0  0
  143.9952   74.4865  219.0334 H   0  0  0  0  0  0  0  0  0  0  0  0
  143.1885   76.8291  219.2003 H   0  0  0  0  0  0  0  0  0  0  0  0
  141.0721   77.2933  220.3867 H   0  0  0  0  0  0  0  0  0  0  0  0
  1  2  2  0
  2  3  1  0
  3  4  2  0
  4  5  1  0
  5  6  2  0
  6  7  1  0
  6  8  1  0
  8  9  2  0
  9 10  1  0
 10 11  2  0
 11 12  1  0
  2 13  1  0
 13 14  1  0
 15 14  1  1
 15 16  1  0
 16 17  1  0
 17 18  1  0
 18 19  1  0
 19 20  1  0
 20 21  1  0
 21 22  1  0
 22 23  1  0
 23 24  1  0
 18 25  1  0
 15 26  1  0
 26 27  2  0
 27 28  1  0
 28 29  2  0
 29 30  1  0
 30 31  2  0
 12  3  1  0
 31 13  1  0
 11  5  1  0
 25 15  1  0
 31 26  1  0
 24 20  1  0
  4 32  1  0
  8 33  1  0
  9 34  1  0
 10 35  1  0
 12 36  1  0
 14 37  1  0
 14 38  1  0
 16 39  1  0
 16 40  1  0
 17 41  1  0
 17 42  1  0
 19 43  1  0
 19 44  1  0
 20 45  1  0
 21 46  1  0
 21 47  1  0
 22 48  1  0
 22 49  1  0
 23 50  1  0
 23 51  1  0
 24 52  1  0
 24 53  1  0
 25 54  1  0
 25 55  1  0
 27 56  1  0
 28 57  1  0
 29 58  1  0
 30 59  1  0
M  END
>  <smiles>  (31) 
O=C(c1cc2c(F)cccc2[nH]1)N1C[C@@]2(CCN(CC3CCCC3)C2)c2ccccc21

>  <score_type>  (31) 
oracle

>  <origin>  (31) 
autodockgpu

>  <m_score__min__energy>  (31) 
-8.6600000000000001

>  <m_primary>  (31) 
energy

>  <rmsd>  (31) 
7.5702534175539755

>  <m_score__min__rmsd>  (31) 
7.5702534175539755

>  <meeko>  (31) 
{"free_energy": -8.65, "intermolecular_energy": -9.85, "internal_energy": -1.22, "cluster_size": 19, "cluster_id": 1, "rank_in_cluster": 8}

>  <energy>  (31) 
-8.02

>  <cluster_rmsd>  (31) 
0.16

>  <cluster>  (31) 
3

$$$$

     RDKit          3D

 59 64  0  0  0  0  0  0  0  0999 V2000
  138.9760   69.2740  221.7030 O   0  0  0  0  0  0  0  0  0  0  0  0
  139.1980   70.3490  222.3520 C   0  0  0  0  0  0  0  0  0  0  0  0
  139.6130   70.2490  223.7610 C   0  0  0  0  0  0  0  0  0  0  0  0
  140.1180   71.3110  224.5240 C   0  0  0  0  0  0  0  0  0  0  0  0
  140.3770   70.8100  225.7810 C   0  0  0  0  0  0  0  0  0  0  0  0
  140.8790   71.3660  226.9640 C   0  0  0  0  0  0  0  0  0  0  0  0
  141.2000   72.6870  226.9120 F   0  0  0  0  0  0  0  0  0  0  0  0
  141.0360   70.6230  228.1020 C   0  0  0  0  0  0  0  0  0  0  0  0
  140.7020   69.2900  228.1240 C   0  0  0  0  0  0  0  0  0  0  0  0
  140.2040   68.7250  226.9600 C   0  0  0  0  0  0  0  0  0  0  0  0
  140.0370   69.4550  225.7930 C   0  0  0  0  0  0  0  0  0  0  0  0
  139.5810   69.1650  224.5510 N   0  0  0  0  0  0  0  0  0  0  0  0
  139.0400   71.5790  221.6890 N   0  0  0  0  0  0  0  0  0  0  0  0
  139.7590   72.1060  220.5370 C   0  0  0  0  0  0  0  0  0  0  0  0
  139.7980   73.5800  220.9070 C   0  0  2  0  0  0  0  0  0  0  0  0
  139.8110   74.4810  219.6920 C   0  0  0  0  0  0  0  0  0  0  0  0
  140.7950   75.5660  220.1130 C   0  0  0  0  0  0  0  0  0  0  0  0
  141.8420   74.8170  220.7800 N   0  0  0  0  0  0  0  0  0  0  0  0
  142.6990   74.1520  219.8510 C   0  0  0  0  0  0  0  0  0  0  0  0
  143.8870   73.5520  220.5500 C   0  0  0  0  0  0  0  0  0  0  0  0
  144.4120   72.2990  219.9450 C   0  0  0  0  0  0  0  0  0  0  0  0
  145.9100   72.2960  220.0920 C   0  0  0  0  0  0  0  0  0  0  0  0
  146.2350   73.5610  220.8860 C   0  0  0  0  0  0  0  0  0  0  0  0
  145.0770   74.4980  220.5450 C   0  0  0  0  0  0  0  0  0  0  0  0
  141.0810   73.8750  221.5940 C   0  0  0  0  0  0  0  0  0  0  0  0
  138.5680   73.8400  221.6530 C   0  0  0  0  0  0  0  0  0  0  0  0
  137.8030   74.9480  221.9680 C   0  0  0  0  0  0  0  0  0  0  0  0
  136.6210   74.8810  222.6710 C   0  0  0  0  0  0  0  0  0  0  0  0
  136.1610   73.6640  223.0900 C   0  0  0  0  0  0  0  0  0  0  0  0
  136.9000   72.5380  222.7940 C   0  0  0  0  0  0  0  0  0  0  0  0
  138.0990   72.5980  222.0830 C   0  0  0  0  0  0  0  0  0  0  0  0
  140.2769   72.3452  224.1845 H   0  0  0  0  0  0  0  0  0  0  0  0
  141.4344   71.0983  229.0105 H   0  0  0  0  0  0  0  0  0  0  0  0
  140.8260   68.6897  229.0373 H   0  0  0  0  0  0  0  0  0  0  0  0
  139.9315   67.6593  226.9623 H   0  0  0  0  0  0  0  0  0  0  0  0
  139.2540   68.2150  224.2790 H   0  0  0  0  0  0  0  0  0  0  0  0
  140.7691   71.6782  220.4547 H   0  0  0  0  0  0  0  0  0  0  0  0
  139.3013   71.8835  219.5618 H   0  0  0  0  0  0  0  0  0  0  0  0
  140.1657   73.9440  218.7999 H   0  0  0  0  0  0  0  0  0  0  0  0
  138.8186   74.8657  219.4143 H   0  0  0  0  0  0  0  0  0  0  0  0
  141.1895   76.1030  219.2378 H   0  0  0  0  0  0  0  0  0  0  0  0
  140.3411   76.3384  220.7513 H   0  0  0  0  0  0  0  0  0  0  0  0
  142.1345   73.3520  219.3496 H   0  0  0  0  0  0  0  0  0  0  0  0
  143.0586   74.8877  219.1165 H   0  0  0  0  0  0  0  0  0  0  0  0
  143.4901   73.3466  221.5551 H   0  0  0  0  0  0  0  0  0  0  0  0
  143.9854   71.4280  220.4640 H   0  0  0  0  0  0  0  0  0  0  0  0
  144.1350   72.2460  218.8818 H   0  0  0  0  0  0  0  0  0  0  0  0
  146.2426   71.4011  220.6383 H   0  0  0  0  0  0  0  0  0  0  0  0
  146.4196   72.2790  219.1173 H   0  0  0  0  0  0  0  0  0  0  0  0
  146.2673   73.3512  221.9653 H   0  0  0  0  0  0  0  0  0  0  0  0
  147.2190   73.9846  220.6365 H   0  0  0  0  0  0  0  0  0  0  0  0
  144.9639   75.2853  221.3048 H   0  0  0  0  0  0  0  0  0  0  0  0
  145.2094   75.0363  219.5949 H   0  0  0  0  0  0  0  0  0  0  0  0
  141.6559   72.9456  221.7194 H   0  0  0  0  0  0  0  0  0  0  0  0
  140.8840   74.3100  222.5849 H   0  0  0  0  0  0  0  0  0  0  0  0
  138.1578   75.9360  221.6393 H   0  0  0  0  0  0  0  0  0  0  0  0
  136.0533   75.7966  222.8930 H   0  0  0  0  0  0  0  0  0  0  0  0
  135.2191   73.5843  223.6526 H   0  0  0  0  0  0  0  0  0  0  0  0
  136.5311   71.5578  223.1304 H   0  0  0  0  0  0  0  0  0  0  0  0
  1  2  2  0
  2  3  1  0
  3  4  2  0
  4  5  1  0
  5  6  2  0
  6  7  1  0
  6  8  1  0
  8  9  2  0
  9 10  1  0
 10 11  2  0
 11 12  1  0
  2 13  1  0
 13 14  1  0
 15 14  1  6
 15 16  1  0
 16 17  1  0
 17 18  1  0
 18 19  1  0
 19 20  1  0
 20 21  1  0
 21 22  1  0
 22 23  1  0
 23 24  1  0
 18 25  1  0
 15 26  1  0
 26 27  2  0
 27 28  1  0
 28 29  2  0
 29 30  1  0
 30 31  2  0
 12  3  1  0
 31 13  1  0
 11  5  1  0
 25 15  1  0
 31 26  1  0
 24 20  1  0
  4 32  1  0
  8 33  1  0
  9 34  1  0
 10 35  1  0
 12 36  1  0
 14 37  1  0
 14 38  1  0
 16 39  1  0
 16 40  1  0
 17 41  1  0
 17 42  1  0
 19 43  1  0
 19 44  1  0
 20 45  1  0
 21 46  1  0
 21 47  1  0
 22 48  1  0
 22 49  1  0
 23 50  1  0
 23 51  1  0
 24 52  1  0
 24 53  1  0
 25 54  1  0
 25 55  1  0
 27 56  1  0
 28 57  1  0
 29 58  1  0
 30 59  1  0
M  END
>  <smiles>  (32) 
O=C(c1cc2c(F)cccc2[nH]1)N1C[C@@]2(CCN(CC3CCCC3)C2)c2ccccc21

>  <score_type>  (32) 
oracle

>  <origin>  (32) 
autodockgpu

>  <m_score__min__energy>  (32) 
-8.6600000000000001

>  <m_primary>  (32) 
energy

>  <rmsd>  (32) 
5.2777195260160035

>  <m_score__min__rmsd>  (32) 
5.2777195260160035

>  <meeko>  (32) 
{"free_energy": -7.94, "intermolecular_energy": -9.14, "internal_energy": -1.54, "cluster_size": 17, "cluster_id": 3, "rank_in_cluster": 12}

>  <energy>  (32) 
-8.01

>  <cluster_rmsd>  (32) 
0.17

>  <cluster>  (32) 
3

$$$$

     RDKit          3D

 59 64  0  0  0  0  0  0  0  0999 V2000
  137.8910   76.3060  222.9780 O   0  0  0  0  0  0  0  0  0  0  0  0
  139.0570   76.3470  222.4640 C   0  0  0  0  0  0  0  0  0  0  0  0
  139.8800   77.5490  222.6770 C   0  0  0  0  0  0  0  0  0  0  0  0
  139.4060   78.8660  222.6040 C   0  0  0  0  0  0  0  0  0  0  0  0
  140.4780   79.6900  222.8710 C   0  0  0  0  0  0  0  0  0  0  0  0
  140.6410   81.0780  222.9490 C   0  0  0  0  0  0  0  0  0  0  0  0
  139.5270   81.8230  222.7130 F   0  0  0  0  0  0  0  0  0  0  0  0
  141.8490   81.6490  223.2440 C   0  0  0  0  0  0  0  0  0  0  0  0
  142.9570   80.8700  223.4770 C   0  0  0  0  0  0  0  0  0  0  0  0
  142.8120   79.4940  223.4040 C   0  0  0  0  0  0  0  0  0  0  0  0
  141.5990   78.8900  223.1050 C   0  0  0  0  0  0  0  0  0  0  0  0
  141.1860   77.6060  222.9760 N   0  0  0  0  0  0  0  0  0  0  0  0
  139.5020   75.2390  221.7210 N   0  0  0  0  0  0  0  0  0  0  0  0
  138.8870   73.9290  221.5580 C   0  0  0  0  0  0  0  0  0  0  0  0
  140.1350   73.0620  221.4980 C   0  0  2  0  0  0  0  0  0  0  0  0
  139.9370   71.8220  220.6540 C   0  0  0  0  0  0  0  0  0  0  0  0
  140.6800   70.7670  221.4630 C   0  0  0  0  0  0  0  0  0  0  0  0
  140.3120   71.0820  222.8290 N   0  0  0  0  0  0  0  0  0  0  0  0
  138.9890   70.6450  223.1420 C   0  0  0  0  0  0  0  0  0  0  0  0
  138.9120   70.1250  224.5500 C   0  0  0  0  0  0  0  0  0  0  0  0
  139.0920   68.6570  224.6950 C   0  0  0  0  0  0  0  0  0  0  0  0
  139.8370   68.3970  225.9770 C   0  0  0  0  0  0  0  0  0  0  0  0
  140.0110   69.7720  226.6220 C   0  0  0  0  0  0  0  0  0  0  0  0
  139.9990   70.7250  225.4270 C   0  0  0  0  0  0  0  0  0  0  0  0
  140.4280   72.5370  222.8550 C   0  0  0  0  0  0  0  0  0  0  0  0
  141.1660   73.8840  220.8640 C   0  0  0  0  0  0  0  0  0  0  0  0
  142.3550   73.6580  220.1980 C   0  0  0  0  0  0  0  0  0  0  0  0
  143.1190   74.6630  219.6460 C   0  0  0  0  0  0  0  0  0  0  0  0
  142.6960   75.9580  219.7510 C   0  0  0  0  0  0  0  0  0  0  0  0
  141.5130   76.2190  220.4110 C   0  0  0  0  0  0  0  0  0  0  0  0
  140.7350   75.2060  220.9740 C   0  0  0  0  0  0  0  0  0  0  0  0
  138.3768   79.1812  222.3773 H   0  0  0  0  0  0  0  0  0  0  0  0
  141.9343   82.7445  223.2953 H   0  0  0  0  0  0  0  0  0  0  0  0
  143.9298   81.3253  223.7143 H   0  0  0  0  0  0  0  0  0  0  0  0
  143.6898   78.8576  223.5897 H   0  0  0  0  0  0  0  0  0  0  0  0
  141.8240   76.7940  223.1020 H   0  0  0  0  0  0  0  0  0  0  0  0
  138.2483   73.6676  222.4146 H   0  0  0  0  0  0  0  0  0  0  0  0
  138.2139   73.8357  220.6930 H   0  0  0  0  0  0  0  0  0  0  0  0
  138.8704   71.5720  220.5550 H   0  0  0  0  0  0  0  0  0  0  0  0
  140.3000   71.9259  219.6208 H   0  0  0  0  0  0  0  0  0  0  0  0
  140.3502   69.7541  221.1886 H   0  0  0  0  0  0  0  0  0  0  0  0
  141.7669   70.7782  221.2941 H   0  0  0  0  0  0  0  0  0  0  0  0
  138.2953   71.4917  223.0329 H   0  0  0  0  0  0  0  0  0  0  0  0
  138.7165   69.8320  222.4530 H   0  0  0  0  0  0  0  0  0  0  0  0
  137.8928   70.4088  224.8513 H   0  0  0  0  0  0  0  0  0  0  0  0
  138.1096   68.1633  224.7289 H   0  0  0  0  0  0  0  0  0  0  0  0
  139.6576   68.2580  223.8401 H   0  0  0  0  0  0  0  0  0  0  0  0
  139.2557   67.7331  226.6337 H   0  0  0  0  0  0  0  0  0  0  0  0
  140.8020   67.8998  225.7995 H   0  0  0  0  0  0  0  0  0  0  0  0
  139.1815   69.9923  227.3101 H   0  0  0  0  0  0  0  0  0  0  0  0
  140.9266   69.8511  227.2265 H   0  0  0  0  0  0  0  0  0  0  0  0
  139.7425   71.7491  225.7359 H   0  0  0  0  0  0  0  0  0  0  0  0
  140.9730   70.8153  224.9239 H   0  0  0  0  0  0  0  0  0  0  0  0
  139.7088   72.9528  223.5760 H   0  0  0  0  0  0  0  0  0  0  0  0
  141.4452   72.8266  223.1573 H   0  0  0  0  0  0  0  0  0  0  0  0
  142.7105   72.6213  220.1034 H   0  0  0  0  0  0  0  0  0  0  0  0
  144.0591   74.4254  219.1265 H   0  0  0  0  0  0  0  0  0  0  0  0
  143.2879   76.7774  219.3172 H   0  0  0  0  0  0  0  0  0  0  0  0
  141.1711   77.2610  220.4965 H   0  0  0  0  0  0  0  0  0  0  0  0
  1  2  2  0
  2  3  1  0
  3  4  2  0
  4  5  1  0
  5  6  2  0
  6  7  1  0
  6  8  1  0
  8  9  2  0
  9 10  1  0
 10 11  2  0
 11 12  1  0
  2 13  1  0
 13 14  1  0
 15 14  1  1
 15 16  1  0
 16 17  1  0
 17 18  1  0
 18 19  1  0
 19 20  1  0
 20 21  1  0
 21 22  1  0
 22 23  1  0
 23 24  1  0
 18 25  1  0
 15 26  1  0
 26 27  2  0
 27 28  1  0
 28 29  2  0
 29 30  1  0
 30 31  2  0
 12  3  1  0
 31 13  1  0
 11  5  1  0
 25 15  1  0
 31 26  1  0
 24 20  1  0
  4 32  1  0
  8 33  1  0
  9 34  1  0
 10 35  1  0
 12 36  1  0
 14 37  1  0
 14 38  1  0
 16 39  1  0
 16 40  1  0
 17 41  1  0
 17 42  1  0
 19 43  1  0
 19 44  1  0
 20 45  1  0
 21 46  1  0
 21 47  1  0
 22 48  1  0
 22 49  1  0
 23 50  1  0
 23 51  1  0
 24 52  1  0
 24 53  1  0
 25 54  1  0
 25 55  1  0
 27 56  1  0
 28 57  1  0
 29 58  1  0
 30 59  1  0
M  END
>  <smiles>  (33) 
O=C(c1cc2c(F)cccc2[nH]1)N1C[C@@]2(CCN(CC3CCCC3)C2)c2ccccc21

>  <score_type>  (33) 
oracle

>  <origin>  (33) 
autodockgpu

>  <m_score__min__energy>  (33) 
-8.6600000000000001

>  <m_primary>  (33) 
energy

>  <rmsd>  (33) 
7.606838178362796

>  <m_score__min__rmsd>  (33) 
7.606838178362796

>  <meeko>  (33) 
{"free_energy": -8.61, "intermolecular_energy": -9.81, "internal_energy": -1.25, "cluster_size": 19, "cluster_id": 1, "rank_in_cluster": 18}

>  <energy>  (33) 
-8.01

>  <cluster_rmsd>  (33) 
0.18

>  <cluster>  (33) 
3

$$$$

     RDKit          3D

 59 64  0  0  0  0  0  0  0  0999 V2000
  137.8240   76.3530  222.8730 O   0  0  0  0  0  0  0  0  0  0  0  0
  139.0110   76.3770  222.4070 C   0  0  0  0  0  0  0  0  0  0  0  0
  139.8420   77.5670  222.6540 C   0  0  0  0  0  0  0  0  0  0  0  0
  139.3590   78.8820  222.7120 C   0  0  0  0  0  0  0  0  0  0  0  0
  140.4430   79.6930  222.9670 C   0  0  0  0  0  0  0  0  0  0  0  0
  140.6050   81.0730  223.1380 C   0  0  0  0  0  0  0  0  0  0  0  0
  139.4750   81.8230  223.0340 F   0  0  0  0  0  0  0  0  0  0  0  0
  141.8270   81.6320  223.3930 C   0  0  0  0  0  0  0  0  0  0  0  0
  142.9520   80.8480  223.4930 C   0  0  0  0  0  0  0  0  0  0  0  0
  142.8080   79.4790  223.3260 C   0  0  0  0  0  0  0  0  0  0  0  0
  141.5810   78.8880  223.0650 C   0  0  0  0  0  0  0  0  0  0  0  0
  141.1650   77.6140  222.8690 N   0  0  0  0  0  0  0  0  0  0  0  0
  139.4720   75.2620  221.6840 N   0  0  0  0  0  0  0  0  0  0  0  0
  138.8720   73.9420  221.5410 C   0  0  0  0  0  0  0  0  0  0  0  0
  140.1300   73.0890  221.4980 C   0  0  2  0  0  0  0  0  0  0  0  0
  139.9490   71.8330  220.6740 C   0  0  0  0  0  0  0  0  0  0  0  0
  140.7030   70.8010  221.5020 C   0  0  0  0  0  0  0  0  0  0  0  0
  140.3280   71.1340  222.8610 N   0  0  0  0  0  0  0  0  0  0  0  0
  139.0100   70.6860  223.1790 C   0  0  0  0  0  0  0  0  0  0  0  0
  138.9230   70.2420  224.6130 C   0  0  0  0  0  0  0  0  0  0  0  0
  138.9300   68.7710  224.8230 C   0  0  0  0  0  0  0  0  0  0  0  0
  139.6850   68.4790  226.0930 C   0  0  0  0  0  0  0  0  0  0  0  0
  140.0450   69.8500  226.6650 C   0  0  0  0  0  0  0  0  0  0  0  0
  140.1050   70.7430  225.4260 C   0  0  0  0  0  0  0  0  0  0  0  0
  140.4270   72.5900  222.8640 C   0  0  0  0  0  0  0  0  0  0  0  0
  141.1520   73.9130  220.8520 C   0  0  0  0  0  0  0  0  0  0  0  0
  142.3460   73.6910  220.1920 C   0  0  0  0  0  0  0  0  0  0  0  0
  143.0990   74.6950  219.6240 C   0  0  0  0  0  0  0  0  0  0  0  0
  142.6600   75.9870  219.7070 C   0  0  0  0  0  0  0  0  0  0  0  0
  141.4730   76.2440  220.3610 C   0  0  0  0  0  0  0  0  0  0  0  0
  140.7060   75.2320  220.9400 C   0  0  0  0  0  0  0  0  0  0  0  0
  138.3156   79.2040  222.5794 H   0  0  0  0  0  0  0  0  0  0  0  0
  141.9107   82.7215  223.5196 H   0  0  0  0  0  0  0  0  0  0  0  0
  143.9365   81.2933  223.6992 H   0  0  0  0  0  0  0  0  0  0  0  0
  143.6991   78.8388  223.4034 H   0  0  0  0  0  0  0  0  0  0  0  0
  141.8140   76.8000  222.8900 H   0  0  0  0  0  0  0  0  0  0  0  0
  138.2342   73.6873  222.4003 H   0  0  0  0  0  0  0  0  0  0  0  0
  138.2020   73.8267  220.6762 H   0  0  0  0  0  0  0  0  0  0  0  0
  138.8858   71.5683  220.5769 H   0  0  0  0  0  0  0  0  0  0  0  0
  140.3128   71.9242  219.6399 H   0  0  0  0  0  0  0  0  0  0  0  0
  140.3865   69.7797  221.2438 H   0  0  0  0  0  0  0  0  0  0  0  0
  141.7901   70.8229  221.3353 H   0  0  0  0  0  0  0  0  0  0  0  0
  138.3003   71.5101  223.0139 H   0  0  0  0  0  0  0  0  0  0  0  0
  138.7649   69.8309  222.5319 H   0  0  0  0  0  0  0  0  0  0  0  0
  137.9573   70.6614  224.9317 H   0  0  0  0  0  0  0  0  0  0  0  0
  137.8972   68.4028  224.9111 H   0  0  0  0  0  0  0  0  0  0  0  0
  139.4117   68.2685  223.9713 H   0  0  0  0  0  0  0  0  0  0  0  0
  139.0528   67.9199  226.7985 H   0  0  0  0  0  0  0  0  0  0  0  0
  140.5765   67.8611  225.9103 H   0  0  0  0  0  0  0  0  0  0  0  0
  139.2727   70.1998  227.3658 H   0  0  0  0  0  0  0  0  0  0  0  0
  140.9842   69.8445  227.2376 H   0  0  0  0  0  0  0  0  0  0  0  0
  139.9853   71.8035  225.6923 H   0  0  0  0  0  0  0  0  0  0  0  0
  141.0640   70.6910  224.8898 H   0  0  0  0  0  0  0  0  0  0  0  0
  139.7018   73.0090  223.5771 H   0  0  0  0  0  0  0  0  0  0  0  0
  141.4401   72.8966  223.1634 H   0  0  0  0  0  0  0  0  0  0  0  0
  142.7146   72.6574  220.1163 H   0  0  0  0  0  0  0  0  0  0  0  0
  144.0425   74.4599  219.1097 H   0  0  0  0  0  0  0  0  0  0  0  0
  143.2425   76.8064  219.2606 H   0  0  0  0  0  0  0  0  0  0  0  0
  141.1185   77.2831  220.4285 H   0  0  0  0  0  0  0  0  0  0  0  0
  1  2  2  0
  2  3  1  0
  3  4  2  0
  4  5  1  0
  5  6  2  0
  6  7  1  0
  6  8  1  0
  8  9  2  0
  9 10  1  0
 10 11  2  0
 11 12  1  0
  2 13  1  0
 13 14  1  0
 15 14  1  1
 15 16  1  0
 16 17  1  0
 17 18  1  0
 18 19  1  0
 19 20  1  0
 20 21  1  0
 21 22  1  0
 22 23  1  0
 23 24  1  0
 18 25  1  0
 15 26  1  0
 26 27  2  0
 27 28  1  0
 28 29  2  0
 29 30  1  0
 30 31  2  0
 12  3  1  0
 31 13  1  0
 11  5  1  0
 25 15  1  0
 31 26  1  0
 24 20  1  0
  4 32  1  0
  8 33  1  0
  9 34  1  0
 10 35  1  0
 12 36  1  0
 14 37  1  0
 14 38  1  0
 16 39  1  0
 16 40  1  0
 17 41  1  0
 17 42  1  0
 19 43  1  0
 19 44  1  0
 20 45  1  0
 21 46  1  0
 21 47  1  0
 22 48  1  0
 22 49  1  0
 23 50  1  0
 23 51  1  0
 24 52  1  0
 24 53  1  0
 25 54  1  0
 25 55  1  0
 27 56  1  0
 28 57  1  0
 29 58  1  0
 30 59  1  0
M  END
>  <smiles>  (34) 
O=C(c1cc2c(F)cccc2[nH]1)N1C[C@@]2(CCN(CC3CCCC3)C2)c2ccccc21

>  <score_type>  (34) 
oracle

>  <origin>  (34) 
autodockgpu

>  <m_score__min__energy>  (34) 
-8.6600000000000001

>  <m_primary>  (34) 
energy

>  <rmsd>  (34) 
7.582527642992073

>  <m_score__min__rmsd>  (34) 
7.582527642992073

>  <meeko>  (34) 
{"free_energy": -8.66, "intermolecular_energy": -9.85, "internal_energy": -1.22, "cluster_size": 19, "cluster_id": 1, "rank_in_cluster": 2}

>  <energy>  (34) 
-8.01

>  <cluster_rmsd>  (34) 
0.16

>  <cluster>  (34) 
3

$$$$

     RDKit          3D

 59 64  0  0  0  0  0  0  0  0999 V2000
  139.9410   75.1230  222.3240 O   0  0  0  0  0  0  0  0  0  0  0  0
  140.8560   75.5460  221.5430 C   0  0  0  0  0  0  0  0  0  0  0  0
  141.8930   74.6010  221.0960 C   0  0  0  0  0  0  0  0  0  0  0  0
  141.6920   73.2290  220.8940 C   0  0  0  0  0  0  0  0  0  0  0  0
  142.8970   72.7080  220.4740 C   0  0  0  0  0  0  0  0  0  0  0  0
  143.3280   71.4250  220.1140 C   0  0  0  0  0  0  0  0  0  0  0  0
  142.3920   70.4410  220.1820 F   0  0  0  0  0  0  0  0  0  0  0  0
  144.6140   71.1800  219.7200 C   0  0  0  0  0  0  0  0  0  0  0  0
  145.5390   72.1950  219.6610 C   0  0  0  0  0  0  0  0  0  0  0  0
  145.1270   73.4710  220.0140 C   0  0  0  0  0  0  0  0  0  0  0  0
  143.8290   73.7470  220.4190 C   0  0  0  0  0  0  0  0  0  0  0  0
  143.1750   74.8690  220.8040 N   0  0  0  0  0  0  0  0  0  0  0  0
  140.8280   76.8940  221.1430 N   0  0  0  0  0  0  0  0  0  0  0  0
  140.3770   77.4750  219.8860 C   0  0  0  0  0  0  0  0  0  0  0  0
  141.3750   78.6150  219.7540 C   0  0  2  0  0  0  0  0  0  0  0  0
  140.8020   79.8000  219.0080 C   0  0  0  0  0  0  0  0  0  0  0  0
  141.9870   80.2390  218.1560 C   0  0  0  0  0  0  0  0  0  0  0  0
  142.5460   78.9820  217.7010 N   0  0  0  0  0  0  0  0  0  0  0  0
  141.7750   78.4030  216.6470 C   0  0  0  0  0  0  0  0  0  0  0  0
  142.2630   77.0200  216.3200 C   0  0  0  0  0  0  0  0  0  0  0  0
  143.7000   76.7700  216.6080 C   0  0  0  0  0  0  0  0  0  0  0  0
  143.8470   75.3480  217.0810 C   0  0  0  0  0  0  0  0  0  0  0  0
  142.4450   74.7480  216.9760 C   0  0  0  0  0  0  0  0  0  0  0  0
  141.5300   75.9620  217.1290 C   0  0  0  0  0  0  0  0  0  0  0  0
  142.5140   78.1700  218.9130 C   0  0  0  0  0  0  0  0  0  0  0  0
  141.6810   79.0410  221.1190 C   0  0  0  0  0  0  0  0  0  0  0  0
  142.1870   80.1760  221.7230 C   0  0  0  0  0  0  0  0  0  0  0  0
  142.3240   80.3150  223.0870 C   0  0  0  0  0  0  0  0  0  0  0  0
  141.9460   79.2870  223.9040 C   0  0  0  0  0  0  0  0  0  0  0  0
  141.4370   78.1390  223.3340 C   0  0  0  0  0  0  0  0  0  0  0  0
  141.2970   77.9900  221.9530 C   0  0  0  0  0  0  0  0  0  0  0  0
  140.7535   72.6746  221.0421 H   0  0  0  0  0  0  0  0  0  0  0  0
  144.9124   70.1571  219.4466 H   0  0  0  0  0  0  0  0  0  0  0  0
  146.5742   72.0010  219.3435 H   0  0  0  0  0  0  0  0  0  0  0  0
  145.8555   74.2941  219.9714 H   0  0  0  0  0  0  0  0  0  0  0  0
  143.6360   75.8010  220.8530 H   0  0  0  0  0  0  0  0  0  0  0  0
  140.4588   76.7613  219.0530 H   0  0  0  0  0  0  0  0  0  0  0  0
  139.3197   77.7780  219.8667 H   0  0  0  0  0  0  0  0  0  0  0  0
  139.9474   79.5034  218.3821 H   0  0  0  0  0  0  0  0  0  0  0  0
  140.4098   80.5907  219.6645 H   0  0  0  0  0  0  0  0  0  0  0  0
  141.6564   80.8550  217.3067 H   0  0  0  0  0  0  0  0  0  0  0  0
  142.7092   80.8603  218.7059 H   0  0  0  0  0  0  0  0  0  0  0  0
  140.7219   78.3482  216.9599 H   0  0  0  0  0  0  0  0  0  0  0  0
  141.8785   79.0322  215.7507 H   0  0  0  0  0  0  0  0  0  0  0  0
  142.0798   76.9554  215.2373 H   0  0  0  0  0  0  0  0  0  0  0  0
  144.2942   76.9215  215.6948 H   0  0  0  0  0  0  0  0  0  0  0  0
  144.0581   77.4655  217.3813 H   0  0  0  0  0  0  0  0  0  0  0  0
  144.5516   74.7983  216.4396 H   0  0  0  0  0  0  0  0  0  0  0  0
  144.2439   75.2927  218.1054 H   0  0  0  0  0  0  0  0  0  0  0  0
  142.2961   74.2630  216.0000 H   0  0  0  0  0  0  0  0  0  0  0  0
  142.2537   73.9677  217.7273 H   0  0  0  0  0  0  0  0  0  0  0  0
  140.5310   75.7634  216.7137 H   0  0  0  0  0  0  0  0  0  0  0  0
  141.3510   76.2512  218.1751 H   0  0  0  0  0  0  0  0  0  0  0  0
  142.3851   77.1108  218.6456 H   0  0  0  0  0  0  0  0  0  0  0  0
  143.4570   78.2865  219.4672 H   0  0  0  0  0  0  0  0  0  0  0  0
  142.4970   81.0134  221.0806 H   0  0  0  0  0  0  0  0  0  0  0  0
  142.7330   81.2429  223.5133 H   0  0  0  0  0  0  0  0  0  0  0  0
  142.0458   79.3735  224.9960 H   0  0  0  0  0  0  0  0  0  0  0  0
  141.1305   77.3115  223.9907 H   0  0  0  0  0  0  0  0  0  0  0  0
  1  2  2  0
  2  3  1  0
  3  4  2  0
  4  5  1  0
  5  6  2  0
  6  7  1  0
  6  8  1  0
  8  9  2  0
  9 10  1  0
 10 11  2  0
 11 12  1  0
  2 13  1  0
 13 14  1  0
 15 14  1  1
 15 16  1  0
 16 17  1  0
 17 18  1  0
 18 19  1  0
 19 20  1  0
 20 21  1  0
 21 22  1  0
 22 23  1  0
 23 24  1  0
 18 25  1  0
 15 26  1  0
 26 27  2  0
 27 28  1  0
 28 29  2  0
 29 30  1  0
 30 31  2  0
 12  3  1  0
 31 13  1  0
 11  5  1  0
 25 15  1  0
 31 26  1  0
 24 20  1  0
  4 32  1  0
  8 33  1  0
  9 34  1  0
 10 35  1  0
 12 36  1  0
 14 37  1  0
 14 38  1  0
 16 39  1  0
 16 40  1  0
 17 41  1  0
 17 42  1  0
 19 43  1  0
 19 44  1  0
 20 45  1  0
 21 46  1  0
 21 47  1  0
 22 48  1  0
 22 49  1  0
 23 50  1  0
 23 51  1  0
 24 52  1  0
 24 53  1  0
 25 54  1  0
 25 55  1  0
 27 56  1  0
 28 57  1  0
 29 58  1  0
 30 59  1  0
M  END
>  <smiles>  (35) 
O=C(c1cc2c(F)cccc2[nH]1)N1C[C@@]2(CCN(CC3CCCC3)C2)c2ccccc21

>  <score_type>  (35) 
oracle

>  <origin>  (35) 
autodockgpu

>  <m_score__min__energy>  (35) 
-8.6600000000000001

>  <m_primary>  (35) 
energy

>  <rmsd>  (35) 
5.8921980489419665

>  <m_score__min__rmsd>  (35) 
5.8921980489419665

>  <meeko>  (35) 
{"free_energy": -7.39, "intermolecular_energy": -8.58, "internal_energy": -2.11, "cluster_size": 6, "cluster_id": 5, "rank_in_cluster": 1}

>  <energy>  (35) 
-8.01

>  <cluster_rmsd>  (35) 
0.14

>  <cluster>  (35) 
3

$$$$

     RDKit          3D

 59 64  0  0  0  0  0  0  0  0999 V2000
  137.7980   76.3570  222.8080 O   0  0  0  0  0  0  0  0  0  0  0  0
  138.9940   76.3720  222.3660 C   0  0  0  0  0  0  0  0  0  0  0  0
  139.8250   77.5600  222.6220 C   0  0  0  0  0  0  0  0  0  0  0  0
  139.3440   78.8740  222.6870 C   0  0  0  0  0  0  0  0  0  0  0  0
  140.4280   79.6830  222.9500 C   0  0  0  0  0  0  0  0  0  0  0  0
  140.5900   81.0620  223.1290 C   0  0  0  0  0  0  0  0  0  0  0  0
  139.4610   81.8140  223.0280 F   0  0  0  0  0  0  0  0  0  0  0  0
  141.8130   81.6180  223.3910 C   0  0  0  0  0  0  0  0  0  0  0  0
  142.9370   80.8320  223.4880 C   0  0  0  0  0  0  0  0  0  0  0  0
  142.7920   79.4650  223.3130 C   0  0  0  0  0  0  0  0  0  0  0  0
  141.5640   78.8760  223.0450 C   0  0  0  0  0  0  0  0  0  0  0  0
  141.1480   77.6040  222.8400 N   0  0  0  0  0  0  0  0  0  0  0  0
  139.4640   75.2500  221.6610 N   0  0  0  0  0  0  0  0  0  0  0  0
  138.8670   73.9280  221.5250 C   0  0  0  0  0  0  0  0  0  0  0  0
  140.1260   73.0750  221.5060 C   0  0  2  0  0  0  0  0  0  0  0  0
  139.9550   71.8110  220.6930 C   0  0  0  0  0  0  0  0  0  0  0  0
  140.7010   70.7870  221.5410 C   0  0  0  0  0  0  0  0  0  0  0  0
  140.3090   71.1350  222.8920 N   0  0  0  0  0  0  0  0  0  0  0  0
  138.9870   70.6890  223.1990 C   0  0  0  0  0  0  0  0  0  0  0  0
  138.9020   70.1900  224.6140 C   0  0  0  0  0  0  0  0  0  0  0  0
  139.0240   68.7170  224.7750 C   0  0  0  0  0  0  0  0  0  0  0  0
  139.7690   68.4420  226.0540 C   0  0  0  0  0  0  0  0  0  0  0  0
  140.0030   69.8160  226.6810 C   0  0  0  0  0  0  0  0  0  0  0  0
  140.0200   70.7550  225.4750 C   0  0  0  0  0  0  0  0  0  0  0  0
  140.4070   72.5910  222.8800 C   0  0  0  0  0  0  0  0  0  0  0  0
  141.1550   73.8930  220.8640 C   0  0  0  0  0  0  0  0  0  0  0  0
  142.3570   73.6650  220.2200 C   0  0  0  0  0  0  0  0  0  0  0  0
  143.1160   74.6630  219.6510 C   0  0  0  0  0  0  0  0  0  0  0  0
  142.6750   75.9560  219.7150 C   0  0  0  0  0  0  0  0  0  0  0  0
  141.4800   76.2190  220.3510 C   0  0  0  0  0  0  0  0  0  0  0  0
  140.7070   75.2120  220.9320 C   0  0  0  0  0  0  0  0  0  0  0  0
  138.3012   79.1978  222.5537 H   0  0  0  0  0  0  0  0  0  0  0  0
  141.8976   82.7065  223.5256 H   0  0  0  0  0  0  0  0  0  0  0  0
  143.9217   81.2750  223.6982 H   0  0  0  0  0  0  0  0  0  0  0  0
  143.6823   78.8234  223.3892 H   0  0  0  0  0  0  0  0  0  0  0  0
  141.7960   76.7900  222.8580 H   0  0  0  0  0  0  0  0  0  0  0  0
  138.2193   73.6820  222.3793 H   0  0  0  0  0  0  0  0  0  0  0  0
  138.2077   73.8031  220.6534 H   0  0  0  0  0  0  0  0  0  0  0  0
  138.8931   71.5446  220.5865 H   0  0  0  0  0  0  0  0  0  0  0  0
  140.3303   71.8919  219.6622 H   0  0  0  0  0  0  0  0  0  0  0  0
  140.3883   69.7627  221.2900 H   0  0  0  0  0  0  0  0  0  0  0  0
  141.7900   70.8072  221.3868 H   0  0  0  0  0  0  0  0  0  0  0  0
  138.2858   71.5267  223.0702 H   0  0  0  0  0  0  0  0  0  0  0  0
  138.7293   69.8629  222.5200 H   0  0  0  0  0  0  0  0  0  0  0  0
  137.8982   70.5195  224.9204 H   0  0  0  0  0  0  0  0  0  0  0  0
  138.0229   68.2638  224.8227 H   0  0  0  0  0  0  0  0  0  0  0  0
  139.5657   68.2857  223.9203 H   0  0  0  0  0  0  0  0  0  0  0  0
  139.1673   67.8094  226.7232 H   0  0  0  0  0  0  0  0  0  0  0  0
  140.7118   67.9045  225.8747 H   0  0  0  0  0  0  0  0  0  0  0  0
  139.1884   70.0774  227.3724 H   0  0  0  0  0  0  0  0  0  0  0  0
  140.9258   69.8652  227.2777 H   0  0  0  0  0  0  0  0  0  0  0  0
  139.8082   71.7922  225.7738 H   0  0  0  0  0  0  0  0  0  0  0  0
  140.9926   70.7996  224.9632 H   0  0  0  0  0  0  0  0  0  0  0  0
  139.6732   73.0172  223.5799 H   0  0  0  0  0  0  0  0  0  0  0  0
  141.4164   72.9014  223.1878 H   0  0  0  0  0  0  0  0  0  0  0  0
  142.7268   72.6308  220.1589 H   0  0  0  0  0  0  0  0  0  0  0  0
  144.0659   74.4231  219.1508 H   0  0  0  0  0  0  0  0  0  0  0  0
  143.2626   76.7711  219.2674 H   0  0  0  0  0  0  0  0  0  0  0  0
  141.1234   77.2583  220.4023 H   0  0  0  0  0  0  0  0  0  0  0  0
  1  2  2  0
  2  3  1  0
  3  4  2  0
  4  5  1  0
  5  6  2  0
  6  7  1  0
  6  8  1  0
  8  9  2  0
  9 10  1  0
 10 11  2  0
 11 12  1  0
  2 13  1  0
 13 14  1  0
 15 14  1  1
 15 16  1  0
 16 17  1  0
 17 18  1  0
 18 19  1  0
 19 20  1  0
 20 21  1  0
 21 22  1  0
 22 23  1  0
 23 24  1  0
 18 25  1  0
 15 26  1  0
 26 27  2  0
 27 28  1  0
 28 29  2  0
 29 30  1  0
 30 31  2  0
 12  3  1  0
 31 13  1  0
 11  5  1  0
 25 15  1  0
 31 26  1  0
 24 20  1  0
  4 32  1  0
  8 33  1  0
  9 34  1  0
 10 35  1  0
 12 36  1  0
 14 37  1  0
 14 38  1  0
 16 39  1  0
 16 40  1  0
 17 41  1  0
 17 42  1  0
 19 43  1  0
 19 44  1  0
 20 45  1  0
 21 46  1  0
 21 47  1  0
 22 48  1  0
 22 49  1  0
 23 50  1  0
 23 51  1  0
 24 52  1  0
 24 53  1  0
 25 54  1  0
 25 55  1  0
 27 56  1  0
 28 57  1  0
 29 58  1  0
 30 59  1  0
M  END
>  <smiles>  (36) 
O=C(c1cc2c(F)cccc2[nH]1)N1C[C@@]2(CCN(CC3CCCC3)C2)c2ccccc21

>  <score_type>  (36) 
oracle

>  <origin>  (36) 
autodockgpu

>  <m_score__min__energy>  (36) 
-8.6600000000000001

>  <m_primary>  (36) 
energy

>  <rmsd>  (36) 
7.574320840445549

>  <m_score__min__rmsd>  (36) 
7.574320840445549

>  <meeko>  (36) 
{"free_energy": -8.65, "intermolecular_energy": -9.85, "internal_energy": -1.23, "cluster_size": 19, "cluster_id": 1, "rank_in_cluster": 6}

>  <energy>  (36) 
-8.0

>  <cluster_rmsd>  (36) 
0.13

>  <cluster>  (36) 
3

$$$$

     RDKit          3D

 59 64  0  0  0  0  0  0  0  0999 V2000
  137.7840   76.3910  222.7900 O   0  0  0  0  0  0  0  0  0  0  0  0
  138.9790   76.4020  222.3470 C   0  0  0  0  0  0  0  0  0  0  0  0
  139.8120   77.5900  222.5950 C   0  0  0  0  0  0  0  0  0  0  0  0
  139.3400   78.9100  222.6030 C   0  0  0  0  0  0  0  0  0  0  0  0
  140.4220   79.7180  222.8780 C   0  0  0  0  0  0  0  0  0  0  0  0
  140.5910   81.1000  223.0210 C   0  0  0  0  0  0  0  0  0  0  0  0
  139.4730   81.8570  222.8580 F   0  0  0  0  0  0  0  0  0  0  0  0
  141.8090   81.6540  223.3080 C   0  0  0  0  0  0  0  0  0  0  0  0
  142.9220   80.8620  223.4680 C   0  0  0  0  0  0  0  0  0  0  0  0
  142.7710   79.4920  223.3290 C   0  0  0  0  0  0  0  0  0  0  0  0
  141.5470   78.9050  223.0370 C   0  0  0  0  0  0  0  0  0  0  0  0
  141.1270   77.6300  222.8560 N   0  0  0  0  0  0  0  0  0  0  0  0
  139.4470   75.2760  221.6460 N   0  0  0  0  0  0  0  0  0  0  0  0
  138.8430   73.9570  221.5090 C   0  0  0  0  0  0  0  0  0  0  0  0
  140.0980   73.0970  221.4990 C   0  0  2  0  0  0  0  0  0  0  0  0
  139.9250   71.8320  220.6890 C   0  0  0  0  0  0  0  0  0  0  0  0
  140.6600   70.8060  221.5430 C   0  0  0  0  0  0  0  0  0  0  0  0
  140.2620   71.1590  222.8910 N   0  0  0  0  0  0  0  0  0  0  0  0
  138.9370   70.7210  223.1920 C   0  0  0  0  0  0  0  0  0  0  0  0
  138.8520   70.1810  224.5920 C   0  0  0  0  0  0  0  0  0  0  0  0
  139.0010   68.7070  224.7120 C   0  0  0  0  0  0  0  0  0  0  0  0
  139.7430   68.4100  225.9880 C   0  0  0  0  0  0  0  0  0  0  0  0
  139.9470   69.7700  226.6550 C   0  0  0  0  0  0  0  0  0  0  0  0
  139.9530   70.7430  225.4760 C   0  0  0  0  0  0  0  0  0  0  0  0
  140.3690   72.6150  222.8770 C   0  0  0  0  0  0  0  0  0  0  0  0
  141.1350   73.9080  220.8610 C   0  0  0  0  0  0  0  0  0  0  0  0
  142.3390   73.6720  220.2250 C   0  0  0  0  0  0  0  0  0  0  0  0
  143.1070   74.6650  219.6580 C   0  0  0  0  0  0  0  0  0  0  0  0
  142.6730   75.9600  219.7160 C   0  0  0  0  0  0  0  0  0  0  0  0
  141.4760   76.2310  220.3460 C   0  0  0  0  0  0  0  0  0  0  0  0
  140.6940   75.2300  220.9240 C   0  0  0  0  0  0  0  0  0  0  0  0
  138.3053   79.2377  222.4242 H   0  0  0  0  0  0  0  0  0  0  0  0
  141.8989   82.7454  223.4119 H   0  0  0  0  0  0  0  0  0  0  0  0
  143.9027   81.3032  223.6994 H   0  0  0  0  0  0  0  0  0  0  0  0
  143.6524   78.8460  223.4544 H   0  0  0  0  0  0  0  0  0  0  0  0
  141.7660   76.8120  222.9210 H   0  0  0  0  0  0  0  0  0  0  0  0
  138.1889   73.7162  222.3600 H   0  0  0  0  0  0  0  0  0  0  0  0
  138.1878   73.8340  220.6340 H   0  0  0  0  0  0  0  0  0  0  0  0
  138.8622   71.5712  220.5772 H   0  0  0  0  0  0  0  0  0  0  0  0
  140.3071   71.9083  219.6603 H   0  0  0  0  0  0  0  0  0  0  0  0
  140.3430   69.7829  221.2922 H   0  0  0  0  0  0  0  0  0  0  0  0
  141.7499   70.8198  221.3951 H   0  0  0  0  0  0  0  0  0  0  0  0
  138.2460   71.5710  223.0920 H   0  0  0  0  0  0  0  0  0  0  0  0
  138.6658   69.9185  222.4903 H   0  0  0  0  0  0  0  0  0  0  0  0
  137.8402   70.4825  224.9009 H   0  0  0  0  0  0  0  0  0  0  0  0
  138.0084   68.2337  224.7400 H   0  0  0  0  0  0  0  0  0  0  0  0
  139.5562   68.3104  223.8492 H   0  0  0  0  0  0  0  0  0  0  0  0
  139.1491   67.7477  226.6350 H   0  0  0  0  0  0  0  0  0  0  0  0
  140.6970   67.8956  225.8002 H   0  0  0  0  0  0  0  0  0  0  0  0
  139.1236   69.9962  227.3484 H   0  0  0  0  0  0  0  0  0  0  0  0
  140.8652   69.8198  227.2587 H   0  0  0  0  0  0  0  0  0  0  0  0
  139.7189   71.7670  225.8025 H   0  0  0  0  0  0  0  0  0  0  0  0
  140.9278   70.8211  224.9723 H   0  0  0  0  0  0  0  0  0  0  0  0
  139.6340   73.0472  223.5720 H   0  0  0  0  0  0  0  0  0  0  0  0
  141.3783   72.9205  223.1901 H   0  0  0  0  0  0  0  0  0  0  0  0
  142.7036   72.6357  220.1686 H   0  0  0  0  0  0  0  0  0  0  0  0
  144.0586   74.4188  219.1642 H   0  0  0  0  0  0  0  0  0  0  0  0
  143.2670   76.7706  219.2688 H   0  0  0  0  0  0  0  0  0  0  0  0
  141.1257   77.2726  220.3944 H   0  0  0  0  0  0  0  0  0  0  0  0
  1  2  2  0
  2  3  1  0
  3  4  2  0
  4  5  1  0
  5  6  2  0
  6  7  1  0
  6  8  1  0
  8  9  2  0
  9 10  1  0
 10 11  2  0
 11 12  1  0
  2 13  1  0
 13 14  1  0
 15 14  1  1
 15 16  1  0
 16 17  1  0
 17 18  1  0
 18 19  1  0
 19 20  1  0
 20 21  1  0
 21 22  1  0
 22 23  1  0
 23 24  1  0
 18 25  1  0
 15 26  1  0
 26 27  2  0
 27 28  1  0
 28 29  2  0
 29 30  1  0
 30 31  2  0
 12  3  1  0
 31 13  1  0
 11  5  1  0
 25 15  1  0
 31 26  1  0
 24 20  1  0
  4 32  1  0
  8 33  1  0
  9 34  1  0
 10 35  1  0
 12 36  1  0
 14 37  1  0
 14 38  1  0
 16 39  1  0
 16 40  1  0
 17 41  1  0
 17 42  1  0
 19 43  1  0
 19 44  1  0
 20 45  1  0
 21 46  1  0
 21 47  1  0
 22 48  1  0
 22 49  1  0
 23 50  1  0
 23 51  1  0
 24 52  1  0
 24 53  1  0
 25 54  1  0
 25 55  1  0
 27 56  1  0
 28 57  1  0
 29 58  1  0
 30 59  1  0
M  END
>  <smiles>  (37) 
O=C(c1cc2c(F)cccc2[nH]1)N1C[C@@]2(CCN(CC3CCCC3)C2)c2ccccc21

>  <score_type>  (37) 
oracle

>  <origin>  (37) 
autodockgpu

>  <m_score__min__energy>  (37) 
-8.6600000000000001

>  <m_primary>  (37) 
energy

>  <rmsd>  (37) 
7.597721386461286

>  <m_score__min__rmsd>  (37) 
7.597721386461286

>  <meeko>  (37) 
{"free_energy": -8.62, "intermolecular_energy": -9.82, "internal_energy": -1.25, "cluster_size": 19, "cluster_id": 1, "rank_in_cluster": 16}

>  <energy>  (37) 
-7.98

>  <cluster_rmsd>  (37) 
0.32

>  <cluster>  (37) 
3

$$$$

     RDKit          3D

 59 64  0  0  0  0  0  0  0  0999 V2000
  139.9420   75.1310  222.3090 O   0  0  0  0  0  0  0  0  0  0  0  0
  140.8610   75.5550  221.5330 C   0  0  0  0  0  0  0  0  0  0  0  0
  141.9000   74.6110  221.0890 C   0  0  0  0  0  0  0  0  0  0  0  0
  141.7020   73.2370  220.8950 C   0  0  0  0  0  0  0  0  0  0  0  0
  142.9060   72.7160  220.4750 C   0  0  0  0  0  0  0  0  0  0  0  0
  143.3400   71.4320  220.1220 C   0  0  0  0  0  0  0  0  0  0  0  0
  142.4060   70.4460  220.1990 F   0  0  0  0  0  0  0  0  0  0  0  0
  144.6260   71.1870  219.7260 C   0  0  0  0  0  0  0  0  0  0  0  0
  145.5470   72.2050  219.6580 C   0  0  0  0  0  0  0  0  0  0  0  0
  145.1340   73.4820  220.0040 C   0  0  0  0  0  0  0  0  0  0  0  0
  143.8360   73.7570  220.4110 C   0  0  0  0  0  0  0  0  0  0  0  0
  143.1800   74.8790  220.7910 N   0  0  0  0  0  0  0  0  0  0  0  0
  140.8360   76.9040  221.1360 N   0  0  0  0  0  0  0  0  0  0  0  0
  140.3860   77.4880  219.8790 C   0  0  0  0  0  0  0  0  0  0  0  0
  141.3860   78.6260  219.7490 C   0  0  2  0  0  0  0  0  0  0  0  0
  140.8160   79.8140  219.0060 C   0  0  0  0  0  0  0  0  0  0  0  0
  142.0000   80.2510  218.1530 C   0  0  0  0  0  0  0  0  0  0  0  0
  142.5560   78.9940  217.6950 N   0  0  0  0  0  0  0  0  0  0  0  0
  141.7830   78.4190  216.6410 C   0  0  0  0  0  0  0  0  0  0  0  0
  142.2690   77.0360  216.3090 C   0  0  0  0  0  0  0  0  0  0  0  0
  143.7060   76.7840  216.5940 C   0  0  0  0  0  0  0  0  0  0  0  0
  143.8530   75.3610  217.0630 C   0  0  0  0  0  0  0  0  0  0  0  0
  142.4500   74.7620  216.9590 C   0  0  0  0  0  0  0  0  0  0  0  0
  141.5370   75.9770  217.1170 C   0  0  0  0  0  0  0  0  0  0  0  0
  142.5240   78.1790  218.9060 C   0  0  0  0  0  0  0  0  0  0  0  0
  141.6950   79.0490  221.1140 C   0  0  0  0  0  0  0  0  0  0  0  0
  142.2040   80.1820  221.7200 C   0  0  0  0  0  0  0  0  0  0  0  0
  142.3420   80.3180  223.0840 C   0  0  0  0  0  0  0  0  0  0  0  0
  141.9620   79.2890  223.9000 C   0  0  0  0  0  0  0  0  0  0  0  0
  141.4500   78.1430  223.3280 C   0  0  0  0  0  0  0  0  0  0  0  0
  141.3090   77.9980  221.9470 C   0  0  0  0  0  0  0  0  0  0  0  0
  140.7651   72.6815  221.0486 H   0  0  0  0  0  0  0  0  0  0  0  0
  144.9268   70.1632  219.4588 H   0  0  0  0  0  0  0  0  0  0  0  0
  146.5816   72.0119  219.3383 H   0  0  0  0  0  0  0  0  0  0  0  0
  145.8605   74.3064  219.9543 H   0  0  0  0  0  0  0  0  0  0  0  0
  143.6380   75.8130  220.8330 H   0  0  0  0  0  0  0  0  0  0  0  0
  140.4667   76.7754  219.0449 H   0  0  0  0  0  0  0  0  0  0  0  0
  139.3293   77.7930  219.8599 H   0  0  0  0  0  0  0  0  0  0  0  0
  139.9594   79.5212  218.3810 H   0  0  0  0  0  0  0  0  0  0  0  0
  140.4278   80.6048  219.6647 H   0  0  0  0  0  0  0  0  0  0  0  0
  141.6693   80.8689  217.3051 H   0  0  0  0  0  0  0  0  0  0  0  0
  142.7244   80.8697  218.7029 H   0  0  0  0  0  0  0  0  0  0  0  0
  140.7303   78.3645  216.9555 H   0  0  0  0  0  0  0  0  0  0  0  0
  141.8858   79.0507  215.7463 H   0  0  0  0  0  0  0  0  0  0  0  0
  142.0836   76.9743  215.2265 H   0  0  0  0  0  0  0  0  0  0  0  0
  144.2988   76.9375  215.6802 H   0  0  0  0  0  0  0  0  0  0  0  0
  144.0657   77.4772  217.3686 H   0  0  0  0  0  0  0  0  0  0  0  0
  144.5561   74.8125  216.4189 H   0  0  0  0  0  0  0  0  0  0  0  0
  144.2518   75.3028  218.0865 H   0  0  0  0  0  0  0  0  0  0  0  0
  142.2988   74.2798  215.9820 H   0  0  0  0  0  0  0  0  0  0  0  0
  142.2592   73.9796  217.7083 H   0  0  0  0  0  0  0  0  0  0  0  0
  140.5367   75.7806  216.7037 H   0  0  0  0  0  0  0  0  0  0  0  0
  141.3611   76.2639  218.1643 H   0  0  0  0  0  0  0  0  0  0  0  0
  142.3923   77.1206  218.6368 H   0  0  0  0  0  0  0  0  0  0  0  0
  143.4680   78.2915  219.4593 H   0  0  0  0  0  0  0  0  0  0  0  0
  142.5156   81.0199  221.0791 H   0  0  0  0  0  0  0  0  0  0  0  0
  142.7533   81.2442  223.5118 H   0  0  0  0  0  0  0  0  0  0  0  0
  142.0627   79.3734  224.9921 H   0  0  0  0  0  0  0  0  0  0  0  0
  141.1421   77.3146  223.9830 H   0  0  0  0  0  0  0  0  0  0  0  0
  1  2  2  0
  2  3  1  0
  3  4  2  0
  4  5  1  0
  5  6  2  0
  6  7  1  0
  6  8  1  0
  8  9  2  0
  9 10  1  0
 10 11  2  0
 11 12  1  0
  2 13  1  0
 13 14  1  0
 15 14  1  1
 15 16  1  0
 16 17  1  0
 17 18  1  0
 18 19  1  0
 19 20  1  0
 20 21  1  0
 21 22  1  0
 22 23  1  0
 23 24  1  0
 18 25  1  0
 15 26  1  0
 26 27  2  0
 27 28  1  0
 28 29  2  0
 29 30  1  0
 30 31  2  0
 12  3  1  0
 31 13  1  0
 11  5  1  0
 25 15  1  0
 31 26  1  0
 24 20  1  0
  4 32  1  0
  8 33  1  0
  9 34  1  0
 10 35  1  0
 12 36  1  0
 14 37  1  0
 14 38  1  0
 16 39  1  0
 16 40  1  0
 17 41  1  0
 17 42  1  0
 19 43  1  0
 19 44  1  0
 20 45  1  0
 21 46  1  0
 21 47  1  0
 22 48  1  0
 22 49  1  0
 23 50  1  0
 23 51  1  0
 24 52  1  0
 24 53  1  0
 25 54  1  0
 25 55  1  0
 27 56  1  0
 28 57  1  0
 29 58  1  0
 30 59  1  0
M  END
>  <smiles>  (38) 
O=C(c1cc2c(F)cccc2[nH]1)N1C[C@@]2(CCN(CC3CCCC3)C2)c2ccccc21

>  <score_type>  (38) 
oracle

>  <origin>  (38) 
autodockgpu

>  <m_score__min__energy>  (38) 
-8.6600000000000001

>  <m_primary>  (38) 
energy

>  <rmsd>  (38) 
5.897754533266757

>  <m_score__min__rmsd>  (38) 
5.897754533266757

>  <meeko>  (38) 
{"free_energy": -7.39, "intermolecular_energy": -8.58, "internal_energy": -2.1, "cluster_size": 6, "cluster_id": 5, "rank_in_cluster": 3}

>  <energy>  (38) 
-7.94

>  <cluster_rmsd>  (38) 
1.44

>  <cluster>  (38) 
3

$$$$

     RDKit          3D

 59 64  0  0  0  0  0  0  0  0999 V2000
  137.7350   76.2880  222.8170 O   0  0  0  0  0  0  0  0  0  0  0  0
  138.9200   76.3030  222.3460 C   0  0  0  0  0  0  0  0  0  0  0  0
  139.7660   77.4810  222.6030 C   0  0  0  0  0  0  0  0  0  0  0  0
  139.2840   78.7790  222.8230 C   0  0  0  0  0  0  0  0  0  0  0  0
  140.3850   79.5820  223.0290 C   0  0  0  0  0  0  0  0  0  0  0  0
  140.5560   80.9450  223.2980 C   0  0  0  0  0  0  0  0  0  0  0  0
  139.4170   81.6840  223.3790 F   0  0  0  0  0  0  0  0  0  0  0  0
  141.7950   81.4980  223.4670 C   0  0  0  0  0  0  0  0  0  0  0  0
  142.9290   80.7250  223.3800 C   0  0  0  0  0  0  0  0  0  0  0  0
  142.7760   79.3740  223.1140 C   0  0  0  0  0  0  0  0  0  0  0  0
  141.5310   78.7880  222.9360 C   0  0  0  0  0  0  0  0  0  0  0  0
  141.1040   77.5290  222.6780 N   0  0  0  0  0  0  0  0  0  0  0  0
  139.3640   75.1920  221.6080 N   0  0  0  0  0  0  0  0  0  0  0  0
  138.7890   73.8560  221.5120 C   0  0  0  0  0  0  0  0  0  0  0  0
  140.0620   73.0320  221.4050 C   0  0  2  0  0  0  0  0  0  0  0  0
  139.8640   71.7640  220.6050 C   0  0  0  0  0  0  0  0  0  0  0  0
  140.6890   70.7580  221.3980 C   0  0  0  0  0  0  0  0  0  0  0  0
  140.3850   71.0970  222.7730 N   0  0  0  0  0  0  0  0  0  0  0  0
  139.0980   70.6220  223.1710 C   0  0  0  0  0  0  0  0  0  0  0  0
  139.0930   70.2340  224.6230 C   0  0  0  0  0  0  0  0  0  0  0  0
  139.1250   68.7720  224.8880 C   0  0  0  0  0  0  0  0  0  0  0  0
  139.9490   68.5340  226.1250 C   0  0  0  0  0  0  0  0  0  0  0  0
  140.3280   69.9280  226.6240 C   0  0  0  0  0  0  0  0  0  0  0  0
  140.3130   70.7730  225.3510 C   0  0  0  0  0  0  0  0  0  0  0  0
  140.4500   72.5550  222.7560 C   0  0  0  0  0  0  0  0  0  0  0  0
  141.0260   73.8720  220.6930 C   0  0  0  0  0  0  0  0  0  0  0  0
  142.1840   73.6710  219.9670 C   0  0  0  0  0  0  0  0  0  0  0  0
  142.8790   74.6860  219.3470 C   0  0  0  0  0  0  0  0  0  0  0  0
  142.4160   75.9680  219.4430 C   0  0  0  0  0  0  0  0  0  0  0  0
  141.2630   76.2050  220.1620 C   0  0  0  0  0  0  0  0  0  0  0  0
  140.5540   75.1810  220.7940 C   0  0  0  0  0  0  0  0  0  0  0  0
  138.2305   79.0954  222.8299 H   0  0  0  0  0  0  0  0  0  0  0  0
  141.8858   82.5743  223.6751 H   0  0  0  0  0  0  0  0  0  0  0  0
  143.9273   81.1660  223.5175 H   0  0  0  0  0  0  0  0  0  0  0  0
  143.6741   78.7430  223.0413 H   0  0  0  0  0  0  0  0  0  0  0  0
  141.7560   76.7260  222.5600 H   0  0  0  0  0  0  0  0  0  0  0  0
  138.2076   73.5957  222.4088 H   0  0  0  0  0  0  0  0  0  0  0  0
  138.0740   73.7159  220.6879 H   0  0  0  0  0  0  0  0  0  0  0  0
  138.8035   71.4737  220.5718 H   0  0  0  0  0  0  0  0  0  0  0  0
  140.1656   71.8526  219.5509 H   0  0  0  0  0  0  0  0  0  0  0  0
  140.3823   69.7269  221.1682 H   0  0  0  0  0  0  0  0  0  0  0  0
  141.7639   70.8029  221.1685 H   0  0  0  0  0  0  0  0  0  0  0  0
  138.3551   71.4167  223.0084 H   0  0  0  0  0  0  0  0  0  0  0  0
  138.8505   69.7345  222.5700 H   0  0  0  0  0  0  0  0  0  0  0  0
  138.1427   70.6598  224.9774 H   0  0  0  0  0  0  0  0  0  0  0  0
  138.1018   68.4000  225.0453 H   0  0  0  0  0  0  0  0  0  0  0  0
  139.5654   68.2410  224.0312 H   0  0  0  0  0  0  0  0  0  0  0  0
  139.3601   67.9987  226.8844 H   0  0  0  0  0  0  0  0  0  0  0  0
  140.8345   67.9150  225.9181 H   0  0  0  0  0  0  0  0  0  0  0  0
  139.5920   70.2995  227.3522 H   0  0  0  0  0  0  0  0  0  0  0  0
  141.2970   69.9504  227.1442 H   0  0  0  0  0  0  0  0  0  0  0  0
  140.1990   71.8422  225.5832 H   0  0  0  0  0  0  0  0  0  0  0  0
  141.2419   70.7065  224.7656 H   0  0  0  0  0  0  0  0  0  0  0  0
  139.7582   72.9653  223.5064 H   0  0  0  0  0  0  0  0  0  0  0  0
  141.4714   72.8878  222.9924 H   0  0  0  0  0  0  0  0  0  0  0  0
  142.5719   72.6454  219.8793 H   0  0  0  0  0  0  0  0  0  0  0  0
  143.7964   74.4669  218.7810 H   0  0  0  0  0  0  0  0  0  0  0  0
  142.9527   76.7955  218.9560 H   0  0  0  0  0  0  0  0  0  0  0  0
  140.8889   77.2364  220.2404 H   0  0  0  0  0  0  0  0  0  0  0  0
  1  2  2  0
  2  3  1  0
  3  4  2  0
  4  5  1  0
  5  6  2  0
  6  7  1  0
  6  8  1  0
  8  9  2  0
  9 10  1  0
 10 11  2  0
 11 12  1  0
  2 13  1  0
 13 14  1  0
 15 14  1  1
 15 16  1  0
 16 17  1  0
 17 18  1  0
 18 19  1  0
 19 20  1  0
 20 21  1  0
 21 22  1  0
 22 23  1  0
 23 24  1  0
 18 25  1  0
 15 26  1  0
 26 27  2  0
 27 28  1  0
 28 29  2  0
 29 30  1  0
 30 31  2  0
 12  3  1  0
 31 13  1  0
 11  5  1  0
 25 15  1  0
 31 26  1  0
 24 20  1  0
  4 32  1  0
  8 33  1  0
  9 34  1  0
 10 35  1  0
 12 36  1  0
 14 37  1  0
 14 38  1  0
 16 39  1  0
 16 40  1  0
 17 41  1  0
 17 42  1  0
 19 43  1  0
 19 44  1  0
 20 45  1  0
 21 46  1  0
 21 47  1  0
 22 48  1  0
 22 49  1  0
 23 50  1  0
 23 51  1  0
 24 52  1  0
 24 53  1  0
 25 54  1  0
 25 55  1  0
 27 56  1  0
 28 57  1  0
 29 58  1  0
 30 59  1  0
M  END
>  <smiles>  (39) 
O=C(c1cc2c(F)cccc2[nH]1)N1C[C@@]2(CCN(CC3CCCC3)C2)c2ccccc21

>  <score_type>  (39) 
oracle

>  <origin>  (39) 
autodockgpu

>  <m_score__min__energy>  (39) 
-8.6600000000000001

>  <m_primary>  (39) 
energy

>  <rmsd>  (39) 
7.472165077345467

>  <m_score__min__rmsd>  (39) 
7.472165077345467

>  <meeko>  (39) 
{"free_energy": -8.59, "intermolecular_energy": -9.79, "internal_energy": -1.2, "cluster_size": 19, "cluster_id": 1, "rank_in_cluster": 19}

>  <energy>  (39) 
-7.86

>  <cluster_rmsd>  (39) 
1.32

>  <cluster>  (39) 
3

$$$$

     RDKit          3D

 59 64  0  0  0  0  0  0  0  0999 V2000
  137.8100   76.3500  222.8610 O   0  0  0  0  0  0  0  0  0  0  0  0
  138.9990   76.3690  222.4010 C   0  0  0  0  0  0  0  0  0  0  0  0
  139.8320   77.5570  222.6480 C   0  0  0  0  0  0  0  0  0  0  0  0
  139.3510   78.8710  222.7170 C   0  0  0  0  0  0  0  0  0  0  0  0
  140.4380   79.6810  222.9690 C   0  0  0  0  0  0  0  0  0  0  0  0
  140.6020   81.0600  223.1470 C   0  0  0  0  0  0  0  0  0  0  0  0
  139.4720   81.8110  223.0560 F   0  0  0  0  0  0  0  0  0  0  0  0
  141.8260   81.6150  223.3960 C   0  0  0  0  0  0  0  0  0  0  0  0
  142.9510   80.8300  223.4830 C   0  0  0  0  0  0  0  0  0  0  0  0
  142.8060   79.4630  223.3090 C   0  0  0  0  0  0  0  0  0  0  0  0
  141.5750   78.8740  223.0540 C   0  0  0  0  0  0  0  0  0  0  0  0
  141.1570   77.6010  222.8530 N   0  0  0  0  0  0  0  0  0  0  0  0
  139.4590   75.2500  221.6830 N   0  0  0  0  0  0  0  0  0  0  0  0
  138.8600   73.9290  221.5480 C   0  0  0  0  0  0  0  0  0  0  0  0
  140.1190   73.0760  221.5090 C   0  0  2  0  0  0  0  0  0  0  0  0
  139.9370   71.8160  220.6920 C   0  0  0  0  0  0  0  0  0  0  0  0
  140.6930   70.7880  221.5250 C   0  0  0  0  0  0  0  0  0  0  0  0
  140.3190   71.1290  222.8830 N   0  0  0  0  0  0  0  0  0  0  0  0
  139.0010   70.6820  223.2040 C   0  0  0  0  0  0  0  0  0  0  0  0
  138.9290   70.1920  224.6230 C   0  0  0  0  0  0  0  0  0  0  0  0
  139.0360   68.7190  224.7910 C   0  0  0  0  0  0  0  0  0  0  0  0
  139.7950   68.4420  226.0620 C   0  0  0  0  0  0  0  0  0  0  0  0
  140.0550   69.8170  226.6770 C   0  0  0  0  0  0  0  0  0  0  0  0
  140.0660   70.7480  225.4650 C   0  0  0  0  0  0  0  0  0  0  0  0
  140.4170   72.5850  222.8770 C   0  0  0  0  0  0  0  0  0  0  0  0
  141.1400   73.8970  220.8580 C   0  0  0  0  0  0  0  0  0  0  0  0
  142.3330   73.6710  220.1970 C   0  0  0  0  0  0  0  0  0  0  0  0
  143.0850   74.6730  219.6240 C   0  0  0  0  0  0  0  0  0  0  0  0
  142.6460   75.9650  219.7000 C   0  0  0  0  0  0  0  0  0  0  0  0
  141.4590   76.2250  220.3530 C   0  0  0  0  0  0  0  0  0  0  0  0
  140.6930   75.2160  220.9380 C   0  0  0  0  0  0  0  0  0  0  0  0
  138.3068   79.1944  222.5938 H   0  0  0  0  0  0  0  0  0  0  0  0
  141.9119   82.7036  223.5284 H   0  0  0  0  0  0  0  0  0  0  0  0
  143.9371   81.2738  223.6848 H   0  0  0  0  0  0  0  0  0  0  0  0
  143.6975   78.8220  223.3753 H   0  0  0  0  0  0  0  0  0  0  0  0
  141.8060   76.7870  222.8650 H   0  0  0  0  0  0  0  0  0  0  0  0
  138.2230   73.6788  222.4092 H   0  0  0  0  0  0  0  0  0  0  0  0
  138.1896   73.8084  220.6843 H   0  0  0  0  0  0  0  0  0  0  0  0
  138.8737   71.5505  220.5978 H   0  0  0  0  0  0  0  0  0  0  0  0
  140.2991   71.9018  219.6569 H   0  0  0  0  0  0  0  0  0  0  0  0
  140.3765   69.7651  221.2729 H   0  0  0  0  0  0  0  0  0  0  0  0
  141.7799   70.8089  221.3568 H   0  0  0  0  0  0  0  0  0  0  0  0
  138.2967   71.5172  223.0757 H   0  0  0  0  0  0  0  0  0  0  0  0
  138.7397   69.8508  222.5326 H   0  0  0  0  0  0  0  0  0  0  0  0
  137.9335   70.5352  224.9410 H   0  0  0  0  0  0  0  0  0  0  0  0
  138.0303   68.2779  224.8546 H   0  0  0  0  0  0  0  0  0  0  0  0
  139.5614   68.2767  223.9317 H   0  0  0  0  0  0  0  0  0  0  0  0
  139.1944   67.8214  226.7432 H   0  0  0  0  0  0  0  0  0  0  0  0
  140.7283   67.8912  225.8735 H   0  0  0  0  0  0  0  0  0  0  0  0
  139.2538   70.0928  227.3784 H   0  0  0  0  0  0  0  0  0  0  0  0
  140.9868   69.8585  227.2601 H   0  0  0  0  0  0  0  0  0  0  0  0
  139.8713   71.7896  225.7603 H   0  0  0  0  0  0  0  0  0  0  0  0
  141.0317   70.7770  224.9391 H   0  0  0  0  0  0  0  0  0  0  0  0
  139.6921   73.0078  223.5881 H   0  0  0  0  0  0  0  0  0  0  0  0
  141.4303   72.8937  223.1737 H   0  0  0  0  0  0  0  0  0  0  0  0
  142.7011   72.6369  220.1248 H   0  0  0  0  0  0  0  0  0  0  0  0
  144.0286   74.4357  219.1108 H   0  0  0  0  0  0  0  0  0  0  0  0
  143.2281   76.7821  219.2490 H   0  0  0  0  0  0  0  0  0  0  0  0
  141.1039   77.2643  220.4147 H   0  0  0  0  0  0  0  0  0  0  0  0
  1  2  2  0
  2  3  1  0
  3  4  2  0
  4  5  1  0
  5  6  2  0
  6  7  1  0
  6  8  1  0
  8  9  2  0
  9 10  1  0
 10 11  2  0
 11 12  1  0
  2 13  1  0
 13 14  1  0
 15 14  1  1
 15 16  1  0
 16 17  1  0
 17 18  1  0
 18 19  1  0
 19 20  1  0
 20 21  1  0
 21 22  1  0
 22 23  1  0
 23 24  1  0
 18 25  1  0
 15 26  1  0
 26 27  2  0
 27 28  1  0
 28 29  2  0
 29 30  1  0
 30 31  2  0
 12  3  1  0
 31 13  1  0
 11  5  1  0
 25 15  1  0
 31 26  1  0
 24 20  1  0
  4 32  1  0
  8 33  1  0
  9 34  1  0
 10 35  1  0
 12 36  1  0
 14 37  1  0
 14 38  1  0
 16 39  1  0
 16 40  1  0
 17 41  1  0
 17 42  1  0
 19 43  1  0
 19 44  1  0
 20 45  1  0
 21 46  1  0
 21 47  1  0
 22 48  1  0
 22 49  1  0
 23 50  1  0
 23 51  1  0
 24 52  1  0
 24 53  1  0
 25 54  1  0
 25 55  1  0
 27 56  1  0
 28 57  1  0
 29 58  1  0
 30 59  1  0
M  END
>  <smiles>  (40) 
O=C(c1cc2c(F)cccc2[nH]1)N1C[C@@]2(CCN(CC3CCCC3)C2)c2ccccc21

>  <score_type>  (40) 
oracle

>  <origin>  (40) 
autodockgpu

>  <m_score__min__energy>  (40) 
-8.6600000000000001

>  <m_primary>  (40) 
energy

>  <rmsd>  (40) 
7.5725557965105095

>  <m_score__min__rmsd>  (40) 
7.5725557965105095

>  <meeko>  (40) 
{"free_energy": -8.66, "intermolecular_energy": -9.85, "internal_energy": -1.22, "cluster_size": 19, "cluster_id": 1, "rank_in_cluster": 4}

>  <energy>  (40) 
-7.84

>  <cluster_rmsd>  (40) 
1.31

>  <cluster>  (40) 
3

$$$$

     RDKit          3D

 59 64  0  0  0  0  0  0  0  0999 V2000
  141.6130   71.8290  221.3400 O   0  0  0  0  0  0  0  0  0  0  0  0
  140.6270   72.1400  222.0860 C   0  0  0  0  0  0  0  0  0  0  0  0
  140.4260   71.3880  223.3360 C   0  0  0  0  0  0  0  0  0  0  0  0
  140.7110   71.8780  224.6190 C   0  0  0  0  0  0  0  0  0  0  0  0
  140.3780   70.8800  225.5090 C   0  0  0  0  0  0  0  0  0  0  0  0
  140.4280   70.7650  226.9030 C   0  0  0  0  0  0  0  0  0  0  0  0
  140.9060   71.8480  227.5730 F   0  0  0  0  0  0  0  0  0  0  0  0
  140.0200   69.6310  227.5500 C   0  0  0  0  0  0  0  0  0  0  0  0
  139.5410   68.5520  226.8450 C   0  0  0  0  0  0  0  0  0  0  0  0
  139.4860   68.6500  225.4640 C   0  0  0  0  0  0  0  0  0  0  0  0
  139.8950   69.7880  224.7830 C   0  0  0  0  0  0  0  0  0  0  0  0
  139.9430   70.1450  223.4770 N   0  0  0  0  0  0  0  0  0  0  0  0
  139.7820   73.1880  221.6820 N   0  0  0  0  0  0  0  0  0  0  0  0
  140.0930   74.3740  220.8940 C   0  0  0  0  0  0  0  0  0  0  0  0
  139.1740   75.3810  221.5670 C   0  0  2  0  0  0  0  0  0  0  0  0
  138.7070   76.4620  220.6170 C   0  0  0  0  0  0  0  0  0  0  0  0
  138.7610   77.7030  221.4990 C   0  0  0  0  0  0  0  0  0  0  0  0
  139.9940   77.5250  222.2390 N   0  0  0  0  0  0  0  0  0  0  0  0
  141.1430   77.8240  221.4460 C   0  0  0  0  0  0  0  0  0  0  0  0
  141.9390   78.9450  222.0520 C   0  0  0  0  0  0  0  0  0  0  0  0
  141.7060   80.2850  221.4510 C   0  0  0  0  0  0  0  0  0  0  0  0
  141.7890   81.3140  222.5460 C   0  0  0  0  0  0  0  0  0  0  0  0
  142.1660   80.5290  223.8020 C   0  0  0  0  0  0  0  0  0  0  0  0
  141.6120   79.1330  223.5240 C   0  0  0  0  0  0  0  0  0  0  0  0
  139.9340   76.1140  222.6100 C   0  0  0  0  0  0  0  0  0  0  0  0
  138.0020   74.6250  222.0060 C   0  0  0  0  0  0  0  0  0  0  0  0
  136.6920   74.9130  222.3400 C   0  0  0  0  0  0  0  0  0  0  0  0
  135.7650   73.9530  222.6820 C   0  0  0  0  0  0  0  0  0  0  0  0
  136.1400   72.6390  222.6980 C   0  0  0  0  0  0  0  0  0  0  0  0
  137.4410   72.3160  222.3720 C   0  0  0  0  0  0  0  0  0  0  0  0
  138.3850   73.2830  222.0260 C   0  0  0  0  0  0  0  0  0  0  0  0
  141.1212   72.8681  224.8669 H   0  0  0  0  0  0  0  0  0  0  0  0
  140.0758   69.5816  228.6475 H   0  0  0  0  0  0  0  0  0  0  0  0
  139.2114   67.6386  227.3618 H   0  0  0  0  0  0  0  0  0  0  0  0
  139.1044   67.7950  224.8866 H   0  0  0  0  0  0  0  0  0  0  0  0
  139.6370   69.5130  222.7090 H   0  0  0  0  0  0  0  0  0  0  0  0
  141.1510   74.6604  220.9863 H   0  0  0  0  0  0  0  0  0  0  0  0
  139.9467   74.2632  219.8094 H   0  0  0  0  0  0  0  0  0  0  0  0
  139.3828   76.5551  219.7541 H   0  0  0  0  0  0  0  0  0  0  0  0
  137.7157   76.2709  220.1802 H   0  0  0  0  0  0  0  0  0  0  0  0
  138.7939   78.6189  220.8907 H   0  0  0  0  0  0  0  0  0  0  0  0
  137.8790   77.8123  222.1471 H   0  0  0  0  0  0  0  0  0  0  0  0
  141.7772   76.9277  221.3794 H   0  0  0  0  0  0  0  0  0  0  0  0
  140.8071   78.1339  220.4454 H   0  0  0  0  0  0  0  0  0  0  0  0
  142.9749   78.6247  221.8668 H   0  0  0  0  0  0  0  0  0  0  0  0
  142.4727   80.4896  220.6892 H   0  0  0  0  0  0  0  0  0  0  0  0
  140.7161   80.3192  220.9726 H   0  0  0  0  0  0  0  0  0  0  0  0
  142.5594   82.0640  222.3136 H   0  0  0  0  0  0  0  0  0  0  0  0
  140.8428   81.8610  222.6703 H   0  0  0  0  0  0  0  0  0  0  0  0
  143.2575   80.5003  223.9358 H   0  0  0  0  0  0  0  0  0  0  0  0
  141.7657   80.9749  224.7244 H   0  0  0  0  0  0  0  0  0  0  0  0
  142.1126   78.3746  224.1438 H   0  0  0  0  0  0  0  0  0  0  0  0
  140.5417   79.0286  223.7553 H   0  0  0  0  0  0  0  0  0  0  0  0
  140.9531   75.7061  222.6812 H   0  0  0  0  0  0  0  0  0  0  0  0
  139.4364   76.0030  223.5847 H   0  0  0  0  0  0  0  0  0  0  0  0
  136.3724   75.9655  222.3323 H   0  0  0  0  0  0  0  0  0  0  0  0
  134.7350   74.2408  222.9392 H   0  0  0  0  0  0  0  0  0  0  0  0
  135.4180   71.8535  222.9658 H   0  0  0  0  0  0  0  0  0  0  0  0
  137.7446   71.2588  222.3854 H   0  0  0  0  0  0  0  0  0  0  0  0
  1  2  2  0
  2  3  1  0
  3  4  2  0
  4  5  1  0
  5  6  2  0
  6  7  1  0
  6  8  1  0
  8  9  2  0
  9 10  1  0
 10 11  2  0
 11 12  1  0
  2 13  1  0
 13 14  1  0
 15 14  1  6
 15 16  1  0
 16 17  1  0
 17 18  1  0
 18 19  1  0
 19 20  1  0
 20 21  1  0
 21 22  1  0
 22 23  1  0
 23 24  1  0
 18 25  1  0
 15 26  1  0
 26 27  2  0
 27 28  1  0
 28 29  2  0
 29 30  1  0
 30 31  2  0
 12  3  1  0
 31 13  1  0
 11  5  1  0
 25 15  1  0
 31 26  1  0
 24 20  1  0
  4 32  1  0
  8 33  1  0
  9 34  1  0
 10 35  1  0
 12 36  1  0
 14 37  1  0
 14 38  1  0
 16 39  1  0
 16 40  1  0
 17 41  1  0
 17 42  1  0
 19 43  1  0
 19 44  1  0
 20 45  1  0
 21 46  1  0
 21 47  1  0
 22 48  1  0
 22 49  1  0
 23 50  1  0
 23 51  1  0
 24 52  1  0
 24 53  1  0
 25 54  1  0
 25 55  1  0
 27 56  1  0
 28 57  1  0
 29 58  1  0
 30 59  1  0
M  END
>  <smiles>  (41) 
O=C(c1cc2c(F)cccc2[nH]1)N1C[C@@]2(CCN(CC3CCCC3)C2)c2ccccc21

>  <score_type>  (41) 
oracle

>  <origin>  (41) 
autodockgpu

>  <m_score__min__energy>  (41) 
-8.6600000000000001

>  <m_primary>  (41) 
energy

>  <rmsd>  (41) 
4.560211667258577

>  <m_score__min__rmsd>  (41) 
4.560211667258577

>  <meeko>  (41) 
{"free_energy": -8.1, "intermolecular_energy": -9.3, "internal_energy": -1.4, "cluster_size": 7, "cluster_id": 2, "rank_in_cluster": 5}

>  <energy>  (41) 
-7.82

>  <cluster_rmsd>  (41) 
1.29

>  <cluster>  (41) 
3

$$$$

     RDKit          3D

 59 64  0  0  0  0  0  0  0  0999 V2000
  139.6800   69.6890  221.3530 O   0  0  0  0  0  0  0  0  0  0  0  0
  139.6180   70.7210  222.1000 C   0  0  0  0  0  0  0  0  0  0  0  0
  139.8580   70.5610  223.5430 C   0  0  0  0  0  0  0  0  0  0  0  0
  140.4380   71.5330  224.3700 C   0  0  0  0  0  0  0  0  0  0  0  0
  140.4780   71.0020  225.6410 C   0  0  0  0  0  0  0  0  0  0  0  0
  140.9300   71.4760  226.8790 C   0  0  0  0  0  0  0  0  0  0  0  0
  141.4590   72.7290  226.8790 F   0  0  0  0  0  0  0  0  0  0  0  0
  140.8450   70.7220  228.0160 C   0  0  0  0  0  0  0  0  0  0  0  0
  140.3050   69.4580  227.9840 C   0  0  0  0  0  0  0  0  0  0  0  0
  139.8530   68.9740  226.7670 C   0  0  0  0  0  0  0  0  0  0  0  0
  139.9300   69.7180  225.5980 C   0  0  0  0  0  0  0  0  0  0  0  0
  139.5710   69.4990  224.3100 N   0  0  0  0  0  0  0  0  0  0  0  0
  139.3280   71.9630  221.5070 N   0  0  0  0  0  0  0  0  0  0  0  0
  139.9950   72.6370  220.4020 C   0  0  0  0  0  0  0  0  0  0  0  0
  139.8610   74.0810  220.8590 C   0  0  2  0  0  0  0  0  0  0  0  0
  139.7850   75.0500  219.7000 C   0  0  0  0  0  0  0  0  0  0  0  0
  140.6320   76.2120  220.2040 C   0  0  0  0  0  0  0  0  0  0  0  0
  141.7490   75.5490  220.8450 N   0  0  0  0  0  0  0  0  0  0  0  0
  142.6890   75.0440  219.8960 C   0  0  0  0  0  0  0  0  0  0  0  0
  143.6060   74.0360  220.5290 C   0  0  0  0  0  0  0  0  0  0  0  0
  143.6100   72.6940  219.8900 C   0  0  0  0  0  0  0  0  0  0  0  0
  145.0090   72.1420  219.9610 C   0  0  0  0  0  0  0  0  0  0  0  0
  145.8080   73.1810  220.7470 C   0  0  0  0  0  0  0  0  0  0  0  0
  145.0570   74.4840  220.4700 C   0  0  0  0  0  0  0  0  0  0  0  0
  141.0920   74.4780  221.5880 C   0  0  0  0  0  0  0  0  0  0  0  0
  138.5990   74.1540  221.5960 C   0  0  0  0  0  0  0  0  0  0  0  0
  137.7080   75.1460  221.9600 C   0  0  0  0  0  0  0  0  0  0  0  0
  136.5330   74.9020  222.6360 C   0  0  0  0  0  0  0  0  0  0  0  0
  136.2110   73.6170  222.9730 C   0  0  0  0  0  0  0  0  0  0  0  0
  137.0780   72.6020  222.6250 C   0  0  0  0  0  0  0  0  0  0  0  0
  138.2710   72.8420  221.9420 C   0  0  0  0  0  0  0  0  0  0  0  0
  140.7929   72.5280  224.0634 H   0  0  0  0  0  0  0  0  0  0  0  0
  141.2132   71.1315  228.9682 H   0  0  0  0  0  0  0  0  0  0  0  0
  140.2339   68.8491  228.8974 H   0  0  0  0  0  0  0  0  0  0  0  0
  139.4178   67.9646  226.7259 H   0  0  0  0  0  0  0  0  0  0  0  0
  139.1300   68.6120  223.9920 H   0  0  0  0  0  0  0  0  0  0  0  0
  141.0482   72.3323  220.3132 H   0  0  0  0  0  0  0  0  0  0  0  0
  139.5769   72.4237  219.4071 H   0  0  0  0  0  0  0  0  0  0  0  0
  140.2103   74.6127  218.7846 H   0  0  0  0  0  0  0  0  0  0  0  0
  138.7584   75.3349  219.4261 H   0  0  0  0  0  0  0  0  0  0  0  0
  140.9729   76.8433  219.3701 H   0  0  0  0  0  0  0  0  0  0  0  0
  140.0841   76.8865  220.8784 H   0  0  0  0  0  0  0  0  0  0  0  0
  142.1435   74.5648  219.0697 H   0  0  0  0  0  0  0  0  0  0  0  0
  143.2950   75.8829  219.5231 H   0  0  0  0  0  0  0  0  0  0  0  0
  143.2071   73.9639  221.5516 H   0  0  0  0  0  0  0  0  0  0  0  0
  142.9186   72.0255  220.4239 H   0  0  0  0  0  0  0  0  0  0  0  0
  143.2855   72.7718  218.8418 H   0  0  0  0  0  0  0  0  0  0  0  0
  145.0160   71.1738  220.4830 H   0  0  0  0  0  0  0  0  0  0  0  0
  145.4335   71.9656  218.9617 H   0  0  0  0  0  0  0  0  0  0  0  0
  145.8087   72.9472  221.8219 H   0  0  0  0  0  0  0  0  0  0  0  0
  146.8670   73.2231  220.4525 H   0  0  0  0  0  0  0  0  0  0  0  0
  145.2727   75.2401  221.2393 H   0  0  0  0  0  0  0  0  0  0  0  0
  145.3342   74.9599  219.5178 H   0  0  0  0  0  0  0  0  0  0  0  0
  141.7688   73.6147  221.6698 H   0  0  0  0  0  0  0  0  0  0  0  0
  140.8339   74.8259  222.5991 H   0  0  0  0  0  0  0  0  0  0  0  0
  137.9502   76.1859  221.6957 H   0  0  0  0  0  0  0  0  0  0  0  0
  135.8614   75.7317  222.9016 H   0  0  0  0  0  0  0  0  0  0  0  0
  135.2777   73.3963  223.5118 H   0  0  0  0  0  0  0  0  0  0  0  0
  136.8200   71.5674  222.8953 H   0  0  0  0  0  0  0  0  0  0  0  0
  1  2  2  0
  2  3  1  0
  3  4  2  0
  4  5  1  0
  5  6  2  0
  6  7  1  0
  6  8  1  0
  8  9  2  0
  9 10  1  0
 10 11  2  0
 11 12  1  0
  2 13  1  0
 13 14  1  0
 15 14  1  6
 15 16  1  0
 16 17  1  0
 17 18  1  0
 18 19  1  0
 19 20  1  0
 20 21  1  0
 21 22  1  0
 22 23  1  0
 23 24  1  0
 18 25  1  0
 15 26  1  0
 26 27  2  0
 27 28  1  0
 28 29  2  0
 29 30  1  0
 30 31  2  0
 12  3  1  0
 31 13  1  0
 11  5  1  0
 25 15  1  0
 31 26  1  0
 24 20  1  0
  4 32  1  0
  8 33  1  0
  9 34  1  0
 10 35  1  0
 12 36  1  0
 14 37  1  0
 14 38  1  0
 16 39  1  0
 16 40  1  0
 17 41  1  0
 17 42  1  0
 19 43  1  0
 19 44  1  0
 20 45  1  0
 21 46  1  0
 21 47  1  0
 22 48  1  0
 22 49  1  0
 23 50  1  0
 23 51  1  0
 24 52  1  0
 24 53  1  0
 25 54  1  0
 25 55  1  0
 27 56  1  0
 28 57  1  0
 29 58  1  0
 30 59  1  0
M  END
>  <smiles>  (42) 
O=C(c1cc2c(F)cccc2[nH]1)N1C[C@@]2(CCN(CC3CCCC3)C2)c2ccccc21

>  <score_type>  (42) 
oracle

>  <origin>  (42) 
autodockgpu

>  <m_score__min__energy>  (42) 
-8.6600000000000001

>  <m_primary>  (42) 
energy

>  <rmsd>  (42) 
5.050692603891623

>  <m_score__min__rmsd>  (42) 
5.050692603891623

>  <meeko>  (42) 
{"free_energy": -7.84, "intermolecular_energy": -9.03, "internal_energy": -1.7, "cluster_size": 17, "cluster_id": 3, "rank_in_cluster": 14}

>  <energy>  (42) 
-7.82

>  <cluster_rmsd>  (42) 
1.31

>  <cluster>  (42) 
3

$$$$

     RDKit          3D

 59 64  0  0  0  0  0  0  0  0999 V2000
  137.8370   76.3460  222.8480 O   0  0  0  0  0  0  0  0  0  0  0  0
  139.0260   76.3710  222.3850 C   0  0  0  0  0  0  0  0  0  0  0  0
  139.8530   77.5630  222.6330 C   0  0  0  0  0  0  0  0  0  0  0  0
  139.3850   78.8840  222.5970 C   0  0  0  0  0  0  0  0  0  0  0  0
  140.4600   79.6960  222.8880 C   0  0  0  0  0  0  0  0  0  0  0  0
  140.6280   81.0810  223.0060 C   0  0  0  0  0  0  0  0  0  0  0  0
  139.5180   81.8360  222.7900 F   0  0  0  0  0  0  0  0  0  0  0  0
  141.8370   81.6380  223.3180 C   0  0  0  0  0  0  0  0  0  0  0  0
  142.9420   80.8480  223.5310 C   0  0  0  0  0  0  0  0  0  0  0  0
  142.7920   79.4750  223.4180 C   0  0  0  0  0  0  0  0  0  0  0  0
  141.5770   78.8850  223.1010 C   0  0  0  0  0  0  0  0  0  0  0  0
  141.1590   77.6070  222.9360 N   0  0  0  0  0  0  0  0  0  0  0  0
  139.4900   75.2570  221.6640 N   0  0  0  0  0  0  0  0  0  0  0  0
  138.8850   73.9410  221.5080 C   0  0  0  0  0  0  0  0  0  0  0  0
  140.1390   73.0810  221.4790 C   0  0  2  0  0  0  0  0  0  0  0  0
  139.9620   71.8290  220.6480 C   0  0  0  0  0  0  0  0  0  0  0  0
  140.6990   70.7890  221.4820 C   0  0  0  0  0  0  0  0  0  0  0  0
  140.3070   71.1190  222.8380 N   0  0  0  0  0  0  0  0  0  0  0  0
  138.9820   70.6780  223.1350 C   0  0  0  0  0  0  0  0  0  0  0  0
  138.8810   70.1950  224.5550 C   0  0  0  0  0  0  0  0  0  0  0  0
  138.8930   68.7190  224.7260 C   0  0  0  0  0  0  0  0  0  0  0  0
  139.6350   68.3960  225.9950 C   0  0  0  0  0  0  0  0  0  0  0  0
  139.9830   69.7520  226.6080 C   0  0  0  0  0  0  0  0  0  0  0  0
  140.0520   70.6790  225.3950 C   0  0  0  0  0  0  0  0  0  0  0  0
  140.4140   72.5750  222.8470 C   0  0  0  0  0  0  0  0  0  0  0  0
  141.1750   73.9010  220.8510 C   0  0  0  0  0  0  0  0  0  0  0  0
  142.3760   73.6750  220.2070 C   0  0  0  0  0  0  0  0  0  0  0  0
  143.1430   74.6770  219.6540 C   0  0  0  0  0  0  0  0  0  0  0  0
  142.7100   75.9710  219.7360 C   0  0  0  0  0  0  0  0  0  0  0  0
  141.5150   76.2320  220.3730 C   0  0  0  0  0  0  0  0  0  0  0  0
  140.7350   75.2220  220.9370 C   0  0  0  0  0  0  0  0  0  0  0  0
  138.3573   79.2098  222.3785 H   0  0  0  0  0  0  0  0  0  0  0  0
  141.9268   82.7313  223.3996 H   0  0  0  0  0  0  0  0  0  0  0  0
  143.9160   81.2925  223.7836 H   0  0  0  0  0  0  0  0  0  0  0  0
  143.6672   78.8301  223.5856 H   0  0  0  0  0  0  0  0  0  0  0  0
  141.7940   76.7890  223.0390 H   0  0  0  0  0  0  0  0  0  0  0  0
  138.2342   73.6867  222.3576 H   0  0  0  0  0  0  0  0  0  0  0  0
  138.2263   73.8326  220.6337 H   0  0  0  0  0  0  0  0  0  0  0  0
  138.8987   71.5708  220.5356 H   0  0  0  0  0  0  0  0  0  0  0  0
  140.3404   71.9221  219.6193 H   0  0  0  0  0  0  0  0  0  0  0  0
  140.3802   69.7705  221.2153 H   0  0  0  0  0  0  0  0  0  0  0  0
  141.7884   70.8051  221.3302 H   0  0  0  0  0  0  0  0  0  0  0  0
  138.2831   71.5148  222.9890 H   0  0  0  0  0  0  0  0  0  0  0  0
  138.7308   69.8446  222.4624 H   0  0  0  0  0  0  0  0  0  0  0  0
  137.9096   70.6013  224.8732 H   0  0  0  0  0  0  0  0  0  0  0  0
  137.8611   68.3440  224.7928 H   0  0  0  0  0  0  0  0  0  0  0  0
  139.3868   68.2420  223.8665 H   0  0  0  0  0  0  0  0  0  0  0  0
  138.9976   67.8154  226.6781 H   0  0  0  0  0  0  0  0  0  0  0  0
  140.5311   67.7870  225.8052 H   0  0  0  0  0  0  0  0  0  0  0  0
  139.2019   70.0792  227.3100 H   0  0  0  0  0  0  0  0  0  0  0  0
  140.9163   69.7345  227.1900 H   0  0  0  0  0  0  0  0  0  0  0  0
  139.9241   71.7312  225.6892 H   0  0  0  0  0  0  0  0  0  0  0  0
  141.0171   70.6463  224.8682 H   0  0  0  0  0  0  0  0  0  0  0  0
  139.6813   72.9956  223.5514 H   0  0  0  0  0  0  0  0  0  0  0  0
  141.4247   72.8745  223.1612 H   0  0  0  0  0  0  0  0  0  0  0  0
  142.7395   72.6395  220.1317 H   0  0  0  0  0  0  0  0  0  0  0  0
  144.0925   74.4386  219.1525 H   0  0  0  0  0  0  0  0  0  0  0  0
  143.3037   76.7890  219.3019 H   0  0  0  0  0  0  0  0  0  0  0  0
  141.1646   77.2726  220.4387 H   0  0  0  0  0  0  0  0  0  0  0  0
  1  2  2  0
  2  3  1  0
  3  4  2  0
  4  5  1  0
  5  6  2  0
  6  7  1  0
  6  8  1  0
  8  9  2  0
  9 10  1  0
 10 11  2  0
 11 12  1  0
  2 13  1  0
 13 14  1  0
 15 14  1  1
 15 16  1  0
 16 17  1  0
 17 18  1  0
 18 19  1  0
 19 20  1  0
 20 21  1  0
 21 22  1  0
 22 23  1  0
 23 24  1  0
 18 25  1  0
 15 26  1  0
 26 27  2  0
 27 28  1  0
 28 29  2  0
 29 30  1  0
 30 31  2  0
 12  3  1  0
 31 13  1  0
 11  5  1  0
 25 15  1  0
 31 26  1  0
 24 20  1  0
  4 32  1  0
  8 33  1  0
  9 34  1  0
 10 35  1  0
 12 36  1  0
 14 37  1  0
 14 38  1  0
 16 39  1  0
 16 40  1  0
 17 41  1  0
 17 42  1  0
 19 43  1  0
 19 44  1  0
 20 45  1  0
 21 46  1  0
 21 47  1  0
 22 48  1  0
 22 49  1  0
 23 50  1  0
 23 51  1  0
 24 52  1  0
 24 53  1  0
 25 54  1  0
 25 55  1  0
 27 56  1  0
 28 57  1  0
 29 58  1  0
 30 59  1  0
M  END
>  <smiles>  (43) 
O=C(c1cc2c(F)cccc2[nH]1)N1C[C@@]2(CCN(CC3CCCC3)C2)c2ccccc21

>  <score_type>  (43) 
oracle

>  <origin>  (43) 
autodockgpu

>  <m_score__min__energy>  (43) 
-8.6600000000000001

>  <m_primary>  (43) 
energy

>  <rmsd>  (43) 
7.594673710356823

>  <m_score__min__rmsd>  (43) 
7.594673710356823

>  <meeko>  (43) 
{"free_energy": -8.62, "intermolecular_energy": -9.82, "internal_energy": -1.26, "cluster_size": 19, "cluster_id": 1, "rank_in_cluster": 14}

>  <energy>  (43) 
-7.81

>  <cluster_rmsd>  (43) 
1.31

>  <cluster>  (43) 
3

$$$$

     RDKit          3D

 59 64  0  0  0  0  0  0  0  0999 V2000
  141.7600   72.1340  221.3200 O   0  0  0  0  0  0  0  0  0  0  0  0
  140.7200   72.3910  222.0100 C   0  0  0  0  0  0  0  0  0  0  0  0
  140.4310   71.5550  223.1870 C   0  0  0  0  0  0  0  0  0  0  0  0
  140.7080   71.9160  224.5130 C   0  0  0  0  0  0  0  0  0  0  0  0
  140.2840   70.8730  225.3070 C   0  0  0  0  0  0  0  0  0  0  0  0
  140.2840   70.6410  226.6880 C   0  0  0  0  0  0  0  0  0  0  0  0
  140.8110   71.6300  227.4590 F   0  0  0  0  0  0  0  0  0  0  0  0
  139.7830   69.4880  227.2270 C   0  0  0  0  0  0  0  0  0  0  0  0
  139.2570   68.5060  226.4220 C   0  0  0  0  0  0  0  0  0  0  0  0
  139.2500   68.7200  225.0530 C   0  0  0  0  0  0  0  0  0  0  0  0
  139.7530   69.8800  224.4810 C   0  0  0  0  0  0  0  0  0  0  0  0
  139.8650   70.3390  223.2110 N   0  0  0  0  0  0  0  0  0  0  0  0
  139.9000   73.4630  221.6170 N   0  0  0  0  0  0  0  0  0  0  0  0
  140.2370   74.6460  220.8360 C   0  0  0  0  0  0  0  0  0  0  0  0
  139.3470   75.6720  221.5210 C   0  0  2  0  0  0  0  0  0  0  0  0
  138.9030   76.7710  220.5800 C   0  0  0  0  0  0  0  0  0  0  0  0
  138.9930   78.0040  221.4710 C   0  0  0  0  0  0  0  0  0  0  0  0
  140.2240   77.7900  222.2030 N   0  0  0  0  0  0  0  0  0  0  0  0
  141.3770   78.0640  221.4060 C   0  0  0  0  0  0  0  0  0  0  0  0
  142.1440   79.2360  221.9530 C   0  0  0  0  0  0  0  0  0  0  0  0
  141.5820   80.5710  221.6210 C   0  0  0  0  0  0  0  0  0  0  0  0
  141.8060   81.4830  222.7980 C   0  0  0  0  0  0  0  0  0  0  0  0
  142.6020   80.6490  223.8010 C   0  0  0  0  0  0  0  0  0  0  0  0
  142.1890   79.2150  223.4720 C   0  0  0  0  0  0  0  0  0  0  0  0
  140.1310   76.3780  222.5640 C   0  0  0  0  0  0  0  0  0  0  0  0
  138.1580   74.9420  221.9610 C   0  0  0  0  0  0  0  0  0  0  0  0
  136.8570   75.2620  222.3030 C   0  0  0  0  0  0  0  0  0  0  0  0
  135.9090   74.3230  222.6430 C   0  0  0  0  0  0  0  0  0  0  0  0
  136.2500   73.0000  222.6480 C   0  0  0  0  0  0  0  0  0  0  0  0
  137.5400   72.6460  222.3130 C   0  0  0  0  0  0  0  0  0  0  0  0
  138.5070   73.5920  221.9690 C   0  0  0  0  0  0  0  0  0  0  0  0
  141.1743   72.8521  224.8540 H   0  0  0  0  0  0  0  0  0  0  0  0
  139.8013   69.3450  228.3175 H   0  0  0  0  0  0  0  0  0  0  0  0
  138.8534   67.5774  226.8519 H   0  0  0  0  0  0  0  0  0  0  0  0
  138.8310   67.9431  224.3966 H   0  0  0  0  0  0  0  0  0  0  0  0
  139.5410   69.7950  222.3850 H   0  0  0  0  0  0  0  0  0  0  0  0
  141.3025   74.9047  220.9248 H   0  0  0  0  0  0  0  0  0  0  0  0
  140.0823   74.5466  219.7515 H   0  0  0  0  0  0  0  0  0  0  0  0
  139.5769   76.8529  219.7144 H   0  0  0  0  0  0  0  0  0  0  0  0
  137.9053   76.6083  220.1462 H   0  0  0  0  0  0  0  0  0  0  0  0
  139.0460   78.9232  220.8692 H   0  0  0  0  0  0  0  0  0  0  0  0
  138.1173   78.1305  222.1245 H   0  0  0  0  0  0  0  0  0  0  0  0
  142.0292   77.1782  221.4004 H   0  0  0  0  0  0  0  0  0  0  0  0
  141.0476   78.3065  220.3849 H   0  0  0  0  0  0  0  0  0  0  0  0
  143.1296   79.1153  221.4798 H   0  0  0  0  0  0  0  0  0  0  0  0
  142.0886   80.9777  220.7333 H   0  0  0  0  0  0  0  0  0  0  0  0
  140.5066   80.4870  221.4052 H   0  0  0  0  0  0  0  0  0  0  0  0
  142.3783   82.3720  222.4945 H   0  0  0  0  0  0  0  0  0  0  0  0
  140.8593   81.8471  223.2237 H   0  0  0  0  0  0  0  0  0  0  0  0
  143.6838   80.7897  223.6598 H   0  0  0  0  0  0  0  0  0  0  0  0
  142.4010   80.9257  224.8465 H   0  0  0  0  0  0  0  0  0  0  0  0
  142.9317   78.4915  223.8393 H   0  0  0  0  0  0  0  0  0  0  0  0
  141.2405   78.9100  223.9383 H   0  0  0  0  0  0  0  0  0  0  0  0
  141.1400   75.9443  222.6258 H   0  0  0  0  0  0  0  0  0  0  0  0
  139.6365   76.2723  223.5409 H   0  0  0  0  0  0  0  0  0  0  0  0
  136.5640   76.3223  222.3035 H   0  0  0  0  0  0  0  0  0  0  0  0
  134.8879   74.6348  222.9078 H   0  0  0  0  0  0  0  0  0  0  0  0
  135.5094   72.2315  222.9143 H   0  0  0  0  0  0  0  0  0  0  0  0
  137.8165   71.5813  222.3170 H   0  0  0  0  0  0  0  0  0  0  0  0
  1  2  2  0
  2  3  1  0
  3  4  2  0
  4  5  1  0
  5  6  2  0
  6  7  1  0
  6  8  1  0
  8  9  2  0
  9 10  1  0
 10 11  2  0
 11 12  1  0
  2 13  1  0
 13 14  1  0
 15 14  1  6
 15 16  1  0
 16 17  1  0
 17 18  1  0
 18 19  1  0
 19 20  1  0
 20 21  1  0
 21 22  1  0
 22 23  1  0
 23 24  1  0
 18 25  1  0
 15 26  1  0
 26 27  2  0
 27 28  1  0
 28 29  2  0
 29 30  1  0
 30 31  2  0
 12  3  1  0
 31 13  1  0
 11  5  1  0
 25 15  1  0
 31 26  1  0
 24 20  1  0
  4 32  1  0
  8 33  1  0
  9 34  1  0
 10 35  1  0
 12 36  1  0
 14 37  1  0
 14 38  1  0
 16 39  1  0
 16 40  1  0
 17 41  1  0
 17 42  1  0
 19 43  1  0
 19 44  1  0
 20 45  1  0
 21 46  1  0
 21 47  1  0
 22 48  1  0
 22 49  1  0
 23 50  1  0
 23 51  1  0
 24 52  1  0
 24 53  1  0
 25 54  1  0
 25 55  1  0
 27 56  1  0
 28 57  1  0
 29 58  1  0
 30 59  1  0
M  END
>  <smiles>  (44) 
O=C(c1cc2c(F)cccc2[nH]1)N1C[C@@]2(CCN(CC3CCCC3)C2)c2ccccc21

>  <score_type>  (44) 
oracle

>  <origin>  (44) 
autodockgpu

>  <m_score__min__energy>  (44) 
-8.6600000000000001

>  <m_primary>  (44) 
energy

>  <rmsd>  (44) 
4.32757143949994

>  <m_score__min__rmsd>  (44) 
4.32757143949994

>  <meeko>  (44) 
{"free_energy": -8.12, "intermolecular_energy": -9.31, "internal_energy": -1.4, "cluster_size": 7, "cluster_id": 2, "rank_in_cluster": 3}

>  <energy>  (44) 
-7.7

>  <cluster_rmsd>  (44) 
0.0

>  <cluster>  (44) 
4

$$$$

     RDKit          3D

 59 64  0  0  0  0  0  0  0  0999 V2000
  139.3880   69.9410  221.5010 O   0  0  0  0  0  0  0  0  0  0  0  0
  139.4770   71.0070  222.1960 C   0  0  0  0  0  0  0  0  0  0  0  0
  139.8240   70.8920  223.6220 C   0  0  0  0  0  0  0  0  0  0  0  0
  139.8070   69.6980  224.3560 C   0  0  0  0  0  0  0  0  0  0  0  0
  140.1980   70.0130  225.6390 C   0  0  0  0  0  0  0  0  0  0  0  0
  140.3790   69.2680  226.8100 C   0  0  0  0  0  0  0  0  0  0  0  0
  140.1200   67.9360  226.7150 F   0  0  0  0  0  0  0  0  0  0  0  0
  140.7910   69.8480  227.9790 C   0  0  0  0  0  0  0  0  0  0  0  0
  141.0450   71.1970  228.0440 C   0  0  0  0  0  0  0  0  0  0  0  0
  140.8710   71.9480  226.8930 C   0  0  0  0  0  0  0  0  0  0  0  0
  140.4530   71.3860  225.6950 C   0  0  0  0  0  0  0  0  0  0  0  0
  140.2120   71.8700  224.4530 N   0  0  0  0  0  0  0  0  0  0  0  0
  139.2460   72.2420  221.5650 N   0  0  0  0  0  0  0  0  0  0  0  0
  139.9530   72.8570  220.4490 C   0  0  0  0  0  0  0  0  0  0  0  0
  139.8720   74.3180  220.8640 C   0  0  2  0  0  0  0  0  0  0  0  0
  139.8500   75.2540  219.6760 C   0  0  0  0  0  0  0  0  0  0  0  0
  140.7380   76.3960  220.1580 C   0  0  0  0  0  0  0  0  0  0  0  0
  141.8200   75.7070  220.8320 N   0  0  0  0  0  0  0  0  0  0  0  0
  142.7500   75.1370  219.9100 C   0  0  0  0  0  0  0  0  0  0  0  0
  143.5970   74.0900  220.5770 C   0  0  0  0  0  0  0  0  0  0  0  0
  143.5230   72.7340  219.9720 C   0  0  0  0  0  0  0  0  0  0  0  0
  144.8850   72.0990  220.0700 C   0  0  0  0  0  0  0  0  0  0  0  0
  145.7400   73.1070  220.8370 C   0  0  0  0  0  0  0  0  0  0  0  0
  145.0740   74.4460  220.5210 C   0  0  0  0  0  0  0  0  0  0  0  0
  141.1100   74.6850  221.5960 C   0  0  0  0  0  0  0  0  0  0  0  0
  138.6060   74.4620  221.5810 C   0  0  0  0  0  0  0  0  0  0  0  0
  137.7520   75.5000  221.9050 C   0  0  0  0  0  0  0  0  0  0  0  0
  136.5600   75.3230  222.5720 C   0  0  0  0  0  0  0  0  0  0  0  0
  136.1810   74.0630  222.9410 C   0  0  0  0  0  0  0  0  0  0  0  0
  137.0110   73.0040  222.6340 C   0  0  0  0  0  0  0  0  0  0  0  0
  138.2210   73.1760  221.9610 C   0  0  0  0  0  0  0  0  0  0  0  0
  139.5340   68.7010  223.9799 H   0  0  0  0  0  0  0  0  0  0  0  0
  140.9204   69.2269  228.8776 H   0  0  0  0  0  0  0  0  0  0  0  0
  141.3766   71.6664  228.9819 H   0  0  0  0  0  0  0  0  0  0  0  0
  141.0714   73.0290  226.9300 H   0  0  0  0  0  0  0  0  0  0  0  0
  140.3260   72.8760  224.2100 H   0  0  0  0  0  0  0  0  0  0  0  0
  140.9940   72.5080  220.3821 H   0  0  0  0  0  0  0  0  0  0  0  0
  139.5384   72.6322  219.4552 H   0  0  0  0  0  0  0  0  0  0  0  0
  140.2686   74.7727  218.7798 H   0  0  0  0  0  0  0  0  0  0  0  0
  138.8395   75.5718  219.3795 H   0  0  0  0  0  0  0  0  0  0  0  0
  141.1139   76.9888  219.3111 H   0  0  0  0  0  0  0  0  0  0  0  0
  140.2100   77.1112  220.8058 H   0  0  0  0  0  0  0  0  0  0  0  0
  142.1960   74.6758  219.0791 H   0  0  0  0  0  0  0  0  0  0  0  0
  143.4086   75.9356  219.5379 H   0  0  0  0  0  0  0  0  0  0  0  0
  143.1855   74.0684  221.5969 H   0  0  0  0  0  0  0  0  0  0  0  0
  142.7876   72.1233  220.5162 H   0  0  0  0  0  0  0  0  0  0  0  0
  143.2120   72.8045  218.9192 H   0  0  0  0  0  0  0  0  0  0  0  0
  144.8283   71.1459  220.6163 H   0  0  0  0  0  0  0  0  0  0  0  0
  145.3057   71.8710  219.0795 H   0  0  0  0  0  0  0  0  0  0  0  0
  145.7178   72.9011  221.9173 H   0  0  0  0  0  0  0  0  0  0  0  0
  146.8017   73.0764  220.5510 H   0  0  0  0  0  0  0  0  0  0  0  0
  145.3300   75.2064  221.2735 H   0  0  0  0  0  0  0  0  0  0  0  0
  145.3879   74.8799  219.5602 H   0  0  0  0  0  0  0  0  0  0  0  0
  141.7494   73.7973  221.7102 H   0  0  0  0  0  0  0  0  0  0  0  0
  140.8548   75.0724  222.5934 H   0  0  0  0  0  0  0  0  0  0  0  0
  138.0398   76.5212  221.6147 H   0  0  0  0  0  0  0  0  0  0  0  0
  135.9199   76.1867  222.8052 H   0  0  0  0  0  0  0  0  0  0  0  0
  135.2325   73.8960  223.4725 H   0  0  0  0  0  0  0  0  0  0  0  0
  136.7080   71.9889  222.9303 H   0  0  0  0  0  0  0  0  0  0  0  0
  1  2  2  0
  2  3  1  0
  3  4  2  0
  4  5  1  0
  5  6  2  0
  6  7  1  0
  6  8  1  0
  8  9  2  0
  9 10  1  0
 10 11  2  0
 11 12  1  0
  2 13  1  0
 13 14  1  0
 15 14  1  6
 15 16  1  0
 16 17  1  0
 17 18  1  0
 18 19  1  0
 19 20  1  0
 20 21  1  0
 21 22  1  0
 22 23  1  0
 23 24  1  0
 18 25  1  0
 15 26  1  0
 26 27  2  0
 27 28  1  0
 28 29  2  0
 29 30  1  0
 30 31  2  0
 12  3  1  0
 31 13  1  0
 11  5  1  0
 25 15  1  0
 31 26  1  0
 24 20  1  0
  4 32  1  0
  8 33  1  0
  9 34  1  0
 10 35  1  0
 12 36  1  0
 14 37  1  0
 14 38  1  0
 16 39  1  0
 16 40  1  0
 17 41  1  0
 17 42  1  0
 19 43  1  0
 19 44  1  0
 20 45  1  0
 21 46  1  0
 21 47  1  0
 22 48  1  0
 22 49  1  0
 23 50  1  0
 23 51  1  0
 24 52  1  0
 24 53  1  0
 25 54  1  0
 25 55  1  0
 27 56  1  0
 28 57  1  0
 29 58  1  0
 30 59  1  0
M  END
>  <smiles>  (45) 
O=C(c1cc2c(F)cccc2[nH]1)N1C[C@@]2(CCN(CC3CCCC3)C2)c2ccccc21

>  <score_type>  (45) 
oracle

>  <origin>  (45) 
autodockgpu

>  <m_score__min__energy>  (45) 
-8.6600000000000001

>  <m_primary>  (45) 
energy

>  <rmsd>  (45) 
4.929891855141406

>  <m_score__min__rmsd>  (45) 
4.929891855141406

>  <meeko>  (45) 
{"free_energy": -8.03, "intermolecular_energy": -9.23, "internal_energy": -1.62, "cluster_size": 17, "cluster_id": 3, "rank_in_cluster": 2}

>  <energy>  (45) 
-7.39

>  <cluster_rmsd>  (45) 
0.0

>  <cluster>  (45) 
5

$$$$

     RDKit          3D

 59 64  0  0  0  0  0  0  0  0999 V2000
  137.7960   76.3630  222.8000 O   0  0  0  0  0  0  0  0  0  0  0  0
  138.9900   76.3760  222.3520 C   0  0  0  0  0  0  0  0  0  0  0  0
  139.8240   77.5630  222.6020 C   0  0  0  0  0  0  0  0  0  0  0  0
  139.3460   78.8790  222.6590 C   0  0  0  0  0  0  0  0  0  0  0  0
  140.4330   79.6870  222.9180 C   0  0  0  0  0  0  0  0  0  0  0  0
  140.5990   81.0660  223.0900 C   0  0  0  0  0  0  0  0  0  0  0  0
  139.4720   81.8200  222.9820 F   0  0  0  0  0  0  0  0  0  0  0  0
  141.8230   81.6190  223.3500 C   0  0  0  0  0  0  0  0  0  0  0  0
  142.9440   80.8310  223.4530 C   0  0  0  0  0  0  0  0  0  0  0  0
  142.7960   79.4630  223.2860 C   0  0  0  0  0  0  0  0  0  0  0  0
  141.5670   78.8770  223.0200 C   0  0  0  0  0  0  0  0  0  0  0  0
  141.1470   77.6040  222.8210 N   0  0  0  0  0  0  0  0  0  0  0  0
  139.4540   75.2530  221.6450 N   0  0  0  0  0  0  0  0  0  0  0  0
  138.8530   73.9320  221.5100 C   0  0  0  0  0  0  0  0  0  0  0  0
  140.1100   73.0760  221.4870 C   0  0  2  0  0  0  0  0  0  0  0  0
  139.9330   71.8120  220.6750 C   0  0  0  0  0  0  0  0  0  0  0  0
  140.6770   70.7870  221.5210 C   0  0  0  0  0  0  0  0  0  0  0  0
  140.2910   71.1350  222.8730 N   0  0  0  0  0  0  0  0  0  0  0  0
  138.9690   70.6930  223.1840 C   0  0  0  0  0  0  0  0  0  0  0  0
  138.8900   70.1820  224.5950 C   0  0  0  0  0  0  0  0  0  0  0  0
  139.0170   68.7080  224.7430 C   0  0  0  0  0  0  0  0  0  0  0  0
  139.7670   68.4250  226.0170 C   0  0  0  0  0  0  0  0  0  0  0  0
  140.0000   69.7940  226.6550 C   0  0  0  0  0  0  0  0  0  0  0  0
  140.0090   70.7430  225.4570 C   0  0  0  0  0  0  0  0  0  0  0  0
  140.3940   72.5910  222.8610 C   0  0  0  0  0  0  0  0  0  0  0  0
  141.1390   73.8910  220.8420 C   0  0  0  0  0  0  0  0  0  0  0  0
  142.3380   73.6590  220.1940 C   0  0  0  0  0  0  0  0  0  0  0  0
  143.0980   74.6560  219.6230 C   0  0  0  0  0  0  0  0  0  0  0  0
  142.6620   75.9500  219.6890 C   0  0  0  0  0  0  0  0  0  0  0  0
  141.4700   76.2160  220.3290 C   0  0  0  0  0  0  0  0  0  0  0  0
  140.6950   75.2110  220.9120 C   0  0  0  0  0  0  0  0  0  0  0  0
  138.3042   79.2048  222.5233 H   0  0  0  0  0  0  0  0  0  0  0  0
  141.9109   82.7080  223.4782 H   0  0  0  0  0  0  0  0  0  0  0  0
  143.9295   81.2727  223.6618 H   0  0  0  0  0  0  0  0  0  0  0  0
  143.6843   78.8193  223.3672 H   0  0  0  0  0  0  0  0  0  0  0  0
  141.7930   76.7880  222.8450 H   0  0  0  0  0  0  0  0  0  0  0  0
  138.2071   73.6871  222.3661 H   0  0  0  0  0  0  0  0  0  0  0  0
  138.1908   73.8091  220.6403 H   0  0  0  0  0  0  0  0  0  0  0  0
  138.8700   71.5489  220.5712 H   0  0  0  0  0  0  0  0  0  0  0  0
  140.3062   71.8911  219.6433 H   0  0  0  0  0  0  0  0  0  0  0  0
  140.3602   69.7637  221.2708 H   0  0  0  0  0  0  0  0  0  0  0  0
  141.7656   70.8048  221.3639 H   0  0  0  0  0  0  0  0  0  0  0  0
  138.2712   71.5352  223.0669 H   0  0  0  0  0  0  0  0  0  0  0  0
  138.7031   69.8742  222.4993 H   0  0  0  0  0  0  0  0  0  0  0  0
  137.8863   70.5060  224.9075 H   0  0  0  0  0  0  0  0  0  0  0  0
  138.0174   68.2512  224.7903 H   0  0  0  0  0  0  0  0  0  0  0  0
  139.5570   68.2854  223.8829 H   0  0  0  0  0  0  0  0  0  0  0  0
  139.1692   67.7854  226.6830 H   0  0  0  0  0  0  0  0  0  0  0  0
  140.7107   67.8919  225.8297 H   0  0  0  0  0  0  0  0  0  0  0  0
  139.1878   70.0472  227.3523 H   0  0  0  0  0  0  0  0  0  0  0  0
  140.9251   69.8407  227.2482 H   0  0  0  0  0  0  0  0  0  0  0  0
  139.7948   71.7769  225.7655 H   0  0  0  0  0  0  0  0  0  0  0  0
  140.9796   70.7949  224.9420 H   0  0  0  0  0  0  0  0  0  0  0  0
  139.6639   73.0197  223.5633 H   0  0  0  0  0  0  0  0  0  0  0  0
  141.4054   72.8981  223.1657 H   0  0  0  0  0  0  0  0  0  0  0  0
  142.7044   72.6237  220.1310 H   0  0  0  0  0  0  0  0  0  0  0  0
  144.0454   74.4135  219.1194 H   0  0  0  0  0  0  0  0  0  0  0  0
  143.2509   76.7635  219.2401 H   0  0  0  0  0  0  0  0  0  0  0  0
  141.1170   77.2565  220.3823 H   0  0  0  0  0  0  0  0  0  0  0  0
  1  2  2  0
  2  3  1  0
  3  4  2  0
  4  5  1  0
  5  6  2  0
  6  7  1  0
  6  8  1  0
  8  9  2  0
  9 10  1  0
 10 11  2  0
 11 12  1  0
  2 13  1  0
 13 14  1  0
 15 14  1  1
 15 16  1  0
 16 17  1  0
 17 18  1  0
 18 19  1  0
 19 20  1  0
 20 21  1  0
 21 22  1  0
 22 23  1  0
 23 24  1  0
 18 25  1  0
 15 26  1  0
 26 27  2  0
 27 28  1  0
 28 29  2  0
 29 30  1  0
 30 31  2  0
 12  3  1  0
 31 13  1  0
 11  5  1  0
 25 15  1  0
 31 26  1  0
 24 20  1  0
  4 32  1  0
  8 33  1  0
  9 34  1  0
 10 35  1  0
 12 36  1  0
 14 37  1  0
 14 38  1  0
 16 39  1  0
 16 40  1  0
 17 41  1  0
 17 42  1  0
 19 43  1  0
 19 44  1  0
 20 45  1  0
 21 46  1  0
 21 47  1  0
 22 48  1  0
 22 49  1  0
 23 50  1  0
 23 51  1  0
 24 52  1  0
 24 53  1  0
 25 54  1  0
 25 55  1  0
 27 56  1  0
 28 57  1  0
 29 58  1  0
 30 59  1  0
M  END
>  <smiles>  (46) 
O=C(c1cc2c(F)cccc2[nH]1)N1C[C@@]2(CCN(CC3CCCC3)C2)c2ccccc21

>  <score_type>  (46) 
oracle

>  <origin>  (46) 
autodockgpu

>  <m_score__min__energy>  (46) 
-8.6600000000000001

>  <m_primary>  (46) 
energy

>  <rmsd>  (46) 
7.574900998496784

>  <m_score__min__rmsd>  (46) 
7.574900998496784

>  <meeko>  (46) 
{"free_energy": -8.65, "intermolecular_energy": -9.84, "internal_energy": -1.23, "cluster_size": 19, "cluster_id": 1, "rank_in_cluster": 9}

>  <energy>  (46) 
-7.39

>  <cluster_rmsd>  (46) 
0.01

>  <cluster>  (46) 
5

$$$$

     RDKit          3D

 59 64  0  0  0  0  0  0  0  0999 V2000
  139.5500   69.6440  221.3730 O   0  0  0  0  0  0  0  0  0  0  0  0
  139.5390   70.6820  222.1150 C   0  0  0  0  0  0  0  0  0  0  0  0
  139.8100   70.5230  223.5530 C   0  0  0  0  0  0  0  0  0  0  0  0
  140.3520   71.5180  224.3800 C   0  0  0  0  0  0  0  0  0  0  0  0
  140.4410   70.9790  225.6450 C   0  0  0  0  0  0  0  0  0  0  0  0
  140.8870   71.4660  226.8790 C   0  0  0  0  0  0  0  0  0  0  0  0
  141.3480   72.7450  226.8830 F   0  0  0  0  0  0  0  0  0  0  0  0
  140.8600   70.6990  228.0110 C   0  0  0  0  0  0  0  0  0  0  0  0
  140.3880   69.4080  227.9760 C   0  0  0  0  0  0  0  0  0  0  0  0
  139.9430   68.9110  226.7610 C   0  0  0  0  0  0  0  0  0  0  0  0
  139.9600   69.6680  225.5980 C   0  0  0  0  0  0  0  0  0  0  0  0
  139.5920   69.4410  224.3140 N   0  0  0  0  0  0  0  0  0  0  0  0
  139.2730   71.9290  221.5220 N   0  0  0  0  0  0  0  0  0  0  0  0
  139.9490   72.5870  220.4110 C   0  0  0  0  0  0  0  0  0  0  0  0
  139.8490   74.0340  220.8670 C   0  0  2  0  0  0  0  0  0  0  0  0
  139.7870   75.0020  219.7060 C   0  0  0  0  0  0  0  0  0  0  0  0
  140.6630   76.1460  220.2020 C   0  0  0  0  0  0  0  0  0  0  0  0
  141.7690   75.4600  220.8380 N   0  0  0  0  0  0  0  0  0  0  0  0
  142.6920   74.9320  219.8840 C   0  0  0  0  0  0  0  0  0  0  0  0
  143.6540   73.9790  220.5360 C   0  0  0  0  0  0  0  0  0  0  0  0
  143.7340   72.6320  219.9110 C   0  0  0  0  0  0  0  0  0  0  0  0
  145.1580   72.1540  219.9990 C   0  0  0  0  0  0  0  0  0  0  0  0
  145.8960   73.2420  220.7790 C   0  0  0  0  0  0  0  0  0  0  0  0
  145.0810   74.5010  220.4830 C   0  0  0  0  0  0  0  0  0  0  0  0
  141.0920   74.4050  221.5870 C   0  0  0  0  0  0  0  0  0  0  0  0
  138.5930   74.1350  221.6100 C   0  0  0  0  0  0  0  0  0  0  0  0
  137.7270   75.1480  221.9780 C   0  0  0  0  0  0  0  0  0  0  0  0
  136.5510   74.9310  222.6610 C   0  0  0  0  0  0  0  0  0  0  0  0
  136.2020   73.6540  223.0020 C   0  0  0  0  0  0  0  0  0  0  0  0
  137.0440   72.6200  222.6510 C   0  0  0  0  0  0  0  0  0  0  0  0
  138.2390   72.8330  221.9610 C   0  0  0  0  0  0  0  0  0  0  0  0
  140.6488   72.5330  224.0770 H   0  0  0  0  0  0  0  0  0  0  0  0
  141.2203   71.1201  228.9612 H   0  0  0  0  0  0  0  0  0  0  0  0
  140.3643   68.7884  228.8846 H   0  0  0  0  0  0  0  0  0  0  0  0
  139.5628   67.8797  226.7171 H   0  0  0  0  0  0  0  0  0  0  0  0
  139.1940   68.5340  223.9950 H   0  0  0  0  0  0  0  0  0  0  0  0
  140.9948   72.2592  220.3167 H   0  0  0  0  0  0  0  0  0  0  0  0
  139.5210   72.3814  219.4187 H   0  0  0  0  0  0  0  0  0  0  0  0
  140.1965   74.5533  218.7889 H   0  0  0  0  0  0  0  0  0  0  0  0
  138.7653   75.3091  219.4380 H   0  0  0  0  0  0  0  0  0  0  0  0
  141.0127   76.7675  219.3645 H   0  0  0  0  0  0  0  0  0  0  0  0
  140.1343   76.8341  220.8781 H   0  0  0  0  0  0  0  0  0  0  0  0
  142.1338   74.3994  219.0999 H   0  0  0  0  0  0  0  0  0  0  0  0
  143.2639   75.7659  219.4509 H   0  0  0  0  0  0  0  0  0  0  0  0
  143.2499   73.8968  221.5558 H   0  0  0  0  0  0  0  0  0  0  0  0
  143.0736   71.9339  220.4462 H   0  0  0  0  0  0  0  0  0  0  0  0
  143.4156   72.6827  218.8593 H   0  0  0  0  0  0  0  0  0  0  0  0
  145.2106   71.1934  220.5324 H   0  0  0  0  0  0  0  0  0  0  0  0
  145.5992   71.9883  219.0051 H   0  0  0  0  0  0  0  0  0  0  0  0
  145.9009   73.0200  221.8564 H   0  0  0  0  0  0  0  0  0  0  0  0
  146.9534   73.3361  220.4910 H   0  0  0  0  0  0  0  0  0  0  0  0
  145.2512   75.2750  221.2459 H   0  0  0  0  0  0  0  0  0  0  0  0
  145.3406   74.9809  219.5279 H   0  0  0  0  0  0  0  0  0  0  0  0
  141.7498   73.5270  221.6667 H   0  0  0  0  0  0  0  0  0  0  0  0
  140.8474   74.7610  222.5987 H   0  0  0  0  0  0  0  0  0  0  0  0
  137.9913   76.1819  221.7111 H   0  0  0  0  0  0  0  0  0  0  0  0
  135.8997   75.7759  222.9292 H   0  0  0  0  0  0  0  0  0  0  0  0
  135.2670   73.4550  223.5462 H   0  0  0  0  0  0  0  0  0  0  0  0
  136.7646   71.5917  222.9241 H   0  0  0  0  0  0  0  0  0  0  0  0
  1  2  2  0
  2  3  1  0
  3  4  2  0
  4  5  1  0
  5  6  2  0
  6  7  1  0
  6  8  1  0
  8  9  2  0
  9 10  1  0
 10 11  2  0
 11 12  1  0
  2 13  1  0
 13 14  1  0
 15 14  1  6
 15 16  1  0
 16 17  1  0
 17 18  1  0
 18 19  1  0
 19 20  1  0
 20 21  1  0
 21 22  1  0
 22 23  1  0
 23 24  1  0
 18 25  1  0
 15 26  1  0
 26 27  2  0
 27 28  1  0
 28 29  2  0
 29 30  1  0
 30 31  2  0
 12  3  1  0
 31 13  1  0
 11  5  1  0
 25 15  1  0
 31 26  1  0
 24 20  1  0
  4 32  1  0
  8 33  1  0
  9 34  1  0
 10 35  1  0
 12 36  1  0
 14 37  1  0
 14 38  1  0
 16 39  1  0
 16 40  1  0
 17 41  1  0
 17 42  1  0
 19 43  1  0
 19 44  1  0
 20 45  1  0
 21 46  1  0
 21 47  1  0
 22 48  1  0
 22 49  1  0
 23 50  1  0
 23 51  1  0
 24 52  1  0
 24 53  1  0
 25 54  1  0
 25 55  1  0
 27 56  1  0
 28 57  1  0
 29 58  1  0
 30 59  1  0
M  END
>  <smiles>  (47) 
O=C(c1cc2c(F)cccc2[nH]1)N1C[C@@]2(CCN(CC3CCCC3)C2)c2ccccc21

>  <score_type>  (47) 
oracle

>  <origin>  (47) 
autodockgpu

>  <m_score__min__energy>  (47) 
-8.6600000000000001

>  <m_primary>  (47) 
energy

>  <rmsd>  (47) 
5.071047348460446

>  <m_score__min__rmsd>  (47) 
5.071047348460446

>  <meeko>  (47) 
{"free_energy": -7.86, "intermolecular_energy": -9.06, "internal_energy": -1.67, "cluster_size": 17, "cluster_id": 3, "rank_in_cluster": 13}

>  <energy>  (47) 
-7.39

>  <cluster_rmsd>  (47) 
0.02

>  <cluster>  (47) 
5

$$$$

     RDKit          3D

 59 64  0  0  0  0  0  0  0  0999 V2000
  137.8090   76.3420  222.8750 O   0  0  0  0  0  0  0  0  0  0  0  0
  138.9970   76.3650  222.4110 C   0  0  0  0  0  0  0  0  0  0  0  0
  139.8270   77.5550  222.6560 C   0  0  0  0  0  0  0  0  0  0  0  0
  139.3430   78.8690  222.7210 C   0  0  0  0  0  0  0  0  0  0  0  0
  140.4270   79.6810  222.9730 C   0  0  0  0  0  0  0  0  0  0  0  0
  140.5880   81.0610  223.1470 C   0  0  0  0  0  0  0  0  0  0  0  0
  139.4560   81.8090  223.0520 F   0  0  0  0  0  0  0  0  0  0  0  0
  141.8110   81.6200  223.3960 C   0  0  0  0  0  0  0  0  0  0  0  0
  142.9380   80.8380  223.4870 C   0  0  0  0  0  0  0  0  0  0  0  0
  142.7950   79.4690  223.3160 C   0  0  0  0  0  0  0  0  0  0  0  0
  141.5660   78.8770  223.0610 C   0  0  0  0  0  0  0  0  0  0  0  0
  141.1510   77.6030  222.8630 N   0  0  0  0  0  0  0  0  0  0  0  0
  139.4580   75.2480  221.6910 N   0  0  0  0  0  0  0  0  0  0  0  0
  138.8590   73.9270  221.5510 C   0  0  0  0  0  0  0  0  0  0  0  0
  140.1180   73.0750  221.5110 C   0  0  2  0  0  0  0  0  0  0  0  0
  139.9370   71.8170  220.6910 C   0  0  0  0  0  0  0  0  0  0  0  0
  140.6910   70.7860  221.5220 C   0  0  0  0  0  0  0  0  0  0  0  0
  140.3150   71.1230  222.8800 N   0  0  0  0  0  0  0  0  0  0  0  0
  138.9970   70.6760  223.1990 C   0  0  0  0  0  0  0  0  0  0  0  0
  138.9170   70.2030  224.6230 C   0  0  0  0  0  0  0  0  0  0  0  0
  139.0170   68.7320  224.8090 C   0  0  0  0  0  0  0  0  0  0  0  0
  139.7700   68.4670  226.0860 C   0  0  0  0  0  0  0  0  0  0  0  0
  140.0330   69.8480  226.6860 C   0  0  0  0  0  0  0  0  0  0  0  0
  140.0530   70.7640  225.4630 C   0  0  0  0  0  0  0  0  0  0  0  0
  140.4140   72.5800  222.8790 C   0  0  0  0  0  0  0  0  0  0  0  0
  141.1400   73.8970  220.8640 C   0  0  0  0  0  0  0  0  0  0  0  0
  142.3340   73.6740  220.2050 C   0  0  0  0  0  0  0  0  0  0  0  0
  143.0870   74.6760  219.6360 C   0  0  0  0  0  0  0  0  0  0  0  0
  142.6480   75.9690  219.7150 C   0  0  0  0  0  0  0  0  0  0  0  0
  141.4600   76.2270  220.3670 C   0  0  0  0  0  0  0  0  0  0  0  0
  140.6930   75.2160  220.9480 C   0  0  0  0  0  0  0  0  0  0  0  0
  138.2985   79.1900  222.5950 H   0  0  0  0  0  0  0  0  0  0  0  0
  141.8940   82.7092  223.5251 H   0  0  0  0  0  0  0  0  0  0  0  0
  143.9229   81.2842  223.6892 H   0  0  0  0  0  0  0  0  0  0  0  0
  143.6875   78.8298  223.3849 H   0  0  0  0  0  0  0  0  0  0  0  0
  141.8010   76.7910  222.8780 H   0  0  0  0  0  0  0  0  0  0  0  0
  138.2209   73.6740  222.4105 H   0  0  0  0  0  0  0  0  0  0  0  0
  138.1896   73.8089  220.6862 H   0  0  0  0  0  0  0  0  0  0  0  0
  138.8737   71.5523  220.5945 H   0  0  0  0  0  0  0  0  0  0  0  0
  140.3013   71.9054  219.6568 H   0  0  0  0  0  0  0  0  0  0  0  0
  140.3743   69.7641  221.2662 H   0  0  0  0  0  0  0  0  0  0  0  0
  141.7781   70.8067  221.3557 H   0  0  0  0  0  0  0  0  0  0  0  0
  138.2911   71.5075  223.0563 H   0  0  0  0  0  0  0  0  0  0  0  0
  138.7428   69.8355  222.5365 H   0  0  0  0  0  0  0  0  0  0  0  0
  137.9216   70.5540  224.9326 H   0  0  0  0  0  0  0  0  0  0  0  0
  138.0092   68.2960  224.8741 H   0  0  0  0  0  0  0  0  0  0  0  0
  139.5437   68.2772  223.9571 H   0  0  0  0  0  0  0  0  0  0  0  0
  139.1644   67.8567  226.7721 H   0  0  0  0  0  0  0  0  0  0  0  0
  140.7019   67.9105  225.9075 H   0  0  0  0  0  0  0  0  0  0  0  0
  139.2299   70.1354  227.3806 H   0  0  0  0  0  0  0  0  0  0  0  0
  140.9623   69.8927  227.2728 H   0  0  0  0  0  0  0  0  0  0  0  0
  139.8617   71.8099  225.7449 H   0  0  0  0  0  0  0  0  0  0  0  0
  141.0210   70.7823  224.9408 H   0  0  0  0  0  0  0  0  0  0  0  0
  139.6882   73.0010  223.5903 H   0  0  0  0  0  0  0  0  0  0  0  0
  141.4268   72.8876  223.1785 H   0  0  0  0  0  0  0  0  0  0  0  0
  142.7025   72.6402  220.1312 H   0  0  0  0  0  0  0  0  0  0  0  0
  144.0312   74.4395  219.1235 H   0  0  0  0  0  0  0  0  0  0  0  0
  143.2310   76.7873  219.2673 H   0  0  0  0  0  0  0  0  0  0  0  0
  141.1047   77.2661  220.4313 H   0  0  0  0  0  0  0  0  0  0  0  0
  1  2  2  0
  2  3  1  0
  3  4  2  0
  4  5  1  0
  5  6  2  0
  6  7  1  0
  6  8  1  0
  8  9  2  0
  9 10  1  0
 10 11  2  0
 11 12  1  0
  2 13  1  0
 13 14  1  0
 15 14  1  1
 15 16  1  0
 16 17  1  0
 17 18  1  0
 18 19  1  0
 19 20  1  0
 20 21  1  0
 21 22  1  0
 22 23  1  0
 23 24  1  0
 18 25  1  0
 15 26  1  0
 26 27  2  0
 27 28  1  0
 28 29  2  0
 29 30  1  0
 30 31  2  0
 12  3  1  0
 31 13  1  0
 11  5  1  0
 25 15  1  0
 31 26  1  0
 24 20  1  0
  4 32  1  0
  8 33  1  0
  9 34  1  0
 10 35  1  0
 12 36  1  0
 14 37  1  0
 14 38  1  0
 16 39  1  0
 16 40  1  0
 17 41  1  0
 17 42  1  0
 19 43  1  0
 19 44  1  0
 20 45  1  0
 21 46  1  0
 21 47  1  0
 22 48  1  0
 22 49  1  0
 23 50  1  0
 23 51  1  0
 24 52  1  0
 24 53  1  0
 25 54  1  0
 25 55  1  0
 27 56  1  0
 28 57  1  0
 29 58  1  0
 30 59  1  0
M  END
>  <smiles>  (48) 
O=C(c1cc2c(F)cccc2[nH]1)N1C[C@@]2(CCN(CC3CCCC3)C2)c2ccccc21

>  <score_type>  (48) 
oracle

>  <origin>  (48) 
autodockgpu

>  <m_score__min__energy>  (48) 
-8.6600000000000001

>  <m_primary>  (48) 
energy

>  <rmsd>  (48) 
7.574464617055513

>  <m_score__min__rmsd>  (48) 
7.574464617055513

>  <meeko>  (48) 
{"free_energy": -8.66, "intermolecular_energy": -9.85, "internal_energy": -1.22, "cluster_size": 19, "cluster_id": 1, "rank_in_cluster": 1}

>  <energy>  (48) 
-7.38

>  <cluster_rmsd>  (48) 
0.04

>  <cluster>  (48) 
5

$$$$

     RDKit          3D

 59 64  0  0  0  0  0  0  0  0999 V2000
  137.8180   76.3700  222.8390 O   0  0  0  0  0  0  0  0  0  0  0  0
  139.0080   76.3870  222.3800 C   0  0  0  0  0  0  0  0  0  0  0  0
  139.8400   77.5770  222.6210 C   0  0  0  0  0  0  0  0  0  0  0  0
  139.3610   78.8930  222.6640 C   0  0  0  0  0  0  0  0  0  0  0  0
  140.4450   79.7040  222.9190 C   0  0  0  0  0  0  0  0  0  0  0  0
  140.6100   81.0850  223.0780 C   0  0  0  0  0  0  0  0  0  0  0  0
  139.4820   81.8370  222.9610 F   0  0  0  0  0  0  0  0  0  0  0  0
  141.8320   81.6430  223.3360 C   0  0  0  0  0  0  0  0  0  0  0  0
  142.9540   80.8570  223.4490 C   0  0  0  0  0  0  0  0  0  0  0  0
  142.8080   79.4870  223.2940 C   0  0  0  0  0  0  0  0  0  0  0  0
  141.5800   78.8970  223.0310 C   0  0  0  0  0  0  0  0  0  0  0  0
  141.1620   77.6220  222.8430 N   0  0  0  0  0  0  0  0  0  0  0  0
  139.4700   75.2640  221.6700 N   0  0  0  0  0  0  0  0  0  0  0  0
  138.8700   73.9430  221.5380 C   0  0  0  0  0  0  0  0  0  0  0  0
  140.1270   73.0890  221.5080 C   0  0  2  0  0  0  0  0  0  0  0  0
  139.9470   71.8250  220.6960 C   0  0  0  0  0  0  0  0  0  0  0  0
  140.6980   70.8000  221.5370 C   0  0  0  0  0  0  0  0  0  0  0  0
  140.3190   71.1470  222.8920 N   0  0  0  0  0  0  0  0  0  0  0  0
  138.9990   70.7040  223.2100 C   0  0  0  0  0  0  0  0  0  0  0  0
  138.9300   70.1850  224.6190 C   0  0  0  0  0  0  0  0  0  0  0  0
  139.0920   68.7150  224.7620 C   0  0  0  0  0  0  0  0  0  0  0  0
  139.8460   68.4450  226.0370 C   0  0  0  0  0  0  0  0  0  0  0  0
  140.0440   69.8170  226.6800 C   0  0  0  0  0  0  0  0  0  0  0  0
  140.0330   70.7700  225.4850 C   0  0  0  0  0  0  0  0  0  0  0  0
  140.4190   72.6040  222.8800 C   0  0  0  0  0  0  0  0  0  0  0  0
  141.1520   73.9050  220.8570 C   0  0  0  0  0  0  0  0  0  0  0  0
  142.3480   73.6750  220.2030 C   0  0  0  0  0  0  0  0  0  0  0  0
  143.1030   74.6730  219.6280 C   0  0  0  0  0  0  0  0  0  0  0  0
  142.6660   75.9660  219.6970 C   0  0  0  0  0  0  0  0  0  0  0  0
  141.4770   76.2300  220.3430 C   0  0  0  0  0  0  0  0  0  0  0  0
  140.7070   75.2250  220.9300 C   0  0  0  0  0  0  0  0  0  0  0  0
  138.3193   79.2165  222.5215 H   0  0  0  0  0  0  0  0  0  0  0  0
  141.9178   82.7332  223.4544 H   0  0  0  0  0  0  0  0  0  0  0  0
  143.9385   81.3018  223.6563 H   0  0  0  0  0  0  0  0  0  0  0  0
  143.6970   78.8452  223.3826 H   0  0  0  0  0  0  0  0  0  0  0  0
  141.8090   76.8070  222.8760 H   0  0  0  0  0  0  0  0  0  0  0  0
  138.2290   73.6972  222.3975 H   0  0  0  0  0  0  0  0  0  0  0  0
  138.2032   73.8196  220.6719 H   0  0  0  0  0  0  0  0  0  0  0  0
  138.8838   71.5604  220.5984 H   0  0  0  0  0  0  0  0  0  0  0  0
  140.3138   71.9055  219.6621 H   0  0  0  0  0  0  0  0  0  0  0  0
  140.3813   69.7764  221.2880 H   0  0  0  0  0  0  0  0  0  0  0  0
  141.7856   70.8192  221.3734 H   0  0  0  0  0  0  0  0  0  0  0  0
  138.3009   71.5473  223.1027 H   0  0  0  0  0  0  0  0  0  0  0  0
  138.7276   69.8892  222.5226 H   0  0  0  0  0  0  0  0  0  0  0  0
  137.9179   70.4827  224.9306 H   0  0  0  0  0  0  0  0  0  0  0  0
  138.1036   68.2342  224.8053 H   0  0  0  0  0  0  0  0  0  0  0  0
  139.6440   68.3088  223.9016 H   0  0  0  0  0  0  0  0  0  0  0  0
  139.2624   67.7887  226.6993 H   0  0  0  0  0  0  0  0  0  0  0  0
  140.8027   67.9352  225.8502 H   0  0  0  0  0  0  0  0  0  0  0  0
  139.2241   70.0481  227.3759 H   0  0  0  0  0  0  0  0  0  0  0  0
  140.9662   69.8842  227.2758 H   0  0  0  0  0  0  0  0  0  0  0  0
  139.7933   71.7974  225.7963 H   0  0  0  0  0  0  0  0  0  0  0  0
  141.0032   70.8471  224.9724 H   0  0  0  0  0  0  0  0  0  0  0  0
  139.6917   73.0309  223.5863 H   0  0  0  0  0  0  0  0  0  0  0  0
  141.4313   72.9130  223.1796 H   0  0  0  0  0  0  0  0  0  0  0  0
  142.7160   72.6404  220.1385 H   0  0  0  0  0  0  0  0  0  0  0  0
  144.0477   74.4319  219.1186 H   0  0  0  0  0  0  0  0  0  0  0  0
  143.2517   76.7805  219.2458 H   0  0  0  0  0  0  0  0  0  0  0  0
  141.1226   77.2699  220.3977 H   0  0  0  0  0  0  0  0  0  0  0  0
  1  2  2  0
  2  3  1  0
  3  4  2  0
  4  5  1  0
  5  6  2  0
  6  7  1  0
  6  8  1  0
  8  9  2  0
  9 10  1  0
 10 11  2  0
 11 12  1  0
  2 13  1  0
 13 14  1  0
 15 14  1  1
 15 16  1  0
 16 17  1  0
 17 18  1  0
 18 19  1  0
 19 20  1  0
 20 21  1  0
 21 22  1  0
 22 23  1  0
 23 24  1  0
 18 25  1  0
 15 26  1  0
 26 27  2  0
 27 28  1  0
 28 29  2  0
 29 30  1  0
 30 31  2  0
 12  3  1  0
 31 13  1  0
 11  5  1  0
 25 15  1  0
 31 26  1  0
 24 20  1  0
  4 32  1  0
  8 33  1  0
  9 34  1  0
 10 35  1  0
 12 36  1  0
 14 37  1  0
 14 38  1  0
 16 39  1  0
 16 40  1  0
 17 41  1  0
 17 42  1  0
 19 43  1  0
 19 44  1  0
 20 45  1  0
 21 46  1  0
 21 47  1  0
 22 48  1  0
 22 49  1  0
 23 50  1  0
 23 51  1  0
 24 52  1  0
 24 53  1  0
 25 54  1  0
 25 55  1  0
 27 56  1  0
 28 57  1  0
 29 58  1  0
 30 59  1  0
M  END
>  <smiles>  (49) 
O=C(c1cc2c(F)cccc2[nH]1)N1C[C@@]2(CCN(CC3CCCC3)C2)c2ccccc21

>  <score_type>  (49) 
oracle

>  <origin>  (49) 
autodockgpu

>  <m_score__min__energy>  (49) 
-8.6600000000000001

>  <m_primary>  (49) 
energy

>  <rmsd>  (49) 
7.591323682991553

>  <m_score__min__rmsd>  (49) 
7.591323682991553

>  <meeko>  (49) 
{"free_energy": -8.65, "intermolecular_energy": -9.84, "internal_energy": -1.24, "cluster_size": 19, "cluster_id": 1, "rank_in_cluster": 10}

>  <energy>  (49) 
-7.38

>  <cluster_rmsd>  (49) 
0.04

>  <cluster>  (49) 
5

$$$$

     RDKit          3D

 59 64  0  0  0  0  0  0  0  0999 V2000
  139.6010   69.8860  221.5630 O   0  0  0  0  0  0  0  0  0  0  0  0
  139.6190   70.9620  222.2460 C   0  0  0  0  0  0  0  0  0  0  0  0
  139.9500   70.8830  223.6790 C   0  0  0  0  0  0  0  0  0  0  0  0
  139.9600   69.7010  224.4330 C   0  0  0  0  0  0  0  0  0  0  0  0
  140.3250   70.0510  225.7150 C   0  0  0  0  0  0  0  0  0  0  0  0
  140.5130   69.3320  226.9020 C   0  0  0  0  0  0  0  0  0  0  0  0
  140.2960   67.9910  226.8270 F   0  0  0  0  0  0  0  0  0  0  0  0
  140.8910   69.9440  228.0650 C   0  0  0  0  0  0  0  0  0  0  0  0
  141.1030   71.3010  228.1090 C   0  0  0  0  0  0  0  0  0  0  0  0
  140.9210   72.0270  226.9430 C   0  0  0  0  0  0  0  0  0  0  0  0
  140.5360   71.4310  225.7500 C   0  0  0  0  0  0  0  0  0  0  0  0
  140.2970   71.8870  224.4970 N   0  0  0  0  0  0  0  0  0  0  0  0
  139.3260   72.1750  221.5970 N   0  0  0  0  0  0  0  0  0  0  0  0
  139.9980   72.8050  220.4690 C   0  0  0  0  0  0  0  0  0  0  0  0
  139.8510   74.2660  220.8610 C   0  0  2  0  0  0  0  0  0  0  0  0
  139.7790   75.1830  219.6590 C   0  0  0  0  0  0  0  0  0  0  0  0
  140.6150   76.3710  220.1180 C   0  0  0  0  0  0  0  0  0  0  0  0
  141.7310   75.7440  220.7960 N   0  0  0  0  0  0  0  0  0  0  0  0
  142.6820   75.2040  219.8770 C   0  0  0  0  0  0  0  0  0  0  0  0
  143.5260   74.1480  220.5340 C   0  0  0  0  0  0  0  0  0  0  0  0
  143.4440   72.7970  219.9200 C   0  0  0  0  0  0  0  0  0  0  0  0
  144.8030   72.1550  220.0080 C   0  0  0  0  0  0  0  0  0  0  0  0
  145.6650   73.1530  220.7790 C   0  0  0  0  0  0  0  0  0  0  0  0
  145.0050   74.4970  220.4750 C   0  0  0  0  0  0  0  0  0  0  0  0
  141.0740   74.7030  221.5800 C   0  0  0  0  0  0  0  0  0  0  0  0
  138.5830   74.3630  221.5840 C   0  0  0  0  0  0  0  0  0  0  0  0
  137.6840   75.3650  221.8970 C   0  0  0  0  0  0  0  0  0  0  0  0
  136.5050   75.1430  222.5730 C   0  0  0  0  0  0  0  0  0  0  0  0
  136.1880   73.8720  222.9650 C   0  0  0  0  0  0  0  0  0  0  0  0
  137.0640   72.8490  222.6690 C   0  0  0  0  0  0  0  0  0  0  0  0
  138.2610   73.0660  221.9850 C   0  0  0  0  0  0  0  0  0  0  0  0
  139.7224   68.6897  224.0712 H   0  0  0  0  0  0  0  0  0  0  0  0
  141.0270   69.3429  228.9761 H   0  0  0  0  0  0  0  0  0  0  0  0
  141.4082   71.7964  229.0425 H   0  0  0  0  0  0  0  0  0  0  0  0
  141.0875   73.1141  226.9634 H   0  0  0  0  0  0  0  0  0  0  0  0
  140.3830   72.8910  224.2370 H   0  0  0  0  0  0  0  0  0  0  0  0
  141.0539   72.5040  220.4021 H   0  0  0  0  0  0  0  0  0  0  0  0
  139.5896   72.5457  219.4811 H   0  0  0  0  0  0  0  0  0  0  0  0
  140.2144   74.7084  218.7673 H   0  0  0  0  0  0  0  0  0  0  0  0
  138.7532   75.4493  219.3645 H   0  0  0  0  0  0  0  0  0  0  0  0
  140.9586   76.9673  219.2599 H   0  0  0  0  0  0  0  0  0  0  0  0
  140.0577   77.0708  220.7581 H   0  0  0  0  0  0  0  0  0  0  0  0
  142.1467   74.7585  219.0256 H   0  0  0  0  0  0  0  0  0  0  0  0
  143.3402   76.0166  219.5357 H   0  0  0  0  0  0  0  0  0  0  0  0
  143.1174   74.1215  221.5549 H   0  0  0  0  0  0  0  0  0  0  0  0
  142.7079   72.1857  220.4627 H   0  0  0  0  0  0  0  0  0  0  0  0
  143.1296   72.8766  218.8689 H   0  0  0  0  0  0  0  0  0  0  0  0
  144.7439   71.1981  220.5474 H   0  0  0  0  0  0  0  0  0  0  0  0
  145.2189   71.9324  219.0143 H   0  0  0  0  0  0  0  0  0  0  0  0
  145.6452   72.9395  221.8579 H   0  0  0  0  0  0  0  0  0  0  0  0
  146.7256   73.1193  220.4892 H   0  0  0  0  0  0  0  0  0  0  0  0
  145.2676   75.2508  221.2319 H   0  0  0  0  0  0  0  0  0  0  0  0
  145.3176   74.9361  219.5161 H   0  0  0  0  0  0  0  0  0  0  0  0
  141.7551   73.8484  221.7050 H   0  0  0  0  0  0  0  0  0  0  0  0
  140.8056   75.0944  222.5724 H   0  0  0  0  0  0  0  0  0  0  0  0
  137.9228   76.3939  221.5900 H   0  0  0  0  0  0  0  0  0  0  0  0
  135.8256   75.9791  222.7952 H   0  0  0  0  0  0  0  0  0  0  0  0
  135.2520   73.6694  223.5062 H   0  0  0  0  0  0  0  0  0  0  0  0
  136.8104   71.8258  222.9831 H   0  0  0  0  0  0  0  0  0  0  0  0
  1  2  2  0
  2  3  1  0
  3  4  2  0
  4  5  1  0
  5  6  2  0
  6  7  1  0
  6  8  1  0
  8  9  2  0
  9 10  1  0
 10 11  2  0
 11 12  1  0
  2 13  1  0
 13 14  1  0
 15 14  1  6
 15 16  1  0
 16 17  1  0
 17 18  1  0
 18 19  1  0
 19 20  1  0
 20 21  1  0
 21 22  1  0
 22 23  1  0
 23 24  1  0
 18 25  1  0
 15 26  1  0
 26 27  2  0
 27 28  1  0
 28 29  2  0
 29 30  1  0
 30 31  2  0
 12  3  1  0
 31 13  1  0
 11  5  1  0
 25 15  1  0
 31 26  1  0
 24 20  1  0
  4 32  1  0
  8 33  1  0
  9 34  1  0
 10 35  1  0
 12 36  1  0
 14 37  1  0
 14 38  1  0
 16 39  1  0
 16 40  1  0
 17 41  1  0
 17 42  1  0
 19 43  1  0
 19 44  1  0
 20 45  1  0
 21 46  1  0
 21 47  1  0
 22 48  1  0
 22 49  1  0
 23 50  1  0
 23 51  1  0
 24 52  1  0
 24 53  1  0
 25 54  1  0
 25 55  1  0
 27 56  1  0
 28 57  1  0
 29 58  1  0
 30 59  1  0
M  END
>  <smiles>  (50) 
O=C(c1cc2c(F)cccc2[nH]1)N1C[C@@]2(CCN(CC3CCCC3)C2)c2ccccc21

>  <score_type>  (50) 
oracle

>  <origin>  (50) 
autodockgpu

>  <m_score__min__energy>  (50) 
-8.6600000000000001

>  <m_primary>  (50) 
energy

>  <rmsd>  (50) 
4.996926051475089

>  <m_score__min__rmsd>  (50) 
4.996926051475089

>  <meeko>  (50) 
{"free_energy": -8.01, "intermolecular_energy": -9.2, "internal_energy": -1.64, "cluster_size": 17, "cluster_id": 3, "rank_in_cluster": 8}

>  <energy>  (50) 
-7.38

>  <cluster_rmsd>  (50) 
0.06

>  <cluster>  (50) 
5

$$$$
