
 69 74  0  0  0  0  0  0  0  0999 V2000
  142.5570   79.9570  221.5810 N   0  0  0  0  0  0  0  0  0  0  0  0
  141.2480   80.2640  222.0430 C   0  0  0  0  0  0  0  0  0  0  0  0
  141.0700   80.7450  223.1980 O   0  0  0  0  0  0  0  0  0  0  0  0
  140.1150   79.9920  221.1070 C   0  0  0  0  0  0  0  0  0  0  0  0
  139.7880   78.5090  221.2250 C   0  0  0  0  0  0  0  0  0  0  0  0
  140.8260   77.7880  222.0420 C   0  0  1  0  0  0  0  0  0  0  0  0
  140.2750   76.4560  222.5450 C   0  0  0  0  0  0  0  0  0  0  0  0
  140.2100   75.6770  221.2400 C   0  0  2  0  0  0  0  0  0  0  0  0
  140.5090   74.2200  221.4690 C   0  0  0  0  0  0  0  0  0  0  0  0
  141.3530   73.5700  220.6260 N   0  0  0  0  0  0  0  0  0  0  0  0
  141.6460   72.2700  220.7940 C   0  0  0  0  0  0  0  0  0  0  0  0
  142.5340   71.6200  219.8950 N   0  0  0  0  0  0  0  0  0  0  0  0
  143.4910   72.4190  219.1560 C   0  0  0  0  0  0  0  0  0  0  0  0
  144.8570   71.9720  219.6960 C   0  0  0  0  0  0  0  0  0  0  0  0
  144.9620   70.5190  219.3830 C   0  0  0  0  0  0  0  0  0  0  0  0
  146.2190   69.9900  219.0770 C   0  0  0  0  0  0  0  0  0  0  0  0
  146.3250   68.6470  218.7870 C   0  0  0  0  0  0  0  0  0  0  0  0
  145.2150   67.8210  218.7920 C   0  0  0  0  0  0  0  0  0  0  0  0
  143.9670   68.3220  219.0910 C   0  0  0  0  0  0  0  0  0  0  0  0
  143.8740   69.6710  219.3810 C   0  0  0  0  0  0  0  0  0  0  0  0
  142.5080   70.1840  219.7000 C   0  0  0  0  0  0  0  0  0  0  0  0
  141.0670   71.6410  221.8320 N   0  0  0  0  0  0  0  0  0  0  0  0
  140.2260   72.2640  222.6800 C   0  0  0  0  0  0  0  0  0  0  0  0
  139.6370   71.5310  223.7750 N   0  0  0  0  0  0  0  0  0  0  0  0
  138.3900   70.8160  223.6100 C   0  0  0  0  0  0  0  0  0  0  0  0
  138.4280   69.3960  224.0760 C   0  0  0  0  0  0  0  0  0  0  0  0
  139.3650   69.1700  225.1810 C   0  0  0  0  0  0  0  0  0  0  0  0
  139.3830   67.9400  225.7900 C   0  0  0  0  0  0  0  0  0  0  0  0
  140.2200   67.6120  226.8370 C   0  0  0  0  0  0  0  0  0  0  0  0
  141.0780   68.6020  227.2780 C   0  0  0  0  0  0  0  0  0  0  0  0
  141.0750   69.8450  226.6800 C   0  0  0  0  0  0  0  0  0  0  0  0
  140.2210   70.1570  225.6210 C   0  0  0  0  0  0  0  0  0  0  0  0
  140.3030   71.5080  225.0630 C   0  0  0  0  0  0  0  0  0  0  0  0
  139.9370   73.5620  222.5090 N   0  0  0  0  0  0  0  0  0  0  0  0
  141.2960   76.2860  220.4180 C   0  0  0  0  0  0  0  0  0  0  0  0
  141.8830   77.3560  221.1730 N   0  0  0  0  0  0  0  0  0  0  0  0
  142.9990   79.0800  221.9240 H   0  0  0  0  0  0  0  0  0  0  0  0
  143.0940   80.5640  220.9190 H   0  0  0  0  0  0  0  0  0  0  0  0
  139.2394   80.5957  221.3878 H   0  0  0  0  0  0  0  0  0  0  0  0
  140.3872   80.2536  220.0738 H   0  0  0  0  0  0  0  0  0  0  0  0
  138.8069   78.3950  221.7093 H   0  0  0  0  0  0  0  0  0  0  0  0
  139.7740   78.0732  220.2151 H   0  0  0  0  0  0  0  0  0  0  0  0
  141.1348   78.4708  222.8473 H   0  0  0  0  0  0  0  0  0  0  0  0
  140.9546   75.9818  223.2684 H   0  0  0  0  0  0  0  0  0  0  0  0
  139.3197   76.5282  223.0856 H   0  0  0  0  0  0  0  0  0  0  0  0
  139.2169   75.7261  220.7696 H   0  0  0  0  0  0  0  0  0  0  0  0
  143.4144   72.2193  218.0770 H   0  0  0  0  0  0  0  0  0  0  0  0
  143.3226   73.4987  219.2818 H   0  0  0  0  0  0  0  0  0  0  0  0
  145.6656   72.5298  219.2011 H   0  0  0  0  0  0  0  0  0  0  0  0
  144.9468   72.1609  220.7759 H   0  0  0  0  0  0  0  0  0  0  0  0
  147.1096   70.6355  219.0678 H   0  0  0  0  0  0  0  0  0  0  0  0
  147.3113   68.2234  218.5468 H   0  0  0  0  0  0  0  0  0  0  0  0
  145.3302   66.7531  218.5548 H   0  0  0  0  0  0  0  0  0  0  0  0
  143.0783   67.6737  219.0988 H   0  0  0  0  0  0  0  0  0  0  0  0
  141.8288   69.9445  218.8685 H   0  0  0  0  0  0  0  0  0  0  0  0
  142.1581   69.7069  220.6273 H   0  0  0  0  0  0  0  0  0  0  0  0
  137.6118   71.3448  224.1799 H   0  0  0  0  0  0  0  0  0  0  0  0
  138.1842   70.7873  222.5298 H   0  0  0  0  0  0  0  0  0  0  0  0
  137.4194   69.1119  224.4106 H   0  0  0  0  0  0  0  0  0  0  0  0
  138.7726   68.7855  223.2284 H   0  0  0  0  0  0  0  0  0  0  0  0
  138.6891   67.1701  225.4216 H   0  0  0  0  0  0  0  0  0  0  0  0
  140.2051   66.6131  227.2974 H   0  0  0  0  0  0  0  0  0  0  0  0
  141.7671   68.3974  228.1106 H   0  0  0  0  0  0  0  0  0  0  0  0
  141.7680   70.6152  227.0496 H   0  0  0  0  0  0  0  0  0  0  0  0
  139.8118   72.2183  225.7443 H   0  0  0  0  0  0  0  0  0  0  0  0
  141.3579   71.7945  224.9398 H   0  0  0  0  0  0  0  0  0  0  0  0
  142.0601   75.5282  220.1900 H   0  0  0  0  0  0  0  0  0  0  0  0
  140.8870   76.6686  219.4712 H   0  0  0  0  0  0  0  0  0  0  0  0
  142.3050   78.0920  220.5930 H   0  0  0  0  0  0  0  0  0  0  0  0
  1  2  1  0
  2  3  2  0
  2  4  1  0
  4  5  1  0
  5  6  1  0
  6  7  1  0
  7  8  1  0
  8  9  1  0
  9 10  2  0
 10 11  1  0
 11 12  1  0
 12 13  1  0
 13 14  1  0
 14 15  1  0
 15 16  2  0
 16 17  1  0
 17 18  2  0
 18 19  1  0
 19 20  2  0
 20 21  1  0
 11 22  2  0
 22 23  1  0
 23 24  1  0
 24 25  1  0
 25 26  1  0
 26 27  1  0
 27 28  2  0
 28 29  1  0
 29 30  2  0
 30 31  1  0
 31 32  2  0
 32 33  1  0
 23 34  2  0
  8 35  1  0
 35 36  1  0
 36  6  1  0
 34  9  1  0
 21 12  1  0
 33 24  1  0
 20 15  1  0
 32 27  1  0
  1 37  1  0
  1 38  1  0
  4 39  1  0
  4 40  1  0
  5 41  1  0
  5 42  1  0
  6 43  1  1
  7 44  1  0
  7 45  1  0
  8 46  1  6
 13 47  1  0
 13 48  1  0
 14 49  1  0
 14 50  1  0
 16 51  1  0
 17 52  1  0
 18 53  1  0
 19 54  1  0
 21 55  1  0
 21 56  1  0
 25 57  1  0
 25 58  1  0
 26 59  1  0
 26 60  1  0
 28 61  1  0
 29 62  1  0
 30 63  1  0
 31 64  1  0
 33 65  1  0
 33 66  1  0
 35 67  1  0
 35 68  1  0
 36 69  1  0
M  END
