
 76 81  0  0  0  0  0  0  0  0999 V2000
  139.9780   71.0350  221.5270 O   0  0  0  0  0  0  0  0  0  0  0  0
  139.4220   71.3850  222.6170 C   0  0  0  0  0  0  0  0  0  0  0  0
  138.6380   72.5580  222.5750 N   0  0  0  0  0  0  0  0  0  0  0  0
  138.5390   73.2520  221.3040 C   0  0  0  0  0  0  0  0  0  0  0  0
  139.7560   74.0710  221.0350 C   0  0  0  0  0  0  0  0  0  0  0  0
  140.3610   74.5130  222.0430 O   0  0  0  0  0  0  0  0  0  0  0  0
  140.1610   74.3040  219.6960 N   0  0  0  0  0  0  0  0  0  0  0  0
  139.9680   73.3570  218.5810 C   0  0  0  0  0  0  0  0  0  0  0  0
  141.2780   73.5070  217.8570 C   0  0  0  0  0  0  0  0  0  0  0  0
  141.9710   74.7360  218.4100 C   0  0  0  0  0  0  0  0  0  0  0  0
  140.8190   75.4380  219.0900 C   0  0  2  0  0  0  0  0  0  0  0  0
  141.1980   76.5340  219.9510 C   0  0  0  0  0  0  0  0  0  0  0  0
  142.2300   77.3800  219.8780 N   0  0  0  0  0  0  0  0  0  0  0  0
  142.2000   78.2550  220.9000 C   0  0  0  0  0  0  0  0  0  0  0  0
  141.0830   77.9150  221.6340 C   0  0  0  0  0  0  0  0  0  0  0  0
  140.5670   78.5670  222.8900 C   0  0  1  0  0  0  0  0  0  0  0  0
  141.7520   78.8080  223.7470 C   0  0  0  0  0  0  0  0  0  0  0  0
  142.3080   80.1640  223.8530 C   0  0  0  0  0  0  0  0  0  0  0  0
  141.5350   81.2760  223.2550 C   0  0  0  0  0  0  0  0  0  0  0  0
  140.5680   80.9070  222.1940 C   0  0  0  0  0  0  0  0  0  0  0  0
  139.7280   79.7130  222.4980 C   0  0  2  0  0  0  0  0  0  0  0  0
  138.5270   80.0000  223.3570 C   0  0  0  0  0  0  0  0  0  0  0  0
  138.1460   81.4630  223.2320 C   0  0  0  0  0  0  0  0  0  0  0  0
  137.3340   81.8900  224.4240 C   0  0  0  0  0  0  0  0  0  0  0  0
  136.4050   80.7560  224.7750 C   0  0  0  0  0  0  0  0  0  0  0  0
  136.0890   80.0090  223.4840 C   0  0  0  0  0  0  0  0  0  0  0  0
  137.3240   79.1790  223.1090 C   0  0  0  0  0  0  0  0  0  0  0  0
  140.5140   76.8910  221.0410 O   0  0  0  0  0  0  0  0  0  0  0  0
  139.6020   70.5970  223.8330 C   0  0  0  0  0  0  0  0  0  0  0  0
  139.1570   69.2910  223.8480 C   0  0  0  0  0  0  0  0  0  0  0  0
  139.2820   68.4650  224.9470 C   0  0  0  0  0  0  0  0  0  0  0  0
  139.8860   68.9920  226.0840 C   0  0  0  0  0  0  0  0  0  0  0  0
  140.0260   68.1950  227.1990 C   0  0  0  0  0  0  0  0  0  0  0  0
  140.6290   68.7070  228.3450 C   0  0  0  0  0  0  0  0  0  0  0  0
  140.7910   67.9640  229.4700 F   0  0  0  0  0  0  0  0  0  0  0  0
  141.0600   70.0110  228.2970 C   0  0  0  0  0  0  0  0  0  0  0  0
  140.9270   70.8200  227.1870 C   0  0  0  0  0  0  0  0  0  0  0  0
  140.3330   70.3160  226.0580 C   0  0  0  0  0  0  0  0  0  0  0  0
  140.1840   71.0840  224.9450 N   0  0  0  0  0  0  0  0  0  0  0  0
  138.1500   72.9010  223.4450 H   0  0  0  0  0  0  0  0  0  0  0  0
  138.4214   72.5108  220.4997 H   0  0  0  0  0  0  0  0  0  0  0  0
  137.6703   73.9256  221.3441 H   0  0  0  0  0  0  0  0  0  0  0  0
  139.8207   72.3289  218.9434 H   0  0  0  0  0  0  0  0  0  0  0  0
  139.0798   73.5547  217.9629 H   0  0  0  0  0  0  0  0  0  0  0  0
  141.9028   72.6173  218.0244 H   0  0  0  0  0  0  0  0  0  0  0  0
  141.1107   73.6128  216.7750 H   0  0  0  0  0  0  0  0  0  0  0  0
  142.7595   74.4660  219.1279 H   0  0  0  0  0  0  0  0  0  0  0  0
  142.4875   75.3436  217.6524 H   0  0  0  0  0  0  0  0  0  0  0  0
  140.1533   76.0121  218.4287 H   0  0  0  0  0  0  0  0  0  0  0  0
  142.9131   79.0669  221.1057 H   0  0  0  0  0  0  0  0  0  0  0  0
  139.8868   77.9642  223.5096 H   0  0  0  0  0  0  0  0  0  0  0  0
  141.4788   78.4944  224.7653 H   0  0  0  0  0  0  0  0  0  0  0  0
  142.5508   78.2412  223.2463 H   0  0  0  0  0  0  0  0  0  0  0  0
  142.4281   80.3865  224.9235 H   0  0  0  0  0  0  0  0  0  0  0  0
  143.2389   80.1280  223.2681 H   0  0  0  0  0  0  0  0  0  0  0  0
  140.9740   81.7672  224.0637 H   0  0  0  0  0  0  0  0  0  0  0  0
  142.2792   81.9194  222.7629 H   0  0  0  0  0  0  0  0  0  0  0  0
  139.8977   81.7635  222.0296 H   0  0  0  0  0  0  0  0  0  0  0  0
  141.1661   80.6461  221.3085 H   0  0  0  0  0  0  0  0  0  0  0  0
  139.2359   79.3984  221.5659 H   0  0  0  0  0  0  0  0  0  0  0  0
  138.8567   79.7309  224.3713 H   0  0  0  0  0  0  0  0  0  0  0  0
  139.0595   82.0733  223.1767 H   0  0  0  0  0  0  0  0  0  0  0  0
  137.5468   81.6021  222.3200 H   0  0  0  0  0  0  0  0  0  0  0  0
  137.9994   82.1057  225.2729 H   0  0  0  0  0  0  0  0  0  0  0  0
  136.7612   82.8005  224.1941 H   0  0  0  0  0  0  0  0  0  0  0  0
  136.8926   80.0786  225.4916 H   0  0  0  0  0  0  0  0  0  0  0  0
  135.4833   81.1382  225.2380 H   0  0  0  0  0  0  0  0  0  0  0  0
  135.2248   79.3460  223.6371 H   0  0  0  0  0  0  0  0  0  0  0  0
  135.8435   80.7180  222.6797 H   0  0  0  0  0  0  0  0  0  0  0  0
  137.3615   78.2685  223.7252 H   0  0  0  0  0  0  0  0  0  0  0  0
  137.2766   78.8861  222.0498 H   0  0  0  0  0  0  0  0  0  0  0  0
  138.6803   68.8892  222.9418 H   0  0  0  0  0  0  0  0  0  0  0  0
  138.9172   67.4275  224.9245 H   0  0  0  0  0  0  0  0  0  0  0  0
  139.6624   67.1569  227.1840 H   0  0  0  0  0  0  0  0  0  0  0  0
  141.5376   70.4335  229.1933 H   0  0  0  0  0  0  0  0  0  0  0  0
  141.2931   71.8571  227.2073 H   0  0  0  0  0  0  0  0  0  0  0  0
  1  2  2  0
  2  3  1  0
  3  4  1  0
  4  5  1  0
  5  6  2  0
  5  7  1  0
  7  8  1  0
  8  9  1  0
  9 10  1  0
 10 11  1  0
 11 12  1  0
 12 13  2  0
 13 14  1  0
 14 15  2  0
 15 16  1  0
 16 17  1  0
 17 18  1  0
 18 19  1  0
 19 20  1  0
 20 21  1  0
 21 22  1  0
 22 23  1  0
 23 24  1  0
 24 25  1  0
 25 26  1  0
 26 27  1  0
 15 28  1  0
  2 29  1  0
 29 30  2  0
 30 31  1  0
 31 32  2  0
 32 33  1  0
 33 34  2  0
 34 35  1  0
 34 36  1  0
 36 37  2  0
 37 38  1  0
 38 39  2  0
 11  7  1  0
 28 12  1  0
 39 29  1  0
 21 16  1  0
 27 22  1  0
 38 32  1  0
  3 40  1  0
  4 41  1  0
  4 42  1  0
  8 43  1  0
  8 44  1  0
  9 45  1  0
  9 46  1  0
 10 47  1  0
 10 48  1  0
 11 49  1  6
 14 50  1  0
 16 51  1  1
 17 52  1  0
 17 53  1  0
 18 54  1  0
 18 55  1  0
 19 56  1  0
 19 57  1  0
 20 58  1  0
 20 59  1  0
 21 60  1  6
 22 61  1  0
 23 62  1  0
 23 63  1  0
 24 64  1  0
 24 65  1  0
 25 66  1  0
 25 67  1  0
 26 68  1  0
 26 69  1  0
 27 70  1  0
 27 71  1  0
 30 72  1  0
 31 73  1  0
 33 74  1  0
 36 75  1  0
 37 76  1  0
M  END
