
     RDKit          3D

 61 64  0  0  1  0  0  0  0  0999 V2000
  140.5530   79.5140  219.5320 C   0  0  0  0  0  0  0  0  0  0  0  0
  141.8400   79.1850  220.2350 C   0  0  2  0  0  0  0  0  0  0  0  0
  142.0610   77.7680  220.4090 N   0  0  0  0  0  0  0  0  0  0  0  0
  142.6500   76.9700  219.3850 C   0  0  0  0  0  0  0  0  0  0  0  0
  142.9720   77.5800  218.3280 O   0  0  0  0  0  0  0  0  0  0  0  0
  142.8910   75.5580  219.4940 C   0  0  2  0  0  0  0  0  0  0  0  0
  143.1770   74.7620  218.2650 C   0  0  0  0  0  0  0  0  0  0  0  0
  143.6430   73.4230  218.7150 C   0  0  0  0  0  0  0  0  0  0  0  0
  143.6520   73.1320  220.1670 C   0  0  0  0  0  0  0  0  0  0  0  0
  142.4360   73.6380  220.9400 C   0  0  0  0  0  0  0  0  0  0  0  0
  141.8520   74.7640  220.1850 N   0  0  0  0  0  0  0  0  0  0  0  0
  140.4950   75.0650  220.1000 C   0  0  0  0  0  0  0  0  0  0  0  0
  140.1670   75.7830  219.0510 O   0  0  0  0  0  0  0  0  0  0  0  0
  139.3770   74.7330  220.9520 C   0  0  0  0  0  0  0  0  0  0  0  0
  139.5240   73.8010  222.0100 N   0  0  0  0  0  0  0  0  0  0  0  0
  139.6400   72.3720  221.8150 C   0  0  0  0  0  0  0  0  0  0  0  0
  139.6150   71.9060  220.6280 O   0  0  0  0  0  0  0  0  0  0  0  0
  139.7840   71.4840  222.9730 C   0  0  0  0  0  0  0  0  0  0  0  0
  139.3540   70.1810  222.8460 C   0  0  0  0  0  0  0  0  0  0  0  0
  139.4530   69.2800  223.8890 C   0  0  0  0  0  0  0  0  0  0  0  0
  140.0050   69.7210  225.0920 C   0  0  0  0  0  0  0  0  0  0  0  0
  140.1230   68.8480  226.1670 C   0  0  0  0  0  0  0  0  0  0  0  0
  140.6750   69.3230  227.3380 C   0  0  0  0  0  0  0  0  0  0  0  0
  140.8410   68.2510  228.7180 Cl  0  0  0  0  0  0  0  0  0  0  0  0
  141.0920   70.6390  227.4200 C   0  0  0  0  0  0  0  0  0  0  0  0
  140.9850   71.5250  226.3660 C   0  0  0  0  0  0  0  0  0  0  0  0
  140.4330   71.0420  225.2020 C   0  0  0  0  0  0  0  0  0  0  0  0
  140.3100   71.8830  224.1390 N   0  0  0  0  0  0  0  0  0  0  0  0
  141.9360   79.8260  221.5580 C   0  0  0  0  0  0  0  0  0  0  0  0
  141.7620   81.1850  221.7220 C   0  0  0  0  0  0  0  0  0  0  0  0
  141.8500   81.8050  222.9630 C   0  0  0  0  0  0  0  0  0  0  0  0
  142.1190   81.0410  224.0750 C   0  0  0  0  0  0  0  0  0  0  0  0
  142.2970   79.6860  223.9470 C   0  0  0  0  0  0  0  0  0  0  0  0
  142.2060   79.0890  222.7020 C   0  0  0  0  0  0  0  0  0  0  0  0
  139.7690   79.7144  220.2771 H   0  0  0  0  0  0  0  0  0  0  0  0
  140.6964   80.4044  218.9022 H   0  0  0  0  0  0  0  0  0  0  0  0
  140.2516   78.6640  218.9022 H   0  0  0  0  0  0  0  0  0  0  0  0
  142.6165   79.5827  219.5650 H   0  0  0  0  0  0  0  0  0  0  0  0
  141.7740   77.3700  221.3450 H   0  0  0  0  0  0  0  0  0  0  0  0
  143.8132   75.6769  220.0817 H   0  0  0  0  0  0  0  0  0  0  0  0
  142.2645   74.6608  217.6592 H   0  0  0  0  0  0  0  0  0  0  0  0
  143.9396   75.2560  217.6450 H   0  0  0  0  0  0  0  0  0  0  0  0
  142.9931   72.6750  218.2374 H   0  0  0  0  0  0  0  0  0  0  0  0
  144.7042   73.3950  218.4269 H   0  0  0  0  0  0  0  0  0  0  0  0
  143.7064   72.0408  220.2949 H   0  0  0  0  0  0  0  0  0  0  0  0
  144.5199   73.6671  220.5798 H   0  0  0  0  0  0  0  0  0  0  0  0
  141.6950   72.8312  221.0399 H   0  0  0  0  0  0  0  0  0  0  0  0
  142.7327   73.9661  221.9471 H   0  0  0  0  0  0  0  0  0  0  0  0
  139.0392   75.6752  221.4082 H   0  0  0  0  0  0  0  0  0  0  0  0
  138.6904   74.2169  220.2648 H   0  0  0  0  0  0  0  0  0  0  0  0
  139.5580   74.1030  223.0290 H   0  0  0  0  0  0  0  0  0  0  0  0
  138.9212   69.8498  221.8905 H   0  0  0  0  0  0  0  0  0  0  0  0
  139.1058   68.2426  223.7738 H   0  0  0  0  0  0  0  0  0  0  0  0
  139.7846   67.8045  226.0858 H   0  0  0  0  0  0  0  0  0  0  0  0
  141.5275   70.9953  228.3652 H   0  0  0  0  0  0  0  0  0  0  0  0
  141.3250   72.5675  226.4530 H   0  0  0  0  0  0  0  0  0  0  0  0
  141.5454   81.8012  220.8369 H   0  0  0  0  0  0  0  0  0  0  0  0
  141.7065   82.8917  223.0547 H   0  0  0  0  0  0  0  0  0  0  0  0
  142.1913   81.5151  225.0649 H   0  0  0  0  0  0  0  0  0  0  0  0
  142.5123   79.0739  224.8353 H   0  0  0  0  0  0  0  0  0  0  0  0
  142.3515   78.0020  222.6171 H   0  0  0  0  0  0  0  0  0  0  0  0
  1  2  1  0
  2  3  1  0
  3  4  1  0
  4  5  2  0
  4  6  1  0
  6  7  1  0
  7  8  1  0
  8  9  1  0
  9 10  1  0
 10 11  1  0
 11 12  1  0
 12 13  2  0
 12 14  1  0
 14 15  1  0
 15 16  1  0
 16 17  2  0
 16 18  1  0
 18 19  2  0
 19 20  1  0
 20 21  2  0
 21 22  1  0
 22 23  2  0
 23 24  1  0
 23 25  1  0
 25 26  2  0
 26 27  1  0
 27 28  2  0
  2 29  1  0
 29 30  2  0
 30 31  1  0
 31 32  2  0
 32 33  1  0
 33 34  2  0
 11  6  1  0
 28 18  1  0
 34 29  1  0
 27 21  1  0
  1 35  1  0
  1 36  1  0
  1 37  1  0
  2 38  1  6
  3 39  1  0
  6 40  1  1
  7 41  1  0
  7 42  1  0
  8 43  1  0
  8 44  1  0
  9 45  1  0
  9 46  1  0
 10 47  1  0
 10 48  1  0
 14 49  1  0
 14 50  1  0
 15 51  1  0
 19 52  1  0
 20 53  1  0
 22 54  1  0
 25 55  1  0
 26 56  1  0
 30 57  1  0
 31 58  1  0
 32 59  1  0
 33 60  1  0
 34 61  1  0
M  END
>  <smiles>  (1) 
C[C@H](NC(=O)C1CCCCN1C(=O)CNC(=O)c1ccc2cc(Cl)ccc2n1)c1ccccc1

>  <score_type>  (1) 
oracle

>  <origin>  (1) 
autodockgpu

>  <m_score__min__energy>  (1) 
-9.5299999999999994

>  <m_primary>  (1) 
energy

>  <rmsd>  (1) 
3.0772651086662166

>  <m_score__min__rmsd>  (1) 
3.0772651086662166

>  <meeko>  (1) 
{"free_energy": -9.21, "intermolecular_energy": -11.3, "internal_energy": -2.11, "cluster_size": 13, "cluster_id": 1, "rank_in_cluster": 6}

>  <energy>  (1) 
-9.53

>  <cluster_rmsd>  (1) 
0.0

>  <cluster>  (1) 
1

$$$$

     RDKit          3D

 61 64  0  0  1  0  0  0  0  0999 V2000
  141.8420   80.1670  222.0970 C   0  0  0  0  0  0  0  0  0  0  0  0
  141.7270   78.6720  222.1920 C   0  0  2  0  0  0  0  0  0  0  0  0
  142.1930   77.9780  221.0120 N   0  0  0  0  0  0  0  0  0  0  0  0
  141.6110   78.2050  219.7300 C   0  0  0  0  0  0  0  0  0  0  0  0
  140.6760   79.0530  219.6920 O   0  0  0  0  0  0  0  0  0  0  0  0
  142.0240   77.5450  218.5240 C   0  0  2  0  0  0  0  0  0  0  0  0
  141.0370   77.3330  217.4260 C   0  0  0  0  0  0  0  0  0  0  0  0
  141.8060   76.8850  216.2330 C   0  0  0  0  0  0  0  0  0  0  0  0
  143.2650   76.6720  216.3750 C   0  0  0  0  0  0  0  0  0  0  0  0
  143.6990   75.9810  217.6660 C   0  0  0  0  0  0  0  0  0  0  0  0
  142.6550   76.2160  218.6820 N   0  0  0  0  0  0  0  0  0  0  0  0
  142.2730   75.3170  219.6750 C   0  0  0  0  0  0  0  0  0  0  0  0
  143.1300   75.2110  220.6640 O   0  0  0  0  0  0  0  0  0  0  0  0
  141.1060   74.4790  219.8220 C   0  0  0  0  0  0  0  0  0  0  0  0
  140.9460   73.6550  220.9640 N   0  0  0  0  0  0  0  0  0  0  0  0
  139.7430   72.9050  221.2560 C   0  0  0  0  0  0  0  0  0  0  0  0
  138.7610   72.9750  220.4460 O   0  0  0  0  0  0  0  0  0  0  0  0
  139.6690   72.0820  222.4670 C   0  0  0  0  0  0  0  0  0  0  0  0
  138.7670   71.0410  222.4870 C   0  0  0  0  0  0  0  0  0  0  0  0
  138.6340   70.2170  223.5890 C   0  0  0  0  0  0  0  0  0  0  0  0
  139.4420   70.4640  224.6980 C   0  0  0  0  0  0  0  0  0  0  0  0
  139.3410   69.6610  225.8290 C   0  0  0  0  0  0  0  0  0  0  0  0
  140.1580   69.9380  226.9030 C   0  0  0  0  0  0  0  0  0  0  0  0
  140.0610   68.9470  228.3480 Cl  0  0  0  0  0  0  0  0  0  0  0  0
  141.0490   70.9940  226.8390 C   0  0  0  0  0  0  0  0  0  0  0  0
  141.1670   71.8070  225.7280 C   0  0  0  0  0  0  0  0  0  0  0  0
  140.3480   71.5220  224.6610 C   0  0  0  0  0  0  0  0  0  0  0  0
  140.4340   72.2990  223.5460 N   0  0  0  0  0  0  0  0  0  0  0  0
  140.3480   78.2310  222.4640 C   0  0  0  0  0  0  0  0  0  0  0  0
  139.3590   79.1210  222.8300 C   0  0  0  0  0  0  0  0  0  0  0  0
  138.0540   78.7210  223.0910 C   0  0  0  0  0  0  0  0  0  0  0  0
  137.7270   77.3890  222.9810 C   0  0  0  0  0  0  0  0  0  0  0  0
  138.6880   76.4780  222.6190 C   0  0  0  0  0  0  0  0  0  0  0  0
  139.9810   76.8970  222.3640 C   0  0  0  0  0  0  0  0  0  0  0  0
  141.8751   80.5972  223.1088 H   0  0  0  0  0  0  0  0  0  0  0  0
  142.7630   80.4303  221.5563 H   0  0  0  0  0  0  0  0  0  0  0  0
  140.9720   80.5680  221.5563 H   0  0  0  0  0  0  0  0  0  0  0  0
  142.3806   78.4095  223.0369 H   0  0  0  0  0  0  0  0  0  0  0  0
  142.9970   77.3100  221.1610 H   0  0  0  0  0  0  0  0  0  0  0  0
  142.7348   78.3341  218.2375 H   0  0  0  0  0  0  0  0  0  0  0  0
  140.3075   76.5628  217.7168 H   0  0  0  0  0  0  0  0  0  0  0  0
  140.4821   78.2583  217.2117 H   0  0  0  0  0  0  0  0  0  0  0  0
  141.3686   75.9310  215.9034 H   0  0  0  0  0  0  0  0  0  0  0  0
  141.7226   77.7241  215.5266 H   0  0  0  0  0  0  0  0  0  0  0  0
  143.6028   76.0555  215.5290 H   0  0  0  0  0  0  0  0  0  0  0  0
  143.7188   77.6738  216.3977 H   0  0  0  0  0  0  0  0  0  0  0  0
  143.8134   74.9010  217.4911 H   0  0  0  0  0  0  0  0  0  0  0  0
  144.6636   76.3832  218.0091 H   0  0  0  0  0  0  0  0  0  0  0  0
  140.2332   75.1478  219.7924 H   0  0  0  0  0  0  0  0  0  0  0  0
  141.2242   73.7490  219.0076 H   0  0  0  0  0  0  0  0  0  0  0  0
  141.7170   73.5360  221.6890 H   0  0  0  0  0  0  0  0  0  0  0  0
  138.1366   70.8609  221.6037 H   0  0  0  0  0  0  0  0  0  0  0  0
  137.9101   69.3887  223.5908 H   0  0  0  0  0  0  0  0  0  0  0  0
  138.6265   68.8254  225.8651 H   0  0  0  0  0  0  0  0  0  0  0  0
  141.6908   71.1951  227.7094 H   0  0  0  0  0  0  0  0  0  0  0  0
  141.8821   72.6424  225.6986 H   0  0  0  0  0  0  0  0  0  0  0  0
  139.6132   80.1875  222.9185 H   0  0  0  0  0  0  0  0  0  0  0  0
  137.2924   79.4596  223.3817 H   0  0  0  0  0  0  0  0  0  0  0  0
  136.6985   77.0551  223.1826 H   0  0  0  0  0  0  0  0  0  0  0  0
  138.4290   75.4125  222.5316 H   0  0  0  0  0  0  0  0  0  0  0  0
  140.7380   76.1533  222.0744 H   0  0  0  0  0  0  0  0  0  0  0  0
  1  2  1  0
  2  3  1  0
  3  4  1  0
  4  5  2  0
  4  6  1  0
  6  7  1  0
  7  8  1  0
  8  9  1  0
  9 10  1  0
 10 11  1  0
 11 12  1  0
 12 13  2  0
 12 14  1  0
 14 15  1  0
 15 16  1  0
 16 17  2  0
 16 18  1  0
 18 19  2  0
 19 20  1  0
 20 21  2  0
 21 22  1  0
 22 23  2  0
 23 24  1  0
 23 25  1  0
 25 26  2  0
 26 27  1  0
 27 28  2  0
  2 29  1  0
 29 30  2  0
 30 31  1  0
 31 32  2  0
 32 33  1  0
 33 34  2  0
 11  6  1  0
 28 18  1  0
 34 29  1  0
 27 21  1  0
  1 35  1  0
  1 36  1  0
  1 37  1  0
  2 38  1  1
  3 39  1  0
  6 40  1  6
  7 41  1  0
  7 42  1  0
  8 43  1  0
  8 44  1  0
  9 45  1  0
  9 46  1  0
 10 47  1  0
 10 48  1  0
 14 49  1  0
 14 50  1  0
 15 51  1  0
 19 52  1  0
 20 53  1  0
 22 54  1  0
 25 55  1  0
 26 56  1  0
 30 57  1  0
 31 58  1  0
 32 59  1  0
 33 60  1  0
 34 61  1  0
M  END
>  <smiles>  (2) 
C[C@H](NC(=O)C1CCCCN1C(=O)CNC(=O)c1ccc2cc(Cl)ccc2n1)c1ccccc1

>  <score_type>  (2) 
oracle

>  <origin>  (2) 
autodockgpu

>  <m_score__min__energy>  (2) 
-9.5299999999999994

>  <m_primary>  (2) 
energy

>  <rmsd>  (2) 
3.055290359368602

>  <m_score__min__rmsd>  (2) 
3.055290359368602

>  <meeko>  (2) 
{"free_energy": -7.58, "intermolecular_energy": -9.66, "internal_energy": -3.48, "cluster_size": 13, "cluster_id": 1, "rank_in_cluster": 13}

>  <energy>  (2) 
-9.48

>  <cluster_rmsd>  (2) 
0.58

>  <cluster>  (2) 
1

$$$$

     RDKit          3D

 61 64  0  0  1  0  0  0  0  0999 V2000
  137.0540   69.6710  224.5740 C   0  0  0  0  0  0  0  0  0  0  0  0
  138.4550   70.2100  224.6140 C   0  0  2  0  0  0  0  0  0  0  0  0
  139.1290   70.1740  223.3350 N   0  0  0  0  0  0  0  0  0  0  0  0
  140.1160   71.1380  222.9800 C   0  0  0  0  0  0  0  0  0  0  0  0
  140.3690   72.0150  223.8530 O   0  0  0  0  0  0  0  0  0  0  0  0
  140.8160   71.1600  221.7260 C   0  0  2  0  0  0  0  0  0  0  0  0
  141.3120   72.4560  221.1810 C   0  0  0  0  0  0  0  0  0  0  0  0
  142.2110   72.1310  220.0400 C   0  0  0  0  0  0  0  0  0  0  0  0
  142.3600   70.7120  219.6450 C   0  0  0  0  0  0  0  0  0  0  0  0
  141.0700   69.8960  219.6460 C   0  0  0  0  0  0  0  0  0  0  0  0
  140.1220   70.5440  220.5730 N   0  0  0  0  0  0  0  0  0  0  0  0
  138.7400   70.6010  220.4110 C   0  0  0  0  0  0  0  0  0  0  0  0
  138.1220   69.4690  220.6500 O   0  0  0  0  0  0  0  0  0  0  0  0
  137.8570   71.6780  220.0300 C   0  0  0  0  0  0  0  0  0  0  0  0
  138.1260   73.0120  220.4300 N   0  0  0  0  0  0  0  0  0  0  0  0
  137.9610   73.4970  221.7830 C   0  0  0  0  0  0  0  0  0  0  0  0
  137.5540   72.6910  222.6830 O   0  0  0  0  0  0  0  0  0  0  0  0
  138.2600   74.8970  222.1000 C   0  0  0  0  0  0  0  0  0  0  0  0
  137.2010   75.7520  222.3150 C   0  0  0  0  0  0  0  0  0  0  0  0
  137.3960   77.0860  222.6190 C   0  0  0  0  0  0  0  0  0  0  0  0
  138.7050   77.5580  222.7060 C   0  0  0  0  0  0  0  0  0  0  0  0
  138.9470   78.8940  223.0090 C   0  0  0  0  0  0  0  0  0  0  0  0
  140.2550   79.3210  223.0850 C   0  0  0  0  0  0  0  0  0  0  0  0
  140.6020   80.9980  223.4660 Cl  0  0  0  0  0  0  0  0  0  0  0  0
  141.2870   78.4270  222.8620 C   0  0  0  0  0  0  0  0  0  0  0  0
  141.0720   77.0960  222.5590 C   0  0  0  0  0  0  0  0  0  0  0  0
  139.7630   76.6800  222.4850 C   0  0  0  0  0  0  0  0  0  0  0  0
  139.5090   75.3760  222.1890 N   0  0  0  0  0  0  0  0  0  0  0  0
  139.3010   69.5050  225.5930 C   0  0  0  0  0  0  0  0  0  0  0  0
  139.9760   70.1810  226.5900 C   0  0  0  0  0  0  0  0  0  0  0  0
  140.7770   69.5300  227.5200 C   0  0  0  0  0  0  0  0  0  0  0  0
  140.9080   68.1620  227.4530 C   0  0  0  0  0  0  0  0  0  0  0  0
  140.2500   67.4610  226.4730 C   0  0  0  0  0  0  0  0  0  0  0  0
  139.4570   68.1270  225.5570 C   0  0  0  0  0  0  0  0  0  0  0  0
  136.6861   69.5295  225.6010 H   0  0  0  0  0  0  0  0  0  0  0  0
  136.4023   70.3826  224.0459 H   0  0  0  0  0  0  0  0  0  0  0  0
  137.0473   68.7061  224.0459 H   0  0  0  0  0  0  0  0  0  0  0  0
  138.3244   71.2601  224.9143 H   0  0  0  0  0  0  0  0  0  0  0  0
  138.8530   69.3790  222.6950 H   0  0  0  0  0  0  0  0  0  0  0  0
  141.6640   70.5646  222.0953 H   0  0  0  0  0  0  0  0  0  0  0  0
  140.4667   73.0684  220.8338 H   0  0  0  0  0  0  0  0  0  0  0  0
  141.8476   73.0280  221.9530 H   0  0  0  0  0  0  0  0  0  0  0  0
  141.8326   72.6752  219.1622 H   0  0  0  0  0  0  0  0  0  0  0  0
  143.2119   72.4209  220.3924 H   0  0  0  0  0  0  0  0  0  0  0  0
  142.7789   70.6844  218.6282 H   0  0  0  0  0  0  0  0  0  0  0  0
  143.0116   70.2521  220.4026 H   0  0  0  0  0  0  0  0  0  0  0  0
  140.6432   69.8710  218.6325 H   0  0  0  0  0  0  0  0  0  0  0  0
  141.2713   68.8628  219.9653 H   0  0  0  0  0  0  0  0  0  0  0  0
  137.8215   71.6809  218.9306 H   0  0  0  0  0  0  0  0  0  0  0  0
  136.9319   71.4407  220.5757 H   0  0  0  0  0  0  0  0  0  0  0  0
  138.4730   73.7480  219.7440 H   0  0  0  0  0  0  0  0  0  0  0  0
  136.1746   75.3630  222.2429 H   0  0  0  0  0  0  0  0  0  0  0  0
  136.5412   77.7575  222.7878 H   0  0  0  0  0  0  0  0  0  0  0  0
  138.1150   79.5921  223.1836 H   0  0  0  0  0  0  0  0  0  0  0  0
  142.3228   78.7912  222.9287 H   0  0  0  0  0  0  0  0  0  0  0  0
  141.9078   76.4023  222.3853 H   0  0  0  0  0  0  0  0  0  0  0  0
  139.8759   71.2748  226.6501 H   0  0  0  0  0  0  0  0  0  0  0  0
  141.3003   70.1016  228.3007 H   0  0  0  0  0  0  0  0  0  0  0  0
  141.5380   67.6317  228.1823 H   0  0  0  0  0  0  0  0  0  0  0  0
  140.3539   66.3674  226.4165 H   0  0  0  0  0  0  0  0  0  0  0  0
  138.9361   67.5491  224.7793 H   0  0  0  0  0  0  0  0  0  0  0  0
  1  2  1  0
  2  3  1  0
  3  4  1  0
  4  5  2  0
  4  6  1  0
  6  7  1  0
  7  8  1  0
  8  9  1  0
  9 10  1  0
 10 11  1  0
 11 12  1  0
 12 13  2  0
 12 14  1  0
 14 15  1  0
 15 16  1  0
 16 17  2  0
 16 18  1  0
 18 19  2  0
 19 20  1  0
 20 21  2  0
 21 22  1  0
 22 23  2  0
 23 24  1  0
 23 25  1  0
 25 26  2  0
 26 27  1  0
 27 28  2  0
  2 29  1  0
 29 30  2  0
 30 31  1  0
 31 32  2  0
 32 33  1  0
 33 34  2  0
 11  6  1  0
 28 18  1  0
 34 29  1  0
 27 21  1  0
  1 35  1  0
  1 36  1  0
  1 37  1  0
  2 38  1  1
  3 39  1  0
  6 40  1  1
  7 41  1  0
  7 42  1  0
  8 43  1  0
  8 44  1  0
  9 45  1  0
  9 46  1  0
 10 47  1  0
 10 48  1  0
 14 49  1  0
 14 50  1  0
 15 51  1  0
 19 52  1  0
 20 53  1  0
 22 54  1  0
 25 55  1  0
 26 56  1  0
 30 57  1  0
 31 58  1  0
 32 59  1  0
 33 60  1  0
 34 61  1  0
M  END
>  <smiles>  (3) 
C[C@H](NC(=O)C1CCCCN1C(=O)CNC(=O)c1ccc2cc(Cl)ccc2n1)c1ccccc1

>  <score_type>  (3) 
oracle

>  <origin>  (3) 
autodockgpu

>  <m_score__min__energy>  (3) 
-9.5299999999999994

>  <m_primary>  (3) 
energy

>  <rmsd>  (3) 
9.094839517655307

>  <m_score__min__rmsd>  (3) 
9.094839517655307

>  <meeko>  (3) 
{"free_energy": -7.18, "intermolecular_energy": -9.27, "internal_energy": -3.36, "cluster_size": 1, "cluster_id": 11, "rank_in_cluster": 1}

>  <energy>  (3) 
-9.45

>  <cluster_rmsd>  (3) 
1.8

>  <cluster>  (3) 
1

$$$$

     RDKit          3D

 61 64  0  0  1  0  0  0  0  0999 V2000
  137.7250   80.5510  224.1710 C   0  0  0  0  0  0  0  0  0  0  0  0
  138.4240   79.7910  223.0800 C   0  0  2  0  0  0  0  0  0  0  0  0
  138.0550   78.3950  223.0170 N   0  0  0  0  0  0  0  0  0  0  0  0
  136.8430   77.9680  222.3990 C   0  0  0  0  0  0  0  0  0  0  0  0
  136.1240   78.8810  221.9070 O   0  0  0  0  0  0  0  0  0  0  0  0
  136.4180   76.5990  222.3080 C   0  0  2  0  0  0  0  0  0  0  0  0
  136.5550   75.7040  223.4940 C   0  0  0  0  0  0  0  0  0  0  0  0
  135.7970   74.4610  223.1880 C   0  0  0  0  0  0  0  0  0  0  0  0
  135.1780   74.3250  221.8490 C   0  0  0  0  0  0  0  0  0  0  0  0
  136.0350   74.8100  220.6830 C   0  0  0  0  0  0  0  0  0  0  0  0
  136.9970   75.8010  221.2050 N   0  0  0  0  0  0  0  0  0  0  0  0
  138.3000   75.9830  220.7500 C   0  0  0  0  0  0  0  0  0  0  0  0
  138.4410   76.9690  219.8950 O   0  0  0  0  0  0  0  0  0  0  0  0
  139.5320   75.2890  221.0470 C   0  0  0  0  0  0  0  0  0  0  0  0
  139.5890   74.3260  222.0850 N   0  0  0  0  0  0  0  0  0  0  0  0
  139.6840   72.9000  221.8580 C   0  0  0  0  0  0  0  0  0  0  0  0
  139.7240   72.4670  220.6600 O   0  0  0  0  0  0  0  0  0  0  0  0
  139.7310   71.9790  222.9990 C   0  0  0  0  0  0  0  0  0  0  0  0
  139.0940   70.7640  222.8750 C   0  0  0  0  0  0  0  0  0  0  0  0
  139.0910   69.8380  223.9010 C   0  0  0  0  0  0  0  0  0  0  0  0
  139.7550   70.1630  225.0840 C   0  0  0  0  0  0  0  0  0  0  0  0
  139.7770   69.2610  226.1420 C   0  0  0  0  0  0  0  0  0  0  0  0
  140.4450   69.6200  227.2930 C   0  0  0  0  0  0  0  0  0  0  0  0
  140.4960   68.5100  228.6510 Cl  0  0  0  0  0  0  0  0  0  0  0  0
  141.0710   70.8510  227.3730 C   0  0  0  0  0  0  0  0  0  0  0  0
  141.0630   71.7640  226.3360 C   0  0  0  0  0  0  0  0  0  0  0  0
  140.3930   71.3960  225.1910 C   0  0  0  0  0  0  0  0  0  0  0  0
  140.3620   72.2670  224.1460 N   0  0  0  0  0  0  0  0  0  0  0  0
  139.8910   79.8690  223.1930 C   0  0  0  0  0  0  0  0  0  0  0  0
  140.6720   78.7360  223.3100 C   0  0  0  0  0  0  0  0  0  0  0  0
  142.0560   78.7920  223.4180 C   0  0  0  0  0  0  0  0  0  0  0  0
  142.6800   80.0180  223.4090 C   0  0  0  0  0  0  0  0  0  0  0  0
  141.9320   81.1640  223.2940 C   0  0  0  0  0  0  0  0  0  0  0  0
  140.5560   81.0870  223.1880 C   0  0  0  0  0  0  0  0  0  0  0  0
  138.0643   80.1821  225.1502 H   0  0  0  0  0  0  0  0  0  0  0  0
  137.9605   81.6217  224.0809 H   0  0  0  0  0  0  0  0  0  0  0  0
  136.6384   80.4057  224.0809 H   0  0  0  0  0  0  0  0  0  0  0  0
  138.0895   80.2860  222.1564 H   0  0  0  0  0  0  0  0  0  0  0  0
  138.7470   77.7180  223.4400 H   0  0  0  0  0  0  0  0  0  0  0  0
  135.3585   76.8521  222.1548 H   0  0  0  0  0  0  0  0  0  0  0  0
  137.6149   75.4673  223.6687 H   0  0  0  0  0  0  0  0  0  0  0  0
  136.1648   76.1897  224.4006 H   0  0  0  0  0  0  0  0  0  0  0  0
  136.4919   73.6174  223.3123 H   0  0  0  0  0  0  0  0  0  0  0  0
  134.9421   74.4884  223.8796 H   0  0  0  0  0  0  0  0  0  0  0  0
  134.9520   73.2610  221.6854 H   0  0  0  0  0  0  0  0  0  0  0  0
  134.2856   74.9681  221.8592 H   0  0  0  0  0  0  0  0  0  0  0  0
  136.5767   73.9615  220.2396 H   0  0  0  0  0  0  0  0  0  0  0  0
  135.4020   75.2642  219.9065 H   0  0  0  0  0  0  0  0  0  0  0  0
  139.8322   74.7729  220.1231 H   0  0  0  0  0  0  0  0  0  0  0  0
  140.1812   76.0932  221.4235 H   0  0  0  0  0  0  0  0  0  0  0  0
  139.5640   74.6000  223.1130 H   0  0  0  0  0  0  0  0  0  0  0  0
  138.5744   70.5246  221.9354 H   0  0  0  0  0  0  0  0  0  0  0  0
  138.5790   68.8710  223.7878 H   0  0  0  0  0  0  0  0  0  0  0  0
  139.2742   68.2859  226.0625 H   0  0  0  0  0  0  0  0  0  0  0  0
  141.5978   71.1143  228.3021 H   0  0  0  0  0  0  0  0  0  0  0  0
  141.5675   72.7378  226.4211 H   0  0  0  0  0  0  0  0  0  0  0  0
  140.1798   77.7523  223.3180 H   0  0  0  0  0  0  0  0  0  0  0  0
  142.6454   77.8677  223.5095 H   0  0  0  0  0  0  0  0  0  0  0  0
  143.7750   80.0802  223.4937 H   0  0  0  0  0  0  0  0  0  0  0  0
  142.4290   82.1453  223.2862 H   0  0  0  0  0  0  0  0  0  0  0  0
  139.9729   82.0153  223.0973 H   0  0  0  0  0  0  0  0  0  0  0  0
  1  2  1  0
  2  3  1  0
  3  4  1  0
  4  5  2  0
  4  6  1  0
  6  7  1  0
  7  8  1  0
  8  9  1  0
  9 10  1  0
 10 11  1  0
 11 12  1  0
 12 13  2  0
 12 14  1  0
 14 15  1  0
 15 16  1  0
 16 17  2  0
 16 18  1  0
 18 19  2  0
 19 20  1  0
 20 21  2  0
 21 22  1  0
 22 23  2  0
 23 24  1  0
 23 25  1  0
 25 26  2  0
 26 27  1  0
 27 28  2  0
  2 29  1  0
 29 30  2  0
 30 31  1  0
 31 32  2  0
 32 33  1  0
 33 34  2  0
 11  6  1  0
 28 18  1  0
 34 29  1  0
 27 21  1  0
  1 35  1  0
  1 36  1  0
  1 37  1  0
  2 38  1  6
  3 39  1  0
  6 40  1  6
  7 41  1  0
  7 42  1  0
  8 43  1  0
  8 44  1  0
  9 45  1  0
  9 46  1  0
 10 47  1  0
 10 48  1  0
 14 49  1  0
 14 50  1  0
 15 51  1  0
 19 52  1  0
 20 53  1  0
 22 54  1  0
 25 55  1  0
 26 56  1  0
 30 57  1  0
 31 58  1  0
 32 59  1  0
 33 60  1  0
 34 61  1  0
M  END
>  <smiles>  (4) 
C[C@H](NC(=O)C1CCCCN1C(=O)CNC(=O)c1ccc2cc(Cl)ccc2n1)c1ccccc1

>  <score_type>  (4) 
oracle

>  <origin>  (4) 
autodockgpu

>  <m_score__min__energy>  (4) 
-9.5299999999999994

>  <m_primary>  (4) 
energy

>  <rmsd>  (4) 
4.045050839110177

>  <m_score__min__rmsd>  (4) 
4.045050839110177

>  <meeko>  (4) 
{"free_energy": -8.53, "intermolecular_energy": -10.62, "internal_energy": -2.33, "cluster_size": 5, "cluster_id": 4, "rank_in_cluster": 3}

>  <energy>  (4) 
-9.34

>  <cluster_rmsd>  (4) 
1.16

>  <cluster>  (4) 
1

$$$$

     RDKit          3D

 61 64  0  0  1  0  0  0  0  0999 V2000
  137.3910   80.2650  223.9490 C   0  0  0  0  0  0  0  0  0  0  0  0
  138.1500   79.5110  222.8950 C   0  0  2  0  0  0  0  0  0  0  0  0
  137.8070   78.1080  222.8240 N   0  0  0  0  0  0  0  0  0  0  0  0
  136.4520   77.6680  222.7970 C   0  0  0  0  0  0  0  0  0  0  0  0
  135.5760   78.5780  222.8300 O   0  0  0  0  0  0  0  0  0  0  0  0
  136.0460   76.2920  222.7330 C   0  0  2  0  0  0  0  0  0  0  0  0
  136.2090   75.4190  223.9310 C   0  0  0  0  0  0  0  0  0  0  0  0
  135.4670   74.1590  223.6530 C   0  0  0  0  0  0  0  0  0  0  0  0
  134.8370   73.9920  222.3240 C   0  0  0  0  0  0  0  0  0  0  0  0
  135.6760   74.4710  221.1410 C   0  0  0  0  0  0  0  0  0  0  0  0
  136.6270   75.4850  221.6370 N   0  0  0  0  0  0  0  0  0  0  0  0
  137.9230   75.6790  221.1670 C   0  0  0  0  0  0  0  0  0  0  0  0
  138.1410   76.8720  220.6640 O   0  0  0  0  0  0  0  0  0  0  0  0
  139.0770   74.8110  221.1300 C   0  0  0  0  0  0  0  0  0  0  0  0
  139.2980   73.8570  222.1550 N   0  0  0  0  0  0  0  0  0  0  0  0
  139.1670   72.4280  221.9690 C   0  0  0  0  0  0  0  0  0  0  0  0
  138.8370   71.9830  220.8200 O   0  0  0  0  0  0  0  0  0  0  0  0
  139.4110   71.5170  223.0920 C   0  0  0  0  0  0  0  0  0  0  0  0
  138.9850   70.2130  222.9710 C   0  0  0  0  0  0  0  0  0  0  0  0
  139.1760   69.2900  223.9820 C   0  0  0  0  0  0  0  0  0  0  0  0
  139.8180   69.7120  225.1460 C   0  0  0  0  0  0  0  0  0  0  0  0
  140.0300   68.8170  226.1900 C   0  0  0  0  0  0  0  0  0  0  0  0
  140.6690   69.2740  227.3230 C   0  0  0  0  0  0  0  0  0  0  0  0
  140.9560   68.1750  228.6610 Cl  0  0  0  0  0  0  0  0  0  0  0  0
  141.0790   70.5920  227.4010 C   0  0  0  0  0  0  0  0  0  0  0  0
  140.8790   71.5000  226.3780 C   0  0  0  0  0  0  0  0  0  0  0  0
  140.2410   71.0350  225.2520 C   0  0  0  0  0  0  0  0  0  0  0  0
  140.0250   71.8970  224.2210 N   0  0  0  0  0  0  0  0  0  0  0  0
  139.6090   79.6140  223.0710 C   0  0  0  0  0  0  0  0  0  0  0  0
  140.4450   78.5380  222.8520 C   0  0  0  0  0  0  0  0  0  0  0  0
  141.8230   78.6180  223.0140 C   0  0  0  0  0  0  0  0  0  0  0  0
  142.3830   79.8120  223.4060 C   0  0  0  0  0  0  0  0  0  0  0  0
  141.5790   80.9020  223.6310 C   0  0  0  0  0  0  0  0  0  0  0  0
  140.2100   80.8010  223.4650 C   0  0  0  0  0  0  0  0  0  0  0  0
  137.7221   79.9361  224.9451 H   0  0  0  0  0  0  0  0  0  0  0  0
  137.5805   81.3427  223.8369 H   0  0  0  0  0  0  0  0  0  0  0  0
  136.3145   80.0684  223.8369 H   0  0  0  0  0  0  0  0  0  0  0  0
  137.8483   79.9959  221.9549 H   0  0  0  0  0  0  0  0  0  0  0  0
  138.6240   77.4390  222.7760 H   0  0  0  0  0  0  0  0  0  0  0  0
  134.9811   76.5262  222.5874 H   0  0  0  0  0  0  0  0  0  0  0  0
  137.2742   75.2015  224.0982 H   0  0  0  0  0  0  0  0  0  0  0  0
  135.8206   75.9133  224.8337 H   0  0  0  0  0  0  0  0  0  0  0  0
  136.1762   73.3283  223.7835 H   0  0  0  0  0  0  0  0  0  0  0  0
  134.6190   74.1843  224.3531 H   0  0  0  0  0  0  0  0  0  0  0  0
  134.6253   72.9222  222.1799 H   0  0  0  0  0  0  0  0  0  0  0  0
  133.9350   74.6215  222.3329 H   0  0  0  0  0  0  0  0  0  0  0  0
  136.2267   73.6237  220.7066 H   0  0  0  0  0  0  0  0  0  0  0  0
  135.0287   74.9024  220.3633 H   0  0  0  0  0  0  0  0  0  0  0  0
  139.0179   74.2497  220.1858 H   0  0  0  0  0  0  0  0  0  0  0  0
  139.9150   75.5113  221.2619 H   0  0  0  0  0  0  0  0  0  0  0  0
  139.5790   74.1410  223.1420 H   0  0  0  0  0  0  0  0  0  0  0  0
  138.4798   69.8979  222.0461 H   0  0  0  0  0  0  0  0  0  0  0  0
  138.8312   68.2513  223.8716 H   0  0  0  0  0  0  0  0  0  0  0  0
  139.6963   67.7716  226.1134 H   0  0  0  0  0  0  0  0  0  0  0  0
  141.5859   70.9326  228.3159 H   0  0  0  0  0  0  0  0  0  0  0  0
  141.2141   72.5444  226.4607 H   0  0  0  0  0  0  0  0  0  0  0  0
  140.0039   77.5807  222.5373 H   0  0  0  0  0  0  0  0  0  0  0  0
  142.4576   77.7383  222.8312 H   0  0  0  0  0  0  0  0  0  0  0  0
  143.4719   79.8931  223.5388 H   0  0  0  0  0  0  0  0  0  0  0  0
  142.0249   81.8576  223.9440 H   0  0  0  0  0  0  0  0  0  0  0  0
  139.5812   81.6844  223.6500 H   0  0  0  0  0  0  0  0  0  0  0  0
  1  2  1  0
  2  3  1  0
  3  4  1  0
  4  5  2  0
  4  6  1  0
  6  7  1  0
  7  8  1  0
  8  9  1  0
  9 10  1  0
 10 11  1  0
 11 12  1  0
 12 13  2  0
 12 14  1  0
 14 15  1  0
 15 16  1  0
 16 17  2  0
 16 18  1  0
 18 19  2  0
 19 20  1  0
 20 21  2  0
 21 22  1  0
 22 23  2  0
 23 24  1  0
 23 25  1  0
 25 26  2  0
 26 27  1  0
 27 28  2  0
  2 29  1  0
 29 30  2  0
 30 31  1  0
 31 32  2  0
 32 33  1  0
 33 34  2  0
 11  6  1  0
 28 18  1  0
 34 29  1  0
 27 21  1  0
  1 35  1  0
  1 36  1  0
  1 37  1  0
  2 38  1  6
  3 39  1  0
  6 40  1  6
  7 41  1  0
  7 42  1  0
  8 43  1  0
  8 44  1  0
  9 45  1  0
  9 46  1  0
 10 47  1  0
 10 48  1  0
 14 49  1  0
 14 50  1  0
 15 51  1  0
 19 52  1  0
 20 53  1  0
 22 54  1  0
 25 55  1  0
 26 56  1  0
 30 57  1  0
 31 58  1  0
 32 59  1  0
 33 60  1  0
 34 61  1  0
M  END
>  <smiles>  (5) 
C[C@H](NC(=O)C1CCCCN1C(=O)CNC(=O)c1ccc2cc(Cl)ccc2n1)c1ccccc1

>  <score_type>  (5) 
oracle

>  <origin>  (5) 
autodockgpu

>  <m_score__min__energy>  (5) 
-9.5299999999999994

>  <m_primary>  (5) 
energy

>  <rmsd>  (5) 
4.238685521556832

>  <m_score__min__rmsd>  (5) 
4.238685521556832

>  <meeko>  (5) 
{"free_energy": -8.4, "intermolecular_energy": -10.49, "internal_energy": -2.55, "cluster_size": 5, "cluster_id": 4, "rank_in_cluster": 4}

>  <energy>  (5) 
-9.24

>  <cluster_rmsd>  (5) 
0.78

>  <cluster>  (5) 
1

$$$$

     RDKit          3D

 61 64  0  0  1  0  0  0  0  0999 V2000
  145.2710   74.4510  220.7870 C   0  0  0  0  0  0  0  0  0  0  0  0
  144.0660   74.4160  219.8910 C   0  0  2  0  0  0  0  0  0  0  0  0
  143.0890   75.4380  220.1910 N   0  0  0  0  0  0  0  0  0  0  0  0
  142.4300   76.1710  219.1610 C   0  0  0  0  0  0  0  0  0  0  0  0
  142.7470   75.8640  217.9780 O   0  0  0  0  0  0  0  0  0  0  0  0
  141.4550   77.2000  219.3930 C   0  0  2  0  0  0  0  0  0  0  0  0
  141.8420   78.4220  220.1550 C   0  0  0  0  0  0  0  0  0  0  0  0
  140.7300   79.3990  220.0000 C   0  0  0  0  0  0  0  0  0  0  0  0
  139.5210   78.9770  219.2550 C   0  0  0  0  0  0  0  0  0  0  0  0
  139.0390   77.5580  219.5460 C   0  0  0  0  0  0  0  0  0  0  0  0
  140.1920   76.7770  220.0370 N   0  0  0  0  0  0  0  0  0  0  0  0
  140.1380   75.7690  220.9960 C   0  0  0  0  0  0  0  0  0  0  0  0
  140.9740   75.9300  221.9950 O   0  0  0  0  0  0  0  0  0  0  0  0
  139.3300   74.5760  221.0990 C   0  0  0  0  0  0  0  0  0  0  0  0
  139.5430   73.6450  222.1470 N   0  0  0  0  0  0  0  0  0  0  0  0
  139.2460   72.2330  222.0440 C   0  0  0  0  0  0  0  0  0  0  0  0
  138.7660   71.7810  220.9530 O   0  0  0  0  0  0  0  0  0  0  0  0
  139.4950   71.3470  223.1860 C   0  0  0  0  0  0  0  0  0  0  0  0
  139.1150   70.0270  223.0750 C   0  0  0  0  0  0  0  0  0  0  0  0
  139.3160   69.1260  224.1040 C   0  0  0  0  0  0  0  0  0  0  0  0
  139.9170   69.5850  225.2750 C   0  0  0  0  0  0  0  0  0  0  0  0
  140.1370   68.7130  226.3350 C   0  0  0  0  0  0  0  0  0  0  0  0
  140.7350   69.2070  227.4750 C   0  0  0  0  0  0  0  0  0  0  0  0
  141.0290   68.1370  228.8350 Cl  0  0  0  0  0  0  0  0  0  0  0  0
  141.0990   70.5390  227.5420 C   0  0  0  0  0  0  0  0  0  0  0  0
  140.8910   71.4250  226.5020 C   0  0  0  0  0  0  0  0  0  0  0  0
  140.2940   70.9230  225.3690 C   0  0  0  0  0  0  0  0  0  0  0  0
  140.0720   71.7630  224.3220 N   0  0  0  0  0  0  0  0  0  0  0  0
  143.3820   73.1110  219.9200 C   0  0  0  0  0  0  0  0  0  0  0  0
  144.0240   71.9630  220.3380 C   0  0  0  0  0  0  0  0  0  0  0  0
  143.3940   70.7250  220.3700 C   0  0  0  0  0  0  0  0  0  0  0  0
  142.0800   70.6320  219.9730 C   0  0  0  0  0  0  0  0  0  0  0  0
  141.4120   71.7550  219.5520 C   0  0  0  0  0  0  0  0  0  0  0  0
  142.0580   72.9780  219.5260 C   0  0  0  0  0  0  0  0  0  0  0  0
  144.9468   74.4416  221.8381 H   0  0  0  0  0  0  0  0  0  0  0  0
  145.9004   73.5708  220.5895 H   0  0  0  0  0  0  0  0  0  0  0  0
  145.8483   75.3663  220.5895 H   0  0  0  0  0  0  0  0  0  0  0  0
  144.4772   74.6048  218.8884 H   0  0  0  0  0  0  0  0  0  0  0  0
  142.8860   75.5910  221.2170 H   0  0  0  0  0  0  0  0  0  0  0  0
  141.3401   77.4482  218.3275 H   0  0  0  0  0  0  0  0  0  0  0  0
  141.9838   78.1759  221.2177 H   0  0  0  0  0  0  0  0  0  0  0  0
  142.7873   78.8385  219.7770 H   0  0  0  0  0  0  0  0  0  0  0  0
  140.4055   79.6857  221.0112 H   0  0  0  0  0  0  0  0  0  0  0  0
  141.1600   80.2032  219.3850 H   0  0  0  0  0  0  0  0  0  0  0  0
  138.7062   79.6714  219.5077 H   0  0  0  0  0  0  0  0  0  0  0  0
  139.7981   78.9924  218.1906 H   0  0  0  0  0  0  0  0  0  0  0  0
  138.2502   77.5813  220.3123 H   0  0  0  0  0  0  0  0  0  0  0  0
  138.6267   77.0997  218.6350 H   0  0  0  0  0  0  0  0  0  0  0  0
  138.2855   74.9105  221.1835 H   0  0  0  0  0  0  0  0  0  0  0  0
  139.6187   74.0066  220.2032 H   0  0  0  0  0  0  0  0  0  0  0  0
  139.9430   73.9360  223.0900 H   0  0  0  0  0  0  0  0  0  0  0  0
  138.6401   69.6818  222.1448 H   0  0  0  0  0  0  0  0  0  0  0  0
  139.0097   68.0745  224.0014 H   0  0  0  0  0  0  0  0  0  0  0  0
  139.8415   67.6557  226.2661 H   0  0  0  0  0  0  0  0  0  0  0  0
  141.5744   70.9094  228.4622 H   0  0  0  0  0  0  0  0  0  0  0  0
  141.1887   72.4813  226.5767 H   0  0  0  0  0  0  0  0  0  0  0  0
  145.0743   72.0307  220.6579 H   0  0  0  0  0  0  0  0  0  0  0  0
  143.9386   69.8311  220.7082 H   0  0  0  0  0  0  0  0  0  0  0  0
  141.5657   69.6598  219.9929 H   0  0  0  0  0  0  0  0  0  0  0  0
  140.3613   71.6822  219.2348 H   0  0  0  0  0  0  0  0  0  0  0  0
  141.5083   73.8675  219.1844 H   0  0  0  0  0  0  0  0  0  0  0  0
  1  2  1  0
  2  3  1  0
  3  4  1  0
  4  5  2  0
  4  6  1  0
  6  7  1  0
  7  8  1  0
  8  9  1  0
  9 10  1  0
 10 11  1  0
 11 12  1  0
 12 13  2  0
 12 14  1  0
 14 15  1  0
 15 16  1  0
 16 17  2  0
 16 18  1  0
 18 19  2  0
 19 20  1  0
 20 21  2  0
 21 22  1  0
 22 23  2  0
 23 24  1  0
 23 25  1  0
 25 26  2  0
 26 27  1  0
 27 28  2  0
  2 29  1  0
 29 30  2  0
 30 31  1  0
 31 32  2  0
 32 33  1  0
 33 34  2  0
 11  6  1  0
 28 18  1  0
 34 29  1  0
 27 21  1  0
  1 35  1  0
  1 36  1  0
  1 37  1  0
  2 38  1  6
  3 39  1  0
  6 40  1  6
  7 41  1  0
  7 42  1  0
  8 43  1  0
  8 44  1  0
  9 45  1  0
  9 46  1  0
 10 47  1  0
 10 48  1  0
 14 49  1  0
 14 50  1  0
 15 51  1  0
 19 52  1  0
 20 53  1  0
 22 54  1  0
 25 55  1  0
 26 56  1  0
 30 57  1  0
 31 58  1  0
 32 59  1  0
 33 60  1  0
 34 61  1  0
M  END
>  <smiles>  (6) 
C[C@H](NC(=O)C1CCCCN1C(=O)CNC(=O)c1ccc2cc(Cl)ccc2n1)c1ccccc1

>  <score_type>  (6) 
oracle

>  <origin>  (6) 
autodockgpu

>  <m_score__min__energy>  (6) 
-9.5299999999999994

>  <m_primary>  (6) 
energy

>  <rmsd>  (6) 
5.296093293279979

>  <m_score__min__rmsd>  (6) 
5.296093293279979

>  <meeko>  (6) 
{"free_energy": -7.63, "intermolecular_energy": -9.72, "internal_energy": -3.75, "cluster_size": 8, "cluster_id": 5, "rank_in_cluster": 7}

>  <energy>  (6) 
-9.21

>  <cluster_rmsd>  (6) 
1.48

>  <cluster>  (6) 
1

$$$$

     RDKit          3D

 61 64  0  0  1  0  0  0  0  0999 V2000
  142.3380   80.2670  223.8400 C   0  0  0  0  0  0  0  0  0  0  0  0
  141.3860   79.1070  223.7600 C   0  0  2  0  0  0  0  0  0  0  0  0
  141.6990   78.1700  222.7050 N   0  0  0  0  0  0  0  0  0  0  0  0
  141.8520   78.5900  221.3510 C   0  0  0  0  0  0  0  0  0  0  0  0
  141.7060   79.8260  221.1380 O   0  0  0  0  0  0  0  0  0  0  0  0
  142.1570   77.7100  220.2590 C   0  0  2  0  0  0  0  0  0  0  0  0
  141.6150   78.0050  218.9010 C   0  0  0  0  0  0  0  0  0  0  0  0
  142.3080   77.0950  217.9500 C   0  0  0  0  0  0  0  0  0  0  0  0
  143.2590   76.0980  218.4950 C   0  0  0  0  0  0  0  0  0  0  0  0
  142.8060   75.4000  219.7760 C   0  0  0  0  0  0  0  0  0  0  0  0
  141.8340   76.2790  220.4550 N   0  0  0  0  0  0  0  0  0  0  0  0
  140.7300   75.8520  221.1880 C   0  0  0  0  0  0  0  0  0  0  0  0
  141.0310   75.1740  222.2710 O   0  0  0  0  0  0  0  0  0  0  0  0
  139.3100   76.0180  220.9800 C   0  0  0  0  0  0  0  0  0  0  0  0
  138.3790   75.5680  221.9500 N   0  0  0  0  0  0  0  0  0  0  0  0
  136.9960   75.9890  221.9970 C   0  0  0  0  0  0  0  0  0  0  0  0
  136.5710   76.8110  221.1190 O   0  0  0  0  0  0  0  0  0  0  0  0
  136.1070   75.4720  223.0430 C   0  0  0  0  0  0  0  0  0  0  0  0
  135.4830   76.3820  223.8680 C   0  0  0  0  0  0  0  0  0  0  0  0
  134.6300   75.9780  224.8780 C   0  0  0  0  0  0  0  0  0  0  0  0
  134.4110   74.6120  225.0490 C   0  0  0  0  0  0  0  0  0  0  0  0
  133.5610   74.1610  226.0540 C   0  0  0  0  0  0  0  0  0  0  0  0
  133.3700   72.8030  226.1890 C   0  0  0  0  0  0  0  0  0  0  0  0
  132.3050   72.1950  227.4440 Cl  0  0  0  0  0  0  0  0  0  0  0  0
  134.0180   71.9270  225.3370 C   0  0  0  0  0  0  0  0  0  0  0  0
  134.8670   72.3490  224.3330 C   0  0  0  0  0  0  0  0  0  0  0  0
  135.0510   73.7070  224.2060 C   0  0  0  0  0  0  0  0  0  0  0  0
  135.8800   74.1640  223.2280 N   0  0  0  0  0  0  0  0  0  0  0  0
  139.9880   79.5390  223.5840 C   0  0  0  0  0  0  0  0  0  0  0  0
  139.5920   80.8380  223.8320 C   0  0  0  0  0  0  0  0  0  0  0  0
  138.2780   81.2610  223.6710 C   0  0  0  0  0  0  0  0  0  0  0  0
  137.3300   80.3570  223.2490 C   0  0  0  0  0  0  0  0  0  0  0  0
  137.6920   79.0570  222.9940 C   0  0  0  0  0  0  0  0  0  0  0  0
  139.0050   78.6570  223.1610 C   0  0  0  0  0  0  0  0  0  0  0  0
  142.5353   80.5074  224.8951 H   0  0  0  0  0  0  0  0  0  0  0  0
  143.2821   80.0016  223.3417 H   0  0  0  0  0  0  0  0  0  0  0  0
  141.8935   81.1412  223.3417 H   0  0  0  0  0  0  0  0  0  0  0  0
  141.5059   78.5999  224.7287 H   0  0  0  0  0  0  0  0  0  0  0  0
  141.8220   77.1650  223.0060 H   0  0  0  0  0  0  0  0  0  0  0  0
  143.2361   77.9219  220.2823 H   0  0  0  0  0  0  0  0  0  0  0  0
  140.5308   77.8206  218.8785 H   0  0  0  0  0  0  0  0  0  0  0  0
  141.7835   79.0579  218.6309 H   0  0  0  0  0  0  0  0  0  0  0  0
  141.5300   76.5390  217.4063 H   0  0  0  0  0  0  0  0  0  0  0  0
  142.9359   77.7646  217.3439 H   0  0  0  0  0  0  0  0  0  0  0  0
  143.4218   75.3276  217.7269 H   0  0  0  0  0  0  0  0  0  0  0  0
  144.1698   76.6563  218.7571 H   0  0  0  0  0  0  0  0  0  0  0  0
  142.3314   74.4387  219.5296 H   0  0  0  0  0  0  0  0  0  0  0  0
  143.6682   75.2059  220.4309 H   0  0  0  0  0  0  0  0  0  0  0  0
  139.1350   77.0965  220.8531 H   0  0  0  0  0  0  0  0  0  0  0  0
  139.1090   75.3587  220.1227 H   0  0  0  0  0  0  0  0  0  0  0  0
  138.6480   74.8790  222.7160 H   0  0  0  0  0  0  0  0  0  0  0  0
  135.6680   77.4561  223.7194 H   0  0  0  0  0  0  0  0  0  0  0  0
  134.1372   76.7148  225.5294 H   0  0  0  0  0  0  0  0  0  0  0  0
  133.0541   74.8709  226.7242 H   0  0  0  0  0  0  0  0  0  0  0  0
  133.8498   70.8475  225.4647 H   0  0  0  0  0  0  0  0  0  0  0  0
  135.3720   71.6341  223.6667 H   0  0  0  0  0  0  0  0  0  0  0  0
  140.3447   81.5656  224.1697 H   0  0  0  0  0  0  0  0  0  0  0  0
  137.9993   82.3048  223.8782 H   0  0  0  0  0  0  0  0  0  0  0  0
  136.2853   80.6748  223.1163 H   0  0  0  0  0  0  0  0  0  0  0  0
  136.9361   78.3327  222.6563 H   0  0  0  0  0  0  0  0  0  0  0  0
  139.2770   77.6117  222.9528 H   0  0  0  0  0  0  0  0  0  0  0  0
  1  2  1  0
  2  3  1  0
  3  4  1  0
  4  5  2  0
  4  6  1  0
  6  7  1  0
  7  8  1  0
  8  9  1  0
  9 10  1  0
 10 11  1  0
 11 12  1  0
 12 13  2  0
 12 14  1  0
 14 15  1  0
 15 16  1  0
 16 17  2  0
 16 18  1  0
 18 19  2  0
 19 20  1  0
 20 21  2  0
 21 22  1  0
 22 23  2  0
 23 24  1  0
 23 25  1  0
 25 26  2  0
 26 27  1  0
 27 28  2  0
  2 29  1  0
 29 30  2  0
 30 31  1  0
 31 32  2  0
 32 33  1  0
 33 34  2  0
 11  6  1  0
 28 18  1  0
 34 29  1  0
 27 21  1  0
  1 35  1  0
  1 36  1  0
  1 37  1  0
  2 38  1  1
  3 39  1  0
  6 40  1  6
  7 41  1  0
  7 42  1  0
  8 43  1  0
  8 44  1  0
  9 45  1  0
  9 46  1  0
 10 47  1  0
 10 48  1  0
 14 49  1  0
 14 50  1  0
 15 51  1  0
 19 52  1  0
 20 53  1  0
 22 54  1  0
 25 55  1  0
 26 56  1  0
 30 57  1  0
 31 58  1  0
 32 59  1  0
 33 60  1  0
 34 61  1  0
M  END
>  <smiles>  (7) 
C[C@H](NC(=O)C1CCCCN1C(=O)CNC(=O)c1ccc2cc(Cl)ccc2n1)c1ccccc1

>  <score_type>  (7) 
oracle

>  <origin>  (7) 
autodockgpu

>  <m_score__min__energy>  (7) 
-9.5299999999999994

>  <m_primary>  (7) 
energy

>  <rmsd>  (7) 
4.864275352176778

>  <m_score__min__rmsd>  (7) 
4.864275352176778

>  <meeko>  (7) 
{"free_energy": -7.76, "intermolecular_energy": -9.85, "internal_energy": -3.32, "cluster_size": 2, "cluster_id": 7, "rank_in_cluster": 1}

>  <energy>  (7) 
-9.18

>  <cluster_rmsd>  (7) 
0.73

>  <cluster>  (7) 
1

$$$$

     RDKit          3D

 61 64  0  0  1  0  0  0  0  0999 V2000
  140.7840   67.3930  226.6360 C   0  0  0  0  0  0  0  0  0  0  0  0
  139.8060   68.4800  226.2930 C   0  0  2  0  0  0  0  0  0  0  0  0
  139.4820   68.5470  224.8860 N   0  0  0  0  0  0  0  0  0  0  0  0
  138.1390   68.7010  224.4330 C   0  0  0  0  0  0  0  0  0  0  0  0
  137.2590   68.7840  225.3350 O   0  0  0  0  0  0  0  0  0  0  0  0
  137.7520   68.7700  223.0520 C   0  0  2  0  0  0  0  0  0  0  0  0
  138.5450   68.0320  222.0260 C   0  0  0  0  0  0  0  0  0  0  0  0
  137.7610   68.0700  220.7620 C   0  0  0  0  0  0  0  0  0  0  0  0
  136.4940   68.8370  220.7420 C   0  0  0  0  0  0  0  0  0  0  0  0
  136.5360   70.1820  221.4650 C   0  0  0  0  0  0  0  0  0  0  0  0
  137.6140   70.1240  222.4720 N   0  0  0  0  0  0  0  0  0  0  0  0
  138.4300   71.1880  222.8480 C   0  0  0  0  0  0  0  0  0  0  0  0
  137.9720   71.8880  223.8590 O   0  0  0  0  0  0  0  0  0  0  0  0
  139.6910   71.6660  222.3330 C   0  0  0  0  0  0  0  0  0  0  0  0
  139.9500   73.0560  222.2260 N   0  0  0  0  0  0  0  0  0  0  0  0
  140.9540   73.6250  221.3520 C   0  0  0  0  0  0  0  0  0  0  0  0
  141.6530   72.8450  220.6250 O   0  0  0  0  0  0  0  0  0  0  0  0
  141.1530   75.0770  221.3130 C   0  0  0  0  0  0  0  0  0  0  0  0
  141.9870   75.5890  220.3430 C   0  0  0  0  0  0  0  0  0  0  0  0
  142.2280   76.9460  220.2380 C   0  0  0  0  0  0  0  0  0  0  0  0
  141.6030   77.8000  221.1460 C   0  0  0  0  0  0  0  0  0  0  0  0
  141.8190   79.1720  221.0770 C   0  0  0  0  0  0  0  0  0  0  0  0
  141.1810   79.9810  221.9930 C   0  0  0  0  0  0  0  0  0  0  0  0
  141.4270   81.7180  221.9370 Cl  0  0  0  0  0  0  0  0  0  0  0  0
  140.3540   79.4230  222.9490 C   0  0  0  0  0  0  0  0  0  0  0  0
  140.1250   78.0630  223.0390 C   0  0  0  0  0  0  0  0  0  0  0  0
  140.7650   77.2640  222.1200 C   0  0  0  0  0  0  0  0  0  0  0  0
  140.5650   75.9190  222.1750 N   0  0  0  0  0  0  0  0  0  0  0  0
  140.2750   69.8110  226.7160 C   0  0  0  0  0  0  0  0  0  0  0  0
  139.9520   70.3380  227.9500 C   0  0  0  0  0  0  0  0  0  0  0  0
  140.3850   71.5920  228.3620 C   0  0  0  0  0  0  0  0  0  0  0  0
  141.1680   72.3430  227.5160 C   0  0  0  0  0  0  0  0  0  0  0  0
  141.5080   71.8470  226.2810 C   0  0  0  0  0  0  0  0  0  0  0  0
  141.0650   70.5970  225.8890 C   0  0  0  0  0  0  0  0  0  0  0  0
  140.8643   67.3037  227.7294 H   0  0  0  0  0  0  0  0  0  0  0  0
  140.4343   66.4389  226.2149 H   0  0  0  0  0  0  0  0  0  0  0  0
  141.7696   67.6403  226.2149 H   0  0  0  0  0  0  0  0  0  0  0  0
  138.8986   68.2048  226.8505 H   0  0  0  0  0  0  0  0  0  0  0  0
  140.3030   68.4920  224.2230 H   0  0  0  0  0  0  0  0  0  0  0  0
  136.7890   68.2631  223.2124 H   0  0  0  0  0  0  0  0  0  0  0  0
  139.5207   68.5186  221.8804 H   0  0  0  0  0  0  0  0  0  0  0  0
  138.7297   66.9950  222.3430 H   0  0  0  0  0  0  0  0  0  0  0  0
  138.4134   68.4994  219.9874 H   0  0  0  0  0  0  0  0  0  0  0  0
  137.4483   67.0270  220.6062 H   0  0  0  0  0  0  0  0  0  0  0  0
  136.2258   69.0236  219.6916 H   0  0  0  0  0  0  0  0  0  0  0  0
  135.7574   68.2235  221.2815 H   0  0  0  0  0  0  0  0  0  0  0  0
  136.7411   70.9872  220.7442 H   0  0  0  0  0  0  0  0  0  0  0  0
  135.5700   70.3860  221.9500 H   0  0  0  0  0  0  0  0  0  0  0  0
  140.4740   71.2499  222.9839 H   0  0  0  0  0  0  0  0  0  0  0  0
  139.6658   71.3401  221.2827 H   0  0  0  0  0  0  0  0  0  0  0  0
  139.4110   73.7770  222.7930 H   0  0  0  0  0  0  0  0  0  0  0  0
  142.4727   74.9012  219.6351 H   0  0  0  0  0  0  0  0  0  0  0  0
  142.8955   77.3419  219.4584 H   0  0  0  0  0  0  0  0  0  0  0  0
  142.4820   79.6008  220.3111 H   0  0  0  0  0  0  0  0  0  0  0  0
  139.8568   80.0895  223.6691 H   0  0  0  0  0  0  0  0  0  0  0  0
  139.4627   77.6397  223.8086 H   0  0  0  0  0  0  0  0  0  0  0  0
  139.3282   69.7426  228.6330 H   0  0  0  0  0  0  0  0  0  0  0  0
  140.1052   71.9798  229.3526 H   0  0  0  0  0  0  0  0  0  0  0  0
  141.5206   73.3373  227.8275 H   0  0  0  0  0  0  0  0  0  0  0  0
  142.1339   72.4453  225.6025 H   0  0  0  0  0  0  0  0  0  0  0  0
  141.3461   70.2159  224.8961 H   0  0  0  0  0  0  0  0  0  0  0  0
  1  2  1  0
  2  3  1  0
  3  4  1  0
  4  5  2  0
  4  6  1  0
  6  7  1  0
  7  8  1  0
  8  9  1  0
  9 10  1  0
 10 11  1  0
 11 12  1  0
 12 13  2  0
 12 14  1  0
 14 15  1  0
 15 16  1  0
 16 17  2  0
 16 18  1  0
 18 19  2  0
 19 20  1  0
 20 21  2  0
 21 22  1  0
 22 23  2  0
 23 24  1  0
 23 25  1  0
 25 26  2  0
 26 27  1  0
 27 28  2  0
  2 29  1  0
 29 30  2  0
 30 31  1  0
 31 32  2  0
 32 33  1  0
 33 34  2  0
 11  6  1  0
 28 18  1  0
 34 29  1  0
 27 21  1  0
  1 35  1  0
  1 36  1  0
  1 37  1  0
  2 38  1  1
  3 39  1  0
  6 40  1  1
  7 41  1  0
  7 42  1  0
  8 43  1  0
  8 44  1  0
  9 45  1  0
  9 46  1  0
 10 47  1  0
 10 48  1  0
 14 49  1  0
 14 50  1  0
 15 51  1  0
 19 52  1  0
 20 53  1  0
 22 54  1  0
 25 55  1  0
 26 56  1  0
 30 57  1  0
 31 58  1  0
 32 59  1  0
 33 60  1  0
 34 61  1  0
M  END
>  <smiles>  (8) 
C[C@H](NC(=O)C1CCCCN1C(=O)CNC(=O)c1ccc2cc(Cl)ccc2n1)c1ccccc1

>  <score_type>  (8) 
oracle

>  <origin>  (8) 
autodockgpu

>  <m_score__min__energy>  (8) 
-9.5299999999999994

>  <m_primary>  (8) 
energy

>  <rmsd>  (8) 
9.655300703399007

>  <m_score__min__rmsd>  (8) 
9.655300703399007

>  <meeko>  (8) 
{"free_energy": -8.99, "intermolecular_energy": -11.08, "internal_energy": -2.51, "cluster_size": 2, "cluster_id": 3, "rank_in_cluster": 1}

>  <energy>  (8) 
-9.06

>  <cluster_rmsd>  (8) 
1.39

>  <cluster>  (8) 
1

$$$$

     RDKit          3D

 61 64  0  0  1  0  0  0  0  0999 V2000
  140.2370   79.5380  219.4330 C   0  0  0  0  0  0  0  0  0  0  0  0
  141.5280   79.1020  220.0660 C   0  0  2  0  0  0  0  0  0  0  0  0
  141.6550   77.6690  220.1980 N   0  0  0  0  0  0  0  0  0  0  0  0
  142.5900   76.9250  219.4200 C   0  0  0  0  0  0  0  0  0  0  0  0
  143.3000   77.5970  218.6220 O   0  0  0  0  0  0  0  0  0  0  0  0
  142.7610   75.5010  219.4990 C   0  0  2  0  0  0  0  0  0  0  0  0
  142.9250   74.7070  218.2470 C   0  0  0  0  0  0  0  0  0  0  0  0
  143.3450   73.3390  218.6540 C   0  0  0  0  0  0  0  0  0  0  0  0
  143.4300   73.0290  220.1000 C   0  0  0  0  0  0  0  0  0  0  0  0
  142.2940   73.5890  220.9530 C   0  0  0  0  0  0  0  0  0  0  0  0
  141.7250   74.7540  220.2480 N   0  0  0  0  0  0  0  0  0  0  0  0
  140.3840   75.1290  220.2510 C   0  0  0  0  0  0  0  0  0  0  0  0
  140.0580   75.9750  219.3030 O   0  0  0  0  0  0  0  0  0  0  0  0
  139.2800   74.7570  221.1050 C   0  0  0  0  0  0  0  0  0  0  0  0
  139.4580   73.8150  222.1500 N   0  0  0  0  0  0  0  0  0  0  0  0
  139.5230   72.3840  221.9430 C   0  0  0  0  0  0  0  0  0  0  0  0
  139.4210   71.9260  220.7580 O   0  0  0  0  0  0  0  0  0  0  0  0
  139.7040   71.4860  223.0890 C   0  0  0  0  0  0  0  0  0  0  0  0
  139.3120   70.1730  222.9490 C   0  0  0  0  0  0  0  0  0  0  0  0
  139.4480   69.2620  223.9790 C   0  0  0  0  0  0  0  0  0  0  0  0
  139.9980   69.7040  225.1820 C   0  0  0  0  0  0  0  0  0  0  0  0
  140.1520   68.8210  226.2450 C   0  0  0  0  0  0  0  0  0  0  0  0
  140.7000   69.2980  227.4170 C   0  0  0  0  0  0  0  0  0  0  0  0
  140.9120   68.2150  228.7810 Cl  0  0  0  0  0  0  0  0  0  0  0  0
  141.0790   70.6240  227.5120 C   0  0  0  0  0  0  0  0  0  0  0  0
  140.9350   71.5210  226.4710 C   0  0  0  0  0  0  0  0  0  0  0  0
  140.3880   71.0350  225.3060 C   0  0  0  0  0  0  0  0  0  0  0  0
  140.2300   71.8860  224.2550 N   0  0  0  0  0  0  0  0  0  0  0  0
  141.7300   79.7000  221.3980 C   0  0  0  0  0  0  0  0  0  0  0  0
  141.9940   78.9260  222.5090 C   0  0  0  0  0  0  0  0  0  0  0  0
  142.1870   79.4740  223.7720 C   0  0  0  0  0  0  0  0  0  0  0  0
  142.1140   80.8390  223.9280 C   0  0  0  0  0  0  0  0  0  0  0  0
  141.8530   81.6380  222.8420 C   0  0  0  0  0  0  0  0  0  0  0  0
  141.6640   81.0720  221.5940 C   0  0  0  0  0  0  0  0  0  0  0  0
  139.5080   79.7842  220.2191 H   0  0  0  0  0  0  0  0  0  0  0  0
  140.4163   80.4254  218.8082 H   0  0  0  0  0  0  0  0  0  0  0  0
  139.8415   78.7236  218.8082 H   0  0  0  0  0  0  0  0  0  0  0  0
  142.2989   79.4618  219.3687 H   0  0  0  0  0  0  0  0  0  0  0  0
  141.0250   77.2160  220.9150 H   0  0  0  0  0  0  0  0  0  0  0  0
  143.7241   75.5628  220.0269 H   0  0  0  0  0  0  0  0  0  0  0  0
  141.9719   74.6628  217.6996 H   0  0  0  0  0  0  0  0  0  0  0  0
  143.6726   75.1673  217.5842 H   0  0  0  0  0  0  0  0  0  0  0  0
  142.6265   72.6332  218.2118 H   0  0  0  0  0  0  0  0  0  0  0  0
  144.3829   73.2580  218.2987 H   0  0  0  0  0  0  0  0  0  0  0  0
  143.4335   71.9349  220.2138 H   0  0  0  0  0  0  0  0  0  0  0  0
  144.3499   73.5115  220.4620 H   0  0  0  0  0  0  0  0  0  0  0  0
  141.5184   72.8215  221.0919 H   0  0  0  0  0  0  0  0  0  0  0  0
  142.6709   73.8880  221.9422 H   0  0  0  0  0  0  0  0  0  0  0  0
  138.9207   75.6841  221.5756 H   0  0  0  0  0  0  0  0  0  0  0  0
  138.6025   74.2325  220.4151 H   0  0  0  0  0  0  0  0  0  0  0  0
  139.5560   74.1100  223.1670 H   0  0  0  0  0  0  0  0  0  0  0  0
  138.8799   69.8414  221.9933 H   0  0  0  0  0  0  0  0  0  0  0  0
  139.1310   68.2162  223.8535 H   0  0  0  0  0  0  0  0  0  0  0  0
  139.8445   67.7688  226.1533 H   0  0  0  0  0  0  0  0  0  0  0  0
  141.5141   70.9805  228.4573 H   0  0  0  0  0  0  0  0  0  0  0  0
  141.2427   72.5725  226.5690 H   0  0  0  0  0  0  0  0  0  0  0  0
  142.0541   77.8340  222.3911 H   0  0  0  0  0  0  0  0  0  0  0  0
  142.3953   78.8248  224.6352 H   0  0  0  0  0  0  0  0  0  0  0  0
  142.2643   81.2893  224.9203 H   0  0  0  0  0  0  0  0  0  0  0  0
  141.7941   82.7296  222.9647 H   0  0  0  0  0  0  0  0  0  0  0  0
  141.4560   81.7266  220.7348 H   0  0  0  0  0  0  0  0  0  0  0  0
  1  2  1  0
  2  3  1  0
  3  4  1  0
  4  5  2  0
  4  6  1  0
  6  7  1  0
  7  8  1  0
  8  9  1  0
  9 10  1  0
 10 11  1  0
 11 12  1  0
 12 13  2  0
 12 14  1  0
 14 15  1  0
 15 16  1  0
 16 17  2  0
 16 18  1  0
 18 19  2  0
 19 20  1  0
 20 21  2  0
 21 22  1  0
 22 23  2  0
 23 24  1  0
 23 25  1  0
 25 26  2  0
 26 27  1  0
 27 28  2  0
  2 29  1  0
 29 30  2  0
 30 31  1  0
 31 32  2  0
 32 33  1  0
 33 34  2  0
 11  6  1  0
 28 18  1  0
 34 29  1  0
 27 21  1  0
  1 35  1  0
  1 36  1  0
  1 37  1  0
  2 38  1  6
  3 39  1  0
  6 40  1  1
  7 41  1  0
  7 42  1  0
  8 43  1  0
  8 44  1  0
  9 45  1  0
  9 46  1  0
 10 47  1  0
 10 48  1  0
 14 49  1  0
 14 50  1  0
 15 51  1  0
 19 52  1  0
 20 53  1  0
 22 54  1  0
 25 55  1  0
 26 56  1  0
 30 57  1  0
 31 58  1  0
 32 59  1  0
 33 60  1  0
 34 61  1  0
M  END
>  <smiles>  (9) 
C[C@H](NC(=O)C1CCCCN1C(=O)CNC(=O)c1ccc2cc(Cl)ccc2n1)c1ccccc1

>  <score_type>  (9) 
oracle

>  <origin>  (9) 
autodockgpu

>  <m_score__min__energy>  (9) 
-9.5299999999999994

>  <m_primary>  (9) 
energy

>  <rmsd>  (9) 
2.9865051357479655

>  <m_score__min__rmsd>  (9) 
2.9865051357479655

>  <meeko>  (9) 
{"free_energy": -8.92, "intermolecular_energy": -11.01, "internal_energy": -2.39, "cluster_size": 13, "cluster_id": 1, "rank_in_cluster": 9}

>  <energy>  (9) 
-8.92

>  <cluster_rmsd>  (9) 
1.52

>  <cluster>  (9) 
1

$$$$

     RDKit          3D

 61 64  0  0  1  0  0  0  0  0999 V2000
  139.5700   76.6420  222.1530 C   0  0  0  0  0  0  0  0  0  0  0  0
  140.6600   77.3100  221.3640 C   0  0  2  0  0  0  0  0  0  0  0  0
  141.7030   76.4070  220.9340 N   0  0  0  0  0  0  0  0  0  0  0  0
  141.6340   75.7240  219.6840 C   0  0  0  0  0  0  0  0  0  0  0  0
  140.6150   75.9670  218.9790 O   0  0  0  0  0  0  0  0  0  0  0  0
  142.6330   74.8120  219.2020 C   0  0  2  0  0  0  0  0  0  0  0  0
  143.2720   75.0520  217.8750 C   0  0  0  0  0  0  0  0  0  0  0  0
  144.4280   74.1200  217.7760 C   0  0  0  0  0  0  0  0  0  0  0  0
  144.6530   73.1580  218.8790 C   0  0  0  0  0  0  0  0  0  0  0  0
  143.3930   72.4970  219.4350 C   0  0  0  0  0  0  0  0  0  0  0  0
  142.2480   73.3840  219.1460 N   0  0  0  0  0  0  0  0  0  0  0  0
  140.9560   72.9650  218.8420 C   0  0  0  0  0  0  0  0  0  0  0  0
  140.7730   72.6510  217.5810 O   0  0  0  0  0  0  0  0  0  0  0  0
  139.7740   72.8100  219.6580 C   0  0  0  0  0  0  0  0  0  0  0  0
  139.7990   71.9980  220.8200 N   0  0  0  0  0  0  0  0  0  0  0  0
  140.0840   72.4980  222.1470 C   0  0  0  0  0  0  0  0  0  0  0  0
  140.3270   73.7400  222.3000 O   0  0  0  0  0  0  0  0  0  0  0  0
  140.0920   71.5780  223.2900 C   0  0  0  0  0  0  0  0  0  0  0  0
  139.5660   70.3180  223.1090 C   0  0  0  0  0  0  0  0  0  0  0  0
  139.5350   69.3910  224.1340 C   0  0  0  0  0  0  0  0  0  0  0  0
  140.0550   69.7610  225.3740 C   0  0  0  0  0  0  0  0  0  0  0  0
  140.0440   68.8600  226.4330 C   0  0  0  0  0  0  0  0  0  0  0  0
  140.5680   69.2650  227.6420 C   0  0  0  0  0  0  0  0  0  0  0  0
  140.5730   68.1570  229.0030 Cl  0  0  0  0  0  0  0  0  0  0  0  0
  141.0860   70.5400  227.7780 C   0  0  0  0  0  0  0  0  0  0  0  0
  141.1080   71.4530  226.7410 C   0  0  0  0  0  0  0  0  0  0  0  0
  140.5830   71.0400  225.5380 C   0  0  0  0  0  0  0  0  0  0  0  0
  140.5860   71.9100  224.4920 N   0  0  0  0  0  0  0  0  0  0  0  0
  141.2940   78.4150  222.1060 C   0  0  0  0  0  0  0  0  0  0  0  0
  141.7760   79.5380  221.4650 C   0  0  0  0  0  0  0  0  0  0  0  0
  142.3770   80.5870  222.1500 C   0  0  0  0  0  0  0  0  0  0  0  0
  142.4990   80.5130  223.5180 C   0  0  0  0  0  0  0  0  0  0  0  0
  142.0280   79.4090  224.1860 C   0  0  0  0  0  0  0  0  0  0  0  0
  141.4340   78.3750  223.4860 C   0  0  0  0  0  0  0  0  0  0  0  0
  139.7684   76.7636  223.2281 H   0  0  0  0  0  0  0  0  0  0  0  0
  138.6025   77.1024  221.9043 H   0  0  0  0  0  0  0  0  0  0  0  0
  139.5411   75.5709  221.9043 H   0  0  0  0  0  0  0  0  0  0  0  0
  140.1417   77.6992  220.4752 H   0  0  0  0  0  0  0  0  0  0  0  0
  142.5200   76.3010  221.5950 H   0  0  0  0  0  0  0  0  0  0  0  0
  143.3492   75.0413  220.0048 H   0  0  0  0  0  0  0  0  0  0  0  0
  142.5532   74.8501  217.0672 H   0  0  0  0  0  0  0  0  0  0  0  0
  143.6004   76.0975  217.7799 H   0  0  0  0  0  0  0  0  0  0  0  0
  144.2950   73.5335  216.8549 H   0  0  0  0  0  0  0  0  0  0  0  0
  145.3092   74.7777  217.8066 H   0  0  0  0  0  0  0  0  0  0  0  0
  145.3177   72.3642  218.5075 H   0  0  0  0  0  0  0  0  0  0  0  0
  145.0825   73.7400  219.7077 H   0  0  0  0  0  0  0  0  0  0  0  0
  143.2398   71.5203  218.9528 H   0  0  0  0  0  0  0  0  0  0  0  0
  143.4905   72.3391  220.5192 H   0  0  0  0  0  0  0  0  0  0  0  0
  139.4838   73.8191  219.9858 H   0  0  0  0  0  0  0  0  0  0  0  0
  139.0863   72.2666  218.9934 H   0  0  0  0  0  0  0  0  0  0  0  0
  139.6040   70.9520  220.7830 H   0  0  0  0  0  0  0  0  0  0  0  0
  139.1605   70.0425  222.1243 H   0  0  0  0  0  0  0  0  0  0  0  0
  139.1115   68.3882  223.9758 H   0  0  0  0  0  0  0  0  0  0  0  0
  139.6276   67.8494  226.3091 H   0  0  0  0  0  0  0  0  0  0  0  0
  141.4979   70.8400  228.7528 H   0  0  0  0  0  0  0  0  0  0  0  0
  141.5255   72.4623  226.8710 H   0  0  0  0  0  0  0  0  0  0  0  0
  141.6809   79.6052  220.3712 H   0  0  0  0  0  0  0  0  0  0  0  0
  142.7508   81.4662  221.6047 H   0  0  0  0  0  0  0  0  0  0  0  0
  142.9721   81.3350  224.0752 H   0  0  0  0  0  0  0  0  0  0  0  0
  142.1236   79.3473  225.2801 H   0  0  0  0  0  0  0  0  0  0  0  0
  141.0630   77.4983  224.0371 H   0  0  0  0  0  0  0  0  0  0  0  0
  1  2  1  0
  2  3  1  0
  3  4  1  0
  4  5  2  0
  4  6  1  0
  6  7  1  0
  7  8  1  0
  8  9  1  0
  9 10  1  0
 10 11  1  0
 11 12  1  0
 12 13  2  0
 12 14  1  0
 14 15  1  0
 15 16  1  0
 16 17  2  0
 16 18  1  0
 18 19  2  0
 19 20  1  0
 20 21  2  0
 21 22  1  0
 22 23  2  0
 23 24  1  0
 23 25  1  0
 25 26  2  0
 26 27  1  0
 27 28  2  0
  2 29  1  0
 29 30  2  0
 30 31  1  0
 31 32  2  0
 32 33  1  0
 33 34  2  0
 11  6  1  0
 28 18  1  0
 34 29  1  0
 27 21  1  0
  1 35  1  0
  1 36  1  0
  1 37  1  0
  2 38  1  6
  3 39  1  0
  6 40  1  1
  7 41  1  0
  7 42  1  0
  8 43  1  0
  8 44  1  0
  9 45  1  0
  9 46  1  0
 10 47  1  0
 10 48  1  0
 14 49  1  0
 14 50  1  0
 15 51  1  0
 19 52  1  0
 20 53  1  0
 22 54  1  0
 25 55  1  0
 26 56  1  0
 30 57  1  0
 31 58  1  0
 32 59  1  0
 33 60  1  0
 34 61  1  0
M  END
>  <smiles>  (10) 
C[C@H](NC(=O)C1CCCCN1C(=O)CNC(=O)c1ccc2cc(Cl)ccc2n1)c1ccccc1

>  <score_type>  (10) 
oracle

>  <origin>  (10) 
autodockgpu

>  <m_score__min__energy>  (10) 
-9.5299999999999994

>  <m_primary>  (10) 
energy

>  <rmsd>  (10) 
3.431075982723545

>  <m_score__min__rmsd>  (10) 
3.431075982723545

>  <meeko>  (10) 
{"free_energy": -9.24, "intermolecular_energy": -11.33, "internal_energy": -2.03, "cluster_size": 13, "cluster_id": 1, "rank_in_cluster": 5}

>  <energy>  (10) 
-8.83

>  <cluster_rmsd>  (10) 
1.46

>  <cluster>  (10) 
1

$$$$

     RDKit          3D

 61 64  0  0  1  0  0  0  0  0999 V2000
  139.2050   78.1640  222.8200 C   0  0  0  0  0  0  0  0  0  0  0  0
  140.3790   78.6160  222.0000 C   0  0  2  0  0  0  0  0  0  0  0  0
  141.1850   77.5300  221.4910 N   0  0  0  0  0  0  0  0  0  0  0  0
  141.5010   77.4160  220.1050 C   0  0  0  0  0  0  0  0  0  0  0  0
  141.0430   78.3260  219.3600 O   0  0  0  0  0  0  0  0  0  0  0  0
  142.2900   76.3600  219.5360 C   0  0  2  0  0  0  0  0  0  0  0  0
  142.5580   76.3480  218.0690 C   0  0  0  0  0  0  0  0  0  0  0  0
  143.6020   75.3150  217.8270 C   0  0  0  0  0  0  0  0  0  0  0  0
  144.0730   74.5080  218.9760 C   0  0  0  0  0  0  0  0  0  0  0  0
  142.9810   74.0470  219.9390 C   0  0  0  0  0  0  0  0  0  0  0  0
  141.8420   74.9780  219.8160 N   0  0  0  0  0  0  0  0  0  0  0  0
  140.4980   74.6340  219.9310 C   0  0  0  0  0  0  0  0  0  0  0  0
  139.9680   74.1560  218.8290 O   0  0  0  0  0  0  0  0  0  0  0  0
  139.5740   74.7010  221.0390 C   0  0  0  0  0  0  0  0  0  0  0  0
  139.6570   73.7740  222.1080 N   0  0  0  0  0  0  0  0  0  0  0  0
  139.8830   72.3560  221.9310 C   0  0  0  0  0  0  0  0  0  0  0  0
  140.0220   71.8960  220.7500 O   0  0  0  0  0  0  0  0  0  0  0  0
  139.9480   71.4730  223.0990 C   0  0  0  0  0  0  0  0  0  0  0  0
  139.4730   70.1870  222.9650 C   0  0  0  0  0  0  0  0  0  0  0  0
  139.4980   69.2910  224.0170 C   0  0  0  0  0  0  0  0  0  0  0  0
  140.0210   69.7200  225.2370 C   0  0  0  0  0  0  0  0  0  0  0  0
  140.0640   68.8510  226.3220 C   0  0  0  0  0  0  0  0  0  0  0  0
  140.5890   69.3140  227.5090 C   0  0  0  0  0  0  0  0  0  0  0  0
  140.6620   68.2490  228.9020 Cl  0  0  0  0  0  0  0  0  0  0  0  0
  141.0540   70.6140  227.5980 C   0  0  0  0  0  0  0  0  0  0  0  0
  141.0210   71.4950  226.5350 C   0  0  0  0  0  0  0  0  0  0  0  0
  140.4960   71.0240  225.3540 C   0  0  0  0  0  0  0  0  0  0  0  0
  140.4460   71.8610  224.2820 N   0  0  0  0  0  0  0  0  0  0  0  0
  141.2660   79.5280  222.7440 C   0  0  0  0  0  0  0  0  0  0  0  0
  142.6390   79.3940  222.7130 C   0  0  0  0  0  0  0  0  0  0  0  0
  143.4880   80.2450  223.4090 C   0  0  0  0  0  0  0  0  0  0  0  0
  142.9480   81.2640  224.1600 C   0  0  0  0  0  0  0  0  0  0  0  0
  141.5850   81.4250  224.2120 C   0  0  0  0  0  0  0  0  0  0  0  0
  140.7580   80.5660  223.5120 C   0  0  0  0  0  0  0  0  0  0  0  0
  139.4469   78.2571  223.8890 H   0  0  0  0  0  0  0  0  0  0  0  0
  138.3314   78.7901  222.5858 H   0  0  0  0  0  0  0  0  0  0  0  0
  138.9768   77.1137  222.5858 H   0  0  0  0  0  0  0  0  0  0  0  0
  139.9197   79.1432  221.1508 H   0  0  0  0  0  0  0  0  0  0  0  0
  141.5340   76.8400  222.2120 H   0  0  0  0  0  0  0  0  0  0  0  0
  143.2052   76.6411  220.0777 H   0  0  0  0  0  0  0  0  0  0  0  0
  141.6399   76.0936  217.5191 H   0  0  0  0  0  0  0  0  0  0  0  0
  142.8952   77.3362  217.7229 H   0  0  0  0  0  0  0  0  0  0  0  0
  143.1996   74.6144  217.0805 H   0  0  0  0  0  0  0  0  0  0  0  0
  144.4872   75.8914  217.5200 H   0  0  0  0  0  0  0  0  0  0  0  0
  144.5769   73.6140  218.5800 H   0  0  0  0  0  0  0  0  0  0  0  0
  144.7358   75.1647  219.5585 H   0  0  0  0  0  0  0  0  0  0  0  0
  142.6598   73.0276  219.6788 H   0  0  0  0  0  0  0  0  0  0  0  0
  143.3598   74.0407  220.9717 H   0  0  0  0  0  0  0  0  0  0  0  0
  139.6864   75.7017  221.4816 H   0  0  0  0  0  0  0  0  0  0  0  0
  138.6111   74.4492  220.5706 H   0  0  0  0  0  0  0  0  0  0  0  0
  139.5560   74.0730  223.1250 H   0  0  0  0  0  0  0  0  0  0  0  0
  139.0634   69.8650  221.9962 H   0  0  0  0  0  0  0  0  0  0  0  0
  139.1156   68.2668  223.8955 H   0  0  0  0  0  0  0  0  0  0  0  0
  139.6886   67.8207  226.2349 H   0  0  0  0  0  0  0  0  0  0  0  0
  141.4677   70.9607  228.5565 H   0  0  0  0  0  0  0  0  0  0  0  0
  141.3967   72.5246  226.6283 H   0  0  0  0  0  0  0  0  0  0  0  0
  143.0779   78.5823  222.1143 H   0  0  0  0  0  0  0  0  0  0  0  0
  144.5781   80.1062  223.3605 H   0  0  0  0  0  0  0  0  0  0  0  0
  143.6059   81.9474  224.7169 H   0  0  0  0  0  0  0  0  0  0  0  0
  141.1506   82.2386  224.8115 H   0  0  0  0  0  0  0  0  0  0  0  0
  139.6687   80.7093  223.5653 H   0  0  0  0  0  0  0  0  0  0  0  0
  1  2  1  0
  2  3  1  0
  3  4  1  0
  4  5  2  0
  4  6  1  0
  6  7  1  0
  7  8  1  0
  8  9  1  0
  9 10  1  0
 10 11  1  0
 11 12  1  0
 12 13  2  0
 12 14  1  0
 14 15  1  0
 15 16  1  0
 16 17  2  0
 16 18  1  0
 18 19  2  0
 19 20  1  0
 20 21  2  0
 21 22  1  0
 22 23  2  0
 23 24  1  0
 23 25  1  0
 25 26  2  0
 26 27  1  0
 27 28  2  0
  2 29  1  0
 29 30  2  0
 30 31  1  0
 31 32  2  0
 32 33  1  0
 33 34  2  0
 11  6  1  0
 28 18  1  0
 34 29  1  0
 27 21  1  0
  1 35  1  0
  1 36  1  0
  1 37  1  0
  2 38  1  6
  3 39  1  0
  6 40  1  1
  7 41  1  0
  7 42  1  0
  8 43  1  0
  8 44  1  0
  9 45  1  0
  9 46  1  0
 10 47  1  0
 10 48  1  0
 14 49  1  0
 14 50  1  0
 15 51  1  0
 19 52  1  0
 20 53  1  0
 22 54  1  0
 25 55  1  0
 26 56  1  0
 30 57  1  0
 31 58  1  0
 32 59  1  0
 33 60  1  0
 34 61  1  0
M  END
>  <smiles>  (11) 
C[C@H](NC(=O)C1CCCCN1C(=O)CNC(=O)c1ccc2cc(Cl)ccc2n1)c1ccccc1

>  <score_type>  (11) 
oracle

>  <origin>  (11) 
autodockgpu

>  <m_score__min__energy>  (11) 
-9.5299999999999994

>  <m_primary>  (11) 
energy

>  <rmsd>  (11) 
2.938666886138785

>  <m_score__min__rmsd>  (11) 
2.938666886138785

>  <meeko>  (11) 
{"free_energy": -9.34, "intermolecular_energy": -11.43, "internal_energy": -2.08, "cluster_size": 13, "cluster_id": 1, "rank_in_cluster": 4}

>  <energy>  (11) 
-8.73

>  <cluster_rmsd>  (11) 
1.41

>  <cluster>  (11) 
1

$$$$

     RDKit          3D

 61 64  0  0  1  0  0  0  0  0999 V2000
  142.4150   80.5050  223.7140 C   0  0  0  0  0  0  0  0  0  0  0  0
  141.4410   79.3620  223.7170 C   0  0  2  0  0  0  0  0  0  0  0  0
  141.8050   78.2860  222.8250 N   0  0  0  0  0  0  0  0  0  0  0  0
  141.8050   78.4530  221.4090 C   0  0  0  0  0  0  0  0  0  0  0  0
  141.4770   79.5980  220.9900 O   0  0  0  0  0  0  0  0  0  0  0  0
  142.1520   77.4230  220.4700 C   0  0  2  0  0  0  0  0  0  0  0  0
  142.2030   77.7410  219.0130 C   0  0  0  0  0  0  0  0  0  0  0  0
  142.8400   76.5780  218.3380 C   0  0  0  0  0  0  0  0  0  0  0  0
  143.1940   75.3960  219.1570 C   0  0  0  0  0  0  0  0  0  0  0  0
  142.1540   74.9910  220.2000 C   0  0  0  0  0  0  0  0  0  0  0  0
  141.3460   76.1830  220.5250 N   0  0  0  0  0  0  0  0  0  0  0  0
  139.9890   76.1820  220.8360 C   0  0  0  0  0  0  0  0  0  0  0  0
  139.4760   77.3770  221.0140 O   0  0  0  0  0  0  0  0  0  0  0  0
  139.0370   75.1090  220.9990 C   0  0  0  0  0  0  0  0  0  0  0  0
  139.1980   74.1470  222.0280 N   0  0  0  0  0  0  0  0  0  0  0  0
  139.7400   72.8220  221.8160 C   0  0  0  0  0  0  0  0  0  0  0  0
  140.1020   72.4840  220.6410 O   0  0  0  0  0  0  0  0  0  0  0  0
  139.8630   71.8930  222.9440 C   0  0  0  0  0  0  0  0  0  0  0  0
  139.4440   70.5940  222.7590 C   0  0  0  0  0  0  0  0  0  0  0  0
  139.5270   69.6550  223.7700 C   0  0  0  0  0  0  0  0  0  0  0  0
  140.0490   70.0530  225.0000 C   0  0  0  0  0  0  0  0  0  0  0  0
  140.1490   69.1410  226.0450 C   0  0  0  0  0  0  0  0  0  0  0  0
  140.6720   69.5760  227.2440 C   0  0  0  0  0  0  0  0  0  0  0  0
  140.8150   68.4550  228.5860 Cl  0  0  0  0  0  0  0  0  0  0  0  0
  141.0800   70.8900  227.3840 C   0  0  0  0  0  0  0  0  0  0  0  0
  140.9900   71.8140  226.3610 C   0  0  0  0  0  0  0  0  0  0  0  0
  140.4670   71.3710  225.1680 C   0  0  0  0  0  0  0  0  0  0  0  0
  140.3620   72.2510  224.1350 N   0  0  0  0  0  0  0  0  0  0  0  0
  140.0720   79.7900  223.3770 C   0  0  0  0  0  0  0  0  0  0  0  0
  139.0070   78.9130  223.4130 C   0  0  0  0  0  0  0  0  0  0  0  0
  137.7110   79.3010  223.0950 C   0  0  0  0  0  0  0  0  0  0  0  0
  137.4720   80.6060  222.7310 C   0  0  0  0  0  0  0  0  0  0  0  0
  138.5100   81.5030  222.6860 C   0  0  0  0  0  0  0  0  0  0  0  0
  139.7920   81.0970  223.0050 C   0  0  0  0  0  0  0  0  0  0  0  0
  142.6541   80.7856  224.7504 H   0  0  0  0  0  0  0  0  0  0  0  0
  143.3358   80.2008  223.1947 H   0  0  0  0  0  0  0  0  0  0  0  0
  141.9685   81.3658  223.1947 H   0  0  0  0  0  0  0  0  0  0  0  0
  141.4752   78.9892  224.7513 H   0  0  0  0  0  0  0  0  0  0  0  0
  142.0860   77.3790  223.2900 H   0  0  0  0  0  0  0  0  0  0  0  0
  143.1737   77.2975  220.8579 H   0  0  0  0  0  0  0  0  0  0  0  0
  141.1857   77.8937  218.6235 H   0  0  0  0  0  0  0  0  0  0  0  0
  142.7749   78.6629  218.8314 H   0  0  0  0  0  0  0  0  0  0  0  0
  142.1463   76.2359  217.5558 H   0  0  0  0  0  0  0  0  0  0  0  0
  143.8086   76.9651  217.9887 H   0  0  0  0  0  0  0  0  0  0  0  0
  143.3439   74.5440  218.4776 H   0  0  0  0  0  0  0  0  0  0  0  0
  144.0974   75.6745  219.7195 H   0  0  0  0  0  0  0  0  0  0  0  0
  141.5062   74.2002  219.7938 H   0  0  0  0  0  0  0  0  0  0  0  0
  142.6489   74.6066  221.1040 H   0  0  0  0  0  0  0  0  0  0  0  0
  138.0567   75.5810  221.1611 H   0  0  0  0  0  0  0  0  0  0  0  0
  139.1792   74.5148  220.0843 H   0  0  0  0  0  0  0  0  0  0  0  0
  138.9250   74.3480  223.0370 H   0  0  0  0  0  0  0  0  0  0  0  0
  139.0333   70.2966  221.7829 H   0  0  0  0  0  0  0  0  0  0  0  0
  139.1899   68.6205  223.6083 H   0  0  0  0  0  0  0  0  0  0  0  0
  139.8193   68.0993  225.9181 H   0  0  0  0  0  0  0  0  0  0  0  0
  141.4936   71.2130  228.3507 H   0  0  0  0  0  0  0  0  0  0  0  0
  141.3208   72.8546  226.4939 H   0  0  0  0  0  0  0  0  0  0  0  0
  139.1908   77.8683  223.7041 H   0  0  0  0  0  0  0  0  0  0  0  0
  136.8866   78.5738  223.1339 H   0  0  0  0  0  0  0  0  0  0  0  0
  136.4519   80.9297  222.4767 H   0  0  0  0  0  0  0  0  0  0  0  0
  138.3211   82.5470  222.3955 H   0  0  0  0  0  0  0  0  0  0  0  0
  140.6118   81.8292  222.9629 H   0  0  0  0  0  0  0  0  0  0  0  0
  1  2  1  0
  2  3  1  0
  3  4  1  0
  4  5  2  0
  4  6  1  0
  6  7  1  0
  7  8  1  0
  8  9  1  0
  9 10  1  0
 10 11  1  0
 11 12  1  0
 12 13  2  0
 12 14  1  0
 14 15  1  0
 15 16  1  0
 16 17  2  0
 16 18  1  0
 18 19  2  0
 19 20  1  0
 20 21  2  0
 21 22  1  0
 22 23  2  0
 23 24  1  0
 23 25  1  0
 25 26  2  0
 26 27  1  0
 27 28  2  0
  2 29  1  0
 29 30  2  0
 30 31  1  0
 31 32  2  0
 32 33  1  0
 33 34  2  0
 11  6  1  0
 28 18  1  0
 34 29  1  0
 27 21  1  0
  1 35  1  0
  1 36  1  0
  1 37  1  0
  2 38  1  1
  3 39  1  0
  6 40  1  1
  7 41  1  0
  7 42  1  0
  8 43  1  0
  8 44  1  0
  9 45  1  0
  9 46  1  0
 10 47  1  0
 10 48  1  0
 14 49  1  0
 14 50  1  0
 15 51  1  0
 19 52  1  0
 20 53  1  0
 22 54  1  0
 25 55  1  0
 26 56  1  0
 30 57  1  0
 31 58  1  0
 32 59  1  0
 33 60  1  0
 34 61  1  0
M  END
>  <smiles>  (12) 
C[C@H](NC(=O)C1CCCCN1C(=O)CNC(=O)c1ccc2cc(Cl)ccc2n1)c1ccccc1

>  <score_type>  (12) 
oracle

>  <origin>  (12) 
autodockgpu

>  <m_score__min__energy>  (12) 
-9.5299999999999994

>  <m_primary>  (12) 
energy

>  <rmsd>  (12) 
2.177328054307555

>  <m_score__min__rmsd>  (12) 
2.177328054307555

>  <meeko>  (12) 
{"free_energy": -9.45, "intermolecular_energy": -11.54, "internal_energy": -1.97, "cluster_size": 13, "cluster_id": 1, "rank_in_cluster": 3}

>  <energy>  (12) 
-8.0

>  <cluster_rmsd>  (12) 
1.72

>  <cluster>  (12) 
1

$$$$

     RDKit          3D

 61 64  0  0  1  0  0  0  0  0999 V2000
  138.3790   70.4960  222.1790 C   0  0  0  0  0  0  0  0  0  0  0  0
  137.8380   70.3850  223.5760 C   0  0  2  0  0  0  0  0  0  0  0  0
  137.0570   71.5290  223.9890 N   0  0  0  0  0  0  0  0  0  0  0  0
  135.7500   71.3850  224.5400 C   0  0  0  0  0  0  0  0  0  0  0  0
  135.3260   70.2010  224.6510 O   0  0  0  0  0  0  0  0  0  0  0  0
  134.9230   72.4800  224.9630 C   0  0  2  0  0  0  0  0  0  0  0  0
  133.5380   72.2130  225.4490 C   0  0  0  0  0  0  0  0  0  0  0  0
  133.0410   73.4760  226.0580 C   0  0  0  0  0  0  0  0  0  0  0  0
  133.9070   74.6760  225.9950 C   0  0  0  0  0  0  0  0  0  0  0  0
  134.6260   74.8910  224.6660 C   0  0  0  0  0  0  0  0  0  0  0  0
  134.7410   73.5820  223.9920 N   0  0  0  0  0  0  0  0  0  0  0  0
  134.6770   73.3690  222.6180 C   0  0  0  0  0  0  0  0  0  0  0  0
  133.7110   72.5650  222.2410 O   0  0  0  0  0  0  0  0  0  0  0  0
  135.4760   73.8720  221.5250 C   0  0  0  0  0  0  0  0  0  0  0  0
  136.4560   74.8730  221.7450 N   0  0  0  0  0  0  0  0  0  0  0  0
  137.8520   74.5920  222.0030 C   0  0  0  0  0  0  0  0  0  0  0  0
  138.2420   73.3780  222.0340 O   0  0  0  0  0  0  0  0  0  0  0  0
  138.7920   75.6950  222.2240 C   0  0  0  0  0  0  0  0  0  0  0  0
  140.1250   75.4720  221.9580 C   0  0  0  0  0  0  0  0  0  0  0  0
  141.0760   76.4590  222.1390 C   0  0  0  0  0  0  0  0  0  0  0  0
  140.6550   77.7030  222.6040 C   0  0  0  0  0  0  0  0  0  0  0  0
  141.5780   78.7250  222.8020 C   0  0  0  0  0  0  0  0  0  0  0  0
  141.1200   79.9400  223.2620 C   0  0  0  0  0  0  0  0  0  0  0  0
  142.2540   81.2540  223.5230 Cl  0  0  0  0  0  0  0  0  0  0  0  0
  139.7720   80.1190  223.5170 C   0  0  0  0  0  0  0  0  0  0  0  0
  138.8360   79.1200  223.3290 C   0  0  0  0  0  0  0  0  0  0  0  0
  139.3030   77.9110  222.8690 C   0  0  0  0  0  0  0  0  0  0  0  0
  138.4120   76.9010  222.6710 N   0  0  0  0  0  0  0  0  0  0  0  0
  138.9010   70.1760  224.5760 C   0  0  0  0  0  0  0  0  0  0  0  0
  138.9740   69.0200  225.3270 C   0  0  0  0  0  0  0  0  0  0  0  0
  139.9700   68.8080  226.2730 C   0  0  0  0  0  0  0  0  0  0  0  0
  140.9210   69.7810  226.4740 C   0  0  0  0  0  0  0  0  0  0  0  0
  140.8760   70.9420  225.7430 C   0  0  0  0  0  0  0  0  0  0  0  0
  139.8770   71.1340  224.8060 C   0  0  0  0  0  0  0  0  0  0  0  0
  139.4558   70.7169  222.2193 H   0  0  0  0  0  0  0  0  0  0  0  0
  138.2192   69.5464  221.6474 H   0  0  0  0  0  0  0  0  0  0  0  0
  137.8581   71.3060  221.6474 H   0  0  0  0  0  0  0  0  0  0  0  0
  137.1799   69.5045  223.5346 H   0  0  0  0  0  0  0  0  0  0  0  0
  137.5240   72.4690  223.8710 H   0  0  0  0  0  0  0  0  0  0  0  0
  135.5690   72.7476  225.8122 H   0  0  0  0  0  0  0  0  0  0  0  0
  132.8924   71.9192  224.6082 H   0  0  0  0  0  0  0  0  0  0  0  0
  133.5300   71.3932  226.1824 H   0  0  0  0  0  0  0  0  0  0  0  0
  132.0962   73.7299  225.5552 H   0  0  0  0  0  0  0  0  0  0  0  0
  132.9704   73.2492  227.1320 H   0  0  0  0  0  0  0  0  0  0  0  0
  133.2798   75.5586  226.1889 H   0  0  0  0  0  0  0  0  0  0  0  0
  134.6954   74.5226  226.7466 H   0  0  0  0  0  0  0  0  0  0  0  0
  134.0488   75.5851  224.0374 H   0  0  0  0  0  0  0  0  0  0  0  0
  135.6237   75.3217  224.8367 H   0  0  0  0  0  0  0  0  0  0  0  0
  136.0020   73.0064  221.0960 H   0  0  0  0  0  0  0  0  0  0  0  0
  134.7350   74.3884  220.8972 H   0  0  0  0  0  0  0  0  0  0  0  0
  136.2180   75.9100  221.7330 H   0  0  0  0  0  0  0  0  0  0  0  0
  140.4408   74.4838  221.5924 H   0  0  0  0  0  0  0  0  0  0  0  0
  142.1371   76.2672  221.9216 H   0  0  0  0  0  0  0  0  0  0  0  0
  142.6470   78.5668  222.5963 H   0  0  0  0  0  0  0  0  0  0  0  0
  139.4310   81.0979  223.8849 H   0  0  0  0  0  0  0  0  0  0  0  0
  137.7684   79.2839  223.5373 H   0  0  0  0  0  0  0  0  0  0  0  0
  138.2162   68.2380  225.1710 H   0  0  0  0  0  0  0  0  0  0  0  0
  139.9973   67.8740  226.8534 H   0  0  0  0  0  0  0  0  0  0  0  0
  141.7160   69.6292  227.2190 H   0  0  0  0  0  0  0  0  0  0  0  0
  141.6359   71.7211  225.9027 H   0  0  0  0  0  0  0  0  0  0  0  0
  139.8561   72.0701  224.2287 H   0  0  0  0  0  0  0  0  0  0  0  0
  1  2  1  0
  2  3  1  0
  3  4  1  0
  4  5  2  0
  4  6  1  0
  6  7  1  0
  7  8  1  0
  8  9  1  0
  9 10  1  0
 10 11  1  0
 11 12  1  0
 12 13  2  0
 12 14  1  0
 14 15  1  0
 15 16  1  0
 16 17  2  0
 16 18  1  0
 18 19  2  0
 19 20  1  0
 20 21  2  0
 21 22  1  0
 22 23  2  0
 23 24  1  0
 23 25  1  0
 25 26  2  0
 26 27  1  0
 27 28  2  0
  2 29  1  0
 29 30  2  0
 30 31  1  0
 31 32  2  0
 32 33  1  0
 33 34  2  0
 11  6  1  0
 28 18  1  0
 34 29  1  0
 27 21  1  0
  1 35  1  0
  1 36  1  0
  1 37  1  0
  2 38  1  6
  3 39  1  0
  6 40  1  1
  7 41  1  0
  7 42  1  0
  8 43  1  0
  8 44  1  0
  9 45  1  0
  9 46  1  0
 10 47  1  0
 10 48  1  0
 14 49  1  0
 14 50  1  0
 15 51  1  0
 19 52  1  0
 20 53  1  0
 22 54  1  0
 25 55  1  0
 26 56  1  0
 30 57  1  0
 31 58  1  0
 32 59  1  0
 33 60  1  0
 34 61  1  0
M  END
>  <smiles>  (13) 
C[C@H](NC(=O)C1CCCCN1C(=O)CNC(=O)c1ccc2cc(Cl)ccc2n1)c1ccccc1

>  <score_type>  (13) 
oracle

>  <origin>  (13) 
autodockgpu

>  <m_score__min__energy>  (13) 
-9.5299999999999994

>  <m_primary>  (13) 
energy

>  <rmsd>  (13) 
9.54980262815434

>  <m_score__min__rmsd>  (13) 
9.54980262815434

>  <meeko>  (13) 
{"free_energy": -7.89, "intermolecular_energy": -9.97, "internal_energy": -3.18, "cluster_size": 8, "cluster_id": 2, "rank_in_cluster": 7}

>  <energy>  (13) 
-7.58

>  <cluster_rmsd>  (13) 
1.99

>  <cluster>  (13) 
1

$$$$

     RDKit          3D

 61 64  0  0  1  0  0  0  0  0999 V2000
  140.9340   71.5070  223.3900 C   0  0  0  0  0  0  0  0  0  0  0  0
  140.1720   70.4180  224.0890 C   0  0  2  0  0  0  0  0  0  0  0  0
  138.8050   70.2850  223.6400 N   0  0  0  0  0  0  0  0  0  0  0  0
  138.1210   69.0350  223.6790 C   0  0  0  0  0  0  0  0  0  0  0  0
  138.7800   68.0600  224.1380 O   0  0  0  0  0  0  0  0  0  0  0  0
  136.7670   68.8360  223.2440 C   0  0  2  0  0  0  0  0  0  0  0  0
  136.4930   68.5030  221.8160 C   0  0  0  0  0  0  0  0  0  0  0  0
  135.0640   68.0970  221.7320 C   0  0  0  0  0  0  0  0  0  0  0  0
  134.2370   68.1770  222.9580 C   0  0  0  0  0  0  0  0  0  0  0  0
  134.4600   69.4210  223.8150 C   0  0  0  0  0  0  0  0  0  0  0  0
  135.8150   69.9320  223.5310 N   0  0  0  0  0  0  0  0  0  0  0  0
  136.1870   71.2740  223.5120 C   0  0  0  0  0  0  0  0  0  0  0  0
  136.8190   71.6730  224.5920 O   0  0  0  0  0  0  0  0  0  0  0  0
  136.0110   72.3120  222.5240 C   0  0  0  0  0  0  0  0  0  0  0  0
  136.8650   73.4430  222.5000 N   0  0  0  0  0  0  0  0  0  0  0  0
  138.2130   73.4240  221.9730 C   0  0  0  0  0  0  0  0  0  0  0  0
  138.6740   72.3360  221.4950 O   0  0  0  0  0  0  0  0  0  0  0  0
  139.0250   74.6450  221.9970 C   0  0  0  0  0  0  0  0  0  0  0  0
  140.3050   74.5800  221.4920 C   0  0  0  0  0  0  0  0  0  0  0  0
  141.1360   75.6850  221.4770 C   0  0  0  0  0  0  0  0  0  0  0  0
  140.6460   76.8850  221.9900 C   0  0  0  0  0  0  0  0  0  0  0  0
  141.4480   78.0210  221.9940 C   0  0  0  0  0  0  0  0  0  0  0  0
  140.9260   79.1880  222.5100 C   0  0  0  0  0  0  0  0  0  0  0  0
  141.9070   80.6440  222.5330 Cl  0  0  0  0  0  0  0  0  0  0  0  0
  139.6350   79.2070  223.0060 C   0  0  0  0  0  0  0  0  0  0  0  0
  138.8200   78.0920  223.0140 C   0  0  0  0  0  0  0  0  0  0  0  0
  139.3500   76.9320  222.4970 C   0  0  0  0  0  0  0  0  0  0  0  0
  138.5780   75.8110  222.4850 N   0  0  0  0  0  0  0  0  0  0  0  0
  140.1550   70.5940  225.5520 C   0  0  0  0  0  0  0  0  0  0  0  0
  139.5870   69.6560  226.3900 C   0  0  0  0  0  0  0  0  0  0  0  0
  139.5620   69.8080  227.7710 C   0  0  0  0  0  0  0  0  0  0  0  0
  140.1230   70.9330  228.3320 C   0  0  0  0  0  0  0  0  0  0  0  0
  140.6960   71.8850  227.5260 C   0  0  0  0  0  0  0  0  0  0  0  0
  140.7100   71.7140  226.1530 C   0  0  0  0  0  0  0  0  0  0  0  0
  141.3968   72.1684  224.1372 H   0  0  0  0  0  0  0  0  0  0  0  0
  141.7176   71.0602  222.7604 H   0  0  0  0  0  0  0  0  0  0  0  0
  140.2458   72.0901  222.7604 H   0  0  0  0  0  0  0  0  0  0  0  0
  140.7202   69.5015  223.8253 H   0  0  0  0  0  0  0  0  0  0  0  0
  138.3460   71.1740  223.2990 H   0  0  0  0  0  0  0  0  0  0  0  0
  136.6096   67.9449  223.8695 H   0  0  0  0  0  0  0  0  0  0  0  0
  136.6739   69.3829  221.1812 H   0  0  0  0  0  0  0  0  0  0  0  0
  137.1525   67.6947  221.4672 H   0  0  0  0  0  0  0  0  0  0  0  0
  134.5875   68.7380  220.9756 H   0  0  0  0  0  0  0  0  0  0  0  0
  135.1008   67.0224  221.4997 H   0  0  0  0  0  0  0  0  0  0  0  0
  133.1793   68.1571  222.6565 H   0  0  0  0  0  0  0  0  0  0  0  0
  134.5335   67.3207  223.5815 H   0  0  0  0  0  0  0  0  0  0  0  0
  133.7116   70.1869  223.5635 H   0  0  0  0  0  0  0  0  0  0  0  0
  134.3603   69.1734  224.8821 H   0  0  0  0  0  0  0  0  0  0  0  0
  136.1035   71.8280  221.5405 H   0  0  0  0  0  0  0  0  0  0  0  0
  135.0379   72.7464  222.7968 H   0  0  0  0  0  0  0  0  0  0  0  0
  136.5600   74.3900  222.8750 H   0  0  0  0  0  0  0  0  0  0  0  0
  140.6753   73.6251  221.0906 H   0  0  0  0  0  0  0  0  0  0  0  0
  142.1563   75.6190  221.0712 H   0  0  0  0  0  0  0  0  0  0  0  0
  142.4728   77.9893  221.5956 H   0  0  0  0  0  0  0  0  0  0  0  0
  139.2405   80.1504  223.4114 H   0  0  0  0  0  0  0  0  0  0  0  0
  137.7962   78.1294  223.4145 H   0  0  0  0  0  0  0  0  0  0  0  0
  139.1374   68.7545  225.9483 H   0  0  0  0  0  0  0  0  0  0  0  0
  139.0999   69.0393  228.4078 H   0  0  0  0  0  0  0  0  0  0  0  0
  140.1121   71.0687  229.4235 H   0  0  0  0  0  0  0  0  0  0  0  0
  141.1446   72.7849  227.9721 H   0  0  0  0  0  0  0  0  0  0  0  0
  141.1734   72.4865  225.5217 H   0  0  0  0  0  0  0  0  0  0  0  0
  1  2  1  0
  2  3  1  0
  3  4  1  0
  4  5  2  0
  4  6  1  0
  6  7  1  0
  7  8  1  0
  8  9  1  0
  9 10  1  0
 10 11  1  0
 11 12  1  0
 12 13  2  0
 12 14  1  0
 14 15  1  0
 15 16  1  0
 16 17  2  0
 16 18  1  0
 18 19  2  0
 19 20  1  0
 20 21  2  0
 21 22  1  0
 22 23  2  0
 23 24  1  0
 23 25  1  0
 25 26  2  0
 26 27  1  0
 27 28  2  0
  2 29  1  0
 29 30  2  0
 30 31  1  0
 31 32  2  0
 32 33  1  0
 33 34  2  0
 11  6  1  0
 28 18  1  0
 34 29  1  0
 27 21  1  0
  1 35  1  0
  1 36  1  0
  1 37  1  0
  2 38  1  1
  3 39  1  0
  6 40  1  1
  7 41  1  0
  7 42  1  0
  8 43  1  0
  8 44  1  0
  9 45  1  0
  9 46  1  0
 10 47  1  0
 10 48  1  0
 14 49  1  0
 14 50  1  0
 15 51  1  0
 19 52  1  0
 20 53  1  0
 22 54  1  0
 25 55  1  0
 26 56  1  0
 30 57  1  0
 31 58  1  0
 32 59  1  0
 33 60  1  0
 34 61  1  0
M  END
>  <smiles>  (14) 
C[C@H](NC(=O)C1CCCCN1C(=O)CNC(=O)c1ccc2cc(Cl)ccc2n1)c1ccccc1

>  <score_type>  (14) 
oracle

>  <origin>  (14) 
autodockgpu

>  <m_score__min__energy>  (14) 
-9.5299999999999994

>  <m_primary>  (14) 
energy

>  <rmsd>  (14) 
9.172161831611996

>  <m_score__min__rmsd>  (14) 
9.172161831611996

>  <meeko>  (14) 
{"free_energy": -7.4, "intermolecular_energy": -9.49, "internal_energy": -3.76, "cluster_size": 8, "cluster_id": 2, "rank_in_cluster": 8}

>  <energy>  (14) 
-9.22

>  <cluster_rmsd>  (14) 
0.0

>  <cluster>  (14) 
2

$$$$

     RDKit          3D

 61 64  0  0  1  0  0  0  0  0999 V2000
  140.1170   78.8360  219.8650 C   0  0  0  0  0  0  0  0  0  0  0  0
  141.5540   78.7800  220.2980 C   0  0  2  0  0  0  0  0  0  0  0  0
  142.0330   77.4400  220.5510 N   0  0  0  0  0  0  0  0  0  0  0  0
  142.6760   76.6700  219.5370 C   0  0  0  0  0  0  0  0  0  0  0  0
  142.8060   77.2360  218.4160 O   0  0  0  0  0  0  0  0  0  0  0  0
  143.1690   75.3340  219.7220 C   0  0  2  0  0  0  0  0  0  0  0  0
  144.0520   74.7240  218.6870 C   0  0  0  0  0  0  0  0  0  0  0  0
  144.6080   73.4740  219.2730 C   0  0  0  0  0  0  0  0  0  0  0  0
  144.1520   73.0660  220.6220 C   0  0  0  0  0  0  0  0  0  0  0  0
  142.6580   73.2420  220.8850 C   0  0  0  0  0  0  0  0  0  0  0  0
  142.1540   74.2860  219.9710 N   0  0  0  0  0  0  0  0  0  0  0  0
  140.8910   74.3100  219.3850 C   0  0  0  0  0  0  0  0  0  0  0  0
  140.9020   74.5110  218.0880 O   0  0  0  0  0  0  0  0  0  0  0  0
  139.5670   74.1500  219.9380 C   0  0  0  0  0  0  0  0  0  0  0  0
  138.9010   75.2430  220.5490 N   0  0  0  0  0  0  0  0  0  0  0  0
  139.4040   75.9480  221.7080 C   0  0  0  0  0  0  0  0  0  0  0  0
  140.5120   75.5810  222.2210 O   0  0  0  0  0  0  0  0  0  0  0  0
  138.6410   77.0650  222.2750 C   0  0  0  0  0  0  0  0  0  0  0  0
  137.2670   77.0140  222.1950 C   0  0  0  0  0  0  0  0  0  0  0  0
  136.4730   78.0250  222.7050 C   0  0  0  0  0  0  0  0  0  0  0  0
  137.1000   79.1140  223.3090 C   0  0  0  0  0  0  0  0  0  0  0  0
  136.3400   80.1540  223.8350 C   0  0  0  0  0  0  0  0  0  0  0  0
  136.9980   81.2110  224.4250 C   0  0  0  0  0  0  0  0  0  0  0  0
  136.0750   82.5420  225.0990 Cl  0  0  0  0  0  0  0  0  0  0  0  0
  138.3800   81.2200  224.4810 C   0  0  0  0  0  0  0  0  0  0  0  0
  139.1570   80.2000  223.9670 C   0  0  0  0  0  0  0  0  0  0  0  0
  138.4910   79.1480  223.3800 C   0  0  0  0  0  0  0  0  0  0  0  0
  139.2190   78.1230  222.8610 N   0  0  0  0  0  0  0  0  0  0  0  0
  141.8100   79.5880  221.5040 C   0  0  0  0  0  0  0  0  0  0  0  0
  142.2850   79.0240  222.6700 C   0  0  0  0  0  0  0  0  0  0  0  0
  142.5300   79.7720  223.8150 C   0  0  0  0  0  0  0  0  0  0  0  0
  142.2930   81.1270  223.7940 C   0  0  0  0  0  0  0  0  0  0  0  0
  141.8200   81.7190  222.6490 C   0  0  0  0  0  0  0  0  0  0  0  0
  141.5830   80.9570  221.5200 C   0  0  0  0  0  0  0  0  0  0  0  0
  139.4674   78.8613  220.7523 H   0  0  0  0  0  0  0  0  0  0  0  0
  139.9505   79.7413  219.2628 H   0  0  0  0  0  0  0  0  0  0  0  0
  139.8806   77.9464  219.2628 H   0  0  0  0  0  0  0  0  0  0  0  0
  142.1035   79.1956  219.4405 H   0  0  0  0  0  0  0  0  0  0  0  0
  141.8910   77.0800  221.5340 H   0  0  0  0  0  0  0  0  0  0  0  0
  143.7630   75.5881  220.6123 H   0  0  0  0  0  0  0  0  0  0  0  0
  143.4700   74.4914  217.7830 H   0  0  0  0  0  0  0  0  0  0  0  0
  144.8576   75.4159  218.4003 H   0  0  0  0  0  0  0  0  0  0  0  0
  144.3604   72.6533  218.5837 H   0  0  0  0  0  0  0  0  0  0  0  0
  145.6791   73.6886  219.4025 H   0  0  0  0  0  0  0  0  0  0  0  0
  144.3982   72.0024  220.7571 H   0  0  0  0  0  0  0  0  0  0  0  0
  144.6669   73.7302  221.3317 H   0  0  0  0  0  0  0  0  0  0  0  0
  142.1316   72.2948  220.6963 H   0  0  0  0  0  0  0  0  0  0  0  0
  142.4860   73.5345  221.9313 H   0  0  0  0  0  0  0  0  0  0  0  0
  138.9217   73.8091  219.1150 H   0  0  0  0  0  0  0  0  0  0  0  0
  139.7343   73.4627  220.7804 H   0  0  0  0  0  0  0  0  0  0  0  0
  137.9740   75.6160  220.1840 H   0  0  0  0  0  0  0  0  0  0  0  0
  136.7894   76.1479  221.7137 H   0  0  0  0  0  0  0  0  0  0  0  0
  135.3765   77.9714  222.6360 H   0  0  0  0  0  0  0  0  0  0  0  0
  135.2415   80.1329  223.7812 H   0  0  0  0  0  0  0  0  0  0  0  0
  138.8820   82.0762  224.9552 H   0  0  0  0  0  0  0  0  0  0  0  0
  140.2552   80.2272  224.0240 H   0  0  0  0  0  0  0  0  0  0  0  0
  142.4771   77.9412  222.6941 H   0  0  0  0  0  0  0  0  0  0  0  0
  142.9087   79.2869  224.7267 H   0  0  0  0  0  0  0  0  0  0  0  0
  142.4818   81.7342  224.6916 H   0  0  0  0  0  0  0  0  0  0  0  0
  141.6292   82.8022  222.6299 H   0  0  0  0  0  0  0  0  0  0  0  0
  141.2049   81.4483  220.6114 H   0  0  0  0  0  0  0  0  0  0  0  0
  1  2  1  0
  2  3  1  0
  3  4  1  0
  4  5  2  0
  4  6  1  0
  6  7  1  0
  7  8  1  0
  8  9  1  0
  9 10  1  0
 10 11  1  0
 11 12  1  0
 12 13  2  0
 12 14  1  0
 14 15  1  0
 15 16  1  0
 16 17  2  0
 16 18  1  0
 18 19  2  0
 19 20  1  0
 20 21  2  0
 21 22  1  0
 22 23  2  0
 23 24  1  0
 23 25  1  0
 25 26  2  0
 26 27  1  0
 27 28  2  0
  2 29  1  0
 29 30  2  0
 30 31  1  0
 31 32  2  0
 32 33  1  0
 33 34  2  0
 11  6  1  0
 28 18  1  0
 34 29  1  0
 27 21  1  0
  1 35  1  0
  1 36  1  0
  1 37  1  0
  2 38  1  6
  3 39  1  0
  6 40  1  1
  7 41  1  0
  7 42  1  0
  8 43  1  0
  8 44  1  0
  9 45  1  0
  9 46  1  0
 10 47  1  0
 10 48  1  0
 14 49  1  0
 14 50  1  0
 15 51  1  0
 19 52  1  0
 20 53  1  0
 22 54  1  0
 25 55  1  0
 26 56  1  0
 30 57  1  0
 31 58  1  0
 32 59  1  0
 33 60  1  0
 34 61  1  0
M  END
>  <smiles>  (15) 
C[C@H](NC(=O)C1CCCCN1C(=O)CNC(=O)c1ccc2cc(Cl)ccc2n1)c1ccccc1

>  <score_type>  (15) 
oracle

>  <origin>  (15) 
autodockgpu

>  <m_score__min__energy>  (15) 
-9.5299999999999994

>  <m_primary>  (15) 
energy

>  <rmsd>  (15) 
6.30705810154324

>  <m_score__min__rmsd>  (15) 
6.30705810154324

>  <meeko>  (15) 
{"free_energy": -7.19, "intermolecular_energy": -9.28, "internal_energy": -4.11, "cluster_size": 6, "cluster_id": 10, "rank_in_cluster": 3}

>  <energy>  (15) 
-9.1

>  <cluster_rmsd>  (15) 
0.68

>  <cluster>  (15) 
2

$$$$

     RDKit          3D

 61 64  0  0  1  0  0  0  0  0999 V2000
  139.1630   77.3360  221.9790 C   0  0  0  0  0  0  0  0  0  0  0  0
  140.4500   77.8230  221.3770 C   0  0  2  0  0  0  0  0  0  0  0  0
  141.4240   76.7760  221.1660 N   0  0  0  0  0  0  0  0  0  0  0  0
  141.5320   76.0920  219.9200 C   0  0  0  0  0  0  0  0  0  0  0  0
  140.7320   76.4640  219.0170 O   0  0  0  0  0  0  0  0  0  0  0  0
  142.4730   75.0420  219.6490 C   0  0  2  0  0  0  0  0  0  0  0  0
  143.3360   75.1210  218.4350 C   0  0  0  0  0  0  0  0  0  0  0  0
  144.3700   74.0590  218.5680 C   0  0  0  0  0  0  0  0  0  0  0  0
  144.2990   73.1510  219.7360 C   0  0  0  0  0  0  0  0  0  0  0  0
  142.8960   72.6760  220.1070 C   0  0  0  0  0  0  0  0  0  0  0  0
  141.9290   73.6670  219.5960 N   0  0  0  0  0  0  0  0  0  0  0  0
  140.6590   73.3800  219.1040 C   0  0  0  0  0  0  0  0  0  0  0  0
  140.5310   73.5510  217.8090 O   0  0  0  0  0  0  0  0  0  0  0  0
  139.4510   72.9260  219.7540 C   0  0  0  0  0  0  0  0  0  0  0  0
  139.5150   72.1000  220.9040 N   0  0  0  0  0  0  0  0  0  0  0  0
  139.9660   72.5560  222.2010 C   0  0  0  0  0  0  0  0  0  0  0  0
  140.3280   73.7710  222.3370 O   0  0  0  0  0  0  0  0  0  0  0  0
  140.0030   71.6240  223.3330 C   0  0  0  0  0  0  0  0  0  0  0  0
  139.4950   70.3570  223.1440 C   0  0  0  0  0  0  0  0  0  0  0  0
  139.4920   69.4180  224.1580 C   0  0  0  0  0  0  0  0  0  0  0  0
  140.0200   69.7830  225.3960 C   0  0  0  0  0  0  0  0  0  0  0  0
  140.0360   68.8700  226.4450 C   0  0  0  0  0  0  0  0  0  0  0  0
  140.5670   69.2700  227.6520 C   0  0  0  0  0  0  0  0  0  0  0  0
  140.6060   68.1460  229.0000 Cl  0  0  0  0  0  0  0  0  0  0  0  0
  141.0650   70.5520  227.7970 C   0  0  0  0  0  0  0  0  0  0  0  0
  141.0600   71.4770  226.7700 C   0  0  0  0  0  0  0  0  0  0  0  0
  140.5280   71.0680  225.5690 C   0  0  0  0  0  0  0  0  0  0  0  0
  140.5050   71.9500  224.5330 N   0  0  0  0  0  0  0  0  0  0  0  0
  141.0850   78.8780  222.1860 C   0  0  0  0  0  0  0  0  0  0  0  0
  141.2540   80.1600  221.7040 C   0  0  0  0  0  0  0  0  0  0  0  0
  141.8510   81.1660  222.4530 C   0  0  0  0  0  0  0  0  0  0  0  0
  142.2920   80.8820  223.7250 C   0  0  0  0  0  0  0  0  0  0  0  0
  142.1380   79.6170  224.2350 C   0  0  0  0  0  0  0  0  0  0  0  0
  141.5420   78.6300  223.4720 C   0  0  0  0  0  0  0  0  0  0  0  0
  139.2376   77.3642  223.0761 H   0  0  0  0  0  0  0  0  0  0  0  0
  138.3366   77.9836  221.6509 H   0  0  0  0  0  0  0  0  0  0  0  0
  138.9723   76.3035  221.6509 H   0  0  0  0  0  0  0  0  0  0  0  0
  140.1485   78.2273  220.3994 H   0  0  0  0  0  0  0  0  0  0  0  0
  142.0580   76.5670  221.9860 H   0  0  0  0  0  0  0  0  0  0  0  0
  143.0769   75.2390  220.5471 H   0  0  0  0  0  0  0  0  0  0  0  0
  142.7331   74.9505  217.5309 H   0  0  0  0  0  0  0  0  0  0  0  0
  143.8013   76.1139  218.3474 H   0  0  0  0  0  0  0  0  0  0  0  0
  144.3118   73.4332  217.6652 H   0  0  0  0  0  0  0  0  0  0  0  0
  145.3099   74.6122  218.7115 H   0  0  0  0  0  0  0  0  0  0  0  0
  144.9110   72.2641  219.5150 H   0  0  0  0  0  0  0  0  0  0  0  0
  144.6615   73.7324  220.5966 H   0  0  0  0  0  0  0  0  0  0  0  0
  142.7012   71.6945  219.6502 H   0  0  0  0  0  0  0  0  0  0  0  0
  142.8019   72.5780  221.1986 H   0  0  0  0  0  0  0  0  0  0  0  0
  138.8930   73.8280  220.0456 H   0  0  0  0  0  0  0  0  0  0  0  0
  139.0013   72.2628  219.0004 H   0  0  0  0  0  0  0  0  0  0  0  0
  139.2290   71.0750  220.8810 H   0  0  0  0  0  0  0  0  0  0  0  0
  139.0815   70.0862  222.1613 H   0  0  0  0  0  0  0  0  0  0  0  0
  139.0841   68.4098  223.9930 H   0  0  0  0  0  0  0  0  0  0  0  0
  139.6348   67.8541  226.3145 H   0  0  0  0  0  0  0  0  0  0  0  0
  141.4827   70.8480  228.7706 H   0  0  0  0  0  0  0  0  0  0  0  0
  141.4622   72.4917  226.9064 H   0  0  0  0  0  0  0  0  0  0  0  0
  140.9026   80.3941  220.6882 H   0  0  0  0  0  0  0  0  0  0  0  0
  141.9696   82.1764  222.0347 H   0  0  0  0  0  0  0  0  0  0  0  0
  142.7669   81.6670  224.3319 H   0  0  0  0  0  0  0  0  0  0  0  0
  142.4892   79.3882  225.2520 H   0  0  0  0  0  0  0  0  0  0  0  0
  141.4272   77.6215  223.8959 H   0  0  0  0  0  0  0  0  0  0  0  0
  1  2  1  0
  2  3  1  0
  3  4  1  0
  4  5  2  0
  4  6  1  0
  6  7  1  0
  7  8  1  0
  8  9  1  0
  9 10  1  0
 10 11  1  0
 11 12  1  0
 12 13  2  0
 12 14  1  0
 14 15  1  0
 15 16  1  0
 16 17  2  0
 16 18  1  0
 18 19  2  0
 19 20  1  0
 20 21  2  0
 21 22  1  0
 22 23  2  0
 23 24  1  0
 23 25  1  0
 25 26  2  0
 26 27  1  0
 27 28  2  0
  2 29  1  0
 29 30  2  0
 30 31  1  0
 31 32  2  0
 32 33  1  0
 33 34  2  0
 11  6  1  0
 28 18  1  0
 34 29  1  0
 27 21  1  0
  1 35  1  0
  1 36  1  0
  1 37  1  0
  2 38  1  6
  3 39  1  0
  6 40  1  1
  7 41  1  0
  7 42  1  0
  8 43  1  0
  8 44  1  0
  9 45  1  0
  9 46  1  0
 10 47  1  0
 10 48  1  0
 14 49  1  0
 14 50  1  0
 15 51  1  0
 19 52  1  0
 20 53  1  0
 22 54  1  0
 25 55  1  0
 26 56  1  0
 30 57  1  0
 31 58  1  0
 32 59  1  0
 33 60  1  0
 34 61  1  0
M  END
>  <smiles>  (16) 
C[C@H](NC(=O)C1CCCCN1C(=O)CNC(=O)c1ccc2cc(Cl)ccc2n1)c1ccccc1

>  <score_type>  (16) 
oracle

>  <origin>  (16) 
autodockgpu

>  <m_score__min__energy>  (16) 
-9.5299999999999994

>  <m_primary>  (16) 
energy

>  <rmsd>  (16) 
3.2605206299535903

>  <m_score__min__rmsd>  (16) 
3.2605206299535903

>  <meeko>  (16) 
{"free_energy": -9.48, "intermolecular_energy": -11.57, "internal_energy": -2.06, "cluster_size": 13, "cluster_id": 1, "rank_in_cluster": 2}

>  <energy>  (16) 
-8.3

>  <cluster_rmsd>  (16) 
1.48

>  <cluster>  (16) 
2

$$$$

     RDKit          3D

 61 64  0  0  1  0  0  0  0  0999 V2000
  139.9340   67.4460  225.7330 C   0  0  0  0  0  0  0  0  0  0  0  0
  139.4010   68.7970  225.3500 C   0  0  2  0  0  0  0  0  0  0  0  0
  139.6220   69.1360  223.9630 N   0  0  0  0  0  0  0  0  0  0  0  0
  138.8580   68.5430  222.9150 C   0  0  0  0  0  0  0  0  0  0  0  0
  137.9770   67.7150  223.2770 O   0  0  0  0  0  0  0  0  0  0  0  0
  139.0330   68.8330  221.5200 C   0  0  2  0  0  0  0  0  0  0  0  0
  140.3270   68.5060  220.8550 C   0  0  0  0  0  0  0  0  0  0  0  0
  140.1140   68.6640  219.3900 C   0  0  0  0  0  0  0  0  0  0  0  0
  138.7980   69.1560  218.9200 C   0  0  0  0  0  0  0  0  0  0  0  0
  138.1960   70.2930  219.7420 C   0  0  0  0  0  0  0  0  0  0  0  0
  138.7720   70.2280  221.1000 N   0  0  0  0  0  0  0  0  0  0  0  0
  139.0620   71.3230  221.9100 C   0  0  0  0  0  0  0  0  0  0  0  0
  140.2910   71.3440  222.3690 O   0  0  0  0  0  0  0  0  0  0  0  0
  138.2600   72.4450  222.3390 C   0  0  0  0  0  0  0  0  0  0  0  0
  138.7820   73.7630  222.3050 N   0  0  0  0  0  0  0  0  0  0  0  0
  139.8550   74.1830  221.4300 C   0  0  0  0  0  0  0  0  0  0  0  0
  140.3700   73.3320  220.6330 O   0  0  0  0  0  0  0  0  0  0  0  0
  140.3320   75.5690  221.4700 C   0  0  0  0  0  0  0  0  0  0  0  0
  141.3390   75.9320  220.6020 C   0  0  0  0  0  0  0  0  0  0  0  0
  141.8450   77.2180  220.5750 C   0  0  0  0  0  0  0  0  0  0  0  0
  141.3110   78.1550  221.4580 C   0  0  0  0  0  0  0  0  0  0  0  0
  141.7920   79.4600  221.4660 C   0  0  0  0  0  0  0  0  0  0  0  0
  141.2360   80.3570  222.3530 C   0  0  0  0  0  0  0  0  0  0  0  0
  141.8150   82.0130  222.3930 Cl  0  0  0  0  0  0  0  0  0  0  0  0
  140.2280   79.9480  223.2070 C   0  0  0  0  0  0  0  0  0  0  0  0
  139.7340   78.6580  223.2190 C   0  0  0  0  0  0  0  0  0  0  0  0
  140.2950   77.7710  222.3300 C   0  0  0  0  0  0  0  0  0  0  0  0
  139.8360   76.4900  222.3090 N   0  0  0  0  0  0  0  0  0  0  0  0
  139.9630   69.8780  226.1780 C   0  0  0  0  0  0  0  0  0  0  0  0
  139.7330   69.9480  227.5370 C   0  0  0  0  0  0  0  0  0  0  0  0
  140.2550   70.9620  228.3310 C   0  0  0  0  0  0  0  0  0  0  0  0
  141.0340   71.9350  227.7490 C   0  0  0  0  0  0  0  0  0  0  0  0
  141.2830   71.8940  226.3990 C   0  0  0  0  0  0  0  0  0  0  0  0
  140.7530   70.8770  225.6270 C   0  0  0  0  0  0  0  0  0  0  0  0
  139.9671   67.3622  226.8293 H   0  0  0  0  0  0  0  0  0  0  0  0
  139.2772   66.6636  225.3251 H   0  0  0  0  0  0  0  0  0  0  0  0
  140.9481   67.3228  225.3251 H   0  0  0  0  0  0  0  0  0  0  0  0
  138.3181   68.7130  225.5240 H   0  0  0  0  0  0  0  0  0  0  0  0
  140.3690   69.8610  223.7820 H   0  0  0  0  0  0  0  0  0  0  0  0
  138.2587   68.1244  221.1910 H   0  0  0  0  0  0  0  0  0  0  0  0
  141.1133   69.1940  221.1990 H   0  0  0  0  0  0  0  0  0  0  0  0
  140.6459   67.4816  221.0977 H   0  0  0  0  0  0  0  0  0  0  0  0
  140.8747   69.3696  219.0247 H   0  0  0  0  0  0  0  0  0  0  0  0
  140.1774   67.6394  218.9947 H   0  0  0  0  0  0  0  0  0  0  0  0
  138.9172   69.5105  217.8855 H   0  0  0  0  0  0  0  0  0  0  0  0
  138.1034   68.3086  219.0177 H   0  0  0  0  0  0  0  0  0  0  0  0
  138.4415   71.2597  219.2781 H   0  0  0  0  0  0  0  0  0  0  0  0
  137.1012   70.1951  219.7859 H   0  0  0  0  0  0  0  0  0  0  0  0
  137.3595   72.4473  221.7073 H   0  0  0  0  0  0  0  0  0  0  0  0
  138.1340   72.2589  223.4158 H   0  0  0  0  0  0  0  0  0  0  0  0
  138.4080   74.5360  222.9340 H   0  0  0  0  0  0  0  0  0  0  0  0
  141.7505   75.1794  219.9133 H   0  0  0  0  0  0  0  0  0  0  0  0
  142.6476   77.4945  219.8754 H   0  0  0  0  0  0  0  0  0  0  0  0
  142.5960   79.7687  220.7817 H   0  0  0  0  0  0  0  0  0  0  0  0
  139.8012   80.6815  223.9069 H   0  0  0  0  0  0  0  0  0  0  0  0
  138.9306   78.3547  223.9065 H   0  0  0  0  0  0  0  0  0  0  0  0
  139.1131   69.1718  228.0095 H   0  0  0  0  0  0  0  0  0  0  0  0
  140.0479   70.9863  229.4111 H   0  0  0  0  0  0  0  0  0  0  0  0
  141.4564   72.7438  228.3633 H   0  0  0  0  0  0  0  0  0  0  0  0
  141.9050   72.6714  225.9314 H   0  0  0  0  0  0  0  0  0  0  0  0
  140.9631   70.8592  224.5474 H   0  0  0  0  0  0  0  0  0  0  0  0
  1  2  1  0
  2  3  1  0
  3  4  1  0
  4  5  2  0
  4  6  1  0
  6  7  1  0
  7  8  1  0
  8  9  1  0
  9 10  1  0
 10 11  1  0
 11 12  1  0
 12 13  2  0
 12 14  1  0
 14 15  1  0
 15 16  1  0
 16 17  2  0
 16 18  1  0
 18 19  2  0
 19 20  1  0
 20 21  2  0
 21 22  1  0
 22 23  2  0
 23 24  1  0
 23 25  1  0
 25 26  2  0
 26 27  1  0
 27 28  2  0
  2 29  1  0
 29 30  2  0
 30 31  1  0
 31 32  2  0
 32 33  1  0
 33 34  2  0
 11  6  1  0
 28 18  1  0
 34 29  1  0
 27 21  1  0
  1 35  1  0
  1 36  1  0
  1 37  1  0
  2 38  1  6
  3 39  1  0
  6 40  1  6
  7 41  1  0
  7 42  1  0
  8 43  1  0
  8 44  1  0
  9 45  1  0
  9 46  1  0
 10 47  1  0
 10 48  1  0
 14 49  1  0
 14 50  1  0
 15 51  1  0
 19 52  1  0
 20 53  1  0
 22 54  1  0
 25 55  1  0
 26 56  1  0
 30 57  1  0
 31 58  1  0
 32 59  1  0
 33 60  1  0
 34 61  1  0
M  END
>  <smiles>  (17) 
C[C@H](NC(=O)C1CCCCN1C(=O)CNC(=O)c1ccc2cc(Cl)ccc2n1)c1ccccc1

>  <score_type>  (17) 
oracle

>  <origin>  (17) 
autodockgpu

>  <m_score__min__energy>  (17) 
-9.5299999999999994

>  <m_primary>  (17) 
energy

>  <rmsd>  (17) 
9.396641500780346

>  <m_score__min__rmsd>  (17) 
9.396641500780346

>  <meeko>  (17) 
{"free_energy": -8.08, "intermolecular_energy": -10.17, "internal_energy": -2.74, "cluster_size": 2, "cluster_id": 3, "rank_in_cluster": 2}

>  <energy>  (17) 
-8.04

>  <cluster_rmsd>  (17) 
1.32

>  <cluster>  (17) 
2

$$$$

     RDKit          3D

 61 64  0  0  1  0  0  0  0  0999 V2000
  139.0800   78.7620  220.2360 C   0  0  0  0  0  0  0  0  0  0  0  0
  140.5510   78.4580  220.2690 C   0  0  2  0  0  0  0  0  0  0  0  0
  140.8580   77.0530  220.1240 N   0  0  0  0  0  0  0  0  0  0  0  0
  142.1230   76.6080  219.6420 C   0  0  0  0  0  0  0  0  0  0  0  0
  142.9550   77.5150  219.3610 O   0  0  0  0  0  0  0  0  0  0  0  0
  142.4870   75.2300  219.4700 C   0  0  2  0  0  0  0  0  0  0  0  0
  142.0960   74.5140  218.2210 C   0  0  0  0  0  0  0  0  0  0  0  0
  142.8310   73.2200  218.2150 C   0  0  0  0  0  0  0  0  0  0  0  0
  143.6700   72.8820  219.3880 C   0  0  0  0  0  0  0  0  0  0  0  0
  143.0590   73.2210  220.7460 C   0  0  0  0  0  0  0  0  0  0  0  0
  142.0720   74.3000  220.5450 N   0  0  0  0  0  0  0  0  0  0  0  0
  140.8810   74.4510  221.2490 C   0  0  0  0  0  0  0  0  0  0  0  0
  140.9090   75.3960  222.1600 O   0  0  0  0  0  0  0  0  0  0  0  0
  139.6150   73.7610  221.1640 C   0  0  0  0  0  0  0  0  0  0  0  0
  138.5420   74.1070  222.0250 N   0  0  0  0  0  0  0  0  0  0  0  0
  137.8190   75.3580  221.9490 C   0  0  0  0  0  0  0  0  0  0  0  0
  138.1490   76.2100  221.0590 O   0  0  0  0  0  0  0  0  0  0  0  0
  136.7250   75.6300  222.8870 C   0  0  0  0  0  0  0  0  0  0  0  0
  136.2510   76.9210  222.9710 C   0  0  0  0  0  0  0  0  0  0  0  0
  135.2230   77.2610  223.8300 C   0  0  0  0  0  0  0  0  0  0  0  0
  134.6660   76.2580  224.6230 C   0  0  0  0  0  0  0  0  0  0  0  0
  133.6300   76.5560  225.5010 C   0  0  0  0  0  0  0  0  0  0  0  0
  133.1070   75.5360  226.2660 C   0  0  0  0  0  0  0  0  0  0  0  0
  131.7990   75.8720  227.3860 Cl  0  0  0  0  0  0  0  0  0  0  0  0
  133.6150   74.2550  226.1490 C   0  0  0  0  0  0  0  0  0  0  0  0
  134.6440   73.9340  225.2850 C   0  0  0  0  0  0  0  0  0  0  0  0
  135.1590   74.9590  224.5250 C   0  0  0  0  0  0  0  0  0  0  0  0
  136.1730   74.6840  223.6600 N   0  0  0  0  0  0  0  0  0  0  0  0
  141.1950   78.9390  221.5050 C   0  0  0  0  0  0  0  0  0  0  0  0
  141.0630   78.2660  222.7020 C   0  0  0  0  0  0  0  0  0  0  0  0
  141.6630   78.7060  223.8760 C   0  0  0  0  0  0  0  0  0  0  0  0
  142.4210   79.8540  223.8510 C   0  0  0  0  0  0  0  0  0  0  0  0
  142.5730   80.5470  222.6750 C   0  0  0  0  0  0  0  0  0  0  0  0
  141.9660   80.0920  221.5190 C   0  0  0  0  0  0  0  0  0  0  0  0
  138.6987   78.8408  221.2648 H   0  0  0  0  0  0  0  0  0  0  0  0
  138.9139   79.7134  219.7095 H   0  0  0  0  0  0  0  0  0  0  0  0
  138.5504   77.9543  219.7095 H   0  0  0  0  0  0  0  0  0  0  0  0
  140.9522   78.9973  219.3982 H   0  0  0  0  0  0  0  0  0  0  0  0
  140.0920   76.3850  220.4140 H   0  0  0  0  0  0  0  0  0  0  0  0
  143.5684   75.4312  219.4584 H   0  0  0  0  0  0  0  0  0  0  0  0
  141.0111   74.3326  218.2131 H   0  0  0  0  0  0  0  0  0  0  0  0
  142.3441   75.1113  217.3312 H   0  0  0  0  0  0  0  0  0  0  0  0
  142.0823   72.4210  218.1093 H   0  0  0  0  0  0  0  0  0  0  0  0
  143.5494   73.3204  217.3881 H   0  0  0  0  0  0  0  0  0  0  0  0
  143.8672   71.8001  219.3645 H   0  0  0  0  0  0  0  0  0  0  0  0
  144.5777   73.4971  219.3005 H   0  0  0  0  0  0  0  0  0  0  0  0
  142.5618   72.3332  221.1638 H   0  0  0  0  0  0  0  0  0  0  0  0
  143.8420   73.5449  221.4474 H   0  0  0  0  0  0  0  0  0  0  0  0
  139.2500   73.9000  220.1357 H   0  0  0  0  0  0  0  0  0  0  0  0
  139.8697   72.7410  221.4876 H   0  0  0  0  0  0  0  0  0  0  0  0
  138.2000   73.4550  222.7920 H   0  0  0  0  0  0  0  0  0  0  0  0
  136.7018   77.7002  222.3389 H   0  0  0  0  0  0  0  0  0  0  0  0
  134.8538   78.2956  223.8867 H   0  0  0  0  0  0  0  0  0  0  0  0
  133.2376   77.5804  225.5830 H   0  0  0  0  0  0  0  0  0  0  0  0
  133.1812   73.4577  226.7704 H   0  0  0  0  0  0  0  0  0  0  0  0
  135.0331   72.9080  225.2082 H   0  0  0  0  0  0  0  0  0  0  0  0
  140.4601   77.3463  222.7283 H   0  0  0  0  0  0  0  0  0  0  0  0
  141.5335   78.1439  224.8127 H   0  0  0  0  0  0  0  0  0  0  0  0
  142.9041   80.2159  224.7706 H   0  0  0  0  0  0  0  0  0  0  0  0
  143.1784   81.4652  222.6528 H   0  0  0  0  0  0  0  0  0  0  0  0
  142.0980   80.6593  220.5859 H   0  0  0  0  0  0  0  0  0  0  0  0
  1  2  1  0
  2  3  1  0
  3  4  1  0
  4  5  2  0
  4  6  1  0
  6  7  1  0
  7  8  1  0
  8  9  1  0
  9 10  1  0
 10 11  1  0
 11 12  1  0
 12 13  2  0
 12 14  1  0
 14 15  1  0
 15 16  1  0
 16 17  2  0
 16 18  1  0
 18 19  2  0
 19 20  1  0
 20 21  2  0
 21 22  1  0
 22 23  2  0
 23 24  1  0
 23 25  1  0
 25 26  2  0
 26 27  1  0
 27 28  2  0
  2 29  1  0
 29 30  2  0
 30 31  1  0
 31 32  2  0
 32 33  1  0
 33 34  2  0
 11  6  1  0
 28 18  1  0
 34 29  1  0
 27 21  1  0
  1 35  1  0
  1 36  1  0
  1 37  1  0
  2 38  1  6
  3 39  1  0
  6 40  1  6
  7 41  1  0
  7 42  1  0
  8 43  1  0
  8 44  1  0
  9 45  1  0
  9 46  1  0
 10 47  1  0
 10 48  1  0
 14 49  1  0
 14 50  1  0
 15 51  1  0
 19 52  1  0
 20 53  1  0
 22 54  1  0
 25 55  1  0
 26 56  1  0
 30 57  1  0
 31 58  1  0
 32 59  1  0
 33 60  1  0
 34 61  1  0
M  END
>  <smiles>  (18) 
C[C@H](NC(=O)C1CCCCN1C(=O)CNC(=O)c1ccc2cc(Cl)ccc2n1)c1ccccc1

>  <score_type>  (18) 
oracle

>  <origin>  (18) 
autodockgpu

>  <m_score__min__energy>  (18) 
-9.5299999999999994

>  <m_primary>  (18) 
energy

>  <rmsd>  (18) 
5.529852890140384

>  <m_score__min__rmsd>  (18) 
5.529852890140384

>  <meeko>  (18) 
{"free_energy": -7.01, "intermolecular_energy": -9.1, "internal_energy": -3.78, "cluster_size": 2, "cluster_id": 7, "rank_in_cluster": 2}

>  <energy>  (18) 
-8.03

>  <cluster_rmsd>  (18) 
1.4

>  <cluster>  (18) 
2

$$$$

     RDKit          3D

 61 64  0  0  1  0  0  0  0  0999 V2000
  140.0460   79.3250  219.7650 C   0  0  0  0  0  0  0  0  0  0  0  0
  141.3780   78.8510  220.2720 C   0  0  2  0  0  0  0  0  0  0  0  0
  141.5120   77.4120  220.2950 N   0  0  0  0  0  0  0  0  0  0  0  0
  142.5500   76.7440  219.5820 C   0  0  0  0  0  0  0  0  0  0  0  0
  143.3440   77.4870  218.9400 O   0  0  0  0  0  0  0  0  0  0  0  0
  142.7330   75.3200  219.5600 C   0  0  2  0  0  0  0  0  0  0  0  0
  142.9430   74.6230  218.2580 C   0  0  0  0  0  0  0  0  0  0  0  0
  143.3660   73.2320  218.5740 C   0  0  0  0  0  0  0  0  0  0  0  0
  143.4110   72.8150  219.9950 C   0  0  0  0  0  0  0  0  0  0  0  0
  142.2440   73.3000  220.8520 C   0  0  0  0  0  0  0  0  0  0  0  0
  141.6840   74.5100  220.2190 N   0  0  0  0  0  0  0  0  0  0  0  0
  140.3400   74.8720  220.2100 C   0  0  0  0  0  0  0  0  0  0  0  0
  140.0020   75.6660  219.2210 O   0  0  0  0  0  0  0  0  0  0  0  0
  139.2430   74.5340  221.0870 C   0  0  0  0  0  0  0  0  0  0  0  0
  139.4240   73.6160  222.1520 N   0  0  0  0  0  0  0  0  0  0  0  0
  139.4570   72.1790  221.9810 C   0  0  0  0  0  0  0  0  0  0  0  0
  139.3200   71.6930  220.8100 O   0  0  0  0  0  0  0  0  0  0  0  0
  139.6430   71.3080  223.1460 C   0  0  0  0  0  0  0  0  0  0  0  0
  139.2380   69.9950  223.0420 C   0  0  0  0  0  0  0  0  0  0  0  0
  139.3790   69.1080  224.0930 C   0  0  0  0  0  0  0  0  0  0  0  0
  139.9460   69.5740  225.2780 C   0  0  0  0  0  0  0  0  0  0  0  0
  140.1060   68.7150  226.3600 C   0  0  0  0  0  0  0  0  0  0  0  0
  140.6720   69.2150  227.5140 C   0  0  0  0  0  0  0  0  0  0  0  0
  140.8910   68.1630  228.9010 Cl  0  0  0  0  0  0  0  0  0  0  0  0
  141.0640   70.5400  227.5730 C   0  0  0  0  0  0  0  0  0  0  0  0
  140.9150   71.4120  226.5110 C   0  0  0  0  0  0  0  0  0  0  0  0
  140.3490   70.9040  225.3650 C   0  0  0  0  0  0  0  0  0  0  0  0
  140.1860   71.7310  224.2960 N   0  0  0  0  0  0  0  0  0  0  0  0
  141.6770   79.3570  221.6230 C   0  0  0  0  0  0  0  0  0  0  0  0
  142.1520   80.6350  221.8320 C   0  0  0  0  0  0  0  0  0  0  0  0
  142.4390   81.1270  223.0990 C   0  0  0  0  0  0  0  0  0  0  0  0
  142.2450   80.3150  224.1930 C   0  0  0  0  0  0  0  0  0  0  0  0
  141.7720   79.0380  224.0200 C   0  0  0  0  0  0  0  0  0  0  0  0
  141.4930   78.5680  222.7500 C   0  0  0  0  0  0  0  0  0  0  0  0
  139.3910   79.5581  220.6174 H   0  0  0  0  0  0  0  0  0  0  0  0
  140.1869   80.2282  219.1531 H   0  0  0  0  0  0  0  0  0  0  0  0
  139.5846   78.5359  219.1531 H   0  0  0  0  0  0  0  0  0  0  0  0
  142.0974   79.2605  219.5476 H   0  0  0  0  0  0  0  0  0  0  0  0
  140.8040   76.8950  220.8860 H   0  0  0  0  0  0  0  0  0  0  0  0
  143.6788   75.3510  220.1208 H   0  0  0  0  0  0  0  0  0  0  0  0
  142.0071   74.6114  217.6802 H   0  0  0  0  0  0  0  0  0  0  0  0
  143.7050   75.1382  217.6547 H   0  0  0  0  0  0  0  0  0  0  0  0
  142.6690   72.5550  218.0583 H   0  0  0  0  0  0  0  0  0  0  0  0
  144.4149   73.1871  218.2456 H   0  0  0  0  0  0  0  0  0  0  0  0
  143.4227   71.7155  220.0268 H   0  0  0  0  0  0  0  0  0  0  0  0
  144.3145   73.2765  220.4201 H   0  0  0  0  0  0  0  0  0  0  0  0
  141.4727   72.5178  220.9092 H   0  0  0  0  0  0  0  0  0  0  0  0
  142.5879   73.5271  221.8719 H   0  0  0  0  0  0  0  0  0  0  0  0
  138.9006   75.4764  221.5394 H   0  0  0  0  0  0  0  0  0  0  0  0
  138.5504   74.0010  220.4190 H   0  0  0  0  0  0  0  0  0  0  0  0
  139.5490   73.9360  223.1590 H   0  0  0  0  0  0  0  0  0  0  0  0
  138.7917   69.6441  222.0999 H   0  0  0  0  0  0  0  0  0  0  0  0
  139.0523   68.0621  223.9966 H   0  0  0  0  0  0  0  0  0  0  0  0
  139.7892   67.6635  226.2970 H   0  0  0  0  0  0  0  0  0  0  0  0
  141.5132   70.9156  228.5042 H   0  0  0  0  0  0  0  0  0  0  0  0
  141.2340   72.4625  226.5791 H   0  0  0  0  0  0  0  0  0  0  0  0
  142.3095   81.2896  220.9621 H   0  0  0  0  0  0  0  0  0  0  0  0
  142.8164   82.1524  223.2262 H   0  0  0  0  0  0  0  0  0  0  0  0
  142.4683   80.6882  225.2033 H   0  0  0  0  0  0  0  0  0  0  0  0
  141.6147   78.3877  224.8931 H   0  0  0  0  0  0  0  0  0  0  0  0
  141.1153   77.5419  222.6296 H   0  0  0  0  0  0  0  0  0  0  0  0
  1  2  1  0
  2  3  1  0
  3  4  1  0
  4  5  2  0
  4  6  1  0
  6  7  1  0
  7  8  1  0
  8  9  1  0
  9 10  1  0
 10 11  1  0
 11 12  1  0
 12 13  2  0
 12 14  1  0
 14 15  1  0
 15 16  1  0
 16 17  2  0
 16 18  1  0
 18 19  2  0
 19 20  1  0
 20 21  2  0
 21 22  1  0
 22 23  2  0
 23 24  1  0
 23 25  1  0
 25 26  2  0
 26 27  1  0
 27 28  2  0
  2 29  1  0
 29 30  2  0
 30 31  1  0
 31 32  2  0
 32 33  1  0
 33 34  2  0
 11  6  1  0
 28 18  1  0
 34 29  1  0
 27 21  1  0
  1 35  1  0
  1 36  1  0
  1 37  1  0
  2 38  1  6
  3 39  1  0
  6 40  1  1
  7 41  1  0
  7 42  1  0
  8 43  1  0
  8 44  1  0
  9 45  1  0
  9 46  1  0
 10 47  1  0
 10 48  1  0
 14 49  1  0
 14 50  1  0
 15 51  1  0
 19 52  1  0
 20 53  1  0
 22 54  1  0
 25 55  1  0
 26 56  1  0
 30 57  1  0
 31 58  1  0
 32 59  1  0
 33 60  1  0
 34 61  1  0
M  END
>  <smiles>  (19) 
C[C@H](NC(=O)C1CCCCN1C(=O)CNC(=O)c1ccc2cc(Cl)ccc2n1)c1ccccc1

>  <score_type>  (19) 
oracle

>  <origin>  (19) 
autodockgpu

>  <m_score__min__energy>  (19) 
-9.5299999999999994

>  <m_primary>  (19) 
energy

>  <rmsd>  (19) 
3.139288682358079

>  <m_score__min__rmsd>  (19) 
3.139288682358079

>  <meeko>  (19) 
{"free_energy": -8.83, "intermolecular_energy": -10.92, "internal_energy": -2.49, "cluster_size": 13, "cluster_id": 1, "rank_in_cluster": 10}

>  <energy>  (19) 
-7.98

>  <cluster_rmsd>  (19) 
1.61

>  <cluster>  (19) 
2

$$$$

     RDKit          3D

 61 64  0  0  1  0  0  0  0  0999 V2000
  141.5680   71.9970  219.1940 C   0  0  0  0  0  0  0  0  0  0  0  0
  142.0580   72.9090  220.2830 C   0  0  2  0  0  0  0  0  0  0  0  0
  141.5560   74.2600  220.1780 N   0  0  0  0  0  0  0  0  0  0  0  0
  140.8930   74.9000  221.2660 C   0  0  0  0  0  0  0  0  0  0  0  0
  140.7830   74.2170  222.3220 O   0  0  0  0  0  0  0  0  0  0  0  0
  140.3690   76.2360  221.2240 C   0  0  2  0  0  0  0  0  0  0  0  0
  140.5620   77.1410  222.3940 C   0  0  0  0  0  0  0  0  0  0  0  0
  140.1610   78.5060  221.9570 C   0  0  0  0  0  0  0  0  0  0  0  0
  139.6130   78.6750  220.5910 C   0  0  0  0  0  0  0  0  0  0  0  0
  138.6400   77.5880  220.1400 C   0  0  0  0  0  0  0  0  0  0  0  0
  138.9260   76.3680  220.9210 N   0  0  0  0  0  0  0  0  0  0  0  0
  137.9810   75.4400  221.3490 C   0  0  0  0  0  0  0  0  0  0  0  0
  136.9670   75.9620  221.9990 O   0  0  0  0  0  0  0  0  0  0  0  0
  137.9050   74.0040  221.2090 C   0  0  0  0  0  0  0  0  0  0  0  0
  138.3630   73.1510  222.2440 N   0  0  0  0  0  0  0  0  0  0  0  0
  138.1600   71.7180  222.2570 C   0  0  0  0  0  0  0  0  0  0  0  0
  137.5390   71.1740  221.2870 O   0  0  0  0  0  0  0  0  0  0  0  0
  138.6670   70.9170  223.3770 C   0  0  0  0  0  0  0  0  0  0  0  0
  138.3710   69.5710  223.3940 C   0  0  0  0  0  0  0  0  0  0  0  0
  138.8110   68.7460  224.4120 C   0  0  0  0  0  0  0  0  0  0  0  0
  139.5690   69.3090  225.4370 C   0  0  0  0  0  0  0  0  0  0  0  0
  140.0310   68.5150  226.4820 C   0  0  0  0  0  0  0  0  0  0  0  0
  140.7780   69.1110  227.4750 C   0  0  0  0  0  0  0  0  0  0  0  0
  141.3800   68.1430  228.8090 Cl  0  0  0  0  0  0  0  0  0  0  0  0
  141.0500   70.4660  227.4160 C   0  0  0  0  0  0  0  0  0  0  0  0
  140.6020   71.2750  226.3900 C   0  0  0  0  0  0  0  0  0  0  0  0
  139.8570   70.6720  225.4030 C   0  0  0  0  0  0  0  0  0  0  0  0
  139.3980   71.4340  224.3740 N   0  0  0  0  0  0  0  0  0  0  0  0
  143.5290   72.9740  220.3420 C   0  0  0  0  0  0  0  0  0  0  0  0
  144.1890   74.0950  220.8010 C   0  0  0  0  0  0  0  0  0  0  0  0
  145.5750   74.1720  220.8620 C   0  0  0  0  0  0  0  0  0  0  0  0
  146.3250   73.0940  220.4530 C   0  0  0  0  0  0  0  0  0  0  0  0
  145.6990   71.9630  219.9910 C   0  0  0  0  0  0  0  0  0  0  0  0
  144.3180   71.9070  219.9380 C   0  0  0  0  0  0  0  0  0  0  0  0
  141.0927   71.1123  219.6428 H   0  0  0  0  0  0  0  0  0  0  0  0
  140.8351   72.5306  218.5710 H   0  0  0  0  0  0  0  0  0  0  0  0
  142.4175   71.6804  218.5710 H   0  0  0  0  0  0  0  0  0  0  0  0
  141.6629   72.4563  221.2044 H   0  0  0  0  0  0  0  0  0  0  0  0
  141.7280   74.7430  219.2540 H   0  0  0  0  0  0  0  0  0  0  0  0
  141.0211   76.5546  220.3974 H   0  0  0  0  0  0  0  0  0  0  0  0
  139.9321   76.8126  223.2339 H   0  0  0  0  0  0  0  0  0  0  0  0
  141.6085   77.1281  222.7327 H   0  0  0  0  0  0  0  0  0  0  0  0
  139.3943   78.8610  222.6614 H   0  0  0  0  0  0  0  0  0  0  0  0
  141.1032   79.0735  221.9429 H   0  0  0  0  0  0  0  0  0  0  0  0
  139.0862   79.6399  220.5530 H   0  0  0  0  0  0  0  0  0  0  0  0
  140.4734   78.6159  219.9082 H   0  0  0  0  0  0  0  0  0  0  0  0
  137.6053   77.9140  220.3221 H   0  0  0  0  0  0  0  0  0  0  0  0
  138.7592   77.3903  219.0645 H   0  0  0  0  0  0  0  0  0  0  0  0
  136.8448   73.7598  221.0466 H   0  0  0  0  0  0  0  0  0  0  0  0
  138.6122   73.7995  220.3917 H   0  0  0  0  0  0  0  0  0  0  0  0
  138.8940   73.5210  223.0890 H   0  0  0  0  0  0  0  0  0  0  0  0
  137.7702   69.1431  222.5779 H   0  0  0  0  0  0  0  0  0  0  0  0
  138.5691   67.6729  224.4131 H   0  0  0  0  0  0  0  0  0  0  0  0
  139.8057   67.4388  226.5147 H   0  0  0  0  0  0  0  0  0  0  0  0
  141.6485   70.9185  228.2204 H   0  0  0  0  0  0  0  0  0  0  0  0
  140.8302   72.3508  226.3633 H   0  0  0  0  0  0  0  0  0  0  0  0
  143.5957   74.9605  221.1311 H   0  0  0  0  0  0  0  0  0  0  0  0
  146.0663   75.0837  221.2328 H   0  0  0  0  0  0  0  0  0  0  0  0
  147.4233   73.1380  220.4960 H   0  0  0  0  0  0  0  0  0  0  0  0
  146.2966   71.0999  219.6624 H   0  0  0  0  0  0  0  0  0  0  0  0
  143.8328   70.9926  219.5658 H   0  0  0  0  0  0  0  0  0  0  0  0
  1  2  1  0
  2  3  1  0
  3  4  1  0
  4  5  2  0
  4  6  1  0
  6  7  1  0
  7  8  1  0
  8  9  1  0
  9 10  1  0
 10 11  1  0
 11 12  1  0
 12 13  2  0
 12 14  1  0
 14 15  1  0
 15 16  1  0
 16 17  2  0
 16 18  1  0
 18 19  2  0
 19 20  1  0
 20 21  2  0
 21 22  1  0
 22 23  2  0
 23 24  1  0
 23 25  1  0
 25 26  2  0
 26 27  1  0
 27 28  2  0
  2 29  1  0
 29 30  2  0
 30 31  1  0
 31 32  2  0
 32 33  1  0
 33 34  2  0
 11  6  1  0
 28 18  1  0
 34 29  1  0
 27 21  1  0
  1 35  1  0
  1 36  1  0
  1 37  1  0
  2 38  1  1
  3 39  1  0
  6 40  1  6
  7 41  1  0
  7 42  1  0
  8 43  1  0
  8 44  1  0
  9 45  1  0
  9 46  1  0
 10 47  1  0
 10 48  1  0
 14 49  1  0
 14 50  1  0
 15 51  1  0
 19 52  1  0
 20 53  1  0
 22 54  1  0
 25 55  1  0
 26 56  1  0
 30 57  1  0
 31 58  1  0
 32 59  1  0
 33 60  1  0
 34 61  1  0
M  END
>  <smiles>  (20) 
C[C@H](NC(=O)C1CCCCN1C(=O)CNC(=O)c1ccc2cc(Cl)ccc2n1)c1ccccc1

>  <score_type>  (20) 
oracle

>  <origin>  (20) 
autodockgpu

>  <m_score__min__energy>  (20) 
-9.5299999999999994

>  <m_primary>  (20) 
energy

>  <rmsd>  (20) 
5.692424547309004

>  <m_score__min__rmsd>  (20) 
5.692424547309004

>  <meeko>  (20) 
{"free_energy": -8.75, "intermolecular_energy": -10.84, "internal_energy": -2.92, "cluster_size": 8, "cluster_id": 5, "rank_in_cluster": 1}

>  <energy>  (20) 
-7.89

>  <cluster_rmsd>  (20) 
1.55

>  <cluster>  (20) 
2

$$$$

     RDKit          3D

 61 64  0  0  1  0  0  0  0  0999 V2000
  139.0100   79.6380  221.0010 C   0  0  0  0  0  0  0  0  0  0  0  0
  140.4820   79.3720  220.8590 C   0  0  2  0  0  0  0  0  0  0  0  0
  140.8140   77.9680  220.7820 N   0  0  0  0  0  0  0  0  0  0  0  0
  141.8870   77.4930  219.9730 C   0  0  0  0  0  0  0  0  0  0  0  0
  142.5300   78.3760  219.3380 O   0  0  0  0  0  0  0  0  0  0  0  0
  142.2630   76.1130  219.8500 C   0  0  2  0  0  0  0  0  0  0  0  0
  142.6260   75.5640  218.5120 C   0  0  0  0  0  0  0  0  0  0  0  0
  143.2180   74.2180  218.7410 C   0  0  0  0  0  0  0  0  0  0  0  0
  143.2530   73.6920  220.1250 C   0  0  0  0  0  0  0  0  0  0  0  0
  141.9930   73.9440  220.9500 C   0  0  0  0  0  0  0  0  0  0  0  0
  141.3040   75.1190  220.3820 N   0  0  0  0  0  0  0  0  0  0  0  0
  139.9250   75.3010  220.3240 C   0  0  0  0  0  0  0  0  0  0  0  0
  139.5390   76.2380  219.4900 O   0  0  0  0  0  0  0  0  0  0  0  0
  138.8350   74.6470  221.0100 C   0  0  0  0  0  0  0  0  0  0  0  0
  139.0880   73.7320  222.0640 N   0  0  0  0  0  0  0  0  0  0  0  0
  139.1870   72.3000  221.8820 C   0  0  0  0  0  0  0  0  0  0  0  0
  139.0460   71.8150  220.7110 O   0  0  0  0  0  0  0  0  0  0  0  0
  139.4460   71.4320  223.0350 C   0  0  0  0  0  0  0  0  0  0  0  0
  139.0840   70.1060  222.9390 C   0  0  0  0  0  0  0  0  0  0  0  0
  139.2940   69.2200  223.9800 C   0  0  0  0  0  0  0  0  0  0  0  0
  139.8860   69.7020  225.1470 C   0  0  0  0  0  0  0  0  0  0  0  0
  140.1140   68.8460  226.2190 C   0  0  0  0  0  0  0  0  0  0  0  0
  140.7020   69.3620  227.3540 C   0  0  0  0  0  0  0  0  0  0  0  0
  141.0070   68.3140  228.7280 Cl  0  0  0  0  0  0  0  0  0  0  0  0
  141.0480   70.7000  227.4050 C   0  0  0  0  0  0  0  0  0  0  0  0
  140.8310   71.5700  226.3540 C   0  0  0  0  0  0  0  0  0  0  0  0
  140.2440   71.0460  225.2260 C   0  0  0  0  0  0  0  0  0  0  0  0
  140.0130   71.8700  224.1680 N   0  0  0  0  0  0  0  0  0  0  0  0
  141.2680   79.9660  221.9540 C   0  0  0  0  0  0  0  0  0  0  0  0
  142.5720   79.5860  222.2020 C   0  0  0  0  0  0  0  0  0  0  0  0
  143.3260   80.1360  223.2310 C   0  0  0  0  0  0  0  0  0  0  0  0
  142.7600   81.0960  224.0380 C   0  0  0  0  0  0  0  0  0  0  0  0
  141.4660   81.4960  223.8180 C   0  0  0  0  0  0  0  0  0  0  0  0
  140.7320   80.9360  222.7880 C   0  0  0  0  0  0  0  0  0  0  0  0
  138.7472   79.6855  222.0681 H   0  0  0  0  0  0  0  0  0  0  0  0
  138.7623   80.5955  220.5194 H   0  0  0  0  0  0  0  0  0  0  0  0
  138.4428   78.8278  220.5194 H   0  0  0  0  0  0  0  0  0  0  0  0
  140.7454   79.8488  219.9033 H   0  0  0  0  0  0  0  0  0  0  0  0
  140.2220   77.3240  221.3760 H   0  0  0  0  0  0  0  0  0  0  0  0
  143.1689   76.2197  220.4648 H   0  0  0  0  0  0  0  0  0  0  0  0
  141.7283   75.4798  217.8818 H   0  0  0  0  0  0  0  0  0  0  0  0
  143.3390   76.2243  217.9966 H   0  0  0  0  0  0  0  0  0  0  0  0
  142.6432   73.5022  218.1351 H   0  0  0  0  0  0  0  0  0  0  0  0
  144.2772   74.3379  218.4696 H   0  0  0  0  0  0  0  0  0  0  0  0
  143.4127   72.6050  220.0717 H   0  0  0  0  0  0  0  0  0  0  0  0
  144.0643   74.2317  220.6355 H   0  0  0  0  0  0  0  0  0  0  0  0
  141.3333   73.0651  220.9021 H   0  0  0  0  0  0  0  0  0  0  0  0
  142.2553   74.1264  222.0026 H   0  0  0  0  0  0  0  0  0  0  0  0
  138.2048   75.4445  221.4306 H   0  0  0  0  0  0  0  0  0  0  0  0
  138.4020   74.0064  220.2277 H   0  0  0  0  0  0  0  0  0  0  0  0
  139.2220   74.0520  223.0700 H   0  0  0  0  0  0  0  0  0  0  0  0
  138.6165   69.7432  222.0117 H   0  0  0  0  0  0  0  0  0  0  0  0
  139.0019   68.1633  223.8898 H   0  0  0  0  0  0  0  0  0  0  0  0
  139.8323   67.7842  226.1627 H   0  0  0  0  0  0  0  0  0  0  0  0
  141.5161   71.0881  228.3217 H   0  0  0  0  0  0  0  0  0  0  0  0
  141.1141   72.6311  226.4164 H   0  0  0  0  0  0  0  0  0  0  0  0
  143.0310   78.8191  221.5608 H   0  0  0  0  0  0  0  0  0  0  0  0
  144.3626   79.8081  223.3985 H   0  0  0  0  0  0  0  0  0  0  0  0
  143.3433   81.5416  224.8573 H   0  0  0  0  0  0  0  0  0  0  0  0
  141.0116   82.2634  224.4619 H   0  0  0  0  0  0  0  0  0  0  0  0
  139.6961   81.2686  222.6261 H   0  0  0  0  0  0  0  0  0  0  0  0
  1  2  1  0
  2  3  1  0
  3  4  1  0
  4  5  2  0
  4  6  1  0
  6  7  1  0
  7  8  1  0
  8  9  1  0
  9 10  1  0
 10 11  1  0
 11 12  1  0
 12 13  2  0
 12 14  1  0
 14 15  1  0
 15 16  1  0
 16 17  2  0
 16 18  1  0
 18 19  2  0
 19 20  1  0
 20 21  2  0
 21 22  1  0
 22 23  2  0
 23 24  1  0
 23 25  1  0
 25 26  2  0
 26 27  1  0
 27 28  2  0
  2 29  1  0
 29 30  2  0
 30 31  1  0
 31 32  2  0
 32 33  1  0
 33 34  2  0
 11  6  1  0
 28 18  1  0
 34 29  1  0
 27 21  1  0
  1 35  1  0
  1 36  1  0
  1 37  1  0
  2 38  1  6
  3 39  1  0
  6 40  1  1
  7 41  1  0
  7 42  1  0
  8 43  1  0
  8 44  1  0
  9 45  1  0
  9 46  1  0
 10 47  1  0
 10 48  1  0
 14 49  1  0
 14 50  1  0
 15 51  1  0
 19 52  1  0
 20 53  1  0
 22 54  1  0
 25 55  1  0
 26 56  1  0
 30 57  1  0
 31 58  1  0
 32 59  1  0
 33 60  1  0
 34 61  1  0
M  END
>  <smiles>  (21) 
C[C@H](NC(=O)C1CCCCN1C(=O)CNC(=O)c1ccc2cc(Cl)ccc2n1)c1ccccc1

>  <score_type>  (21) 
oracle

>  <origin>  (21) 
autodockgpu

>  <m_score__min__energy>  (21) 
-9.5299999999999994

>  <m_primary>  (21) 
energy

>  <rmsd>  (21) 
2.9214348805705974

>  <m_score__min__rmsd>  (21) 
2.9214348805705974

>  <meeko>  (21) 
{"free_energy": -8.73, "intermolecular_energy": -10.82, "internal_energy": -2.29, "cluster_size": 13, "cluster_id": 1, "rank_in_cluster": 11}

>  <energy>  (21) 
-7.4

>  <cluster_rmsd>  (21) 
1.56

>  <cluster>  (21) 
2

$$$$

     RDKit          3D

 61 64  0  0  1  0  0  0  0  0999 V2000
  140.4620   71.8150  223.4060 C   0  0  0  0  0  0  0  0  0  0  0  0
  139.7610   70.7470  224.1950 C   0  0  2  0  0  0  0  0  0  0  0  0
  138.3200   70.8070  224.1000 N   0  0  0  0  0  0  0  0  0  0  0  0
  137.5100   69.6400  224.2290 C   0  0  0  0  0  0  0  0  0  0  0  0
  138.1310   68.5610  224.4400 O   0  0  0  0  0  0  0  0  0  0  0  0
  136.0780   69.6330  224.1390 C   0  0  2  0  0  0  0  0  0  0  0  0
  135.3980   68.6140  223.2870 C   0  0  0  0  0  0  0  0  0  0  0  0
  133.9460   68.6830  223.6040 C   0  0  0  0  0  0  0  0  0  0  0  0
  133.4820   69.7160  224.5580 C   0  0  0  0  0  0  0  0  0  0  0  0
  134.1280   71.0900  224.3950 C   0  0  0  0  0  0  0  0  0  0  0  0
  135.4350   70.9030  223.7350 N   0  0  0  0  0  0  0  0  0  0  0  0
  136.0190   71.7850  222.8290 C   0  0  0  0  0  0  0  0  0  0  0  0
  136.8850   71.2270  222.0150 O   0  0  0  0  0  0  0  0  0  0  0  0
  135.8480   73.2020  222.6140 C   0  0  0  0  0  0  0  0  0  0  0  0
  136.9500   74.0890  222.7180 N   0  0  0  0  0  0  0  0  0  0  0  0
  136.8940   75.4910  222.3630 C   0  0  0  0  0  0  0  0  0  0  0  0
  135.7950   75.9750  221.9340 O   0  0  0  0  0  0  0  0  0  0  0  0
  138.0890   76.3290  222.4990 C   0  0  0  0  0  0  0  0  0  0  0  0
  139.3020   75.7890  222.1320 C   0  0  0  0  0  0  0  0  0  0  0  0
  140.4770   76.5120  222.2290 C   0  0  0  0  0  0  0  0  0  0  0  0
  140.4100   77.8180  222.7130 C   0  0  0  0  0  0  0  0  0  0  0  0
  141.5670   78.5800  222.8270 C   0  0  0  0  0  0  0  0  0  0  0  0
  141.4570   79.8670  223.3100 C   0  0  0  0  0  0  0  0  0  0  0  0
  142.8940   80.8610  223.4680 Cl  0  0  0  0  0  0  0  0  0  0  0  0
  140.2180   80.3670  223.6670 C   0  0  0  0  0  0  0  0  0  0  0  0
  139.0550   79.6290  223.5630 C   0  0  0  0  0  0  0  0  0  0  0  0
  139.1740   78.3460  223.0800 C   0  0  0  0  0  0  0  0  0  0  0  0
  138.0520   77.5870  222.9620 N   0  0  0  0  0  0  0  0  0  0  0  0
  140.1230   70.7750  225.6230 C   0  0  0  0  0  0  0  0  0  0  0  0
  140.7080   71.8820  226.2030 C   0  0  0  0  0  0  0  0  0  0  0  0
  141.0560   71.9230  227.5480 C   0  0  0  0  0  0  0  0  0  0  0  0
  140.8110   70.8240  228.3380 C   0  0  0  0  0  0  0  0  0  0  0  0
  140.2290   69.7070  227.7910 C   0  0  0  0  0  0  0  0  0  0  0  0
  139.8910   69.6860  226.4510 C   0  0  0  0  0  0  0  0  0  0  0  0
  140.9322   72.5314  224.0957 H   0  0  0  0  0  0  0  0  0  0  0  0
  141.2345   71.3552  222.7721 H   0  0  0  0  0  0  0  0  0  0  0  0
  139.7328   72.3408  222.7721 H   0  0  0  0  0  0  0  0  0  0  0  0
  140.1066   69.8091  223.7357 H   0  0  0  0  0  0  0  0  0  0  0  0
  137.9100   71.7690  223.9460 H   0  0  0  0  0  0  0  0  0  0  0  0
  135.9315   69.3879  225.2013 H   0  0  0  0  0  0  0  0  0  0  0  0
  135.5638   68.8393  222.2232 H   0  0  0  0  0  0  0  0  0  0  0  0
  135.7961   67.6077  223.4843 H   0  0  0  0  0  0  0  0  0  0  0  0
  133.4139   68.8529  222.6564 H   0  0  0  0  0  0  0  0  0  0  0  0
  133.7346   67.7308  224.1125 H   0  0  0  0  0  0  0  0  0  0  0  0
  132.3958   69.8336  224.4303 H   0  0  0  0  0  0  0  0  0  0  0  0
  133.7714   69.3597  225.5577 H   0  0  0  0  0  0  0  0  0  0  0  0
  133.4857   71.7336  223.7760 H   0  0  0  0  0  0  0  0  0  0  0  0
  134.2600   71.5695  225.3762 H   0  0  0  0  0  0  0  0  0  0  0  0
  135.4456   73.3190  221.5970 H   0  0  0  0  0  0  0  0  0  0  0  0
  135.2110   73.5028  223.4589 H   0  0  0  0  0  0  0  0  0  0  0  0
  137.9020   73.7690  223.0700 H   0  0  0  0  0  0  0  0  0  0  0  0
  139.3369   74.7572  221.7524 H   0  0  0  0  0  0  0  0  0  0  0  0
  141.4389   76.0685  221.9322 H   0  0  0  0  0  0  0  0  0  0  0  0
  142.5451   78.1670  222.5393 H   0  0  0  0  0  0  0  0  0  0  0  0
  140.1560   81.3963  224.0501 H   0  0  0  0  0  0  0  0  0  0  0  0
  138.0797   80.0472  223.8526 H   0  0  0  0  0  0  0  0  0  0  0  0
  140.9063   72.7649  225.5776 H   0  0  0  0  0  0  0  0  0  0  0  0
  141.5216   72.8233  227.9754 H   0  0  0  0  0  0  0  0  0  0  0  0
  141.0804   70.8398  229.4044 H   0  0  0  0  0  0  0  0  0  0  0  0
  140.0314   68.8270  228.4207 H   0  0  0  0  0  0  0  0  0  0  0  0
  139.4260   68.7824  226.0300 H   0  0  0  0  0  0  0  0  0  0  0  0
  1  2  1  0
  2  3  1  0
  3  4  1  0
  4  5  2  0
  4  6  1  0
  6  7  1  0
  7  8  1  0
  8  9  1  0
  9 10  1  0
 10 11  1  0
 11 12  1  0
 12 13  2  0
 12 14  1  0
 14 15  1  0
 15 16  1  0
 16 17  2  0
 16 18  1  0
 18 19  2  0
 19 20  1  0
 20 21  2  0
 21 22  1  0
 22 23  2  0
 23 24  1  0
 23 25  1  0
 25 26  2  0
 26 27  1  0
 27 28  2  0
  2 29  1  0
 29 30  2  0
 30 31  1  0
 31 32  2  0
 32 33  1  0
 33 34  2  0
 11  6  1  0
 28 18  1  0
 34 29  1  0
 27 21  1  0
  1 35  1  0
  1 36  1  0
  1 37  1  0
  2 38  1  6
  3 39  1  0
  6 40  1  1
  7 41  1  0
  7 42  1  0
  8 43  1  0
  8 44  1  0
  9 45  1  0
  9 46  1  0
 10 47  1  0
 10 48  1  0
 14 49  1  0
 14 50  1  0
 15 51  1  0
 19 52  1  0
 20 53  1  0
 22 54  1  0
 25 55  1  0
 26 56  1  0
 30 57  1  0
 31 58  1  0
 32 59  1  0
 33 60  1  0
 34 61  1  0
M  END
>  <smiles>  (22) 
C[C@H](NC(=O)C1CCCCN1C(=O)CNC(=O)c1ccc2cc(Cl)ccc2n1)c1ccccc1

>  <score_type>  (22) 
oracle

>  <origin>  (22) 
autodockgpu

>  <m_score__min__energy>  (22) 
-9.5299999999999994

>  <m_primary>  (22) 
energy

>  <rmsd>  (22) 
9.563579744482146

>  <m_score__min__rmsd>  (22) 
9.563579744482146

>  <meeko>  (22) 
{"free_energy": -9.1, "intermolecular_energy": -11.19, "internal_energy": -2.16, "cluster_size": 8, "cluster_id": 2, "rank_in_cluster": 2}

>  <energy>  (22) 
-8.99

>  <cluster_rmsd>  (22) 
0.0

>  <cluster>  (22) 
3

$$$$

     RDKit          3D

 61 64  0  0  1  0  0  0  0  0999 V2000
  141.2810   72.9590  219.0080 C   0  0  0  0  0  0  0  0  0  0  0  0
  141.9020   73.6100  220.2110 C   0  0  2  0  0  0  0  0  0  0  0  0
  141.6830   75.0370  220.2770 N   0  0  0  0  0  0  0  0  0  0  0  0
  141.0650   75.6490  221.4070 C   0  0  0  0  0  0  0  0  0  0  0  0
  140.7340   74.8700  222.3430 O   0  0  0  0  0  0  0  0  0  0  0  0
  140.8150   77.0580  221.5300 C   0  0  2  0  0  0  0  0  0  0  0  0
  141.1090   77.7480  222.8200 C   0  0  0  0  0  0  0  0  0  0  0  0
  141.0090   79.2100  222.5610 C   0  0  0  0  0  0  0  0  0  0  0  0
  140.5910   79.6590  221.2130 C   0  0  0  0  0  0  0  0  0  0  0  0
  139.4540   78.8580  220.5830 C   0  0  0  0  0  0  0  0  0  0  0  0
  139.4470   77.5160  221.1980 N   0  0  0  0  0  0  0  0  0  0  0  0
  138.3140   76.7500  221.4610 C   0  0  0  0  0  0  0  0  0  0  0  0
  137.3870   77.3770  222.1460 O   0  0  0  0  0  0  0  0  0  0  0  0
  137.9660   75.3920  221.1170 C   0  0  0  0  0  0  0  0  0  0  0  0
  138.3260   74.3150  221.9670 N   0  0  0  0  0  0  0  0  0  0  0  0
  138.2330   72.9220  221.5860 C   0  0  0  0  0  0  0  0  0  0  0  0
  137.8090   72.6270  220.4210 O   0  0  0  0  0  0  0  0  0  0  0  0
  138.6240   71.8760  222.5370 C   0  0  0  0  0  0  0  0  0  0  0  0
  137.9670   70.6660  222.4730 C   0  0  0  0  0  0  0  0  0  0  0  0
  138.2750   69.6280  223.3310 C   0  0  0  0  0  0  0  0  0  0  0  0
  139.2780   69.8300  224.2790 C   0  0  0  0  0  0  0  0  0  0  0  0
  139.6190   68.8130  225.1630 C   0  0  0  0  0  0  0  0  0  0  0  0
  140.6160   69.0540  226.0840 C   0  0  0  0  0  0  0  0  0  0  0  0
  141.0760   67.7940  227.2170 Cl  0  0  0  0  0  0  0  0  0  0  0  0
  141.2480   70.2830  226.1120 C   0  0  0  0  0  0  0  0  0  0  0  0
  140.9260   71.3100  225.2450 C   0  0  0  0  0  0  0  0  0  0  0  0
  139.9300   71.0600  224.3300 C   0  0  0  0  0  0  0  0  0  0  0  0
  139.5840   72.0450  223.4570 N   0  0  0  0  0  0  0  0  0  0  0  0
  143.3530   73.3690  220.2940 C   0  0  0  0  0  0  0  0  0  0  0  0
  144.2380   74.3710  220.6370 C   0  0  0  0  0  0  0  0  0  0  0  0
  145.6090   74.1600  220.7180 C   0  0  0  0  0  0  0  0  0  0  0  0
  146.1120   72.9080  220.4490 C   0  0  0  0  0  0  0  0  0  0  0  0
  145.2580   71.8890  220.1050 C   0  0  0  0  0  0  0  0  0  0  0  0
  143.8970   72.1200  220.0290 C   0  0  0  0  0  0  0  0  0  0  0  0
  140.5562   72.1991  219.3355 H   0  0  0  0  0  0  0  0  0  0  0  0
  140.7662   73.7205  218.4038 H   0  0  0  0  0  0  0  0  0  0  0  0
  142.0659   72.4807  218.4038 H   0  0  0  0  0  0  0  0  0  0  0  0
  141.3909   73.1349  221.0613 H   0  0  0  0  0  0  0  0  0  0  0  0
  142.0240   75.5920  219.4450 H   0  0  0  0  0  0  0  0  0  0  0  0
  141.5654   77.3419  220.7775 H   0  0  0  0  0  0  0  0  0  0  0  0
  140.3771   77.4484  223.5846 H   0  0  0  0  0  0  0  0  0  0  0  0
  142.1100   77.4813  223.1899 H   0  0  0  0  0  0  0  0  0  0  0  0
  140.2834   79.6188  223.2796 H   0  0  0  0  0  0  0  0  0  0  0  0
  142.0426   79.5735  222.6589 H   0  0  0  0  0  0  0  0  0  0  0  0
  140.2669   80.7074  221.2891 H   0  0  0  0  0  0  0  0  0  0  0  0
  141.4640   79.5145  220.5595 H   0  0  0  0  0  0  0  0  0  0  0  0
  138.4939   79.3604  220.7720 H   0  0  0  0  0  0  0  0  0  0  0  0
  139.5984   78.7795  219.4953 H   0  0  0  0  0  0  0  0  0  0  0  0
  136.8707   75.3632  221.0200 H   0  0  0  0  0  0  0  0  0  0  0  0
  138.5684   75.2052  220.2158 H   0  0  0  0  0  0  0  0  0  0  0  0
  138.6930   74.4710  222.9530 H   0  0  0  0  0  0  0  0  0  0  0  0
  137.1779   70.5233  221.7201 H   0  0  0  0  0  0  0  0  0  0  0  0
  137.7431   68.6672  223.2682 H   0  0  0  0  0  0  0  0  0  0  0  0
  139.1063   67.8404  225.1285 H   0  0  0  0  0  0  0  0  0  0  0  0
  142.0408   70.4507  226.8558 H   0  0  0  0  0  0  0  0  0  0  0  0
  141.4416   72.2809  225.2848 H   0  0  0  0  0  0  0  0  0  0  0  0
  143.8431   75.3744  220.8544 H   0  0  0  0  0  0  0  0  0  0  0  0
  146.2838   74.9838  220.9938 H   0  0  0  0  0  0  0  0  0  0  0  0
  147.1948   72.7238  220.5093 H   0  0  0  0  0  0  0  0  0  0  0  0
  145.6576   70.8871  219.8895 H   0  0  0  0  0  0  0  0  0  0  0  0
  143.2279   71.2923  219.7513 H   0  0  0  0  0  0  0  0  0  0  0  0
  1  2  1  0
  2  3  1  0
  3  4  1  0
  4  5  2  0
  4  6  1  0
  6  7  1  0
  7  8  1  0
  8  9  1  0
  9 10  1  0
 10 11  1  0
 11 12  1  0
 12 13  2  0
 12 14  1  0
 14 15  1  0
 15 16  1  0
 16 17  2  0
 16 18  1  0
 18 19  2  0
 19 20  1  0
 20 21  2  0
 21 22  1  0
 22 23  2  0
 23 24  1  0
 23 25  1  0
 25 26  2  0
 26 27  1  0
 27 28  2  0
  2 29  1  0
 29 30  2  0
 30 31  1  0
 31 32  2  0
 32 33  1  0
 33 34  2  0
 11  6  1  0
 28 18  1  0
 34 29  1  0
 27 21  1  0
  1 35  1  0
  1 36  1  0
  1 37  1  0
  2 38  1  1
  3 39  1  0
  6 40  1  6
  7 41  1  0
  7 42  1  0
  8 43  1  0
  8 44  1  0
  9 45  1  0
  9 46  1  0
 10 47  1  0
 10 48  1  0
 14 49  1  0
 14 50  1  0
 15 51  1  0
 19 52  1  0
 20 53  1  0
 22 54  1  0
 25 55  1  0
 26 56  1  0
 30 57  1  0
 31 58  1  0
 32 59  1  0
 33 60  1  0
 34 61  1  0
M  END
>  <smiles>  (23) 
C[C@H](NC(=O)C1CCCCN1C(=O)CNC(=O)c1ccc2cc(Cl)ccc2n1)c1ccccc1

>  <score_type>  (23) 
oracle

>  <origin>  (23) 
autodockgpu

>  <m_score__min__energy>  (23) 
-9.5299999999999994

>  <m_primary>  (23) 
energy

>  <rmsd>  (23) 
5.745763538717083

>  <m_score__min__rmsd>  (23) 
5.745763538717083

>  <meeko>  (23) 
{"free_energy": -8.47, "intermolecular_energy": -10.56, "internal_energy": -3.0, "cluster_size": 8, "cluster_id": 5, "rank_in_cluster": 2}

>  <energy>  (23) 
-8.08

>  <cluster_rmsd>  (23) 
1.34

>  <cluster>  (23) 
3

$$$$

     RDKit          3D

 61 64  0  0  1  0  0  0  0  0999 V2000
  141.0900   71.0180  220.1340 C   0  0  0  0  0  0  0  0  0  0  0  0
  141.8590   72.0930  220.8470 C   0  0  2  0  0  0  0  0  0  0  0  0
  141.3180   73.4200  220.6550 N   0  0  0  0  0  0  0  0  0  0  0  0
  140.5170   74.0530  221.6490 C   0  0  0  0  0  0  0  0  0  0  0  0
  140.3200   73.3880  222.7050 O   0  0  0  0  0  0  0  0  0  0  0  0
  139.9460   75.3640  221.5180 C   0  0  2  0  0  0  0  0  0  0  0  0
  139.2950   76.0070  222.6960 C   0  0  0  0  0  0  0  0  0  0  0  0
  139.0510   77.4290  222.3340 C   0  0  0  0  0  0  0  0  0  0  0  0
  139.3930   77.8760  220.9640 C   0  0  0  0  0  0  0  0  0  0  0  0
  139.0240   76.9000  219.8500 C   0  0  0  0  0  0  0  0  0  0  0  0
  138.9550   75.5460  220.4340 N   0  0  0  0  0  0  0  0  0  0  0  0
  138.0710   74.5420  220.0490 C   0  0  0  0  0  0  0  0  0  0  0  0
  137.9720   74.3790  218.7500 O   0  0  0  0  0  0  0  0  0  0  0  0
  137.2410   73.6410  220.8140 C   0  0  0  0  0  0  0  0  0  0  0  0
  137.7800   72.9040  221.8990 N   0  0  0  0  0  0  0  0  0  0  0  0
  137.8680   71.4600  221.9290 C   0  0  0  0  0  0  0  0  0  0  0  0
  137.4440   70.7950  220.9280 O   0  0  0  0  0  0  0  0  0  0  0  0
  138.4370   70.7860  223.1010 C   0  0  0  0  0  0  0  0  0  0  0  0
  138.2460   69.4270  223.2200 C   0  0  0  0  0  0  0  0  0  0  0  0
  138.7510   68.7150  224.2930 C   0  0  0  0  0  0  0  0  0  0  0  0
  139.4660   69.4100  225.2670 C   0  0  0  0  0  0  0  0  0  0  0  0
  139.9900   68.7340  226.3640 C   0  0  0  0  0  0  0  0  0  0  0  0
  140.6910   69.4570  227.3040 C   0  0  0  0  0  0  0  0  0  0  0  0
  141.3680   68.6400  228.7020 Cl  0  0  0  0  0  0  0  0  0  0  0  0
  140.8580   70.8210  227.1430 C   0  0  0  0  0  0  0  0  0  0  0  0
  140.3460   71.5150  226.0640 C   0  0  0  0  0  0  0  0  0  0  0  0
  139.6480   70.7840  225.1300 C   0  0  0  0  0  0  0  0  0  0  0  0
  139.1290   71.4310  224.0510 N   0  0  0  0  0  0  0  0  0  0  0  0
  143.2800   72.1210  220.4550 C   0  0  0  0  0  0  0  0  0  0  0  0
  144.1090   73.1680  220.8030 C   0  0  0  0  0  0  0  0  0  0  0  0
  145.4500   73.2100  220.4410 C   0  0  0  0  0  0  0  0  0  0  0  0
  145.9790   72.1720  219.7090 C   0  0  0  0  0  0  0  0  0  0  0  0
  145.1800   71.1150  219.3470 C   0  0  0  0  0  0  0  0  0  0  0  0
  143.8480   71.0940  219.7170 C   0  0  0  0  0  0  0  0  0  0  0  0
  140.6158   70.3551  220.8727 H   0  0  0  0  0  0  0  0  0  0  0  0
  140.3150   71.4783  219.5035 H   0  0  0  0  0  0  0  0  0  0  0  0
  141.7760   70.4332  219.5035 H   0  0  0  0  0  0  0  0  0  0  0  0
  141.7646   71.8242  221.9095 H   0  0  0  0  0  0  0  0  0  0  0  0
  141.5690   73.8900  219.7420 H   0  0  0  0  0  0  0  0  0  0  0  0
  140.9105   75.8527  221.3158 H   0  0  0  0  0  0  0  0  0  0  0  0
  138.3423   75.5056  222.9218 H   0  0  0  0  0  0  0  0  0  0  0  0
  139.9346   75.9326  223.5878 H   0  0  0  0  0  0  0  0  0  0  0  0
  137.9781   77.6224  222.4808 H   0  0  0  0  0  0  0  0  0  0  0  0
  139.7370   77.9944  222.9819 H   0  0  0  0  0  0  0  0  0  0  0  0
  138.8673   78.8234  220.7741 H   0  0  0  0  0  0  0  0  0  0  0  0
  140.4888   77.9682  220.9380 H   0  0  0  0  0  0  0  0  0  0  0  0
  138.0475   77.1726  219.4232 H   0  0  0  0  0  0  0  0  0  0  0  0
  139.7768   76.9326  219.0486 H   0  0  0  0  0  0  0  0  0  0  0  0
  136.4167   74.2439  221.2226 H   0  0  0  0  0  0  0  0  0  0  0  0
  136.9939   72.8563  220.0838 H   0  0  0  0  0  0  0  0  0  0  0  0
  138.1590   73.3800  222.7720 H   0  0  0  0  0  0  0  0  0  0  0  0
  137.6780   68.8949  222.4427 H   0  0  0  0  0  0  0  0  0  0  0  0
  138.5926   67.6296  224.3754 H   0  0  0  0  0  0  0  0  0  0  0  0
  139.8482   67.6492  226.4780 H   0  0  0  0  0  0  0  0  0  0  0  0
  141.4224   71.3763  227.9066 H   0  0  0  0  0  0  0  0  0  0  0  0
  140.4894   72.6003  225.9564 H   0  0  0  0  0  0  0  0  0  0  0  0
  143.6926   74.0006  221.3890 H   0  0  0  0  0  0  0  0  0  0  0  0
  146.0803   74.0619  220.7358 H   0  0  0  0  0  0  0  0  0  0  0  0
  147.0387   72.1886  219.4145 H   0  0  0  0  0  0  0  0  0  0  0  0
  145.6005   70.2839  218.7618 H   0  0  0  0  0  0  0  0  0  0  0  0
  143.2225   70.2400  219.4179 H   0  0  0  0  0  0  0  0  0  0  0  0
  1  2  1  0
  2  3  1  0
  3  4  1  0
  4  5  2  0
  4  6  1  0
  6  7  1  0
  7  8  1  0
  8  9  1  0
  9 10  1  0
 10 11  1  0
 11 12  1  0
 12 13  2  0
 12 14  1  0
 14 15  1  0
 15 16  1  0
 16 17  2  0
 16 18  1  0
 18 19  2  0
 19 20  1  0
 20 21  2  0
 21 22  1  0
 22 23  2  0
 23 24  1  0
 23 25  1  0
 25 26  2  0
 26 27  1  0
 27 28  2  0
  2 29  1  0
 29 30  2  0
 30 31  1  0
 31 32  2  0
 32 33  1  0
 33 34  2  0
 11  6  1  0
 28 18  1  0
 34 29  1  0
 27 21  1  0
  1 35  1  0
  1 36  1  0
  1 37  1  0
  2 38  1  1
  3 39  1  0
  6 40  1  6
  7 41  1  0
  7 42  1  0
  8 43  1  0
  8 44  1  0
  9 45  1  0
  9 46  1  0
 10 47  1  0
 10 48  1  0
 14 49  1  0
 14 50  1  0
 15 51  1  0
 19 52  1  0
 20 53  1  0
 22 54  1  0
 25 55  1  0
 26 56  1  0
 30 57  1  0
 31 58  1  0
 32 59  1  0
 33 60  1  0
 34 61  1  0
M  END
>  <smiles>  (24) 
C[C@H](NC(=O)C1CCCCN1C(=O)CNC(=O)c1ccc2cc(Cl)ccc2n1)c1ccccc1

>  <score_type>  (24) 
oracle

>  <origin>  (24) 
autodockgpu

>  <m_score__min__energy>  (24) 
-9.5299999999999994

>  <m_primary>  (24) 
energy

>  <rmsd>  (24) 
6.052373306387337

>  <m_score__min__rmsd>  (24) 
6.052373306387337

>  <meeko>  (24) 
{"free_energy": -7.73, "intermolecular_energy": -9.82, "internal_energy": -3.41, "cluster_size": 8, "cluster_id": 5, "rank_in_cluster": 6}

>  <energy>  (24) 
-8.84

>  <cluster_rmsd>  (24) 
0.0

>  <cluster>  (24) 
4

$$$$

     RDKit          3D

 61 64  0  0  1  0  0  0  0  0999 V2000
  140.9310   79.5580  218.7510 C   0  0  0  0  0  0  0  0  0  0  0  0
  141.8630   78.6410  219.4910 C   0  0  2  0  0  0  0  0  0  0  0  0
  141.6870   77.2450  219.1600 N   0  0  0  0  0  0  0  0  0  0  0  0
  142.7140   76.2840  219.3950 C   0  0  0  0  0  0  0  0  0  0  0  0
  143.7750   76.7290  219.9160 O   0  0  0  0  0  0  0  0  0  0  0  0
  142.6040   74.8870  219.0860 C   0  0  2  0  0  0  0  0  0  0  0  0
  142.5640   74.4480  217.6600 C   0  0  0  0  0  0  0  0  0  0  0  0
  142.7210   72.9690  217.6570 C   0  0  0  0  0  0  0  0  0  0  0  0
  142.7950   72.2660  218.9590 C   0  0  0  0  0  0  0  0  0  0  0  0
  141.8230   72.7660  220.0250 C   0  0  0  0  0  0  0  0  0  0  0  0
  141.4700   74.1620  219.7010 N   0  0  0  0  0  0  0  0  0  0  0  0
  140.2300   74.7570  219.9200 C   0  0  0  0  0  0  0  0  0  0  0  0
  139.7750   75.4470  218.9010 O   0  0  0  0  0  0  0  0  0  0  0  0
  139.3460   74.7530  221.0620 C   0  0  0  0  0  0  0  0  0  0  0  0
  139.5240   73.8190  222.1130 N   0  0  0  0  0  0  0  0  0  0  0  0
  139.3710   72.3880  221.9550 C   0  0  0  0  0  0  0  0  0  0  0  0
  139.0600   71.9240  220.8090 O   0  0  0  0  0  0  0  0  0  0  0  0
  139.5700   71.4990  223.1040 C   0  0  0  0  0  0  0  0  0  0  0  0
  139.1350   70.1960  222.9970 C   0  0  0  0  0  0  0  0  0  0  0  0
  139.2850   69.2940  224.0330 C   0  0  0  0  0  0  0  0  0  0  0  0
  139.8950   69.7330  225.2070 C   0  0  0  0  0  0  0  0  0  0  0  0
  140.0650   68.8590  226.2750 C   0  0  0  0  0  0  0  0  0  0  0  0
  140.6730   69.3330  227.4180 C   0  0  0  0  0  0  0  0  0  0  0  0
  140.9070   68.2600  228.7870 Cl  0  0  0  0  0  0  0  0  0  0  0  0
  141.0940   70.6490  227.4810 C   0  0  0  0  0  0  0  0  0  0  0  0
  140.9350   71.5360  226.4350 C   0  0  0  0  0  0  0  0  0  0  0  0
  140.3280   71.0540  225.2980 C   0  0  0  0  0  0  0  0  0  0  0  0
  140.1530   71.8970  224.2440 N   0  0  0  0  0  0  0  0  0  0  0  0
  141.7440   78.7800  220.9530 C   0  0  0  0  0  0  0  0  0  0  0  0
  142.1920   79.9060  221.6140 C   0  0  0  0  0  0  0  0  0  0  0  0
  142.0880   80.0520  222.9920 C   0  0  0  0  0  0  0  0  0  0  0  0
  141.5180   79.0420  223.7330 C   0  0  0  0  0  0  0  0  0  0  0  0
  141.0630   77.9090  223.1050 C   0  0  0  0  0  0  0  0  0  0  0  0
  141.1760   77.7830  221.7320 C   0  0  0  0  0  0  0  0  0  0  0  0
  140.3394   80.1401  219.4730 H   0  0  0  0  0  0  0  0  0  0  0  0
  141.5155   80.2429  218.1191 H   0  0  0  0  0  0  0  0  0  0  0  0
  140.2557   78.9625  218.1191 H   0  0  0  0  0  0  0  0  0  0  0  0
  142.8635   78.9584  219.1619 H   0  0  0  0  0  0  0  0  0  0  0  0
  140.7480   76.9850  218.7520 H   0  0  0  0  0  0  0  0  0  0  0  0
  143.5782   74.6294  219.5272 H   0  0  0  0  0  0  0  0  0  0  0  0
  141.6019   74.7269  217.2055 H   0  0  0  0  0  0  0  0  0  0  0  0
  143.3637   74.9293  217.0780 H   0  0  0  0  0  0  0  0  0  0  0  0
  141.8623   72.5519  217.1105 H   0  0  0  0  0  0  0  0  0  0  0  0
  143.7092   72.8028  217.2032 H   0  0  0  0  0  0  0  0  0  0  0  0
  142.5874   71.2003  218.7824 H   0  0  0  0  0  0  0  0  0  0  0  0
  143.8041   72.4583  219.3523 H   0  0  0  0  0  0  0  0  0  0  0  0
  140.9169   72.1424  220.0260 H   0  0  0  0  0  0  0  0  0  0  0  0
  142.2862   72.7101  221.0211 H   0  0  0  0  0  0  0  0  0  0  0  0
  139.4146   75.7528  221.5156 H   0  0  0  0  0  0  0  0  0  0  0  0
  138.3834   74.4490  220.6251 H   0  0  0  0  0  0  0  0  0  0  0  0
  139.7870   74.1200  223.1000 H   0  0  0  0  0  0  0  0  0  0  0  0
  138.6563   69.8655  222.0634 H   0  0  0  0  0  0  0  0  0  0  0  0
  138.9323   68.2568  223.9339 H   0  0  0  0  0  0  0  0  0  0  0  0
  139.7230   67.8156  226.2096 H   0  0  0  0  0  0  0  0  0  0  0  0
  141.5760   71.0040  228.4038 H   0  0  0  0  0  0  0  0  0  0  0  0
  141.2774   72.5789  226.5071 H   0  0  0  0  0  0  0  0  0  0  0  0
  142.6482   80.7177  221.0283 H   0  0  0  0  0  0  0  0  0  0  0  0
  142.4568   80.9638  223.4846 H   0  0  0  0  0  0  0  0  0  0  0  0
  141.4273   79.1421  224.8247 H   0  0  0  0  0  0  0  0  0  0  0  0
  140.6077   77.0998  223.6948 H   0  0  0  0  0  0  0  0  0  0  0  0
  140.8058   76.8685  221.2456 H   0  0  0  0  0  0  0  0  0  0  0  0
  1  2  1  0
  2  3  1  0
  3  4  1  0
  4  5  2  0
  4  6  1  0
  6  7  1  0
  7  8  1  0
  8  9  1  0
  9 10  1  0
 10 11  1  0
 11 12  1  0
 12 13  2  0
 12 14  1  0
 14 15  1  0
 15 16  1  0
 16 17  2  0
 16 18  1  0
 18 19  2  0
 19 20  1  0
 20 21  2  0
 21 22  1  0
 22 23  2  0
 23 24  1  0
 23 25  1  0
 25 26  2  0
 26 27  1  0
 27 28  2  0
  2 29  1  0
 29 30  2  0
 30 31  1  0
 31 32  2  0
 32 33  1  0
 33 34  2  0
 11  6  1  0
 28 18  1  0
 34 29  1  0
 27 21  1  0
  1 35  1  0
  1 36  1  0
  1 37  1  0
  2 38  1  6
  3 39  1  0
  6 40  1  1
  7 41  1  0
  7 42  1  0
  8 43  1  0
  8 44  1  0
  9 45  1  0
  9 46  1  0
 10 47  1  0
 10 48  1  0
 14 49  1  0
 14 50  1  0
 15 51  1  0
 19 52  1  0
 20 53  1  0
 22 54  1  0
 25 55  1  0
 26 56  1  0
 30 57  1  0
 31 58  1  0
 32 59  1  0
 33 60  1  0
 34 61  1  0
M  END
>  <smiles>  (25) 
C[C@H](NC(=O)C1CCCCN1C(=O)CNC(=O)c1ccc2cc(Cl)ccc2n1)c1ccccc1

>  <score_type>  (25) 
oracle

>  <origin>  (25) 
autodockgpu

>  <m_score__min__energy>  (25) 
-9.5299999999999994

>  <m_primary>  (25) 
energy

>  <rmsd>  (25) 
3.221624431518395

>  <m_score__min__rmsd>  (25) 
3.221624431518395

>  <meeko>  (25) 
{"free_energy": -8.0, "intermolecular_energy": -10.09, "internal_energy": -3.06, "cluster_size": 13, "cluster_id": 1, "rank_in_cluster": 12}

>  <energy>  (25) 
-8.55

>  <cluster_rmsd>  (25) 
1.0

>  <cluster>  (25) 
4

$$$$

     RDKit          3D

 61 64  0  0  1  0  0  0  0  0999 V2000
  141.1660   71.1090  220.5610 C   0  0  0  0  0  0  0  0  0  0  0  0
  142.2900   72.0300  220.9410 C   0  0  2  0  0  0  0  0  0  0  0  0
  142.0720   73.4040  220.5500 N   0  0  0  0  0  0  0  0  0  0  0  0
  141.2350   74.2750  221.3060 C   0  0  0  0  0  0  0  0  0  0  0  0
  140.7070   73.7740  222.3380 O   0  0  0  0  0  0  0  0  0  0  0  0
  140.9750   75.6460  220.9680 C   0  0  2  0  0  0  0  0  0  0  0  0
  140.6710   76.6270  222.0500 C   0  0  0  0  0  0  0  0  0  0  0  0
  140.7170   77.9810  221.4330 C   0  0  0  0  0  0  0  0  0  0  0  0
  140.9510   78.0820  219.9740 C   0  0  0  0  0  0  0  0  0  0  0  0
  140.2050   77.0570  219.1220 C   0  0  0  0  0  0  0  0  0  0  0  0
  139.9060   75.8880  219.9730 N   0  0  0  0  0  0  0  0  0  0  0  0
  138.7650   75.0950  219.8880 C   0  0  0  0  0  0  0  0  0  0  0  0
  138.5040   74.6530  218.6800 O   0  0  0  0  0  0  0  0  0  0  0  0
  137.8130   74.6640  220.8850 C   0  0  0  0  0  0  0  0  0  0  0  0
  138.2000   73.7740  221.9190 N   0  0  0  0  0  0  0  0  0  0  0  0
  138.0730   72.3350  221.8340 C   0  0  0  0  0  0  0  0  0  0  0  0
  137.5910   71.8200  220.7730 O   0  0  0  0  0  0  0  0  0  0  0  0
  138.4960   71.4950  222.9600 C   0  0  0  0  0  0  0  0  0  0  0  0
  137.9250   70.2480  223.0850 C   0  0  0  0  0  0  0  0  0  0  0  0
  138.2680   69.3940  224.1160 C   0  0  0  0  0  0  0  0  0  0  0  0
  139.2170   69.8260  225.0430 C   0  0  0  0  0  0  0  0  0  0  0  0
  139.5910   68.9990  226.0960 C   0  0  0  0  0  0  0  0  0  0  0  0
  140.5320   69.4640  226.9900 C   0  0  0  0  0  0  0  0  0  0  0  0
  141.0310   68.4500  228.3330 Cl  0  0  0  0  0  0  0  0  0  0  0  0
  141.0780   70.7240  226.8250 C   0  0  0  0  0  0  0  0  0  0  0  0
  140.7220   71.5640  225.7870 C   0  0  0  0  0  0  0  0  0  0  0  0
  139.7820   71.0910  224.9000 C   0  0  0  0  0  0  0  0  0  0  0  0
  139.4050   71.8870  223.8630 N   0  0  0  0  0  0  0  0  0  0  0  0
  143.5830   71.5970  220.3830 C   0  0  0  0  0  0  0  0  0  0  0  0
  143.7610   70.3340  219.8570 C   0  0  0  0  0  0  0  0  0  0  0  0
  144.9750   69.9110  219.3270 C   0  0  0  0  0  0  0  0  0  0  0  0
  146.0430   70.7780  219.3220 C   0  0  0  0  0  0  0  0  0  0  0  0
  145.8980   72.0430  219.8380 C   0  0  0  0  0  0  0  0  0  0  0  0
  144.6820   72.4440  220.3610 C   0  0  0  0  0  0  0  0  0  0  0  0
  140.6887   70.7179  221.4716 H   0  0  0  0  0  0  0  0  0  0  0  0
  140.4238   71.6620  219.9666 H   0  0  0  0  0  0  0  0  0  0  0  0
  141.5623   70.2726  219.9666 H   0  0  0  0  0  0  0  0  0  0  0  0
  142.3163   71.9768  222.0394 H   0  0  0  0  0  0  0  0  0  0  0  0
  142.5860   73.7200  219.6820 H   0  0  0  0  0  0  0  0  0  0  0  0
  141.9866   75.8277  220.5761 H   0  0  0  0  0  0  0  0  0  0  0  0
  139.6706   76.4343  222.4649 H   0  0  0  0  0  0  0  0  0  0  0  0
  141.3979   76.5443  222.8715 H   0  0  0  0  0  0  0  0  0  0  0  0
  139.7525   78.4668  221.6422 H   0  0  0  0  0  0  0  0  0  0  0  0
  141.6029   78.4533  221.8825 H   0  0  0  0  0  0  0  0  0  0  0  0
  140.6401   79.0857  219.6484 H   0  0  0  0  0  0  0  0  0  0  0  0
  142.0221   77.8823  219.8226 H   0  0  0  0  0  0  0  0  0  0  0  0
  139.2684   77.4946  218.7462 H   0  0  0  0  0  0  0  0  0  0  0  0
  140.8196   76.7558  218.2608 H   0  0  0  0  0  0  0  0  0  0  0  0
  137.4399   75.5742  221.3773 H   0  0  0  0  0  0  0  0  0  0  0  0
  137.0999   74.0647  220.3000 H   0  0  0  0  0  0  0  0  0  0  0  0
  138.6140   74.1190  222.8360 H   0  0  0  0  0  0  0  0  0  0  0  0
  137.1775   69.9237  222.3460 H   0  0  0  0  0  0  0  0  0  0  0  0
  137.8051   68.4000  224.2034 H   0  0  0  0  0  0  0  0  0  0  0  0
  139.1475   67.9992  226.2129 H   0  0  0  0  0  0  0  0  0  0  0  0
  141.8275   71.0723  227.5509 H   0  0  0  0  0  0  0  0  0  0  0  0
  141.1686   72.5630  225.6751 H   0  0  0  0  0  0  0  0  0  0  0  0
  142.9110   69.6357  219.8569 H   0  0  0  0  0  0  0  0  0  0  0  0
  145.0800   68.8957  218.9168 H   0  0  0  0  0  0  0  0  0  0  0  0
  147.0102   70.4594  218.9061 H   0  0  0  0  0  0  0  0  0  0  0  0
  146.7505   72.7381  219.8352 H   0  0  0  0  0  0  0  0  0  0  0  0
  144.5835   73.4604  220.7700 H   0  0  0  0  0  0  0  0  0  0  0  0
  1  2  1  0
  2  3  1  0
  3  4  1  0
  4  5  2  0
  4  6  1  0
  6  7  1  0
  7  8  1  0
  8  9  1  0
  9 10  1  0
 10 11  1  0
 11 12  1  0
 12 13  2  0
 12 14  1  0
 14 15  1  0
 15 16  1  0
 16 17  2  0
 16 18  1  0
 18 19  2  0
 19 20  1  0
 20 21  2  0
 21 22  1  0
 22 23  2  0
 23 24  1  0
 23 25  1  0
 25 26  2  0
 26 27  1  0
 27 28  2  0
  2 29  1  0
 29 30  2  0
 30 31  1  0
 31 32  2  0
 32 33  1  0
 33 34  2  0
 11  6  1  0
 28 18  1  0
 34 29  1  0
 27 21  1  0
  1 35  1  0
  1 36  1  0
  1 37  1  0
  2 38  1  1
  3 39  1  0
  6 40  1  6
  7 41  1  0
  7 42  1  0
  8 43  1  0
  8 44  1  0
  9 45  1  0
  9 46  1  0
 10 47  1  0
 10 48  1  0
 14 49  1  0
 14 50  1  0
 15 51  1  0
 19 52  1  0
 20 53  1  0
 22 54  1  0
 25 55  1  0
 26 56  1  0
 30 57  1  0
 31 58  1  0
 32 59  1  0
 33 60  1  0
 34 61  1  0
M  END
>  <smiles>  (26) 
C[C@H](NC(=O)C1CCCCN1C(=O)CNC(=O)c1ccc2cc(Cl)ccc2n1)c1ccccc1

>  <score_type>  (26) 
oracle

>  <origin>  (26) 
autodockgpu

>  <m_score__min__energy>  (26) 
-9.5299999999999994

>  <m_primary>  (26) 
energy

>  <rmsd>  (26) 
6.16766141852324

>  <m_score__min__rmsd>  (26) 
6.16766141852324

>  <meeko>  (26) 
{"free_energy": -7.82, "intermolecular_energy": -9.91, "internal_energy": -3.27, "cluster_size": 8, "cluster_id": 5, "rank_in_cluster": 3}

>  <energy>  (26) 
-8.53

>  <cluster_rmsd>  (26) 
1.7

>  <cluster>  (26) 
4

$$$$

     RDKit          3D

 61 64  0  0  1  0  0  0  0  0999 V2000
  140.9230   75.6550  220.2500 C   0  0  0  0  0  0  0  0  0  0  0  0
  140.7190   76.0400  221.6880 C   0  0  2  0  0  0  0  0  0  0  0  0
  139.3700   75.8240  222.1600 N   0  0  0  0  0  0  0  0  0  0  0  0
  138.2480   76.4430  221.5350 C   0  0  0  0  0  0  0  0  0  0  0  0
  138.5080   77.1780  220.5420 O   0  0  0  0  0  0  0  0  0  0  0  0
  136.8870   76.2730  221.9580 C   0  0  2  0  0  0  0  0  0  0  0  0
  136.5870   76.0410  223.4010 C   0  0  0  0  0  0  0  0  0  0  0  0
  135.1150   76.1750  223.5650 C   0  0  0  0  0  0  0  0  0  0  0  0
  134.2900   76.4070  222.3570 C   0  0  0  0  0  0  0  0  0  0  0  0
  134.6880   75.5890  221.1300 C   0  0  0  0  0  0  0  0  0  0  0  0
  136.1090   75.2180  221.2710 N   0  0  0  0  0  0  0  0  0  0  0  0
  136.6830   74.0250  220.8360 C   0  0  0  0  0  0  0  0  0  0  0  0
  135.8620   73.2430  220.1750 O   0  0  0  0  0  0  0  0  0  0  0  0
  138.0160   73.4880  220.9750 C   0  0  0  0  0  0  0  0  0  0  0  0
  138.3240   72.5740  222.0140 N   0  0  0  0  0  0  0  0  0  0  0  0
  139.5890   72.5470  222.7160 C   0  0  0  0  0  0  0  0  0  0  0  0
  140.4900   73.3910  222.3970 O   0  0  0  0  0  0  0  0  0  0  0  0
  139.8180   71.5590  223.7750 C   0  0  0  0  0  0  0  0  0  0  0  0
  139.4880   70.2460  223.5160 C   0  0  0  0  0  0  0  0  0  0  0  0
  139.6730   69.2530  224.4590 C   0  0  0  0  0  0  0  0  0  0  0  0
  140.2070   69.6090  225.6970 C   0  0  0  0  0  0  0  0  0  0  0  0
  140.4090   68.6420  226.6750 C   0  0  0  0  0  0  0  0  0  0  0  0
  140.9390   69.0350  227.8850 C   0  0  0  0  0  0  0  0  0  0  0  0
  141.2100   67.8440  229.1440 Cl  0  0  0  0  0  0  0  0  0  0  0  0
  141.2550   70.3640  228.1000 C   0  0  0  0  0  0  0  0  0  0  0  0
  141.0630   71.3440  227.1450 C   0  0  0  0  0  0  0  0  0  0  0  0
  140.5340   70.9410  225.9410 C   0  0  0  0  0  0  0  0  0  0  0  0
  140.3300   71.8750  224.9720 N   0  0  0  0  0  0  0  0  0  0  0  0
  141.0720   77.4470  221.9480 C   0  0  0  0  0  0  0  0  0  0  0  0
  141.1020   77.9640  223.2270 C   0  0  0  0  0  0  0  0  0  0  0  0
  141.4320   79.2880  223.4890 C   0  0  0  0  0  0  0  0  0  0  0  0
  141.7420   80.1220  222.4400 C   0  0  0  0  0  0  0  0  0  0  0  0
  141.7210   79.6390  221.1550 C   0  0  0  0  0  0  0  0  0  0  0  0
  141.3900   78.3180  220.9150 C   0  0  0  0  0  0  0  0  0  0  0  0
  141.4375   74.6840  220.1998 H   0  0  0  0  0  0  0  0  0  0  0  0
  139.9468   75.5790  219.7487 H   0  0  0  0  0  0  0  0  0  0  0  0
  141.5340   76.4201  219.7487 H   0  0  0  0  0  0  0  0  0  0  0  0
  141.3972   75.3726  222.2399 H   0  0  0  0  0  0  0  0  0  0  0  0
  139.2720   75.1690  222.9840 H   0  0  0  0  0  0  0  0  0  0  0  0
  136.5859   77.2924  221.6749 H   0  0  0  0  0  0  0  0  0  0  0  0
  136.9099   75.0319  223.6967 H   0  0  0  0  0  0  0  0  0  0  0  0
  137.1205   76.7648  224.0346 H   0  0  0  0  0  0  0  0  0  0  0  0
  134.7540   75.2468  224.0321 H   0  0  0  0  0  0  0  0  0  0  0  0
  134.9914   77.0936  224.1574 H   0  0  0  0  0  0  0  0  0  0  0  0
  133.2468   76.1621  222.6053 H   0  0  0  0  0  0  0  0  0  0  0  0
  134.4408   77.4615  222.0826 H   0  0  0  0  0  0  0  0  0  0  0  0
  134.0694   74.6814  221.0697 H   0  0  0  0  0  0  0  0  0  0  0  0
  134.5356   76.1769  220.2128 H   0  0  0  0  0  0  0  0  0  0  0  0
  138.2494   72.9781  220.0287 H   0  0  0  0  0  0  0  0  0  0  0  0
  138.6100   74.3738  221.2441 H   0  0  0  0  0  0  0  0  0  0  0  0
  137.6290   71.8390  222.3450 H   0  0  0  0  0  0  0  0  0  0  0  0
  139.0671   69.9822  222.5346 H   0  0  0  0  0  0  0  0  0  0  0  0
  139.4060   68.2089  224.2388 H   0  0  0  0  0  0  0  0  0  0  0  0
  140.1521   67.5889  226.4877 H   0  0  0  0  0  0  0  0  0  0  0  0
  141.6775   70.6535  229.0735 H   0  0  0  0  0  0  0  0  0  0  0  0
  141.3208   72.3958  227.3383 H   0  0  0  0  0  0  0  0  0  0  0  0
  140.8554   77.3030  224.0710 H   0  0  0  0  0  0  0  0  0  0  0  0
  141.4452   79.6646  224.5224 H   0  0  0  0  0  0  0  0  0  0  0  0
  142.0060   81.1728  222.6301 H   0  0  0  0  0  0  0  0  0  0  0  0
  141.9680   80.3043  220.3145 H   0  0  0  0  0  0  0  0  0  0  0  0
  141.3784   77.9480  219.8792 H   0  0  0  0  0  0  0  0  0  0  0  0
  1  2  1  0
  2  3  1  0
  3  4  1  0
  4  5  2  0
  4  6  1  0
  6  7  1  0
  7  8  1  0
  8  9  1  0
  9 10  1  0
 10 11  1  0
 11 12  1  0
 12 13  2  0
 12 14  1  0
 14 15  1  0
 15 16  1  0
 16 17  2  0
 16 18  1  0
 18 19  2  0
 19 20  1  0
 20 21  2  0
 21 22  1  0
 22 23  2  0
 23 24  1  0
 23 25  1  0
 25 26  2  0
 26 27  1  0
 27 28  2  0
  2 29  1  0
 29 30  2  0
 30 31  1  0
 31 32  2  0
 32 33  1  0
 33 34  2  0
 11  6  1  0
 28 18  1  0
 34 29  1  0
 27 21  1  0
  1 35  1  0
  1 36  1  0
  1 37  1  0
  2 38  1  1
  3 39  1  0
  6 40  1  6
  7 41  1  0
  7 42  1  0
  8 43  1  0
  8 44  1  0
  9 45  1  0
  9 46  1  0
 10 47  1  0
 10 48  1  0
 14 49  1  0
 14 50  1  0
 15 51  1  0
 19 52  1  0
 20 53  1  0
 22 54  1  0
 25 55  1  0
 26 56  1  0
 30 57  1  0
 31 58  1  0
 32 59  1  0
 33 60  1  0
 34 61  1  0
M  END
>  <smiles>  (27) 
C[C@H](NC(=O)C1CCCCN1C(=O)CNC(=O)c1ccc2cc(Cl)ccc2n1)c1ccccc1

>  <score_type>  (27) 
oracle

>  <origin>  (27) 
autodockgpu

>  <m_score__min__energy>  (27) 
-9.5299999999999994

>  <m_primary>  (27) 
energy

>  <rmsd>  (27) 
4.089888179303227

>  <m_score__min__rmsd>  (27) 
4.089888179303227

>  <meeko>  (27) 
{"free_energy": -8.21, "intermolecular_energy": -10.3, "internal_energy": -2.51, "cluster_size": 5, "cluster_id": 4, "rank_in_cluster": 5}

>  <energy>  (27) 
-8.4

>  <cluster_rmsd>  (27) 
1.64

>  <cluster>  (27) 
4

$$$$

     RDKit          3D

 61 64  0  0  1  0  0  0  0  0999 V2000
  145.4000   74.3940  220.8540 C   0  0  0  0  0  0  0  0  0  0  0  0
  144.2020   74.3230  219.9510 C   0  0  2  0  0  0  0  0  0  0  0  0
  143.2050   75.3330  220.2280 N   0  0  0  0  0  0  0  0  0  0  0  0
  142.4230   75.9190  219.1900 C   0  0  0  0  0  0  0  0  0  0  0  0
  142.6500   75.4940  218.0230 O   0  0  0  0  0  0  0  0  0  0  0  0
  141.4230   76.9280  219.3990 C   0  0  2  0  0  0  0  0  0  0  0  0
  141.7760   78.1740  220.1400 C   0  0  0  0  0  0  0  0  0  0  0  0
  140.6430   79.1210  219.9610 C   0  0  0  0  0  0  0  0  0  0  0  0
  139.4480   78.6560  219.2190 C   0  0  0  0  0  0  0  0  0  0  0  0
  138.9990   77.2310  219.5350 C   0  0  0  0  0  0  0  0  0  0  0  0
  140.1670   76.4880  220.0450 N   0  0  0  0  0  0  0  0  0  0  0  0
  140.1330   75.4960  221.0220 C   0  0  0  0  0  0  0  0  0  0  0  0
  141.0660   75.6100  221.9380 O   0  0  0  0  0  0  0  0  0  0  0  0
  139.2580   74.3640  221.2190 C   0  0  0  0  0  0  0  0  0  0  0  0
  139.4760   73.4570  222.2870 N   0  0  0  0  0  0  0  0  0  0  0  0
  139.1090   72.0580  222.2440 C   0  0  0  0  0  0  0  0  0  0  0  0
  138.5600   71.5960  221.1900 O   0  0  0  0  0  0  0  0  0  0  0  0
  139.3710   71.1970  223.4020 C   0  0  0  0  0  0  0  0  0  0  0  0
  138.9650   69.8820  223.3340 C   0  0  0  0  0  0  0  0  0  0  0  0
  139.1740   69.0040  224.3810 C   0  0  0  0  0  0  0  0  0  0  0  0
  139.8110   69.4810  225.5250 C   0  0  0  0  0  0  0  0  0  0  0  0
  140.0410   68.6330  226.6030 C   0  0  0  0  0  0  0  0  0  0  0  0
  140.6750   69.1440  227.7150 C   0  0  0  0  0  0  0  0  0  0  0  0
  140.9830   68.1040  229.0950 Cl  0  0  0  0  0  0  0  0  0  0  0  0
  141.0640   70.4710  227.7390 C   0  0  0  0  0  0  0  0  0  0  0  0
  140.8470   71.3330  226.6820 C   0  0  0  0  0  0  0  0  0  0  0  0
  140.2140   70.8140  225.5760 C   0  0  0  0  0  0  0  0  0  0  0  0
  139.9820   71.6310  224.5130 N   0  0  0  0  0  0  0  0  0  0  0  0
  143.5400   73.0070  219.9980 C   0  0  0  0  0  0  0  0  0  0  0  0
  142.4650   72.7640  220.8290 C   0  0  0  0  0  0  0  0  0  0  0  0
  141.8310   71.5290  220.8860 C   0  0  0  0  0  0  0  0  0  0  0  0
  142.2850   70.5050  220.0860 C   0  0  0  0  0  0  0  0  0  0  0  0
  143.3520   70.7150  219.2480 C   0  0  0  0  0  0  0  0  0  0  0  0
  143.9690   71.9520  219.2070 C   0  0  0  0  0  0  0  0  0  0  0  0
  145.0700   74.3744  221.9032 H   0  0  0  0  0  0  0  0  0  0  0  0
  146.0568   73.5332  220.6601 H   0  0  0  0  0  0  0  0  0  0  0  0
  145.9506   75.3263  220.6601 H   0  0  0  0  0  0  0  0  0  0  0  0
  144.6167   74.5019  218.9480 H   0  0  0  0  0  0  0  0  0  0  0  0
  143.0860   75.5930  221.2460 H   0  0  0  0  0  0  0  0  0  0  0  0
  141.3088   77.1523  218.3282 H   0  0  0  0  0  0  0  0  0  0  0  0
  141.9174   77.9514  221.2079 H   0  0  0  0  0  0  0  0  0  0  0  0
  142.7131   78.6058  219.7587 H   0  0  0  0  0  0  0  0  0  0  0  0
  140.3069   79.4198  220.9649 H   0  0  0  0  0  0  0  0  0  0  0  0
  141.0571   79.9231  219.3324 H   0  0  0  0  0  0  0  0  0  0  0  0
  138.6155   79.3351  219.4551 H   0  0  0  0  0  0  0  0  0  0  0  0
  139.7295   78.6581  218.1556 H   0  0  0  0  0  0  0  0  0  0  0  0
  138.2064   77.2497  220.2975 H   0  0  0  0  0  0  0  0  0  0  0  0
  138.6022   76.7458  218.6310 H   0  0  0  0  0  0  0  0  0  0  0  0
  138.2446   74.7701  221.3537 H   0  0  0  0  0  0  0  0  0  0  0  0
  139.4525   73.7465  220.3297 H   0  0  0  0  0  0  0  0  0  0  0  0
  139.9320   73.7580  223.2000 H   0  0  0  0  0  0  0  0  0  0  0  0
  138.4622   69.5221  222.4242 H   0  0  0  0  0  0  0  0  0  0  0  0
  138.8461   67.9562  224.3129 H   0  0  0  0  0  0  0  0  0  0  0  0
  139.7246   67.5800  226.5690 H   0  0  0  0  0  0  0  0  0  0  0  0
  141.5675   70.8561  228.6380 H   0  0  0  0  0  0  0  0  0  0  0  0
  141.1653   72.3852  226.7224 H   0  0  0  0  0  0  0  0  0  0  0  0
  142.0965   73.5785  221.4700 H   0  0  0  0  0  0  0  0  0  0  0  0
  140.9773   71.3716  221.5617 H   0  0  0  0  0  0  0  0  0  0  0  0
  141.7942   69.5211  220.1180 H   0  0  0  0  0  0  0  0  0  0  0  0
  143.7168   69.8980  218.6081 H   0  0  0  0  0  0  0  0  0  0  0  0
  144.8222   72.1029  218.5293 H   0  0  0  0  0  0  0  0  0  0  0  0
  1  2  1  0
  2  3  1  0
  3  4  1  0
  4  5  2  0
  4  6  1  0
  6  7  1  0
  7  8  1  0
  8  9  1  0
  9 10  1  0
 10 11  1  0
 11 12  1  0
 12 13  2  0
 12 14  1  0
 14 15  1  0
 15 16  1  0
 16 17  2  0
 16 18  1  0
 18 19  2  0
 19 20  1  0
 20 21  2  0
 21 22  1  0
 22 23  2  0
 23 24  1  0
 23 25  1  0
 25 26  2  0
 26 27  1  0
 27 28  2  0
  2 29  1  0
 29 30  2  0
 30 31  1  0
 31 32  2  0
 32 33  1  0
 33 34  2  0
 11  6  1  0
 28 18  1  0
 34 29  1  0
 27 21  1  0
  1 35  1  0
  1 36  1  0
  1 37  1  0
  2 38  1  6
  3 39  1  0
  6 40  1  6
  7 41  1  0
  7 42  1  0
  8 43  1  0
  8 44  1  0
  9 45  1  0
  9 46  1  0
 10 47  1  0
 10 48  1  0
 14 49  1  0
 14 50  1  0
 15 51  1  0
 19 52  1  0
 20 53  1  0
 22 54  1  0
 25 55  1  0
 26 56  1  0
 30 57  1  0
 31 58  1  0
 32 59  1  0
 33 60  1  0
 34 61  1  0
M  END
>  <smiles>  (28) 
C[C@H](NC(=O)C1CCCCN1C(=O)CNC(=O)c1ccc2cc(Cl)ccc2n1)c1ccccc1

>  <score_type>  (28) 
oracle

>  <origin>  (28) 
autodockgpu

>  <m_score__min__energy>  (28) 
-9.5299999999999994

>  <m_primary>  (28) 
energy

>  <rmsd>  (28) 
5.325831869938755

>  <m_score__min__rmsd>  (28) 
5.325831869938755

>  <meeko>  (28) 
{"free_energy": -7.74, "intermolecular_energy": -9.82, "internal_energy": -3.66, "cluster_size": 8, "cluster_id": 5, "rank_in_cluster": 5}

>  <energy>  (28) 
-8.21

>  <cluster_rmsd>  (28) 
1.44

>  <cluster>  (28) 
4

$$$$

     RDKit          3D

 61 64  0  0  1  0  0  0  0  0999 V2000
  139.0170   71.0220  222.0110 C   0  0  0  0  0  0  0  0  0  0  0  0
  138.3240   70.6370  223.2870 C   0  0  2  0  0  0  0  0  0  0  0  0
  137.3700   71.6190  223.7490 N   0  0  0  0  0  0  0  0  0  0  0  0
  136.0780   71.2450  224.2230 C   0  0  0  0  0  0  0  0  0  0  0  0
  135.8290   70.0080  224.2230 O   0  0  0  0  0  0  0  0  0  0  0  0
  135.0850   72.1720  224.6900 C   0  0  2  0  0  0  0  0  0  0  0  0
  133.7010   71.6910  224.9670 C   0  0  0  0  0  0  0  0  0  0  0  0
  132.9940   72.7900  225.6780 C   0  0  0  0  0  0  0  0  0  0  0  0
  133.7100   74.0710  225.8810 C   0  0  0  0  0  0  0  0  0  0  0  0
  134.5300   74.5550  224.6880 C   0  0  0  0  0  0  0  0  0  0  0  0
  134.8710   73.3800  223.8620 N   0  0  0  0  0  0  0  0  0  0  0  0
  134.9750   73.3680  222.4740 C   0  0  0  0  0  0  0  0  0  0  0  0
  134.7290   72.2010  221.9250 O   0  0  0  0  0  0  0  0  0  0  0  0
  135.3030   74.4020  221.5210 C   0  0  0  0  0  0  0  0  0  0  0  0
  136.3450   75.3260  221.7850 N   0  0  0  0  0  0  0  0  0  0  0  0
  137.7300   74.9500  221.9660 C   0  0  0  0  0  0  0  0  0  0  0  0
  138.0510   73.7190  221.8830 O   0  0  0  0  0  0  0  0  0  0  0  0
  138.7390   75.9780  222.2410 C   0  0  0  0  0  0  0  0  0  0  0  0
  140.0590   75.6700  221.9990 C   0  0  0  0  0  0  0  0  0  0  0  0
  141.0710   76.5830  222.2310 C   0  0  0  0  0  0  0  0  0  0  0  0
  140.7250   77.8400  222.7240 C   0  0  0  0  0  0  0  0  0  0  0  0
  141.7120   78.7880  222.9720 C   0  0  0  0  0  0  0  0  0  0  0  0
  141.3280   80.0200  223.4580 C   0  0  0  0  0  0  0  0  0  0  0  0
  142.5430   81.2430  223.7840 Cl  0  0  0  0  0  0  0  0  0  0  0  0
  139.9900   80.2850  223.6870 C   0  0  0  0  0  0  0  0  0  0  0  0
  138.9920   79.3600  223.4490 C   0  0  0  0  0  0  0  0  0  0  0  0
  139.3850   78.1340  222.9640 C   0  0  0  0  0  0  0  0  0  0  0  0
  138.4320   77.1940  222.7150 N   0  0  0  0  0  0  0  0  0  0  0  0
  139.2720   70.3740  224.3840 C   0  0  0  0  0  0  0  0  0  0  0  0
  140.1930   71.3180  224.7900 C   0  0  0  0  0  0  0  0  0  0  0  0
  141.0950   71.0860  225.8220 C   0  0  0  0  0  0  0  0  0  0  0  0
  141.0730   69.8720  226.4700 C   0  0  0  0  0  0  0  0  0  0  0  0
  140.1680   68.9120  226.0910 C   0  0  0  0  0  0  0  0  0  0  0  0
  139.2800   69.1630  225.0610 C   0  0  0  0  0  0  0  0  0  0  0  0
  139.9562   71.5438  222.2469 H   0  0  0  0  0  0  0  0  0  0  0  0
  139.2373   70.1170  221.4259 H   0  0  0  0  0  0  0  0  0  0  0  0
  138.3649   71.6872  221.4259 H   0  0  0  0  0  0  0  0  0  0  0  0
  137.7832   69.7154  223.0257 H   0  0  0  0  0  0  0  0  0  0  0  0
  137.6980   72.6240  223.7260 H   0  0  0  0  0  0  0  0  0  0  0  0
  135.6028   72.3779  225.6384 H   0  0  0  0  0  0  0  0  0  0  0  0
  133.1858   71.4584  224.0234 H   0  0  0  0  0  0  0  0  0  0  0  0
  133.7177   70.7754  225.5764 H   0  0  0  0  0  0  0  0  0  0  0  0
  132.0818   73.0141  225.1056 H   0  0  0  0  0  0  0  0  0  0  0  0
  132.8413   72.4006  226.6954 H   0  0  0  0  0  0  0  0  0  0  0  0
  132.9637   74.8440  226.1167 H   0  0  0  0  0  0  0  0  0  0  0  0
  134.4301   73.8921  226.6931 H   0  0  0  0  0  0  0  0  0  0  0  0
  133.9404   75.2697  224.0951 H   0  0  0  0  0  0  0  0  0  0  0  0
  135.4453   75.0585  225.0325 H   0  0  0  0  0  0  0  0  0  0  0  0
  135.5657   73.8922  220.5823 H   0  0  0  0  0  0  0  0  0  0  0  0
  134.4047   75.0368  221.5295 H   0  0  0  0  0  0  0  0  0  0  0  0
  136.1660   76.3720  221.8670 H   0  0  0  0  0  0  0  0  0  0  0  0
  140.3147   74.6728  221.6114 H   0  0  0  0  0  0  0  0  0  0  0  0
  142.1214   76.3242  222.0318 H   0  0  0  0  0  0  0  0  0  0  0  0
  142.7720   78.5608  222.7852 H   0  0  0  0  0  0  0  0  0  0  0  0
  139.7085   81.2749  224.0753 H   0  0  0  0  0  0  0  0  0  0  0  0
  137.9337   79.5926  223.6382 H   0  0  0  0  0  0  0  0  0  0  0  0
  140.2142   72.2911  224.2775 H   0  0  0  0  0  0  0  0  0  0  0  0
  141.8166   71.8622  226.1167 H   0  0  0  0  0  0  0  0  0  0  0  0
  141.7788   69.6715  227.2895 H   0  0  0  0  0  0  0  0  0  0  0  0
  140.1491   67.9411  226.6076 H   0  0  0  0  0  0  0  0  0  0  0  0
  138.5614   68.3823  224.7710 H   0  0  0  0  0  0  0  0  0  0  0  0
  1  2  1  0
  2  3  1  0
  3  4  1  0
  4  5  2  0
  4  6  1  0
  6  7  1  0
  7  8  1  0
  8  9  1  0
  9 10  1  0
 10 11  1  0
 11 12  1  0
 12 13  2  0
 12 14  1  0
 14 15  1  0
 15 16  1  0
 16 17  2  0
 16 18  1  0
 18 19  2  0
 19 20  1  0
 20 21  2  0
 21 22  1  0
 22 23  2  0
 23 24  1  0
 23 25  1  0
 25 26  2  0
 26 27  1  0
 27 28  2  0
  2 29  1  0
 29 30  2  0
 30 31  1  0
 31 32  2  0
 32 33  1  0
 33 34  2  0
 11  6  1  0
 28 18  1  0
 34 29  1  0
 27 21  1  0
  1 35  1  0
  1 36  1  0
  1 37  1  0
  2 38  1  6
  3 39  1  0
  6 40  1  1
  7 41  1  0
  7 42  1  0
  8 43  1  0
  8 44  1  0
  9 45  1  0
  9 46  1  0
 10 47  1  0
 10 48  1  0
 14 49  1  0
 14 50  1  0
 15 51  1  0
 19 52  1  0
 20 53  1  0
 22 54  1  0
 25 55  1  0
 26 56  1  0
 30 57  1  0
 31 58  1  0
 32 59  1  0
 33 60  1  0
 34 61  1  0
M  END
>  <smiles>  (29) 
C[C@H](NC(=O)C1CCCCN1C(=O)CNC(=O)c1ccc2cc(Cl)ccc2n1)c1ccccc1

>  <score_type>  (29) 
oracle

>  <origin>  (29) 
autodockgpu

>  <m_score__min__energy>  (29) 
-9.5299999999999994

>  <m_primary>  (29) 
energy

>  <rmsd>  (29) 
9.553095644000088

>  <m_score__min__rmsd>  (29) 
9.553095644000088

>  <meeko>  (29) 
{"free_energy": -8.03, "intermolecular_energy": -10.12, "internal_energy": -3.13, "cluster_size": 8, "cluster_id": 2, "rank_in_cluster": 5}

>  <energy>  (29) 
-8.75

>  <cluster_rmsd>  (29) 
0.0

>  <cluster>  (29) 
5

$$$$

     RDKit          3D

 61 64  0  0  1  0  0  0  0  0999 V2000
  145.6550   74.1030  220.9140 C   0  0  0  0  0  0  0  0  0  0  0  0
  144.5330   74.0460  219.9170 C   0  0  2  0  0  0  0  0  0  0  0  0
  143.5670   75.1100  220.0680 N   0  0  0  0  0  0  0  0  0  0  0  0
  142.8020   75.5900  218.9660 C   0  0  0  0  0  0  0  0  0  0  0  0
  143.0150   75.0220  217.8580 O   0  0  0  0  0  0  0  0  0  0  0  0
  141.8320   76.6460  219.0490 C   0  0  2  0  0  0  0  0  0  0  0  0
  142.1960   77.9310  219.7120 C   0  0  0  0  0  0  0  0  0  0  0  0
  141.1090   78.9000  219.4080 C   0  0  0  0  0  0  0  0  0  0  0  0
  139.9340   78.4220  218.6430 C   0  0  0  0  0  0  0  0  0  0  0  0
  139.4170   77.0410  219.0400 C   0  0  0  0  0  0  0  0  0  0  0  0
  140.5310   76.2980  219.6620 N   0  0  0  0  0  0  0  0  0  0  0  0
  140.4130   75.3860  220.7070 C   0  0  0  0  0  0  0  0  0  0  0  0
  141.4370   75.3700  221.5270 O   0  0  0  0  0  0  0  0  0  0  0  0
  139.3690   74.4510  221.0590 C   0  0  0  0  0  0  0  0  0  0  0  0
  139.5450   73.5400  222.1310 N   0  0  0  0  0  0  0  0  0  0  0  0
  139.2740   72.1220  222.0370 C   0  0  0  0  0  0  0  0  0  0  0  0
  138.8540   71.6460  220.9310 O   0  0  0  0  0  0  0  0  0  0  0  0
  139.4810   71.2570  223.2030 C   0  0  0  0  0  0  0  0  0  0  0  0
  139.0090   69.9640  223.1410 C   0  0  0  0  0  0  0  0  0  0  0  0
  139.1630   69.0850  224.1960 C   0  0  0  0  0  0  0  0  0  0  0  0
  139.8150   69.5380  225.3420 C   0  0  0  0  0  0  0  0  0  0  0  0
  139.9920   68.6870  226.4280 C   0  0  0  0  0  0  0  0  0  0  0  0
  140.6420   69.1730  227.5410 C   0  0  0  0  0  0  0  0  0  0  0  0
  140.8850   68.1300  228.9320 Cl  0  0  0  0  0  0  0  0  0  0  0  0
  141.0990   70.4780  227.5590 C   0  0  0  0  0  0  0  0  0  0  0  0
  140.9350   71.3430  226.4940 C   0  0  0  0  0  0  0  0  0  0  0  0
  140.2850   70.8480  225.3870 C   0  0  0  0  0  0  0  0  0  0  0  0
  140.1040   71.6680  224.3160 N   0  0  0  0  0  0  0  0  0  0  0  0
  143.8080   72.7640  219.9620 C   0  0  0  0  0  0  0  0  0  0  0  0
  144.4280   71.5680  219.6650 C   0  0  0  0  0  0  0  0  0  0  0  0
  143.7580   70.3510  219.7010 C   0  0  0  0  0  0  0  0  0  0  0  0
  142.4260   70.3290  220.0460 C   0  0  0  0  0  0  0  0  0  0  0  0
  141.7800   71.5020  220.3470 C   0  0  0  0  0  0  0  0  0  0  0  0
  142.4650   72.7030  220.3050 C   0  0  0  0  0  0  0  0  0  0  0  0
  145.2414   74.0820  221.9331 H   0  0  0  0  0  0  0  0  0  0  0  0
  146.3182   73.2374  220.7695 H   0  0  0  0  0  0  0  0  0  0  0  0
  146.2271   75.0314  220.7695 H   0  0  0  0  0  0  0  0  0  0  0  0
  145.0359   74.1625  218.9457 H   0  0  0  0  0  0  0  0  0  0  0  0
  143.4560   75.4930  221.0470 H   0  0  0  0  0  0  0  0  0  0  0  0
  141.7773   76.7936  217.9603 H   0  0  0  0  0  0  0  0  0  0  0  0
  142.2789   77.7850  220.7991 H   0  0  0  0  0  0  0  0  0  0  0  0
  143.1653   78.3008  219.3464 H   0  0  0  0  0  0  0  0  0  0  0  0
  140.7371   79.2840  220.3694 H   0  0  0  0  0  0  0  0  0  0  0  0
  141.5823   79.6384  218.7441 H   0  0  0  0  0  0  0  0  0  0  0  0
  139.1176   79.1451  218.7864 H   0  0  0  0  0  0  0  0  0  0  0  0
  140.2655   78.3347  217.5978 H   0  0  0  0  0  0  0  0  0  0  0  0
  138.5902   77.1442  219.7581 H   0  0  0  0  0  0  0  0  0  0  0  0
  139.0460   76.5031  218.1551 H   0  0  0  0  0  0  0  0  0  0  0  0
  138.4782   75.0502  221.2988 H   0  0  0  0  0  0  0  0  0  0  0  0
  139.3247   73.7905  220.1805 H   0  0  0  0  0  0  0  0  0  0  0  0
  139.8950   73.8510  223.0870 H   0  0  0  0  0  0  0  0  0  0  0  0
  138.4969   69.6230  222.2291 H   0  0  0  0  0  0  0  0  0  0  0  0
  138.7813   68.0553  224.1333 H   0  0  0  0  0  0  0  0  0  0  0  0
  139.6220   67.6515  226.3987 H   0  0  0  0  0  0  0  0  0  0  0  0
  141.6150   70.8430  228.4593 H   0  0  0  0  0  0  0  0  0  0  0  0
  141.3063   72.3778  226.5295 H   0  0  0  0  0  0  0  0  0  0  0  0
  145.4928   71.5780  219.3893 H   0  0  0  0  0  0  0  0  0  0  0  0
  144.2857   69.4172  219.4569 H   0  0  0  0  0  0  0  0  0  0  0  0
  141.8807   69.3743  220.0804 H   0  0  0  0  0  0  0  0  0  0  0  0
  140.7151   71.4870  220.6223 H   0  0  0  0  0  0  0  0  0  0  0  0
  141.9314   73.6333  220.5497 H   0  0  0  0  0  0  0  0  0  0  0  0
  1  2  1  0
  2  3  1  0
  3  4  1  0
  4  5  2  0
  4  6  1  0
  6  7  1  0
  7  8  1  0
  8  9  1  0
  9 10  1  0
 10 11  1  0
 11 12  1  0
 12 13  2  0
 12 14  1  0
 14 15  1  0
 15 16  1  0
 16 17  2  0
 16 18  1  0
 18 19  2  0
 19 20  1  0
 20 21  2  0
 21 22  1  0
 22 23  2  0
 23 24  1  0
 23 25  1  0
 25 26  2  0
 26 27  1  0
 27 28  2  0
  2 29  1  0
 29 30  2  0
 30 31  1  0
 31 32  2  0
 32 33  1  0
 33 34  2  0
 11  6  1  0
 28 18  1  0
 34 29  1  0
 27 21  1  0
  1 35  1  0
  1 36  1  0
  1 37  1  0
  2 38  1  6
  3 39  1  0
  6 40  1  6
  7 41  1  0
  7 42  1  0
  8 43  1  0
  8 44  1  0
  9 45  1  0
  9 46  1  0
 10 47  1  0
 10 48  1  0
 14 49  1  0
 14 50  1  0
 15 51  1  0
 19 52  1  0
 20 53  1  0
 22 54  1  0
 25 55  1  0
 26 56  1  0
 30 57  1  0
 31 58  1  0
 32 59  1  0
 33 60  1  0
 34 61  1  0
M  END
>  <smiles>  (30) 
C[C@H](NC(=O)C1CCCCN1C(=O)CNC(=O)c1ccc2cc(Cl)ccc2n1)c1ccccc1

>  <score_type>  (30) 
oracle

>  <origin>  (30) 
autodockgpu

>  <m_score__min__energy>  (30) 
-9.5299999999999994

>  <m_primary>  (30) 
energy

>  <rmsd>  (30) 
5.472314852112498

>  <m_score__min__rmsd>  (30) 
5.472314852112498

>  <meeko>  (30) 
{"free_energy": -7.81, "intermolecular_energy": -9.9, "internal_energy": -3.4, "cluster_size": 8, "cluster_id": 5, "rank_in_cluster": 4}

>  <energy>  (30) 
-8.47

>  <cluster_rmsd>  (30) 
1.01

>  <cluster>  (30) 
5

$$$$

     RDKit          3D

 61 64  0  0  1  0  0  0  0  0999 V2000
  139.1960   70.8910  222.2060 C   0  0  0  0  0  0  0  0  0  0  0  0
  138.4420   70.5310  223.4550 C   0  0  2  0  0  0  0  0  0  0  0  0
  137.4520   71.5120  223.8390 N   0  0  0  0  0  0  0  0  0  0  0  0
  136.1500   71.1310  224.2780 C   0  0  0  0  0  0  0  0  0  0  0  0
  135.9240   69.8900  224.3170 O   0  0  0  0  0  0  0  0  0  0  0  0
  135.1230   72.0550  224.6670 C   0  0  2  0  0  0  0  0  0  0  0  0
  133.7420   71.5560  224.9270 C   0  0  0  0  0  0  0  0  0  0  0  0
  132.9890   72.6720  225.5600 C   0  0  0  0  0  0  0  0  0  0  0  0
  133.6680   73.9780  225.7200 C   0  0  0  0  0  0  0  0  0  0  0  0
  134.5140   74.4220  224.5280 C   0  0  0  0  0  0  0  0  0  0  0  0
  134.9070   73.2160  223.7740 N   0  0  0  0  0  0  0  0  0  0  0  0
  135.0530   73.1360  222.3910 C   0  0  0  0  0  0  0  0  0  0  0  0
  134.8160   71.9460  221.8910 O   0  0  0  0  0  0  0  0  0  0  0  0
  135.4170   74.1220  221.4010 C   0  0  0  0  0  0  0  0  0  0  0  0
  136.4150   75.0910  221.6760 N   0  0  0  0  0  0  0  0  0  0  0  0
  137.8010   74.7690  221.9420 C   0  0  0  0  0  0  0  0  0  0  0  0
  138.1640   73.5460  221.9280 O   0  0  0  0  0  0  0  0  0  0  0  0
  138.7610   75.8410  222.2220 C   0  0  0  0  0  0  0  0  0  0  0  0
  140.0960   75.5910  221.9870 C   0  0  0  0  0  0  0  0  0  0  0  0
  141.0650   76.5470  222.2240 C   0  0  0  0  0  0  0  0  0  0  0  0
  140.6610   77.7880  222.7140 C   0  0  0  0  0  0  0  0  0  0  0  0
  141.6030   78.7790  222.9680 C   0  0  0  0  0  0  0  0  0  0  0  0
  141.1630   79.9930  223.4500 C   0  0  0  0  0  0  0  0  0  0  0  0
  142.3210   81.2690  223.7820 Cl  0  0  0  0  0  0  0  0  0  0  0  0
  139.8130   80.1990  223.6720 C   0  0  0  0  0  0  0  0  0  0  0  0
  138.8580   79.2310  223.4280 C   0  0  0  0  0  0  0  0  0  0  0  0
  139.3080   78.0230  222.9460 C   0  0  0  0  0  0  0  0  0  0  0  0
  138.3990   77.0420  222.6930 N   0  0  0  0  0  0  0  0  0  0  0  0
  139.3360   70.3130  224.6070 C   0  0  0  0  0  0  0  0  0  0  0  0
  139.3170   69.1360  225.3270 C   0  0  0  0  0  0  0  0  0  0  0  0
  140.1520   68.9150  226.4160 C   0  0  0  0  0  0  0  0  0  0  0  0
  141.0340   69.9000  226.7950 C   0  0  0  0  0  0  0  0  0  0  0  0
  141.0770   71.0830  226.0990 C   0  0  0  0  0  0  0  0  0  0  0  0
  140.2370   71.2830  225.0190 C   0  0  0  0  0  0  0  0  0  0  0  0
  140.1579   71.3502  222.4779 H   0  0  0  0  0  0  0  0  0  0  0  0
  139.3780   69.9826  221.6129 H   0  0  0  0  0  0  0  0  0  0  0  0
  138.6041   71.6036  221.6129 H   0  0  0  0  0  0  0  0  0  0  0  0
  137.9275   69.5948  223.1927 H   0  0  0  0  0  0  0  0  0  0  0  0
  137.7630   72.5210  223.7890 H   0  0  0  0  0  0  0  0  0  0  0  0
  135.6076   72.3191  225.6185 H   0  0  0  0  0  0  0  0  0  0  0  0
  133.2614   71.2642  223.9816 H   0  0  0  0  0  0  0  0  0  0  0  0
  133.7603   70.6729  225.5826 H   0  0  0  0  0  0  0  0  0  0  0  0
  132.0903   72.8453  224.9498 H   0  0  0  0  0  0  0  0  0  0  0  0
  132.8143   72.3300  226.5908 H   0  0  0  0  0  0  0  0  0  0  0  0
  132.8971   74.7432  225.8939 H   0  0  0  0  0  0  0  0  0  0  0  0
  134.3660   73.8579  226.5617 H   0  0  0  0  0  0  0  0  0  0  0  0
  133.9269   75.0914  223.8821 H   0  0  0  0  0  0  0  0  0  0  0  0
  135.4063   74.9646  224.8734 H   0  0  0  0  0  0  0  0  0  0  0  0
  135.7549   73.5663  220.5139 H   0  0  0  0  0  0  0  0  0  0  0  0
  134.5040   74.7292  221.3131 H   0  0  0  0  0  0  0  0  0  0  0  0
  136.2000   76.1330  221.7040 H   0  0  0  0  0  0  0  0  0  0  0  0
  140.3974   74.6060  221.6012 H   0  0  0  0  0  0  0  0  0  0  0  0
  142.1269   76.3345  222.0312 H   0  0  0  0  0  0  0  0  0  0  0  0
  142.6731   78.5984  222.7886 H   0  0  0  0  0  0  0  0  0  0  0  0
  139.4861   81.1753  224.0593 H   0  0  0  0  0  0  0  0  0  0  0  0
  137.7892   79.4169  223.6102 H   0  0  0  0  0  0  0  0  0  0  0  0
  138.6152   68.3434  225.0281 H   0  0  0  0  0  0  0  0  0  0  0  0
  140.1080   67.9644  226.9677 H   0  0  0  0  0  0  0  0  0  0  0  0
  141.7032   69.7406  227.6534 H   0  0  0  0  0  0  0  0  0  0  0  0
  141.7807   71.8727  226.4011 H   0  0  0  0  0  0  0  0  0  0  0  0
  140.2848   72.2364  224.4725 H   0  0  0  0  0  0  0  0  0  0  0  0
  1  2  1  0
  2  3  1  0
  3  4  1  0
  4  5  2  0
  4  6  1  0
  6  7  1  0
  7  8  1  0
  8  9  1  0
  9 10  1  0
 10 11  1  0
 11 12  1  0
 12 13  2  0
 12 14  1  0
 14 15  1  0
 15 16  1  0
 16 17  2  0
 16 18  1  0
 18 19  2  0
 19 20  1  0
 20 21  2  0
 21 22  1  0
 22 23  2  0
 23 24  1  0
 23 25  1  0
 25 26  2  0
 26 27  1  0
 27 28  2  0
  2 29  1  0
 29 30  2  0
 30 31  1  0
 31 32  2  0
 32 33  1  0
 33 34  2  0
 11  6  1  0
 28 18  1  0
 34 29  1  0
 27 21  1  0
  1 35  1  0
  1 36  1  0
  1 37  1  0
  2 38  1  6
  3 39  1  0
  6 40  1  1
  7 41  1  0
  7 42  1  0
  8 43  1  0
  8 44  1  0
  9 45  1  0
  9 46  1  0
 10 47  1  0
 10 48  1  0
 14 49  1  0
 14 50  1  0
 15 51  1  0
 19 52  1  0
 20 53  1  0
 22 54  1  0
 25 55  1  0
 26 56  1  0
 30 57  1  0
 31 58  1  0
 32 59  1  0
 33 60  1  0
 34 61  1  0
M  END
>  <smiles>  (31) 
C[C@H](NC(=O)C1CCCCN1C(=O)CNC(=O)c1ccc2cc(Cl)ccc2n1)c1ccccc1

>  <score_type>  (31) 
oracle

>  <origin>  (31) 
autodockgpu

>  <m_score__min__energy>  (31) 
-9.5299999999999994

>  <m_primary>  (31) 
energy

>  <rmsd>  (31) 
9.445367685972002

>  <m_score__min__rmsd>  (31) 
9.445367685972002

>  <meeko>  (31) 
{"free_energy": -8.04, "intermolecular_energy": -10.13, "internal_energy": -3.12, "cluster_size": 8, "cluster_id": 2, "rank_in_cluster": 4}

>  <energy>  (31) 
-7.82

>  <cluster_rmsd>  (31) 
1.24

>  <cluster>  (31) 
5

$$$$

     RDKit          3D

 61 64  0  0  1  0  0  0  0  0999 V2000
  140.0660   78.3440  219.9670 C   0  0  0  0  0  0  0  0  0  0  0  0
  141.5350   78.4840  220.2480 C   0  0  2  0  0  0  0  0  0  0  0  0
  142.2280   77.2210  220.3600 N   0  0  0  0  0  0  0  0  0  0  0  0
  142.9020   76.6350  219.2500 C   0  0  0  0  0  0  0  0  0  0  0  0
  142.8630   77.2920  218.1720 O   0  0  0  0  0  0  0  0  0  0  0  0
  143.6030   75.3830  219.2950 C   0  0  2  0  0  0  0  0  0  0  0  0
  143.8770   74.6440  218.0280 C   0  0  0  0  0  0  0  0  0  0  0  0
  144.8310   73.5520  218.3600 C   0  0  0  0  0  0  0  0  0  0  0  0
  145.2270   73.3690  219.7760 C   0  0  0  0  0  0  0  0  0  0  0  0
  144.0950   73.5090  220.7910 C   0  0  0  0  0  0  0  0  0  0  0  0
  143.0390   74.3430  220.1840 N   0  0  0  0  0  0  0  0  0  0  0  0
  141.6700   74.1930  220.3890 C   0  0  0  0  0  0  0  0  0  0  0  0
  140.9820   73.9730  219.2930 O   0  0  0  0  0  0  0  0  0  0  0  0
  140.8620   74.2310  221.5860 C   0  0  0  0  0  0  0  0  0  0  0  0
  140.1980   75.4220  221.9740 N   0  0  0  0  0  0  0  0  0  0  0  0
  138.7590   75.5690  222.0050 C   0  0  0  0  0  0  0  0  0  0  0  0
  138.0300   74.5790  221.6710 O   0  0  0  0  0  0  0  0  0  0  0  0
  138.1620   76.8450  222.4150 C   0  0  0  0  0  0  0  0  0  0  0  0
  136.7980   76.9900  222.2900 C   0  0  0  0  0  0  0  0  0  0  0  0
  136.1570   78.1590  222.6540 C   0  0  0  0  0  0  0  0  0  0  0  0
  136.9290   79.2050  223.1580 C   0  0  0  0  0  0  0  0  0  0  0  0
  136.3250   80.3990  223.5360 C   0  0  0  0  0  0  0  0  0  0  0  0
  137.1230   81.4080  224.0310 C   0  0  0  0  0  0  0  0  0  0  0  0
  136.3990   82.9300  224.5190 Cl  0  0  0  0  0  0  0  0  0  0  0  0
  138.4890   81.2180  224.1390 C   0  0  0  0  0  0  0  0  0  0  0  0
  139.1120   80.0420  223.7690 C   0  0  0  0  0  0  0  0  0  0  0  0
  138.3070   79.0400  223.2770 C   0  0  0  0  0  0  0  0  0  0  0  0
  138.8820   77.8650  222.9030 N   0  0  0  0  0  0  0  0  0  0  0  0
  141.8000   79.2590  221.4730 C   0  0  0  0  0  0  0  0  0  0  0  0
  141.9590   78.6470  222.7000 C   0  0  0  0  0  0  0  0  0  0  0  0
  142.2100   79.3630  223.8640 C   0  0  0  0  0  0  0  0  0  0  0  0
  142.3050   80.7340  223.8000 C   0  0  0  0  0  0  0  0  0  0  0  0
  142.1520   81.3740  222.5950 C   0  0  0  0  0  0  0  0  0  0  0  0
  141.9030   80.6420  221.4480 C   0  0  0  0  0  0  0  0  0  0  0  0
  139.5143   78.2914  220.9172 H   0  0  0  0  0  0  0  0  0  0  0  0
  139.7188   79.2131  219.3890 H   0  0  0  0  0  0  0  0  0  0  0  0
  139.8892   77.4249  219.3890 H   0  0  0  0  0  0  0  0  0  0  0  0
  141.9226   79.0211  219.3697 H   0  0  0  0  0  0  0  0  0  0  0  0
  142.2140   76.7740  221.3180 H   0  0  0  0  0  0  0  0  0  0  0  0
  144.5353   75.8261  219.6753 H   0  0  0  0  0  0  0  0  0  0  0  0
  142.9436   74.2216  217.6275 H   0  0  0  0  0  0  0  0  0  0  0  0
  144.2981   75.3151  217.2649 H   0  0  0  0  0  0  0  0  0  0  0  0
  144.3749   72.6087  218.0253 H   0  0  0  0  0  0  0  0  0  0  0  0
  145.7631   73.8439  217.8540 H   0  0  0  0  0  0  0  0  0  0  0  0
  145.6563   72.3618  219.8818 H   0  0  0  0  0  0  0  0  0  0  0  0
  145.9397   74.1763  220.0004 H   0  0  0  0  0  0  0  0  0  0  0  0
  143.6907   72.5164  221.0386 H   0  0  0  0  0  0  0  0  0  0  0  0
  144.4661   73.9753  221.7156 H   0  0  0  0  0  0  0  0  0  0  0  0
  140.0840   73.4630  221.4643 H   0  0  0  0  0  0  0  0  0  0  0  0
  141.6034   74.0920  222.3866 H   0  0  0  0  0  0  0  0  0  0  0  0
  140.7300   76.2950  222.2700 H   0  0  0  0  0  0  0  0  0  0  0  0
  136.2042   76.1547  221.8905 H   0  0  0  0  0  0  0  0  0  0  0  0
  135.0668   78.2615  222.5489 H   0  0  0  0  0  0  0  0  0  0  0  0
  135.2375   80.5350  223.4423 H   0  0  0  0  0  0  0  0  0  0  0  0
  139.1051   82.0381  224.5363 H   0  0  0  0  0  0  0  0  0  0  0  0
  140.2003   79.9125  223.8632 H   0  0  0  0  0  0  0  0  0  0  0  0
  141.8842   77.5511  222.7585 H   0  0  0  0  0  0  0  0  0  0  0  0
  142.3312   78.8404  224.8243 H   0  0  0  0  0  0  0  0  0  0  0  0
  142.5031   81.3161  224.7121 H   0  0  0  0  0  0  0  0  0  0  0  0
  142.2275   82.4701  222.5416 H   0  0  0  0  0  0  0  0  0  0  0  0
  141.7835   81.1706  220.4908 H   0  0  0  0  0  0  0  0  0  0  0  0
  1  2  1  0
  2  3  1  0
  3  4  1  0
  4  5  2  0
  4  6  1  0
  6  7  1  0
  7  8  1  0
  8  9  1  0
  9 10  1  0
 10 11  1  0
 11 12  1  0
 12 13  2  0
 12 14  1  0
 14 15  1  0
 15 16  1  0
 16 17  2  0
 16 18  1  0
 18 19  2  0
 19 20  1  0
 20 21  2  0
 21 22  1  0
 22 23  2  0
 23 24  1  0
 23 25  1  0
 25 26  2  0
 26 27  1  0
 27 28  2  0
  2 29  1  0
 29 30  2  0
 30 31  1  0
 31 32  2  0
 32 33  1  0
 33 34  2  0
 11  6  1  0
 28 18  1  0
 34 29  1  0
 27 21  1  0
  1 35  1  0
  1 36  1  0
  1 37  1  0
  2 38  1  6
  3 39  1  0
  6 40  1  1
  7 41  1  0
  7 42  1  0
  8 43  1  0
  8 44  1  0
  9 45  1  0
  9 46  1  0
 10 47  1  0
 10 48  1  0
 14 49  1  0
 14 50  1  0
 15 51  1  0
 19 52  1  0
 20 53  1  0
 22 54  1  0
 25 55  1  0
 26 56  1  0
 30 57  1  0
 31 58  1  0
 32 59  1  0
 33 60  1  0
 34 61  1  0
M  END
>  <smiles>  (32) 
C[C@H](NC(=O)C1CCCCN1C(=O)CNC(=O)c1ccc2cc(Cl)ccc2n1)c1ccccc1

>  <score_type>  (32) 
oracle

>  <origin>  (32) 
autodockgpu

>  <m_score__min__energy>  (32) 
-9.5299999999999994

>  <m_primary>  (32) 
energy

>  <rmsd>  (32) 
6.441992346012509

>  <m_score__min__rmsd>  (32) 
6.441992346012509

>  <meeko>  (32) 
{"free_energy": -7.27, "intermolecular_energy": -9.36, "internal_energy": -3.45, "cluster_size": 6, "cluster_id": 10, "rank_in_cluster": 1}

>  <energy>  (32) 
-7.81

>  <cluster_rmsd>  (32) 
1.89

>  <cluster>  (32) 
5

$$$$

     RDKit          3D

 61 64  0  0  1  0  0  0  0  0999 V2000
  143.1720   76.5480  218.4190 C   0  0  0  0  0  0  0  0  0  0  0  0
  142.0120   77.4070  218.8340 C   0  0  2  0  0  0  0  0  0  0  0  0
  142.1590   77.9850  220.1500 N   0  0  0  0  0  0  0  0  0  0  0  0
  141.8180   79.3440  220.4150 C   0  0  0  0  0  0  0  0  0  0  0  0
  141.3740   80.0020  219.4330 O   0  0  0  0  0  0  0  0  0  0  0  0
  141.9460   79.9780  221.6970 C   0  0  2  0  0  0  0  0  0  0  0  0
  142.8290   79.3710  222.7350 C   0  0  0  0  0  0  0  0  0  0  0  0
  142.9680   80.3730  223.8260 C   0  0  0  0  0  0  0  0  0  0  0  0
  142.2020   81.6370  223.7230 C   0  0  0  0  0  0  0  0  0  0  0  0
  140.7680   81.4900  223.2190 C   0  0  0  0  0  0  0  0  0  0  0  0
  140.6880   80.2460  222.4290 N   0  0  0  0  0  0  0  0  0  0  0  0
  139.5870   79.3960  222.3640 C   0  0  0  0  0  0  0  0  0  0  0  0
  138.5160   79.9400  221.8350 O   0  0  0  0  0  0  0  0  0  0  0  0
  139.4020   78.0230  222.7700 C   0  0  0  0  0  0  0  0  0  0  0  0
  140.2760   77.0070  222.3070 N   0  0  0  0  0  0  0  0  0  0  0  0
  139.8630   75.6450  222.0430 C   0  0  0  0  0  0  0  0  0  0  0  0
  138.6430   75.3240  222.2290 O   0  0  0  0  0  0  0  0  0  0  0  0
  140.8420   74.6610  221.5710 C   0  0  0  0  0  0  0  0  0  0  0  0
  140.4410   73.3470  221.4730 C   0  0  0  0  0  0  0  0  0  0  0  0
  141.3020   72.3570  221.0360 C   0  0  0  0  0  0  0  0  0  0  0  0
  142.6040   72.7200  220.6920 C   0  0  0  0  0  0  0  0  0  0  0  0
  143.5030   71.7560  220.2490 C   0  0  0  0  0  0  0  0  0  0  0  0
  144.7800   72.1560  219.9180 C   0  0  0  0  0  0  0  0  0  0  0  0
  145.9440   70.9700  219.3540 Cl  0  0  0  0  0  0  0  0  0  0  0  0
  145.1390   73.4870  220.0330 C   0  0  0  0  0  0  0  0  0  0  0  0
  144.2640   74.4620  220.4720 C   0  0  0  0  0  0  0  0  0  0  0  0
  142.9910   74.0530  220.7990 C   0  0  0  0  0  0  0  0  0  0  0  0
  142.0990   74.9840  221.2350 N   0  0  0  0  0  0  0  0  0  0  0  0
  140.7310   76.6780  218.7990 C   0  0  0  0  0  0  0  0  0  0  0  0
  140.6520   75.3690  218.3690 C   0  0  0  0  0  0  0  0  0  0  0  0
  139.4530   74.6680  218.3290 C   0  0  0  0  0  0  0  0  0  0  0  0
  138.2970   75.2950  218.7330 C   0  0  0  0  0  0  0  0  0  0  0  0
  138.3410   76.5970  219.1660 C   0  0  0  0  0  0  0  0  0  0  0  0
  139.5450   77.2770  219.1970 C   0  0  0  0  0  0  0  0  0  0  0  0
  143.6855   76.1678  219.3144 H   0  0  0  0  0  0  0  0  0  0  0  0
  142.8056   75.7018  217.8193 H   0  0  0  0  0  0  0  0  0  0  0  0
  143.8745   77.1453  217.8193 H   0  0  0  0  0  0  0  0  0  0  0  0
  142.0056   78.2179  218.0908 H   0  0  0  0  0  0  0  0  0  0  0  0
  142.5170   77.3330  220.9010 H   0  0  0  0  0  0  0  0  0  0  0  0
  142.4182   80.8853  221.2924 H   0  0  0  0  0  0  0  0  0  0  0  0
  142.3748   78.4481  223.1250 H   0  0  0  0  0  0  0  0  0  0  0  0
  143.8108   79.1109  222.3127 H   0  0  0  0  0  0  0  0  0  0  0  0
  142.6600   79.8812  224.7605 H   0  0  0  0  0  0  0  0  0  0  0  0
  144.0202   80.6890  223.7708 H   0  0  0  0  0  0  0  0  0  0  0  0
  142.1660   82.0953  224.7223 H   0  0  0  0  0  0  0  0  0  0  0  0
  142.7262   82.2512  222.9760 H   0  0  0  0  0  0  0  0  0  0  0  0
  140.0760   81.4355  224.0724 H   0  0  0  0  0  0  0  0  0  0  0  0
  140.4901   82.3551  222.5991 H   0  0  0  0  0  0  0  0  0  0  0  0
  139.4589   78.0098  223.8685 H   0  0  0  0  0  0  0  0  0  0  0  0
  138.4442   77.7553  222.2999 H   0  0  0  0  0  0  0  0  0  0  0  0
  141.3080   77.1900  222.1230 H   0  0  0  0  0  0  0  0  0  0  0  0
  139.4106   73.0785  221.7491 H   0  0  0  0  0  0  0  0  0  0  0  0
  140.9689   71.3113  220.9617 H   0  0  0  0  0  0  0  0  0  0  0  0
  143.2028   70.7011  220.1648 H   0  0  0  0  0  0  0  0  0  0  0  0
  146.1641   73.7815  219.7637 H   0  0  0  0  0  0  0  0  0  0  0  0
  144.5702   75.5152  220.5562 H   0  0  0  0  0  0  0  0  0  0  0  0
  141.5729   74.8615  218.0458 H   0  0  0  0  0  0  0  0  0  0  0  0
  139.4284   73.6255  217.9789 H   0  0  0  0  0  0  0  0  0  0  0  0
  137.3394   74.7542  218.7091 H   0  0  0  0  0  0  0  0  0  0  0  0
  137.4175   77.1001  219.4887 H   0  0  0  0  0  0  0  0  0  0  0  0
  139.5624   78.3199  219.5464 H   0  0  0  0  0  0  0  0  0  0  0  0
  1  2  1  0
  2  3  1  0
  3  4  1  0
  4  5  2  0
  4  6  1  0
  6  7  1  0
  7  8  1  0
  8  9  1  0
  9 10  1  0
 10 11  1  0
 11 12  1  0
 12 13  2  0
 12 14  1  0
 14 15  1  0
 15 16  1  0
 16 17  2  0
 16 18  1  0
 18 19  2  0
 19 20  1  0
 20 21  2  0
 21 22  1  0
 22 23  2  0
 23 24  1  0
 23 25  1  0
 25 26  2  0
 26 27  1  0
 27 28  2  0
  2 29  1  0
 29 30  2  0
 30 31  1  0
 31 32  2  0
 32 33  1  0
 33 34  2  0
 11  6  1  0
 28 18  1  0
 34 29  1  0
 27 21  1  0
  1 35  1  0
  1 36  1  0
  1 37  1  0
  2 38  1  6
  3 39  1  0
  6 40  1  6
  7 41  1  0
  7 42  1  0
  8 43  1  0
  8 44  1  0
  9 45  1  0
  9 46  1  0
 10 47  1  0
 10 48  1  0
 14 49  1  0
 14 50  1  0
 15 51  1  0
 19 52  1  0
 20 53  1  0
 22 54  1  0
 25 55  1  0
 26 56  1  0
 30 57  1  0
 31 58  1  0
 32 59  1  0
 33 60  1  0
 34 61  1  0
M  END
>  <smiles>  (33) 
C[C@H](NC(=O)C1CCCCN1C(=O)CNC(=O)c1ccc2cc(Cl)ccc2n1)c1ccccc1

>  <score_type>  (33) 
oracle

>  <origin>  (33) 
autodockgpu

>  <m_score__min__energy>  (33) 
-9.5299999999999994

>  <m_primary>  (33) 
energy

>  <rmsd>  (33) 
6.385570528691401

>  <m_score__min__rmsd>  (33) 
6.385570528691401

>  <meeko>  (33) 
{"free_energy": -6.29, "intermolecular_energy": -8.38, "internal_energy": -4.49, "cluster_size": 1, "cluster_id": 12, "rank_in_cluster": 1}

>  <energy>  (33) 
-7.74

>  <cluster_rmsd>  (33) 
1.72

>  <cluster>  (33) 
5

$$$$

     RDKit          3D

 61 64  0  0  1  0  0  0  0  0999 V2000
  138.5770   77.7310  222.7310 C   0  0  0  0  0  0  0  0  0  0  0  0
  139.7590   78.0510  221.8620 C   0  0  2  0  0  0  0  0  0  0  0  0
  140.5740   76.9010  221.5430 N   0  0  0  0  0  0  0  0  0  0  0  0
  141.4710   76.9010  220.4350 C   0  0  0  0  0  0  0  0  0  0  0  0
  141.5140   77.9680  219.7610 O   0  0  0  0  0  0  0  0  0  0  0  0
  142.3020   75.7910  220.0630 C   0  0  2  0  0  0  0  0  0  0  0  0
  143.1280   75.8710  218.8230 C   0  0  0  0  0  0  0  0  0  0  0  0
  144.0630   74.7140  218.8500 C   0  0  0  0  0  0  0  0  0  0  0  0
  143.9480   73.7410  219.9610 C   0  0  0  0  0  0  0  0  0  0  0  0
  142.5210   73.3710  220.3580 C   0  0  0  0  0  0  0  0  0  0  0  0
  141.6330   74.4760  219.9470 N   0  0  0  0  0  0  0  0  0  0  0  0
  140.3250   74.3370  219.4890 C   0  0  0  0  0  0  0  0  0  0  0  0
  139.9230   75.3080  218.7030 O   0  0  0  0  0  0  0  0  0  0  0  0
  139.3250   73.3200  219.7160 C   0  0  0  0  0  0  0  0  0  0  0  0
  139.4220   72.4450  220.8280 N   0  0  0  0  0  0  0  0  0  0  0  0
  139.8950   72.8500  222.1340 C   0  0  0  0  0  0  0  0  0  0  0  0
  140.2460   74.0620  222.3150 O   0  0  0  0  0  0  0  0  0  0  0  0
  139.9650   71.8710  223.2230 C   0  0  0  0  0  0  0  0  0  0  0  0
  139.5150   70.5930  222.9740 C   0  0  0  0  0  0  0  0  0  0  0  0
  139.5470   69.6100  223.9450 C   0  0  0  0  0  0  0  0  0  0  0  0
  140.0500   69.9410  225.2020 C   0  0  0  0  0  0  0  0  0  0  0  0
  140.1000   68.9830  226.2090 C   0  0  0  0  0  0  0  0  0  0  0  0
  140.6050   69.3510  227.4380 C   0  0  0  0  0  0  0  0  0  0  0  0
  140.6850   68.1710  228.7340 Cl  0  0  0  0  0  0  0  0  0  0  0  0
  141.0460   70.6460  227.6430 C   0  0  0  0  0  0  0  0  0  0  0  0
  141.0060   71.6150  226.6590 C   0  0  0  0  0  0  0  0  0  0  0  0
  140.5000   71.2380  225.4370 C   0  0  0  0  0  0  0  0  0  0  0  0
  140.4450   72.1640  224.4410 N   0  0  0  0  0  0  0  0  0  0  0  0
  140.6340   79.0760  222.4580 C   0  0  0  0  0  0  0  0  0  0  0  0
  141.6820   78.7410  223.2920 C   0  0  0  0  0  0  0  0  0  0  0  0
  142.5160   79.6950  223.8630 C   0  0  0  0  0  0  0  0  0  0  0  0
  142.2950   81.0260  223.5910 C   0  0  0  0  0  0  0  0  0  0  0  0
  141.2620   81.3920  222.7660 C   0  0  0  0  0  0  0  0  0  0  0  0
  140.4430   80.4270  222.2080 C   0  0  0  0  0  0  0  0  0  0  0  0
  138.8677   77.8097  223.7890 H   0  0  0  0  0  0  0  0  0  0  0  0
  137.7640   78.4414  222.5203 H   0  0  0  0  0  0  0  0  0  0  0  0
  138.2334   76.7075  222.5203 H   0  0  0  0  0  0  0  0  0  0  0  0
  139.3080   78.4323  220.9340 H   0  0  0  0  0  0  0  0  0  0  0  0
  140.4720   76.0730  222.1920 H   0  0  0  0  0  0  0  0  0  0  0  0
  142.9510   75.8750  220.9472 H   0  0  0  0  0  0  0  0  0  0  0  0
  142.4823   75.8146  217.9343 H   0  0  0  0  0  0  0  0  0  0  0  0
  143.6797   76.8216  218.7785 H   0  0  0  0  0  0  0  0  0  0  0  0
  143.9175   74.1564  217.9130 H   0  0  0  0  0  0  0  0  0  0  0  0
  145.0538   75.1703  218.9918 H   0  0  0  0  0  0  0  0  0  0  0  0
  144.4672   72.8190  219.6606 H   0  0  0  0  0  0  0  0  0  0  0  0
  144.3920   74.2296  220.8409 H   0  0  0  0  0  0  0  0  0  0  0  0
  142.2210   72.4424  219.8504 H   0  0  0  0  0  0  0  0  0  0  0  0
  142.4554   73.2115  221.4444 H   0  0  0  0  0  0  0  0  0  0  0  0
  138.3614   73.8422  219.8101 H   0  0  0  0  0  0  0  0  0  0  0  0
  139.4635   72.6442  218.8592 H   0  0  0  0  0  0  0  0  0  0  0  0
  139.1470   71.4190  220.7650 H   0  0  0  0  0  0  0  0  0  0  0  0
  139.1201   70.3486  221.9768 H   0  0  0  0  0  0  0  0  0  0  0  0
  139.1851   68.5934  223.7315 H   0  0  0  0  0  0  0  0  0  0  0  0
  139.7455   67.9573  226.0294 H   0  0  0  0  0  0  0  0  0  0  0  0
  141.4456   70.9158  228.6317 H   0  0  0  0  0  0  0  0  0  0  0  0
  141.3619   72.6392  226.8441 H   0  0  0  0  0  0  0  0  0  0  0  0
  141.8638   77.6789  223.5129 H   0  0  0  0  0  0  0  0  0  0  0  0
  143.3414   79.3905  224.5233 H   0  0  0  0  0  0  0  0  0  0  0  0
  142.9453   81.7946  224.0342 H   0  0  0  0  0  0  0  0  0  0  0  0
  141.0845   82.4554  222.5477 H   0  0  0  0  0  0  0  0  0  0  0  0
  139.6192   80.7389  221.5492 H   0  0  0  0  0  0  0  0  0  0  0  0
  1  2  1  0
  2  3  1  0
  3  4  1  0
  4  5  2  0
  4  6  1  0
  6  7  1  0
  7  8  1  0
  8  9  1  0
  9 10  1  0
 10 11  1  0
 11 12  1  0
 12 13  2  0
 12 14  1  0
 14 15  1  0
 15 16  1  0
 16 17  2  0
 16 18  1  0
 18 19  2  0
 19 20  1  0
 20 21  2  0
 21 22  1  0
 22 23  2  0
 23 24  1  0
 23 25  1  0
 25 26  2  0
 26 27  1  0
 27 28  2  0
  2 29  1  0
 29 30  2  0
 30 31  1  0
 31 32  2  0
 32 33  1  0
 33 34  2  0
 11  6  1  0
 28 18  1  0
 34 29  1  0
 27 21  1  0
  1 35  1  0
  1 36  1  0
  1 37  1  0
  2 38  1  6
  3 39  1  0
  6 40  1  1
  7 41  1  0
  7 42  1  0
  8 43  1  0
  8 44  1  0
  9 45  1  0
  9 46  1  0
 10 47  1  0
 10 48  1  0
 14 49  1  0
 14 50  1  0
 15 51  1  0
 19 52  1  0
 20 53  1  0
 22 54  1  0
 25 55  1  0
 26 56  1  0
 30 57  1  0
 31 58  1  0
 32 59  1  0
 33 60  1  0
 34 61  1  0
M  END
>  <smiles>  (34) 
C[C@H](NC(=O)C1CCCCN1C(=O)CNC(=O)c1ccc2cc(Cl)ccc2n1)c1ccccc1

>  <score_type>  (34) 
oracle

>  <origin>  (34) 
autodockgpu

>  <m_score__min__energy>  (34) 
-9.5299999999999994

>  <m_primary>  (34) 
energy

>  <rmsd>  (34) 
3.02026550272453

>  <m_score__min__rmsd>  (34) 
3.02026550272453

>  <meeko>  (34) 
{"free_energy": -9.18, "intermolecular_energy": -11.27, "internal_energy": -2.74, "cluster_size": 13, "cluster_id": 1, "rank_in_cluster": 7}

>  <energy>  (34) 
-7.73

>  <cluster_rmsd>  (34) 
1.06

>  <cluster>  (34) 
5

$$$$

     RDKit          3D

 61 64  0  0  1  0  0  0  0  0999 V2000
  138.3860   70.7960  222.0800 C   0  0  0  0  0  0  0  0  0  0  0  0
  137.7510   70.6140  223.4290 C   0  0  2  0  0  0  0  0  0  0  0  0
  136.9640   71.7480  223.8580 N   0  0  0  0  0  0  0  0  0  0  0  0
  135.7010   71.5850  224.5000 C   0  0  0  0  0  0  0  0  0  0  0  0
  135.3240   70.3930  224.6770 O   0  0  0  0  0  0  0  0  0  0  0  0
  134.8700   72.6680  224.9440 C   0  0  2  0  0  0  0  0  0  0  0  0
  133.4700   72.3930  225.3770 C   0  0  0  0  0  0  0  0  0  0  0  0
  132.9640   73.6350  226.0240 C   0  0  0  0  0  0  0  0  0  0  0  0
  133.8410   74.8280  226.0370 C   0  0  0  0  0  0  0  0  0  0  0  0
  134.6020   75.0920  224.7390 C   0  0  0  0  0  0  0  0  0  0  0  0
  134.7260   73.8110  224.0150 N   0  0  0  0  0  0  0  0  0  0  0  0
  134.7020   73.6570  222.6320 C   0  0  0  0  0  0  0  0  0  0  0  0
  134.0370   72.6030  222.2190 O   0  0  0  0  0  0  0  0  0  0  0  0
  135.2720   74.4420  221.5620 C   0  0  0  0  0  0  0  0  0  0  0  0
  136.3230   75.3580  221.8170 N   0  0  0  0  0  0  0  0  0  0  0  0
  137.7080   74.9720  221.9800 C   0  0  0  0  0  0  0  0  0  0  0  0
  138.0200   73.7390  221.8870 O   0  0  0  0  0  0  0  0  0  0  0  0
  138.7270   75.9920  222.2470 C   0  0  0  0  0  0  0  0  0  0  0  0
  140.0440   75.6700  222.0030 C   0  0  0  0  0  0  0  0  0  0  0  0
  141.0650   76.5750  222.2280 C   0  0  0  0  0  0  0  0  0  0  0  0
  140.7320   77.8380  222.7150 C   0  0  0  0  0  0  0  0  0  0  0  0
  141.7270   78.7780  222.9560 C   0  0  0  0  0  0  0  0  0  0  0  0
  141.3560   80.0160  223.4370 C   0  0  0  0  0  0  0  0  0  0  0  0
  142.5830   81.2300  223.7530 Cl  0  0  0  0  0  0  0  0  0  0  0  0
  140.0210   80.2950  223.6680 C   0  0  0  0  0  0  0  0  0  0  0  0
  139.0140   79.3770  223.4360 C   0  0  0  0  0  0  0  0  0  0  0  0
  139.3950   78.1450  222.9570 C   0  0  0  0  0  0  0  0  0  0  0  0
  138.4330   77.2140  222.7150 N   0  0  0  0  0  0  0  0  0  0  0  0
  138.7410   70.3240  224.4820 C   0  0  0  0  0  0  0  0  0  0  0  0
  138.6440   69.2040  225.2810 C   0  0  0  0  0  0  0  0  0  0  0  0
  139.5680   68.9160  226.2780 C   0  0  0  0  0  0  0  0  0  0  0  0
  140.6230   69.7760  226.4820 C   0  0  0  0  0  0  0  0  0  0  0  0
  140.7480   70.9000  225.7030 C   0  0  0  0  0  0  0  0  0  0  0  0
  139.8170   71.1670  224.7170 C   0  0  0  0  0  0  0  0  0  0  0  0
  139.4364   71.0971  222.2068 H   0  0  0  0  0  0  0  0  0  0  0  0
  138.3408   69.8487  221.5227 H   0  0  0  0  0  0  0  0  0  0  0  0
  137.8459   71.5755  221.5227 H   0  0  0  0  0  0  0  0  0  0  0  0
  137.0821   69.7516  223.2915 H   0  0  0  0  0  0  0  0  0  0  0  0
  137.3920   72.6980  223.6790 H   0  0  0  0  0  0  0  0  0  0  0  0
  135.4916   72.8944  225.8228 H   0  0  0  0  0  0  0  0  0  0  0  0
  132.8477   72.1400  224.5059 H   0  0  0  0  0  0  0  0  0  0  0  0
  133.4340   71.5435  226.0748 H   0  0  0  0  0  0  0  0  0  0  0  0
  132.0368   73.9182  225.5043 H   0  0  0  0  0  0  0  0  0  0  0  0
  132.8587   73.3644  227.0850 H   0  0  0  0  0  0  0  0  0  0  0  0
  133.2154   75.7075  226.2493 H   0  0  0  0  0  0  0  0  0  0  0  0
  134.6053   74.6358  226.8044 H   0  0  0  0  0  0  0  0  0  0  0  0
  134.0497   75.8171  224.1232 H   0  0  0  0  0  0  0  0  0  0  0  0
  135.5975   75.5061  224.9568 H   0  0  0  0  0  0  0  0  0  0  0  0
  135.6516   73.7280  220.8163 H   0  0  0  0  0  0  0  0  0  0  0  0
  134.4396   75.0991  221.2699 H   0  0  0  0  0  0  0  0  0  0  0  0
  136.1520   76.4050  221.9060 H   0  0  0  0  0  0  0  0  0  0  0  0
  140.2894   74.6685  221.6199 H   0  0  0  0  0  0  0  0  0  0  0  0
  142.1125   76.3054  222.0279 H   0  0  0  0  0  0  0  0  0  0  0  0
  142.7844   78.5403  222.7677 H   0  0  0  0  0  0  0  0  0  0  0  0
  139.7493   81.2892  224.0525 H   0  0  0  0  0  0  0  0  0  0  0  0
  137.9580   79.6200  223.6254 H   0  0  0  0  0  0  0  0  0  0  0  0
  137.8032   68.5125  225.1230 H   0  0  0  0  0  0  0  0  0  0  0  0
  139.4577   68.0127  226.8960 H   0  0  0  0  0  0  0  0  0  0  0  0
  141.3640   69.5636  227.2668 H   0  0  0  0  0  0  0  0  0  0  0  0
  141.5903   71.5889  225.8640 H   0  0  0  0  0  0  0  0  0  0  0  0
  139.9325   72.0720  224.1024 H   0  0  0  0  0  0  0  0  0  0  0  0
  1  2  1  0
  2  3  1  0
  3  4  1  0
  4  5  2  0
  4  6  1  0
  6  7  1  0
  7  8  1  0
  8  9  1  0
  9 10  1  0
 10 11  1  0
 11 12  1  0
 12 13  2  0
 12 14  1  0
 14 15  1  0
 15 16  1  0
 16 17  2  0
 16 18  1  0
 18 19  2  0
 19 20  1  0
 20 21  2  0
 21 22  1  0
 22 23  2  0
 23 24  1  0
 23 25  1  0
 25 26  2  0
 26 27  1  0
 27 28  2  0
  2 29  1  0
 29 30  2  0
 30 31  1  0
 31 32  2  0
 32 33  1  0
 33 34  2  0
 11  6  1  0
 28 18  1  0
 34 29  1  0
 27 21  1  0
  1 35  1  0
  1 36  1  0
  1 37  1  0
  2 38  1  6
  3 39  1  0
  6 40  1  1
  7 41  1  0
  7 42  1  0
  8 43  1  0
  8 44  1  0
  9 45  1  0
  9 46  1  0
 10 47  1  0
 10 48  1  0
 14 49  1  0
 14 50  1  0
 15 51  1  0
 19 52  1  0
 20 53  1  0
 22 54  1  0
 25 55  1  0
 26 56  1  0
 30 57  1  0
 31 58  1  0
 32 59  1  0
 33 60  1  0
 34 61  1  0
M  END
>  <smiles>  (35) 
C[C@H](NC(=O)C1CCCCN1C(=O)CNC(=O)c1ccc2cc(Cl)ccc2n1)c1ccccc1

>  <score_type>  (35) 
oracle

>  <origin>  (35) 
autodockgpu

>  <m_score__min__energy>  (35) 
-9.5299999999999994

>  <m_primary>  (35) 
energy

>  <rmsd>  (35) 
9.524918542270179

>  <m_score__min__rmsd>  (35) 
9.524918542270179

>  <meeko>  (35) 
{"free_energy": -7.98, "intermolecular_energy": -10.07, "internal_energy": -3.2, "cluster_size": 8, "cluster_id": 2, "rank_in_cluster": 6}

>  <energy>  (35) 
-7.63

>  <cluster_rmsd>  (35) 
1.79

>  <cluster>  (35) 
5

$$$$

     RDKit          3D

 61 64  0  0  1  0  0  0  0  0999 V2000
  140.4880   71.7490  223.5020 C   0  0  0  0  0  0  0  0  0  0  0  0
  139.6440   70.7620  224.2570 C   0  0  2  0  0  0  0  0  0  0  0  0
  138.2560   71.1500  224.3670 N   0  0  0  0  0  0  0  0  0  0  0  0
  137.2250   70.1900  224.5830 C   0  0  0  0  0  0  0  0  0  0  0  0
  137.6020   68.9890  224.6810 O   0  0  0  0  0  0  0  0  0  0  0  0
  135.8290   70.5090  224.6960 C   0  0  2  0  0  0  0  0  0  0  0  0
  134.8080   69.4500  224.4490 C   0  0  0  0  0  0  0  0  0  0  0  0
  133.4990   69.9970  224.8970 C   0  0  0  0  0  0  0  0  0  0  0  0
  133.4490   71.3950  225.3820 C   0  0  0  0  0  0  0  0  0  0  0  0
  134.2740   72.3940  224.5730 C   0  0  0  0  0  0  0  0  0  0  0  0
  135.3460   71.6490  223.8850 N   0  0  0  0  0  0  0  0  0  0  0  0
  135.8580   71.9440  222.6240 C   0  0  0  0  0  0  0  0  0  0  0  0
  136.2780   70.8960  221.9540 O   0  0  0  0  0  0  0  0  0  0  0  0
  136.0120   73.1900  221.9110 C   0  0  0  0  0  0  0  0  0  0  0  0
  137.0810   74.0710  222.2150 N   0  0  0  0  0  0  0  0  0  0  0  0
  137.1860   75.4190  221.6980 C   0  0  0  0  0  0  0  0  0  0  0  0
  136.2720   75.8580  220.9270 O   0  0  0  0  0  0  0  0  0  0  0  0
  138.3340   76.2550  222.0640 C   0  0  0  0  0  0  0  0  0  0  0  0
  139.5930   75.7020  221.9700 C   0  0  0  0  0  0  0  0  0  0  0  0
  140.7270   76.4220  222.2950 C   0  0  0  0  0  0  0  0  0  0  0  0
  140.5720   77.7380  222.7270 C   0  0  0  0  0  0  0  0  0  0  0  0
  141.6860   78.4980  223.0650 C   0  0  0  0  0  0  0  0  0  0  0  0
  141.4890   79.7960  223.4870 C   0  0  0  0  0  0  0  0  0  0  0  0
  142.8700   80.7880  223.9220 Cl  0  0  0  0  0  0  0  0  0  0  0  0
  140.2070   80.3090  223.5670 C   0  0  0  0  0  0  0  0  0  0  0  0
  139.0850   79.5740  223.2370 C   0  0  0  0  0  0  0  0  0  0  0  0
  139.2920   78.2800  222.8170 C   0  0  0  0  0  0  0  0  0  0  0  0
  138.2120   77.5230  222.4820 N   0  0  0  0  0  0  0  0  0  0  0  0
  140.1550   70.5110  225.6160 C   0  0  0  0  0  0  0  0  0  0  0  0
  140.5630   71.5400  226.4410 C   0  0  0  0  0  0  0  0  0  0  0  0
  141.0470   71.3200  227.7250 C   0  0  0  0  0  0  0  0  0  0  0  0
  141.1250   70.0310  228.2000 C   0  0  0  0  0  0  0  0  0  0  0  0
  140.7260   68.9850  227.4040 C   0  0  0  0  0  0  0  0  0  0  0  0
  140.2480   69.2260  226.1300 C   0  0  0  0  0  0  0  0  0  0  0  0
  141.0328   72.3861  224.2143 H   0  0  0  0  0  0  0  0  0  0  0  0
  141.2072   71.2081  222.8694 H   0  0  0  0  0  0  0  0  0  0  0  0
  139.8420   72.3756  222.8694 H   0  0  0  0  0  0  0  0  0  0  0  0
  139.7067   69.8440  223.6542 H   0  0  0  0  0  0  0  0  0  0  0  0
  138.0620   72.1860  224.2940 H   0  0  0  0  0  0  0  0  0  0  0  0
  135.8820   70.7289  225.7725 H   0  0  0  0  0  0  0  0  0  0  0  0
  134.7687   69.2054  223.3773 H   0  0  0  0  0  0  0  0  0  0  0  0
  135.0570   68.5286  224.9958 H   0  0  0  0  0  0  0  0  0  0  0  0
  132.8070   69.9234  224.0451 H   0  0  0  0  0  0  0  0  0  0  0  0
  133.2425   69.3947  225.7810 H   0  0  0  0  0  0  0  0  0  0  0  0
  132.3998   71.7249  225.3619 H   0  0  0  0  0  0  0  0  0  0  0  0
  133.8869   71.3838  226.3910 H   0  0  0  0  0  0  0  0  0  0  0  0
  133.6328   72.8946  223.8325 H   0  0  0  0  0  0  0  0  0  0  0  0
  134.7050   73.1589  225.2357 H   0  0  0  0  0  0  0  0  0  0  0  0
  136.1103   72.9325  220.8461 H   0  0  0  0  0  0  0  0  0  0  0  0
  135.1262   73.7624  222.2236 H   0  0  0  0  0  0  0  0  0  0  0  0
  137.8840   73.7870  222.8530 H   0  0  0  0  0  0  0  0  0  0  0  0
  139.6978   74.6618  221.6278 H   0  0  0  0  0  0  0  0  0  0  0  0
  141.7259   75.9683  222.2148 H   0  0  0  0  0  0  0  0  0  0  0  0
  142.6990   78.0746  222.9975 H   0  0  0  0  0  0  0  0  0  0  0  0
  140.0753   81.3465  223.9079 H   0  0  0  0  0  0  0  0  0  0  0  0
  138.0743   80.0026  223.3066 H   0  0  0  0  0  0  0  0  0  0  0  0
  140.5027   72.5730  226.0679 H   0  0  0  0  0  0  0  0  0  0  0  0
  141.3636   72.1654  228.3535 H   0  0  0  0  0  0  0  0  0  0  0  0
  141.5057   69.8387  229.2140 H   0  0  0  0  0  0  0  0  0  0  0  0
  140.7871   67.9536  227.7814 H   0  0  0  0  0  0  0  0  0  0  0  0
  139.9328   68.3761  225.5068 H   0  0  0  0  0  0  0  0  0  0  0  0
  1  2  1  0
  2  3  1  0
  3  4  1  0
  4  5  2  0
  4  6  1  0
  6  7  1  0
  7  8  1  0
  8  9  1  0
  9 10  1  0
 10 11  1  0
 11 12  1  0
 12 13  2  0
 12 14  1  0
 14 15  1  0
 15 16  1  0
 16 17  2  0
 16 18  1  0
 18 19  2  0
 19 20  1  0
 20 21  2  0
 21 22  1  0
 22 23  2  0
 23 24  1  0
 23 25  1  0
 25 26  2  0
 26 27  1  0
 27 28  2  0
  2 29  1  0
 29 30  2  0
 30 31  1  0
 31 32  2  0
 32 33  1  0
 33 34  2  0
 11  6  1  0
 28 18  1  0
 34 29  1  0
 27 21  1  0
  1 35  1  0
  1 36  1  0
  1 37  1  0
  2 38  1  6
  3 39  1  0
  6 40  1  1
  7 41  1  0
  7 42  1  0
  8 43  1  0
  8 44  1  0
  9 45  1  0
  9 46  1  0
 10 47  1  0
 10 48  1  0
 14 49  1  0
 14 50  1  0
 15 51  1  0
 19 52  1  0
 20 53  1  0
 22 54  1  0
 25 55  1  0
 26 56  1  0
 30 57  1  0
 31 58  1  0
 32 59  1  0
 33 60  1  0
 34 61  1  0
M  END
>  <smiles>  (36) 
C[C@H](NC(=O)C1CCCCN1C(=O)CNC(=O)c1ccc2cc(Cl)ccc2n1)c1ccccc1

>  <score_type>  (36) 
oracle

>  <origin>  (36) 
autodockgpu

>  <m_score__min__energy>  (36) 
-9.5299999999999994

>  <m_primary>  (36) 
energy

>  <rmsd>  (36) 
9.622105268123917

>  <m_score__min__rmsd>  (36) 
9.622105268123917

>  <meeko>  (36) 
{"free_energy": -9.22, "intermolecular_energy": -11.31, "internal_energy": -1.92, "cluster_size": 8, "cluster_id": 2, "rank_in_cluster": 1}

>  <energy>  (36) 
-7.6

>  <cluster_rmsd>  (36) 
1.87

>  <cluster>  (36) 
5

$$$$

     RDKit          3D

 61 64  0  0  1  0  0  0  0  0999 V2000
  145.1650   74.3410  220.7550 C   0  0  0  0  0  0  0  0  0  0  0  0
  144.0110   74.4410  219.7990 C   0  0  2  0  0  0  0  0  0  0  0  0
  143.0900   75.5100  220.1100 N   0  0  0  0  0  0  0  0  0  0  0  0
  142.3670   76.1970  219.0910 C   0  0  0  0  0  0  0  0  0  0  0  0
  142.5750   75.8060  217.9090 O   0  0  0  0  0  0  0  0  0  0  0  0
  141.4430   77.2690  219.3340 C   0  0  2  0  0  0  0  0  0  0  0  0
  141.8950   78.4770  220.0820 C   0  0  0  0  0  0  0  0  0  0  0  0
  140.8260   79.5010  219.9390 C   0  0  0  0  0  0  0  0  0  0  0  0
  139.5870   79.1290  219.2180 C   0  0  0  0  0  0  0  0  0  0  0  0
  139.0480   77.7340  219.5260 C   0  0  0  0  0  0  0  0  0  0  0  0
  140.1730   76.9060  220.0020 N   0  0  0  0  0  0  0  0  0  0  0  0
  140.0920   75.9060  220.9670 C   0  0  0  0  0  0  0  0  0  0  0  0
  140.9880   76.0030  221.9210 O   0  0  0  0  0  0  0  0  0  0  0  0
  139.2010   74.7790  221.1180 C   0  0  0  0  0  0  0  0  0  0  0  0
  139.4020   73.8310  222.1520 N   0  0  0  0  0  0  0  0  0  0  0  0
  139.3740   72.3980  221.9490 C   0  0  0  0  0  0  0  0  0  0  0  0
  139.1620   71.9450  220.7760 O   0  0  0  0  0  0  0  0  0  0  0  0
  139.5880   71.4930  223.0830 C   0  0  0  0  0  0  0  0  0  0  0  0
  139.1940   70.1800  222.9460 C   0  0  0  0  0  0  0  0  0  0  0  0
  139.3600   69.2630  223.9660 C   0  0  0  0  0  0  0  0  0  0  0  0
  139.9410   69.6980  225.1570 C   0  0  0  0  0  0  0  0  0  0  0  0
  140.1260   68.8090  226.2100 C   0  0  0  0  0  0  0  0  0  0  0  0
  140.7060   69.2790  227.3690 C   0  0  0  0  0  0  0  0  0  0  0  0
  140.9560   68.1880  228.7200 Cl  0  0  0  0  0  0  0  0  0  0  0  0
  141.0850   70.6060  227.4620 C   0  0  0  0  0  0  0  0  0  0  0  0
  140.9110   71.5080  226.4310 C   0  0  0  0  0  0  0  0  0  0  0  0
  140.3320   71.0300  225.2780 C   0  0  0  0  0  0  0  0  0  0  0  0
  140.1440   71.8870  224.2380 N   0  0  0  0  0  0  0  0  0  0  0  0
  143.2410   73.1870  219.7160 C   0  0  0  0  0  0  0  0  0  0  0  0
  142.7080   72.7390  218.5240 C   0  0  0  0  0  0  0  0  0  0  0  0
  141.9790   71.5600  218.4290 C   0  0  0  0  0  0  0  0  0  0  0  0
  141.7760   70.8040  219.5610 C   0  0  0  0  0  0  0  0  0  0  0  0
  142.2940   71.2220  220.7620 C   0  0  0  0  0  0  0  0  0  0  0  0
  143.0160   72.3990  220.8350 C   0  0  0  0  0  0  0  0  0  0  0  0
  144.7890   74.3736  221.7883 H   0  0  0  0  0  0  0  0  0  0  0  0
  145.6980   73.3933  220.5885 H   0  0  0  0  0  0  0  0  0  0  0  0
  145.8531   75.1829  220.5885 H   0  0  0  0  0  0  0  0  0  0  0  0
  144.4873   74.6570  218.8313 H   0  0  0  0  0  0  0  0  0  0  0  0
  142.9770   75.7340  221.1360 H   0  0  0  0  0  0  0  0  0  0  0  0
  141.3226   77.5158  218.2688 H   0  0  0  0  0  0  0  0  0  0  0  0
  142.0428   78.2307  221.1438 H   0  0  0  0  0  0  0  0  0  0  0  0
  142.8513   78.8493  219.6861 H   0  0  0  0  0  0  0  0  0  0  0  0
  140.5322   79.8085  220.9535 H   0  0  0  0  0  0  0  0  0  0  0  0
  141.2808   80.2811  219.3109 H   0  0  0  0  0  0  0  0  0  0  0  0
  138.8082   79.8601  219.4806 H   0  0  0  0  0  0  0  0  0  0  0  0
  139.8457   79.1265  218.1489 H   0  0  0  0  0  0  0  0  0  0  0  0
  138.2743   77.7963  220.3054 H   0  0  0  0  0  0  0  0  0  0  0  0
  138.6004   77.2894  218.6249 H   0  0  0  0  0  0  0  0  0  0  0  0
  138.1924   75.1932  221.2633 H   0  0  0  0  0  0  0  0  0  0  0  0
  139.3914   74.1923  220.2072 H   0  0  0  0  0  0  0  0  0  0  0  0
  139.5880   74.1220  223.1590 H   0  0  0  0  0  0  0  0  0  0  0  0
  138.7357   69.8535  222.0008 H   0  0  0  0  0  0  0  0  0  0  0  0
  139.0423   68.2172  223.8420 H   0  0  0  0  0  0  0  0  0  0  0  0
  139.8173   67.7570  226.1205 H   0  0  0  0  0  0  0  0  0  0  0  0
  141.5447   70.9579  228.3973 H   0  0  0  0  0  0  0  0  0  0  0  0
  141.2207   72.5591  226.5270 H   0  0  0  0  0  0  0  0  0  0  0  0
  142.8664   73.3380  217.6151 H   0  0  0  0  0  0  0  0  0  0  0  0
  141.5693   71.2349  217.4613 H   0  0  0  0  0  0  0  0  0  0  0  0
  141.2008   69.8681  219.5038 H   0  0  0  0  0  0  0  0  0  0  0  0
  142.1342   70.6191  221.6681 H   0  0  0  0  0  0  0  0  0  0  0  0
  143.4225   72.7187  221.8058 H   0  0  0  0  0  0  0  0  0  0  0  0
  1  2  1  0
  2  3  1  0
  3  4  1  0
  4  5  2  0
  4  6  1  0
  6  7  1  0
  7  8  1  0
  8  9  1  0
  9 10  1  0
 10 11  1  0
 11 12  1  0
 12 13  2  0
 12 14  1  0
 14 15  1  0
 15 16  1  0
 16 17  2  0
 16 18  1  0
 18 19  2  0
 19 20  1  0
 20 21  2  0
 21 22  1  0
 22 23  2  0
 23 24  1  0
 23 25  1  0
 25 26  2  0
 26 27  1  0
 27 28  2  0
  2 29  1  0
 29 30  2  0
 30 31  1  0
 31 32  2  0
 32 33  1  0
 33 34  2  0
 11  6  1  0
 28 18  1  0
 34 29  1  0
 27 21  1  0
  1 35  1  0
  1 36  1  0
  1 37  1  0
  2 38  1  6
  3 39  1  0
  6 40  1  6
  7 41  1  0
  7 42  1  0
  8 43  1  0
  8 44  1  0
  9 45  1  0
  9 46  1  0
 10 47  1  0
 10 48  1  0
 14 49  1  0
 14 50  1  0
 15 51  1  0
 19 52  1  0
 20 53  1  0
 22 54  1  0
 25 55  1  0
 26 56  1  0
 30 57  1  0
 31 58  1  0
 32 59  1  0
 33 60  1  0
 34 61  1  0
M  END
>  <smiles>  (37) 
C[C@H](NC(=O)C1CCCCN1C(=O)CNC(=O)c1ccc2cc(Cl)ccc2n1)c1ccccc1

>  <score_type>  (37) 
oracle

>  <origin>  (37) 
autodockgpu

>  <m_score__min__energy>  (37) 
-9.5299999999999994

>  <m_primary>  (37) 
energy

>  <rmsd>  (37) 
5.321485434965263

>  <m_score__min__rmsd>  (37) 
5.321485434965263

>  <meeko>  (37) 
{"free_energy": -7.6, "intermolecular_energy": -9.69, "internal_energy": -3.78, "cluster_size": 8, "cluster_id": 5, "rank_in_cluster": 8}

>  <energy>  (37) 
-7.88

>  <cluster_rmsd>  (37) 
0.0

>  <cluster>  (37) 
6

$$$$

     RDKit          3D

 61 64  0  0  1  0  0  0  0  0999 V2000
  140.1220   78.7210  219.7960 C   0  0  0  0  0  0  0  0  0  0  0  0
  141.5730   78.8030  220.1760 C   0  0  2  0  0  0  0  0  0  0  0  0
  142.2030   77.5140  220.3470 N   0  0  0  0  0  0  0  0  0  0  0  0
  142.7920   76.8150  219.2530 C   0  0  0  0  0  0  0  0  0  0  0  0
  142.7360   77.3980  218.1340 O   0  0  0  0  0  0  0  0  0  0  0  0
  143.4270   75.5320  219.3560 C   0  0  2  0  0  0  0  0  0  0  0  0
  143.8760   74.8300  218.1190 C   0  0  0  0  0  0  0  0  0  0  0  0
  144.7200   73.6840  218.5530 C   0  0  0  0  0  0  0  0  0  0  0  0
  144.8700   73.4300  220.0050 C   0  0  0  0  0  0  0  0  0  0  0  0
  143.5930   73.5840  220.8280 C   0  0  0  0  0  0  0  0  0  0  0  0
  142.6840   74.4870  220.0950 N   0  0  0  0  0  0  0  0  0  0  0  0
  141.2950   74.3910  220.0670 C   0  0  0  0  0  0  0  0  0  0  0  0
  140.7710   74.5010  218.8690 O   0  0  0  0  0  0  0  0  0  0  0  0
  140.3200   74.1920  221.1140 C   0  0  0  0  0  0  0  0  0  0  0  0
  139.4530   75.2430  221.5060 N   0  0  0  0  0  0  0  0  0  0  0  0
  139.8670   76.3720  222.3110 C   0  0  0  0  0  0  0  0  0  0  0  0
  141.0800   76.4440  222.6960 O   0  0  0  0  0  0  0  0  0  0  0  0
  138.8950   77.4090  222.6720 C   0  0  0  0  0  0  0  0  0  0  0  0
  137.5660   77.1740  222.3950 C   0  0  0  0  0  0  0  0  0  0  0  0
  136.5870   78.0990  222.7030 C   0  0  0  0  0  0  0  0  0  0  0  0
  136.9750   79.2940  223.3090 C   0  0  0  0  0  0  0  0  0  0  0  0
  136.0220   80.2530  223.6360 C   0  0  0  0  0  0  0  0  0  0  0  0
  136.4470   81.4190  224.2340 C   0  0  0  0  0  0  0  0  0  0  0  0
  135.2760   82.6540  224.6620 Cl  0  0  0  0  0  0  0  0  0  0  0  0
  137.7920   81.6120  224.4930 C   0  0  0  0  0  0  0  0  0  0  0  0
  138.7570   80.6750  224.1780 C   0  0  0  0  0  0  0  0  0  0  0  0
  138.3230   79.5140  223.5810 C   0  0  0  0  0  0  0  0  0  0  0  0
  139.2420   78.5650  223.2550 N   0  0  0  0  0  0  0  0  0  0  0  0
  141.7880   79.5810  221.4090 C   0  0  0  0  0  0  0  0  0  0  0  0
  142.3520   79.0170  222.5350 C   0  0  0  0  0  0  0  0  0  0  0  0
  142.5600   79.7360  223.7060 C   0  0  0  0  0  0  0  0  0  0  0  0
  142.1940   81.0610  223.7520 C   0  0  0  0  0  0  0  0  0  0  0  0
  141.6300   81.6530  222.6480 C   0  0  0  0  0  0  0  0  0  0  0  0
  141.4310   80.9190  221.4930 C   0  0  0  0  0  0  0  0  0  0  0  0
  139.5059   78.6862  220.7066 H   0  0  0  0  0  0  0  0  0  0  0  0
  139.8481   79.6051  219.2016 H   0  0  0  0  0  0  0  0  0  0  0  0
  139.9495   77.8117  219.2016 H   0  0  0  0  0  0  0  0  0  0  0  0
  142.0407   79.3130  219.3209 H   0  0  0  0  0  0  0  0  0  0  0  0
  142.2110   77.1350  221.3340 H   0  0  0  0  0  0  0  0  0  0  0  0
  144.3012   75.9163  219.9019 H   0  0  0  0  0  0  0  0  0  0  0  0
  143.0054   74.4657  217.5539 H   0  0  0  0  0  0  0  0  0  0  0  0
  144.4419   75.5095  217.4647 H   0  0  0  0  0  0  0  0  0  0  0  0
  144.2894   72.7755  218.1066 H   0  0  0  0  0  0  0  0  0  0  0  0
  145.7332   73.9524  218.2192 H   0  0  0  0  0  0  0  0  0  0  0  0
  145.2359   72.4007  220.1343 H   0  0  0  0  0  0  0  0  0  0  0  0
  145.5672   74.1947  220.3779 H   0  0  0  0  0  0  0  0  0  0  0  0
  143.1152   72.6024  220.9630 H   0  0  0  0  0  0  0  0  0  0  0  0
  143.8254   73.9986  221.8200 H   0  0  0  0  0  0  0  0  0  0  0  0
  139.6780   73.3592  220.7910 H   0  0  0  0  0  0  0  0  0  0  0  0
  140.9459   74.0452  222.0066 H   0  0  0  0  0  0  0  0  0  0  0  0
  138.4270   75.2630  221.2260 H   0  0  0  0  0  0  0  0  0  0  0  0
  137.2772   76.2264  221.9168 H   0  0  0  0  0  0  0  0  0  0  0  0
  135.5295   77.8984  222.4763 H   0  0  0  0  0  0  0  0  0  0  0  0
  134.9561   80.0846  223.4225 H   0  0  0  0  0  0  0  0  0  0  0  0
  138.1067   82.5518  224.9702 H   0  0  0  0  0  0  0  0  0  0  0  0
  139.8214   80.8489  224.3942 H   0  0  0  0  0  0  0  0  0  0  0  0
  142.6482   77.9581  222.5046 H   0  0  0  0  0  0  0  0  0  0  0  0
  143.0114   79.2518  224.5845 H   0  0  0  0  0  0  0  0  0  0  0  0
  142.3525   81.6452  224.6705 H   0  0  0  0  0  0  0  0  0  0  0  0
  141.3363   82.7125  222.6828 H   0  0  0  0  0  0  0  0  0  0  0  0
  140.9780   81.4086  220.6183 H   0  0  0  0  0  0  0  0  0  0  0  0
  1  2  1  0
  2  3  1  0
  3  4  1  0
  4  5  2  0
  4  6  1  0
  6  7  1  0
  7  8  1  0
  8  9  1  0
  9 10  1  0
 10 11  1  0
 11 12  1  0
 12 13  2  0
 12 14  1  0
 14 15  1  0
 15 16  1  0
 16 17  2  0
 16 18  1  0
 18 19  2  0
 19 20  1  0
 20 21  2  0
 21 22  1  0
 22 23  2  0
 23 24  1  0
 23 25  1  0
 25 26  2  0
 26 27  1  0
 27 28  2  0
  2 29  1  0
 29 30  2  0
 30 31  1  0
 31 32  2  0
 32 33  1  0
 33 34  2  0
 11  6  1  0
 28 18  1  0
 34 29  1  0
 27 21  1  0
  1 35  1  0
  1 36  1  0
  1 37  1  0
  2 38  1  6
  3 39  1  0
  6 40  1  1
  7 41  1  0
  7 42  1  0
  8 43  1  0
  8 44  1  0
  9 45  1  0
  9 46  1  0
 10 47  1  0
 10 48  1  0
 14 49  1  0
 14 50  1  0
 15 51  1  0
 19 52  1  0
 20 53  1  0
 22 54  1  0
 25 55  1  0
 26 56  1  0
 30 57  1  0
 31 58  1  0
 32 59  1  0
 33 60  1  0
 34 61  1  0
M  END
>  <smiles>  (38) 
C[C@H](NC(=O)C1CCCCN1C(=O)CNC(=O)c1ccc2cc(Cl)ccc2n1)c1ccccc1

>  <score_type>  (38) 
oracle

>  <origin>  (38) 
autodockgpu

>  <m_score__min__energy>  (38) 
-9.5299999999999994

>  <m_primary>  (38) 
energy

>  <rmsd>  (38) 
6.472611651194444

>  <m_score__min__rmsd>  (38) 
6.472611651194444

>  <meeko>  (38) 
{"free_energy": -7.18, "intermolecular_energy": -9.27, "internal_energy": -4.08, "cluster_size": 6, "cluster_id": 10, "rank_in_cluster": 4}

>  <energy>  (38) 
-7.76

>  <cluster_rmsd>  (38) 
0.0

>  <cluster>  (38) 
7

$$$$

     RDKit          3D

 61 64  0  0  1  0  0  0  0  0999 V2000
  140.3290   78.7890  219.7370 C   0  0  0  0  0  0  0  0  0  0  0  0
  141.7110   78.6160  220.2990 C   0  0  2  0  0  0  0  0  0  0  0  0
  142.0830   77.2350  220.5090 N   0  0  0  0  0  0  0  0  0  0  0  0
  142.8720   76.5190  219.5620 C   0  0  0  0  0  0  0  0  0  0  0  0
  143.2300   77.1680  218.5400 O   0  0  0  0  0  0  0  0  0  0  0  0
  143.2710   75.1470  219.7090 C   0  0  2  0  0  0  0  0  0  0  0  0
  144.0690   74.4910  218.6340 C   0  0  0  0  0  0  0  0  0  0  0  0
  144.5510   73.1940  219.1800 C   0  0  0  0  0  0  0  0  0  0  0  0
  144.1130   72.7970  220.5390 C   0  0  0  0  0  0  0  0  0  0  0  0
  142.6470   73.0780  220.8590 C   0  0  0  0  0  0  0  0  0  0  0  0
  142.1900   74.1720  219.9790 N   0  0  0  0  0  0  0  0  0  0  0  0
  140.9130   74.2990  219.4400 C   0  0  0  0  0  0  0  0  0  0  0  0
  140.8930   74.6690  218.1810 O   0  0  0  0  0  0  0  0  0  0  0  0
  139.6010   74.0970  220.0090 C   0  0  0  0  0  0  0  0  0  0  0  0
  138.8970   75.1730  220.6070 N   0  0  0  0  0  0  0  0  0  0  0  0
  139.3670   75.8980  221.7680 C   0  0  0  0  0  0  0  0  0  0  0  0
  140.4790   75.5650  222.2950 O   0  0  0  0  0  0  0  0  0  0  0  0
  138.5650   76.9950  222.3200 C   0  0  0  0  0  0  0  0  0  0  0  0
  137.1940   76.8620  222.3110 C   0  0  0  0  0  0  0  0  0  0  0  0
  136.3660   77.8490  222.8120 C   0  0  0  0  0  0  0  0  0  0  0  0
  136.9540   79.0000  223.3350 C   0  0  0  0  0  0  0  0  0  0  0  0
  136.1590   80.0180  223.8490 C   0  0  0  0  0  0  0  0  0  0  0  0
  136.7790   81.1390  224.3570 C   0  0  0  0  0  0  0  0  0  0  0  0
  135.8100   82.4460  225.0150 Cl  0  0  0  0  0  0  0  0  0  0  0  0
  138.1590   81.2300  224.3450 C   0  0  0  0  0  0  0  0  0  0  0  0
  138.9710   80.2330  223.8390 C   0  0  0  0  0  0  0  0  0  0  0  0
  138.3420   79.1180  223.3350 C   0  0  0  0  0  0  0  0  0  0  0  0
  139.1060   78.1120  222.8280 N   0  0  0  0  0  0  0  0  0  0  0  0
  141.8940   79.3340  221.5720 C   0  0  0  0  0  0  0  0  0  0  0  0
  141.9610   80.7120  221.6260 C   0  0  0  0  0  0  0  0  0  0  0  0
  142.1340   81.4040  222.8180 C   0  0  0  0  0  0  0  0  0  0  0  0
  142.2430   80.6980  223.9940 C   0  0  0  0  0  0  0  0  0  0  0  0
  142.1800   79.3270  223.9740 C   0  0  0  0  0  0  0  0  0  0  0  0
  142.0080   78.6570  222.7770 C   0  0  0  0  0  0  0  0  0  0  0  0
  139.6065   78.8794  220.5615 H   0  0  0  0  0  0  0  0  0  0  0  0
  140.2957   79.6983  219.1189 H   0  0  0  0  0  0  0  0  0  0  0  0
  140.0726   77.9159  219.1189 H   0  0  0  0  0  0  0  0  0  0  0  0
  142.3660   79.0449  219.5263 H   0  0  0  0  0  0  0  0  0  0  0  0
  141.7480   76.8020  221.4130 H   0  0  0  0  0  0  0  0  0  0  0  0
  143.9135   75.3419  220.5803 H   0  0  0  0  0  0  0  0  0  0  0  0
  143.4396   74.3176  217.7487 H   0  0  0  0  0  0  0  0  0  0  0  0
  144.9134   75.1264  218.3287 H   0  0  0  0  0  0  0  0  0  0  0  0
  144.2193   72.4060  218.4879 H   0  0  0  0  0  0  0  0  0  0  0  0
  145.6389   73.3267  219.2736 H   0  0  0  0  0  0  0  0  0  0  0  0
  144.2839   71.7159  220.6491 H   0  0  0  0  0  0  0  0  0  0  0  0
  144.7004   73.4091  221.2393 H   0  0  0  0  0  0  0  0  0  0  0  0
  142.0453   72.1755  220.6760 H   0  0  0  0  0  0  0  0  0  0  0  0
  142.5343   73.3644  221.9151 H   0  0  0  0  0  0  0  0  0  0  0  0
  138.9625   73.7158  219.1985 H   0  0  0  0  0  0  0  0  0  0  0  0
  139.8037   73.4328  220.8621 H   0  0  0  0  0  0  0  0  0  0  0  0
  137.9630   75.5180  220.2290 H   0  0  0  0  0  0  0  0  0  0  0  0
  136.7468   75.9473  221.8946 H   0  0  0  0  0  0  0  0  0  0  0  0
  135.2726   77.7296  222.7984 H   0  0  0  0  0  0  0  0  0  0  0  0
  135.0625   79.9309  223.8502 H   0  0  0  0  0  0  0  0  0  0  0  0
  138.6304   82.1349  224.7559 H   0  0  0  0  0  0  0  0  0  0  0  0
  140.0670   80.3263  223.8392 H   0  0  0  0  0  0  0  0  0  0  0  0
  141.8741   81.2833  220.6900 H   0  0  0  0  0  0  0  0  0  0  0  0
  142.1833   82.5029  222.8217 H   0  0  0  0  0  0  0  0  0  0  0  0
  142.3801   81.2304  224.9468 H   0  0  0  0  0  0  0  0  0  0  0  0
  142.2666   78.7600  224.9126 H   0  0  0  0  0  0  0  0  0  0  0  0
  141.9603   77.5580  222.7804 H   0  0  0  0  0  0  0  0  0  0  0  0
  1  2  1  0
  2  3  1  0
  3  4  1  0
  4  5  2  0
  4  6  1  0
  6  7  1  0
  7  8  1  0
  8  9  1  0
  9 10  1  0
 10 11  1  0
 11 12  1  0
 12 13  2  0
 12 14  1  0
 14 15  1  0
 15 16  1  0
 16 17  2  0
 16 18  1  0
 18 19  2  0
 19 20  1  0
 20 21  2  0
 21 22  1  0
 22 23  2  0
 23 24  1  0
 23 25  1  0
 25 26  2  0
 26 27  1  0
 27 28  2  0
  2 29  1  0
 29 30  2  0
 30 31  1  0
 31 32  2  0
 32 33  1  0
 33 34  2  0
 11  6  1  0
 28 18  1  0
 34 29  1  0
 27 21  1  0
  1 35  1  0
  1 36  1  0
  1 37  1  0
  2 38  1  6
  3 39  1  0
  6 40  1  1
  7 41  1  0
  7 42  1  0
  8 43  1  0
  8 44  1  0
  9 45  1  0
  9 46  1  0
 10 47  1  0
 10 48  1  0
 14 49  1  0
 14 50  1  0
 15 51  1  0
 19 52  1  0
 20 53  1  0
 22 54  1  0
 25 55  1  0
 26 56  1  0
 30 57  1  0
 31 58  1  0
 32 59  1  0
 33 60  1  0
 34 61  1  0
M  END
>  <smiles>  (39) 
C[C@H](NC(=O)C1CCCCN1C(=O)CNC(=O)c1ccc2cc(Cl)ccc2n1)c1ccccc1

>  <score_type>  (39) 
oracle

>  <origin>  (39) 
autodockgpu

>  <m_score__min__energy>  (39) 
-9.5299999999999994

>  <m_primary>  (39) 
energy

>  <rmsd>  (39) 
6.376810983127834

>  <m_score__min__rmsd>  (39) 
6.376810983127834

>  <meeko>  (39) 
{"free_energy": -7.01, "intermolecular_energy": -9.1, "internal_energy": -4.06, "cluster_size": 6, "cluster_id": 10, "rank_in_cluster": 5}

>  <energy>  (39) 
-7.01

>  <cluster_rmsd>  (39) 
1.95

>  <cluster>  (39) 
7

$$$$

     RDKit          3D

 61 64  0  0  1  0  0  0  0  0999 V2000
  135.6800   77.5910  221.3500 C   0  0  0  0  0  0  0  0  0  0  0  0
  136.3140   77.3060  222.6820 C   0  0  2  0  0  0  0  0  0  0  0  0
  137.7270   77.6030  222.7270 N   0  0  0  0  0  0  0  0  0  0  0  0
  138.2120   78.8910  223.0980 C   0  0  0  0  0  0  0  0  0  0  0  0
  137.3310   79.7470  223.3900 O   0  0  0  0  0  0  0  0  0  0  0  0
  139.6010   79.2500  223.1580 C   0  0  2  0  0  0  0  0  0  0  0  0
  140.0570   80.5360  222.5540 C   0  0  0  0  0  0  0  0  0  0  0  0
  141.4590   80.7520  223.0030 C   0  0  0  0  0  0  0  0  0  0  0  0
  142.1060   79.7010  223.8220 C   0  0  0  0  0  0  0  0  0  0  0  0
  141.8310   78.2670  223.3750 C   0  0  0  0  0  0  0  0  0  0  0  0
  140.5610   78.2590  222.6230 N   0  0  0  0  0  0  0  0  0  0  0  0
  140.2700   77.4440  221.5330 C   0  0  0  0  0  0  0  0  0  0  0  0
  139.2830   77.8770  220.7830 O   0  0  0  0  0  0  0  0  0  0  0  0
  140.8540   76.2070  221.0680 C   0  0  0  0  0  0  0  0  0  0  0  0
  140.7040   75.0110  221.8140 N   0  0  0  0  0  0  0  0  0  0  0  0
  139.7820   73.9520  221.4640 C   0  0  0  0  0  0  0  0  0  0  0  0
  139.0560   74.0850  220.4240 O   0  0  0  0  0  0  0  0  0  0  0  0
  139.6930   72.7510  222.3010 C   0  0  0  0  0  0  0  0  0  0  0  0
  138.8720   71.7280  221.8790 C   0  0  0  0  0  0  0  0  0  0  0  0
  138.7330   70.5630  222.6090 C   0  0  0  0  0  0  0  0  0  0  0  0
  139.4480   70.4400  223.7990 C   0  0  0  0  0  0  0  0  0  0  0  0
  139.3370   69.2850  224.5660 C   0  0  0  0  0  0  0  0  0  0  0  0
  140.0620   69.2040  225.7350 C   0  0  0  0  0  0  0  0  0  0  0  0
  139.9480   67.7620  226.7300 Cl  0  0  0  0  0  0  0  0  0  0  0  0
  140.8730   70.2560  226.1200 C   0  0  0  0  0  0  0  0  0  0  0  0
  141.0000   71.4130  225.3770 C   0  0  0  0  0  0  0  0  0  0  0  0
  140.2720   71.4850  224.2110 C   0  0  0  0  0  0  0  0  0  0  0  0
  140.3700   72.6090  223.4490 N   0  0  0  0  0  0  0  0  0  0  0  0
  136.1290   75.9060  223.1030 C   0  0  0  0  0  0  0  0  0  0  0  0
  136.5120   74.8500  222.3030 C   0  0  0  0  0  0  0  0  0  0  0  0
  136.3450   73.5240  222.6850 C   0  0  0  0  0  0  0  0  0  0  0  0
  135.7770   73.2460  223.9070 C   0  0  0  0  0  0  0  0  0  0  0  0
  135.3850   74.2750  224.7280 C   0  0  0  0  0  0  0  0  0  0  0  0
  135.5600   75.5870  224.3280 C   0  0  0  0  0  0  0  0  0  0  0  0
  134.6867   78.0375  221.5048 H   0  0  0  0  0  0  0  0  0  0  0  0
  136.3128   78.2913  220.7850 H   0  0  0  0  0  0  0  0  0  0  0  0
  135.5763   76.6529  220.7850 H   0  0  0  0  0  0  0  0  0  0  0  0
  135.7902   77.9808  223.3750 H   0  0  0  0  0  0  0  0  0  0  0  0
  138.3720   76.8010  222.4860 H   0  0  0  0  0  0  0  0  0  0  0  0
  139.6187   79.3285  224.2551 H   0  0  0  0  0  0  0  0  0  0  0  0
  140.0168   80.4736  221.4565 H   0  0  0  0  0  0  0  0  0  0  0  0
  139.4107   81.3690  222.8676 H   0  0  0  0  0  0  0  0  0  0  0  0
  142.0730   80.8846  222.1000 H   0  0  0  0  0  0  0  0  0  0  0  0
  141.3967   81.6196  223.6764 H   0  0  0  0  0  0  0  0  0  0  0  0
  143.1932   79.8651  223.7892 H   0  0  0  0  0  0  0  0  0  0  0  0
  141.6779   79.7936  224.8310 H   0  0  0  0  0  0  0  0  0  0  0  0
  142.6490   77.9138  222.7299 H   0  0  0  0  0  0  0  0  0  0  0  0
  141.7622   77.6013  224.2480 H   0  0  0  0  0  0  0  0  0  0  0  0
  140.4272   76.0124  220.0730 H   0  0  0  0  0  0  0  0  0  0  0  0
  141.9340   76.4047  221.1358 H   0  0  0  0  0  0  0  0  0  0  0  0
  141.2730   74.8170  222.6920 H   0  0  0  0  0  0  0  0  0  0  0  0
  138.3136   71.8415  220.9381 H   0  0  0  0  0  0  0  0  0  0  0  0
  138.0750   69.7536  222.2599 H   0  0  0  0  0  0  0  0  0  0  0  0
  138.6868   68.4570  224.2474 H   0  0  0  0  0  0  0  0  0  0  0  0
  141.4410   70.1673  227.0578 H   0  0  0  0  0  0  0  0  0  0  0  0
  141.6517   72.2376  225.7014 H   0  0  0  0  0  0  0  0  0  0  0  0
  136.9671   75.0653  221.3250 H   0  0  0  0  0  0  0  0  0  0  0  0
  136.6627   72.7079  222.0194 H   0  0  0  0  0  0  0  0  0  0  0  0
  135.6372   72.2025  224.2256 H   0  0  0  0  0  0  0  0  0  0  0  0
  134.9310   74.0550  225.7055 H   0  0  0  0  0  0  0  0  0  0  0  0
  135.2400   76.3987  224.9979 H   0  0  0  0  0  0  0  0  0  0  0  0
  1  2  1  0
  2  3  1  0
  3  4  1  0
  4  5  2  0
  4  6  1  0
  6  7  1  0
  7  8  1  0
  8  9  1  0
  9 10  1  0
 10 11  1  0
 11 12  1  0
 12 13  2  0
 12 14  1  0
 14 15  1  0
 15 16  1  0
 16 17  2  0
 16 18  1  0
 18 19  2  0
 19 20  1  0
 20 21  2  0
 21 22  1  0
 22 23  2  0
 23 24  1  0
 23 25  1  0
 25 26  2  0
 26 27  1  0
 27 28  2  0
  2 29  1  0
 29 30  2  0
 30 31  1  0
 31 32  2  0
 32 33  1  0
 33 34  2  0
 11  6  1  0
 28 18  1  0
 34 29  1  0
 27 21  1  0
  1 35  1  0
  1 36  1  0
  1 37  1  0
  2 38  1  1
  3 39  1  0
  6 40  1  1
  7 41  1  0
  7 42  1  0
  8 43  1  0
  8 44  1  0
  9 45  1  0
  9 46  1  0
 10 47  1  0
 10 48  1  0
 14 49  1  0
 14 50  1  0
 15 51  1  0
 19 52  1  0
 20 53  1  0
 22 54  1  0
 25 55  1  0
 26 56  1  0
 30 57  1  0
 31 58  1  0
 32 59  1  0
 33 60  1  0
 34 61  1  0
M  END
>  <smiles>  (40) 
C[C@H](NC(=O)C1CCCCN1C(=O)CNC(=O)c1ccc2cc(Cl)ccc2n1)c1ccccc1

>  <score_type>  (40) 
oracle

>  <origin>  (40) 
autodockgpu

>  <m_score__min__energy>  (40) 
-9.5299999999999994

>  <m_primary>  (40) 
energy

>  <rmsd>  (40) 
5.7635558616662586

>  <m_score__min__rmsd>  (40) 
5.7635558616662586

>  <meeko>  (40) 
{"free_energy": -7.35, "intermolecular_energy": -9.44, "internal_energy": -3.2, "cluster_size": 2, "cluster_id": 9, "rank_in_cluster": 1}

>  <energy>  (40) 
-7.4

>  <cluster_rmsd>  (40) 
0.0

>  <cluster>  (40) 
8

$$$$

     RDKit          3D

 61 64  0  0  1  0  0  0  0  0999 V2000
  140.3160   71.5190  223.4450 C   0  0  0  0  0  0  0  0  0  0  0  0
  139.8880   70.4890  224.4520 C   0  0  2  0  0  0  0  0  0  0  0  0
  138.4630   70.2510  224.4690 N   0  0  0  0  0  0  0  0  0  0  0  0
  137.8620   69.2320  223.6730 C   0  0  0  0  0  0  0  0  0  0  0  0
  138.6540   68.5500  222.9640 O   0  0  0  0  0  0  0  0  0  0  0  0
  136.4550   68.9500  223.6420 C   0  0  2  0  0  0  0  0  0  0  0  0
  135.8800   68.1910  222.4930 C   0  0  0  0  0  0  0  0  0  0  0  0
  134.4880   67.8260  222.8680 C   0  0  0  0  0  0  0  0  0  0  0  0
  133.9550   68.3160  224.1610 C   0  0  0  0  0  0  0  0  0  0  0  0
  134.3140   69.7590  224.5070 C   0  0  0  0  0  0  0  0  0  0  0  0
  135.5470   70.1100  223.7770 N   0  0  0  0  0  0  0  0  0  0  0  0
  135.8490   71.3650  223.2520 C   0  0  0  0  0  0  0  0  0  0  0  0
  135.1720   72.3520  223.7920 O   0  0  0  0  0  0  0  0  0  0  0  0
  136.7710   71.7850  222.2240 C   0  0  0  0  0  0  0  0  0  0  0  0
  137.4990   72.9940  222.3540 N   0  0  0  0  0  0  0  0  0  0  0  0
  138.6460   73.3370  221.5400 C   0  0  0  0  0  0  0  0  0  0  0  0
  139.0360   72.5160  220.6460 O   0  0  0  0  0  0  0  0  0  0  0  0
  139.3400   74.6110  221.7530 C   0  0  0  0  0  0  0  0  0  0  0  0
  140.6630   74.6970  221.3780 C   0  0  0  0  0  0  0  0  0  0  0  0
  141.3890   75.8620  221.5430 C   0  0  0  0  0  0  0  0  0  0  0  0
  140.7480   76.9650  222.1060 C   0  0  0  0  0  0  0  0  0  0  0  0
  141.4410   78.1560  222.2910 C   0  0  0  0  0  0  0  0  0  0  0  0
  140.7700   79.2230  222.8490 C   0  0  0  0  0  0  0  0  0  0  0  0
  141.6100   80.7440  223.0980 Cl  0  0  0  0  0  0  0  0  0  0  0  0
  139.4410   79.0910  223.2100 C   0  0  0  0  0  0  0  0  0  0  0  0
  138.7320   77.9180  223.0370 C   0  0  0  0  0  0  0  0  0  0  0  0
  139.4100   76.8590  222.4790 C   0  0  0  0  0  0  0  0  0  0  0  0
  138.7460   75.6860  222.2910 N   0  0  0  0  0  0  0  0  0  0  0  0
  140.3080   70.8340  225.8210 C   0  0  0  0  0  0  0  0  0  0  0  0
  139.9540   70.0590  226.9070 C   0  0  0  0  0  0  0  0  0  0  0  0
  140.3410   70.3710  228.2040 C   0  0  0  0  0  0  0  0  0  0  0  0
  141.1070   71.4920  228.4240 C   0  0  0  0  0  0  0  0  0  0  0  0
  141.4770   72.2840  227.3650 C   0  0  0  0  0  0  0  0  0  0  0  0
  141.0810   71.9560  226.0820 C   0  0  0  0  0  0  0  0  0  0  0  0
  140.6871   72.4121  223.9691 H   0  0  0  0  0  0  0  0  0  0  0  0
  141.1165   71.1048  222.8144 H   0  0  0  0  0  0  0  0  0  0  0  0
  139.4577   71.7941  222.8144 H   0  0  0  0  0  0  0  0  0  0  0  0
  140.3947   69.5701  224.1221 H   0  0  0  0  0  0  0  0  0  0  0  0
  137.9030   70.8680  225.1190 H   0  0  0  0  0  0  0  0  0  0  0  0
  136.4806   68.3084  224.5351 H   0  0  0  0  0  0  0  0  0  0  0  0
  135.8759   68.8185  221.5895 H   0  0  0  0  0  0  0  0  0  0  0  0
  136.4773   67.2930  222.2767 H   0  0  0  0  0  0  0  0  0  0  0  0
  133.8268   68.2100  222.0772 H   0  0  0  0  0  0  0  0  0  0  0  0
  134.5172   66.7326  222.9845 H   0  0  0  0  0  0  0  0  0  0  0  0
  132.8583   68.2364  224.1291 H   0  0  0  0  0  0  0  0  0  0  0  0
  134.4184   67.6912  224.9387 H   0  0  0  0  0  0  0  0  0  0  0  0
  133.4968   70.4299  224.2036 H   0  0  0  0  0  0  0  0  0  0  0  0
  134.4686   69.8648  225.5909 H   0  0  0  0  0  0  0  0  0  0  0  0
  137.5141   70.9805  222.1209 H   0  0  0  0  0  0  0  0  0  0  0  0
  136.1088   71.9886  221.3696 H   0  0  0  0  0  0  0  0  0  0  0  0
  137.2400   73.7360  223.0710 H   0  0  0  0  0  0  0  0  0  0  0  0
  141.1537   73.8171  220.9365 H   0  0  0  0  0  0  0  0  0  0  0  0
  142.4445   75.9173  221.2382 H   0  0  0  0  0  0  0  0  0  0  0  0
  142.4980   78.2446  221.9995 H   0  0  0  0  0  0  0  0  0  0  0  0
  138.9271   79.9566  223.6535 H   0  0  0  0  0  0  0  0  0  0  0  0
  137.6754   77.8347  223.3315 H   0  0  0  0  0  0  0  0  0  0  0  0
  139.3423   69.1603  226.7389 H   0  0  0  0  0  0  0  0  0  0  0  0
  140.0386   69.7295  229.0448 H   0  0  0  0  0  0  0  0  0  0  0  0
  141.4222   71.7532  229.4450 H   0  0  0  0  0  0  0  0  0  0  0  0
  142.0897   73.1811  227.5380 H   0  0  0  0  0  0  0  0  0  0  0  0
  141.3869   72.6018  225.2457 H   0  0  0  0  0  0  0  0  0  0  0  0
  1  2  1  0
  2  3  1  0
  3  4  1  0
  4  5  2  0
  4  6  1  0
  6  7  1  0
  7  8  1  0
  8  9  1  0
  9 10  1  0
 10 11  1  0
 11 12  1  0
 12 13  2  0
 12 14  1  0
 14 15  1  0
 15 16  1  0
 16 17  2  0
 16 18  1  0
 18 19  2  0
 19 20  1  0
 20 21  2  0
 21 22  1  0
 22 23  2  0
 23 24  1  0
 23 25  1  0
 25 26  2  0
 26 27  1  0
 27 28  2  0
  2 29  1  0
 29 30  2  0
 30 31  1  0
 31 32  2  0
 32 33  1  0
 33 34  2  0
 11  6  1  0
 28 18  1  0
 34 29  1  0
 27 21  1  0
  1 35  1  0
  1 36  1  0
  1 37  1  0
  2 38  1  6
  3 39  1  0
  6 40  1  1
  7 41  1  0
  7 42  1  0
  8 43  1  0
  8 44  1  0
  9 45  1  0
  9 46  1  0
 10 47  1  0
 10 48  1  0
 14 49  1  0
 14 50  1  0
 15 51  1  0
 19 52  1  0
 20 53  1  0
 22 54  1  0
 25 55  1  0
 26 56  1  0
 30 57  1  0
 31 58  1  0
 32 59  1  0
 33 60  1  0
 34 61  1  0
M  END
>  <smiles>  (41) 
C[C@H](NC(=O)C1CCCCN1C(=O)CNC(=O)c1ccc2cc(Cl)ccc2n1)c1ccccc1

>  <score_type>  (41) 
oracle

>  <origin>  (41) 
autodockgpu

>  <m_score__min__energy>  (41) 
-9.5299999999999994

>  <m_primary>  (41) 
energy

>  <rmsd>  (41) 
9.270286359551013

>  <m_score__min__rmsd>  (41) 
9.270286359551013

>  <meeko>  (41) 
{"free_energy": -8.3, "intermolecular_energy": -10.39, "internal_energy": -2.51, "cluster_size": 8, "cluster_id": 2, "rank_in_cluster": 3}

>  <energy>  (41) 
-7.35

>  <cluster_rmsd>  (41) 
0.0

>  <cluster>  (41) 
9

$$$$

     RDKit          3D

 61 64  0  0  1  0  0  0  0  0999 V2000
  139.1790   77.3050  222.6530 C   0  0  0  0  0  0  0  0  0  0  0  0
  140.2950   77.8910  221.8350 C   0  0  2  0  0  0  0  0  0  0  0  0
  141.2950   76.9260  221.4400 N   0  0  0  0  0  0  0  0  0  0  0  0
  141.2270   76.2460  220.1890 C   0  0  0  0  0  0  0  0  0  0  0  0
  140.2480   76.5470  219.4510 O   0  0  0  0  0  0  0  0  0  0  0  0
  142.1840   75.2740  219.7410 C   0  0  2  0  0  0  0  0  0  0  0  0
  142.9990   75.5490  218.5220 C   0  0  0  0  0  0  0  0  0  0  0  0
  144.0640   74.5110  218.4690 C   0  0  0  0  0  0  0  0  0  0  0  0
  144.0600   73.4450  219.4980 C   0  0  0  0  0  0  0  0  0  0  0  0
  142.6850   72.8800  219.8450 C   0  0  0  0  0  0  0  0  0  0  0  0
  141.6740   73.9030  219.5120 N   0  0  0  0  0  0  0  0  0  0  0  0
  140.3940   73.6500  219.0270 C   0  0  0  0  0  0  0  0  0  0  0  0
  140.2300   73.9410  217.7580 O   0  0  0  0  0  0  0  0  0  0  0  0
  139.2080   73.1230  219.6610 C   0  0  0  0  0  0  0  0  0  0  0  0
  139.3080   72.2720  220.7900 N   0  0  0  0  0  0  0  0  0  0  0  0
  139.7520   72.7120  222.0950 C   0  0  0  0  0  0  0  0  0  0  0  0
  140.0720   73.9360  222.2580 O   0  0  0  0  0  0  0  0  0  0  0  0
  139.8290   71.7560  223.2040 C   0  0  0  0  0  0  0  0  0  0  0  0
  139.3010   70.4980  223.0100 C   0  0  0  0  0  0  0  0  0  0  0  0
  139.3330   69.5370  224.0030 C   0  0  0  0  0  0  0  0  0  0  0  0
  139.9180   69.8700  225.2250 C   0  0  0  0  0  0  0  0  0  0  0  0
  139.9710   68.9340  226.2520 C   0  0  0  0  0  0  0  0  0  0  0  0
  140.5580   69.3030  227.4430 C   0  0  0  0  0  0  0  0  0  0  0  0
  140.6440   68.1490  228.7630 Cl  0  0  0  0  0  0  0  0  0  0  0  0
  141.0740   70.5770  227.5930 C   0  0  0  0  0  0  0  0  0  0  0  0
  141.0330   71.5240  226.5880 C   0  0  0  0  0  0  0  0  0  0  0  0
  140.4450   71.1470  225.4030 C   0  0  0  0  0  0  0  0  0  0  0  0
  140.3850   72.0510  224.3870 N   0  0  0  0  0  0  0  0  0  0  0  0
  140.9790   78.9960  222.5300 C   0  0  0  0  0  0  0  0  0  0  0  0
  140.2780   79.9900  223.1810 C   0  0  0  0  0  0  0  0  0  0  0  0
  140.9090   81.0390  223.8400 C   0  0  0  0  0  0  0  0  0  0  0  0
  142.2830   81.0950  223.8490 C   0  0  0  0  0  0  0  0  0  0  0  0
  143.0100   80.1210  223.2100 C   0  0  0  0  0  0  0  0  0  0  0  0
  142.3630   79.0860  222.5600 C   0  0  0  0  0  0  0  0  0  0  0  0
  139.4065   77.4245  223.7226 H   0  0  0  0  0  0  0  0  0  0  0  0
  138.2392   77.8260  222.4176 H   0  0  0  0  0  0  0  0  0  0  0  0
  139.0743   76.2356  222.4176 H   0  0  0  0  0  0  0  0  0  0  0  0
  139.7918   78.2659  220.9316 H   0  0  0  0  0  0  0  0  0  0  0  0
  142.0820   76.7720  222.1290 H   0  0  0  0  0  0  0  0  0  0  0  0
  142.8155   75.3618  220.6374 H   0  0  0  0  0  0  0  0  0  0  0  0
  142.3673   75.4887  217.6235 H   0  0  0  0  0  0  0  0  0  0  0  0
  143.4351   76.5581  218.5601 H   0  0  0  0  0  0  0  0  0  0  0  0
  143.9887   74.0174  217.4889 H   0  0  0  0  0  0  0  0  0  0  0  0
  144.9938   75.0672  218.6591 H   0  0  0  0  0  0  0  0  0  0  0  0
  144.6854   72.6172  219.1325 H   0  0  0  0  0  0  0  0  0  0  0  0
  144.4399   73.9099  220.4197 H   0  0  0  0  0  0  0  0  0  0  0  0
  142.4984   71.9668  219.2609 H   0  0  0  0  0  0  0  0  0  0  0  0
  142.6347   72.6269  220.9143 H   0  0  0  0  0  0  0  0  0  0  0  0
  138.6072   73.9899  219.9733 H   0  0  0  0  0  0  0  0  0  0  0  0
  138.7924   72.4584  218.8893 H   0  0  0  0  0  0  0  0  0  0  0  0
  139.0580   71.2390  220.7440 H   0  0  0  0  0  0  0  0  0  0  0  0
  138.8426   70.2525  222.0407 H   0  0  0  0  0  0  0  0  0  0  0  0
  138.9085   68.5363  223.8343 H   0  0  0  0  0  0  0  0  0  0  0  0
  139.5549   67.9247  226.1172 H   0  0  0  0  0  0  0  0  0  0  0  0
  141.5368   70.8480  228.5534 H   0  0  0  0  0  0  0  0  0  0  0  0
  141.4508   72.5318  226.7287 H   0  0  0  0  0  0  0  0  0  0  0  0
  139.1787   79.9511  223.1786 H   0  0  0  0  0  0  0  0  0  0  0  0
  140.3167   81.8144  224.3478 H   0  0  0  0  0  0  0  0  0  0  0  0
  142.7982   81.9176  224.3666 H   0  0  0  0  0  0  0  0  0  0  0  0
  144.1091   80.1641  223.2152 H   0  0  0  0  0  0  0  0  0  0  0  0
  142.9612   78.3141  222.0537 H   0  0  0  0  0  0  0  0  0  0  0  0
  1  2  1  0
  2  3  1  0
  3  4  1  0
  4  5  2  0
  4  6  1  0
  6  7  1  0
  7  8  1  0
  8  9  1  0
  9 10  1  0
 10 11  1  0
 11 12  1  0
 12 13  2  0
 12 14  1  0
 14 15  1  0
 15 16  1  0
 16 17  2  0
 16 18  1  0
 18 19  2  0
 19 20  1  0
 20 21  2  0
 21 22  1  0
 22 23  2  0
 23 24  1  0
 23 25  1  0
 25 26  2  0
 26 27  1  0
 27 28  2  0
  2 29  1  0
 29 30  2  0
 30 31  1  0
 31 32  2  0
 32 33  1  0
 33 34  2  0
 11  6  1  0
 28 18  1  0
 34 29  1  0
 27 21  1  0
  1 35  1  0
  1 36  1  0
  1 37  1  0
  2 38  1  6
  3 39  1  0
  6 40  1  1
  7 41  1  0
  7 42  1  0
  8 43  1  0
  8 44  1  0
  9 45  1  0
  9 46  1  0
 10 47  1  0
 10 48  1  0
 14 49  1  0
 14 50  1  0
 15 51  1  0
 19 52  1  0
 20 53  1  0
 22 54  1  0
 25 55  1  0
 26 56  1  0
 30 57  1  0
 31 58  1  0
 32 59  1  0
 33 60  1  0
 34 61  1  0
M  END
>  <smiles>  (42) 
C[C@H](NC(=O)C1CCCCN1C(=O)CNC(=O)c1ccc2cc(Cl)ccc2n1)c1ccccc1

>  <score_type>  (42) 
oracle

>  <origin>  (42) 
autodockgpu

>  <m_score__min__energy>  (42) 
-9.5299999999999994

>  <m_primary>  (42) 
energy

>  <rmsd>  (42) 
2.9648978238576014

>  <m_score__min__rmsd>  (42) 
2.9648978238576014

>  <meeko>  (42) 
{"free_energy": -9.53, "intermolecular_energy": -11.62, "internal_energy": -2.05, "cluster_size": 13, "cluster_id": 1, "rank_in_cluster": 1}

>  <energy>  (42) 
-6.97

>  <cluster_rmsd>  (42) 
0.63

>  <cluster>  (42) 
9

$$$$

     RDKit          3D

 61 64  0  0  1  0  0  0  0  0999 V2000
  136.2690   76.0800  220.2740 C   0  0  0  0  0  0  0  0  0  0  0  0
  136.4450   76.6150  221.6670 C   0  0  2  0  0  0  0  0  0  0  0  0
  137.7790   77.0980  221.9390 N   0  0  0  0  0  0  0  0  0  0  0  0
  138.0060   78.3230  222.6330 C   0  0  0  0  0  0  0  0  0  0  0  0
  136.9720   78.9480  222.9990 O   0  0  0  0  0  0  0  0  0  0  0  0
  139.3040   78.8600  222.9290 C   0  0  2  0  0  0  0  0  0  0  0  0
  139.6400   80.2510  222.5100 C   0  0  0  0  0  0  0  0  0  0  0  0
  140.9200   80.6090  223.1800 C   0  0  0  0  0  0  0  0  0  0  0  0
  141.6000   79.5770  223.9950 C   0  0  0  0  0  0  0  0  0  0  0  0
  141.6060   78.1730  223.3950 C   0  0  0  0  0  0  0  0  0  0  0  0
  140.4660   78.0700  222.4640 N   0  0  0  0  0  0  0  0  0  0  0  0
  140.4510   77.3400  221.2780 C   0  0  0  0  0  0  0  0  0  0  0  0
  139.7120   77.8670  220.3300 O   0  0  0  0  0  0  0  0  0  0  0  0
  141.1010   76.1090  220.8930 C   0  0  0  0  0  0  0  0  0  0  0  0
  140.8950   74.9190  221.6350 N   0  0  0  0  0  0  0  0  0  0  0  0
  139.6910   74.1190  221.5570 C   0  0  0  0  0  0  0  0  0  0  0  0
  138.7530   74.4890  220.7780 O   0  0  0  0  0  0  0  0  0  0  0  0
  139.5660   72.9040  222.3690 C   0  0  0  0  0  0  0  0  0  0  0  0
  138.5950   71.9910  222.0200 C   0  0  0  0  0  0  0  0  0  0  0  0
  138.4120   70.8200  222.7320 C   0  0  0  0  0  0  0  0  0  0  0  0
  139.2400   70.5770  223.8270 C   0  0  0  0  0  0  0  0  0  0  0  0
  139.0890   69.4120  224.5710 C   0  0  0  0  0  0  0  0  0  0  0  0
  139.9290   69.2090  225.6450 C   0  0  0  0  0  0  0  0  0  0  0  0
  139.7710   67.7510  226.6100 Cl  0  0  0  0  0  0  0  0  0  0  0  0
  140.8900   70.1530  225.9590 C   0  0  0  0  0  0  0  0  0  0  0  0
  141.0590   71.3180  225.2350 C   0  0  0  0  0  0  0  0  0  0  0  0
  140.2160   71.5110  224.1650 C   0  0  0  0  0  0  0  0  0  0  0  0
  140.3500   72.6460  223.4250 N   0  0  0  0  0  0  0  0  0  0  0  0
  136.1030   75.6190  222.6980 C   0  0  0  0  0  0  0  0  0  0  0  0
  135.7310   75.9920  223.9730 C   0  0  0  0  0  0  0  0  0  0  0  0
  135.4060   75.0660  224.9570 C   0  0  0  0  0  0  0  0  0  0  0  0
  135.4550   73.7240  224.6560 C   0  0  0  0  0  0  0  0  0  0  0  0
  135.8210   73.3200  223.3960 C   0  0  0  0  0  0  0  0  0  0  0  0
  136.1410   74.2580  222.4320 C   0  0  0  0  0  0  0  0  0  0  0  0
  135.9256   75.0361  220.3228 H   0  0  0  0  0  0  0  0  0  0  0  0
  135.5231   76.6868  219.7397 H   0  0  0  0  0  0  0  0  0  0  0  0
  137.2294   76.1254  219.7397 H   0  0  0  0  0  0  0  0  0  0  0  0
  135.7465   77.4634  221.7147 H   0  0  0  0  0  0  0  0  0  0  0  0
  138.5680   76.4790  221.6070 H   0  0  0  0  0  0  0  0  0  0  0  0
  139.1595   78.8259  224.0189 H   0  0  0  0  0  0  0  0  0  0  0  0
  139.7591   80.2983  221.4175 H   0  0  0  0  0  0  0  0  0  0  0  0
  138.8395   80.9507  222.7923 H   0  0  0  0  0  0  0  0  0  0  0  0
  141.6238   80.9180  222.3931 H   0  0  0  0  0  0  0  0  0  0  0  0
  140.6374   81.3850  223.9066 H   0  0  0  0  0  0  0  0  0  0  0  0
  142.6447   79.8903  224.1378 H   0  0  0  0  0  0  0  0  0  0  0  0
  141.0301   79.5051  224.9331 H   0  0  0  0  0  0  0  0  0  0  0  0
  142.5476   78.0030  222.8524 H   0  0  0  0  0  0  0  0  0  0  0  0
  141.5197   77.4175  224.1898 H   0  0  0  0  0  0  0  0  0  0  0  0
  140.7834   75.8952  219.8618 H   0  0  0  0  0  0  0  0  0  0  0  0
  142.1644   76.3275  221.0703 H   0  0  0  0  0  0  0  0  0  0  0  0
  141.6270   74.5360  222.3060 H   0  0  0  0  0  0  0  0  0  0  0  0
  137.9496   72.1988  221.1538 H   0  0  0  0  0  0  0  0  0  0  0  0
  137.6335   70.0990  222.4421 H   0  0  0  0  0  0  0  0  0  0  0  0
  138.3190   68.6714  224.3092 H   0  0  0  0  0  0  0  0  0  0  0  0
  141.5475   69.9687  226.8214 H   0  0  0  0  0  0  0  0  0  0  0  0
  141.8304   72.0555  225.5014 H   0  0  0  0  0  0  0  0  0  0  0  0
  135.6901   77.0631  224.2202 H   0  0  0  0  0  0  0  0  0  0  0  0
  135.1135   75.4012  225.9630 H   0  0  0  0  0  0  0  0  0  0  0  0
  135.2016   72.9771  225.4228 H   0  0  0  0  0  0  0  0  0  0  0  0
  135.8597   72.2479  223.1529 H   0  0  0  0  0  0  0  0  0  0  0  0
  136.4333   73.9163  221.4281 H   0  0  0  0  0  0  0  0  0  0  0  0
  1  2  1  0
  2  3  1  0
  3  4  1  0
  4  5  2  0
  4  6  1  0
  6  7  1  0
  7  8  1  0
  8  9  1  0
  9 10  1  0
 10 11  1  0
 11 12  1  0
 12 13  2  0
 12 14  1  0
 14 15  1  0
 15 16  1  0
 16 17  2  0
 16 18  1  0
 18 19  2  0
 19 20  1  0
 20 21  2  0
 21 22  1  0
 22 23  2  0
 23 24  1  0
 23 25  1  0
 25 26  2  0
 26 27  1  0
 27 28  2  0
  2 29  1  0
 29 30  2  0
 30 31  1  0
 31 32  2  0
 32 33  1  0
 33 34  2  0
 11  6  1  0
 28 18  1  0
 34 29  1  0
 27 21  1  0
  1 35  1  0
  1 36  1  0
  1 37  1  0
  2 38  1  6
  3 39  1  0
  6 40  1  1
  7 41  1  0
  7 42  1  0
  8 43  1  0
  8 44  1  0
  9 45  1  0
  9 46  1  0
 10 47  1  0
 10 48  1  0
 14 49  1  0
 14 50  1  0
 15 51  1  0
 19 52  1  0
 20 53  1  0
 22 54  1  0
 25 55  1  0
 26 56  1  0
 30 57  1  0
 31 58  1  0
 32 59  1  0
 33 60  1  0
 34 61  1  0
M  END
>  <smiles>  (43) 
C[C@H](NC(=O)C1CCCCN1C(=O)CNC(=O)c1ccc2cc(Cl)ccc2n1)c1ccccc1

>  <score_type>  (43) 
oracle

>  <origin>  (43) 
autodockgpu

>  <m_score__min__energy>  (43) 
-9.5299999999999994

>  <m_primary>  (43) 
energy

>  <rmsd>  (43) 
5.742828867305652

>  <m_score__min__rmsd>  (43) 
5.742828867305652

>  <meeko>  (43) 
{"free_energy": -6.97, "intermolecular_energy": -9.06, "internal_energy": -4.09, "cluster_size": 2, "cluster_id": 9, "rank_in_cluster": 2}

>  <energy>  (43) 
-7.27

>  <cluster_rmsd>  (43) 
0.0

>  <cluster>  (43) 
10

$$$$

     RDKit          3D

 61 64  0  0  1  0  0  0  0  0999 V2000
  140.0770   78.6390  219.8180 C   0  0  0  0  0  0  0  0  0  0  0  0
  141.5120   78.5890  220.2580 C   0  0  2  0  0  0  0  0  0  0  0  0
  141.9780   77.2560  220.5670 N   0  0  0  0  0  0  0  0  0  0  0  0
  142.6210   76.4410  219.5890 C   0  0  0  0  0  0  0  0  0  0  0  0
  142.7640   76.9610  218.4470 O   0  0  0  0  0  0  0  0  0  0  0  0
  143.1010   75.1100  219.8310 C   0  0  2  0  0  0  0  0  0  0  0  0
  144.0920   74.5020  218.8960 C   0  0  0  0  0  0  0  0  0  0  0  0
  144.5920   73.2590  219.5430 C   0  0  0  0  0  0  0  0  0  0  0  0
  144.0010   72.8530  220.8380 C   0  0  0  0  0  0  0  0  0  0  0  0
  142.4870   73.0190  220.9440 C   0  0  0  0  0  0  0  0  0  0  0  0
  142.0730   74.0550  219.9780 N   0  0  0  0  0  0  0  0  0  0  0  0
  140.8780   74.0670  219.2630 C   0  0  0  0  0  0  0  0  0  0  0  0
  141.0280   74.1860  217.9650 O   0  0  0  0  0  0  0  0  0  0  0  0
  139.5010   73.9700  219.6850 C   0  0  0  0  0  0  0  0  0  0  0  0
  138.8580   75.0640  220.3180 N   0  0  0  0  0  0  0  0  0  0  0  0
  139.3620   75.7170  221.5060 C   0  0  0  0  0  0  0  0  0  0  0  0
  140.4490   75.3000  222.0260 O   0  0  0  0  0  0  0  0  0  0  0  0
  138.6240   76.8400  222.0930 C   0  0  0  0  0  0  0  0  0  0  0  0
  137.2500   76.8400  221.9800 C   0  0  0  0  0  0  0  0  0  0  0  0
  136.4800   77.8600  222.5060 C   0  0  0  0  0  0  0  0  0  0  0  0
  137.1280   78.9050  223.1630 C   0  0  0  0  0  0  0  0  0  0  0  0
  136.3910   79.9520  223.7060 C   0  0  0  0  0  0  0  0  0  0  0  0
  137.0700   80.9650  224.3480 C   0  0  0  0  0  0  0  0  0  0  0  0
  136.1760   82.3040  225.0480 Cl  0  0  0  0  0  0  0  0  0  0  0  0
  138.4500   80.9240  224.4380 C   0  0  0  0  0  0  0  0  0  0  0  0
  139.2040   79.8950  223.9060 C   0  0  0  0  0  0  0  0  0  0  0  0
  138.5170   78.8890  223.2670 C   0  0  0  0  0  0  0  0  0  0  0  0
  139.2230   77.8570  222.7300 N   0  0  0  0  0  0  0  0  0  0  0  0
  141.7710   79.4440  221.4300 C   0  0  0  0  0  0  0  0  0  0  0  0
  142.2430   78.9240  222.6180 C   0  0  0  0  0  0  0  0  0  0  0  0
  142.4910   79.7160  223.7320 C   0  0  0  0  0  0  0  0  0  0  0  0
  142.2610   81.0710  223.6570 C   0  0  0  0  0  0  0  0  0  0  0  0
  141.7920   81.6190  222.4890 C   0  0  0  0  0  0  0  0  0  0  0  0
  141.5500   80.8130  221.3910 C   0  0  0  0  0  0  0  0  0  0  0  0
  139.4230   78.6618  220.7021 H   0  0  0  0  0  0  0  0  0  0  0  0
  139.9097   79.5435  219.2148 H   0  0  0  0  0  0  0  0  0  0  0  0
  139.8472   77.7483  219.2148 H   0  0  0  0  0  0  0  0  0  0  0  0
  142.0686   78.9646  219.3867 H   0  0  0  0  0  0  0  0  0  0  0  0
  141.8260   76.9360  221.5620 H   0  0  0  0  0  0  0  0  0  0  0  0
  143.5967   75.3724  220.7773 H   0  0  0  0  0  0  0  0  0  0  0  0
  143.6091   74.2614  217.9374 H   0  0  0  0  0  0  0  0  0  0  0  0
  144.9183   75.1986  218.6912 H   0  0  0  0  0  0  0  0  0  0  0  0
  144.4235   72.4337  218.8356 H   0  0  0  0  0  0  0  0  0  0  0  0
  145.6420   73.4825  219.7830 H   0  0  0  0  0  0  0  0  0  0  0  0
  144.2390   71.7917  221.0025 H   0  0  0  0  0  0  0  0  0  0  0  0
  144.4346   73.5238  221.5943 H   0  0  0  0  0  0  0  0  0  0  0  0
  141.9896   72.0671  220.7065 H   0  0  0  0  0  0  0  0  0  0  0  0
  142.2056   73.3147  221.9655 H   0  0  0  0  0  0  0  0  0  0  0  0
  138.9125   73.7378  218.7852 H   0  0  0  0  0  0  0  0  0  0  0  0
  139.5425   73.2150  220.4839 H   0  0  0  0  0  0  0  0  0  0  0  0
  137.9490   75.4770  219.9480 H   0  0  0  0  0  0  0  0  0  0  0  0
  136.7545   76.0079  221.4585 H   0  0  0  0  0  0  0  0  0  0  0  0
  135.3844   77.8476  222.4088 H   0  0  0  0  0  0  0  0  0  0  0  0
  135.2942   79.9711  223.6251 H   0  0  0  0  0  0  0  0  0  0  0  0
  138.9689   81.7448  224.9547 H   0  0  0  0  0  0  0  0  0  0  0  0
  140.3007   79.8812  223.9896 H   0  0  0  0  0  0  0  0  0  0  0  0
  142.4298   77.8421  222.6853 H   0  0  0  0  0  0  0  0  0  0  0  0
  142.8666   79.2658  224.6627 H   0  0  0  0  0  0  0  0  0  0  0  0
  142.4523   81.7125  224.5299 H   0  0  0  0  0  0  0  0  0  0  0  0
  141.6082   82.7017  222.4260 H   0  0  0  0  0  0  0  0  0  0  0  0
  141.1729   81.2691  220.4638 H   0  0  0  0  0  0  0  0  0  0  0  0
  1  2  1  0
  2  3  1  0
  3  4  1  0
  4  5  2  0
  4  6  1  0
  6  7  1  0
  7  8  1  0
  8  9  1  0
  9 10  1  0
 10 11  1  0
 11 12  1  0
 12 13  2  0
 12 14  1  0
 14 15  1  0
 15 16  1  0
 16 17  2  0
 16 18  1  0
 18 19  2  0
 19 20  1  0
 20 21  2  0
 21 22  1  0
 22 23  2  0
 23 24  1  0
 23 25  1  0
 25 26  2  0
 26 27  1  0
 27 28  2  0
  2 29  1  0
 29 30  2  0
 30 31  1  0
 31 32  2  0
 32 33  1  0
 33 34  2  0
 11  6  1  0
 28 18  1  0
 34 29  1  0
 27 21  1  0
  1 35  1  0
  1 36  1  0
  1 37  1  0
  2 38  1  6
  3 39  1  0
  6 40  1  1
  7 41  1  0
  7 42  1  0
  8 43  1  0
  8 44  1  0
  9 45  1  0
  9 46  1  0
 10 47  1  0
 10 48  1  0
 14 49  1  0
 14 50  1  0
 15 51  1  0
 19 52  1  0
 20 53  1  0
 22 54  1  0
 25 55  1  0
 26 56  1  0
 30 57  1  0
 31 58  1  0
 32 59  1  0
 33 60  1  0
 34 61  1  0
M  END
>  <smiles>  (44) 
C[C@H](NC(=O)C1CCCCN1C(=O)CNC(=O)c1ccc2cc(Cl)ccc2n1)c1ccccc1

>  <score_type>  (44) 
oracle

>  <origin>  (44) 
autodockgpu

>  <m_score__min__energy>  (44) 
-9.5299999999999994

>  <m_primary>  (44) 
energy

>  <rmsd>  (44) 
6.237784368038525

>  <m_score__min__rmsd>  (44) 
6.237784368038525

>  <meeko>  (44) 
{"free_energy": -7.24, "intermolecular_energy": -9.33, "internal_energy": -4.09, "cluster_size": 6, "cluster_id": 10, "rank_in_cluster": 2}

>  <energy>  (44) 
-7.24

>  <cluster_rmsd>  (44) 
1.12

>  <cluster>  (44) 
10

$$$$

     RDKit          3D

 61 64  0  0  1  0  0  0  0  0999 V2000
  142.9200   77.3840  217.8950 C   0  0  0  0  0  0  0  0  0  0  0  0
  142.3370   76.4860  218.9490 C   0  0  2  0  0  0  0  0  0  0  0  0
  142.1340   77.1400  220.2220 N   0  0  0  0  0  0  0  0  0  0  0  0
  141.6570   78.4810  220.3070 C   0  0  0  0  0  0  0  0  0  0  0  0
  141.4170   79.0510  219.2070 O   0  0  0  0  0  0  0  0  0  0  0  0
  141.4390   79.1870  221.5380 C   0  0  2  0  0  0  0  0  0  0  0  0
  142.5800   79.4110  222.4720 C   0  0  0  0  0  0  0  0  0  0  0  0
  142.1160   80.3820  223.4990 C   0  0  0  0  0  0  0  0  0  0  0  0
  140.7070   80.8360  223.4530 C   0  0  0  0  0  0  0  0  0  0  0  0
  139.6820   79.7470  223.1470 C   0  0  0  0  0  0  0  0  0  0  0  0
  140.3710   78.6640  222.4190 N   0  0  0  0  0  0  0  0  0  0  0  0
  140.0880   77.3050  222.5290 C   0  0  0  0  0  0  0  0  0  0  0  0
  141.1330   76.5570  222.7970 O   0  0  0  0  0  0  0  0  0  0  0  0
  138.8560   76.5620  222.4070 C   0  0  0  0  0  0  0  0  0  0  0  0
  138.8670   75.1450  222.3480 N   0  0  0  0  0  0  0  0  0  0  0  0
  139.8230   74.3780  221.5780 C   0  0  0  0  0  0  0  0  0  0  0  0
  140.7170   74.9960  220.9110 O   0  0  0  0  0  0  0  0  0  0  0  0
  139.7520   72.9130  221.5730 C   0  0  0  0  0  0  0  0  0  0  0  0
  140.5110   72.2320  220.6470 C   0  0  0  0  0  0  0  0  0  0  0  0
  140.5020   70.8520  220.5760 C   0  0  0  0  0  0  0  0  0  0  0  0
  139.6970   70.1500  221.4730 C   0  0  0  0  0  0  0  0  0  0  0  0
  139.6570   68.7610  221.4360 C   0  0  0  0  0  0  0  0  0  0  0  0
  138.8490   68.1050  222.3400 C   0  0  0  0  0  0  0  0  0  0  0  0
  138.7720   66.3520  222.3260 Cl  0  0  0  0  0  0  0  0  0  0  0  0
  138.1040   68.8300  223.2520 C   0  0  0  0  0  0  0  0  0  0  0  0
  138.1260   70.2110  223.3080 C   0  0  0  0  0  0  0  0  0  0  0  0
  138.9360   70.8560  222.4020 C   0  0  0  0  0  0  0  0  0  0  0  0
  138.9860   72.2150  222.4240 N   0  0  0  0  0  0  0  0  0  0  0  0
  143.1610   75.2860  219.1820 C   0  0  0  0  0  0  0  0  0  0  0  0
  143.5690   74.4730  218.1440 C   0  0  0  0  0  0  0  0  0  0  0  0
  144.3450   73.3370  218.3470 C   0  0  0  0  0  0  0  0  0  0  0  0
  144.7250   73.0050  219.6270 C   0  0  0  0  0  0  0  0  0  0  0  0
  144.3350   73.7940  220.6810 C   0  0  0  0  0  0  0  0  0  0  0  0
  143.5630   74.9190  220.4580 C   0  0  0  0  0  0  0  0  0  0  0  0
  143.4585   78.2134  218.3768 H   0  0  0  0  0  0  0  0  0  0  0  0
  143.6175   76.8090  217.2682 H   0  0  0  0  0  0  0  0  0  0  0  0
  142.1109   77.7871  217.2682 H   0  0  0  0  0  0  0  0  0  0  0  0
  141.3572   76.1991  218.5394 H   0  0  0  0  0  0  0  0  0  0  0  0
  142.3440   76.5550  221.0770 H   0  0  0  0  0  0  0  0  0  0  0  0
  141.1734   80.1325  221.0426 H   0  0  0  0  0  0  0  0  0  0  0  0
  142.8682   78.4635  222.9507 H   0  0  0  0  0  0  0  0  0  0  0  0
  143.4581   79.7977  221.9340 H   0  0  0  0  0  0  0  0  0  0  0  0
  142.2757   79.9163  224.4826 H   0  0  0  0  0  0  0  0  0  0  0  0
  142.7001   81.2915  223.2948 H   0  0  0  0  0  0  0  0  0  0  0  0
  140.4580   81.2721  224.4317 H   0  0  0  0  0  0  0  0  0  0  0  0
  140.6453   81.5548  222.6226 H   0  0  0  0  0  0  0  0  0  0  0  0
  139.2605   79.3569  224.0851 H   0  0  0  0  0  0  0  0  0  0  0  0
  138.8614   80.1547  222.5385 H   0  0  0  0  0  0  0  0  0  0  0  0
  138.2372   76.8354  223.2744 H   0  0  0  0  0  0  0  0  0  0  0  0
  138.4969   76.8459  221.4068 H   0  0  0  0  0  0  0  0  0  0  0  0
  138.1600   74.5510  222.8760 H   0  0  0  0  0  0  0  0  0  0  0  0
  141.1400   72.8009  219.9465 H   0  0  0  0  0  0  0  0  0  0  0  0
  141.1136   70.3211  219.8316 H   0  0  0  0  0  0  0  0  0  0  0  0
  140.2552   68.1992  220.7035 H   0  0  0  0  0  0  0  0  0  0  0  0
  137.4666   68.2844  223.9633 H   0  0  0  0  0  0  0  0  0  0  0  0
  137.5247   70.7677  224.0418 H   0  0  0  0  0  0  0  0  0  0  0  0
  143.2693   74.7333  217.1181 H   0  0  0  0  0  0  0  0  0  0  0  0
  144.6511   72.7119  217.4952 H   0  0  0  0  0  0  0  0  0  0  0  0
  145.3394   72.1102  219.8055 H   0  0  0  0  0  0  0  0  0  0  0  0
  144.6375   73.5303  221.7052 H   0  0  0  0  0  0  0  0  0  0  0  0
  143.2597   75.5391  221.3144 H   0  0  0  0  0  0  0  0  0  0  0  0
  1  2  1  0
  2  3  1  0
  3  4  1  0
  4  5  2  0
  4  6  1  0
  6  7  1  0
  7  8  1  0
  8  9  1  0
  9 10  1  0
 10 11  1  0
 11 12  1  0
 12 13  2  0
 12 14  1  0
 14 15  1  0
 15 16  1  0
 16 17  2  0
 16 18  1  0
 18 19  2  0
 19 20  1  0
 20 21  2  0
 21 22  1  0
 22 23  2  0
 23 24  1  0
 23 25  1  0
 25 26  2  0
 26 27  1  0
 27 28  2  0
  2 29  1  0
 29 30  2  0
 30 31  1  0
 31 32  2  0
 32 33  1  0
 33 34  2  0
 11  6  1  0
 28 18  1  0
 34 29  1  0
 27 21  1  0
  1 35  1  0
  1 36  1  0
  1 37  1  0
  2 38  1  6
  3 39  1  0
  6 40  1  6
  7 41  1  0
  7 42  1  0
  8 43  1  0
  8 44  1  0
  9 45  1  0
  9 46  1  0
 10 47  1  0
 10 48  1  0
 14 49  1  0
 14 50  1  0
 15 51  1  0
 19 52  1  0
 20 53  1  0
 22 54  1  0
 25 55  1  0
 26 56  1  0
 30 57  1  0
 31 58  1  0
 32 59  1  0
 33 60  1  0
 34 61  1  0
M  END
>  <smiles>  (45) 
C[C@H](NC(=O)C1CCCCN1C(=O)CNC(=O)c1ccc2cc(Cl)ccc2n1)c1ccccc1

>  <score_type>  (45) 
oracle

>  <origin>  (45) 
autodockgpu

>  <m_score__min__energy>  (45) 
-9.5299999999999994

>  <m_primary>  (45) 
energy

>  <rmsd>  (45) 
5.983730974114732

>  <m_score__min__rmsd>  (45) 
5.983730974114732

>  <meeko>  (45) 
{"free_energy": -7.4, "intermolecular_energy": -9.49, "internal_energy": -3.46, "cluster_size": 1, "cluster_id": 8, "rank_in_cluster": 1}

>  <energy>  (45) 
-7.19

>  <cluster_rmsd>  (45) 
1.07

>  <cluster>  (45) 
10

$$$$

     RDKit          3D

 61 64  0  0  1  0  0  0  0  0999 V2000
  141.7040   76.8460  220.1990 C   0  0  0  0  0  0  0  0  0  0  0  0
  140.9800   77.1420  221.4810 C   0  0  2  0  0  0  0  0  0  0  0  0
  139.5470   77.2440  221.3290 N   0  0  0  0  0  0  0  0  0  0  0  0
  138.6540   76.3980  222.0500 C   0  0  0  0  0  0  0  0  0  0  0  0
  139.1940   75.5670  222.8320 O   0  0  0  0  0  0  0  0  0  0  0  0
  137.2230   76.4450  221.9400 C   0  0  2  0  0  0  0  0  0  0  0  0
  136.3850   76.3250  223.1670 C   0  0  0  0  0  0  0  0  0  0  0  0
  134.9920   76.6760  222.7780 C   0  0  0  0  0  0  0  0  0  0  0  0
  134.7130   76.9700  221.3530 C   0  0  0  0  0  0  0  0  0  0  0  0
  135.4050   76.0490  220.3510 C   0  0  0  0  0  0  0  0  0  0  0  0
  136.6020   75.4830  221.0020 N   0  0  0  0  0  0  0  0  0  0  0  0
  137.1090   74.2020  220.7960 C   0  0  0  0  0  0  0  0  0  0  0  0
  136.2010   73.3090  220.4790 O   0  0  0  0  0  0  0  0  0  0  0  0
  138.4500   73.6720  220.8640 C   0  0  0  0  0  0  0  0  0  0  0  0
  138.9340   73.0760  222.0570 N   0  0  0  0  0  0  0  0  0  0  0  0
  139.0940   71.6490  222.2380 C   0  0  0  0  0  0  0  0  0  0  0  0
  138.7910   70.8670  221.2780 O   0  0  0  0  0  0  0  0  0  0  0  0
  139.5970   71.1250  223.5110 C   0  0  0  0  0  0  0  0  0  0  0  0
  140.4300   71.9290  224.2580 C   0  0  0  0  0  0  0  0  0  0  0  0
  140.9470   71.5110  225.4700 C   0  0  0  0  0  0  0  0  0  0  0  0
  140.6050   70.2400  225.9300 C   0  0  0  0  0  0  0  0  0  0  0  0
  141.1040   69.7790  227.1430 C   0  0  0  0  0  0  0  0  0  0  0  0
  140.7410   68.5170  227.5620 C   0  0  0  0  0  0  0  0  0  0  0  0
  141.3490   67.9000  229.0880 Cl  0  0  0  0  0  0  0  0  0  0  0  0
  139.9030   67.7440  226.7790 C   0  0  0  0  0  0  0  0  0  0  0  0
  139.3950   68.1790  225.5700 C   0  0  0  0  0  0  0  0  0  0  0  0
  139.7630   69.4400  225.1610 C   0  0  0  0  0  0  0  0  0  0  0  0
  139.2840   69.9070  223.9760 N   0  0  0  0  0  0  0  0  0  0  0  0
  141.4580   78.3800  222.1230 C   0  0  0  0  0  0  0  0  0  0  0  0
  141.6440   78.4660  223.4870 C   0  0  0  0  0  0  0  0  0  0  0  0
  142.0930   79.6260  224.1070 C   0  0  0  0  0  0  0  0  0  0  0  0
  142.3650   80.7340  223.3390 C   0  0  0  0  0  0  0  0  0  0  0  0
  142.1910   80.6810  221.9780 C   0  0  0  0  0  0  0  0  0  0  0  0
  141.7430   79.5170  221.3810 C   0  0  0  0  0  0  0  0  0  0  0  0
  142.7002   76.4387  220.4262 H   0  0  0  0  0  0  0  0  0  0  0  0
  141.1311   76.1099  219.6159 H   0  0  0  0  0  0  0  0  0  0  0  0
  141.8109   77.7726  219.6159 H   0  0  0  0  0  0  0  0  0  0  0  0
  141.2058   76.2740  222.1179 H   0  0  0  0  0  0  0  0  0  0  0  0
  139.2080   77.9930  220.6650 H   0  0  0  0  0  0  0  0  0  0  0  0
  137.2028   77.4835  221.5780 H   0  0  0  0  0  0  0  0  0  0  0  0
  136.4220   75.2947  223.5506 H   0  0  0  0  0  0  0  0  0  0  0  0
  136.7516   76.9935  223.9599 H   0  0  0  0  0  0  0  0  0  0  0  0
  134.3503   75.8308  223.0677 H   0  0  0  0  0  0  0  0  0  0  0  0
  134.7979   77.6277  223.2943 H   0  0  0  0  0  0  0  0  0  0  0  0
  133.6273   76.8897  221.1953 H   0  0  0  0  0  0  0  0  0  0  0  0
  135.1112   77.9782  221.1660 H   0  0  0  0  0  0  0  0  0  0  0  0
  134.7223   75.2385  220.0559 H   0  0  0  0  0  0  0  0  0  0  0  0
  135.6904   76.6112  219.4496 H   0  0  0  0  0  0  0  0  0  0  0  0
  138.5255   72.9067  220.0775 H   0  0  0  0  0  0  0  0  0  0  0  0
  139.0745   74.5726  220.7692 H   0  0  0  0  0  0  0  0  0  0  0  0
  139.2130   73.6550  222.9050 H   0  0  0  0  0  0  0  0  0  0  0  0
  140.6902   72.9288  223.8804 H   0  0  0  0  0  0  0  0  0  0  0  0
  141.6106   72.1638  226.0560 H   0  0  0  0  0  0  0  0  0  0  0  0
  141.7715   70.4055  227.7529 H   0  0  0  0  0  0  0  0  0  0  0  0
  139.6291   66.7396  227.1341 H   0  0  0  0  0  0  0  0  0  0  0  0
  138.7286   67.5477  224.9639 H   0  0  0  0  0  0  0  0  0  0  0  0
  141.4289   77.5834  224.1073 H   0  0  0  0  0  0  0  0  0  0  0  0
  142.2291   79.6575  225.1981 H   0  0  0  0  0  0  0  0  0  0  0  0
  142.7210   81.6602  223.8138 H   0  0  0  0  0  0  0  0  0  0  0  0
  142.4083   81.5658  221.3617 H   0  0  0  0  0  0  0  0  0  0  0  0
  141.6091   79.4919  220.2895 H   0  0  0  0  0  0  0  0  0  0  0  0
  1  2  1  0
  2  3  1  0
  3  4  1  0
  4  5  2  0
  4  6  1  0
  6  7  1  0
  7  8  1  0
  8  9  1  0
  9 10  1  0
 10 11  1  0
 11 12  1  0
 12 13  2  0
 12 14  1  0
 14 15  1  0
 15 16  1  0
 16 17  2  0
 16 18  1  0
 18 19  2  0
 19 20  1  0
 20 21  2  0
 21 22  1  0
 22 23  2  0
 23 24  1  0
 23 25  1  0
 25 26  2  0
 26 27  1  0
 27 28  2  0
  2 29  1  0
 29 30  2  0
 30 31  1  0
 31 32  2  0
 32 33  1  0
 33 34  2  0
 11  6  1  0
 28 18  1  0
 34 29  1  0
 27 21  1  0
  1 35  1  0
  1 36  1  0
  1 37  1  0
  2 38  1  1
  3 39  1  0
  6 40  1  6
  7 41  1  0
  7 42  1  0
  8 43  1  0
  8 44  1  0
  9 45  1  0
  9 46  1  0
 10 47  1  0
 10 48  1  0
 14 49  1  0
 14 50  1  0
 15 51  1  0
 19 52  1  0
 20 53  1  0
 22 54  1  0
 25 55  1  0
 26 56  1  0
 30 57  1  0
 31 58  1  0
 32 59  1  0
 33 60  1  0
 34 61  1  0
M  END
>  <smiles>  (46) 
C[C@H](NC(=O)C1CCCCN1C(=O)CNC(=O)c1ccc2cc(Cl)ccc2n1)c1ccccc1

>  <score_type>  (46) 
oracle

>  <origin>  (46) 
autodockgpu

>  <m_score__min__energy>  (46) 
-9.5299999999999994

>  <m_primary>  (46) 
energy

>  <rmsd>  (46) 
4.112376917883474

>  <m_score__min__rmsd>  (46) 
4.112376917883474

>  <meeko>  (46) 
{"free_energy": -8.55, "intermolecular_energy": -10.64, "internal_energy": -2.25, "cluster_size": 5, "cluster_id": 4, "rank_in_cluster": 2}

>  <energy>  (46) 
-7.18

>  <cluster_rmsd>  (46) 
0.97

>  <cluster>  (46) 
10

$$$$

     RDKit          3D

 61 64  0  0  1  0  0  0  0  0999 V2000
  140.4380   79.5140  219.7240 C   0  0  0  0  0  0  0  0  0  0  0  0
  141.8250   79.3290  220.2690 C   0  0  2  0  0  0  0  0  0  0  0  0
  142.1740   77.9480  220.5120 N   0  0  0  0  0  0  0  0  0  0  0  0
  142.5760   77.0790  219.4560 C   0  0  0  0  0  0  0  0  0  0  0  0
  142.6160   77.5940  218.3040 O   0  0  0  0  0  0  0  0  0  0  0  0
  142.9300   75.6980  219.6310 C   0  0  2  0  0  0  0  0  0  0  0  0
  143.6380   74.9740  218.5360 C   0  0  0  0  0  0  0  0  0  0  0  0
  144.1010   73.6780  219.1020 C   0  0  0  0  0  0  0  0  0  0  0  0
  143.7290   73.3460  220.4960 C   0  0  0  0  0  0  0  0  0  0  0  0
  142.2960   73.6970  220.8890 C   0  0  0  0  0  0  0  0  0  0  0  0
  141.8310   74.7780  219.9980 N   0  0  0  0  0  0  0  0  0  0  0  0
  140.5300   74.9370  219.5280 C   0  0  0  0  0  0  0  0  0  0  0  0
  140.4400   75.0770  218.2260 O   0  0  0  0  0  0  0  0  0  0  0  0
  139.2560   74.9750  220.2070 C   0  0  0  0  0  0  0  0  0  0  0  0
  138.8620   76.1200  220.9450 N   0  0  0  0  0  0  0  0  0  0  0  0
  139.6480   76.7010  222.0120 C   0  0  0  0  0  0  0  0  0  0  0  0
  140.7640   76.1670  222.3180 O   0  0  0  0  0  0  0  0  0  0  0  0
  139.1540   77.8850  222.7230 C   0  0  0  0  0  0  0  0  0  0  0  0
  140.0550   78.6120  223.4710 C   0  0  0  0  0  0  0  0  0  0  0  0
  139.6720   79.7410  224.1700 C   0  0  0  0  0  0  0  0  0  0  0  0
  138.3370   80.1360  224.1050 C   0  0  0  0  0  0  0  0  0  0  0  0
  137.9080   81.2660  224.7940 C   0  0  0  0  0  0  0  0  0  0  0  0
  136.5800   81.6230  224.7020 C   0  0  0  0  0  0  0  0  0  0  0  0
  136.0010   83.0420  225.5560 Cl  0  0  0  0  0  0  0  0  0  0  0  0
  135.7120   80.8640  223.9390 C   0  0  0  0  0  0  0  0  0  0  0  0
  136.1130   79.7380  223.2460 C   0  0  0  0  0  0  0  0  0  0  0  0
  137.4400   79.3890  223.3440 C   0  0  0  0  0  0  0  0  0  0  0  0
  137.8760   78.2860  222.6760 N   0  0  0  0  0  0  0  0  0  0  0  0
  142.0430   80.0800  221.5180 C   0  0  0  0  0  0  0  0  0  0  0  0
  141.4240   81.2900  221.7560 C   0  0  0  0  0  0  0  0  0  0  0  0
  141.6200   82.0100  222.9280 C   0  0  0  0  0  0  0  0  0  0  0  0
  142.4600   81.5040  223.8930 C   0  0  0  0  0  0  0  0  0  0  0  0
  143.0910   80.3020  223.6880 C   0  0  0  0  0  0  0  0  0  0  0  0
  142.8830   79.6010  222.5140 C   0  0  0  0  0  0  0  0  0  0  0  0
  139.7263   79.6089  220.5573 H   0  0  0  0  0  0  0  0  0  0  0  0
  140.4046   80.4246  219.1077 H   0  0  0  0  0  0  0  0  0  0  0  0
  140.1671   78.6440  219.1077 H   0  0  0  0  0  0  0  0  0  0  0  0
  142.4756   79.7222  219.4739 H   0  0  0  0  0  0  0  0  0  0  0  0
  142.1280   77.6340  221.5200 H   0  0  0  0  0  0  0  0  0  0  0  0
  143.6290   75.8961  220.4569 H   0  0  0  0  0  0  0  0  0  0  0  0
  142.9516   74.7957  217.6951 H   0  0  0  0  0  0  0  0  0  0  0  0
  144.4864   75.5639  218.1588 H   0  0  0  0  0  0  0  0  0  0  0  0
  143.6996   72.8805  218.4595 H   0  0  0  0  0  0  0  0  0  0  0  0
  145.1968   73.7706  219.1291 H   0  0  0  0  0  0  0  0  0  0  0  0
  143.8643   72.2633  220.6354 H   0  0  0  0  0  0  0  0  0  0  0  0
  144.3796   73.9572  221.1387 H   0  0  0  0  0  0  0  0  0  0  0  0
  141.6502   72.8141  220.7734 H   0  0  0  0  0  0  0  0  0  0  0  0
  142.2564   74.0232  221.9388 H   0  0  0  0  0  0  0  0  0  0  0  0
  138.4855   74.8166  219.4381 H   0  0  0  0  0  0  0  0  0  0  0  0
  139.3716   74.2085  220.9875 H   0  0  0  0  0  0  0  0  0  0  0  0
  137.9480   76.6290  220.7530 H   0  0  0  0  0  0  0  0  0  0  0  0
  141.1046   78.2856  223.5126 H   0  0  0  0  0  0  0  0  0  0  0  0
  140.4016   80.3128  224.7621 H   0  0  0  0  0  0  0  0  0  0  0  0
  138.6110   81.8595  225.3970 H   0  0  0  0  0  0  0  0  0  0  0  0
  134.6569   81.1697  223.8812 H   0  0  0  0  0  0  0  0  0  0  0  0
  135.4050   79.1488  222.6447 H   0  0  0  0  0  0  0  0  0  0  0  0
  140.7502   81.6999  220.9892 H   0  0  0  0  0  0  0  0  0  0  0  0
  141.1101   82.9724  223.0824 H   0  0  0  0  0  0  0  0  0  0  0  0
  142.6257   82.0613  224.8268 H   0  0  0  0  0  0  0  0  0  0  0  0
  143.7629   79.8959  224.4585 H   0  0  0  0  0  0  0  0  0  0  0  0
  143.3962   78.6394  222.3658 H   0  0  0  0  0  0  0  0  0  0  0  0
  1  2  1  0
  2  3  1  0
  3  4  1  0
  4  5  2  0
  4  6  1  0
  6  7  1  0
  7  8  1  0
  8  9  1  0
  9 10  1  0
 10 11  1  0
 11 12  1  0
 12 13  2  0
 12 14  1  0
 14 15  1  0
 15 16  1  0
 16 17  2  0
 16 18  1  0
 18 19  2  0
 19 20  1  0
 20 21  2  0
 21 22  1  0
 22 23  2  0
 23 24  1  0
 23 25  1  0
 25 26  2  0
 26 27  1  0
 27 28  2  0
  2 29  1  0
 29 30  2  0
 30 31  1  0
 31 32  2  0
 32 33  1  0
 33 34  2  0
 11  6  1  0
 28 18  1  0
 34 29  1  0
 27 21  1  0
  1 35  1  0
  1 36  1  0
  1 37  1  0
  2 38  1  6
  3 39  1  0
  6 40  1  1
  7 41  1  0
  7 42  1  0
  8 43  1  0
  8 44  1  0
  9 45  1  0
  9 46  1  0
 10 47  1  0
 10 48  1  0
 14 49  1  0
 14 50  1  0
 15 51  1  0
 19 52  1  0
 20 53  1  0
 22 54  1  0
 25 55  1  0
 26 56  1  0
 30 57  1  0
 31 58  1  0
 32 59  1  0
 33 60  1  0
 34 61  1  0
M  END
>  <smiles>  (47) 
C[C@H](NC(=O)C1CCCCN1C(=O)CNC(=O)c1ccc2cc(Cl)ccc2n1)c1ccccc1

>  <score_type>  (47) 
oracle

>  <origin>  (47) 
autodockgpu

>  <m_score__min__energy>  (47) 
-9.5299999999999994

>  <m_primary>  (47) 
energy

>  <rmsd>  (47) 
6.696437766312765

>  <m_score__min__rmsd>  (47) 
6.696437766312765

>  <meeko>  (47) 
{"free_energy": -6.96, "intermolecular_energy": -9.05, "internal_energy": -4.17, "cluster_size": 6, "cluster_id": 10, "rank_in_cluster": 6}

>  <energy>  (47) 
-7.01

>  <cluster_rmsd>  (47) 
1.05

>  <cluster>  (47) 
10

$$$$

     RDKit          3D

 61 64  0  0  1  0  0  0  0  0999 V2000
  140.4500   78.9780  219.5730 C   0  0  0  0  0  0  0  0  0  0  0  0
  141.7580   78.8370  220.2980 C   0  0  2  0  0  0  0  0  0  0  0  0
  142.1950   77.4670  220.4480 N   0  0  0  0  0  0  0  0  0  0  0  0
  142.8010   76.7520  219.3740 C   0  0  0  0  0  0  0  0  0  0  0  0
  142.9390   77.3920  218.2940 O   0  0  0  0  0  0  0  0  0  0  0  0
  143.2500   75.3910  219.4570 C   0  0  2  0  0  0  0  0  0  0  0  0
  143.6850   74.6810  218.2190 C   0  0  0  0  0  0  0  0  0  0  0  0
  144.3370   73.4150  218.6520 C   0  0  0  0  0  0  0  0  0  0  0  0
  144.3520   73.0890  220.0970 C   0  0  0  0  0  0  0  0  0  0  0  0
  143.0540   73.3840  220.8440 C   0  0  0  0  0  0  0  0  0  0  0  0
  142.3260   74.4290  220.0990 N   0  0  0  0  0  0  0  0  0  0  0  0
  140.9420   74.5250  219.9800 C   0  0  0  0  0  0  0  0  0  0  0  0
  140.5140   74.6560  218.7460 O   0  0  0  0  0  0  0  0  0  0  0  0
  139.8840   74.5040  220.9630 C   0  0  0  0  0  0  0  0  0  0  0  0
  139.9300   73.6030  222.0570 N   0  0  0  0  0  0  0  0  0  0  0  0
  140.0460   72.1670  221.9150 C   0  0  0  0  0  0  0  0  0  0  0  0
  140.1150   71.6660  220.7440 O   0  0  0  0  0  0  0  0  0  0  0  0
  140.0800   71.3140  223.1070 C   0  0  0  0  0  0  0  0  0  0  0  0
  139.5840   70.0330  223.0000 C   0  0  0  0  0  0  0  0  0  0  0  0
  139.5800   69.1650  224.0750 C   0  0  0  0  0  0  0  0  0  0  0  0
  140.0940   69.6170  225.2900 C   0  0  0  0  0  0  0  0  0  0  0  0
  140.1080   68.7760  226.3980 C   0  0  0  0  0  0  0  0  0  0  0  0
  140.6260   69.2610  227.5800 C   0  0  0  0  0  0  0  0  0  0  0  0
  140.6620   68.2310  229.0000 Cl  0  0  0  0  0  0  0  0  0  0  0  0
  141.1130   70.5540  227.6410 C   0  0  0  0  0  0  0  0  0  0  0  0
  141.1090   71.4080  226.5550 C   0  0  0  0  0  0  0  0  0  0  0  0
  140.5900   70.9150  225.3800 C   0  0  0  0  0  0  0  0  0  0  0  0
  140.5690   71.7240  224.2860 N   0  0  0  0  0  0  0  0  0  0  0  0
  141.7270   79.4530  221.6360 C   0  0  0  0  0  0  0  0  0  0  0  0
  142.7190   80.3120  222.0640 C   0  0  0  0  0  0  0  0  0  0  0  0
  142.7050   80.9000  223.3230 C   0  0  0  0  0  0  0  0  0  0  0  0
  141.6670   80.6220  224.1810 C   0  0  0  0  0  0  0  0  0  0  0  0
  140.6640   79.7720  223.7860 C   0  0  0  0  0  0  0  0  0  0  0  0
  140.6970   79.1960  222.5290 C   0  0  0  0  0  0  0  0  0  0  0  0
  139.6330   79.0661  220.3043 H   0  0  0  0  0  0  0  0  0  0  0  0
  140.4758   79.8786  218.9419 H   0  0  0  0  0  0  0  0  0  0  0  0
  140.2833   78.0926  218.9419 H   0  0  0  0  0  0  0  0  0  0  0  0
  142.4753   79.3670  219.6541 H   0  0  0  0  0  0  0  0  0  0  0  0
  142.0500   77.0420  221.4040 H   0  0  0  0  0  0  0  0  0  0  0  0
  144.1278   75.6326  220.0743 H   0  0  0  0  0  0  0  0  0  0  0  0
  142.8143   74.4600  217.5841 H   0  0  0  0  0  0  0  0  0  0  0  0
  144.3798   75.3010  217.6335 H   0  0  0  0  0  0  0  0  0  0  0  0
  143.8207   72.5909  218.1380 H   0  0  0  0  0  0  0  0  0  0  0  0
  145.3974   73.5553  218.3953 H   0  0  0  0  0  0  0  0  0  0  0  0
  144.5681   72.0155  220.2013 H   0  0  0  0  0  0  0  0  0  0  0  0
  145.1175   73.7375  220.5480 H   0  0  0  0  0  0  0  0  0  0  0  0
  142.4416   72.4721  220.9025 H   0  0  0  0  0  0  0  0  0  0  0  0
  143.2711   73.7253  221.8669 H   0  0  0  0  0  0  0  0  0  0  0  0
  139.8330   75.5159  221.3913 H   0  0  0  0  0  0  0  0  0  0  0  0
  139.0198   74.1443  220.3853 H   0  0  0  0  0  0  0  0  0  0  0  0
  139.8820   73.9360  223.0660 H   0  0  0  0  0  0  0  0  0  0  0  0
  139.1811   69.6928  222.0346 H   0  0  0  0  0  0  0  0  0  0  0  0
  139.1819   68.1444  223.9751 H   0  0  0  0  0  0  0  0  0  0  0  0
  139.7158   67.7504  226.3327 H   0  0  0  0  0  0  0  0  0  0  0  0
  141.5211   70.9182  228.5954 H   0  0  0  0  0  0  0  0  0  0  0  0
  141.5019   72.4330  226.6263 H   0  0  0  0  0  0  0  0  0  0  0  0
  143.5521   80.5397  221.3828 H   0  0  0  0  0  0  0  0  0  0  0  0
  143.5141   81.5793  223.6294 H   0  0  0  0  0  0  0  0  0  0  0  0
  141.6404   81.0794  225.1810 H   0  0  0  0  0  0  0  0  0  0  0  0
  139.8324   79.5486  224.4705 H   0  0  0  0  0  0  0  0  0  0  0  0
  139.8855   78.5165  222.2296 H   0  0  0  0  0  0  0  0  0  0  0  0
  1  2  1  0
  2  3  1  0
  3  4  1  0
  4  5  2  0
  4  6  1  0
  6  7  1  0
  7  8  1  0
  8  9  1  0
  9 10  1  0
 10 11  1  0
 11 12  1  0
 12 13  2  0
 12 14  1  0
 14 15  1  0
 15 16  1  0
 16 17  2  0
 16 18  1  0
 18 19  2  0
 19 20  1  0
 20 21  2  0
 21 22  1  0
 22 23  2  0
 23 24  1  0
 23 25  1  0
 25 26  2  0
 26 27  1  0
 27 28  2  0
  2 29  1  0
 29 30  2  0
 30 31  1  0
 31 32  2  0
 32 33  1  0
 33 34  2  0
 11  6  1  0
 28 18  1  0
 34 29  1  0
 27 21  1  0
  1 35  1  0
  1 36  1  0
  1 37  1  0
  2 38  1  6
  3 39  1  0
  6 40  1  1
  7 41  1  0
  7 42  1  0
  8 43  1  0
  8 44  1  0
  9 45  1  0
  9 46  1  0
 10 47  1  0
 10 48  1  0
 14 49  1  0
 14 50  1  0
 15 51  1  0
 19 52  1  0
 20 53  1  0
 22 54  1  0
 25 55  1  0
 26 56  1  0
 30 57  1  0
 31 58  1  0
 32 59  1  0
 33 60  1  0
 34 61  1  0
M  END
>  <smiles>  (48) 
C[C@H](NC(=O)C1CCCCN1C(=O)CNC(=O)c1ccc2cc(Cl)ccc2n1)c1ccccc1

>  <score_type>  (48) 
oracle

>  <origin>  (48) 
autodockgpu

>  <m_score__min__energy>  (48) 
-9.5299999999999994

>  <m_primary>  (48) 
energy

>  <rmsd>  (48) 
3.273560123773284

>  <m_score__min__rmsd>  (48) 
3.273560123773284

>  <meeko>  (48) 
{"free_energy": -9.06, "intermolecular_energy": -11.14, "internal_energy": -2.18, "cluster_size": 13, "cluster_id": 1, "rank_in_cluster": 8}

>  <energy>  (48) 
-6.96

>  <cluster_rmsd>  (48) 
1.31

>  <cluster>  (48) 
10

$$$$

     RDKit          3D

 61 64  0  0  1  0  0  0  0  0999 V2000
  141.7900   78.0360  220.3470 C   0  0  0  0  0  0  0  0  0  0  0  0
  141.1840   78.0160  221.7220 C   0  0  2  0  0  0  0  0  0  0  0  0
  139.7410   77.9330  221.7190 N   0  0  0  0  0  0  0  0  0  0  0  0
  139.0540   76.8030  222.2510 C   0  0  0  0  0  0  0  0  0  0  0  0
  139.7840   75.8900  222.7290 O   0  0  0  0  0  0  0  0  0  0  0  0
  137.6260   76.6580  222.2730 C   0  0  2  0  0  0  0  0  0  0  0  0
  136.9700   76.0030  223.4410 C   0  0  0  0  0  0  0  0  0  0  0  0
  135.5070   76.2400  223.3060 C   0  0  0  0  0  0  0  0  0  0  0  0
  135.0170   76.9450  222.0990 C   0  0  0  0  0  0  0  0  0  0  0  0
  135.6840   76.5330  220.7890 C   0  0  0  0  0  0  0  0  0  0  0  0
  137.0140   75.9790  221.1090 N   0  0  0  0  0  0  0  0  0  0  0  0
  137.6430   74.9370  220.4310 C   0  0  0  0  0  0  0  0  0  0  0  0
  136.9510   74.4520  219.4270 O   0  0  0  0  0  0  0  0  0  0  0  0
  138.9200   74.2910  220.6260 C   0  0  0  0  0  0  0  0  0  0  0  0
  139.1380   73.4390  221.7380 N   0  0  0  0  0  0  0  0  0  0  0  0
  139.2440   71.9990  221.6420 C   0  0  0  0  0  0  0  0  0  0  0  0
  139.1400   71.4470  220.4980 O   0  0  0  0  0  0  0  0  0  0  0  0
  139.4650   71.1990  222.8520 C   0  0  0  0  0  0  0  0  0  0  0  0
  139.0270   69.8930  222.8520 C   0  0  0  0  0  0  0  0  0  0  0  0
  139.1970   69.0720  223.9510 C   0  0  0  0  0  0  0  0  0  0  0  0
  139.8290   69.5980  225.0760 C   0  0  0  0  0  0  0  0  0  0  0  0
  140.0200   68.8070  226.2040 C   0  0  0  0  0  0  0  0  0  0  0  0
  140.6500   69.3650  227.2960 C   0  0  0  0  0  0  0  0  0  0  0  0
  140.9100   68.3990  228.7370 Cl  0  0  0  0  0  0  0  0  0  0  0  0
  141.0730   70.6810  227.2510 C   0  0  0  0  0  0  0  0  0  0  0  0
  140.8940   71.4870  226.1430 C   0  0  0  0  0  0  0  0  0  0  0  0
  140.2650   70.9210  225.0580 C   0  0  0  0  0  0  0  0  0  0  0  0
  140.0700   71.6820  223.9470 N   0  0  0  0  0  0  0  0  0  0  0  0
  141.5700   79.1920  222.5230 C   0  0  0  0  0  0  0  0  0  0  0  0
  142.8880   79.4600  222.8300 C   0  0  0  0  0  0  0  0  0  0  0  0
  143.2690   80.5640  223.5850 C   0  0  0  0  0  0  0  0  0  0  0  0
  142.3010   81.4260  224.0450 C   0  0  0  0  0  0  0  0  0  0  0  0
  140.9800   81.1870  223.7560 C   0  0  0  0  0  0  0  0  0  0  0  0
  140.6230   80.0830  223.0040 C   0  0  0  0  0  0  0  0  0  0  0  0
  142.8863   78.0722  220.4299 H   0  0  0  0  0  0  0  0  0  0  0  0
  141.4933   77.1276  219.8023 H   0  0  0  0  0  0  0  0  0  0  0  0
  141.4340   78.9229  219.8023 H   0  0  0  0  0  0  0  0  0  0  0  0
  141.5892   77.0998  222.1764 H   0  0  0  0  0  0  0  0  0  0  0  0
  139.2350   78.7680  221.3150 H   0  0  0  0  0  0  0  0  0  0  0  0
  137.4340   77.7408  222.2981 H   0  0  0  0  0  0  0  0  0  0  0  0
  137.1801   74.9233  223.4361 H   0  0  0  0  0  0  0  0  0  0  0  0
  137.3494   76.4157  224.3874 H   0  0  0  0  0  0  0  0  0  0  0  0
  135.0144   75.2568  223.3310 H   0  0  0  0  0  0  0  0  0  0  0  0
  135.2655   76.9219  224.1347 H   0  0  0  0  0  0  0  0  0  0  0  0
  133.9380   76.7519  222.0068 H   0  0  0  0  0  0  0  0  0  0  0  0
  135.2627   78.0072  222.2454 H   0  0  0  0  0  0  0  0  0  0  0  0
  135.0738   75.7703  220.2831 H   0  0  0  0  0  0  0  0  0  0  0  0
  135.7823   77.4011  220.1207 H   0  0  0  0  0  0  0  0  0  0  0  0
  139.1072   73.6869  219.7260 H   0  0  0  0  0  0  0  0  0  0  0  0
  139.5938   75.1364  220.8291 H   0  0  0  0  0  0  0  0  0  0  0  0
  139.2400   73.8160  222.7280 H   0  0  0  0  0  0  0  0  0  0  0  0
  138.5299   69.4937  221.9557 H   0  0  0  0  0  0  0  0  0  0  0  0
  138.8427   68.0307  223.9378 H   0  0  0  0  0  0  0  0  0  0  0  0
  139.6769   67.7621  226.2243 H   0  0  0  0  0  0  0  0  0  0  0  0
  141.5731   71.1040  228.1347 H   0  0  0  0  0  0  0  0  0  0  0  0
  141.2381   72.5317  226.1290 H   0  0  0  0  0  0  0  0  0  0  0  0
  143.6667   78.7748  222.4639 H   0  0  0  0  0  0  0  0  0  0  0  0
  144.3301   80.7454  223.8112 H   0  0  0  0  0  0  0  0  0  0  0  0
  142.5843   82.3047  224.6429 H   0  0  0  0  0  0  0  0  0  0  0  0
  140.2044   81.8751  224.1234 H   0  0  0  0  0  0  0  0  0  0  0  0
  139.5602   79.9071  222.7816 H   0  0  0  0  0  0  0  0  0  0  0  0
  1  2  1  0
  2  3  1  0
  3  4  1  0
  4  5  2  0
  4  6  1  0
  6  7  1  0
  7  8  1  0
  8  9  1  0
  9 10  1  0
 10 11  1  0
 11 12  1  0
 12 13  2  0
 12 14  1  0
 14 15  1  0
 15 16  1  0
 16 17  2  0
 16 18  1  0
 18 19  2  0
 19 20  1  0
 20 21  2  0
 21 22  1  0
 22 23  2  0
 23 24  1  0
 23 25  1  0
 25 26  2  0
 26 27  1  0
 27 28  2  0
  2 29  1  0
 29 30  2  0
 30 31  1  0
 31 32  2  0
 32 33  1  0
 33 34  2  0
 11  6  1  0
 28 18  1  0
 34 29  1  0
 27 21  1  0
  1 35  1  0
  1 36  1  0
  1 37  1  0
  2 38  1  1
  3 39  1  0
  6 40  1  6
  7 41  1  0
  7 42  1  0
  8 43  1  0
  8 44  1  0
  9 45  1  0
  9 46  1  0
 10 47  1  0
 10 48  1  0
 14 49  1  0
 14 50  1  0
 15 51  1  0
 19 52  1  0
 20 53  1  0
 22 54  1  0
 25 55  1  0
 26 56  1  0
 30 57  1  0
 31 58  1  0
 32 59  1  0
 33 60  1  0
 34 61  1  0
M  END
>  <smiles>  (49) 
C[C@H](NC(=O)C1CCCCN1C(=O)CNC(=O)c1ccc2cc(Cl)ccc2n1)c1ccccc1

>  <score_type>  (49) 
oracle

>  <origin>  (49) 
autodockgpu

>  <m_score__min__energy>  (49) 
-9.5299999999999994

>  <m_primary>  (49) 
energy

>  <rmsd>  (49) 
3.7399632932033486

>  <m_score__min__rmsd>  (49) 
3.7399632932033486

>  <meeko>  (49) 
{"free_energy": -8.84, "intermolecular_energy": -10.93, "internal_energy": -2.47, "cluster_size": 5, "cluster_id": 4, "rank_in_cluster": 1}

>  <energy>  (49) 
-7.18

>  <cluster_rmsd>  (49) 
0.0

>  <cluster>  (49) 
11

$$$$

     RDKit          3D

 61 64  0  0  1  0  0  0  0  0999 V2000
  141.9350   79.0010  223.5600 C   0  0  0  0  0  0  0  0  0  0  0  0
  141.0930   77.9060  222.9700 C   0  0  2  0  0  0  0  0  0  0  0  0
  141.4790   77.5370  221.6270 N   0  0  0  0  0  0  0  0  0  0  0  0
  141.4020   78.4600  220.5440 C   0  0  0  0  0  0  0  0  0  0  0  0
  140.9850   79.6160  220.8340 O   0  0  0  0  0  0  0  0  0  0  0  0
  141.7650   78.1530  219.1890 C   0  0  2  0  0  0  0  0  0  0  0  0
  140.7810   78.3840  218.0920 C   0  0  0  0  0  0  0  0  0  0  0  0
  141.5200   78.2370  216.8080 C   0  0  0  0  0  0  0  0  0  0  0  0
  142.9460   77.8420  216.8590 C   0  0  0  0  0  0  0  0  0  0  0  0
  143.2850   76.7550  217.8760 C   0  0  0  0  0  0  0  0  0  0  0  0
  142.2530   76.7800  218.9310 N   0  0  0  0  0  0  0  0  0  0  0  0
  141.7640   75.6690  219.6140 C   0  0  0  0  0  0  0  0  0  0  0  0
  142.5600   75.2220  220.5570 O   0  0  0  0  0  0  0  0  0  0  0  0
  140.5390   74.9160  219.4800 C   0  0  0  0  0  0  0  0  0  0  0  0
  140.2860   73.7920  220.3060 N   0  0  0  0  0  0  0  0  0  0  0  0
  140.3140   73.8310  221.7520 C   0  0  0  0  0  0  0  0  0  0  0  0
  140.5760   74.9340  222.3350 O   0  0  0  0  0  0  0  0  0  0  0  0
  140.0450   72.6130  222.5230 C   0  0  0  0  0  0  0  0  0  0  0  0
  139.0570   71.7660  222.0690 C   0  0  0  0  0  0  0  0  0  0  0  0
  138.7420   70.5970  222.7360 C   0  0  0  0  0  0  0  0  0  0  0  0
  139.4510   70.2870  223.8960 C   0  0  0  0  0  0  0  0  0  0  0  0
  139.1650   69.1220  224.5990 C   0  0  0  0  0  0  0  0  0  0  0  0
  139.8900   68.8520  225.7400 C   0  0  0  0  0  0  0  0  0  0  0  0
  139.5590   67.3910  226.6540 Cl  0  0  0  0  0  0  0  0  0  0  0  0
  140.8710   69.7310  226.1580 C   0  0  0  0  0  0  0  0  0  0  0  0
  141.1730   70.8950  225.4780 C   0  0  0  0  0  0  0  0  0  0  0  0
  140.4450   71.1560  224.3400 C   0  0  0  0  0  0  0  0  0  0  0  0
  140.7120   72.2920  223.6410 N   0  0  0  0  0  0  0  0  0  0  0  0
  139.6600   78.2480  222.9520 C   0  0  0  0  0  0  0  0  0  0  0  0
  139.1900   79.4390  223.4670 C   0  0  0  0  0  0  0  0  0  0  0  0
  137.8420   79.7750  223.4590 C   0  0  0  0  0  0  0  0  0  0  0  0
  136.9340   78.8940  222.9180 C   0  0  0  0  0  0  0  0  0  0  0  0
  137.3690   77.7000  222.3970 C   0  0  0  0  0  0  0  0  0  0  0  0
  138.7150   77.3840  222.4160 C   0  0  0  0  0  0  0  0  0  0  0  0
  141.8922   78.9454  224.6578 H   0  0  0  0  0  0  0  0  0  0  0  0
  142.9767   78.8823  223.2272 H   0  0  0  0  0  0  0  0  0  0  0  0
  141.5527   79.9773  223.2272 H   0  0  0  0  0  0  0  0  0  0  0  0
  141.2691   77.0487  223.6364 H   0  0  0  0  0  0  0  0  0  0  0  0
  141.8370   76.5490  221.5080 H   0  0  0  0  0  0  0  0  0  0  0  0
  142.5580   78.9140  219.1430 H   0  0  0  0  0  0  0  0  0  0  0  0
  139.9706   77.6423  218.1488 H   0  0  0  0  0  0  0  0  0  0  0  0
  140.3292   79.3836  218.1733 H   0  0  0  0  0  0  0  0  0  0  0  0
  140.9925   77.4760  216.2142 H   0  0  0  0  0  0  0  0  0  0  0  0
  141.5351   79.2528  216.3862 H   0  0  0  0  0  0  0  0  0  0  0  0
  143.2334   77.4765  215.8621 H   0  0  0  0  0  0  0  0  0  0  0  0
  143.4992   78.7385  217.1756 H   0  0  0  0  0  0  0  0  0  0  0  0
  143.2914   75.7716  217.3832 H   0  0  0  0  0  0  0  0  0  0  0  0
  144.2797   76.9344  218.3100 H   0  0  0  0  0  0  0  0  0  0  0  0
  139.7148   75.6239  219.6517 H   0  0  0  0  0  0  0  0  0  0  0  0
  140.6347   74.4684  218.4797 H   0  0  0  0  0  0  0  0  0  0  0  0
  140.0560   72.8340  219.9030 H   0  0  0  0  0  0  0  0  0  0  0  0
  138.5057   72.0267  221.1535 H   0  0  0  0  0  0  0  0  0  0  0  0
  137.9526   69.9287  222.3615 H   0  0  0  0  0  0  0  0  0  0  0  0
  138.3801   68.4332  224.2535 H   0  0  0  0  0  0  0  0  0  0  0  0
  141.4358   69.4936  227.0716 H   0  0  0  0  0  0  0  0  0  0  0  0
  141.9581   71.5805  225.8296 H   0  0  0  0  0  0  0  0  0  0  0  0
  139.9099   80.1491  223.9002 H   0  0  0  0  0  0  0  0  0  0  0  0
  137.5047   80.7336  223.8800 H   0  0  0  0  0  0  0  0  0  0  0  0
  135.8632   79.1452  222.9028 H   0  0  0  0  0  0  0  0  0  0  0  0
  136.6453   76.9938  221.9638 H   0  0  0  0  0  0  0  0  0  0  0  0
  139.0455   76.4228  221.9954 H   0  0  0  0  0  0  0  0  0  0  0  0
  1  2  1  0
  2  3  1  0
  3  4  1  0
  4  5  2  0
  4  6  1  0
  6  7  1  0
  7  8  1  0
  8  9  1  0
  9 10  1  0
 10 11  1  0
 11 12  1  0
 12 13  2  0
 12 14  1  0
 14 15  1  0
 15 16  1  0
 16 17  2  0
 16 18  1  0
 18 19  2  0
 19 20  1  0
 20 21  2  0
 21 22  1  0
 22 23  2  0
 23 24  1  0
 23 25  1  0
 25 26  2  0
 26 27  1  0
 27 28  2  0
  2 29  1  0
 29 30  2  0
 30 31  1  0
 31 32  2  0
 32 33  1  0
 33 34  2  0
 11  6  1  0
 28 18  1  0
 34 29  1  0
 27 21  1  0
  1 35  1  0
  1 36  1  0
  1 37  1  0
  2 38  1  1
  3 39  1  0
  6 40  1  6
  7 41  1  0
  7 42  1  0
  8 43  1  0
  8 44  1  0
  9 45  1  0
  9 46  1  0
 10 47  1  0
 10 48  1  0
 14 49  1  0
 14 50  1  0
 15 51  1  0
 19 52  1  0
 20 53  1  0
 22 54  1  0
 25 55  1  0
 26 56  1  0
 30 57  1  0
 31 58  1  0
 32 59  1  0
 33 60  1  0
 34 61  1  0
M  END
>  <smiles>  (50) 
C[C@H](NC(=O)C1CCCCN1C(=O)CNC(=O)c1ccc2cc(Cl)ccc2n1)c1ccccc1

>  <score_type>  (50) 
oracle

>  <origin>  (50) 
autodockgpu

>  <m_score__min__energy>  (50) 
-9.5299999999999994

>  <m_primary>  (50) 
energy

>  <rmsd>  (50) 
3.112077406491427

>  <m_score__min__rmsd>  (50) 
3.112077406491427

>  <meeko>  (50) 
{"free_energy": -7.88, "intermolecular_energy": -9.96, "internal_energy": -3.25, "cluster_size": 1, "cluster_id": 6, "rank_in_cluster": 1}

>  <energy>  (50) 
-6.29

>  <cluster_rmsd>  (50) 
0.0

>  <cluster>  (50) 
12

$$$$

     RDKit          3D

 61 64  0  0  1  0  0  0  0  0999 V2000
  142.3540   80.7530  222.0820 C   0  0  0  0  0  0  0  0  0  0  0  0
  141.8770   79.4160  222.6200 C   0  0  2  0  0  0  0  0  0  0  0  0
  141.9620   78.4010  221.6160 N   0  0  0  0  0  0  0  0  0  0  0  0
  141.3600   78.6240  220.3140 C   0  0  0  0  0  0  0  0  0  0  0  0
  140.7960   79.7350  220.1850 O   0  0  0  0  0  0  0  0  0  0  0  0
  141.4810   77.5590  219.3440 C   0  0  1  0  0  0  0  0  0  0  0  0
  142.9360   77.1570  219.0200 C   0  0  0  0  0  0  0  0  0  0  0  0
  142.9290   75.8350  218.2730 C   0  0  0  0  0  0  0  0  0  0  0  0
  141.6340   75.5720  217.5350 C   0  0  0  0  0  0  0  0  0  0  0  0
  140.4200   75.5370  218.4330 C   0  0  0  0  0  0  0  0  0  0  0  0
  140.8520   76.2950  219.6380 N   0  0  0  0  0  0  0  0  0  0  0  0
  140.6390   75.7320  220.9080 C   0  0  0  0  0  0  0  0  0  0  0  0
  141.4660   75.7080  221.8530 O   0  0  0  0  0  0  0  0  0  0  0  0
  139.3190   75.0960  221.1890 C   0  0  0  0  0  0  0  0  0  0  0  0
  139.4330   74.1250  222.2740 N   0  0  0  0  0  0  0  0  0  0  0  0
  139.8240   72.7740  222.0130 C   0  0  0  0  0  0  0  0  0  0  0  0
  140.0750   72.3990  220.8420 O   0  0  0  0  0  0  0  0  0  0  0  0
  139.9230   71.8410  223.1340 C   0  0  0  0  0  0  0  0  0  0  0  0
  139.4900   70.5330  222.9600 C   0  0  0  0  0  0  0  0  0  0  0  0
  139.5620   69.6140  223.9810 C   0  0  0  0  0  0  0  0  0  0  0  0
  140.0730   69.9910  225.2020 C   0  0  0  0  0  0  0  0  0  0  0  0
  140.1300   69.0490  226.1970 C   0  0  0  0  0  0  0  0  0  0  0  0
  140.6510   69.4410  227.4340 C   0  0  0  0  0  0  0  0  0  0  0  0
  140.7160   68.2290  228.6900 Cl  0  0  0  0  0  0  0  0  0  0  0  0
  141.0840   70.7380  227.6140 C   0  0  0  0  0  0  0  0  0  0  0  0
  141.0150   71.6720  226.5860 C   0  0  0  0  0  0  0  0  0  0  0  0
  140.5000   71.2970  225.3560 C   0  0  0  0  0  0  0  0  0  0  0  0
  140.4220   72.1960  224.3340 N   0  0  0  0  0  0  0  0  0  0  0  0
  140.4220   79.5960  222.9650 C   0  0  0  0  0  0  0  0  0  0  0  0
  139.5940   78.4900  222.7840 C   0  0  0  0  0  0  0  0  0  0  0  0
  138.2470   78.5700  223.0770 C   0  0  0  0  0  0  0  0  0  0  0  0
  137.7530   79.7730  223.5520 C   0  0  0  0  0  0  0  0  0  0  0  0
  138.5810   80.8840  223.7350 C   0  0  0  0  0  0  0  0  0  0  0  0
  139.9290   80.7940  223.4390 C   0  0  0  0  0  0  0  0  0  0  0  0
  142.5927   81.4221  222.9218 H   0  0  0  0  0  0  0  0  0  0  0  0
  143.2534   80.6010  221.4672 H   0  0  0  0  0  0  0  0  0  0  0  0
  141.5615   81.2046  221.4672 H   0  0  0  0  0  0  0  0  0  0  0  0
  142.4928   79.1140  223.4800 H   0  0  0  0  0  0  0  0  0  0  0  0
  142.4590   77.5120  221.8390 H   0  0  0  0  0  0  0  0  0  0  0  0
  140.9550   78.0571  218.5162 H   0  0  0  0  0  0  0  0  0  0  0  0
  143.4020   77.9320  218.3937 H   0  0  0  0  0  0  0  0  0  0  0  0
  143.5095   77.0536  219.9530 H   0  0  0  0  0  0  0  0  0  0  0  0
  143.7518   75.8420  217.5430 H   0  0  0  0  0  0  0  0  0  0  0  0
  143.0459   75.0371  219.0211 H   0  0  0  0  0  0  0  0  0  0  0  0
  141.4915   76.3679  216.7891 H   0  0  0  0  0  0  0  0  0  0  0  0
  141.7225   74.5768  217.0749 H   0  0  0  0  0  0  0  0  0  0  0  0
  139.5604   76.0246  217.9500 H   0  0  0  0  0  0  0  0  0  0  0  0
  140.0921   74.5135  218.6676 H   0  0  0  0  0  0  0  0  0  0  0  0
  138.5970   75.8747  221.4760 H   0  0  0  0  0  0  0  0  0  0  0  0
  138.9783   74.5742  220.2825 H   0  0  0  0  0  0  0  0  0  0  0  0
  139.2330   74.3880  223.2780 H   0  0  0  0  0  0  0  0  0  0  0  0
  139.0812   70.2257  221.9861 H   0  0  0  0  0  0  0  0  0  0  0  0
  139.2129   68.5830  223.8224 H   0  0  0  0  0  0  0  0  0  0  0  0
  139.7781   68.0206  226.0279 H   0  0  0  0  0  0  0  0  0  0  0  0
  141.4920   71.0396  228.5900 H   0  0  0  0  0  0  0  0  0  0  0  0
  141.3669   72.7014  226.7485 H   0  0  0  0  0  0  0  0  0  0  0  0
  140.0160   77.5474  222.4054 H   0  0  0  0  0  0  0  0  0  0  0  0
  137.5852   77.7026  222.9370 H   0  0  0  0  0  0  0  0  0  0  0  0
  136.6826   79.8564  223.7912 H   0  0  0  0  0  0  0  0  0  0  0  0
  138.1615   81.8278  224.1136 H   0  0  0  0  0  0  0  0  0  0  0  0
  140.5938   81.6592  223.5786 H   0  0  0  0  0  0  0  0  0  0  0  0
  1  2  1  0
  2  3  1  0
  3  4  1  0
  4  5  2  0
  4  6  1  0
  6  7  1  0
  7  8  1  0
  8  9  1  0
  9 10  1  0
 10 11  1  0
 11 12  1  0
 12 13  2  0
 12 14  1  0
 14 15  1  0
 15 16  1  0
 16 17  2  0
 16 18  1  0
 18 19  2  0
 19 20  1  0
 20 21  2  0
 21 22  1  0
 22 23  2  0
 23 24  1  0
 23 25  1  0
 25 26  2  0
 26 27  1  0
 27 28  2  0
  2 29  1  0
 29 30  2  0
 30 31  1  0
 31 32  2  0
 32 33  1  0
 33 34  2  0
 11  6  1  0
 28 18  1  0
 34 29  1  0
 27 21  1  0
  1 35  1  0
  1 36  1  0
  1 37  1  0
  2 38  1  1
  3 39  1  0
  6 40  1  6
  7 41  1  0
  7 42  1  0
  8 43  1  0
  8 44  1  0
  9 45  1  0
  9 46  1  0
 10 47  1  0
 10 48  1  0
 14 49  1  0
 14 50  1  0
 15 51  1  0
 19 52  1  0
 20 53  1  0
 22 54  1  0
 25 55  1  0
 26 56  1  0
 30 57  1  0
 31 58  1  0
 32 59  1  0
 33 60  1  0
 34 61  1  0
M  END
>  <smiles>  (51) 
C[C@H](NC(=O)C1CCCCN1C(=O)CNC(=O)c1ccc2cc(Cl)ccc2n1)c1ccccc1

>  <score_type>  (51) 
oracle

>  <origin>  (51) 
autodockgpu

>  <m_score__min__energy>  (51) 
-9.6899999999999995

>  <m_primary>  (51) 
energy

>  <rmsd>  (51) 
2.283875651492834

>  <m_score__min__rmsd>  (51) 
2.283875651492834

>  <meeko>  (51) 
{"free_energy": -9.23, "intermolecular_energy": -11.31, "internal_energy": -2.75, "cluster_size": 14, "cluster_id": 1, "rank_in_cluster": 5}

>  <energy>  (51) 
-9.69

>  <cluster_rmsd>  (51) 
0.0

>  <cluster>  (51) 
1

$$$$

     RDKit          3D

 61 64  0  0  1  0  0  0  0  0999 V2000
  140.3170   72.1530  223.5860 C   0  0  0  0  0  0  0  0  0  0  0  0
  139.8240   70.9040  224.2930 C   0  0  2  0  0  0  0  0  0  0  0  0
  138.3950   70.8460  224.2910 N   0  0  0  0  0  0  0  0  0  0  0  0
  137.7230   69.6490  223.8180 C   0  0  0  0  0  0  0  0  0  0  0  0
  138.4930   68.7370  223.4380 O   0  0  0  0  0  0  0  0  0  0  0  0
  136.2780   69.6560  223.8410 C   0  0  1  0  0  0  0  0  0  0  0  0
  135.6640   69.4980  225.2480 C   0  0  0  0  0  0  0  0  0  0  0  0
  134.1900   69.8560  225.1870 C   0  0  0  0  0  0  0  0  0  0  0  0
  133.5870   69.6760  223.8110 C   0  0  0  0  0  0  0  0  0  0  0  0
  134.2520   70.5120  222.7430 C   0  0  0  0  0  0  0  0  0  0  0  0
  135.5930   70.8100  223.3140 N   0  0  0  0  0  0  0  0  0  0  0  0
  136.0530   72.1370  223.3110 C   0  0  0  0  0  0  0  0  0  0  0  0
  136.1130   72.9000  224.3070 O   0  0  0  0  0  0  0  0  0  0  0  0
  136.5190   72.7230  222.0200 C   0  0  0  0  0  0  0  0  0  0  0  0
  137.3310   73.9150  222.2560 N   0  0  0  0  0  0  0  0  0  0  0  0
  136.7390   75.2160  222.2710 C   0  0  0  0  0  0  0  0  0  0  0  0
  135.5060   75.3570  222.0800 O   0  0  0  0  0  0  0  0  0  0  0  0
  137.5940   76.3760  222.5120 C   0  0  0  0  0  0  0  0  0  0  0  0
  137.0030   77.6160  222.7170 C   0  0  0  0  0  0  0  0  0  0  0  0
  137.7620   78.7400  222.9480 C   0  0  0  0  0  0  0  0  0  0  0  0
  139.1340   78.6410  222.9800 C   0  0  0  0  0  0  0  0  0  0  0  0
  139.8580   79.7820  223.2130 C   0  0  0  0  0  0  0  0  0  0  0  0
  141.2520   79.6730  223.2430 C   0  0  0  0  0  0  0  0  0  0  0  0
  142.1590   81.1350  223.5410 Cl  0  0  0  0  0  0  0  0  0  0  0  0
  141.8470   78.4440  223.0400 C   0  0  0  0  0  0  0  0  0  0  0  0
  141.0850   77.3040  222.8060 C   0  0  0  0  0  0  0  0  0  0  0  0
  139.7050   77.3990  222.7740 C   0  0  0  0  0  0  0  0  0  0  0  0
  138.9390   76.2940  222.5450 N   0  0  0  0  0  0  0  0  0  0  0  0
  140.2740   71.0240  225.7260 C   0  0  0  0  0  0  0  0  0  0  0  0
  139.8170   70.0490  226.6100 C   0  0  0  0  0  0  0  0  0  0  0  0
  140.1840   70.0850  227.9400 C   0  0  0  0  0  0  0  0  0  0  0  0
  141.0110   71.1130  228.3610 C   0  0  0  0  0  0  0  0  0  0  0  0
  141.4710   72.0920  227.4770 C   0  0  0  0  0  0  0  0  0  0  0  0
  141.0990   72.0470  226.1450 C   0  0  0  0  0  0  0  0  0  0  0  0
  140.6135   72.9042  224.3328 H   0  0  0  0  0  0  0  0  0  0  0  0
  141.1828   71.9003  222.9563 H   0  0  0  0  0  0  0  0  0  0  0  0
  139.5120   72.5598  222.9563 H   0  0  0  0  0  0  0  0  0  0  0  0
  140.2147   70.0073  223.7898 H   0  0  0  0  0  0  0  0  0  0  0  0
  137.8560   71.6720  224.6320 H   0  0  0  0  0  0  0  0  0  0  0  0
  136.1197   68.7914  223.1796 H   0  0  0  0  0  0  0  0  0  0  0  0
  135.7771   68.4570  225.5850 H   0  0  0  0  0  0  0  0  0  0  0  0
  136.1793   70.1644  225.9554 H   0  0  0  0  0  0  0  0  0  0  0  0
  133.6450   69.2131  225.8939 H   0  0  0  0  0  0  0  0  0  0  0  0
  134.1026   70.9219  225.4442 H   0  0  0  0  0  0  0  0  0  0  0  0
  133.6762   68.6166  223.5286 H   0  0  0  0  0  0  0  0  0  0  0  0
  132.5398   70.0069  223.8729 H   0  0  0  0  0  0  0  0  0  0  0  0
  134.3423   69.9482  221.8028 H   0  0  0  0  0  0  0  0  0  0  0  0
  133.6823   71.4198  222.4954 H   0  0  0  0  0  0  0  0  0  0  0  0
  137.1215   71.9767  221.4815 H   0  0  0  0  0  0  0  0  0  0  0  0
  135.6397   73.0070  221.4232 H   0  0  0  0  0  0  0  0  0  0  0  0
  138.3730   73.8520  222.4230 H   0  0  0  0  0  0  0  0  0  0  0  0
  135.9065   77.7011  222.6942 H   0  0  0  0  0  0  0  0  0  0  0  0
  137.2743   79.7132  223.1064 H   0  0  0  0  0  0  0  0  0  0  0  0
  139.3595   80.7498  223.3709 H   0  0  0  0  0  0  0  0  0  0  0  0
  142.9439   78.3647  223.0637 H   0  0  0  0  0  0  0  0  0  0  0  0
  141.5766   76.3328  222.6474 H   0  0  0  0  0  0  0  0  0  0  0  0
  139.1597   69.2457  226.2458 H   0  0  0  0  0  0  0  0  0  0  0  0
  139.8297   69.3190  228.6455 H   0  0  0  0  0  0  0  0  0  0  0  0
  141.3131   71.1598  229.4176 H   0  0  0  0  0  0  0  0  0  0  0  0
  142.1275   72.8969  227.8390 H   0  0  0  0  0  0  0  0  0  0  0  0
  141.4532   72.8099  225.4361 H   0  0  0  0  0  0  0  0  0  0  0  0
  1  2  1  0
  2  3  1  0
  3  4  1  0
  4  5  2  0
  4  6  1  0
  6  7  1  0
  7  8  1  0
  8  9  1  0
  9 10  1  0
 10 11  1  0
 11 12  1  0
 12 13  2  0
 12 14  1  0
 14 15  1  0
 15 16  1  0
 16 17  2  0
 16 18  1  0
 18 19  2  0
 19 20  1  0
 20 21  2  0
 21 22  1  0
 22 23  2  0
 23 24  1  0
 23 25  1  0
 25 26  2  0
 26 27  1  0
 27 28  2  0
  2 29  1  0
 29 30  2  0
 30 31  1  0
 31 32  2  0
 32 33  1  0
 33 34  2  0
 11  6  1  0
 28 18  1  0
 34 29  1  0
 27 21  1  0
  1 35  1  0
  1 36  1  0
  1 37  1  0
  2 38  1  6
  3 39  1  0
  6 40  1  6
  7 41  1  0
  7 42  1  0
  8 43  1  0
  8 44  1  0
  9 45  1  0
  9 46  1  0
 10 47  1  0
 10 48  1  0
 14 49  1  0
 14 50  1  0
 15 51  1  0
 19 52  1  0
 20 53  1  0
 22 54  1  0
 25 55  1  0
 26 56  1  0
 30 57  1  0
 31 58  1  0
 32 59  1  0
 33 60  1  0
 34 61  1  0
M  END
>  <smiles>  (52) 
C[C@H](NC(=O)C1CCCCN1C(=O)CNC(=O)c1ccc2cc(Cl)ccc2n1)c1ccccc1

>  <score_type>  (52) 
oracle

>  <origin>  (52) 
autodockgpu

>  <m_score__min__energy>  (52) 
-9.6899999999999995

>  <m_primary>  (52) 
energy

>  <rmsd>  (52) 
9.438868274989218

>  <m_score__min__rmsd>  (52) 
9.438868274989218

>  <meeko>  (52) 
{"free_energy": -8.23, "intermolecular_energy": -10.32, "internal_energy": -3.02, "cluster_size": 6, "cluster_id": 5, "rank_in_cluster": 6}

>  <energy>  (52) 
-9.58

>  <cluster_rmsd>  (52) 
1.89

>  <cluster>  (52) 
1

$$$$

     RDKit          3D

 61 64  0  0  1  0  0  0  0  0999 V2000
  142.3400   80.4770  222.7010 C   0  0  0  0  0  0  0  0  0  0  0  0
  141.6540   79.1890  223.1180 C   0  0  2  0  0  0  0  0  0  0  0  0
  141.7920   78.1860  222.1080 N   0  0  0  0  0  0  0  0  0  0  0  0
  141.3690   78.4710  220.7480 C   0  0  0  0  0  0  0  0  0  0  0  0
  140.9020   79.6190  220.5790 O   0  0  0  0  0  0  0  0  0  0  0  0
  141.5350   77.4140  219.7750 C   0  0  1  0  0  0  0  0  0  0  0  0
  142.9640   76.8350  219.7040 C   0  0  0  0  0  0  0  0  0  0  0  0
  142.9330   75.5370  218.9170 C   0  0  0  0  0  0  0  0  0  0  0  0
  141.7740   75.4540  217.9470 C   0  0  0  0  0  0  0  0  0  0  0  0
  140.4200   75.5600  218.6090 C   0  0  0  0  0  0  0  0  0  0  0  0
  140.7130   76.2360  219.9010 N   0  0  0  0  0  0  0  0  0  0  0  0
  140.2020   75.6850  221.0880 C   0  0  0  0  0  0  0  0  0  0  0  0
  140.4410   76.0890  222.2530 O   0  0  0  0  0  0  0  0  0  0  0  0
  139.2890   74.5090  220.9880 C   0  0  0  0  0  0  0  0  0  0  0  0
  139.4730   73.6130  222.1270 N   0  0  0  0  0  0  0  0  0  0  0  0
  139.5340   72.1960  221.9460 C   0  0  0  0  0  0  0  0  0  0  0  0
  139.4280   71.6960  220.7990 O   0  0  0  0  0  0  0  0  0  0  0  0
  139.7200   71.3440  223.1180 C   0  0  0  0  0  0  0  0  0  0  0  0
  139.3510   70.0060  223.0420 C   0  0  0  0  0  0  0  0  0  0  0  0
  139.5050   69.1600  224.1160 C   0  0  0  0  0  0  0  0  0  0  0  0
  140.0350   69.6410  225.2910 C   0  0  0  0  0  0  0  0  0  0  0  0
  140.1740   68.7690  226.3410 C   0  0  0  0  0  0  0  0  0  0  0  0
  140.7140   69.2650  227.5310 C   0  0  0  0  0  0  0  0  0  0  0  0
  140.8840   68.1410  228.8580 Cl  0  0  0  0  0  0  0  0  0  0  0  0
  141.0830   70.5920  227.6140 C   0  0  0  0  0  0  0  0  0  0  0  0
  140.9300   71.4530  226.5320 C   0  0  0  0  0  0  0  0  0  0  0  0
  140.3970   70.9740  225.3480 C   0  0  0  0  0  0  0  0  0  0  0  0
  140.2380   71.8000  224.2750 N   0  0  0  0  0  0  0  0  0  0  0  0
  140.1880   79.5130  223.2420 C   0  0  0  0  0  0  0  0  0  0  0  0
  139.8640   80.7980  223.6720 C   0  0  0  0  0  0  0  0  0  0  0  0
  138.5440   81.1760  223.8120 C   0  0  0  0  0  0  0  0  0  0  0  0
  137.5640   80.2440  223.5150 C   0  0  0  0  0  0  0  0  0  0  0  0
  137.8850   78.9550  223.0840 C   0  0  0  0  0  0  0  0  0  0  0  0
  139.2110   78.5850  222.9460 C   0  0  0  0  0  0  0  0  0  0  0  0
  142.6397   81.0397  223.5974 H   0  0  0  0  0  0  0  0  0  0  0  0
  143.2315   80.2402  222.1017 H   0  0  0  0  0  0  0  0  0  0  0  0
  141.6460   81.0846  222.1017 H   0  0  0  0  0  0  0  0  0  0  0  0
  142.0955   78.8122  224.0524 H   0  0  0  0  0  0  0  0  0  0  0  0
  142.1980   77.2610  222.3670 H   0  0  0  0  0  0  0  0  0  0  0  0
  141.2350   77.9881  218.8860 H   0  0  0  0  0  0  0  0  0  0  0  0
  143.6288   77.5541  219.2031 H   0  0  0  0  0  0  0  0  0  0  0  0
  143.3386   76.6444  220.7205 H   0  0  0  0  0  0  0  0  0  0  0  0
  143.8710   75.4504  218.3489 H   0  0  0  0  0  0  0  0  0  0  0  0
  142.8112   74.7187  219.6419 H   0  0  0  0  0  0  0  0  0  0  0  0
  141.8703   76.2737  217.2198 H   0  0  0  0  0  0  0  0  0  0  0  0
  141.8229   74.4634  217.4713 H   0  0  0  0  0  0  0  0  0  0  0  0
  139.7306   76.1618  217.9986 H   0  0  0  0  0  0  0  0  0  0  0  0
  139.9309   74.5834  218.7394 H   0  0  0  0  0  0  0  0  0  0  0  0
  138.2471   74.8614  220.9706 H   0  0  0  0  0  0  0  0  0  0  0  0
  139.5217   73.9587  220.0644 H   0  0  0  0  0  0  0  0  0  0  0  0
  139.5680   73.9820  223.1130 H   0  0  0  0  0  0  0  0  0  0  0  0
  138.9275   69.6159  222.1047 H   0  0  0  0  0  0  0  0  0  0  0  0
  139.2059   68.1045  224.0357 H   0  0  0  0  0  0  0  0  0  0  0  0
  139.8708   67.7156  226.2495 H   0  0  0  0  0  0  0  0  0  0  0  0
  141.5062   70.9765  228.5537 H   0  0  0  0  0  0  0  0  0  0  0  0
  141.2307   72.5077  226.6170 H   0  0  0  0  0  0  0  0  0  0  0  0
  140.6653   81.5158  223.9014 H   0  0  0  0  0  0  0  0  0  0  0  0
  138.2782   82.1885  224.1498 H   0  0  0  0  0  0  0  0  0  0  0  0
  136.5061   80.5260  223.6212 H   0  0  0  0  0  0  0  0  0  0  0  0
  137.0853   78.2354  222.8547 H   0  0  0  0  0  0  0  0  0  0  0  0
  139.4802   77.5735  222.6078 H   0  0  0  0  0  0  0  0  0  0  0  0
  1  2  1  0
  2  3  1  0
  3  4  1  0
  4  5  2  0
  4  6  1  0
  6  7  1  0
  7  8  1  0
  8  9  1  0
  9 10  1  0
 10 11  1  0
 11 12  1  0
 12 13  2  0
 12 14  1  0
 14 15  1  0
 15 16  1  0
 16 17  2  0
 16 18  1  0
 18 19  2  0
 19 20  1  0
 20 21  2  0
 21 22  1  0
 22 23  2  0
 23 24  1  0
 23 25  1  0
 25 26  2  0
 26 27  1  0
 27 28  2  0
  2 29  1  0
 29 30  2  0
 30 31  1  0
 31 32  2  0
 32 33  1  0
 33 34  2  0
 11  6  1  0
 28 18  1  0
 34 29  1  0
 27 21  1  0
  1 35  1  0
  1 36  1  0
  1 37  1  0
  2 38  1  1
  3 39  1  0
  6 40  1  6
  7 41  1  0
  7 42  1  0
  8 43  1  0
  8 44  1  0
  9 45  1  0
  9 46  1  0
 10 47  1  0
 10 48  1  0
 14 49  1  0
 14 50  1  0
 15 51  1  0
 19 52  1  0
 20 53  1  0
 22 54  1  0
 25 55  1  0
 26 56  1  0
 30 57  1  0
 31 58  1  0
 32 59  1  0
 33 60  1  0
 34 61  1  0
M  END
>  <smiles>  (53) 
C[C@H](NC(=O)C1CCCCN1C(=O)CNC(=O)c1ccc2cc(Cl)ccc2n1)c1ccccc1

>  <score_type>  (53) 
oracle

>  <origin>  (53) 
autodockgpu

>  <m_score__min__energy>  (53) 
-9.6899999999999995

>  <m_primary>  (53) 
energy

>  <rmsd>  (53) 
2.215320587261213

>  <m_score__min__rmsd>  (53) 
2.215320587261213

>  <meeko>  (53) 
{"free_energy": -9.44, "intermolecular_energy": -11.53, "internal_energy": -2.78, "cluster_size": 14, "cluster_id": 1, "rank_in_cluster": 3}

>  <energy>  (53) 
-9.44

>  <cluster_rmsd>  (53) 
1.87

>  <cluster>  (53) 
1

$$$$

     RDKit          3D

 61 64  0  0  1  0  0  0  0  0999 V2000
  139.4130   77.6230  221.0440 C   0  0  0  0  0  0  0  0  0  0  0  0
  140.8950   77.8100  220.7770 C   0  0  2  0  0  0  0  0  0  0  0  0
  141.5820   76.5560  220.8050 N   0  0  0  0  0  0  0  0  0  0  0  0
  141.9430   75.9050  219.5580 C   0  0  0  0  0  0  0  0  0  0  0  0
  141.6050   76.5310  218.5280 O   0  0  0  0  0  0  0  0  0  0  0  0
  142.6350   74.6390  219.6560 C   0  0  1  0  0  0  0  0  0  0  0  0
  143.9360   74.6880  220.4850 C   0  0  0  0  0  0  0  0  0  0  0  0
  144.3770   73.2690  220.7970 C   0  0  0  0  0  0  0  0  0  0  0  0
  143.8700   72.2520  219.7970 C   0  0  0  0  0  0  0  0  0  0  0  0
  142.3630   72.1970  219.7000 C   0  0  0  0  0  0  0  0  0  0  0  0
  141.9280   73.5190  220.2250 N   0  0  0  0  0  0  0  0  0  0  0  0
  140.9210   73.5640  221.2040 C   0  0  0  0  0  0  0  0  0  0  0  0
  140.9560   74.2280  222.2690 O   0  0  0  0  0  0  0  0  0  0  0  0
  139.6850   72.7560  220.9870 C   0  0  0  0  0  0  0  0  0  0  0  0
  138.6800   73.0680  222.0000 N   0  0  0  0  0  0  0  0  0  0  0  0
  137.4000   72.4300  221.9870 C   0  0  0  0  0  0  0  0  0  0  0  0
  137.1180   71.5880  221.0990 O   0  0  0  0  0  0  0  0  0  0  0  0
  136.4300   72.7770  223.0230 C   0  0  0  0  0  0  0  0  0  0  0  0
  135.7530   71.7560  223.6790 C   0  0  0  0  0  0  0  0  0  0  0  0
  134.8300   72.0270  224.6620 C   0  0  0  0  0  0  0  0  0  0  0  0
  134.5670   73.3330  225.0090 C   0  0  0  0  0  0  0  0  0  0  0  0
  133.6410   73.5650  225.9930 C   0  0  0  0  0  0  0  0  0  0  0  0
  133.3800   74.8940  226.3400 C   0  0  0  0  0  0  0  0  0  0  0  0
  132.1990   75.1730  227.5950 Cl  0  0  0  0  0  0  0  0  0  0  0  0
  134.0490   75.9140  225.6930 C   0  0  0  0  0  0  0  0  0  0  0  0
  134.9840   75.6470  224.6980 C   0  0  0  0  0  0  0  0  0  0  0  0
  135.2510   74.3350  224.3450 C   0  0  0  0  0  0  0  0  0  0  0  0
  136.1630   74.0500  223.3730 N   0  0  0  0  0  0  0  0  0  0  0  0
  141.4260   78.6470  221.9110 C   0  0  0  0  0  0  0  0  0  0  0  0
  142.0440   79.8470  221.5680 C   0  0  0  0  0  0  0  0  0  0  0  0
  142.5580   80.6740  222.5470 C   0  0  0  0  0  0  0  0  0  0  0  0
  142.4400   80.2730  223.8670 C   0  0  0  0  0  0  0  0  0  0  0  0
  141.8200   79.0700  224.2150 C   0  0  0  0  0  0  0  0  0  0  0  0
  141.3080   78.2490  223.2260 C   0  0  0  0  0  0  0  0  0  0  0  0
  139.2359   77.6007  222.1294 H   0  0  0  0  0  0  0  0  0  0  0  0
  138.8519   78.4575  220.5981 H   0  0  0  0  0  0  0  0  0  0  0  0
  139.0768   76.6753  220.5981 H   0  0  0  0  0  0  0  0  0  0  0  0
  141.0446   78.2723  219.7901 H   0  0  0  0  0  0  0  0  0  0  0  0
  141.8130   76.1270  221.7280 H   0  0  0  0  0  0  0  0  0  0  0  0
  142.7921   74.4767  218.5794 H   0  0  0  0  0  0  0  0  0  0  0  0
  144.7211   75.2000  219.9093 H   0  0  0  0  0  0  0  0  0  0  0  0
  143.7593   75.2368  221.4218 H   0  0  0  0  0  0  0  0  0  0  0  0
  145.4765   73.2376  220.8002 H   0  0  0  0  0  0  0  0  0  0  0  0
  143.9524   73.0033  221.7764 H   0  0  0  0  0  0  0  0  0  0  0  0
  144.2730   72.5081  218.8060 H   0  0  0  0  0  0  0  0  0  0  0  0
  144.2068   71.2638  220.1435 H   0  0  0  0  0  0  0  0  0  0  0  0
  142.0416   72.0642  218.6564 H   0  0  0  0  0  0  0  0  0  0  0  0
  141.9302   71.3533  220.2575 H   0  0  0  0  0  0  0  0  0  0  0  0
  139.2761   72.9818  219.9911 H   0  0  0  0  0  0  0  0  0  0  0  0
  139.9423   71.6891  221.0608 H   0  0  0  0  0  0  0  0  0  0  0  0
  138.8660   73.7680  222.7700 H   0  0  0  0  0  0  0  0  0  0  0  0
  135.9594   70.7104  223.4067 H   0  0  0  0  0  0  0  0  0  0  0  0
  134.3044   71.2041  225.1685 H   0  0  0  0  0  0  0  0  0  0  0  0
  133.1212   72.7341  226.4924 H   0  0  0  0  0  0  0  0  0  0  0  0
  133.8386   76.9577  225.9696 H   0  0  0  0  0  0  0  0  0  0  0  0
  135.5079   76.4731  224.1948 H   0  0  0  0  0  0  0  0  0  0  0  0
  142.1232   80.1379  220.5101 H   0  0  0  0  0  0  0  0  0  0  0  0
  143.0471   81.6240  222.2858 H   0  0  0  0  0  0  0  0  0  0  0  0
  142.8444   80.9174  224.6615 H   0  0  0  0  0  0  0  0  0  0  0  0
  141.7393   78.7766  225.2721 H   0  0  0  0  0  0  0  0  0  0  0  0
  140.8171   77.2988  223.4833 H   0  0  0  0  0  0  0  0  0  0  0  0
  1  2  1  0
  2  3  1  0
  3  4  1  0
  4  5  2  0
  4  6  1  0
  6  7  1  0
  7  8  1  0
  8  9  1  0
  9 10  1  0
 10 11  1  0
 11 12  1  0
 12 13  2  0
 12 14  1  0
 14 15  1  0
 15 16  1  0
 16 17  2  0
 16 18  1  0
 18 19  2  0
 19 20  1  0
 20 21  2  0
 21 22  1  0
 22 23  2  0
 23 24  1  0
 23 25  1  0
 25 26  2  0
 26 27  1  0
 27 28  2  0
  2 29  1  0
 29 30  2  0
 30 31  1  0
 31 32  2  0
 32 33  1  0
 33 34  2  0
 11  6  1  0
 28 18  1  0
 34 29  1  0
 27 21  1  0
  1 35  1  0
  1 36  1  0
  1 37  1  0
  2 38  1  6
  3 39  1  0
  6 40  1  6
  7 41  1  0
  7 42  1  0
  8 43  1  0
  8 44  1  0
  9 45  1  0
  9 46  1  0
 10 47  1  0
 10 48  1  0
 14 49  1  0
 14 50  1  0
 15 51  1  0
 19 52  1  0
 20 53  1  0
 22 54  1  0
 25 55  1  0
 26 56  1  0
 30 57  1  0
 31 58  1  0
 32 59  1  0
 33 60  1  0
 34 61  1  0
M  END
>  <smiles>  (54) 
C[C@H](NC(=O)C1CCCCN1C(=O)CNC(=O)c1ccc2cc(Cl)ccc2n1)c1ccccc1

>  <score_type>  (54) 
oracle

>  <origin>  (54) 
autodockgpu

>  <m_score__min__energy>  (54) 
-9.6899999999999995

>  <m_primary>  (54) 
energy

>  <rmsd>  (54) 
5.005099262817162

>  <m_score__min__rmsd>  (54) 
5.005099262817162

>  <meeko>  (54) 
{"free_energy": -8.22, "intermolecular_energy": -10.31, "internal_energy": -3.22, "cluster_size": 5, "cluster_id": 7, "rank_in_cluster": 5}

>  <energy>  (54) 
-9.44

>  <cluster_rmsd>  (54) 
1.86

>  <cluster>  (54) 
1

$$$$

     RDKit          3D

 61 64  0  0  1  0  0  0  0  0999 V2000
  139.3050   77.3950  221.7650 C   0  0  0  0  0  0  0  0  0  0  0  0
  140.6550   77.6790  221.1330 C   0  0  2  0  0  0  0  0  0  0  0  0
  141.4410   76.4860  221.0480 N   0  0  0  0  0  0  0  0  0  0  0  0
  141.6570   75.8570  219.7580 C   0  0  0  0  0  0  0  0  0  0  0  0
  141.1110   76.4430  218.7950 O   0  0  0  0  0  0  0  0  0  0  0  0
  142.4580   74.6540  219.7410 C   0  0  1  0  0  0  0  0  0  0  0  0
  143.8170   74.7860  220.4620 C   0  0  0  0  0  0  0  0  0  0  0  0
  144.4020   73.4000  220.6720 C   0  0  0  0  0  0  0  0  0  0  0  0
  143.8980   72.3820  219.6720 C   0  0  0  0  0  0  0  0  0  0  0  0
  142.3990   72.1970  219.6970 C   0  0  0  0  0  0  0  0  0  0  0  0
  141.9000   73.4550  220.3150 N   0  0  0  0  0  0  0  0  0  0  0  0
  140.9810   73.3740  221.3740 C   0  0  0  0  0  0  0  0  0  0  0  0
  140.8680   74.1940  222.3190 O   0  0  0  0  0  0  0  0  0  0  0  0
  140.0390   72.2170  221.4080 C   0  0  0  0  0  0  0  0  0  0  0  0
  138.8880   72.5120  222.2590 N   0  0  0  0  0  0  0  0  0  0  0  0
  137.8200   71.5720  222.4020 C   0  0  0  0  0  0  0  0  0  0  0  0
  137.8520   70.4740  221.7950 O   0  0  0  0  0  0  0  0  0  0  0  0
  136.6920   71.9150  223.2650 C   0  0  0  0  0  0  0  0  0  0  0  0
  136.1580   73.1960  223.1970 C   0  0  0  0  0  0  0  0  0  0  0  0
  135.0960   73.5710  223.9860 C   0  0  0  0  0  0  0  0  0  0  0  0
  134.5450   72.6640  224.8630 C   0  0  0  0  0  0  0  0  0  0  0  0
  133.4870   73.0730  225.6340 C   0  0  0  0  0  0  0  0  0  0  0  0
  132.9330   72.1450  226.5220 C   0  0  0  0  0  0  0  0  0  0  0  0
  131.5870   72.6820  227.4970 Cl  0  0  0  0  0  0  0  0  0  0  0  0
  133.4580   70.8710  226.5950 C   0  0  0  0  0  0  0  0  0  0  0  0
  134.5320   70.4850  225.8000 C   0  0  0  0  0  0  0  0  0  0  0  0
  135.0890   71.3940  224.9170 C   0  0  0  0  0  0  0  0  0  0  0  0
  136.1420   71.0380  224.1270 N   0  0  0  0  0  0  0  0  0  0  0  0
  141.3650   78.6290  222.0610 C   0  0  0  0  0  0  0  0  0  0  0  0
  141.9220   79.7680  221.4860 C   0  0  0  0  0  0  0  0  0  0  0  0
  142.5910   80.6900  222.2660 C   0  0  0  0  0  0  0  0  0  0  0  0
  142.6870   80.4460  223.6260 C   0  0  0  0  0  0  0  0  0  0  0  0
  142.1290   79.3040  224.2060 C   0  0  0  0  0  0  0  0  0  0  0  0
  141.4610   78.3860  223.4150 C   0  0  0  0  0  0  0  0  0  0  0  0
  139.4015   77.4153  222.8606 H   0  0  0  0  0  0  0  0  0  0  0  0
  138.5825   78.1608  221.4463 H   0  0  0  0  0  0  0  0  0  0  0  0
  138.9523   76.4030  221.4463 H   0  0  0  0  0  0  0  0  0  0  0  0
  140.5186   78.0849  220.1198 H   0  0  0  0  0  0  0  0  0  0  0  0
  141.8470   76.0870  221.9220 H   0  0  0  0  0  0  0  0  0  0  0  0
  142.5341   74.5467  218.6489 H   0  0  0  0  0  0  0  0  0  0  0  0
  144.5036   75.3869  219.8476 H   0  0  0  0  0  0  0  0  0  0  0  0
  143.6755   75.2809  221.4341 H   0  0  0  0  0  0  0  0  0  0  0  0
  145.4964   73.4654  220.5829 H   0  0  0  0  0  0  0  0  0  0  0  0
  144.0881   73.0607  221.6701 H   0  0  0  0  0  0  0  0  0  0  0  0
  144.1905   72.7111  218.6640 H   0  0  0  0  0  0  0  0  0  0  0  0
  144.3459   71.4149  219.9442 H   0  0  0  0  0  0  0  0  0  0  0  0
  142.0015   72.0755  218.6786 H   0  0  0  0  0  0  0  0  0  0  0  0
  142.0891   71.2978  220.2496 H   0  0  0  0  0  0  0  0  0  0  0  0
  139.6884   72.0068  220.3868 H   0  0  0  0  0  0  0  0  0  0  0  0
  140.5669   71.3434  221.8180 H   0  0  0  0  0  0  0  0  0  0  0  0
  138.8110   73.4210  222.7920 H   0  0  0  0  0  0  0  0  0  0  0  0
  136.5937   73.9250  222.4978 H   0  0  0  0  0  0  0  0  0  0  0  0
  134.6888   74.5905  223.9167 H   0  0  0  0  0  0  0  0  0  0  0  0
  133.0880   74.0952  225.5567 H   0  0  0  0  0  0  0  0  0  0  0  0
  133.0183   70.1462  227.2959 H   0  0  0  0  0  0  0  0  0  0  0  0
  134.9360   69.4644  225.8724 H   0  0  0  0  0  0  0  0  0  0  0  0
  141.8284   79.9345  220.4027 H   0  0  0  0  0  0  0  0  0  0  0  0
  143.0350   81.5923  221.8203 H   0  0  0  0  0  0  0  0  0  0  0  0
  143.2154   81.1689  224.2650 H   0  0  0  0  0  0  0  0  0  0  0  0
  142.2205   79.1350  225.2891 H   0  0  0  0  0  0  0  0  0  0  0  0
  141.0162   77.4821  223.8566 H   0  0  0  0  0  0  0  0  0  0  0  0
  1  2  1  0
  2  3  1  0
  3  4  1  0
  4  5  2  0
  4  6  1  0
  6  7  1  0
  7  8  1  0
  8  9  1  0
  9 10  1  0
 10 11  1  0
 11 12  1  0
 12 13  2  0
 12 14  1  0
 14 15  1  0
 15 16  1  0
 16 17  2  0
 16 18  1  0
 18 19  2  0
 19 20  1  0
 20 21  2  0
 21 22  1  0
 22 23  2  0
 23 24  1  0
 23 25  1  0
 25 26  2  0
 26 27  1  0
 27 28  2  0
  2 29  1  0
 29 30  2  0
 30 31  1  0
 31 32  2  0
 32 33  1  0
 33 34  2  0
 11  6  1  0
 28 18  1  0
 34 29  1  0
 27 21  1  0
  1 35  1  0
  1 36  1  0
  1 37  1  0
  2 38  1  6
  3 39  1  0
  6 40  1  6
  7 41  1  0
  7 42  1  0
  8 43  1  0
  8 44  1  0
  9 45  1  0
  9 46  1  0
 10 47  1  0
 10 48  1  0
 14 49  1  0
 14 50  1  0
 15 51  1  0
 19 52  1  0
 20 53  1  0
 22 54  1  0
 25 55  1  0
 26 56  1  0
 30 57  1  0
 31 58  1  0
 32 59  1  0
 33 60  1  0
 34 61  1  0
M  END
>  <smiles>  (55) 
C[C@H](NC(=O)C1CCCCN1C(=O)CNC(=O)c1ccc2cc(Cl)ccc2n1)c1ccccc1

>  <score_type>  (55) 
oracle

>  <origin>  (55) 
autodockgpu

>  <m_score__min__energy>  (55) 
-9.6899999999999995

>  <m_primary>  (55) 
energy

>  <rmsd>  (55) 
4.912222809012687

>  <m_score__min__rmsd>  (55) 
4.912222809012687

>  <meeko>  (55) 
{"free_energy": -8.27, "intermolecular_energy": -10.35, "internal_energy": -2.97, "cluster_size": 5, "cluster_id": 7, "rank_in_cluster": 4}

>  <energy>  (55) 
-9.23

>  <cluster_rmsd>  (55) 
1.78

>  <cluster>  (55) 
1

$$$$

     RDKit          3D

 61 64  0  0  1  0  0  0  0  0999 V2000
  139.8490   78.0320  220.3170 C   0  0  0  0  0  0  0  0  0  0  0  0
  141.3630   78.1290  220.3590 C   0  0  2  0  0  0  0  0  0  0  0  0
  141.9540   76.8350  220.5040 N   0  0  0  0  0  0  0  0  0  0  0  0
  142.3410   76.0840  219.3230 C   0  0  0  0  0  0  0  0  0  0  0  0
  142.1110   76.6660  218.2380 O   0  0  0  0  0  0  0  0  0  0  0  0
  142.9320   74.7820  219.5380 C   0  0  1  0  0  0  0  0  0  0  0  0
  144.2040   74.7980  220.4110 C   0  0  0  0  0  0  0  0  0  0  0  0
  144.5280   73.3780  220.8400 C   0  0  0  0  0  0  0  0  0  0  0  0
  143.9780   72.3290  219.8980 C   0  0  0  0  0  0  0  0  0  0  0  0
  142.4760   72.3760  219.7470 C   0  0  0  0  0  0  0  0  0  0  0  0
  142.1240   73.7610  220.1580 N   0  0  0  0  0  0  0  0  0  0  0  0
  141.0920   73.9520  221.0920 C   0  0  0  0  0  0  0  0  0  0  0  0
  141.0830   74.7980  222.0200 O   0  0  0  0  0  0  0  0  0  0  0  0
  139.8820   73.0830  220.9980 C   0  0  0  0  0  0  0  0  0  0  0  0
  138.8740   73.4930  221.9730 N   0  0  0  0  0  0  0  0  0  0  0  0
  137.5190   73.0520  221.8590 C   0  0  0  0  0  0  0  0  0  0  0  0
  137.1710   72.3030  220.9140 O   0  0  0  0  0  0  0  0  0  0  0  0
  136.5490   73.4910  222.8600 C   0  0  0  0  0  0  0  0  0  0  0  0
  136.2850   74.8480  222.9910 C   0  0  0  0  0  0  0  0  0  0  0  0
  135.3810   75.3150  223.9170 C   0  0  0  0  0  0  0  0  0  0  0  0
  134.7200   74.4250  224.7320 C   0  0  0  0  0  0  0  0  0  0  0  0
  133.8260   74.9260  225.6430 C   0  0  0  0  0  0  0  0  0  0  0  0
  133.1590   74.0150  226.4680 C   0  0  0  0  0  0  0  0  0  0  0  0
  132.0240   74.6690  227.6230 Cl  0  0  0  0  0  0  0  0  0  0  0  0
  133.4160   72.6640  226.3440 C   0  0  0  0  0  0  0  0  0  0  0  0
  134.3280   72.1860  225.4100 C   0  0  0  0  0  0  0  0  0  0  0  0
  134.9960   73.0780  224.5870 C   0  0  0  0  0  0  0  0  0  0  0  0
  135.8950   72.6310  223.6650 N   0  0  0  0  0  0  0  0  0  0  0  0
  141.7010   78.9260  221.5910 C   0  0  0  0  0  0  0  0  0  0  0  0
  141.4720   78.3090  222.8190 C   0  0  0  0  0  0  0  0  0  0  0  0
  141.7550   78.9700  223.9970 C   0  0  0  0  0  0  0  0  0  0  0  0
  142.2690   80.2540  223.9170 C   0  0  0  0  0  0  0  0  0  0  0  0
  142.4990   80.8750  222.6880 C   0  0  0  0  0  0  0  0  0  0  0  0
  142.2120   80.2040  221.5120 C   0  0  0  0  0  0  0  0  0  0  0  0
  139.4546   78.0067  221.3436 H   0  0  0  0  0  0  0  0  0  0  0  0
  139.4401   78.9058  219.7885 H   0  0  0  0  0  0  0  0  0  0  0  0
  139.5550   77.1132  219.7885 H   0  0  0  0  0  0  0  0  0  0  0  0
  141.7373   78.5862  219.4312 H   0  0  0  0  0  0  0  0  0  0  0  0
  142.0970   76.4500  221.4630 H   0  0  0  0  0  0  0  0  0  0  0  0
  143.1121   74.5293  218.4827 H   0  0  0  0  0  0  0  0  0  0  0  0
  145.0438   75.2087  219.8313 H   0  0  0  0  0  0  0  0  0  0  0  0
  144.0369   75.4252  221.2991 H   0  0  0  0  0  0  0  0  0  0  0  0
  145.6215   73.2677  220.8856 H   0  0  0  0  0  0  0  0  0  0  0  0
  144.0546   73.2171  221.8198 H   0  0  0  0  0  0  0  0  0  0  0  0
  144.4315   72.4800  218.9073 H   0  0  0  0  0  0  0  0  0  0  0  0
  144.2272   71.3480  220.3287 H   0  0  0  0  0  0  0  0  0  0  0  0
  142.1805   72.1892  218.7040 H   0  0  0  0  0  0  0  0  0  0  0  0
  141.9629   71.6098  220.3467 H   0  0  0  0  0  0  0  0  0  0  0  0
  139.4585   73.1622  219.9859 H   0  0  0  0  0  0  0  0  0  0  0  0
  140.1758   72.0442  221.2090 H   0  0  0  0  0  0  0  0  0  0  0  0
  139.1140   74.1220  222.7880 H   0  0  0  0  0  0  0  0  0  0  0  0
  136.8093   75.5641  222.3412 H   0  0  0  0  0  0  0  0  0  0  0  0
  135.1877   76.3943  224.0054 H   0  0  0  0  0  0  0  0  0  0  0  0
  133.6399   76.0073  225.7221 H   0  0  0  0  0  0  0  0  0  0  0  0
  132.8891   71.9524  226.9967 H   0  0  0  0  0  0  0  0  0  0  0  0
  134.5181   71.1059  225.3249 H   0  0  0  0  0  0  0  0  0  0  0  0
  141.0630   77.2883  222.8498 H   0  0  0  0  0  0  0  0  0  0  0  0
  141.5776   78.4912  224.9713 H   0  0  0  0  0  0  0  0  0  0  0  0
  142.5016   80.7975  224.8446 H   0  0  0  0  0  0  0  0  0  0  0  0
  142.9076   81.8958  222.6544 H   0  0  0  0  0  0  0  0  0  0  0  0
  142.3877   80.6799  220.5359 H   0  0  0  0  0  0  0  0  0  0  0  0
  1  2  1  0
  2  3  1  0
  3  4  1  0
  4  5  2  0
  4  6  1  0
  6  7  1  0
  7  8  1  0
  8  9  1  0
  9 10  1  0
 10 11  1  0
 11 12  1  0
 12 13  2  0
 12 14  1  0
 14 15  1  0
 15 16  1  0
 16 17  2  0
 16 18  1  0
 18 19  2  0
 19 20  1  0
 20 21  2  0
 21 22  1  0
 22 23  2  0
 23 24  1  0
 23 25  1  0
 25 26  2  0
 26 27  1  0
 27 28  2  0
  2 29  1  0
 29 30  2  0
 30 31  1  0
 31 32  2  0
 32 33  1  0
 33 34  2  0
 11  6  1  0
 28 18  1  0
 34 29  1  0
 27 21  1  0
  1 35  1  0
  1 36  1  0
  1 37  1  0
  2 38  1  6
  3 39  1  0
  6 40  1  6
  7 41  1  0
  7 42  1  0
  8 43  1  0
  8 44  1  0
  9 45  1  0
  9 46  1  0
 10 47  1  0
 10 48  1  0
 14 49  1  0
 14 50  1  0
 15 51  1  0
 19 52  1  0
 20 53  1  0
 22 54  1  0
 25 55  1  0
 26 56  1  0
 30 57  1  0
 31 58  1  0
 32 59  1  0
 33 60  1  0
 34 61  1  0
M  END
>  <smiles>  (56) 
C[C@H](NC(=O)C1CCCCN1C(=O)CNC(=O)c1ccc2cc(Cl)ccc2n1)c1ccccc1

>  <score_type>  (56) 
oracle

>  <origin>  (56) 
autodockgpu

>  <m_score__min__energy>  (56) 
-9.6899999999999995

>  <m_primary>  (56) 
energy

>  <rmsd>  (56) 
5.140513793307998

>  <m_score__min__rmsd>  (56) 
5.140513793307998

>  <meeko>  (56) 
{"free_energy": -8.45, "intermolecular_energy": -10.54, "internal_energy": -3.08, "cluster_size": 5, "cluster_id": 7, "rank_in_cluster": 1}

>  <energy>  (56) 
-9.22

>  <cluster_rmsd>  (56) 
1.82

>  <cluster>  (56) 
1

$$$$

     RDKit          3D

 61 64  0  0  1  0  0  0  0  0999 V2000
  141.2380   76.9070  220.7670 C   0  0  0  0  0  0  0  0  0  0  0  0
  140.9780   77.1930  222.2350 C   0  0  2  0  0  0  0  0  0  0  0  0
  139.5750   77.1990  222.5130 N   0  0  0  0  0  0  0  0  0  0  0  0
  138.8710   75.9410  222.6910 C   0  0  0  0  0  0  0  0  0  0  0  0
  139.5900   74.9230  222.5790 O   0  0  0  0  0  0  0  0  0  0  0  0
  137.4540   76.0170  222.9680 C   0  0  1  0  0  0  0  0  0  0  0  0
  136.8620   77.4380  222.8670 C   0  0  0  0  0  0  0  0  0  0  0  0
  135.3460   77.3430  222.8410 C   0  0  0  0  0  0  0  0  0  0  0  0
  134.8160   76.0860  223.4960 C   0  0  0  0  0  0  0  0  0  0  0  0
  135.3150   74.8110  222.8570 C   0  0  0  0  0  0  0  0  0  0  0  0
  136.5570   75.2320  222.1560 N   0  0  0  0  0  0  0  0  0  0  0  0
  136.7380   74.8640  220.8120 C   0  0  0  0  0  0  0  0  0  0  0  0
  136.5720   75.6070  219.8140 O   0  0  0  0  0  0  0  0  0  0  0  0
  137.1660   73.4660  220.5130 C   0  0  0  0  0  0  0  0  0  0  0  0
  137.6750   72.8120  221.7160 N   0  0  0  0  0  0  0  0  0  0  0  0
  137.6920   71.3860  221.8270 C   0  0  0  0  0  0  0  0  0  0  0  0
  137.2660   70.6700  220.8880 O   0  0  0  0  0  0  0  0  0  0  0  0
  138.2130   70.7820  223.0510 C   0  0  0  0  0  0  0  0  0  0  0  0
  137.7480   69.5290  223.4320 C   0  0  0  0  0  0  0  0  0  0  0  0
  138.2050   68.9140  224.5750 C   0  0  0  0  0  0  0  0  0  0  0  0
  139.1420   69.5460  225.3600 C   0  0  0  0  0  0  0  0  0  0  0  0
  139.5750   68.9040  226.4920 C   0  0  0  0  0  0  0  0  0  0  0  0
  140.5270   69.5530  227.2840 C   0  0  0  0  0  0  0  0  0  0  0  0
  141.0670   68.7210  228.7220 Cl  0  0  0  0  0  0  0  0  0  0  0  0
  140.9930   70.7970  226.9120 C   0  0  0  0  0  0  0  0  0  0  0  0
  140.5360   71.4240  225.7580 C   0  0  0  0  0  0  0  0  0  0  0  0
  139.5930   70.7920  224.9650 C   0  0  0  0  0  0  0  0  0  0  0  0
  139.1300   71.3880  223.8290 N   0  0  0  0  0  0  0  0  0  0  0  0
  141.5010   78.5810  222.4940 C   0  0  0  0  0  0  0  0  0  0  0  0
  141.8250   78.8920  223.8130 C   0  0  0  0  0  0  0  0  0  0  0  0
  142.3120   80.1430  224.1370 C   0  0  0  0  0  0  0  0  0  0  0  0
  142.4640   81.0670  223.1170 C   0  0  0  0  0  0  0  0  0  0  0  0
  142.1400   80.7580  221.7940 C   0  0  0  0  0  0  0  0  0  0  0  0
  141.6530   79.5020  221.4790 C   0  0  0  0  0  0  0  0  0  0  0  0
  141.9754   76.0958  220.6765 H   0  0  0  0  0  0  0  0  0  0  0  0
  140.2989   76.6048  220.2804 H   0  0  0  0  0  0  0  0  0  0  0  0
  141.6281   77.8131  220.2804 H   0  0  0  0  0  0  0  0  0  0  0  0
  141.4588   76.4258  222.8597 H   0  0  0  0  0  0  0  0  0  0  0  0
  139.0780   78.1130  222.5840 H   0  0  0  0  0  0  0  0  0  0  0  0
  137.4859   75.6127  223.9905 H   0  0  0  0  0  0  0  0  0  0  0  0
  137.1792   78.0321  223.7368 H   0  0  0  0  0  0  0  0  0  0  0  0
  137.2192   77.9243  221.9472 H   0  0  0  0  0  0  0  0  0  0  0  0
  134.9320   78.2141  223.3700 H   0  0  0  0  0  0  0  0  0  0  0  0
  135.0383   77.3161  221.7853 H   0  0  0  0  0  0  0  0  0  0  0  0
  135.1237   76.0886  224.5521 H   0  0  0  0  0  0  0  0  0  0  0  0
  133.7225   76.0983  223.3772 H   0  0  0  0  0  0  0  0  0  0  0  0
  135.5339   74.0493  223.6198 H   0  0  0  0  0  0  0  0  0  0  0  0
  134.5768   74.3554  222.1806 H   0  0  0  0  0  0  0  0  0  0  0  0
  136.3044   72.8988  220.1310 H   0  0  0  0  0  0  0  0  0  0  0  0
  137.9682   73.4955  219.7609 H   0  0  0  0  0  0  0  0  0  0  0  0
  138.0460   73.3680  222.5350 H   0  0  0  0  0  0  0  0  0  0  0  0
  136.9998   69.0188  222.8075 H   0  0  0  0  0  0  0  0  0  0  0  0
  137.8233   67.9224  224.8597 H   0  0  0  0  0  0  0  0  0  0  0  0
  139.1866   67.9124  226.7674 H   0  0  0  0  0  0  0  0  0  0  0  0
  141.7407   71.3028  227.5405 H   0  0  0  0  0  0  0  0  0  0  0  0
  140.9210   72.4154  225.4770 H   0  0  0  0  0  0  0  0  0  0  0  0
  141.6920   78.1363  224.6012 H   0  0  0  0  0  0  0  0  0  0  0  0
  142.5716   80.3980  225.1751 H   0  0  0  0  0  0  0  0  0  0  0  0
  142.8496   82.0694  223.3546 H   0  0  0  0  0  0  0  0  0  0  0  0
  142.2718   81.5119  221.0039 H   0  0  0  0  0  0  0  0  0  0  0  0
  141.3928   79.2437  220.4419 H   0  0  0  0  0  0  0  0  0  0  0  0
  1  2  1  0
  2  3  1  0
  3  4  1  0
  4  5  2  0
  4  6  1  0
  6  7  1  0
  7  8  1  0
  8  9  1  0
  9 10  1  0
 10 11  1  0
 11 12  1  0
 12 13  2  0
 12 14  1  0
 14 15  1  0
 15 16  1  0
 16 17  2  0
 16 18  1  0
 18 19  2  0
 19 20  1  0
 20 21  2  0
 21 22  1  0
 22 23  2  0
 23 24  1  0
 23 25  1  0
 25 26  2  0
 26 27  1  0
 27 28  2  0
  2 29  1  0
 29 30  2  0
 30 31  1  0
 31 32  2  0
 32 33  1  0
 33 34  2  0
 11  6  1  0
 28 18  1  0
 34 29  1  0
 27 21  1  0
  1 35  1  0
  1 36  1  0
  1 37  1  0
  2 38  1  1
  3 39  1  0
  6 40  1  1
  7 41  1  0
  7 42  1  0
  8 43  1  0
  8 44  1  0
  9 45  1  0
  9 46  1  0
 10 47  1  0
 10 48  1  0
 14 49  1  0
 14 50  1  0
 15 51  1  0
 19 52  1  0
 20 53  1  0
 22 54  1  0
 25 55  1  0
 26 56  1  0
 30 57  1  0
 31 58  1  0
 32 59  1  0
 33 60  1  0
 34 61  1  0
M  END
>  <smiles>  (57) 
C[C@H](NC(=O)C1CCCCN1C(=O)CNC(=O)c1ccc2cc(Cl)ccc2n1)c1ccccc1

>  <score_type>  (57) 
oracle

>  <origin>  (57) 
autodockgpu

>  <m_score__min__energy>  (57) 
-9.6899999999999995

>  <m_primary>  (57) 
energy

>  <rmsd>  (57) 
3.8583468863931403

>  <m_score__min__rmsd>  (57) 
3.8583468863931403

>  <meeko>  (57) 
{"free_energy": -8.5, "intermolecular_energy": -10.59, "internal_energy": -2.87, "cluster_size": 3, "cluster_id": 2, "rank_in_cluster": 3}

>  <energy>  (57) 
-9.04

>  <cluster_rmsd>  (57) 
1.16

>  <cluster>  (57) 
1

$$$$

     RDKit          3D

 61 64  0  0  1  0  0  0  0  0999 V2000
  138.1140   69.3070  223.0270 C   0  0  0  0  0  0  0  0  0  0  0  0
  137.5930   68.9170  224.3980 C   0  0  2  0  0  0  0  0  0  0  0  0
  136.5460   69.7970  224.8170 N   0  0  0  0  0  0  0  0  0  0  0  0
  135.1640   69.3570  224.7440 C   0  0  0  0  0  0  0  0  0  0  0  0
  135.0100   68.1960  224.3020 O   0  0  0  0  0  0  0  0  0  0  0  0
  134.1540   70.2940  225.1810 C   0  0  1  0  0  0  0  0  0  0  0  0
  134.3240   70.7790  226.6360 C   0  0  0  0  0  0  0  0  0  0  0  0
  133.4320   71.9870  226.8630 C   0  0  0  0  0  0  0  0  0  0  0  0
  132.2420   72.0350  225.9290 C   0  0  0  0  0  0  0  0  0  0  0  0
  132.6200   72.0780  224.4670 C   0  0  0  0  0  0  0  0  0  0  0  0
  134.0010   71.5240  224.4440 N   0  0  0  0  0  0  0  0  0  0  0  0
  135.0030   72.2260  223.7530 C   0  0  0  0  0  0  0  0  0  0  0  0
  136.0980   71.7530  223.3600 O   0  0  0  0  0  0  0  0  0  0  0  0
  134.7750   73.6670  223.4440 C   0  0  0  0  0  0  0  0  0  0  0  0
  136.0450   74.3840  223.3510 N   0  0  0  0  0  0  0  0  0  0  0  0
  136.1000   75.7210  222.8470 C   0  0  0  0  0  0  0  0  0  0  0  0
  135.0520   76.3040  222.4740 O   0  0  0  0  0  0  0  0  0  0  0  0
  137.3950   76.3930  222.7750 C   0  0  0  0  0  0  0  0  0  0  0  0
  138.5080   75.6660  222.3730 C   0  0  0  0  0  0  0  0  0  0  0  0
  139.7510   76.2500  222.2860 C   0  0  0  0  0  0  0  0  0  0  0  0
  139.9010   77.5810  222.6020 C   0  0  0  0  0  0  0  0  0  0  0  0
  141.1540   78.1300  222.5040 C   0  0  0  0  0  0  0  0  0  0  0  0
  141.2980   79.4830  222.8270 C   0  0  0  0  0  0  0  0  0  0  0  0
  142.9000   80.1670  222.6970 Cl  0  0  0  0  0  0  0  0  0  0  0  0
  140.1970   80.2120  223.2260 C   0  0  0  0  0  0  0  0  0  0  0  0
  138.9370   79.6280  223.3160 C   0  0  0  0  0  0  0  0  0  0  0  0
  138.7820   78.2890  222.9990 C   0  0  0  0  0  0  0  0  0  0  0  0
  137.5570   77.6950  223.0800 N   0  0  0  0  0  0  0  0  0  0  0  0
  138.7450   69.0910  225.3530 C   0  0  0  0  0  0  0  0  0  0  0  0
  139.3390   70.3500  225.3950 C   0  0  0  0  0  0  0  0  0  0  0  0
  140.4010   70.5940  226.2430 C   0  0  0  0  0  0  0  0  0  0  0  0
  140.8490   69.5550  227.0410 C   0  0  0  0  0  0  0  0  0  0  0  0
  140.2550   68.2910  227.0020 C   0  0  0  0  0  0  0  0  0  0  0  0
  139.1920   68.0570  226.1490 C   0  0  0  0  0  0  0  0  0  0  0  0
  138.9899   69.9627  223.1405 H   0  0  0  0  0  0  0  0  0  0  0  0
  138.4031   68.4015  222.4734 H   0  0  0  0  0  0  0  0  0  0  0  0
  137.3266   69.8395  222.4734 H   0  0  0  0  0  0  0  0  0  0  0  0
  137.2017   67.8892  224.3736 H   0  0  0  0  0  0  0  0  0  0  0  0
  136.7950   70.7460  225.1690 H   0  0  0  0  0  0  0  0  0  0  0  0
  133.2787   69.6477  225.0197 H   0  0  0  0  0  0  0  0  0  0  0  0
  134.0376   69.9739  227.3287 H   0  0  0  0  0  0  0  0  0  0  0  0
  135.3739   71.0539  226.8154 H   0  0  0  0  0  0  0  0  0  0  0  0
  133.0624   71.9586  227.8986 H   0  0  0  0  0  0  0  0  0  0  0  0
  134.0389   72.8827  226.6646 H   0  0  0  0  0  0  0  0  0  0  0  0
  131.6275   71.1393  226.1028 H   0  0  0  0  0  0  0  0  0  0  0  0
  131.6980   72.9656  226.1483 H   0  0  0  0  0  0  0  0  0  0  0  0
  131.9382   71.4574  223.8670 H   0  0  0  0  0  0  0  0  0  0  0  0
  132.5592   73.0900  224.0403 H   0  0  0  0  0  0  0  0  0  0  0  0
  134.2424   73.7505  222.4852 H   0  0  0  0  0  0  0  0  0  0  0  0
  134.1772   74.1113  224.2534 H   0  0  0  0  0  0  0  0  0  0  0  0
  136.9560   73.9400  223.6520 H   0  0  0  0  0  0  0  0  0  0  0  0
  138.3936   74.6019  222.1190 H   0  0  0  0  0  0  0  0  0  0  0  0
  140.6198   75.6563  221.9657 H   0  0  0  0  0  0  0  0  0  0  0  0
  142.0159   77.5269  222.1824 H   0  0  0  0  0  0  0  0  0  0  0  0
  140.3173   81.2760  223.4780 H   0  0  0  0  0  0  0  0  0  0  0  0
  138.0708   80.2255  223.6365 H   0  0  0  0  0  0  0  0  0  0  0  0
  138.9597   71.1551  224.7485 H   0  0  0  0  0  0  0  0  0  0  0  0
  140.8772   71.5848  226.2834 H   0  0  0  0  0  0  0  0  0  0  0  0
  141.6942   69.7292  227.7231 H   0  0  0  0  0  0  0  0  0  0  0  0
  140.6318   67.4843  227.6479 H   0  0  0  0  0  0  0  0  0  0  0  0
  138.7132   67.0676  226.1062 H   0  0  0  0  0  0  0  0  0  0  0  0
  1  2  1  0
  2  3  1  0
  3  4  1  0
  4  5  2  0
  4  6  1  0
  6  7  1  0
  7  8  1  0
  8  9  1  0
  9 10  1  0
 10 11  1  0
 11 12  1  0
 12 13  2  0
 12 14  1  0
 14 15  1  0
 15 16  1  0
 16 17  2  0
 16 18  1  0
 18 19  2  0
 19 20  1  0
 20 21  2  0
 21 22  1  0
 22 23  2  0
 23 24  1  0
 23 25  1  0
 25 26  2  0
 26 27  1  0
 27 28  2  0
  2 29  1  0
 29 30  2  0
 30 31  1  0
 31 32  2  0
 32 33  1  0
 33 34  2  0
 11  6  1  0
 28 18  1  0
 34 29  1  0
 27 21  1  0
  1 35  1  0
  1 36  1  0
  1 37  1  0
  2 38  1  6
  3 39  1  0
  6 40  1  1
  7 41  1  0
  7 42  1  0
  8 43  1  0
  8 44  1  0
  9 45  1  0
  9 46  1  0
 10 47  1  0
 10 48  1  0
 14 49  1  0
 14 50  1  0
 15 51  1  0
 19 52  1  0
 20 53  1  0
 22 54  1  0
 25 55  1  0
 26 56  1  0
 30 57  1  0
 31 58  1  0
 32 59  1  0
 33 60  1  0
 34 61  1  0
M  END
>  <smiles>  (58) 
C[C@H](NC(=O)C1CCCCN1C(=O)CNC(=O)c1ccc2cc(Cl)ccc2n1)c1ccccc1

>  <score_type>  (58) 
oracle

>  <origin>  (58) 
autodockgpu

>  <m_score__min__energy>  (58) 
-9.6899999999999995

>  <m_primary>  (58) 
energy

>  <rmsd>  (58) 
10.497155055333433

>  <m_score__min__rmsd>  (58) 
10.497155055333433

>  <meeko>  (58) 
{"free_energy": -8.76, "intermolecular_energy": -10.84, "internal_energy": -2.67, "cluster_size": 6, "cluster_id": 5, "rank_in_cluster": 2}

>  <energy>  (58) 
-8.98

>  <cluster_rmsd>  (58) 
1.22

>  <cluster>  (58) 
1

$$$$

     RDKit          3D

 61 64  0  0  1  0  0  0  0  0999 V2000
  139.2510   77.9120  222.7270 C   0  0  0  0  0  0  0  0  0  0  0  0
  140.0540   78.7000  221.7090 C   0  0  2  0  0  0  0  0  0  0  0  0
  140.8060   77.8250  220.8640 N   0  0  0  0  0  0  0  0  0  0  0  0
  140.6160   77.8750  219.4250 C   0  0  0  0  0  0  0  0  0  0  0  0
  139.7730   78.7160  219.0410 O   0  0  0  0  0  0  0  0  0  0  0  0
  141.4060   76.9630  218.6280 C   0  0  1  0  0  0  0  0  0  0  0  0
  142.9100   77.3050  218.5760 C   0  0  0  0  0  0  0  0  0  0  0  0
  143.6680   76.1170  218.0100 C   0  0  0  0  0  0  0  0  0  0  0  0
  142.8160   75.2290  217.1280 C   0  0  0  0  0  0  0  0  0  0  0  0
  141.6140   74.6460  217.8340 C   0  0  0  0  0  0  0  0  0  0  0  0
  141.4010   75.5660  218.9840 N   0  0  0  0  0  0  0  0  0  0  0  0
  141.2400   75.0220  220.2690 C   0  0  0  0  0  0  0  0  0  0  0  0
  142.0800   75.0680  221.2010 O   0  0  0  0  0  0  0  0  0  0  0  0
  139.9620   74.3180  220.5850 C   0  0  0  0  0  0  0  0  0  0  0  0
  140.1320   73.4300  221.7330 N   0  0  0  0  0  0  0  0  0  0  0  0
  139.2760   72.3000  221.9210 C   0  0  0  0  0  0  0  0  0  0  0  0
  138.3590   72.0530  221.1000 O   0  0  0  0  0  0  0  0  0  0  0  0
  139.4870   71.4430  223.0850 C   0  0  0  0  0  0  0  0  0  0  0  0
  139.0400   70.1290  223.0420 C   0  0  0  0  0  0  0  0  0  0  0  0
  139.2140   69.2790  224.1100 C   0  0  0  0  0  0  0  0  0  0  0  0
  139.8430   69.7330  225.2460 C   0  0  0  0  0  0  0  0  0  0  0  0
  139.9990   68.8580  226.2910 C   0  0  0  0  0  0  0  0  0  0  0  0
  140.6400   69.3280  227.4420 C   0  0  0  0  0  0  0  0  0  0  0  0
  140.8310   68.2010  228.7630 Cl  0  0  0  0  0  0  0  0  0  0  0  0
  141.0880   70.6320  227.4920 C   0  0  0  0  0  0  0  0  0  0  0  0
  140.9150   71.4970  226.4160 C   0  0  0  0  0  0  0  0  0  0  0  0
  140.2820   71.0440  225.2710 C   0  0  0  0  0  0  0  0  0  0  0  0
  140.1020   71.8740  224.2040 N   0  0  0  0  0  0  0  0  0  0  0  0
  141.0340   79.5310  222.4950 C   0  0  0  0  0  0  0  0  0  0  0  0
  142.3830   79.2130  222.3490 C   0  0  0  0  0  0  0  0  0  0  0  0
  143.3470   79.9250  223.0350 C   0  0  0  0  0  0  0  0  0  0  0  0
  142.9310   80.9550  223.8630 C   0  0  0  0  0  0  0  0  0  0  0  0
  141.5800   81.2760  224.0110 C   0  0  0  0  0  0  0  0  0  0  0  0
  140.6210   80.5560  223.3190 C   0  0  0  0  0  0  0  0  0  0  0  0
  139.5536   78.2089  223.7420 H   0  0  0  0  0  0  0  0  0  0  0  0
  138.1796   78.1189  222.5885 H   0  0  0  0  0  0  0  0  0  0  0  0
  139.4377   76.8368  222.5885 H   0  0  0  0  0  0  0  0  0  0  0  0
  139.3804   79.3031  221.0825 H   0  0  0  0  0  0  0  0  0  0  0  0
  141.4830   77.1620  221.2990 H   0  0  0  0  0  0  0  0  0  0  0  0
  140.8764   77.1085  217.6749 H   0  0  0  0  0  0  0  0  0  0  0  0
  143.0665   78.1830  217.9321 H   0  0  0  0  0  0  0  0  0  0  0  0
  143.2751   77.5304  219.5889 H   0  0  0  0  0  0  0  0  0  0  0  0
  144.5129   76.4933  217.4146 H   0  0  0  0  0  0  0  0  0  0  0  0
  144.0013   75.5067  218.8623 H   0  0  0  0  0  0  0  0  0  0  0  0
  142.4619   75.8249  216.2739 H   0  0  0  0  0  0  0  0  0  0  0  0
  143.4475   74.3838  216.8169 H   0  0  0  0  0  0  0  0  0  0  0  0
  140.7361   74.6364  217.1713 H   0  0  0  0  0  0  0  0  0  0  0  0
  141.7668   73.6021  218.1453 H   0  0  0  0  0  0  0  0  0  0  0  0
  139.1868   75.0633  220.8166 H   0  0  0  0  0  0  0  0  0  0  0  0
  139.6646   73.7164  219.7134 H   0  0  0  0  0  0  0  0  0  0  0  0
  140.8870   73.5930  222.4540 H   0  0  0  0  0  0  0  0  0  0  0  0
  138.5367   69.7602  222.1361 H   0  0  0  0  0  0  0  0  0  0  0  0
  138.8520   68.2417  224.0556 H   0  0  0  0  0  0  0  0  0  0  0  0
  139.6327   67.8228  226.2260 H   0  0  0  0  0  0  0  0  0  0  0  0
  141.5917   70.9948  228.4001 H   0  0  0  0  0  0  0  0  0  0  0  0
  141.2786   72.5335  226.4746 H   0  0  0  0  0  0  0  0  0  0  0  0
  142.6817   78.3898  221.6833 H   0  0  0  0  0  0  0  0  0  0  0  0
  144.4143   79.6815  222.9272 H   0  0  0  0  0  0  0  0  0  0  0  0
  143.6837   81.5344  224.4177 H   0  0  0  0  0  0  0  0  0  0  0  0
  141.2785   82.0989  224.6758 H   0  0  0  0  0  0  0  0  0  0  0  0
  139.5528   80.7967  223.4245 H   0  0  0  0  0  0  0  0  0  0  0  0
  1  2  1  0
  2  3  1  0
  3  4  1  0
  4  5  2  0
  4  6  1  0
  6  7  1  0
  7  8  1  0
  8  9  1  0
  9 10  1  0
 10 11  1  0
 11 12  1  0
 12 13  2  0
 12 14  1  0
 14 15  1  0
 15 16  1  0
 16 17  2  0
 16 18  1  0
 18 19  2  0
 19 20  1  0
 20 21  2  0
 21 22  1  0
 22 23  2  0
 23 24  1  0
 23 25  1  0
 25 26  2  0
 26 27  1  0
 27 28  2  0
  2 29  1  0
 29 30  2  0
 30 31  1  0
 31 32  2  0
 32 33  1  0
 33 34  2  0
 11  6  1  0
 28 18  1  0
 34 29  1  0
 27 21  1  0
  1 35  1  0
  1 36  1  0
  1 37  1  0
  2 38  1  6
  3 39  1  0
  6 40  1  6
  7 41  1  0
  7 42  1  0
  8 43  1  0
  8 44  1  0
  9 45  1  0
  9 46  1  0
 10 47  1  0
 10 48  1  0
 14 49  1  0
 14 50  1  0
 15 51  1  0
 19 52  1  0
 20 53  1  0
 22 54  1  0
 25 55  1  0
 26 56  1  0
 30 57  1  0
 31 58  1  0
 32 59  1  0
 33 60  1  0
 34 61  1  0
M  END
>  <smiles>  (59) 
C[C@H](NC(=O)C1CCCCN1C(=O)CNC(=O)c1ccc2cc(Cl)ccc2n1)c1ccccc1

>  <score_type>  (59) 
oracle

>  <origin>  (59) 
autodockgpu

>  <m_score__min__energy>  (59) 
-9.6899999999999995

>  <m_primary>  (59) 
energy

>  <rmsd>  (59) 
2.824910804043655

>  <m_score__min__rmsd>  (59) 
2.824910804043655

>  <meeko>  (59) 
{"free_energy": -8.25, "intermolecular_energy": -10.34, "internal_energy": -3.25, "cluster_size": 14, "cluster_id": 1, "rank_in_cluster": 12}

>  <energy>  (59) 
-8.79

>  <cluster_rmsd>  (59) 
1.2

>  <cluster>  (59) 
1

$$$$

     RDKit          3D

 61 64  0  0  1  0  0  0  0  0999 V2000
  141.7590   71.6880  219.3750 C   0  0  0  0  0  0  0  0  0  0  0  0
  142.1170   72.7080  220.4410 C   0  0  2  0  0  0  0  0  0  0  0  0
  141.5690   73.9910  220.1250 N   0  0  0  0  0  0  0  0  0  0  0  0
  140.9850   74.8030  221.1780 C   0  0  0  0  0  0  0  0  0  0  0  0
  141.0150   74.2800  222.3150 O   0  0  0  0  0  0  0  0  0  0  0  0
  140.4470   76.0880  220.7920 C   0  0  1  0  0  0  0  0  0  0  0  0
  140.3450   76.3020  219.2670 C   0  0  0  0  0  0  0  0  0  0  0  0
  139.4720   77.5140  218.9940 C   0  0  0  0  0  0  0  0  0  0  0  0
  139.4410   78.4990  220.1440 C   0  0  0  0  0  0  0  0  0  0  0  0
  138.9260   77.9090  221.4350 C   0  0  0  0  0  0  0  0  0  0  0  0
  139.1310   76.4460  221.2600 N   0  0  0  0  0  0  0  0  0  0  0  0
  138.0660   75.5720  221.5340 C   0  0  0  0  0  0  0  0  0  0  0  0
  136.9980   75.8710  222.1230 O   0  0  0  0  0  0  0  0  0  0  0  0
  138.1860   74.1490  221.0980 C   0  0  0  0  0  0  0  0  0  0  0  0
  138.6160   73.3030  222.2090 N   0  0  0  0  0  0  0  0  0  0  0  0
  138.4470   71.8840  222.1610 C   0  0  0  0  0  0  0  0  0  0  0  0
  137.9210   71.3400  221.1590 O   0  0  0  0  0  0  0  0  0  0  0  0
  138.8940   71.0830  223.2980 C   0  0  0  0  0  0  0  0  0  0  0  0
  138.6120   69.7230  223.3140 C   0  0  0  0  0  0  0  0  0  0  0  0
  139.0110   68.9220  224.3590 C   0  0  0  0  0  0  0  0  0  0  0  0
  139.7040   69.4730  225.4130 C   0  0  0  0  0  0  0  0  0  0  0  0
  140.0850   68.6450  226.4380 C   0  0  0  0  0  0  0  0  0  0  0  0
  140.7880   69.2130  227.5050 C   0  0  0  0  0  0  0  0  0  0  0  0
  141.2660   68.1450  228.8010 Cl  0  0  0  0  0  0  0  0  0  0  0  0
  141.0720   70.5630  227.4960 C   0  0  0  0  0  0  0  0  0  0  0  0
  140.6720   71.3780  226.4420 C   0  0  0  0  0  0  0  0  0  0  0  0
  139.9750   70.8280  225.3800 C   0  0  0  0  0  0  0  0  0  0  0  0
  139.5730   71.6080  224.3360 N   0  0  0  0  0  0  0  0  0  0  0  0
  143.6180   72.8330  220.4180 C   0  0  0  0  0  0  0  0  0  0  0  0
  144.1510   74.0530  220.8290 C   0  0  0  0  0  0  0  0  0  0  0  0
  145.5170   74.2510  220.8380 C   0  0  0  0  0  0  0  0  0  0  0  0
  146.3300   73.2070  220.4290 C   0  0  0  0  0  0  0  0  0  0  0  0
  145.7980   71.9830  220.0160 C   0  0  0  0  0  0  0  0  0  0  0  0
  144.4280   71.7940  220.0110 C   0  0  0  0  0  0  0  0  0  0  0  0
  141.4314   70.7546  219.8560 H   0  0  0  0  0  0  0  0  0  0  0  0
  140.9457   72.0827  218.7483 H   0  0  0  0  0  0  0  0  0  0  0  0
  142.6406   71.4878  218.7483 H   0  0  0  0  0  0  0  0  0  0  0  0
  141.7242   72.3875  221.4172 H   0  0  0  0  0  0  0  0  0  0  0  0
  141.5990   74.3230  219.1370 H   0  0  0  0  0  0  0  0  0  0  0  0
  141.2039   76.7143  221.2868 H   0  0  0  0  0  0  0  0  0  0  0  0
  141.3491   76.4697  218.8503 H   0  0  0  0  0  0  0  0  0  0  0  0
  139.9021   75.4120  218.7961 H   0  0  0  0  0  0  0  0  0  0  0  0
  139.8587   78.0296  218.1026 H   0  0  0  0  0  0  0  0  0  0  0  0
  138.4443   77.1500  218.8480 H   0  0  0  0  0  0  0  0  0  0  0  0
  140.4637   78.8668  220.3139 H   0  0  0  0  0  0  0  0  0  0  0  0
  138.7474   79.3038  219.8592 H   0  0  0  0  0  0  0  0  0  0  0  0
  139.4996   78.2855  222.2948 H   0  0  0  0  0  0  0  0  0  0  0  0
  137.8768   78.1717  221.6353 H   0  0  0  0  0  0  0  0  0  0  0  0
  137.2085   73.7989  220.7349 H   0  0  0  0  0  0  0  0  0  0  0  0
  138.9358   74.0870  220.2955 H   0  0  0  0  0  0  0  0  0  0  0  0
  139.0640   73.7110  223.0760 H   0  0  0  0  0  0  0  0  0  0  0  0
  138.0585   69.2774  222.4743 H   0  0  0  0  0  0  0  0  0  0  0  0
  138.7775   67.8471  224.3523 H   0  0  0  0  0  0  0  0  0  0  0  0
  139.8459   67.5714  226.4212 H   0  0  0  0  0  0  0  0  0  0  0  0
  141.6254   71.0034  228.3385 H   0  0  0  0  0  0  0  0  0  0  0  0
  140.9080   72.4523  226.4524 H   0  0  0  0  0  0  0  0  0  0  0  0
  143.4791   74.8633  221.1482 H   0  0  0  0  0  0  0  0  0  0  0  0
  145.9475   75.2104  221.1607 H   0  0  0  0  0  0  0  0  0  0  0  0
  147.4213   73.3449  220.4294 H   0  0  0  0  0  0  0  0  0  0  0  0
  146.4675   71.1712  219.6954 H   0  0  0  0  0  0  0  0  0  0  0  0
  143.9940   70.8358  219.6894 H   0  0  0  0  0  0  0  0  0  0  0  0
  1  2  1  0
  2  3  1  0
  3  4  1  0
  4  5  2  0
  4  6  1  0
  6  7  1  0
  7  8  1  0
  8  9  1  0
  9 10  1  0
 10 11  1  0
 11 12  1  0
 12 13  2  0
 12 14  1  0
 14 15  1  0
 15 16  1  0
 16 17  2  0
 16 18  1  0
 18 19  2  0
 19 20  1  0
 20 21  2  0
 21 22  1  0
 22 23  2  0
 23 24  1  0
 23 25  1  0
 25 26  2  0
 26 27  1  0
 27 28  2  0
  2 29  1  0
 29 30  2  0
 30 31  1  0
 31 32  2  0
 32 33  1  0
 33 34  2  0
 11  6  1  0
 28 18  1  0
 34 29  1  0
 27 21  1  0
  1 35  1  0
  1 36  1  0
  1 37  1  0
  2 38  1  1
  3 39  1  0
  6 40  1  1
  7 41  1  0
  7 42  1  0
  8 43  1  0
  8 44  1  0
  9 45  1  0
  9 46  1  0
 10 47  1  0
 10 48  1  0
 14 49  1  0
 14 50  1  0
 15 51  1  0
 19 52  1  0
 20 53  1  0
 22 54  1  0
 25 55  1  0
 26 56  1  0
 30 57  1  0
 31 58  1  0
 32 59  1  0
 33 60  1  0
 34 61  1  0
M  END
>  <smiles>  (60) 
C[C@H](NC(=O)C1CCCCN1C(=O)CNC(=O)c1ccc2cc(Cl)ccc2n1)c1ccccc1

>  <score_type>  (60) 
oracle

>  <origin>  (60) 
autodockgpu

>  <m_score__min__energy>  (60) 
-9.6899999999999995

>  <m_primary>  (60) 
energy

>  <rmsd>  (60) 
5.60302399255936

>  <m_score__min__rmsd>  (60) 
5.60302399255936

>  <meeko>  (60) 
{"free_energy": -8.17, "intermolecular_energy": -10.26, "internal_energy": -2.8, "cluster_size": 7, "cluster_id": 8, "rank_in_cluster": 5}

>  <energy>  (60) 
-8.45

>  <cluster_rmsd>  (60) 
1.97

>  <cluster>  (60) 
1

$$$$

     RDKit          3D

 61 64  0  0  1  0  0  0  0  0999 V2000
  143.5990   76.1150  218.3350 C   0  0  0  0  0  0  0  0  0  0  0  0
  142.5480   75.5440  219.2700 C   0  0  2  0  0  0  0  0  0  0  0  0
  142.2970   76.4340  220.3610 N   0  0  0  0  0  0  0  0  0  0  0  0
  142.0660   77.8440  220.1010 C   0  0  0  0  0  0  0  0  0  0  0  0
  142.1090   78.1640  218.8920 O   0  0  0  0  0  0  0  0  0  0  0  0
  141.8200   78.6900  221.2480 C   0  0  1  0  0  0  0  0  0  0  0  0
  141.0020   79.9610  220.9350 C   0  0  0  0  0  0  0  0  0  0  0  0
  140.5260   80.5760  222.2390 C   0  0  0  0  0  0  0  0  0  0  0  0
  141.3990   80.2180  223.4230 C   0  0  0  0  0  0  0  0  0  0  0  0
  141.4880   78.7320  223.6830 C   0  0  0  0  0  0  0  0  0  0  0  0
  141.1230   78.1240  222.3760 N   0  0  0  0  0  0  0  0  0  0  0  0
  140.1550   77.1050  222.3470 C   0  0  0  0  0  0  0  0  0  0  0  0
  140.3800   75.8720  222.4240 O   0  0  0  0  0  0  0  0  0  0  0  0
  138.7210   77.4930  222.2110 C   0  0  0  0  0  0  0  0  0  0  0  0
  137.8610   76.5540  222.9280 N   0  0  0  0  0  0  0  0  0  0  0  0
  136.4680   76.8230  223.1080 C   0  0  0  0  0  0  0  0  0  0  0  0
  135.9590   77.8760  222.6520 O   0  0  0  0  0  0  0  0  0  0  0  0
  135.6520   75.8510  223.8320 C   0  0  0  0  0  0  0  0  0  0  0  0
  135.7360   74.5090  223.4830 C   0  0  0  0  0  0  0  0  0  0  0  0
  134.9900   73.5530  224.1320 C   0  0  0  0  0  0  0  0  0  0  0  0
  134.1420   73.9260  225.1500 C   0  0  0  0  0  0  0  0  0  0  0  0
  133.4140   72.9470  225.7750 C   0  0  0  0  0  0  0  0  0  0  0  0
  132.5550   73.3340  226.8080 C   0  0  0  0  0  0  0  0  0  0  0  0
  131.6350   72.0750  227.5940 Cl  0  0  0  0  0  0  0  0  0  0  0  0
  132.4660   74.6660  227.1610 C   0  0  0  0  0  0  0  0  0  0  0  0
  133.2180   75.6370  226.5080 C   0  0  0  0  0  0  0  0  0  0  0  0
  134.0720   75.2660  225.4840 C   0  0  0  0  0  0  0  0  0  0  0  0
  134.8180   76.2020  224.8300 N   0  0  0  0  0  0  0  0  0  0  0  0
  143.1320   74.2770  219.8390 C   0  0  0  0  0  0  0  0  0  0  0  0
  142.2920   73.1670  219.8880 C   0  0  0  0  0  0  0  0  0  0  0  0
  142.7480   71.9670  220.3940 C   0  0  0  0  0  0  0  0  0  0  0  0
  144.0560   71.9060  220.8470 C   0  0  0  0  0  0  0  0  0  0  0  0
  144.9010   73.0170  220.7980 C   0  0  0  0  0  0  0  0  0  0  0  0
  144.4340   74.2150  220.2890 C   0  0  0  0  0  0  0  0  0  0  0  0
  144.4141   76.5578  218.9263 H   0  0  0  0  0  0  0  0  0  0  0  0
  144.0010   75.3113  217.7007 H   0  0  0  0  0  0  0  0  0  0  0  0
  143.1435   76.8896  217.7007 H   0  0  0  0  0  0  0  0  0  0  0  0
  141.6071   75.3801  218.7242 H   0  0  0  0  0  0  0  0  0  0  0  0
  142.2850   76.0520  221.3320 H   0  0  0  0  0  0  0  0  0  0  0  0
  142.8700   78.8819  221.5137 H   0  0  0  0  0  0  0  0  0  0  0  0
  141.6334   80.6825  220.3958 H   0  0  0  0  0  0  0  0  0  0  0  0
  140.1359   79.7007  220.3088 H   0  0  0  0  0  0  0  0  0  0  0  0
  140.5203   81.6703  222.1275 H   0  0  0  0  0  0  0  0  0  0  0  0
  139.5218   80.1751  222.4412 H   0  0  0  0  0  0  0  0  0  0  0  0
  142.4135   80.5993  223.2347 H   0  0  0  0  0  0  0  0  0  0  0  0
  140.9386   80.6736  224.3121 H   0  0  0  0  0  0  0  0  0  0  0  0
  142.5084   78.4456  223.9777 H   0  0  0  0  0  0  0  0  0  0  0  0
  140.8344   78.4026  224.5042 H   0  0  0  0  0  0  0  0  0  0  0  0
  138.5790   78.5017  222.6261 H   0  0  0  0  0  0  0  0  0  0  0  0
  138.4501   77.4770  221.1450 H   0  0  0  0  0  0  0  0  0  0  0  0
  138.2390   75.6530  223.3310 H   0  0  0  0  0  0  0  0  0  0  0  0
  136.4129   74.2048  222.6711 H   0  0  0  0  0  0  0  0  0  0  0  0
  135.0707   72.4958  223.8390 H   0  0  0  0  0  0  0  0  0  0  0  0
  133.5026   71.8927  225.4740 H   0  0  0  0  0  0  0  0  0  0  0  0
  131.7877   74.9648  227.9738 H   0  0  0  0  0  0  0  0  0  0  0  0
  133.1345   76.6932  226.8036 H   0  0  0  0  0  0  0  0  0  0  0  0
  141.2582   73.2476  219.5209 H   0  0  0  0  0  0  0  0  0  0  0  0
  142.0924   71.0848  220.4365 H   0  0  0  0  0  0  0  0  0  0  0  0
  144.4385   70.9589  221.2554 H   0  0  0  0  0  0  0  0  0  0  0  0
  145.9356   72.9392  221.1635 H   0  0  0  0  0  0  0  0  0  0  0  0
  145.0869   75.0992  220.2441 H   0  0  0  0  0  0  0  0  0  0  0  0
  1  2  1  0
  2  3  1  0
  3  4  1  0
  4  5  2  0
  4  6  1  0
  6  7  1  0
  7  8  1  0
  8  9  1  0
  9 10  1  0
 10 11  1  0
 11 12  1  0
 12 13  2  0
 12 14  1  0
 14 15  1  0
 15 16  1  0
 16 17  2  0
 16 18  1  0
 18 19  2  0
 19 20  1  0
 20 21  2  0
 21 22  1  0
 22 23  2  0
 23 24  1  0
 23 25  1  0
 25 26  2  0
 26 27  1  0
 27 28  2  0
  2 29  1  0
 29 30  2  0
 30 31  1  0
 31 32  2  0
 32 33  1  0
 33 34  2  0
 11  6  1  0
 28 18  1  0
 34 29  1  0
 27 21  1  0
  1 35  1  0
  1 36  1  0
  1 37  1  0
  2 38  1  6
  3 39  1  0
  6 40  1  1
  7 41  1  0
  7 42  1  0
  8 43  1  0
  8 44  1  0
  9 45  1  0
  9 46  1  0
 10 47  1  0
 10 48  1  0
 14 49  1  0
 14 50  1  0
 15 51  1  0
 19 52  1  0
 20 53  1  0
 22 54  1  0
 25 55  1  0
 26 56  1  0
 30 57  1  0
 31 58  1  0
 32 59  1  0
 33 60  1  0
 34 61  1  0
M  END
>  <smiles>  (61) 
C[C@H](NC(=O)C1CCCCN1C(=O)CNC(=O)c1ccc2cc(Cl)ccc2n1)c1ccccc1

>  <score_type>  (61) 
oracle

>  <origin>  (61) 
autodockgpu

>  <m_score__min__energy>  (61) 
-9.6899999999999995

>  <m_primary>  (61) 
energy

>  <rmsd>  (61) 
6.952801547732522

>  <m_score__min__rmsd>  (61) 
6.952801547732522

>  <meeko>  (61) 
{"free_energy": -8.32, "intermolecular_energy": -10.41, "internal_energy": -2.52, "cluster_size": 1, "cluster_id": 9, "rank_in_cluster": 1}

>  <energy>  (61) 
-8.3

>  <cluster_rmsd>  (61) 
1.96

>  <cluster>  (61) 
1

$$$$

     RDKit          3D

 61 64  0  0  1  0  0  0  0  0999 V2000
  140.6540   78.3290  219.7980 C   0  0  0  0  0  0  0  0  0  0  0  0
  140.6720   77.6990  221.1790 C   0  0  2  0  0  0  0  0  0  0  0  0
  139.3430   77.5120  221.6730 N   0  0  0  0  0  0  0  0  0  0  0  0
  138.9950   76.2770  222.3530 C   0  0  0  0  0  0  0  0  0  0  0  0
  139.9320   75.4530  222.4470 O   0  0  0  0  0  0  0  0  0  0  0  0
  137.6350   76.1520  222.8270 C   0  0  1  0  0  0  0  0  0  0  0  0
  136.7340   77.3620  222.5010 C   0  0  0  0  0  0  0  0  0  0  0  0
  135.2840   76.9770  222.7370 C   0  0  0  0  0  0  0  0  0  0  0  0
  135.1200   75.8520  223.7370 C   0  0  0  0  0  0  0  0  0  0  0  0
  135.8180   74.5750  223.3330 C   0  0  0  0  0  0  0  0  0  0  0  0
  136.8530   75.0310  222.3670 N   0  0  0  0  0  0  0  0  0  0  0  0
  136.9660   74.3720  221.1310 C   0  0  0  0  0  0  0  0  0  0  0  0
  136.1010   74.3560  220.2210 O   0  0  0  0  0  0  0  0  0  0  0  0
  138.2180   73.6120  220.8450 C   0  0  0  0  0  0  0  0  0  0  0  0
  138.7700   73.0440  222.0730 N   0  0  0  0  0  0  0  0  0  0  0  0
  138.8170   71.6290  222.2720 C   0  0  0  0  0  0  0  0  0  0  0  0
  138.3810   70.8470  221.3910 O   0  0  0  0  0  0  0  0  0  0  0  0
  139.3780   71.1110  223.5170 C   0  0  0  0  0  0  0  0  0  0  0  0
  140.3210   71.8730  224.1980 C   0  0  0  0  0  0  0  0  0  0  0  0
  140.8800   71.4330  225.3750 C   0  0  0  0  0  0  0  0  0  0  0  0
  140.5040   70.2160  225.8960 C   0  0  0  0  0  0  0  0  0  0  0  0
  141.0820   69.8100  227.0710 C   0  0  0  0  0  0  0  0  0  0  0  0
  140.6940   68.5730  227.5930 C   0  0  0  0  0  0  0  0  0  0  0  0
  141.4400   68.0700  229.0900 Cl  0  0  0  0  0  0  0  0  0  0  0  0
  139.7580   67.8110  226.9230 C   0  0  0  0  0  0  0  0  0  0  0  0
  139.1880   68.2500  225.7330 C   0  0  0  0  0  0  0  0  0  0  0  0
  139.5640   69.4730  225.2050 C   0  0  0  0  0  0  0  0  0  0  0  0
  139.0190   69.9230  224.0390 N   0  0  0  0  0  0  0  0  0  0  0  0
  141.3620   78.6850  222.0850 C   0  0  0  0  0  0  0  0  0  0  0  0
  141.8760   79.8320  221.4850 C   0  0  0  0  0  0  0  0  0  0  0  0
  142.5240   80.7870  222.2440 C   0  0  0  0  0  0  0  0  0  0  0  0
  142.6430   80.5670  223.6060 C   0  0  0  0  0  0  0  0  0  0  0  0
  142.1280   79.4170  224.2100 C   0  0  0  0  0  0  0  0  0  0  0  0
  141.4810   78.4660  223.4410 C   0  0  0  0  0  0  0  0  0  0  0  0
  140.6227   79.4243  219.8950 H   0  0  0  0  0  0  0  0  0  0  0  0
  141.5609   78.0353  219.2491 H   0  0  0  0  0  0  0  0  0  0  0  0
  139.7653   77.9840  219.2491 H   0  0  0  0  0  0  0  0  0  0  0  0
  141.1750   76.7215  221.1403 H   0  0  0  0  0  0  0  0  0  0  0  0
  138.6420   78.2720  221.5350 H   0  0  0  0  0  0  0  0  0  0  0  0
  137.8658   76.0360  223.8962 H   0  0  0  0  0  0  0  0  0  0  0  0
  137.0018   78.2072  223.1522 H   0  0  0  0  0  0  0  0  0  0  0  0
  136.8738   77.6570  221.4506 H   0  0  0  0  0  0  0  0  0  0  0  0
  134.7447   77.8593  223.1121 H   0  0  0  0  0  0  0  0  0  0  0  0
  134.8799   76.6224  221.7773 H   0  0  0  0  0  0  0  0  0  0  0  0
  135.5314   76.1824  224.7022 H   0  0  0  0  0  0  0  0  0  0  0  0
  134.0448   75.6267  223.7945 H   0  0  0  0  0  0  0  0  0  0  0  0
  136.2812   74.0884  224.2040 H   0  0  0  0  0  0  0  0  0  0  0  0
  135.1314   73.8308  222.9032 H   0  0  0  0  0  0  0  0  0  0  0  0
  137.9932   72.7981  220.1400 H   0  0  0  0  0  0  0  0  0  0  0  0
  138.9578   74.3003  220.4103 H   0  0  0  0  0  0  0  0  0  0  0  0
  139.1500   73.6570  222.8450 H   0  0  0  0  0  0  0  0  0  0  0  0
  140.6258   72.8468  223.7872 H   0  0  0  0  0  0  0  0  0  0  0  0
  141.6246   72.0513  225.8978 H   0  0  0  0  0  0  0  0  0  0  0  0
  141.8257   70.4364  227.5853 H   0  0  0  0  0  0  0  0  0  0  0  0
  139.4573   66.8379  227.3384 H   0  0  0  0  0  0  0  0  0  0  0  0
  138.4427   67.6290  225.2144 H   0  0  0  0  0  0  0  0  0  0  0  0
  141.7653   79.9782  220.4004 H   0  0  0  0  0  0  0  0  0  0  0  0
  142.9338   81.6962  221.7798 H   0  0  0  0  0  0  0  0  0  0  0  0
  143.1555   81.3159  224.2277 H   0  0  0  0  0  0  0  0  0  0  0  0
  142.2367   79.2681  225.2944 H   0  0  0  0  0  0  0  0  0  0  0  0
  141.0706   77.5552  223.9014 H   0  0  0  0  0  0  0  0  0  0  0  0
  1  2  1  0
  2  3  1  0
  3  4  1  0
  4  5  2  0
  4  6  1  0
  6  7  1  0
  7  8  1  0
  8  9  1  0
  9 10  1  0
 10 11  1  0
 11 12  1  0
 12 13  2  0
 12 14  1  0
 14 15  1  0
 15 16  1  0
 16 17  2  0
 16 18  1  0
 18 19  2  0
 19 20  1  0
 20 21  2  0
 21 22  1  0
 22 23  2  0
 23 24  1  0
 23 25  1  0
 25 26  2  0
 26 27  1  0
 27 28  2  0
  2 29  1  0
 29 30  2  0
 30 31  1  0
 31 32  2  0
 32 33  1  0
 33 34  2  0
 11  6  1  0
 28 18  1  0
 34 29  1  0
 27 21  1  0
  1 35  1  0
  1 36  1  0
  1 37  1  0
  2 38  1  6
  3 39  1  0
  6 40  1  1
  7 41  1  0
  7 42  1  0
  8 43  1  0
  8 44  1  0
  9 45  1  0
  9 46  1  0
 10 47  1  0
 10 48  1  0
 14 49  1  0
 14 50  1  0
 15 51  1  0
 19 52  1  0
 20 53  1  0
 22 54  1  0
 25 55  1  0
 26 56  1  0
 30 57  1  0
 31 58  1  0
 32 59  1  0
 33 60  1  0
 34 61  1  0
M  END
>  <smiles>  (62) 
C[C@H](NC(=O)C1CCCCN1C(=O)CNC(=O)c1ccc2cc(Cl)ccc2n1)c1ccccc1

>  <score_type>  (62) 
oracle

>  <origin>  (62) 
autodockgpu

>  <m_score__min__energy>  (62) 
-9.6899999999999995

>  <m_primary>  (62) 
energy

>  <rmsd>  (62) 
4.32961667387044

>  <m_score__min__rmsd>  (62) 
4.32961667387044

>  <meeko>  (62) 
{"free_energy": -9.21, "intermolecular_energy": -11.3, "internal_energy": -2.57, "cluster_size": 3, "cluster_id": 2, "rank_in_cluster": 1}

>  <energy>  (62) 
-8.25

>  <cluster_rmsd>  (62) 
1.33

>  <cluster>  (62) 
1

$$$$

     RDKit          3D

 61 64  0  0  1  0  0  0  0  0999 V2000
  141.7380   72.7010  218.6480 C   0  0  0  0  0  0  0  0  0  0  0  0
  142.0690   72.9960  220.0990 C   0  0  2  0  0  0  0  0  0  0  0  0
  141.5410   74.2650  220.4960 N   0  0  0  0  0  0  0  0  0  0  0  0
  140.7690   74.3720  221.7210 C   0  0  0  0  0  0  0  0  0  0  0  0
  140.6310   73.2960  222.3440 O   0  0  0  0  0  0  0  0  0  0  0  0
  140.2630   75.6820  222.0640 C   0  0  1  0  0  0  0  0  0  0  0  0
  141.0690   76.8530  221.4620 C   0  0  0  0  0  0  0  0  0  0  0  0
  140.2640   78.1320  221.6030 C   0  0  0  0  0  0  0  0  0  0  0  0
  139.2690   78.0900  222.7420 C   0  0  0  0  0  0  0  0  0  0  0  0
  138.2500   76.9810  222.6180 C   0  0  0  0  0  0  0  0  0  0  0  0
  138.9040   76.0040  221.7060 N   0  0  0  0  0  0  0  0  0  0  0  0
  138.1810   75.5120  220.6060 C   0  0  0  0  0  0  0  0  0  0  0  0
  138.1500   76.0170  219.4570 O   0  0  0  0  0  0  0  0  0  0  0  0
  137.3650   74.2760  220.7900 C   0  0  0  0  0  0  0  0  0  0  0  0
  137.8770   73.4800  221.9030 N   0  0  0  0  0  0  0  0  0  0  0  0
  137.5170   72.1040  222.0500 C   0  0  0  0  0  0  0  0  0  0  0  0
  136.7500   71.5550  221.2210 O   0  0  0  0  0  0  0  0  0  0  0  0
  138.0560   71.3520  223.1810 C   0  0  0  0  0  0  0  0  0  0  0  0
  137.4100   70.1900  223.5840 C   0  0  0  0  0  0  0  0  0  0  0  0
  137.8760   69.4430  224.6420 C   0  0  0  0  0  0  0  0  0  0  0  0
  139.0040   69.8490  225.3180 C   0  0  0  0  0  0  0  0  0  0  0  0
  139.4390   69.0810  226.3670 C   0  0  0  0  0  0  0  0  0  0  0  0
  140.5860   69.5000  227.0480 C   0  0  0  0  0  0  0  0  0  0  0  0
  141.1270   68.5100  228.3810 Cl  0  0  0  0  0  0  0  0  0  0  0  0
  141.2330   70.6530  226.6530 C   0  0  0  0  0  0  0  0  0  0  0  0
  140.7680   71.4120  225.5840 C   0  0  0  0  0  0  0  0  0  0  0  0
  139.6330   71.0080  224.9020 C   0  0  0  0  0  0  0  0  0  0  0  0
  139.1590   71.7370  223.8510 N   0  0  0  0  0  0  0  0  0  0  0  0
  143.5700   73.0800  220.1820 C   0  0  0  0  0  0  0  0  0  0  0  0
  144.2880   72.0330  219.6080 C   0  0  0  0  0  0  0  0  0  0  0  0
  145.6690   72.0330  219.6400 C   0  0  0  0  0  0  0  0  0  0  0  0
  146.3070   73.0960  220.2560 C   0  0  0  0  0  0  0  0  0  0  0  0
  145.5900   74.1470  220.8320 C   0  0  0  0  0  0  0  0  0  0  0  0
  144.2060   74.1390  220.7950 C   0  0  0  0  0  0  0  0  0  0  0  0
  140.9176   71.9698  218.6004 H   0  0  0  0  0  0  0  0  0  0  0  0
  141.4306   73.6301  218.1458 H   0  0  0  0  0  0  0  0  0  0  0  0
  142.6258   72.2892  218.1458 H   0  0  0  0  0  0  0  0  0  0  0  0
  141.6426   72.2171  220.7482 H   0  0  0  0  0  0  0  0  0  0  0  0
  141.7210   75.0970  219.8940 H   0  0  0  0  0  0  0  0  0  0  0  0
  140.3509   75.5876  223.1564 H   0  0  0  0  0  0  0  0  0  0  0  0
  142.0238   76.9574  221.9981 H   0  0  0  0  0  0  0  0  0  0  0  0
  141.2711   76.6568  220.3987 H   0  0  0  0  0  0  0  0  0  0  0  0
  140.9603   78.9654  221.7782 H   0  0  0  0  0  0  0  0  0  0  0  0
  139.6901   78.2601  220.6734 H   0  0  0  0  0  0  0  0  0  0  0  0
  139.8228   77.9492  223.6819 H   0  0  0  0  0  0  0  0  0  0  0  0
  138.7146   79.0398  222.7197 H   0  0  0  0  0  0  0  0  0  0  0  0
  138.0437   76.5260  223.5980 H   0  0  0  0  0  0  0  0  0  0  0  0
  137.2788   77.3337  222.2405 H   0  0  0  0  0  0  0  0  0  0  0  0
  136.3226   74.5591  220.9980 H   0  0  0  0  0  0  0  0  0  0  0  0
  137.4210   73.6751  219.8703 H   0  0  0  0  0  0  0  0  0  0  0  0
  138.5260   73.8930  222.6290 H   0  0  0  0  0  0  0  0  0  0  0  0
  136.5083   69.8604  223.0470 H   0  0  0  0  0  0  0  0  0  0  0  0
  137.3495   68.5262  224.9457 H   0  0  0  0  0  0  0  0  0  0  0  0
  138.9040   68.1665  226.6628 H   0  0  0  0  0  0  0  0  0  0  0  0
  142.1339   70.9782  227.1939 H   0  0  0  0  0  0  0  0  0  0  0  0
  141.2987   72.3272  225.2826 H   0  0  0  0  0  0  0  0  0  0  0  0
  143.7521   71.2017  219.1266 H   0  0  0  0  0  0  0  0  0  0  0  0
  146.2453   71.2118  219.1889 H   0  0  0  0  0  0  0  0  0  0  0  0
  147.4063   73.1133  220.2927 H   0  0  0  0  0  0  0  0  0  0  0  0
  146.1237   74.9794  221.3140 H   0  0  0  0  0  0  0  0  0  0  0  0
  143.6267   74.9590  221.2445 H   0  0  0  0  0  0  0  0  0  0  0  0
  1  2  1  0
  2  3  1  0
  3  4  1  0
  4  5  2  0
  4  6  1  0
  6  7  1  0
  7  8  1  0
  8  9  1  0
  9 10  1  0
 10 11  1  0
 11 12  1  0
 12 13  2  0
 12 14  1  0
 14 15  1  0
 15 16  1  0
 16 17  2  0
 16 18  1  0
 18 19  2  0
 19 20  1  0
 20 21  2  0
 21 22  1  0
 22 23  2  0
 23 24  1  0
 23 25  1  0
 25 26  2  0
 26 27  1  0
 27 28  2  0
  2 29  1  0
 29 30  2  0
 30 31  1  0
 31 32  2  0
 32 33  1  0
 33 34  2  0
 11  6  1  0
 28 18  1  0
 34 29  1  0
 27 21  1  0
  1 35  1  0
  1 36  1  0
  1 37  1  0
  2 38  1  1
  3 39  1  0
  6 40  1  1
  7 41  1  0
  7 42  1  0
  8 43  1  0
  8 44  1  0
  9 45  1  0
  9 46  1  0
 10 47  1  0
 10 48  1  0
 14 49  1  0
 14 50  1  0
 15 51  1  0
 19 52  1  0
 20 53  1  0
 22 54  1  0
 25 55  1  0
 26 56  1  0
 30 57  1  0
 31 58  1  0
 32 59  1  0
 33 60  1  0
 34 61  1  0
M  END
>  <smiles>  (63) 
C[C@H](NC(=O)C1CCCCN1C(=O)CNC(=O)c1ccc2cc(Cl)ccc2n1)c1ccccc1

>  <score_type>  (63) 
oracle

>  <origin>  (63) 
autodockgpu

>  <m_score__min__energy>  (63) 
-9.6899999999999995

>  <m_primary>  (63) 
energy

>  <rmsd>  (63) 
5.694934619342257

>  <m_score__min__rmsd>  (63) 
5.694934619342257

>  <meeko>  (63) 
{"free_energy": -8.34, "intermolecular_energy": -10.43, "internal_energy": -3.16, "cluster_size": 7, "cluster_id": 8, "rank_in_cluster": 2}

>  <energy>  (63) 
-8.24

>  <cluster_rmsd>  (63) 
1.4

>  <cluster>  (63) 
1

$$$$

     RDKit          3D

 61 64  0  0  1  0  0  0  0  0999 V2000
  141.6840   71.3930  220.1000 C   0  0  0  0  0  0  0  0  0  0  0  0
  141.8310   72.6950  220.8650 C   0  0  2  0  0  0  0  0  0  0  0  0
  141.0620   73.7360  220.2560 N   0  0  0  0  0  0  0  0  0  0  0  0
  140.2670   74.6230  221.0860 C   0  0  0  0  0  0  0  0  0  0  0  0
  140.3320   74.3840  222.3130 O   0  0  0  0  0  0  0  0  0  0  0  0
  139.5110   75.6520  220.4080 C   0  0  1  0  0  0  0  0  0  0  0  0
  139.2110   75.3480  218.9250 C   0  0  0  0  0  0  0  0  0  0  0  0
  138.1470   76.3110  218.4280 C   0  0  0  0  0  0  0  0  0  0  0  0
  138.1030   77.6070  219.2090 C   0  0  0  0  0  0  0  0  0  0  0  0
  137.8240   77.4200  220.6820 C   0  0  0  0  0  0  0  0  0  0  0  0
  138.2170   76.0080  220.9360 N   0  0  0  0  0  0  0  0  0  0  0  0
  137.3250   75.1670  221.6240 C   0  0  0  0  0  0  0  0  0  0  0  0
  136.5260   75.5190  222.5260 O   0  0  0  0  0  0  0  0  0  0  0  0
  137.3040   73.7170  221.2710 C   0  0  0  0  0  0  0  0  0  0  0  0
  137.7750   72.9060  222.3920 N   0  0  0  0  0  0  0  0  0  0  0  0
  138.5540   71.7280  222.1700 C   0  0  0  0  0  0  0  0  0  0  0  0
  138.8470   71.3680  221.0030 O   0  0  0  0  0  0  0  0  0  0  0  0
  139.0010   70.9520  223.3250 C   0  0  0  0  0  0  0  0  0  0  0  0
  138.7610   69.5830  223.3490 C   0  0  0  0  0  0  0  0  0  0  0  0
  139.1610   68.8060  224.4110 C   0  0  0  0  0  0  0  0  0  0  0  0
  139.8130   69.3880  225.4740 C   0  0  0  0  0  0  0  0  0  0  0  0
  140.1970   68.5820  226.5150 C   0  0  0  0  0  0  0  0  0  0  0  0
  140.8590   69.1810  227.5910 C   0  0  0  0  0  0  0  0  0  0  0  0
  141.3410   68.1410  228.9080 Cl  0  0  0  0  0  0  0  0  0  0  0  0
  141.1010   70.5400  227.5740 C   0  0  0  0  0  0  0  0  0  0  0  0
  140.7000   71.3320  226.5030 C   0  0  0  0  0  0  0  0  0  0  0  0
  140.0430   70.7510  225.4320 C   0  0  0  0  0  0  0  0  0  0  0  0
  139.6400   71.5080  224.3720 N   0  0  0  0  0  0  0  0  0  0  0  0
  143.2840   73.0820  220.7630 C   0  0  0  0  0  0  0  0  0  0  0  0
  143.5600   74.4340  220.5730 C   0  0  0  0  0  0  0  0  0  0  0  0
  144.8650   74.8730  220.4700 C   0  0  0  0  0  0  0  0  0  0  0  0
  145.8780   73.9330  220.5610 C   0  0  0  0  0  0  0  0  0  0  0  0
  145.6040   72.5770  220.7520 C   0  0  0  0  0  0  0  0  0  0  0  0
  144.2930   72.1470  220.8540 C   0  0  0  0  0  0  0  0  0  0  0  0
  141.5898   70.5587  220.8108 H   0  0  0  0  0  0  0  0  0  0  0  0
  140.7853   71.4389  219.4673 H   0  0  0  0  0  0  0  0  0  0  0  0
  142.5703   71.2374  219.4673 H   0  0  0  0  0  0  0  0  0  0  0  0
  141.4884   72.5636  221.9020 H   0  0  0  0  0  0  0  0  0  0  0  0
  141.0850   73.8400  219.2180 H   0  0  0  0  0  0  0  0  0  0  0  0
  140.2205   76.4778  220.5650 H   0  0  0  0  0  0  0  0  0  0  0  0
  140.1279   75.4726  218.3302 H   0  0  0  0  0  0  0  0  0  0  0  0
  138.8523   74.3131  218.8231 H   0  0  0  0  0  0  0  0  0  0  0  0
  138.3531   76.5454  217.3732 H   0  0  0  0  0  0  0  0  0  0  0  0
  137.1728   75.8174  218.5592 H   0  0  0  0  0  0  0  0  0  0  0  0
  139.0750   78.1106  219.1010 H   0  0  0  0  0  0  0  0  0  0  0  0
  137.2738   78.2016  218.7980 H   0  0  0  0  0  0  0  0  0  0  0  0
  138.4292   78.1110  221.2872 H   0  0  0  0  0  0  0  0  0  0  0  0
  136.7769   77.6267  220.9483 H   0  0  0  0  0  0  0  0  0  0  0  0
  136.2749   73.4216  221.0187 H   0  0  0  0  0  0  0  0  0  0  0  0
  137.9697   73.5525  220.4109 H   0  0  0  0  0  0  0  0  0  0  0  0
  137.5570   73.1640  223.3930 H   0  0  0  0  0  0  0  0  0  0  0  0
  138.2409   69.1119  222.5019 H   0  0  0  0  0  0  0  0  0  0  0  0
  138.9607   67.7244  224.4107 H   0  0  0  0  0  0  0  0  0  0  0  0
  139.9913   67.5015  226.5038 H   0  0  0  0  0  0  0  0  0  0  0  0
  141.6211   71.0057  228.4240 H   0  0  0  0  0  0  0  0  0  0  0  0
  140.9037   72.4130  226.5071 H   0  0  0  0  0  0  0  0  0  0  0  0
  142.7332   75.1563  220.5046 H   0  0  0  0  0  0  0  0  0  0  0  0
  145.0935   75.9385  220.3200 H   0  0  0  0  0  0  0  0  0  0  0  0
  146.9244   74.2627  220.4809 H   0  0  0  0  0  0  0  0  0  0  0  0
  146.4287   71.8524  220.8212 H   0  0  0  0  0  0  0  0  0  0  0  0
  144.0608   71.0824  221.0044 H   0  0  0  0  0  0  0  0  0  0  0  0
  1  2  1  0
  2  3  1  0
  3  4  1  0
  4  5  2  0
  4  6  1  0
  6  7  1  0
  7  8  1  0
  8  9  1  0
  9 10  1  0
 10 11  1  0
 11 12  1  0
 12 13  2  0
 12 14  1  0
 14 15  1  0
 15 16  1  0
 16 17  2  0
 16 18  1  0
 18 19  2  0
 19 20  1  0
 20 21  2  0
 21 22  1  0
 22 23  2  0
 23 24  1  0
 23 25  1  0
 25 26  2  0
 26 27  1  0
 27 28  2  0
  2 29  1  0
 29 30  2  0
 30 31  1  0
 31 32  2  0
 32 33  1  0
 33 34  2  0
 11  6  1  0
 28 18  1  0
 34 29  1  0
 27 21  1  0
  1 35  1  0
  1 36  1  0
  1 37  1  0
  2 38  1  1
  3 39  1  0
  6 40  1  6
  7 41  1  0
  7 42  1  0
  8 43  1  0
  8 44  1  0
  9 45  1  0
  9 46  1  0
 10 47  1  0
 10 48  1  0
 14 49  1  0
 14 50  1  0
 15 51  1  0
 19 52  1  0
 20 53  1  0
 22 54  1  0
 25 55  1  0
 26 56  1  0
 30 57  1  0
 31 58  1  0
 32 59  1  0
 33 60  1  0
 34 61  1  0
M  END
>  <smiles>  (64) 
C[C@H](NC(=O)C1CCCCN1C(=O)CNC(=O)c1ccc2cc(Cl)ccc2n1)c1ccccc1

>  <score_type>  (64) 
oracle

>  <origin>  (64) 
autodockgpu

>  <m_score__min__energy>  (64) 
-9.6899999999999995

>  <m_primary>  (64) 
energy

>  <rmsd>  (64) 
5.4231317271033435

>  <m_score__min__rmsd>  (64) 
5.4231317271033435

>  <meeko>  (64) 
{"free_energy": -7.95, "intermolecular_energy": -10.04, "internal_energy": -2.66, "cluster_size": 7, "cluster_id": 8, "rank_in_cluster": 6}

>  <energy>  (64) 
-7.97

>  <cluster_rmsd>  (64) 
1.36

>  <cluster>  (64) 
1

$$$$

     RDKit          3D

 61 64  0  0  1  0  0  0  0  0999 V2000
  142.4580   80.4760  222.8340 C   0  0  0  0  0  0  0  0  0  0  0  0
  141.6980   79.2090  223.1800 C   0  0  2  0  0  0  0  0  0  0  0  0
  141.8030   78.2460  222.1270 N   0  0  0  0  0  0  0  0  0  0  0  0
  141.3880   78.6030  220.7820 C   0  0  0  0  0  0  0  0  0  0  0  0
  140.9570   79.7720  220.6630 O   0  0  0  0  0  0  0  0  0  0  0  0
  141.5190   77.5840  219.7640 C   0  0  1  0  0  0  0  0  0  0  0  0
  142.9510   77.0350  219.5950 C   0  0  0  0  0  0  0  0  0  0  0  0
  142.9000   75.7650  218.7640 C   0  0  0  0  0  0  0  0  0  0  0  0
  141.6910   75.6950  217.8550 C   0  0  0  0  0  0  0  0  0  0  0  0
  140.3740   75.7520  218.5910 C   0  0  0  0  0  0  0  0  0  0  0  0
  140.7240   76.3880  219.8900 N   0  0  0  0  0  0  0  0  0  0  0  0
  140.2870   75.7860  221.0820 C   0  0  0  0  0  0  0  0  0  0  0  0
  140.7570   75.9900  222.2280 O   0  0  0  0  0  0  0  0  0  0  0  0
  139.1620   74.8070  221.0100 C   0  0  0  0  0  0  0  0  0  0  0  0
  139.2360   73.8540  222.1150 N   0  0  0  0  0  0  0  0  0  0  0  0
  140.0140   72.6600  222.0060 C   0  0  0  0  0  0  0  0  0  0  0  0
  140.6490   72.4080  220.9520 O   0  0  0  0  0  0  0  0  0  0  0  0
  140.0540   71.7390  223.1390 C   0  0  0  0  0  0  0  0  0  0  0  0
  139.5730   70.4460  222.9730 C   0  0  0  0  0  0  0  0  0  0  0  0
  139.5880   69.5390  224.0070 C   0  0  0  0  0  0  0  0  0  0  0  0
  140.0890   69.9120  225.2340 C   0  0  0  0  0  0  0  0  0  0  0  0
  140.0880   68.9820  226.2410 C   0  0  0  0  0  0  0  0  0  0  0  0
  140.5990   69.3700  227.4840 C   0  0  0  0  0  0  0  0  0  0  0  0
  140.5910   68.1740  228.7570 Cl  0  0  0  0  0  0  0  0  0  0  0  0
  141.0780   70.6520  227.6570 C   0  0  0  0  0  0  0  0  0  0  0  0
  141.0660   71.5740  226.6150 C   0  0  0  0  0  0  0  0  0  0  0  0
  140.5630   71.2030  225.3800 C   0  0  0  0  0  0  0  0  0  0  0  0
  140.5410   72.0910  224.3450 N   0  0  0  0  0  0  0  0  0  0  0  0
  140.2490   79.6030  223.2940 C   0  0  0  0  0  0  0  0  0  0  0  0
  139.3060   78.6130  223.0260 C   0  0  0  0  0  0  0  0  0  0  0  0
  137.9570   78.8920  223.1090 C   0  0  0  0  0  0  0  0  0  0  0  0
  137.5770   80.1760  223.4630 C   0  0  0  0  0  0  0  0  0  0  0  0
  138.5190   81.1700  223.7330 C   0  0  0  0  0  0  0  0  0  0  0  0
  139.8700   80.8810  223.6480 C   0  0  0  0  0  0  0  0  0  0  0  0
  142.7633   80.9849  223.7602 H   0  0  0  0  0  0  0  0  0  0  0  0
  143.3510   80.2188  222.2455 H   0  0  0  0  0  0  0  0  0  0  0  0
  141.8106   81.1428  222.2455 H   0  0  0  0  0  0  0  0  0  0  0  0
  142.1015   78.7686  224.1037 H   0  0  0  0  0  0  0  0  0  0  0  0
  142.1790   77.2980  222.3450 H   0  0  0  0  0  0  0  0  0  0  0  0
  141.1622   78.1838  218.9137 H   0  0  0  0  0  0  0  0  0  0  0  0
  143.5752   77.7840  219.0856 H   0  0  0  0  0  0  0  0  0  0  0  0
  143.3832   76.8154  220.5824 H   0  0  0  0  0  0  0  0  0  0  0  0
  143.8071   75.7165  218.1437 H   0  0  0  0  0  0  0  0  0  0  0  0
  142.8322   74.9190  219.4638 H   0  0  0  0  0  0  0  0  0  0  0  0
  141.7340   76.5417  217.1541 H   0  0  0  0  0  0  0  0  0  0  0  0
  141.7306   74.7228  217.3418 H   0  0  0  0  0  0  0  0  0  0  0  0
  139.6427   76.3616  218.0401 H   0  0  0  0  0  0  0  0  0  0  0  0
  139.9097   74.7621  218.7120 H   0  0  0  0  0  0  0  0  0  0  0  0
  138.2068   75.3498  221.0645 H   0  0  0  0  0  0  0  0  0  0  0  0
  139.2334   74.2550  220.0612 H   0  0  0  0  0  0  0  0  0  0  0  0
  138.7210   74.0180  223.0240 H   0  0  0  0  0  0  0  0  0  0  0  0
  139.1721   70.1416  221.9949 H   0  0  0  0  0  0  0  0  0  0  0  0
  139.2016   68.5205  223.8543 H   0  0  0  0  0  0  0  0  0  0  0  0
  139.6990   67.9662  226.0774 H   0  0  0  0  0  0  0  0  0  0  0  0
  141.4771   70.9511  228.6374 H   0  0  0  0  0  0  0  0  0  0  0  0
  141.4538   72.5914  226.7717 H   0  0  0  0  0  0  0  0  0  0  0  0
  139.6389   77.6025  222.7465 H   0  0  0  0  0  0  0  0  0  0  0  0
  137.2051   78.1168  222.9000 H   0  0  0  0  0  0  0  0  0  0  0  0
  136.5063   80.4184  223.5331 H   0  0  0  0  0  0  0  0  0  0  0  0
  138.1883   82.1811  224.0128 H   0  0  0  0  0  0  0  0  0  0  0  0
  140.6245   81.6534  223.8581 H   0  0  0  0  0  0  0  0  0  0  0  0
  1  2  1  0
  2  3  1  0
  3  4  1  0
  4  5  2  0
  4  6  1  0
  6  7  1  0
  7  8  1  0
  8  9  1  0
  9 10  1  0
 10 11  1  0
 11 12  1  0
 12 13  2  0
 12 14  1  0
 14 15  1  0
 15 16  1  0
 16 17  2  0
 16 18  1  0
 18 19  2  0
 19 20  1  0
 20 21  2  0
 21 22  1  0
 22 23  2  0
 23 24  1  0
 23 25  1  0
 25 26  2  0
 26 27  1  0
 27 28  2  0
  2 29  1  0
 29 30  2  0
 30 31  1  0
 31 32  2  0
 32 33  1  0
 33 34  2  0
 11  6  1  0
 28 18  1  0
 34 29  1  0
 27 21  1  0
  1 35  1  0
  1 36  1  0
  1 37  1  0
  2 38  1  1
  3 39  1  0
  6 40  1  6
  7 41  1  0
  7 42  1  0
  8 43  1  0
  8 44  1  0
  9 45  1  0
  9 46  1  0
 10 47  1  0
 10 48  1  0
 14 49  1  0
 14 50  1  0
 15 51  1  0
 19 52  1  0
 20 53  1  0
 22 54  1  0
 25 55  1  0
 26 56  1  0
 30 57  1  0
 31 58  1  0
 32 59  1  0
 33 60  1  0
 34 61  1  0
M  END
>  <smiles>  (65) 
C[C@H](NC(=O)C1CCCCN1C(=O)CNC(=O)c1ccc2cc(Cl)ccc2n1)c1ccccc1

>  <score_type>  (65) 
oracle

>  <origin>  (65) 
autodockgpu

>  <m_score__min__energy>  (65) 
-9.6899999999999995

>  <m_primary>  (65) 
energy

>  <rmsd>  (65) 
2.242241019740376

>  <m_score__min__rmsd>  (65) 
2.242241019740376

>  <meeko>  (65) 
{"free_energy": -9.58, "intermolecular_energy": -11.67, "internal_energy": -2.52, "cluster_size": 14, "cluster_id": 1, "rank_in_cluster": 2}

>  <energy>  (65) 
-9.21

>  <cluster_rmsd>  (65) 
0.0

>  <cluster>  (65) 
2

$$$$

     RDKit          3D

 61 64  0  0  1  0  0  0  0  0999 V2000
  139.3400   77.4900  221.3150 C   0  0  0  0  0  0  0  0  0  0  0  0
  140.7780   77.6780  220.8660 C   0  0  2  0  0  0  0  0  0  0  0  0
  141.4830   76.4330  220.8770 N   0  0  0  0  0  0  0  0  0  0  0  0
  141.7400   75.7410  219.6270 C   0  0  0  0  0  0  0  0  0  0  0  0
  141.3000   76.3230  218.6100 O   0  0  0  0  0  0  0  0  0  0  0  0
  142.4560   74.4870  219.7080 C   0  0  1  0  0  0  0  0  0  0  0  0
  143.7770   74.5600  220.5020 C   0  0  0  0  0  0  0  0  0  0  0  0
  144.2520   73.1500  220.8030 C   0  0  0  0  0  0  0  0  0  0  0  0
  143.7360   72.1230  219.8170 C   0  0  0  0  0  0  0  0  0  0  0  0
  142.2290   72.0400  219.7610 C   0  0  0  0  0  0  0  0  0  0  0  0
  141.7850   73.3550  220.2960 N   0  0  0  0  0  0  0  0  0  0  0  0
  140.8040   73.3830  221.3010 C   0  0  0  0  0  0  0  0  0  0  0  0
  140.7350   74.2100  222.2430 O   0  0  0  0  0  0  0  0  0  0  0  0
  139.7310   72.3450  221.2750 C   0  0  0  0  0  0  0  0  0  0  0  0
  138.6730   72.6710  222.2280 N   0  0  0  0  0  0  0  0  0  0  0  0
  137.5220   71.8330  222.3630 C   0  0  0  0  0  0  0  0  0  0  0  0
  137.4010   70.8000  221.6600 O   0  0  0  0  0  0  0  0  0  0  0  0
  136.4920   72.2030  223.3300 C   0  0  0  0  0  0  0  0  0  0  0  0
  135.7920   71.1980  223.9850 C   0  0  0  0  0  0  0  0  0  0  0  0
  134.8130   71.4910  224.9060 C   0  0  0  0  0  0  0  0  0  0  0  0
  134.5160   72.8040  225.1900 C   0  0  0  0  0  0  0  0  0  0  0  0
  133.5340   73.0590  226.1130 C   0  0  0  0  0  0  0  0  0  0  0  0
  133.2380   74.3960  226.3950 C   0  0  0  0  0  0  0  0  0  0  0  0
  131.9860   74.7030  227.5730 Cl  0  0  0  0  0  0  0  0  0  0  0  0
  133.9290   75.4010  225.7490 C   0  0  0  0  0  0  0  0  0  0  0  0
  134.9210   75.1110  224.8170 C   0  0  0  0  0  0  0  0  0  0  0  0
  135.2230   73.7910  224.5290 C   0  0  0  0  0  0  0  0  0  0  0  0
  136.1910   73.4850  223.6180 N   0  0  0  0  0  0  0  0  0  0  0  0
  141.4250   78.5790  221.8850 C   0  0  0  0  0  0  0  0  0  0  0  0
  141.2770   78.2190  223.2230 C   0  0  0  0  0  0  0  0  0  0  0  0
  141.8390   78.9900  224.2200 C   0  0  0  0  0  0  0  0  0  0  0  0
  142.5470   80.1210  223.8490 C   0  0  0  0  0  0  0  0  0  0  0  0
  142.6970   80.4840  222.5090 C   0  0  0  0  0  0  0  0  0  0  0  0
  142.1310   79.7050  221.5160 C   0  0  0  0  0  0  0  0  0  0  0  0
  139.2968   77.4844  222.4141 H   0  0  0  0  0  0  0  0  0  0  0  0
  138.7242   78.3153  220.9281 H   0  0  0  0  0  0  0  0  0  0  0  0
  138.9570   76.5341  220.9281 H   0  0  0  0  0  0  0  0  0  0  0  0
  140.8039   78.0898  219.8463 H   0  0  0  0  0  0  0  0  0  0  0  0
  141.8030   76.0420  221.7900 H   0  0  0  0  0  0  0  0  0  0  0  0
  142.5862   74.3262  218.6276 H   0  0  0  0  0  0  0  0  0  0  0  0
  144.5371   75.0857  219.9055 H   0  0  0  0  0  0  0  0  0  0  0  0
  143.6150   75.1061  221.4430 H   0  0  0  0  0  0  0  0  0  0  0  0
  145.3516   73.1385  220.7764 H   0  0  0  0  0  0  0  0  0  0  0  0
  143.8596   72.8776  221.7939 H   0  0  0  0  0  0  0  0  0  0  0  0
  144.1069   72.3859  218.8154 H   0  0  0  0  0  0  0  0  0  0  0  0
  144.1001   71.1414  220.1546 H   0  0  0  0  0  0  0  0  0  0  0  0
  141.8818   71.8995  218.7267 H   0  0  0  0  0  0  0  0  0  0  0  0
  141.8268   71.1894  220.3308 H   0  0  0  0  0  0  0  0  0  0  0  0
  139.3024   72.2942  220.2632 H   0  0  0  0  0  0  0  0  0  0  0  0
  140.1704   71.3756  221.5528 H   0  0  0  0  0  0  0  0  0  0  0  0
  138.7250   73.5290  222.8430 H   0  0  0  0  0  0  0  0  0  0  0  0
  136.0252   70.1462  223.7628 H   0  0  0  0  0  0  0  0  0  0  0  0
  134.2703   70.6795  225.4129 H   0  0  0  0  0  0  0  0  0  0  0  0
  132.9977   72.2397  226.6142 H   0  0  0  0  0  0  0  0  0  0  0  0
  133.6912   76.4509  225.9750 H   0  0  0  0  0  0  0  0  0  0  0  0
  135.4616   75.9253  224.3124 H   0  0  0  0  0  0  0  0  0  0  0  0
  140.7087   77.3147  223.4861 H   0  0  0  0  0  0  0  0  0  0  0  0
  141.7279   78.7142  225.2790 H   0  0  0  0  0  0  0  0  0  0  0  0
  143.0023   80.7488  224.6291 H   0  0  0  0  0  0  0  0  0  0  0  0
  143.2645   81.3881  222.2435 H   0  0  0  0  0  0  0  0  0  0  0  0
  142.2414   79.9773  220.4560 H   0  0  0  0  0  0  0  0  0  0  0  0
  1  2  1  0
  2  3  1  0
  3  4  1  0
  4  5  2  0
  4  6  1  0
  6  7  1  0
  7  8  1  0
  8  9  1  0
  9 10  1  0
 10 11  1  0
 11 12  1  0
 12 13  2  0
 12 14  1  0
 14 15  1  0
 15 16  1  0
 16 17  2  0
 16 18  1  0
 18 19  2  0
 19 20  1  0
 20 21  2  0
 21 22  1  0
 22 23  2  0
 23 24  1  0
 23 25  1  0
 25 26  2  0
 26 27  1  0
 27 28  2  0
  2 29  1  0
 29 30  2  0
 30 31  1  0
 31 32  2  0
 32 33  1  0
 33 34  2  0
 11  6  1  0
 28 18  1  0
 34 29  1  0
 27 21  1  0
  1 35  1  0
  1 36  1  0
  1 37  1  0
  2 38  1  6
  3 39  1  0
  6 40  1  6
  7 41  1  0
  7 42  1  0
  8 43  1  0
  8 44  1  0
  9 45  1  0
  9 46  1  0
 10 47  1  0
 10 48  1  0
 14 49  1  0
 14 50  1  0
 15 51  1  0
 19 52  1  0
 20 53  1  0
 22 54  1  0
 25 55  1  0
 26 56  1  0
 30 57  1  0
 31 58  1  0
 32 59  1  0
 33 60  1  0
 34 61  1  0
M  END
>  <smiles>  (66) 
C[C@H](NC(=O)C1CCCCN1C(=O)CNC(=O)c1ccc2cc(Cl)ccc2n1)c1ccccc1

>  <score_type>  (66) 
oracle

>  <origin>  (66) 
autodockgpu

>  <m_score__min__energy>  (66) 
-9.6899999999999995

>  <m_primary>  (66) 
energy

>  <rmsd>  (66) 
4.798291506466856

>  <m_score__min__rmsd>  (66) 
4.798291506466856

>  <meeko>  (66) 
{"free_energy": -8.29, "intermolecular_energy": -10.38, "internal_energy": -3.23, "cluster_size": 5, "cluster_id": 7, "rank_in_cluster": 3}

>  <energy>  (66) 
-8.76

>  <cluster_rmsd>  (66) 
1.06

>  <cluster>  (66) 
2

$$$$

     RDKit          3D

 61 64  0  0  1  0  0  0  0  0999 V2000
  142.5600   80.3060  222.8690 C   0  0  0  0  0  0  0  0  0  0  0  0
  141.7180   79.0870  223.2000 C   0  0  2  0  0  0  0  0  0  0  0  0
  141.8120   78.1040  222.1640 N   0  0  0  0  0  0  0  0  0  0  0  0
  141.4200   78.4470  220.8090 C   0  0  0  0  0  0  0  0  0  0  0  0
  141.0170   79.6240  220.6660 O   0  0  0  0  0  0  0  0  0  0  0  0
  141.5380   77.4090  219.8100 C   0  0  1  0  0  0  0  0  0  0  0  0
  142.9400   76.7720  219.7180 C   0  0  0  0  0  0  0  0  0  0  0  0
  142.8520   75.4970  218.8990 C   0  0  0  0  0  0  0  0  0  0  0  0
  141.6870   75.4870  217.9320 C   0  0  0  0  0  0  0  0  0  0  0  0
  140.3410   75.6330  218.6020 C   0  0  0  0  0  0  0  0  0  0  0  0
  140.6670   76.2640  219.9100 N   0  0  0  0  0  0  0  0  0  0  0  0
  140.1370   75.7060  221.0850 C   0  0  0  0  0  0  0  0  0  0  0  0
  140.3300   76.1240  222.2530 O   0  0  0  0  0  0  0  0  0  0  0  0
  139.2610   74.5030  220.9660 C   0  0  0  0  0  0  0  0  0  0  0  0
  139.4490   73.6120  222.1080 N   0  0  0  0  0  0  0  0  0  0  0  0
  139.4670   72.1920  221.9390 C   0  0  0  0  0  0  0  0  0  0  0  0
  139.3190   71.6860  220.7990 O   0  0  0  0  0  0  0  0  0  0  0  0
  139.6580   71.3450  223.1130 C   0  0  0  0  0  0  0  0  0  0  0  0
  139.2930   70.0060  223.0430 C   0  0  0  0  0  0  0  0  0  0  0  0
  139.4530   69.1650  224.1200 C   0  0  0  0  0  0  0  0  0  0  0  0
  139.9850   69.6510  225.2920 C   0  0  0  0  0  0  0  0  0  0  0  0
  140.1290   68.7830  226.3440 C   0  0  0  0  0  0  0  0  0  0  0  0
  140.6700   69.2860  227.5320 C   0  0  0  0  0  0  0  0  0  0  0  0
  140.8470   68.1680  228.8620 Cl  0  0  0  0  0  0  0  0  0  0  0  0
  141.0350   70.6140  227.6090 C   0  0  0  0  0  0  0  0  0  0  0  0
  140.8770   71.4710  226.5240 C   0  0  0  0  0  0  0  0  0  0  0  0
  140.3420   70.9860  225.3430 C   0  0  0  0  0  0  0  0  0  0  0  0
  140.1780   71.8080  224.2670 N   0  0  0  0  0  0  0  0  0  0  0  0
  140.2900   79.5610  223.2510 C   0  0  0  0  0  0  0  0  0  0  0  0
  139.3020   78.5960  223.0690 C   0  0  0  0  0  0  0  0  0  0  0  0
  137.9680   78.9470  223.1010 C   0  0  0  0  0  0  0  0  0  0  0  0
  137.6480   80.2770  223.3190 C   0  0  0  0  0  0  0  0  0  0  0  0
  138.6360   81.2470  223.5020 C   0  0  0  0  0  0  0  0  0  0  0  0
  139.9710   80.8850  223.4680 C   0  0  0  0  0  0  0  0  0  0  0  0
  142.8919   80.7865  223.8012 H   0  0  0  0  0  0  0  0  0  0  0  0
  143.4381   79.9970  222.2830 H   0  0  0  0  0  0  0  0  0  0  0  0
  141.9601   81.0179  222.2830 H   0  0  0  0  0  0  0  0  0  0  0  0
  142.0595   78.6386  224.1446 H   0  0  0  0  0  0  0  0  0  0  0  0
  142.1640   77.1510  222.4020 H   0  0  0  0  0  0  0  0  0  0  0  0
  141.2600   78.0178  218.9370 H   0  0  0  0  0  0  0  0  0  0  0  0
  143.6331   77.4748  219.2325 H   0  0  0  0  0  0  0  0  0  0  0  0
  143.3091   76.5397  220.7279 H   0  0  0  0  0  0  0  0  0  0  0  0
  143.7836   75.3856  218.3248 H   0  0  0  0  0  0  0  0  0  0  0  0
  142.6984   74.6664  219.6037 H   0  0  0  0  0  0  0  0  0  0  0  0
  141.8153   76.3199  217.2250 H   0  0  0  0  0  0  0  0  0  0  0  0
  141.6927   74.5074  217.4317 H   0  0  0  0  0  0  0  0  0  0  0  0
  139.6756   76.2783  218.0098 H   0  0  0  0  0  0  0  0  0  0  0  0
  139.8115   74.6749  218.7101 H   0  0  0  0  0  0  0  0  0  0  0  0
  138.2097   74.8243  220.9280 H   0  0  0  0  0  0  0  0  0  0  0  0
  139.5280   73.9608  220.0469 H   0  0  0  0  0  0  0  0  0  0  0  0
  139.5780   73.9860  223.0890 H   0  0  0  0  0  0  0  0  0  0  0  0
  138.8680   69.6109  222.1085 H   0  0  0  0  0  0  0  0  0  0  0  0
  139.1568   68.1083  224.0443 H   0  0  0  0  0  0  0  0  0  0  0  0
  139.8296   67.7281  226.2567 H   0  0  0  0  0  0  0  0  0  0  0  0
  141.4592   71.0032  228.5463 H   0  0  0  0  0  0  0  0  0  0  0  0
  141.1752   72.5267  226.6043 H   0  0  0  0  0  0  0  0  0  0  0  0
  139.5872   77.5474  222.8987 H   0  0  0  0  0  0  0  0  0  0  0  0
  137.1809   78.1921  222.9575 H   0  0  0  0  0  0  0  0  0  0  0  0
  136.5900   80.5765  223.3487 H   0  0  0  0  0  0  0  0  0  0  0  0
  138.3535   82.2963  223.6728 H   0  0  0  0  0  0  0  0  0  0  0  0
  140.7609   81.6371  223.6110 H   0  0  0  0  0  0  0  0  0  0  0  0
  1  2  1  0
  2  3  1  0
  3  4  1  0
  4  5  2  0
  4  6  1  0
  6  7  1  0
  7  8  1  0
  8  9  1  0
  9 10  1  0
 10 11  1  0
 11 12  1  0
 12 13  2  0
 12 14  1  0
 14 15  1  0
 15 16  1  0
 16 17  2  0
 16 18  1  0
 18 19  2  0
 19 20  1  0
 20 21  2  0
 21 22  1  0
 22 23  2  0
 23 24  1  0
 23 25  1  0
 25 26  2  0
 26 27  1  0
 27 28  2  0
  2 29  1  0
 29 30  2  0
 30 31  1  0
 31 32  2  0
 32 33  1  0
 33 34  2  0
 11  6  1  0
 28 18  1  0
 34 29  1  0
 27 21  1  0
  1 35  1  0
  1 36  1  0
  1 37  1  0
  2 38  1  1
  3 39  1  0
  6 40  1  6
  7 41  1  0
  7 42  1  0
  8 43  1  0
  8 44  1  0
  9 45  1  0
  9 46  1  0
 10 47  1  0
 10 48  1  0
 14 49  1  0
 14 50  1  0
 15 51  1  0
 19 52  1  0
 20 53  1  0
 22 54  1  0
 25 55  1  0
 26 56  1  0
 30 57  1  0
 31 58  1  0
 32 59  1  0
 33 60  1  0
 34 61  1  0
M  END
>  <smiles>  (67) 
C[C@H](NC(=O)C1CCCCN1C(=O)CNC(=O)c1ccc2cc(Cl)ccc2n1)c1ccccc1

>  <score_type>  (67) 
oracle

>  <origin>  (67) 
autodockgpu

>  <m_score__min__energy>  (67) 
-9.6899999999999995

>  <m_primary>  (67) 
energy

>  <rmsd>  (67) 
2.125212577196321

>  <m_score__min__rmsd>  (67) 
2.125212577196321

>  <meeko>  (67) 
{"free_energy": -9.44, "intermolecular_energy": -11.52, "internal_energy": -2.78, "cluster_size": 14, "cluster_id": 1, "rank_in_cluster": 4}

>  <energy>  (67) 
-8.5

>  <cluster_rmsd>  (67) 
0.99

>  <cluster>  (67) 
2

$$$$

     RDKit          3D

 61 64  0  0  1  0  0  0  0  0999 V2000
  140.5050   71.6750  223.5170 C   0  0  0  0  0  0  0  0  0  0  0  0
  139.9110   70.5450  224.3380 C   0  0  2  0  0  0  0  0  0  0  0  0
  138.4840   70.5370  224.2400 N   0  0  0  0  0  0  0  0  0  0  0  0
  137.7820   69.2800  224.0550 C   0  0  0  0  0  0  0  0  0  0  0  0
  138.5240   68.2740  223.9950 O   0  0  0  0  0  0  0  0  0  0  0  0
  136.3400   69.3420  223.9620 C   0  0  1  0  0  0  0  0  0  0  0  0
  135.6170   69.3820  225.3250 C   0  0  0  0  0  0  0  0  0  0  0  0
  134.1690   69.7830  225.1050 C   0  0  0  0  0  0  0  0  0  0  0  0
  133.6630   69.4550  223.7160 C   0  0  0  0  0  0  0  0  0  0  0  0
  134.4430   70.1280  222.6110 C   0  0  0  0  0  0  0  0  0  0  0  0
  135.7500   70.4460  223.2470 N   0  0  0  0  0  0  0  0  0  0  0  0
  136.2690   71.7450  223.1200 C   0  0  0  0  0  0  0  0  0  0  0  0
  136.1040   72.6890  223.9320 O   0  0  0  0  0  0  0  0  0  0  0  0
  137.0970   72.0630  221.9200 C   0  0  0  0  0  0  0  0  0  0  0  0
  137.8350   73.3090  222.1160 N   0  0  0  0  0  0  0  0  0  0  0  0
  138.7940   73.7550  221.1540 C   0  0  0  0  0  0  0  0  0  0  0  0
  139.0200   73.0790  220.1200 O   0  0  0  0  0  0  0  0  0  0  0  0
  139.5050   75.0080  221.3980 C   0  0  0  0  0  0  0  0  0  0  0  0
  140.7740   75.1760  220.8580 C   0  0  0  0  0  0  0  0  0  0  0  0
  141.4870   76.3360  221.0560 C   0  0  0  0  0  0  0  0  0  0  0  0
  140.9380   77.3540  221.8010 C   0  0  0  0  0  0  0  0  0  0  0  0
  141.6770   78.4960  221.9780 C   0  0  0  0  0  0  0  0  0  0  0  0
  141.1120   79.5250  222.7370 C   0  0  0  0  0  0  0  0  0  0  0  0
  142.0670   80.9720  222.9520 Cl  0  0  0  0  0  0  0  0  0  0  0  0
  139.8520   79.3660  223.2760 C   0  0  0  0  0  0  0  0  0  0  0  0
  139.1260   78.1960  223.0790 C   0  0  0  0  0  0  0  0  0  0  0  0
  139.6740   77.1690  222.3300 C   0  0  0  0  0  0  0  0  0  0  0  0
  138.9800   76.0130  222.1250 N   0  0  0  0  0  0  0  0  0  0  0  0
  140.2690   70.8320  225.7730 C   0  0  0  0  0  0  0  0  0  0  0  0
  141.0930   71.9300  226.0050 C   0  0  0  0  0  0  0  0  0  0  0  0
  141.4680   72.2630  227.2910 C   0  0  0  0  0  0  0  0  0  0  0  0
  141.0020   71.4750  228.3310 C   0  0  0  0  0  0  0  0  0  0  0  0
  140.1750   70.3720  228.1010 C   0  0  0  0  0  0  0  0  0  0  0  0
  139.8050   70.0480  226.8080 C   0  0  0  0  0  0  0  0  0  0  0  0
  140.9095   72.4445  224.1909 H   0  0  0  0  0  0  0  0  0  0  0  0
  141.3130   71.2818  222.8825 H   0  0  0  0  0  0  0  0  0  0  0  0
  139.7230   72.1176  222.8825 H   0  0  0  0  0  0  0  0  0  0  0  0
  140.2946   69.5779  223.9810 H   0  0  0  0  0  0  0  0  0  0  0  0
  137.9690   71.4420  224.3030 H   0  0  0  0  0  0  0  0  0  0  0  0
  136.1913   68.4086  223.3993 H   0  0  0  0  0  0  0  0  0  0  0  0
  135.6572   68.3874  225.7931 H   0  0  0  0  0  0  0  0  0  0  0  0
  136.1085   70.1118  225.9851 H   0  0  0  0  0  0  0  0  0  0  0  0
  133.5442   69.2528  225.8388 H   0  0  0  0  0  0  0  0  0  0  0  0
  134.1107   70.8749  225.2244 H   0  0  0  0  0  0  0  0  0  0  0  0
  133.7253   68.3663  223.5718 H   0  0  0  0  0  0  0  0  0  0  0  0
  132.6301   69.8281  223.6537 H   0  0  0  0  0  0  0  0  0  0  0  0
  134.5774   69.4492  221.7559 H   0  0  0  0  0  0  0  0  0  0  0  0
  133.9352   71.0180  222.2110 H   0  0  0  0  0  0  0  0  0  0  0  0
  137.8108   71.2442  221.7467 H   0  0  0  0  0  0  0  0  0  0  0  0
  136.4312   72.1796  221.0522 H   0  0  0  0  0  0  0  0  0  0  0  0
  137.6830   73.9150  222.9690 H   0  0  0  0  0  0  0  0  0  0  0  0
  141.2174   74.3658  220.2605 H   0  0  0  0  0  0  0  0  0  0  0  0
  142.4909   76.4489  220.6208 H   0  0  0  0  0  0  0  0  0  0  0  0
  142.6798   78.5986  221.5378 H   0  0  0  0  0  0  0  0  0  0  0  0
  139.4134   80.1795  223.8726 H   0  0  0  0  0  0  0  0  0  0  0  0
  138.1223   78.0875  223.5158 H   0  0  0  0  0  0  0  0  0  0  0  0
  141.4474   72.5360  225.1581 H   0  0  0  0  0  0  0  0  0  0  0  0
  142.1181   73.1290  227.4846 H   0  0  0  0  0  0  0  0  0  0  0  0
  141.2900   71.7236  229.3631 H   0  0  0  0  0  0  0  0  0  0  0  0
  139.8194   69.7634  228.9455 H   0  0  0  0  0  0  0  0  0  0  0  0
  139.1545   69.1834  226.6098 H   0  0  0  0  0  0  0  0  0  0  0  0
  1  2  1  0
  2  3  1  0
  3  4  1  0
  4  5  2  0
  4  6  1  0
  6  7  1  0
  7  8  1  0
  8  9  1  0
  9 10  1  0
 10 11  1  0
 11 12  1  0
 12 13  2  0
 12 14  1  0
 14 15  1  0
 15 16  1  0
 16 17  2  0
 16 18  1  0
 18 19  2  0
 19 20  1  0
 20 21  2  0
 21 22  1  0
 22 23  2  0
 23 24  1  0
 23 25  1  0
 25 26  2  0
 26 27  1  0
 27 28  2  0
  2 29  1  0
 29 30  2  0
 30 31  1  0
 31 32  2  0
 32 33  1  0
 33 34  2  0
 11  6  1  0
 28 18  1  0
 34 29  1  0
 27 21  1  0
  1 35  1  0
  1 36  1  0
  1 37  1  0
  2 38  1  6
  3 39  1  0
  6 40  1  6
  7 41  1  0
  7 42  1  0
  8 43  1  0
  8 44  1  0
  9 45  1  0
  9 46  1  0
 10 47  1  0
 10 48  1  0
 14 49  1  0
 14 50  1  0
 15 51  1  0
 19 52  1  0
 20 53  1  0
 22 54  1  0
 25 55  1  0
 26 56  1  0
 30 57  1  0
 31 58  1  0
 32 59  1  0
 33 60  1  0
 34 61  1  0
M  END
>  <smiles>  (68) 
C[C@H](NC(=O)C1CCCCN1C(=O)CNC(=O)c1ccc2cc(Cl)ccc2n1)c1ccccc1

>  <score_type>  (68) 
oracle

>  <origin>  (68) 
autodockgpu

>  <m_score__min__energy>  (68) 
-9.6899999999999995

>  <m_primary>  (68) 
energy

>  <rmsd>  (68) 
9.42908984932991

>  <m_score__min__rmsd>  (68) 
9.42908984932991

>  <meeko>  (68) 
{"free_energy": -8.77, "intermolecular_energy": -10.86, "internal_energy": -3.29, "cluster_size": 4, "cluster_id": 4, "rank_in_cluster": 2}

>  <energy>  (68) 
-9.03

>  <cluster_rmsd>  (68) 
0.0

>  <cluster>  (68) 
3

$$$$

     RDKit          3D

 61 64  0  0  1  0  0  0  0  0999 V2000
  140.4590   71.5180  223.3770 C   0  0  0  0  0  0  0  0  0  0  0  0
  139.8830   70.4420  224.2800 C   0  0  2  0  0  0  0  0  0  0  0  0
  138.4530   70.4570  224.2450 N   0  0  0  0  0  0  0  0  0  0  0  0
  137.7290   69.2450  223.9060 C   0  0  0  0  0  0  0  0  0  0  0  0
  138.4560   68.2550  223.6650 O   0  0  0  0  0  0  0  0  0  0  0  0
  136.2860   69.3280  223.8870 C   0  0  1  0  0  0  0  0  0  0  0  0
  135.6280   69.2710  225.2820 C   0  0  0  0  0  0  0  0  0  0  0  0
  134.1770   69.7020  225.1630 C   0  0  0  0  0  0  0  0  0  0  0  0
  133.6010   69.4860  223.7800 C   0  0  0  0  0  0  0  0  0  0  0  0
  134.3380   70.2340  222.6930 C   0  0  0  0  0  0  0  0  0  0  0  0
  135.6770   70.4890  223.2880 N   0  0  0  0  0  0  0  0  0  0  0  0
  136.2070   71.7890  223.2350 C   0  0  0  0  0  0  0  0  0  0  0  0
  136.2160   72.6220  224.1760 O   0  0  0  0  0  0  0  0  0  0  0  0
  136.8230   72.2530  221.9580 C   0  0  0  0  0  0  0  0  0  0  0  0
  137.5990   73.4730  222.1700 N   0  0  0  0  0  0  0  0  0  0  0  0
  138.6540   73.8380  221.2770 C   0  0  0  0  0  0  0  0  0  0  0  0
  138.9350   73.1110  220.2930 O   0  0  0  0  0  0  0  0  0  0  0  0
  139.4000   75.0680  221.5340 C   0  0  0  0  0  0  0  0  0  0  0  0
  140.7060   75.1710  221.0730 C   0  0  0  0  0  0  0  0  0  0  0  0
  141.4520   76.3070  221.2860 C   0  0  0  0  0  0  0  0  0  0  0  0
  140.8990   77.3670  221.9690 C   0  0  0  0  0  0  0  0  0  0  0  0
  141.6720   78.4830  222.1630 C   0  0  0  0  0  0  0  0  0  0  0  0
  141.1030   79.5550  222.8570 C   0  0  0  0  0  0  0  0  0  0  0  0
  142.1000   80.9680  223.0960 Cl  0  0  0  0  0  0  0  0  0  0  0  0
  139.8060   79.4600  223.3180 C   0  0  0  0  0  0  0  0  0  0  0  0
  139.0460   78.3140  223.1060 C   0  0  0  0  0  0  0  0  0  0  0  0
  139.5980   77.2460  222.4200 C   0  0  0  0  0  0  0  0  0  0  0  0
  138.8710   76.1130  222.2000 N   0  0  0  0  0  0  0  0  0  0  0  0
  140.3100   70.7930  225.6810 C   0  0  0  0  0  0  0  0  0  0  0  0
  139.8600   69.9580  226.7010 C   0  0  0  0  0  0  0  0  0  0  0  0
  140.2060   70.2090  228.0130 C   0  0  0  0  0  0  0  0  0  0  0  0
  141.0060   71.3080  228.2780 C   0  0  0  0  0  0  0  0  0  0  0  0
  141.4590   72.1470  227.2570 C   0  0  0  0  0  0  0  0  0  0  0  0
  141.1070   71.8870  225.9450 C   0  0  0  0  0  0  0  0  0  0  0  0
  140.8892   72.3217  223.9926 H   0  0  0  0  0  0  0  0  0  0  0  0
  141.2444   71.0821  222.7421 H   0  0  0  0  0  0  0  0  0  0  0  0
  139.6607   71.9298  222.7421 H   0  0  0  0  0  0  0  0  0  0  0  0
  140.2335   69.4508  223.9563 H   0  0  0  0  0  0  0  0  0  0  0  0
  137.9520   71.3450  224.4650 H   0  0  0  0  0  0  0  0  0  0  0  0
  136.0998   68.4420  223.2623 H   0  0  0  0  0  0  0  0  0  0  0  0
  135.6766   68.2432  225.6708 H   0  0  0  0  0  0  0  0  0  0  0  0
  136.1598   69.9435  225.9711 H   0  0  0  0  0  0  0  0  0  0  0  0
  133.5806   69.1238  225.8841 H   0  0  0  0  0  0  0  0  0  0  0  0
  134.1397   70.7823  225.3670 H   0  0  0  0  0  0  0  0  0  0  0  0
  133.6412   68.4109  223.5507 H   0  0  0  0  0  0  0  0  0  0  0  0
  132.5713   69.8727  223.7959 H   0  0  0  0  0  0  0  0  0  0  0  0
  134.4229   69.6214  221.7833 H   0  0  0  0  0  0  0  0  0  0  0  0
  133.8243   71.1571  222.3865 H   0  0  0  0  0  0  0  0  0  0  0  0
  137.4868   71.4660  221.5708 H   0  0  0  0  0  0  0  0  0  0  0  0
  136.0207   72.4661  221.2363 H   0  0  0  0  0  0  0  0  0  0  0  0
  137.4040   74.1200  222.9830 H   0  0  0  0  0  0  0  0  0  0  0  0
  141.1528   74.3273  220.5266 H   0  0  0  0  0  0  0  0  0  0  0  0
  142.4849   76.3682  220.9126 H   0  0  0  0  0  0  0  0  0  0  0  0
  142.7040   78.5330  221.7856 H   0  0  0  0  0  0  0  0  0  0  0  0
  139.3642   80.3068  223.8637 H   0  0  0  0  0  0  0  0  0  0  0  0
  138.0135   78.2571  223.4810 H   0  0  0  0  0  0  0  0  0  0  0  0
  139.2248   69.0931  226.4591 H   0  0  0  0  0  0  0  0  0  0  0  0
  139.8564   69.5548  228.8253 H   0  0  0  0  0  0  0  0  0  0  0  0
  141.2917   71.5256  229.3177 H   0  0  0  0  0  0  0  0  0  0  0  0
  142.0943   73.0126  227.4960 H   0  0  0  0  0  0  0  0  0  0  0  0
  141.4551   72.5386  225.1300 H   0  0  0  0  0  0  0  0  0  0  0  0
  1  2  1  0
  2  3  1  0
  3  4  1  0
  4  5  2  0
  4  6  1  0
  6  7  1  0
  7  8  1  0
  8  9  1  0
  9 10  1  0
 10 11  1  0
 11 12  1  0
 12 13  2  0
 12 14  1  0
 14 15  1  0
 15 16  1  0
 16 17  2  0
 16 18  1  0
 18 19  2  0
 19 20  1  0
 20 21  2  0
 21 22  1  0
 22 23  2  0
 23 24  1  0
 23 25  1  0
 25 26  2  0
 26 27  1  0
 27 28  2  0
  2 29  1  0
 29 30  2  0
 30 31  1  0
 31 32  2  0
 32 33  1  0
 33 34  2  0
 11  6  1  0
 28 18  1  0
 34 29  1  0
 27 21  1  0
  1 35  1  0
  1 36  1  0
  1 37  1  0
  2 38  1  6
  3 39  1  0
  6 40  1  6
  7 41  1  0
  7 42  1  0
  8 43  1  0
  8 44  1  0
  9 45  1  0
  9 46  1  0
 10 47  1  0
 10 48  1  0
 14 49  1  0
 14 50  1  0
 15 51  1  0
 19 52  1  0
 20 53  1  0
 22 54  1  0
 25 55  1  0
 26 56  1  0
 30 57  1  0
 31 58  1  0
 32 59  1  0
 33 60  1  0
 34 61  1  0
M  END
>  <smiles>  (69) 
C[C@H](NC(=O)C1CCCCN1C(=O)CNC(=O)c1ccc2cc(Cl)ccc2n1)c1ccccc1

>  <score_type>  (69) 
oracle

>  <origin>  (69) 
autodockgpu

>  <m_score__min__energy>  (69) 
-9.6899999999999995

>  <m_primary>  (69) 
energy

>  <rmsd>  (69) 
9.342663820379995

>  <m_score__min__rmsd>  (69) 
9.342663820379995

>  <meeko>  (69) 
{"free_energy": -8.65, "intermolecular_energy": -10.74, "internal_energy": -3.47, "cluster_size": 4, "cluster_id": 4, "rank_in_cluster": 3}

>  <energy>  (69) 
-9.01

>  <cluster_rmsd>  (69) 
0.0

>  <cluster>  (69) 
4

$$$$

     RDKit          3D

 61 64  0  0  1  0  0  0  0  0999 V2000
  139.2790   77.7480  222.7030 C   0  0  0  0  0  0  0  0  0  0  0  0
  139.9970   78.6130  221.6830 C   0  0  2  0  0  0  0  0  0  0  0  0
  140.7880   77.8120  220.8000 N   0  0  0  0  0  0  0  0  0  0  0  0
  140.5740   77.8960  219.3660 C   0  0  0  0  0  0  0  0  0  0  0  0
  139.6760   78.6970  219.0200 O   0  0  0  0  0  0  0  0  0  0  0  0
  141.4050   77.0590  218.5300 C   0  0  1  0  0  0  0  0  0  0  0  0
  142.9010   77.4390  218.5380 C   0  0  0  0  0  0  0  0  0  0  0  0
  143.7010   76.3100  217.9140 C   0  0  0  0  0  0  0  0  0  0  0  0
  142.8930   75.4650  216.9530 C   0  0  0  0  0  0  0  0  0  0  0  0
  141.6910   74.8070  217.5880 C   0  0  0  0  0  0  0  0  0  0  0  0
  141.4270   75.6410  218.7910 N   0  0  0  0  0  0  0  0  0  0  0  0
  141.2500   75.0080  220.0330 C   0  0  0  0  0  0  0  0  0  0  0  0
  142.0220   75.0870  221.0190 O   0  0  0  0  0  0  0  0  0  0  0  0
  140.0410   74.1550  220.2260 C   0  0  0  0  0  0  0  0  0  0  0  0
  140.1730   73.3360  221.4290 N   0  0  0  0  0  0  0  0  0  0  0  0
  139.3770   72.1620  221.6100 C   0  0  0  0  0  0  0  0  0  0  0  0
  138.5470   71.8150  220.7360 O   0  0  0  0  0  0  0  0  0  0  0  0
  139.5480   71.3780  222.8310 C   0  0  0  0  0  0  0  0  0  0  0  0
  139.0390   70.0860  222.8770 C   0  0  0  0  0  0  0  0  0  0  0  0
  139.1730   69.3040  224.0010 C   0  0  0  0  0  0  0  0  0  0  0  0
  139.8240   69.8050  225.1050 C   0  0  0  0  0  0  0  0  0  0  0  0
  139.9390   68.9970  226.2080 C   0  0  0  0  0  0  0  0  0  0  0  0
  140.6020   69.5130  227.3260 C   0  0  0  0  0  0  0  0  0  0  0  0
  140.7390   68.4720  228.7210 Cl  0  0  0  0  0  0  0  0  0  0  0  0
  141.1110   70.7950  227.2880 C   0  0  0  0  0  0  0  0  0  0  0  0
  140.9790   71.5910  226.1540 C   0  0  0  0  0  0  0  0  0  0  0  0
  140.3250   71.0920  225.0410 C   0  0  0  0  0  0  0  0  0  0  0  0
  140.1840   71.8540  223.9190 N   0  0  0  0  0  0  0  0  0  0  0  0
  140.9350   79.4960  222.4630 C   0  0  0  0  0  0  0  0  0  0  0  0
  140.9720   80.8410  222.1050 C   0  0  0  0  0  0  0  0  0  0  0  0
  141.8050   81.7190  222.7700 C   0  0  0  0  0  0  0  0  0  0  0  0
  142.5940   81.2200  223.7940 C   0  0  0  0  0  0  0  0  0  0  0  0
  142.5590   79.8710  224.1550 C   0  0  0  0  0  0  0  0  0  0  0  0
  141.7200   79.0000  223.4830 C   0  0  0  0  0  0  0  0  0  0  0  0
  139.5507   78.0753  223.7174 H   0  0  0  0  0  0  0  0  0  0  0  0
  138.1919   77.8446  222.5654 H   0  0  0  0  0  0  0  0  0  0  0  0
  139.5741   76.6973  222.5654 H   0  0  0  0  0  0  0  0  0  0  0  0
  139.2656   79.1785  221.0869 H   0  0  0  0  0  0  0  0  0  0  0  0
  141.5100   77.1770  221.2050 H   0  0  0  0  0  0  0  0  0  0  0  0
  140.8939   77.2564  217.5762 H   0  0  0  0  0  0  0  0  0  0  0  0
  143.0503   78.3614  217.9576 H   0  0  0  0  0  0  0  0  0  0  0  0
  143.2368   77.6049  219.5723 H   0  0  0  0  0  0  0  0  0  0  0  0
  144.5508   76.7447  217.3674 H   0  0  0  0  0  0  0  0  0  0  0  0
  144.0282   75.6512  218.7319 H   0  0  0  0  0  0  0  0  0  0  0  0
  142.5436   76.1094  216.1329 H   0  0  0  0  0  0  0  0  0  0  0  0
  143.5527   74.6585  216.6003 H   0  0  0  0  0  0  0  0  0  0  0  0
  140.8294   74.8208  216.9043 H   0  0  0  0  0  0  0  0  0  0  0  0
  141.8640   73.7486  217.8326 H   0  0  0  0  0  0  0  0  0  0  0  0
  139.1557   74.8004  220.3240 H   0  0  0  0  0  0  0  0  0  0  0  0
  139.9346   73.4905  219.3559 H   0  0  0  0  0  0  0  0  0  0  0  0
  140.8570   73.5840  222.1960 H   0  0  0  0  0  0  0  0  0  0  0  0
  138.5184   69.6802  221.9971 H   0  0  0  0  0  0  0  0  0  0  0  0
  138.7620   68.2838  224.0171 H   0  0  0  0  0  0  0  0  0  0  0  0
  139.5239   67.9783  226.2127 H   0  0  0  0  0  0  0  0  0  0  0  0
  141.6310   71.1955  228.1708 H   0  0  0  0  0  0  0  0  0  0  0  0
  141.3919   72.6105  226.1424 H   0  0  0  0  0  0  0  0  0  0  0  0
  140.3336   81.2066  221.2872 H   0  0  0  0  0  0  0  0  0  0  0  0
  141.8411   82.7834  222.4949 H   0  0  0  0  0  0  0  0  0  0  0  0
  143.2645   81.9031  224.3361 H   0  0  0  0  0  0  0  0  0  0  0  0
  143.1970   79.5021  224.9716 H   0  0  0  0  0  0  0  0  0  0  0  0
  141.6798   77.9352  223.7562 H   0  0  0  0  0  0  0  0  0  0  0  0
  1  2  1  0
  2  3  1  0
  3  4  1  0
  4  5  2  0
  4  6  1  0
  6  7  1  0
  7  8  1  0
  8  9  1  0
  9 10  1  0
 10 11  1  0
 11 12  1  0
 12 13  2  0
 12 14  1  0
 14 15  1  0
 15 16  1  0
 16 17  2  0
 16 18  1  0
 18 19  2  0
 19 20  1  0
 20 21  2  0
 21 22  1  0
 22 23  2  0
 23 24  1  0
 23 25  1  0
 25 26  2  0
 26 27  1  0
 27 28  2  0
  2 29  1  0
 29 30  2  0
 30 31  1  0
 31 32  2  0
 32 33  1  0
 33 34  2  0
 11  6  1  0
 28 18  1  0
 34 29  1  0
 27 21  1  0
  1 35  1  0
  1 36  1  0
  1 37  1  0
  2 38  1  6
  3 39  1  0
  6 40  1  6
  7 41  1  0
  7 42  1  0
  8 43  1  0
  8 44  1  0
  9 45  1  0
  9 46  1  0
 10 47  1  0
 10 48  1  0
 14 49  1  0
 14 50  1  0
 15 51  1  0
 19 52  1  0
 20 53  1  0
 22 54  1  0
 25 55  1  0
 26 56  1  0
 30 57  1  0
 31 58  1  0
 32 59  1  0
 33 60  1  0
 34 61  1  0
M  END
>  <smiles>  (70) 
C[C@H](NC(=O)C1CCCCN1C(=O)CNC(=O)c1ccc2cc(Cl)ccc2n1)c1ccccc1

>  <score_type>  (70) 
oracle

>  <origin>  (70) 
autodockgpu

>  <m_score__min__energy>  (70) 
-9.6899999999999995

>  <m_primary>  (70) 
energy

>  <rmsd>  (70) 
2.7704470616425905

>  <m_score__min__rmsd>  (70) 
2.7704470616425905

>  <meeko>  (70) 
{"free_energy": -7.97, "intermolecular_energy": -10.06, "internal_energy": -3.31, "cluster_size": 14, "cluster_id": 1, "rank_in_cluster": 14}

>  <energy>  (70) 
-8.77

>  <cluster_rmsd>  (70) 
1.91

>  <cluster>  (70) 
4

$$$$

     RDKit          3D

 61 64  0  0  1  0  0  0  0  0999 V2000
  140.7580   79.8650  219.0690 C   0  0  0  0  0  0  0  0  0  0  0  0
  141.7780   79.1610  219.9450 C   0  0  2  0  0  0  0  0  0  0  0  0
  141.4470   77.7780  220.1050 N   0  0  0  0  0  0  0  0  0  0  0  0
  142.3530   76.7590  219.6060 C   0  0  0  0  0  0  0  0  0  0  0  0
  143.3860   77.2050  219.0580 O   0  0  0  0  0  0  0  0  0  0  0  0
  141.9580   75.3810  219.7980 C   0  0  1  0  0  0  0  0  0  0  0  0
  143.0570   74.4850  220.4070 C   0  0  0  0  0  0  0  0  0  0  0  0
  142.4320   73.1800  220.8690 C   0  0  0  0  0  0  0  0  0  0  0  0
  141.1590   72.8330  220.1280 C   0  0  0  0  0  0  0  0  0  0  0  0
  140.0730   73.8740  220.2650 C   0  0  0  0  0  0  0  0  0  0  0  0
  140.8160   75.1090  220.6350 N   0  0  0  0  0  0  0  0  0  0  0  0
  140.3730   75.8660  221.7330 C   0  0  0  0  0  0  0  0  0  0  0  0
  141.0950   76.5590  222.4900 O   0  0  0  0  0  0  0  0  0  0  0  0
  138.9160   75.8630  222.0540 C   0  0  0  0  0  0  0  0  0  0  0  0
  138.5150   77.1350  222.6490 N   0  0  0  0  0  0  0  0  0  0  0  0
  138.3800   78.3120  221.8480 C   0  0  0  0  0  0  0  0  0  0  0  0
  138.6060   78.2710  220.6140 O   0  0  0  0  0  0  0  0  0  0  0  0
  137.9760   79.5600  222.4920 C   0  0  0  0  0  0  0  0  0  0  0  0
  137.7470   80.6800  221.7030 C   0  0  0  0  0  0  0  0  0  0  0  0
  137.3650   81.8790  222.2580 C   0  0  0  0  0  0  0  0  0  0  0  0
  137.2030   81.9780  223.6210 C   0  0  0  0  0  0  0  0  0  0  0  0
  136.8220   83.1890  224.1400 C   0  0  0  0  0  0  0  0  0  0  0  0
  136.6590   83.2810  225.5260 C   0  0  0  0  0  0  0  0  0  0  0  0
  136.1730   84.8300  226.1690 Cl  0  0  0  0  0  0  0  0  0  0  0  0
  136.8840   82.1730  226.3160 C   0  0  0  0  0  0  0  0  0  0  0  0
  137.2710   80.9570  225.7610 C   0  0  0  0  0  0  0  0  0  0  0  0
  137.4350   80.8530  224.3900 C   0  0  0  0  0  0  0  0  0  0  0  0
  137.8140   79.6710  223.8250 N   0  0  0  0  0  0  0  0  0  0  0  0
  141.6920   79.8110  221.3010 C   0  0  0  0  0  0  0  0  0  0  0  0
  142.1980   79.0850  222.3770 C   0  0  0  0  0  0  0  0  0  0  0  0
  142.1580   79.6090  223.6540 C   0  0  0  0  0  0  0  0  0  0  0  0
  141.6030   80.8660  223.8250 C   0  0  0  0  0  0  0  0  0  0  0  0
  141.0950   81.5960  222.7480 C   0  0  0  0  0  0  0  0  0  0  0  0
  141.1400   81.0630  221.4720 C   0  0  0  0  0  0  0  0  0  0  0  0
  140.0189   80.3751  219.7043 H   0  0  0  0  0  0  0  0  0  0  0  0
  141.2681   80.6042  218.4339 H   0  0  0  0  0  0  0  0  0  0  0  0
  140.2477   79.1259  218.4339 H   0  0  0  0  0  0  0  0  0  0  0  0
  142.7778   79.2349  219.4923 H   0  0  0  0  0  0  0  0  0  0  0  0
  140.5530   77.5250  220.5800 H   0  0  0  0  0  0  0  0  0  0  0  0
  141.7175   75.1525  218.7492 H   0  0  0  0  0  0  0  0  0  0  0  0
  143.8259   74.2773  219.6483 H   0  0  0  0  0  0  0  0  0  0  0  0
  143.5224   74.9972  221.2620 H   0  0  0  0  0  0  0  0  0  0  0  0
  143.1593   72.3696  220.7129 H   0  0  0  0  0  0  0  0  0  0  0  0
  142.1695   73.3012  221.9303 H   0  0  0  0  0  0  0  0  0  0  0  0
  141.3986   72.7197  219.0604 H   0  0  0  0  0  0  0  0  0  0  0  0
  140.7716   71.9043  220.5724 H   0  0  0  0  0  0  0  0  0  0  0  0
  139.5361   74.0087  219.3144 H   0  0  0  0  0  0  0  0  0  0  0  0
  139.3076   73.5980  221.0053 H   0  0  0  0  0  0  0  0  0  0  0  0
  138.3430   75.7006  221.1292 H   0  0  0  0  0  0  0  0  0  0  0  0
  138.7147   75.0568  222.7748 H   0  0  0  0  0  0  0  0  0  0  0  0
  138.3130   77.2250  223.6830 H   0  0  0  0  0  0  0  0  0  0  0  0
  137.8737   80.6065  220.6128 H   0  0  0  0  0  0  0  0  0  0  0  0
  137.1898   82.7545  221.6156 H   0  0  0  0  0  0  0  0  0  0  0  0
  136.6505   84.0584  223.4883 H   0  0  0  0  0  0  0  0  0  0  0  0
  136.7551   82.2521  227.4055 H   0  0  0  0  0  0  0  0  0  0  0  0
  137.4455   80.0841  226.4072 H   0  0  0  0  0  0  0  0  0  0  0  0
  142.6320   78.0884  222.2083 H   0  0  0  0  0  0  0  0  0  0  0  0
  142.5554   79.0444  224.5103 H   0  0  0  0  0  0  0  0  0  0  0  0
  141.5611   81.3007  224.8346 H   0  0  0  0  0  0  0  0  0  0  0  0
  140.6600   82.5926  222.9139 H   0  0  0  0  0  0  0  0  0  0  0  0
  140.7444   81.6253  220.6133 H   0  0  0  0  0  0  0  0  0  0  0  0
  1  2  1  0
  2  3  1  0
  3  4  1  0
  4  5  2  0
  4  6  1  0
  6  7  1  0
  7  8  1  0
  8  9  1  0
  9 10  1  0
 10 11  1  0
 11 12  1  0
 12 13  2  0
 12 14  1  0
 14 15  1  0
 15 16  1  0
 16 17  2  0
 16 18  1  0
 18 19  2  0
 19 20  1  0
 20 21  2  0
 21 22  1  0
 22 23  2  0
 23 24  1  0
 23 25  1  0
 25 26  2  0
 26 27  1  0
 27 28  2  0
  2 29  1  0
 29 30  2  0
 30 31  1  0
 31 32  2  0
 32 33  1  0
 33 34  2  0
 11  6  1  0
 28 18  1  0
 34 29  1  0
 27 21  1  0
  1 35  1  0
  1 36  1  0
  1 37  1  0
  2 38  1  6
  3 39  1  0
  6 40  1  6
  7 41  1  0
  7 42  1  0
  8 43  1  0
  8 44  1  0
  9 45  1  0
  9 46  1  0
 10 47  1  0
 10 48  1  0
 14 49  1  0
 14 50  1  0
 15 51  1  0
 19 52  1  0
 20 53  1  0
 22 54  1  0
 25 55  1  0
 26 56  1  0
 30 57  1  0
 31 58  1  0
 32 59  1  0
 33 60  1  0
 34 61  1  0
M  END
>  <smiles>  (71) 
C[C@H](NC(=O)C1CCCCN1C(=O)CNC(=O)c1ccc2cc(Cl)ccc2n1)c1ccccc1

>  <score_type>  (71) 
oracle

>  <origin>  (71) 
autodockgpu

>  <m_score__min__energy>  (71) 
-9.6899999999999995

>  <m_primary>  (71) 
energy

>  <rmsd>  (71) 
7.382269226379112

>  <m_score__min__rmsd>  (71) 
7.382269226379112

>  <meeko>  (71) 
{"free_energy": -6.28, "intermolecular_energy": -8.36, "internal_energy": -4.75, "cluster_size": 2, "cluster_id": 12, "rank_in_cluster": 2}

>  <energy>  (71) 
-8.65

>  <cluster_rmsd>  (71) 
1.97

>  <cluster>  (71) 
4

$$$$

     RDKit          3D

 61 64  0  0  1  0  0  0  0  0999 V2000
  140.1780   79.4330  219.8230 C   0  0  0  0  0  0  0  0  0  0  0  0
  141.6630   79.3330  220.1220 C   0  0  2  0  0  0  0  0  0  0  0  0
  142.0690   77.9670  220.2450 N   0  0  0  0  0  0  0  0  0  0  0  0
  142.3430   77.1870  219.0510 C   0  0  0  0  0  0  0  0  0  0  0  0
  142.1920   77.8120  217.9770 O   0  0  0  0  0  0  0  0  0  0  0  0
  142.7470   75.8130  219.2450 C   0  0  1  0  0  0  0  0  0  0  0  0
  144.0850   75.6440  219.9950 C   0  0  0  0  0  0  0  0  0  0  0  0
  144.2290   74.1960  220.4300 C   0  0  0  0  0  0  0  0  0  0  0  0
  143.4390   73.2330  219.5690 C   0  0  0  0  0  0  0  0  0  0  0  0
  141.9540   73.5070  219.5570 C   0  0  0  0  0  0  0  0  0  0  0  0
  141.8570   74.9350  219.9630 N   0  0  0  0  0  0  0  0  0  0  0  0
  140.9590   75.2920  220.9830 C   0  0  0  0  0  0  0  0  0  0  0  0
  141.1220   76.2150  221.8200 O   0  0  0  0  0  0  0  0  0  0  0  0
  139.6880   74.5210  221.1100 C   0  0  0  0  0  0  0  0  0  0  0  0
  139.7400   73.6250  222.2630 N   0  0  0  0  0  0  0  0  0  0  0  0
  140.0020   72.2290  222.0980 C   0  0  0  0  0  0  0  0  0  0  0  0
  140.1910   71.7480  220.9540 O   0  0  0  0  0  0  0  0  0  0  0  0
  140.0430   71.3760  223.2830 C   0  0  0  0  0  0  0  0  0  0  0  0
  139.5460   70.0810  223.1970 C   0  0  0  0  0  0  0  0  0  0  0  0
  139.5610   69.2360  224.2820 C   0  0  0  0  0  0  0  0  0  0  0  0
  140.0790   69.6740  225.4800 C   0  0  0  0  0  0  0  0  0  0  0  0
  140.0780   68.8040  226.5400 C   0  0  0  0  0  0  0  0  0  0  0  0
  140.6060   69.2570  227.7530 C   0  0  0  0  0  0  0  0  0  0  0  0
  140.5970   68.1370  229.0930 Cl  0  0  0  0  0  0  0  0  0  0  0  0
  141.1020   70.5420  227.8460 C   0  0  0  0  0  0  0  0  0  0  0  0
  141.0890   71.4010  226.7530 C   0  0  0  0  0  0  0  0  0  0  0  0
  140.5690   70.9650  225.5470 C   0  0  0  0  0  0  0  0  0  0  0  0
  140.5470   71.7910  224.4620 N   0  0  0  0  0  0  0  0  0  0  0  0
  141.8700   79.9930  221.4610 C   0  0  0  0  0  0  0  0  0  0  0  0
  142.3590   79.1890  222.4870 C   0  0  0  0  0  0  0  0  0  0  0  0
  142.5770   79.7150  223.7440 C   0  0  0  0  0  0  0  0  0  0  0  0
  142.2960   81.0560  223.9470 C   0  0  0  0  0  0  0  0  0  0  0  0
  141.8050   81.8650  222.9200 C   0  0  0  0  0  0  0  0  0  0  0  0
  141.5900   81.3280  221.6630 C   0  0  0  0  0  0  0  0  0  0  0  0
  139.6155   79.4709  220.7676 H   0  0  0  0  0  0  0  0  0  0  0  0
  139.9816   80.3464  219.2424 H   0  0  0  0  0  0  0  0  0  0  0  0
  139.8609   78.5542  219.2424 H   0  0  0  0  0  0  0  0  0  0  0  0
  142.2424   79.8023  219.3133 H   0  0  0  0  0  0  0  0  0  0  0  0
  142.1610   77.5510  221.1980 H   0  0  0  0  0  0  0  0  0  0  0  0
  142.7842   75.5233  218.1845 H   0  0  0  0  0  0  0  0  0  0  0  0
  144.9178   75.9134  219.3287 H   0  0  0  0  0  0  0  0  0  0  0  0
  144.1017   76.3004  220.8775 H   0  0  0  0  0  0  0  0  0  0  0  0
  145.2924   73.9195  220.3782 H   0  0  0  0  0  0  0  0  0  0  0  0
  143.8318   74.1210  221.4530 H   0  0  0  0  0  0  0  0  0  0  0  0
  143.8133   73.3027  218.5370 H   0  0  0  0  0  0  0  0  0  0  0  0
  143.5772   72.2300  219.9989 H   0  0  0  0  0  0  0  0  0  0  0  0
  141.5350   73.3556  218.5513 H   0  0  0  0  0  0  0  0  0  0  0  0
  141.3906   72.8352  220.2213 H   0  0  0  0  0  0  0  0  0  0  0  0
  138.8508   75.2233  221.2360 H   0  0  0  0  0  0  0  0  0  0  0  0
  139.5476   73.9187  220.2003 H   0  0  0  0  0  0  0  0  0  0  0  0
  139.5880   73.9780  223.2480 H   0  0  0  0  0  0  0  0  0  0  0  0
  139.1324   69.7247  222.2420 H   0  0  0  0  0  0  0  0  0  0  0  0
  139.1611   68.2151  224.1930 H   0  0  0  0  0  0  0  0  0  0  0  0
  139.6758   67.7851  226.4396 H   0  0  0  0  0  0  0  0  0  0  0  0
  141.5154   70.8929  228.8031 H   0  0  0  0  0  0  0  0  0  0  0  0
  141.4897   72.4212  226.8463 H   0  0  0  0  0  0  0  0  0  0  0  0
  142.5730   78.1274  222.2944 H   0  0  0  0  0  0  0  0  0  0  0  0
  142.9627   79.0875  224.5610 H   0  0  0  0  0  0  0  0  0  0  0  0
  142.4637   81.4946  224.9417 H   0  0  0  0  0  0  0  0  0  0  0  0
  141.5896   82.9269  223.1099 H   0  0  0  0  0  0  0  0  0  0  0  0
  141.2044   81.9520  220.8433 H   0  0  0  0  0  0  0  0  0  0  0  0
  1  2  1  0
  2  3  1  0
  3  4  1  0
  4  5  2  0
  4  6  1  0
  6  7  1  0
  7  8  1  0
  8  9  1  0
  9 10  1  0
 10 11  1  0
 11 12  1  0
 12 13  2  0
 12 14  1  0
 14 15  1  0
 15 16  1  0
 16 17  2  0
 16 18  1  0
 18 19  2  0
 19 20  1  0
 20 21  2  0
 21 22  1  0
 22 23  2  0
 23 24  1  0
 23 25  1  0
 25 26  2  0
 26 27  1  0
 27 28  2  0
  2 29  1  0
 29 30  2  0
 30 31  1  0
 31 32  2  0
 32 33  1  0
 33 34  2  0
 11  6  1  0
 28 18  1  0
 34 29  1  0
 27 21  1  0
  1 35  1  0
  1 36  1  0
  1 37  1  0
  2 38  1  6
  3 39  1  0
  6 40  1  6
  7 41  1  0
  7 42  1  0
  8 43  1  0
  8 44  1  0
  9 45  1  0
  9 46  1  0
 10 47  1  0
 10 48  1  0
 14 49  1  0
 14 50  1  0
 15 51  1  0
 19 52  1  0
 20 53  1  0
 22 54  1  0
 25 55  1  0
 26 56  1  0
 30 57  1  0
 31 58  1  0
 32 59  1  0
 33 60  1  0
 34 61  1  0
M  END
>  <smiles>  (72) 
C[C@H](NC(=O)C1CCCCN1C(=O)CNC(=O)c1ccc2cc(Cl)ccc2n1)c1ccccc1

>  <score_type>  (72) 
oracle

>  <origin>  (72) 
autodockgpu

>  <m_score__min__energy>  (72) 
-9.6899999999999995

>  <m_primary>  (72) 
energy

>  <rmsd>  (72) 
3.043626818134903

>  <m_score__min__rmsd>  (72) 
3.043626818134903

>  <meeko>  (72) 
{"free_energy": -9.69, "intermolecular_energy": -11.78, "internal_energy": -2.72, "cluster_size": 14, "cluster_id": 1, "rank_in_cluster": 1}

>  <energy>  (72) 
-8.55

>  <cluster_rmsd>  (72) 
1.85

>  <cluster>  (72) 
4

$$$$

     RDKit          3D

 61 64  0  0  1  0  0  0  0  0999 V2000
  141.0270   78.4280  218.9290 C   0  0  0  0  0  0  0  0  0  0  0  0
  142.1210   77.9690  219.8760 C   0  0  2  0  0  0  0  0  0  0  0  0
  142.0500   76.5570  220.0920 N   0  0  0  0  0  0  0  0  0  0  0  0
  142.5560   75.6480  219.0790 C   0  0  0  0  0  0  0  0  0  0  0  0
  143.0280   76.2100  218.0650 O   0  0  0  0  0  0  0  0  0  0  0  0
  142.4540   74.2330  219.3580 C   0  0  1  0  0  0  0  0  0  0  0  0
  143.0920   73.8020  220.6960 C   0  0  0  0  0  0  0  0  0  0  0  0
  142.6320   72.3940  221.0330 C   0  0  0  0  0  0  0  0  0  0  0  0
  142.2280   71.5900  219.8150 C   0  0  0  0  0  0  0  0  0  0  0  0
  141.0980   72.2090  219.0260 C   0  0  0  0  0  0  0  0  0  0  0  0
  141.1390   73.6430  219.4200 N   0  0  0  0  0  0  0  0  0  0  0  0
  139.9490   74.2730  219.8200 C   0  0  0  0  0  0  0  0  0  0  0  0
  139.7950   75.5030  220.0210 O   0  0  0  0  0  0  0  0  0  0  0  0
  138.7380   73.4270  220.0370 C   0  0  0  0  0  0  0  0  0  0  0  0
  138.9480   72.4980  221.1440 N   0  0  0  0  0  0  0  0  0  0  0  0
  139.7470   72.8650  222.2710 C   0  0  0  0  0  0  0  0  0  0  0  0
  140.2860   73.9970  222.3270 O   0  0  0  0  0  0  0  0  0  0  0  0
  139.9260   71.8990  223.3530 C   0  0  0  0  0  0  0  0  0  0  0  0
  139.6460   70.5590  223.1110 C   0  0  0  0  0  0  0  0  0  0  0  0
  139.7980   69.6090  224.0930 C   0  0  0  0  0  0  0  0  0  0  0  0
  140.2360   69.9840  225.3420 C   0  0  0  0  0  0  0  0  0  0  0  0
  140.3760   69.0090  226.2970 C   0  0  0  0  0  0  0  0  0  0  0  0
  140.8210   69.3990  227.5640 C   0  0  0  0  0  0  0  0  0  0  0  0
  140.9940   68.1450  228.7680 Cl  0  0  0  0  0  0  0  0  0  0  0  0
  141.1020   70.7270  227.8120 C   0  0  0  0  0  0  0  0  0  0  0  0
  140.9510   71.6940  226.8230 C   0  0  0  0  0  0  0  0  0  0  0  0
  140.5100   71.3210  225.5640 C   0  0  0  0  0  0  0  0  0  0  0  0
  140.3540   72.2520  224.5800 N   0  0  0  0  0  0  0  0  0  0  0  0
  141.8500   78.6470  221.1940 C   0  0  0  0  0  0  0  0  0  0  0  0
  141.4360   77.8310  222.2440 C   0  0  0  0  0  0  0  0  0  0  0  0
  141.1670   78.3730  223.4850 C   0  0  0  0  0  0  0  0  0  0  0  0
  141.3200   79.7400  223.6470 C   0  0  0  0  0  0  0  0  0  0  0  0
  141.7350   80.5600  222.5960 C   0  0  0  0  0  0  0  0  0  0  0  0
  142.0030   80.0080  221.3560 C   0  0  0  0  0  0  0  0  0  0  0  0
  140.1661   78.7892  219.5108 H   0  0  0  0  0  0  0  0  0  0  0  0
  141.4085   79.2419  218.2950 H   0  0  0  0  0  0  0  0  0  0  0  0
  140.7136   77.5855  218.2950 H   0  0  0  0  0  0  0  0  0  0  0  0
  143.1088   78.2132  219.4582 H   0  0  0  0  0  0  0  0  0  0  0  0
  141.6330   76.2020  220.9800 H   0  0  0  0  0  0  0  0  0  0  0  0
  142.9863   73.8714  218.4659 H   0  0  0  0  0  0  0  0  0  0  0  0
  144.1880   73.8198  220.6045 H   0  0  0  0  0  0  0  0  0  0  0  0
  142.7848   74.4941  221.4939 H   0  0  0  0  0  0  0  0  0  0  0  0
  143.4550   71.8696  221.5406 H   0  0  0  0  0  0  0  0  0  0  0  0
  141.7425   72.4856  221.6736 H   0  0  0  0  0  0  0  0  0  0  0  0
  143.1027   71.4971  219.1544 H   0  0  0  0  0  0  0  0  0  0  0  0
  141.8704   70.6150  220.1776 H   0  0  0  0  0  0  0  0  0  0  0  0
  141.2651   72.0940  217.9449 H   0  0  0  0  0  0  0  0  0  0  0  0
  140.1256   71.7375  219.2313 H   0  0  0  0  0  0  0  0  0  0  0  0
  137.8808   74.0764  220.2684 H   0  0  0  0  0  0  0  0  0  0  0  0
  138.5428   72.8482  219.1222 H   0  0  0  0  0  0  0  0  0  0  0  0
  138.5170   71.5320  221.1470 H   0  0  0  0  0  0  0  0  0  0  0  0
  139.2959   70.2528  222.1141 H   0  0  0  0  0  0  0  0  0  0  0  0
  139.5705   68.5539  223.8810 H   0  0  0  0  0  0  0  0  0  0  0  0
  140.1461   67.9567  226.0737 H   0  0  0  0  0  0  0  0  0  0  0  0
  141.4521   71.0269  228.8107 H   0  0  0  0  0  0  0  0  0  0  0  0
  141.1803   72.7478  227.0395 H   0  0  0  0  0  0  0  0  0  0  0  0
  141.3227   76.7487  222.0837 H   0  0  0  0  0  0  0  0  0  0  0  0
  140.8405   77.7373  224.3212 H   0  0  0  0  0  0  0  0  0  0  0  0
  141.1093   80.1908  224.6280 H   0  0  0  0  0  0  0  0  0  0  0  0
  141.8486   81.6427  222.7535 H   0  0  0  0  0  0  0  0  0  0  0  0
  142.3308   80.6406  220.5180 H   0  0  0  0  0  0  0  0  0  0  0  0
  1  2  1  0
  2  3  1  0
  3  4  1  0
  4  5  2  0
  4  6  1  0
  6  7  1  0
  7  8  1  0
  8  9  1  0
  9 10  1  0
 10 11  1  0
 11 12  1  0
 12 13  2  0
 12 14  1  0
 14 15  1  0
 15 16  1  0
 16 17  2  0
 16 18  1  0
 18 19  2  0
 19 20  1  0
 20 21  2  0
 21 22  1  0
 22 23  2  0
 23 24  1  0
 23 25  1  0
 25 26  2  0
 26 27  1  0
 27 28  2  0
  2 29  1  0
 29 30  2  0
 30 31  1  0
 31 32  2  0
 32 33  1  0
 33 34  2  0
 11  6  1  0
 28 18  1  0
 34 29  1  0
 27 21  1  0
  1 35  1  0
  1 36  1  0
  1 37  1  0
  2 38  1  6
  3 39  1  0
  6 40  1  6
  7 41  1  0
  7 42  1  0
  8 43  1  0
  8 44  1  0
  9 45  1  0
  9 46  1  0
 10 47  1  0
 10 48  1  0
 14 49  1  0
 14 50  1  0
 15 51  1  0
 19 52  1  0
 20 53  1  0
 22 54  1  0
 25 55  1  0
 26 56  1  0
 30 57  1  0
 31 58  1  0
 32 59  1  0
 33 60  1  0
 34 61  1  0
M  END
>  <smiles>  (73) 
C[C@H](NC(=O)C1CCCCN1C(=O)CNC(=O)c1ccc2cc(Cl)ccc2n1)c1ccccc1

>  <score_type>  (73) 
oracle

>  <origin>  (73) 
autodockgpu

>  <m_score__min__energy>  (73) 
-9.6899999999999995

>  <m_primary>  (73) 
energy

>  <rmsd>  (73) 
3.357593043807688

>  <m_score__min__rmsd>  (73) 
3.357593043807688

>  <meeko>  (73) 
{"free_energy": -8.24, "intermolecular_energy": -10.33, "internal_energy": -2.63, "cluster_size": 14, "cluster_id": 1, "rank_in_cluster": 13}

>  <energy>  (73) 
-8.76

>  <cluster_rmsd>  (73) 
0.0

>  <cluster>  (73) 
5

$$$$

     RDKit          3D

 61 64  0  0  1  0  0  0  0  0999 V2000
  139.7730   77.9770  220.5410 C   0  0  0  0  0  0  0  0  0  0  0  0
  141.2880   78.0680  220.5540 C   0  0  2  0  0  0  0  0  0  0  0  0
  141.8780   76.7680  220.6410 N   0  0  0  0  0  0  0  0  0  0  0  0
  142.2550   76.0670  219.4270 C   0  0  0  0  0  0  0  0  0  0  0  0
  142.0190   76.6940  218.3690 O   0  0  0  0  0  0  0  0  0  0  0  0
  142.8450   74.7560  219.5840 C   0  0  1  0  0  0  0  0  0  0  0  0
  144.1320   74.7360  220.4350 C   0  0  0  0  0  0  0  0  0  0  0  0
  144.4570   73.3000  220.8070 C   0  0  0  0  0  0  0  0  0  0  0  0
  143.8890   72.2880  219.8350 C   0  0  0  0  0  0  0  0  0  0  0  0
  142.3840   72.3450  219.7100 C   0  0  0  0  0  0  0  0  0  0  0  0
  142.0440   73.7150  220.1790 N   0  0  0  0  0  0  0  0  0  0  0  0
  141.0280   73.8730  221.1360 C   0  0  0  0  0  0  0  0  0  0  0  0
  141.0780   74.6120  222.1500 O   0  0  0  0  0  0  0  0  0  0  0  0
  139.7610   73.1060  220.9580 C   0  0  0  0  0  0  0  0  0  0  0  0
  138.7680   73.5080  221.9510 N   0  0  0  0  0  0  0  0  0  0  0  0
  137.4020   73.1030  221.8330 C   0  0  0  0  0  0  0  0  0  0  0  0
  137.0310   72.3910  220.8670 O   0  0  0  0  0  0  0  0  0  0  0  0
  136.4490   73.5320  222.8530 C   0  0  0  0  0  0  0  0  0  0  0  0
  136.2010   74.8900  223.0130 C   0  0  0  0  0  0  0  0  0  0  0  0
  135.3130   75.3480  223.9580 C   0  0  0  0  0  0  0  0  0  0  0  0
  134.6520   74.4490  224.7640 C   0  0  0  0  0  0  0  0  0  0  0  0
  133.7740   74.9420  225.6950 C   0  0  0  0  0  0  0  0  0  0  0  0
  133.1060   74.0220  226.5100 C   0  0  0  0  0  0  0  0  0  0  0  0
  131.9910   74.6660  227.6900 Cl  0  0  0  0  0  0  0  0  0  0  0  0
  133.3470   72.6720  226.3570 C   0  0  0  0  0  0  0  0  0  0  0  0
  134.2440   72.2020  225.4030 C   0  0  0  0  0  0  0  0  0  0  0  0
  134.9110   73.1020  224.5900 C   0  0  0  0  0  0  0  0  0  0  0  0
  135.7950   72.6640  223.6490 N   0  0  0  0  0  0  0  0  0  0  0  0
  141.6550   78.8210  221.8060 C   0  0  0  0  0  0  0  0  0  0  0  0
  142.2050   80.0890  221.6370 C   0  0  0  0  0  0  0  0  0  0  0  0
  142.5680   80.8460  222.7330 C   0  0  0  0  0  0  0  0  0  0  0  0
  142.3690   80.3050  223.9930 C   0  0  0  0  0  0  0  0  0  0  0  0
  141.8180   79.0340  224.1660 C   0  0  0  0  0  0  0  0  0  0  0  0
  141.4570   78.2830  223.0610 C   0  0  0  0  0  0  0  0  0  0  0  0
  139.3981   77.9545  221.5749 H   0  0  0  0  0  0  0  0  0  0  0  0
  139.3576   78.8518  220.0193 H   0  0  0  0  0  0  0  0  0  0  0  0
  139.4653   77.0587  220.0193 H   0  0  0  0  0  0  0  0  0  0  0  0
  141.6439   78.5561  219.6347 H   0  0  0  0  0  0  0  0  0  0  0  0
  142.0270   76.3430  221.5820 H   0  0  0  0  0  0  0  0  0  0  0  0
  143.0063   74.5420  218.5171 H   0  0  0  0  0  0  0  0  0  0  0  0
  144.9636   75.1641  219.8560 H   0  0  0  0  0  0  0  0  0  0  0  0
  143.9831   75.3316  221.3478 H   0  0  0  0  0  0  0  0  0  0  0  0
  145.5506   73.1846  220.8323 H   0  0  0  0  0  0  0  0  0  0  0  0
  143.9976   73.1047  221.7872 H   0  0  0  0  0  0  0  0  0  0  0  0
  144.3273   72.4747  218.8435 H   0  0  0  0  0  0  0  0  0  0  0  0
  144.1420   71.2908  220.2243 H   0  0  0  0  0  0  0  0  0  0  0  0
  142.0711   72.1988  218.6656 H   0  0  0  0  0  0  0  0  0  0  0  0
  141.8777   71.5581  220.2883 H   0  0  0  0  0  0  0  0  0  0  0  0
  139.3620   73.2973  219.9509 H   0  0  0  0  0  0  0  0  0  0  0  0
  139.9758   72.0350  221.0874 H   0  0  0  0  0  0  0  0  0  0  0  0
  139.0270   74.1070  222.7830 H   0  0  0  0  0  0  0  0  0  0  0  0
  136.7254   75.6130  222.3710 H   0  0  0  0  0  0  0  0  0  0  0  0
  135.1319   76.4273  224.0692 H   0  0  0  0  0  0  0  0  0  0  0  0
  133.6010   76.0235  225.7974 H   0  0  0  0  0  0  0  0  0  0  0  0
  132.8197   71.9535  227.0018 H   0  0  0  0  0  0  0  0  0  0  0  0
  134.4220   71.1218  225.2955 H   0  0  0  0  0  0  0  0  0  0  0  0
  142.3513   80.4903  220.6233 H   0  0  0  0  0  0  0  0  0  0  0  0
  143.0024   81.8490  222.6096 H   0  0  0  0  0  0  0  0  0  0  0  0
  142.6523   80.8917  224.8793 H   0  0  0  0  0  0  0  0  0  0  0  0
  141.6710   78.6302  225.1786 H   0  0  0  0  0  0  0  0  0  0  0  0
  141.0220   77.2798  223.1806 H   0  0  0  0  0  0  0  0  0  0  0  0
  1  2  1  0
  2  3  1  0
  3  4  1  0
  4  5  2  0
  4  6  1  0
  6  7  1  0
  7  8  1  0
  8  9  1  0
  9 10  1  0
 10 11  1  0
 11 12  1  0
 12 13  2  0
 12 14  1  0
 14 15  1  0
 15 16  1  0
 16 17  2  0
 16 18  1  0
 18 19  2  0
 19 20  1  0
 20 21  2  0
 21 22  1  0
 22 23  2  0
 23 24  1  0
 23 25  1  0
 25 26  2  0
 26 27  1  0
 27 28  2  0
  2 29  1  0
 29 30  2  0
 30 31  1  0
 31 32  2  0
 32 33  1  0
 33 34  2  0
 11  6  1  0
 28 18  1  0
 34 29  1  0
 27 21  1  0
  1 35  1  0
  1 36  1  0
  1 37  1  0
  2 38  1  6
  3 39  1  0
  6 40  1  6
  7 41  1  0
  7 42  1  0
  8 43  1  0
  8 44  1  0
  9 45  1  0
  9 46  1  0
 10 47  1  0
 10 48  1  0
 14 49  1  0
 14 50  1  0
 15 51  1  0
 19 52  1  0
 20 53  1  0
 22 54  1  0
 25 55  1  0
 26 56  1  0
 30 57  1  0
 31 58  1  0
 32 59  1  0
 33 60  1  0
 34 61  1  0
M  END
>  <smiles>  (74) 
C[C@H](NC(=O)C1CCCCN1C(=O)CNC(=O)c1ccc2cc(Cl)ccc2n1)c1ccccc1

>  <score_type>  (74) 
oracle

>  <origin>  (74) 
autodockgpu

>  <m_score__min__energy>  (74) 
-9.6899999999999995

>  <m_primary>  (74) 
energy

>  <rmsd>  (74) 
5.264549972933181

>  <m_score__min__rmsd>  (74) 
5.264549972933181

>  <meeko>  (74) 
{"free_energy": -8.42, "intermolecular_energy": -10.51, "internal_energy": -3.11, "cluster_size": 5, "cluster_id": 7, "rank_in_cluster": 2}

>  <energy>  (74) 
-8.76

>  <cluster_rmsd>  (74) 
1.51

>  <cluster>  (74) 
5

$$$$

     RDKit          3D

 61 64  0  0  1  0  0  0  0  0999 V2000
  140.5990   71.5600  223.4730 C   0  0  0  0  0  0  0  0  0  0  0  0
  139.9720   70.5110  224.3720 C   0  0  2  0  0  0  0  0  0  0  0  0
  138.5450   70.5400  224.2740 N   0  0  0  0  0  0  0  0  0  0  0  0
  137.8110   69.3010  224.0880 C   0  0  0  0  0  0  0  0  0  0  0  0
  138.5270   68.2760  224.0290 O   0  0  0  0  0  0  0  0  0  0  0  0
  136.3710   69.4010  223.9950 C   0  0  1  0  0  0  0  0  0  0  0  0
  135.6500   69.4760  225.3570 C   0  0  0  0  0  0  0  0  0  0  0  0
  134.2130   69.9130  225.1330 C   0  0  0  0  0  0  0  0  0  0  0  0
  133.6980   69.5830  223.7490 C   0  0  0  0  0  0  0  0  0  0  0  0
  134.4950   70.2220  222.6360 C   0  0  0  0  0  0  0  0  0  0  0  0
  135.8100   70.5120  223.2680 N   0  0  0  0  0  0  0  0  0  0  0  0
  136.3640   71.7950  223.1260 C   0  0  0  0  0  0  0  0  0  0  0  0
  136.2540   72.7410  223.9450 O   0  0  0  0  0  0  0  0  0  0  0  0
  137.1600   72.0920  221.8990 C   0  0  0  0  0  0  0  0  0  0  0  0
  137.8610   73.3660  222.0340 N   0  0  0  0  0  0  0  0  0  0  0  0
  139.0410   73.6410  221.2730 C   0  0  0  0  0  0  0  0  0  0  0  0
  139.4960   72.7860  220.4740 O   0  0  0  0  0  0  0  0  0  0  0  0
  139.7050   74.9310  221.4450 C   0  0  0  0  0  0  0  0  0  0  0  0
  140.9260   75.1470  220.8190 C   0  0  0  0  0  0  0  0  0  0  0  0
  141.5930   76.3430  220.9460 C   0  0  0  0  0  0  0  0  0  0  0  0
  141.0460   77.3510  221.7070 C   0  0  0  0  0  0  0  0  0  0  0  0
  141.7390   78.5300  221.8110 C   0  0  0  0  0  0  0  0  0  0  0  0
  141.1750   79.5480  222.5860 C   0  0  0  0  0  0  0  0  0  0  0  0
  142.0710   81.0430  222.7090 Cl  0  0  0  0  0  0  0  0  0  0  0  0
  139.9620   79.3420  223.2100 C   0  0  0  0  0  0  0  0  0  0  0  0
  139.2820   78.1350  223.0850 C   0  0  0  0  0  0  0  0  0  0  0  0
  139.8290   77.1180  222.3220 C   0  0  0  0  0  0  0  0  0  0  0  0
  139.1800   75.9260  222.1850 N   0  0  0  0  0  0  0  0  0  0  0  0
  140.3400   70.8890  225.7830 C   0  0  0  0  0  0  0  0  0  0  0  0
  139.8210   70.0930  226.8010 C   0  0  0  0  0  0  0  0  0  0  0  0
  140.1100   70.3700  228.1220 C   0  0  0  0  0  0  0  0  0  0  0  0
  140.9250   71.4560  228.3970 C   0  0  0  0  0  0  0  0  0  0  0  0
  141.4480   72.2560  227.3780 C   0  0  0  0  0  0  0  0  0  0  0  0
  141.1520   71.9700  226.0570 C   0  0  0  0  0  0  0  0  0  0  0  0
  141.0658   72.3410  224.0911 H   0  0  0  0  0  0  0  0  0  0  0  0
  141.3638   71.0890  222.8380 H   0  0  0  0  0  0  0  0  0  0  0  0
  139.8220   72.0106  222.8380 H   0  0  0  0  0  0  0  0  0  0  0  0
  140.3256   69.5096  224.0853 H   0  0  0  0  0  0  0  0  0  0  0  0
  138.0540   71.4580  224.3380 H   0  0  0  0  0  0  0  0  0  0  0  0
  136.1977   68.4655  223.4430 H   0  0  0  0  0  0  0  0  0  0  0  0
  135.6638   68.4861  225.8365 H   0  0  0  0  0  0  0  0  0  0  0  0
  136.1611   70.2002  226.0084 H   0  0  0  0  0  0  0  0  0  0  0  0
  133.5747   69.4081  225.8730 H   0  0  0  0  0  0  0  0  0  0  0  0
  134.1839   71.0074  225.2401 H   0  0  0  0  0  0  0  0  0  0  0  0
  133.7311   68.4914  223.6173 H   0  0  0  0  0  0  0  0  0  0  0  0
  132.6755   69.9830  223.6827 H   0  0  0  0  0  0  0  0  0  0  0  0
  134.6107   69.5301  221.7888 H   0  0  0  0  0  0  0  0  0  0  0  0
  134.0110   71.1205  222.2257 H   0  0  0  0  0  0  0  0  0  0  0  0
  137.8961   71.2896  221.7432 H   0  0  0  0  0  0  0  0  0  0  0  0
  136.4756   72.1543  221.0401 H   0  0  0  0  0  0  0  0  0  0  0  0
  137.5210   74.1210  222.6920 H   0  0  0  0  0  0  0  0  0  0  0  0
  141.3684   74.3453  220.2094 H   0  0  0  0  0  0  0  0  0  0  0  0
  142.5590   76.4933  220.4418 H   0  0  0  0  0  0  0  0  0  0  0  0
  142.7044   78.6698  221.3027 H   0  0  0  0  0  0  0  0  0  0  0  0
  139.5243   80.1475  223.8179 H   0  0  0  0  0  0  0  0  0  0  0  0
  138.3154   77.9897  223.5895 H   0  0  0  0  0  0  0  0  0  0  0  0
  139.1763   69.2376  226.5507 H   0  0  0  0  0  0  0  0  0  0  0  0
  139.7050   69.7466  228.9328 H   0  0  0  0  0  0  0  0  0  0  0  0
  141.1663   71.6943  229.4434 H   0  0  0  0  0  0  0  0  0  0  0  0
  142.0938   73.1115  227.6254 H   0  0  0  0  0  0  0  0  0  0  0  0
  141.5552   72.5908  225.2434 H   0  0  0  0  0  0  0  0  0  0  0  0
  1  2  1  0
  2  3  1  0
  3  4  1  0
  4  5  2  0
  4  6  1  0
  6  7  1  0
  7  8  1  0
  8  9  1  0
  9 10  1  0
 10 11  1  0
 11 12  1  0
 12 13  2  0
 12 14  1  0
 14 15  1  0
 15 16  1  0
 16 17  2  0
 16 18  1  0
 18 19  2  0
 19 20  1  0
 20 21  2  0
 21 22  1  0
 22 23  2  0
 23 24  1  0
 23 25  1  0
 25 26  2  0
 26 27  1  0
 27 28  2  0
  2 29  1  0
 29 30  2  0
 30 31  1  0
 31 32  2  0
 32 33  1  0
 33 34  2  0
 11  6  1  0
 28 18  1  0
 34 29  1  0
 27 21  1  0
  1 35  1  0
  1 36  1  0
  1 37  1  0
  2 38  1  6
  3 39  1  0
  6 40  1  6
  7 41  1  0
  7 42  1  0
  8 43  1  0
  8 44  1  0
  9 45  1  0
  9 46  1  0
 10 47  1  0
 10 48  1  0
 14 49  1  0
 14 50  1  0
 15 51  1  0
 19 52  1  0
 20 53  1  0
 22 54  1  0
 25 55  1  0
 26 56  1  0
 30 57  1  0
 31 58  1  0
 32 59  1  0
 33 60  1  0
 34 61  1  0
M  END
>  <smiles>  (75) 
C[C@H](NC(=O)C1CCCCN1C(=O)CNC(=O)c1ccc2cc(Cl)ccc2n1)c1ccccc1

>  <score_type>  (75) 
oracle

>  <origin>  (75) 
autodockgpu

>  <m_score__min__energy>  (75) 
-9.6899999999999995

>  <m_primary>  (75) 
energy

>  <rmsd>  (75) 
9.302606563957402

>  <m_score__min__rmsd>  (75) 
9.302606563957402

>  <meeko>  (75) 
{"free_energy": -8.55, "intermolecular_energy": -10.63, "internal_energy": -3.44, "cluster_size": 4, "cluster_id": 4, "rank_in_cluster": 4}

>  <energy>  (75) 
-8.68

>  <cluster_rmsd>  (75) 
1.0

>  <cluster>  (75) 
5

$$$$

     RDKit          3D

 61 64  0  0  1  0  0  0  0  0999 V2000
  138.8990   78.3090  222.9380 C   0  0  0  0  0  0  0  0  0  0  0  0
  139.8050   78.9270  221.8880 C   0  0  2  0  0  0  0  0  0  0  0  0
  140.5120   77.9160  221.1640 N   0  0  0  0  0  0  0  0  0  0  0  0
  140.4490   77.8930  219.7140 C   0  0  0  0  0  0  0  0  0  0  0  0
  139.7510   78.8000  219.2090 O   0  0  0  0  0  0  0  0  0  0  0  0
  141.1850   76.8440  219.0430 C   0  0  1  0  0  0  0  0  0  0  0  0
  142.7190   76.9950  219.1210 C   0  0  0  0  0  0  0  0  0  0  0  0
  143.3670   75.6910  218.6910 C   0  0  0  0  0  0  0  0  0  0  0  0
  142.4910   74.8630  217.7750 C   0  0  0  0  0  0  0  0  0  0  0  0
  141.1660   74.4750  218.3880 C   0  0  0  0  0  0  0  0  0  0  0  0
  140.9700   75.4820  219.4650 N   0  0  0  0  0  0  0  0  0  0  0  0
  140.6240   75.0420  220.7540 C   0  0  0  0  0  0  0  0  0  0  0  0
  141.3350   75.1450  221.7840 O   0  0  0  0  0  0  0  0  0  0  0  0
  139.2980   74.3860  220.9470 C   0  0  0  0  0  0  0  0  0  0  0  0
  139.3270   73.4900  222.1000 N   0  0  0  0  0  0  0  0  0  0  0  0
  140.1780   72.3410  222.1180 C   0  0  0  0  0  0  0  0  0  0  0  0
  140.9170   72.0820  221.1370 O   0  0  0  0  0  0  0  0  0  0  0  0
  140.1710   71.4770  223.2960 C   0  0  0  0  0  0  0  0  0  0  0  0
  139.6320   70.2000  223.1900 C   0  0  0  0  0  0  0  0  0  0  0  0
  139.6010   69.3460  224.2670 C   0  0  0  0  0  0  0  0  0  0  0  0
  140.1110   69.7570  225.4780 C   0  0  0  0  0  0  0  0  0  0  0  0
  140.0630   68.8780  226.5300 C   0  0  0  0  0  0  0  0  0  0  0  0
  140.5840   69.3040  227.7560 C   0  0  0  0  0  0  0  0  0  0  0  0
  140.5150   68.1730  229.0860 Cl  0  0  0  0  0  0  0  0  0  0  0  0
  141.1210   70.5700  227.8690 C   0  0  0  0  0  0  0  0  0  0  0  0
  141.1560   71.4390  226.7830 C   0  0  0  0  0  0  0  0  0  0  0  0
  140.6430   71.0300  225.5640 C   0  0  0  0  0  0  0  0  0  0  0  0
  140.6670   71.8650  224.4870 N   0  0  0  0  0  0  0  0  0  0  0  0
  140.8210   79.7470  222.6380 C   0  0  0  0  0  0  0  0  0  0  0  0
  140.8720   81.1070  222.3400 C   0  0  0  0  0  0  0  0  0  0  0  0
  141.7750   81.9300  222.9830 C   0  0  0  0  0  0  0  0  0  0  0  0
  142.6190   81.3630  223.9230 C   0  0  0  0  0  0  0  0  0  0  0  0
  142.5700   80.0000  224.2240 C   0  0  0  0  0  0  0  0  0  0  0  0
  141.6620   79.1830  223.5750 C   0  0  0  0  0  0  0  0  0  0  0  0
  139.2727   78.5639  223.9407 H   0  0  0  0  0  0  0  0  0  0  0  0
  137.8778   78.6996  222.8170 H   0  0  0  0  0  0  0  0  0  0  0  0
  138.8901   77.2157  222.8170 H   0  0  0  0  0  0  0  0  0  0  0  0
  139.2098   79.5190  221.1771 H   0  0  0  0  0  0  0  0  0  0  0  0
  141.0640   77.2070  221.6950 H   0  0  0  0  0  0  0  0  0  0  0  0
  140.7662   76.9954  218.0372 H   0  0  0  0  0  0  0  0  0  0  0  0
  143.0441   77.8062  218.4529 H   0  0  0  0  0  0  0  0  0  0  0  0
  143.0166   77.2353  220.1524 H   0  0  0  0  0  0  0  0  0  0  0  0
  144.3035   75.9235  218.1629 H   0  0  0  0  0  0  0  0  0  0  0  0
  143.5417   75.0975  219.6005 H   0  0  0  0  0  0  0  0  0  0  0  0
  142.2942   75.4455  216.8629 H   0  0  0  0  0  0  0  0  0  0  0  0
  143.0348   73.9295  217.5681 H   0  0  0  0  0  0  0  0  0  0  0  0
  140.3574   74.5329  217.6445 H   0  0  0  0  0  0  0  0  0  0  0  0
  141.1552   73.4409  218.7629 H   0  0  0  0  0  0  0  0  0  0  0  0
  138.5331   75.1595  221.1102 H   0  0  0  0  0  0  0  0  0  0  0  0
  139.0610   73.7976  220.0484 H   0  0  0  0  0  0  0  0  0  0  0  0
  138.7260   73.6630  222.9520 H   0  0  0  0  0  0  0  0  0  0  0  0
  139.2222   69.8662  222.2253 H   0  0  0  0  0  0  0  0  0  0  0  0
  139.1708   68.3391  224.1617 H   0  0  0  0  0  0  0  0  0  0  0  0
  139.6300   67.8735  226.4134 H   0  0  0  0  0  0  0  0  0  0  0  0
  141.5292   70.8985  228.8362 H   0  0  0  0  0  0  0  0  0  0  0  0
  141.5885   72.4445  226.8923 H   0  0  0  0  0  0  0  0  0  0  0  0
  140.1886   81.5277  221.5877 H   0  0  0  0  0  0  0  0  0  0  0  0
  141.8226   83.0051  222.7552 H   0  0  0  0  0  0  0  0  0  0  0  0
  143.3461   82.0019  224.4456 H   0  0  0  0  0  0  0  0  0  0  0  0
  143.2524   79.5770  224.9759 H   0  0  0  0  0  0  0  0  0  0  0  0
  141.6116   78.1076  223.8009 H   0  0  0  0  0  0  0  0  0  0  0  0
  1  2  1  0
  2  3  1  0
  3  4  1  0
  4  5  2  0
  4  6  1  0
  6  7  1  0
  7  8  1  0
  8  9  1  0
  9 10  1  0
 10 11  1  0
 11 12  1  0
 12 13  2  0
 12 14  1  0
 14 15  1  0
 15 16  1  0
 16 17  2  0
 16 18  1  0
 18 19  2  0
 19 20  1  0
 20 21  2  0
 21 22  1  0
 22 23  2  0
 23 24  1  0
 23 25  1  0
 25 26  2  0
 26 27  1  0
 27 28  2  0
  2 29  1  0
 29 30  2  0
 30 31  1  0
 31 32  2  0
 32 33  1  0
 33 34  2  0
 11  6  1  0
 28 18  1  0
 34 29  1  0
 27 21  1  0
  1 35  1  0
  1 36  1  0
  1 37  1  0
  2 38  1  6
  3 39  1  0
  6 40  1  6
  7 41  1  0
  7 42  1  0
  8 43  1  0
  8 44  1  0
  9 45  1  0
  9 46  1  0
 10 47  1  0
 10 48  1  0
 14 49  1  0
 14 50  1  0
 15 51  1  0
 19 52  1  0
 20 53  1  0
 22 54  1  0
 25 55  1  0
 26 56  1  0
 30 57  1  0
 31 58  1  0
 32 59  1  0
 33 60  1  0
 34 61  1  0
M  END
>  <smiles>  (76) 
C[C@H](NC(=O)C1CCCCN1C(=O)CNC(=O)c1ccc2cc(Cl)ccc2n1)c1ccccc1

>  <score_type>  (76) 
oracle

>  <origin>  (76) 
autodockgpu

>  <m_score__min__energy>  (76) 
-9.6899999999999995

>  <m_primary>  (76) 
energy

>  <rmsd>  (76) 
2.6726415553999545

>  <m_score__min__rmsd>  (76) 
2.6726415553999545

>  <meeko>  (76) 
{"free_energy": -8.79, "intermolecular_energy": -10.88, "internal_energy": -2.69, "cluster_size": 14, "cluster_id": 1, "rank_in_cluster": 9}

>  <energy>  (76) 
-8.59

>  <cluster_rmsd>  (76) 
0.82

>  <cluster>  (76) 
5

$$$$

     RDKit          3D

 61 64  0  0  1  0  0  0  0  0999 V2000
  140.6640   71.5790  223.4410 C   0  0  0  0  0  0  0  0  0  0  0  0
  140.0600   70.4710  224.2850 C   0  0  2  0  0  0  0  0  0  0  0  0
  138.6350   70.4530  224.1610 N   0  0  0  0  0  0  0  0  0  0  0  0
  137.9260   69.1860  224.1940 C   0  0  0  0  0  0  0  0  0  0  0  0
  138.6610   68.1820  224.3340 O   0  0  0  0  0  0  0  0  0  0  0  0
  136.4870   69.2370  224.0620 C   0  0  1  0  0  0  0  0  0  0  0  0
  135.7460   69.6580  225.3480 C   0  0  0  0  0  0  0  0  0  0  0  0
  134.3080   70.0010  225.0010 C   0  0  0  0  0  0  0  0  0  0  0  0
  133.8150   69.3110  223.7470 C   0  0  0  0  0  0  0  0  0  0  0  0
  134.6220   69.6450  222.5140 C   0  0  0  0  0  0  0  0  0  0  0  0
  135.9240   70.1100  223.0610 N   0  0  0  0  0  0  0  0  0  0  0  0
  136.4670   71.3180  222.5930 C   0  0  0  0  0  0  0  0  0  0  0  0
  137.5420   71.4480  221.9570 O   0  0  0  0  0  0  0  0  0  0  0  0
  135.7190   72.5820  222.8610 C   0  0  0  0  0  0  0  0  0  0  0  0
  136.6210   73.7310  222.8370 N   0  0  0  0  0  0  0  0  0  0  0  0
  136.1130   75.0660  222.9060 C   0  0  0  0  0  0  0  0  0  0  0  0
  134.8780   75.2730  222.9880 O   0  0  0  0  0  0  0  0  0  0  0  0
  137.0570   76.1810  222.8770 C   0  0  0  0  0  0  0  0  0  0  0  0
  136.5760   77.4730  223.0450 C   0  0  0  0  0  0  0  0  0  0  0  0
  137.4210   78.5580  223.0280 C   0  0  0  0  0  0  0  0  0  0  0  0
  138.7720   78.3670  222.8420 C   0  0  0  0  0  0  0  0  0  0  0  0
  139.5840   79.4720  222.8310 C   0  0  0  0  0  0  0  0  0  0  0  0
  140.9550   79.2690  222.6420 C   0  0  0  0  0  0  0  0  0  0  0  0
  141.9750   80.6860  222.6290 Cl  0  0  0  0  0  0  0  0  0  0  0  0
  141.4400   77.9880  222.4750 C   0  0  0  0  0  0  0  0  0  0  0  0
  140.5910   76.8860  222.4920 C   0  0  0  0  0  0  0  0  0  0  0  0
  139.2320   77.0740  222.6780 C   0  0  0  0  0  0  0  0  0  0  0  0
  138.3810   76.0080  222.6970 N   0  0  0  0  0  0  0  0  0  0  0  0
  140.3900   70.8020  225.7160 C   0  0  0  0  0  0  0  0  0  0  0  0
  139.8590   69.9620  226.6920 C   0  0  0  0  0  0  0  0  0  0  0  0
  140.1130   70.1950  228.0290 C   0  0  0  0  0  0  0  0  0  0  0  0
  140.9050   71.2820  228.3620 C   0  0  0  0  0  0  0  0  0  0  0  0
  141.4390   72.1260  227.3860 C   0  0  0  0  0  0  0  0  0  0  0  0
  141.1780   71.8840  226.0480 C   0  0  0  0  0  0  0  0  0  0  0  0
  141.0858   72.3528  224.0992 H   0  0  0  0  0  0  0  0  0  0  0  0
  141.4605   71.1636  222.8061 H   0  0  0  0  0  0  0  0  0  0  0  0
  139.8833   72.0234  222.8061 H   0  0  0  0  0  0  0  0  0  0  0  0
  140.4546   69.4955  223.9645 H   0  0  0  0  0  0  0  0  0  0  0  0
  138.1270   71.3560  224.0470 H   0  0  0  0  0  0  0  0  0  0  0  0
  136.3317   68.1868  223.7741 H   0  0  0  0  0  0  0  0  0  0  0  0
  135.7631   68.8295  226.0714 H   0  0  0  0  0  0  0  0  0  0  0  0
  136.2404   70.5350  225.7913 H   0  0  0  0  0  0  0  0  0  0  0  0
  133.6646   69.7004  225.8411 H   0  0  0  0  0  0  0  0  0  0  0  0
  134.2667   71.0844  224.8151 H   0  0  0  0  0  0  0  0  0  0  0  0
  133.8603   68.2238  223.9079 H   0  0  0  0  0  0  0  0  0  0  0  0
  132.7895   69.6656  223.5664 H   0  0  0  0  0  0  0  0  0  0  0  0
  134.7575   68.7557  221.8810 H   0  0  0  0  0  0  0  0  0  0  0  0
  134.1345   70.3968  221.8759 H   0  0  0  0  0  0  0  0  0  0  0  0
  134.9454   72.7141  222.0902 H   0  0  0  0  0  0  0  0  0  0  0  0
  135.2577   72.5154  223.8574 H   0  0  0  0  0  0  0  0  0  0  0  0
  137.6690   73.6120  222.7690 H   0  0  0  0  0  0  0  0  0  0  0  0
  135.4978   77.6317  223.1946 H   0  0  0  0  0  0  0  0  0  0  0  0
  137.0196   79.5733  223.1623 H   0  0  0  0  0  0  0  0  0  0  0  0
  139.1716   80.4828  222.9661 H   0  0  0  0  0  0  0  0  0  0  0  0
  142.5190   77.8352  222.3255 H   0  0  0  0  0  0  0  0  0  0  0  0
  140.9967   75.8723  222.3586 H   0  0  0  0  0  0  0  0  0  0  0  0
  139.2331   69.1073  226.3956 H   0  0  0  0  0  0  0  0  0  0  0  0
  139.6987   69.5369  228.8070 H   0  0  0  0  0  0  0  0  0  0  0  0
  141.1185   71.4853  229.4218 H   0  0  0  0  0  0  0  0  0  0  0  0
  142.0656   72.9811  227.6796 H   0  0  0  0  0  0  0  0  0  0  0  0
  141.5900   72.5402  225.2672 H   0  0  0  0  0  0  0  0  0  0  0  0
  1  2  1  0
  2  3  1  0
  3  4  1  0
  4  5  2  0
  4  6  1  0
  6  7  1  0
  7  8  1  0
  8  9  1  0
  9 10  1  0
 10 11  1  0
 11 12  1  0
 12 13  2  0
 12 14  1  0
 14 15  1  0
 15 16  1  0
 16 17  2  0
 16 18  1  0
 18 19  2  0
 19 20  1  0
 20 21  2  0
 21 22  1  0
 22 23  2  0
 23 24  1  0
 23 25  1  0
 25 26  2  0
 26 27  1  0
 27 28  2  0
  2 29  1  0
 29 30  2  0
 30 31  1  0
 31 32  2  0
 32 33  1  0
 33 34  2  0
 11  6  1  0
 28 18  1  0
 34 29  1  0
 27 21  1  0
  1 35  1  0
  1 36  1  0
  1 37  1  0
  2 38  1  6
  3 39  1  0
  6 40  1  6
  7 41  1  0
  7 42  1  0
  8 43  1  0
  8 44  1  0
  9 45  1  0
  9 46  1  0
 10 47  1  0
 10 48  1  0
 14 49  1  0
 14 50  1  0
 15 51  1  0
 19 52  1  0
 20 53  1  0
 22 54  1  0
 25 55  1  0
 26 56  1  0
 30 57  1  0
 31 58  1  0
 32 59  1  0
 33 60  1  0
 34 61  1  0
M  END
>  <smiles>  (77) 
C[C@H](NC(=O)C1CCCCN1C(=O)CNC(=O)c1ccc2cc(Cl)ccc2n1)c1ccccc1

>  <score_type>  (77) 
oracle

>  <origin>  (77) 
autodockgpu

>  <m_score__min__energy>  (77) 
-9.6899999999999995

>  <m_primary>  (77) 
energy

>  <rmsd>  (77) 
9.510782550346368

>  <m_score__min__rmsd>  (77) 
9.510782550346368

>  <meeko>  (77) 
{"free_energy": -8.4, "intermolecular_energy": -10.49, "internal_energy": -3.17, "cluster_size": 6, "cluster_id": 5, "rank_in_cluster": 5}

>  <energy>  (77) 
-8.4

>  <cluster_rmsd>  (77) 
1.11

>  <cluster>  (77) 
5

$$$$

     RDKit          3D

 61 64  0  0  1  0  0  0  0  0999 V2000
  139.1890   77.3000  222.4600 C   0  0  0  0  0  0  0  0  0  0  0  0
  140.4230   77.7200  221.6820 C   0  0  2  0  0  0  0  0  0  0  0  0
  141.4100   76.6850  221.6920 N   0  0  0  0  0  0  0  0  0  0  0  0
  141.3950   75.6650  220.6580 C   0  0  0  0  0  0  0  0  0  0  0  0
  140.4780   75.7930  219.8160 O   0  0  0  0  0  0  0  0  0  0  0  0
  142.4190   74.6470  220.7270 C   0  0  1  0  0  0  0  0  0  0  0  0
  141.8780   73.2130  220.9020 C   0  0  0  0  0  0  0  0  0  0  0  0
  142.9960   72.2240  220.6220 C   0  0  0  0  0  0  0  0  0  0  0  0
  144.3760   72.8040  220.8470 C   0  0  0  0  0  0  0  0  0  0  0  0
  144.6750   74.0100  219.9880 C   0  0  0  0  0  0  0  0  0  0  0  0
  143.3280   74.5180  219.6150 N   0  0  0  0  0  0  0  0  0  0  0  0
  143.0580   74.8010  218.2650 C   0  0  0  0  0  0  0  0  0  0  0  0
  142.3110   74.1350  217.5070 O   0  0  0  0  0  0  0  0  0  0  0  0
  143.7040   75.9960  217.6480 C   0  0  0  0  0  0  0  0  0  0  0  0
  143.2240   77.2250  218.2760 N   0  0  0  0  0  0  0  0  0  0  0  0
  142.1680   77.9880  217.6880 C   0  0  0  0  0  0  0  0  0  0  0  0
  141.6330   77.6130  216.6160 O   0  0  0  0  0  0  0  0  0  0  0  0
  141.7250   79.2100  218.3560 C   0  0  0  0  0  0  0  0  0  0  0  0
  142.5650   80.3160  218.3610 C   0  0  0  0  0  0  0  0  0  0  0  0
  142.1970   81.4910  218.9740 C   0  0  0  0  0  0  0  0  0  0  0  0
  140.9730   81.5800  219.5960 C   0  0  0  0  0  0  0  0  0  0  0  0
  140.6390   82.7660  220.1970 C   0  0  0  0  0  0  0  0  0  0  0  0
  139.3930   82.8490  220.8270 C   0  0  0  0  0  0  0  0  0  0  0  0
  138.9840   84.3670  221.5870 Cl  0  0  0  0  0  0  0  0  0  0  0  0
  138.5530   81.7540  220.8250 C   0  0  0  0  0  0  0  0  0  0  0  0
  138.9190   80.5630  220.2070 C   0  0  0  0  0  0  0  0  0  0  0  0
  140.1490   80.4690  219.5800 C   0  0  0  0  0  0  0  0  0  0  0  0
  140.5290   79.3110  218.9680 N   0  0  0  0  0  0  0  0  0  0  0  0
  140.9970   78.9070  222.4090 C   0  0  0  0  0  0  0  0  0  0  0  0
  142.3690   79.1150  222.2830 C   0  0  0  0  0  0  0  0  0  0  0  0
  142.9750   80.1800  222.9180 C   0  0  0  0  0  0  0  0  0  0  0  0
  142.1820   81.0250  223.6760 C   0  0  0  0  0  0  0  0  0  0  0  0
  140.8060   80.8190  223.8040 C   0  0  0  0  0  0  0  0  0  0  0  0
  140.2080   79.7490  223.1640 C   0  0  0  0  0  0  0  0  0  0  0  0
  139.3941   77.3698  223.5385 H   0  0  0  0  0  0  0  0  0  0  0  0
  138.3500   77.9632  222.2027 H   0  0  0  0  0  0  0  0  0  0  0  0
  138.9287   76.2627  222.2027 H   0  0  0  0  0  0  0  0  0  0  0  0
  140.1539   77.9407  220.6385 H   0  0  0  0  0  0  0  0  0  0  0  0
  142.1290   76.6800  222.4480 H   0  0  0  0  0  0  0  0  0  0  0  0
  142.9528   75.0390  221.6053 H   0  0  0  0  0  0  0  0  0  0  0  0
  141.5164   73.0786  221.9321 H   0  0  0  0  0  0  0  0  0  0  0  0
  141.0470   73.0418  220.2019 H   0  0  0  0  0  0  0  0  0  0  0  0
  142.8692   71.3560  221.2857 H   0  0  0  0  0  0  0  0  0  0  0  0
  142.9277   71.9458  219.5599 H   0  0  0  0  0  0  0  0  0  0  0  0
  144.4603   73.1002  221.9030 H   0  0  0  0  0  0  0  0  0  0  0  0
  145.1014   72.0246  220.5707 H   0  0  0  0  0  0  0  0  0  0  0  0
  145.2365   74.7667  220.5556 H   0  0  0  0  0  0  0  0  0  0  0  0
  145.2970   73.7677  219.1137 H   0  0  0  0  0  0  0  0  0  0  0  0
  144.7939   75.9254  217.7792 H   0  0  0  0  0  0  0  0  0  0  0  0
  143.4492   76.0228  216.5783 H   0  0  0  0  0  0  0  0  0  0  0  0
  143.6400   77.5850  219.1790 H   0  0  0  0  0  0  0  0  0  0  0  0
  143.5445   80.2510  217.8646 H   0  0  0  0  0  0  0  0  0  0  0  0
  142.8777   82.3550  218.9670 H   0  0  0  0  0  0  0  0  0  0  0  0
  141.3278   83.6236  220.1842 H   0  0  0  0  0  0  0  0  0  0  0  0
  137.5743   81.8246  221.3222 H   0  0  0  0  0  0  0  0  0  0  0  0
  138.2352   79.7014  220.2166 H   0  0  0  0  0  0  0  0  0  0  0  0
  142.9727   78.4262  221.6738 H   0  0  0  0  0  0  0  0  0  0  0  0
  144.0573   80.3527  222.8246 H   0  0  0  0  0  0  0  0  0  0  0  0
  142.6467   81.8793  224.1899 H   0  0  0  0  0  0  0  0  0  0  0  0
  140.1999   81.5063  224.4124 H   0  0  0  0  0  0  0  0  0  0  0  0
  139.1260   79.5732  223.2552 H   0  0  0  0  0  0  0  0  0  0  0  0
  1  2  1  0
  2  3  1  0
  3  4  1  0
  4  5  2  0
  4  6  1  0
  6  7  1  0
  7  8  1  0
  8  9  1  0
  9 10  1  0
 10 11  1  0
 11 12  1  0
 12 13  2  0
 12 14  1  0
 14 15  1  0
 15 16  1  0
 16 17  2  0
 16 18  1  0
 18 19  2  0
 19 20  1  0
 20 21  2  0
 21 22  1  0
 22 23  2  0
 23 24  1  0
 23 25  1  0
 25 26  2  0
 26 27  1  0
 27 28  2  0
  2 29  1  0
 29 30  2  0
 30 31  1  0
 31 32  2  0
 32 33  1  0
 33 34  2  0
 11  6  1  0
 28 18  1  0
 34 29  1  0
 27 21  1  0
  1 35  1  0
  1 36  1  0
  1 37  1  0
  2 38  1  6
  3 39  1  0
  6 40  1  1
  7 41  1  0
  7 42  1  0
  8 43  1  0
  8 44  1  0
  9 45  1  0
  9 46  1  0
 10 47  1  0
 10 48  1  0
 14 49  1  0
 14 50  1  0
 15 51  1  0
 19 52  1  0
 20 53  1  0
 22 54  1  0
 25 55  1  0
 26 56  1  0
 30 57  1  0
 31 58  1  0
 32 59  1  0
 33 60  1  0
 34 61  1  0
M  END
>  <smiles>  (78) 
C[C@H](NC(=O)C1CCCCN1C(=O)CNC(=O)c1ccc2cc(Cl)ccc2n1)c1ccccc1

>  <score_type>  (78) 
oracle

>  <origin>  (78) 
autodockgpu

>  <m_score__min__energy>  (78) 
-9.6899999999999995

>  <m_primary>  (78) 
energy

>  <rmsd>  (78) 
8.35132845674089

>  <m_score__min__rmsd>  (78) 
8.35132845674089

>  <meeko>  (78) 
{"free_energy": -6.96, "intermolecular_energy": -9.05, "internal_energy": -3.88, "cluster_size": 1, "cluster_id": 13, "rank_in_cluster": 1}

>  <energy>  (78) 
-8.23

>  <cluster_rmsd>  (78) 
1.04

>  <cluster>  (78) 
5

$$$$

     RDKit          3D

 61 64  0  0  1  0  0  0  0  0999 V2000
  140.3610   71.7490  223.5250 C   0  0  0  0  0  0  0  0  0  0  0  0
  139.6220   70.6390  224.2510 C   0  0  2  0  0  0  0  0  0  0  0  0
  138.2060   70.8130  224.1450 N   0  0  0  0  0  0  0  0  0  0  0  0
  137.3330   69.6530  224.1860 C   0  0  0  0  0  0  0  0  0  0  0  0
  137.9280   68.5590  224.3160 O   0  0  0  0  0  0  0  0  0  0  0  0
  135.9130   69.8980  224.0720 C   0  0  1  0  0  0  0  0  0  0  0  0
  135.2620   70.4680  225.3500 C   0  0  0  0  0  0  0  0  0  0  0  0
  133.8790   70.9920  225.0090 C   0  0  0  0  0  0  0  0  0  0  0  0
  133.2710   70.3280  223.7920 C   0  0  0  0  0  0  0  0  0  0  0  0
  134.0910   70.4990  222.5350 C   0  0  0  0  0  0  0  0  0  0  0  0
  135.4560   70.8000  223.0440 N   0  0  0  0  0  0  0  0  0  0  0  0
  136.1510   71.9020  222.5180 C   0  0  0  0  0  0  0  0  0  0  0  0
  137.2490   71.8610  221.9100 O   0  0  0  0  0  0  0  0  0  0  0  0
  135.5530   73.2600  222.6830 C   0  0  0  0  0  0  0  0  0  0  0  0
  136.5930   74.2540  222.9370 N   0  0  0  0  0  0  0  0  0  0  0  0
  137.3220   74.8480  221.8590 C   0  0  0  0  0  0  0  0  0  0  0  0
  137.0810   74.5210  220.6710 O   0  0  0  0  0  0  0  0  0  0  0  0
  138.3520   75.8380  222.1670 C   0  0  0  0  0  0  0  0  0  0  0  0
  139.6870   75.4980  221.9860 C   0  0  0  0  0  0  0  0  0  0  0  0
  140.6960   76.3920  222.2600 C   0  0  0  0  0  0  0  0  0  0  0  0
  140.3840   77.6510  222.7210 C   0  0  0  0  0  0  0  0  0  0  0  0
  141.4150   78.5160  222.9830 C   0  0  0  0  0  0  0  0  0  0  0  0
  141.0900   79.7930  223.4500 C   0  0  0  0  0  0  0  0  0  0  0  0
  142.4150   80.8820  223.7790 Cl  0  0  0  0  0  0  0  0  0  0  0  0
  139.7660   80.1380  223.6320 C   0  0  0  0  0  0  0  0  0  0  0  0
  138.7410   79.2390  223.3570 C   0  0  0  0  0  0  0  0  0  0  0  0
  139.0500   77.9710  222.8930 C   0  0  0  0  0  0  0  0  0  0  0  0
  138.0610   77.0740  222.6180 N   0  0  0  0  0  0  0  0  0  0  0  0
  139.9900   70.7670  225.7060 C   0  0  0  0  0  0  0  0  0  0  0  0
  140.7450   71.8820  226.0650 C   0  0  0  0  0  0  0  0  0  0  0  0
  141.1240   72.0750  227.3780 C   0  0  0  0  0  0  0  0  0  0  0  0
  140.7340   71.1330  228.3150 C   0  0  0  0  0  0  0  0  0  0  0  0
  139.9770   70.0150  227.9580 C   0  0  0  0  0  0  0  0  0  0  0  0
  139.6010   69.8300  226.6390 C   0  0  0  0  0  0  0  0  0  0  0  0
  140.8143   72.4298  224.2605 H   0  0  0  0  0  0  0  0  0  0  0  0
  141.1497   71.3129  222.8942 H   0  0  0  0  0  0  0  0  0  0  0  0
  139.6544   72.3084  222.8942 H   0  0  0  0  0  0  0  0  0  0  0  0
  139.8913   69.6632  223.8205 H   0  0  0  0  0  0  0  0  0  0  0  0
  137.8230   71.7770  224.0390 H   0  0  0  0  0  0  0  0  0  0  0  0
  135.6092   68.8688  223.8301 H   0  0  0  0  0  0  0  0  0  0  0  0
  135.1793   69.6743  226.1071 H   0  0  0  0  0  0  0  0  0  0  0  0
  135.8808   71.2851  225.7494 H   0  0  0  0  0  0  0  0  0  0  0  0
  133.2170   70.8166  225.8698 H   0  0  0  0  0  0  0  0  0  0  0  0
  133.9836   72.0624  224.7783 H   0  0  0  0  0  0  0  0  0  0  0  0
  133.1700   69.2521  223.9973 H   0  0  0  0  0  0  0  0  0  0  0  0
  132.3004   70.8133  223.6117 H   0  0  0  0  0  0  0  0  0  0  0  0
  134.0899   69.5757  221.9371 H   0  0  0  0  0  0  0  0  0  0  0  0
  133.6991   71.2857  221.8736 H   0  0  0  0  0  0  0  0  0  0  0  0
  135.0116   73.5303  221.7644 H   0  0  0  0  0  0  0  0  0  0  0  0
  134.8640   73.2416  223.5403 H   0  0  0  0  0  0  0  0  0  0  0  0
  136.8360   74.5650  223.9170 H   0  0  0  0  0  0  0  0  0  0  0  0
  139.9422   74.4939  221.6162 H   0  0  0  0  0  0  0  0  0  0  0  0
  141.7467   76.1023  222.1115 H   0  0  0  0  0  0  0  0  0  0  0  0
  142.4622   78.2155  222.8310 H   0  0  0  0  0  0  0  0  0  0  0  0
  139.5166   81.1435  224.0018 H   0  0  0  0  0  0  0  0  0  0  0  0
  137.6917   79.5331  223.5070 H   0  0  0  0  0  0  0  0  0  0  0  0
  141.0406   72.6125  225.2975 H   0  0  0  0  0  0  0  0  0  0  0  0
  141.7190   72.9523  227.6718 H   0  0  0  0  0  0  0  0  0  0  0  0
  141.0276   71.2686  229.3664 H   0  0  0  0  0  0  0  0  0  0  0  0
  139.6802   69.2830  228.7236 H   0  0  0  0  0  0  0  0  0  0  0  0
  139.0049   68.9546  226.3418 H   0  0  0  0  0  0  0  0  0  0  0  0
  1  2  1  0
  2  3  1  0
  3  4  1  0
  4  5  2  0
  4  6  1  0
  6  7  1  0
  7  8  1  0
  8  9  1  0
  9 10  1  0
 10 11  1  0
 11 12  1  0
 12 13  2  0
 12 14  1  0
 14 15  1  0
 15 16  1  0
 16 17  2  0
 16 18  1  0
 18 19  2  0
 19 20  1  0
 20 21  2  0
 21 22  1  0
 22 23  2  0
 23 24  1  0
 23 25  1  0
 25 26  2  0
 26 27  1  0
 27 28  2  0
  2 29  1  0
 29 30  2  0
 30 31  1  0
 31 32  2  0
 32 33  1  0
 33 34  2  0
 11  6  1  0
 28 18  1  0
 34 29  1  0
 27 21  1  0
  1 35  1  0
  1 36  1  0
  1 37  1  0
  2 38  1  6
  3 39  1  0
  6 40  1  6
  7 41  1  0
  7 42  1  0
  8 43  1  0
  8 44  1  0
  9 45  1  0
  9 46  1  0
 10 47  1  0
 10 48  1  0
 14 49  1  0
 14 50  1  0
 15 51  1  0
 19 52  1  0
 20 53  1  0
 22 54  1  0
 25 55  1  0
 26 56  1  0
 30 57  1  0
 31 58  1  0
 32 59  1  0
 33 60  1  0
 34 61  1  0
M  END
>  <smiles>  (79) 
C[C@H](NC(=O)C1CCCCN1C(=O)CNC(=O)c1ccc2cc(Cl)ccc2n1)c1ccccc1

>  <score_type>  (79) 
oracle

>  <origin>  (79) 
autodockgpu

>  <m_score__min__energy>  (79) 
-9.6899999999999995

>  <m_primary>  (79) 
energy

>  <rmsd>  (79) 
9.438906437209106

>  <m_score__min__rmsd>  (79) 
9.438906437209106

>  <meeko>  (79) 
{"free_energy": -8.76, "intermolecular_energy": -10.85, "internal_energy": -2.64, "cluster_size": 6, "cluster_id": 5, "rank_in_cluster": 1}

>  <energy>  (79) 
-8.48

>  <cluster_rmsd>  (79) 
0.0

>  <cluster>  (79) 
6

$$$$

     RDKit          3D

 61 64  0  0  1  0  0  0  0  0999 V2000
  140.8240   67.4210  226.8150 C   0  0  0  0  0  0  0  0  0  0  0  0
  139.7040   68.3950  226.4950 C   0  0  2  0  0  0  0  0  0  0  0  0
  139.3450   68.3230  225.1120 N   0  0  0  0  0  0  0  0  0  0  0  0
  138.1470   68.9970  224.6450 C   0  0  0  0  0  0  0  0  0  0  0  0
  137.5120   69.6060  225.5350 O   0  0  0  0  0  0  0  0  0  0  0  0
  137.8390   68.8840  223.2370 C   0  0  1  0  0  0  0  0  0  0  0  0
  136.3400   69.0370  222.9000 C   0  0  0  0  0  0  0  0  0  0  0  0
  136.1880   69.2390  221.4030 C   0  0  0  0  0  0  0  0  0  0  0  0
  137.3360   68.6630  220.6020 C   0  0  0  0  0  0  0  0  0  0  0  0
  138.6800   69.2550  220.9570 C   0  0  0  0  0  0  0  0  0  0  0  0
  138.4730   69.8030  222.3240 N   0  0  0  0  0  0  0  0  0  0  0  0
  138.8760   71.1210  222.5960 C   0  0  0  0  0  0  0  0  0  0  0  0
  138.1610   72.0240  223.0970 O   0  0  0  0  0  0  0  0  0  0  0  0
  140.2780   71.5140  222.2700 C   0  0  0  0  0  0  0  0  0  0  0  0
  140.4000   72.9670  222.1810 N   0  0  0  0  0  0  0  0  0  0  0  0
  141.3660   73.5730  221.3180 C   0  0  0  0  0  0  0  0  0  0  0  0
  142.1310   72.8620  220.6210 O   0  0  0  0  0  0  0  0  0  0  0  0
  141.4480   75.0310  221.2650 C   0  0  0  0  0  0  0  0  0  0  0  0
  142.1160   75.6290  220.2040 C   0  0  0  0  0  0  0  0  0  0  0  0
  142.2210   76.9970  220.1050 C   0  0  0  0  0  0  0  0  0  0  0  0
  141.6550   77.7950  221.0730 C   0  0  0  0  0  0  0  0  0  0  0  0
  141.7800   79.1550  220.9420 C   0  0  0  0  0  0  0  0  0  0  0  0
  141.2020   79.9580  221.9300 C   0  0  0  0  0  0  0  0  0  0  0  0
  141.3700   81.6870  221.7480 Cl  0  0  0  0  0  0  0  0  0  0  0  0
  140.5360   79.3720  222.9870 C   0  0  0  0  0  0  0  0  0  0  0  0
  140.4260   77.9890  223.0920 C   0  0  0  0  0  0  0  0  0  0  0  0
  140.9940   77.1820  222.1210 C   0  0  0  0  0  0  0  0  0  0  0  0
  140.8980   75.8240  222.2050 N   0  0  0  0  0  0  0  0  0  0  0  0
  140.2560   69.7720  226.7520 C   0  0  0  0  0  0  0  0  0  0  0  0
  140.0020   70.3250  228.0050 C   0  0  0  0  0  0  0  0  0  0  0  0
  140.4720   71.5840  228.3230 C   0  0  0  0  0  0  0  0  0  0  0  0
  141.1970   72.2700  227.3630 C   0  0  0  0  0  0  0  0  0  0  0  0
  141.4540   71.7180  226.1060 C   0  0  0  0  0  0  0  0  0  0  0  0
  140.9790   70.4560  225.7970 C   0  0  0  0  0  0  0  0  0  0  0  0
  140.9295   67.3292  227.9061 H   0  0  0  0  0  0  0  0  0  0  0  0
  140.5876   66.4364  226.3854 H   0  0  0  0  0  0  0  0  0  0  0  0
  141.7663   67.7918  226.3854 H   0  0  0  0  0  0  0  0  0  0  0  0
  138.8172   68.1635  227.1032 H   0  0  0  0  0  0  0  0  0  0  0  0
  139.9530   67.7830  224.4600 H   0  0  0  0  0  0  0  0  0  0  0  0
  138.2354   67.8694  223.0842 H   0  0  0  0  0  0  0  0  0  0  0  0
  135.7986   68.1299  223.2066 H   0  0  0  0  0  0  0  0  0  0  0  0
  135.9252   69.9034  223.4359 H   0  0  0  0  0  0  0  0  0  0  0  0
  135.2565   68.7526  221.0778 H   0  0  0  0  0  0  0  0  0  0  0  0
  136.1747   70.3236  221.2201 H   0  0  0  0  0  0  0  0  0  0  0  0
  137.3755   67.5785  220.7818 H   0  0  0  0  0  0  0  0  0  0  0  0
  137.1458   68.9061  219.5462 H   0  0  0  0  0  0  0  0  0  0  0  0
  139.4616   68.4810  220.9587 H   0  0  0  0  0  0  0  0  0  0  0  0
  139.0137   70.0175  220.2378 H   0  0  0  0  0  0  0  0  0  0  0  0
  140.9495   71.1430  223.0583 H   0  0  0  0  0  0  0  0  0  0  0  0
  140.5510   71.0762  221.2985 H   0  0  0  0  0  0  0  0  0  0  0  0
  139.7820   73.6120  222.7460 H   0  0  0  0  0  0  0  0  0  0  0  0
  142.5701   74.9960  219.4274 H   0  0  0  0  0  0  0  0  0  0  0  0
  142.7545   77.4507  219.2567 H   0  0  0  0  0  0  0  0  0  0  0  0
  142.3161   79.5980  220.0897 H   0  0  0  0  0  0  0  0  0  0  0  0
  140.0838   80.0099  223.7607 H   0  0  0  0  0  0  0  0  0  0  0  0
  139.8909   77.5394  223.9415 H   0  0  0  0  0  0  0  0  0  0  0  0
  139.4230   69.7548  228.7464 H   0  0  0  0  0  0  0  0  0  0  0  0
  140.2762   72.0289  229.3098 H   0  0  0  0  0  0  0  0  0  0  0  0
  141.5800   73.2745  227.5962 H   0  0  0  0  0  0  0  0  0  0  0  0
  142.0331   72.2858  225.3629 H   0  0  0  0  0  0  0  0  0  0  0  0
  141.1736   70.0079  224.8114 H   0  0  0  0  0  0  0  0  0  0  0  0
  1  2  1  0
  2  3  1  0
  3  4  1  0
  4  5  2  0
  4  6  1  0
  6  7  1  0
  7  8  1  0
  8  9  1  0
  9 10  1  0
 10 11  1  0
 11 12  1  0
 12 13  2  0
 12 14  1  0
 14 15  1  0
 15 16  1  0
 16 17  2  0
 16 18  1  0
 18 19  2  0
 19 20  1  0
 20 21  2  0
 21 22  1  0
 22 23  2  0
 23 24  1  0
 23 25  1  0
 25 26  2  0
 26 27  1  0
 27 28  2  0
  2 29  1  0
 29 30  2  0
 30 31  1  0
 31 32  2  0
 32 33  1  0
 33 34  2  0
 11  6  1  0
 28 18  1  0
 34 29  1  0
 27 21  1  0
  1 35  1  0
  1 36  1  0
  1 37  1  0
  2 38  1  1
  3 39  1  0
  6 40  1  6
  7 41  1  0
  7 42  1  0
  8 43  1  0
  8 44  1  0
  9 45  1  0
  9 46  1  0
 10 47  1  0
 10 48  1  0
 14 49  1  0
 14 50  1  0
 15 51  1  0
 19 52  1  0
 20 53  1  0
 22 54  1  0
 25 55  1  0
 26 56  1  0
 30 57  1  0
 31 58  1  0
 32 59  1  0
 33 60  1  0
 34 61  1  0
M  END
>  <smiles>  (80) 
C[C@H](NC(=O)C1CCCCN1C(=O)CNC(=O)c1ccc2cc(Cl)ccc2n1)c1ccccc1

>  <score_type>  (80) 
oracle

>  <origin>  (80) 
autodockgpu

>  <m_score__min__energy>  (80) 
-9.6899999999999995

>  <m_primary>  (80) 
energy

>  <rmsd>  (80) 
9.718906781062099

>  <m_score__min__rmsd>  (80) 
9.718906781062099

>  <meeko>  (80) 
{"free_energy": -9.01, "intermolecular_energy": -11.1, "internal_energy": -2.85, "cluster_size": 4, "cluster_id": 4, "rank_in_cluster": 1}

>  <energy>  (80) 
-8.45

>  <cluster_rmsd>  (80) 
0.0

>  <cluster>  (80) 
7

$$$$

     RDKit          3D

 61 64  0  0  1  0  0  0  0  0999 V2000
  142.7030   72.2140  220.8720 C   0  0  0  0  0  0  0  0  0  0  0  0
  141.6370   72.7020  219.9080 C   0  0  2  0  0  0  0  0  0  0  0  0
  141.1120   73.9660  220.3230 N   0  0  0  0  0  0  0  0  0  0  0  0
  140.5480   74.1090  221.6540 C   0  0  0  0  0  0  0  0  0  0  0  0
  140.5750   73.0660  222.3450 O   0  0  0  0  0  0  0  0  0  0  0  0
  140.0330   75.4120  222.0110 C   0  0  1  0  0  0  0  0  0  0  0  0
  140.7900   76.5930  221.3650 C   0  0  0  0  0  0  0  0  0  0  0  0
  139.9680   77.8580  221.5340 C   0  0  0  0  0  0  0  0  0  0  0  0
  139.0250   77.8050  222.7170 C   0  0  0  0  0  0  0  0  0  0  0  0
  138.0230   76.6770  222.6450 C   0  0  0  0  0  0  0  0  0  0  0  0
  138.6540   75.7060  221.7110 N   0  0  0  0  0  0  0  0  0  0  0  0
  137.8920   75.1920  220.6480 C   0  0  0  0  0  0  0  0  0  0  0  0
  137.8260   75.6700  219.4880 O   0  0  0  0  0  0  0  0  0  0  0  0
  137.0750   73.9670  220.8890 C   0  0  0  0  0  0  0  0  0  0  0  0
  137.6420   73.1730  221.9760 N   0  0  0  0  0  0  0  0  0  0  0  0
  137.1420   71.8670  222.2710 C   0  0  0  0  0  0  0  0  0  0  0  0
  136.2020   71.3780  221.5970 O   0  0  0  0  0  0  0  0  0  0  0  0
  137.7430   71.1130  223.3690 C   0  0  0  0  0  0  0  0  0  0  0  0
  137.1230   69.9490  223.8050 C   0  0  0  0  0  0  0  0  0  0  0  0
  137.6480   69.2020  224.8340 C   0  0  0  0  0  0  0  0  0  0  0  0
  138.8100   69.6090  225.4480 C   0  0  0  0  0  0  0  0  0  0  0  0
  139.3040   68.8400  226.4700 C   0  0  0  0  0  0  0  0  0  0  0  0
  140.4850   69.2610  227.0890 C   0  0  0  0  0  0  0  0  0  0  0  0
  141.1000   68.2700  228.3890 Cl  0  0  0  0  0  0  0  0  0  0  0  0
  141.1070   70.4160  226.6610 C   0  0  0  0  0  0  0  0  0  0  0  0
  140.5830   71.1760  225.6210 C   0  0  0  0  0  0  0  0  0  0  0  0
  139.4130   70.7700  225.0010 C   0  0  0  0  0  0  0  0  0  0  0  0
  138.8810   71.5000  223.9790 N   0  0  0  0  0  0  0  0  0  0  0  0
  140.5170   71.6980  219.9750 C   0  0  0  0  0  0  0  0  0  0  0  0
  140.7060   70.6030  220.8140 C   0  0  0  0  0  0  0  0  0  0  0  0
  139.7280   69.6360  220.9330 C   0  0  0  0  0  0  0  0  0  0  0  0
  138.5650   69.7910  220.1970 C   0  0  0  0  0  0  0  0  0  0  0  0
  138.3720   70.8890  219.3550 C   0  0  0  0  0  0  0  0  0  0  0  0
  139.3580   71.8520  219.2420 C   0  0  0  0  0  0  0  0  0  0  0  0
  142.3616   72.3703  221.9059 H   0  0  0  0  0  0  0  0  0  0  0  0
  142.8861   71.1424  220.7043 H   0  0  0  0  0  0  0  0  0  0  0  0
  143.6338   72.7757  220.7043 H   0  0  0  0  0  0  0  0  0  0  0  0
  142.0620   72.8108  218.8993 H   0  0  0  0  0  0  0  0  0  0  0  0
  141.1440   74.7690  219.6580 H   0  0  0  0  0  0  0  0  0  0  0  0
  140.1704   75.3280  223.0991 H   0  0  0  0  0  0  0  0  0  0  0  0
  141.7659   76.7188  221.8567 H   0  0  0  0  0  0  0  0  0  0  0  0
  140.9482   76.3926  220.2951 H   0  0  0  0  0  0  0  0  0  0  0  0
  140.6556   78.7053  221.6731 H   0  0  0  0  0  0  0  0  0  0  0  0
  139.3512   77.9693  220.6300 H   0  0  0  0  0  0  0  0  0  0  0  0
  139.6226   77.6807  223.6321 H   0  0  0  0  0  0  0  0  0  0  0  0
  138.4524   78.7442  222.7138 H   0  0  0  0  0  0  0  0  0  0  0  0
  137.8688   76.2251  223.6360 H   0  0  0  0  0  0  0  0  0  0  0  0
  137.0297   77.0091  222.3087 H   0  0  0  0  0  0  0  0  0  0  0  0
  136.0498   74.2635  221.1554 H   0  0  0  0  0  0  0  0  0  0  0  0
  137.0709   73.3590  219.9723 H   0  0  0  0  0  0  0  0  0  0  0  0
  138.4350   73.5370  222.5740 H   0  0  0  0  0  0  0  0  0  0  0  0
  136.1939   69.6180  223.3179 H   0  0  0  0  0  0  0  0  0  0  0  0
  137.1410   68.2834  225.1644 H   0  0  0  0  0  0  0  0  0  0  0  0
  138.7888   67.9230  226.7920 H   0  0  0  0  0  0  0  0  0  0  0  0
  142.0357   70.7420  227.1522 H   0  0  0  0  0  0  0  0  0  0  0  0
  141.0941   72.0932  225.2931 H   0  0  0  0  0  0  0  0  0  0  0  0
  141.6408   70.5078  221.3858 H   0  0  0  0  0  0  0  0  0  0  0  0
  139.8683   68.7675  221.5933 H   0  0  0  0  0  0  0  0  0  0  0  0
  137.7739   69.0309  220.2774 H   0  0  0  0  0  0  0  0  0  0  0  0
  137.4375   70.9873  218.7830 H   0  0  0  0  0  0  0  0  0  0  0  0
  139.2215   72.7216  218.5824 H   0  0  0  0  0  0  0  0  0  0  0  0
  1  2  1  0
  2  3  1  0
  3  4  1  0
  4  5  2  0
  4  6  1  0
  6  7  1  0
  7  8  1  0
  8  9  1  0
  9 10  1  0
 10 11  1  0
 11 12  1  0
 12 13  2  0
 12 14  1  0
 14 15  1  0
 15 16  1  0
 16 17  2  0
 16 18  1  0
 18 19  2  0
 19 20  1  0
 20 21  2  0
 21 22  1  0
 22 23  2  0
 23 24  1  0
 23 25  1  0
 25 26  2  0
 26 27  1  0
 27 28  2  0
  2 29  1  0
 29 30  2  0
 30 31  1  0
 31 32  2  0
 32 33  1  0
 33 34  2  0
 11  6  1  0
 28 18  1  0
 34 29  1  0
 27 21  1  0
  1 35  1  0
  1 36  1  0
  1 37  1  0
  2 38  1  6
  3 39  1  0
  6 40  1  1
  7 41  1  0
  7 42  1  0
  8 43  1  0
  8 44  1  0
  9 45  1  0
  9 46  1  0
 10 47  1  0
 10 48  1  0
 14 49  1  0
 14 50  1  0
 15 51  1  0
 19 52  1  0
 20 53  1  0
 22 54  1  0
 25 55  1  0
 26 56  1  0
 30 57  1  0
 31 58  1  0
 32 59  1  0
 33 60  1  0
 34 61  1  0
M  END
>  <smiles>  (81) 
C[C@H](NC(=O)C1CCCCN1C(=O)CNC(=O)c1ccc2cc(Cl)ccc2n1)c1ccccc1

>  <score_type>  (81) 
oracle

>  <origin>  (81) 
autodockgpu

>  <m_score__min__energy>  (81) 
-9.6899999999999995

>  <m_primary>  (81) 
energy

>  <rmsd>  (81) 
5.928894235817969

>  <m_score__min__rmsd>  (81) 
5.928894235817969

>  <meeko>  (81) 
{"free_energy": -6.34, "intermolecular_energy": -8.43, "internal_energy": -4.36, "cluster_size": 7, "cluster_id": 8, "rank_in_cluster": 7}

>  <energy>  (81) 
-8.42

>  <cluster_rmsd>  (81) 
0.14

>  <cluster>  (81) 
7

$$$$

     RDKit          3D

 61 64  0  0  1  0  0  0  0  0999 V2000
  140.2510   71.9000  223.9590 C   0  0  0  0  0  0  0  0  0  0  0  0
  139.6200   70.5900  224.3940 C   0  0  2  0  0  0  0  0  0  0  0  0
  138.1940   70.7010  224.4440 N   0  0  0  0  0  0  0  0  0  0  0  0
  137.3720   69.5340  224.1790 C   0  0  0  0  0  0  0  0  0  0  0  0
  138.0160   68.4920  223.9190 O   0  0  0  0  0  0  0  0  0  0  0  0
  135.9390   69.7140  224.2440 C   0  0  1  0  0  0  0  0  0  0  0  0
  135.3950   69.9760  225.6650 C   0  0  0  0  0  0  0  0  0  0  0  0
  133.9660   70.4770  225.5630 C   0  0  0  0  0  0  0  0  0  0  0  0
  133.2680   70.0390  224.2930 C   0  0  0  0  0  0  0  0  0  0  0  0
  133.9530   70.5070  223.0310 C   0  0  0  0  0  0  0  0  0  0  0  0
  135.3490   70.7770  223.4690 N   0  0  0  0  0  0  0  0  0  0  0  0
  135.9450   72.0010  223.1230 C   0  0  0  0  0  0  0  0  0  0  0  0
  136.2580   72.9210  223.9180 O   0  0  0  0  0  0  0  0  0  0  0  0
  136.2450   72.2620  221.6840 C   0  0  0  0  0  0  0  0  0  0  0  0
  137.6830   72.4180  221.4760 N   0  0  0  0  0  0  0  0  0  0  0  0
  138.2910   73.7120  221.4860 C   0  0  0  0  0  0  0  0  0  0  0  0
  137.5960   74.7400  221.6740 O   0  0  0  0  0  0  0  0  0  0  0  0
  139.7330   73.8140  221.2730 C   0  0  0  0  0  0  0  0  0  0  0  0
  140.3120   75.0740  221.1850 C   0  0  0  0  0  0  0  0  0  0  0  0
  141.6650   75.2270  220.9860 C   0  0  0  0  0  0  0  0  0  0  0  0
  142.4660   74.1140  220.8710 C   0  0  0  0  0  0  0  0  0  0  0  0
  143.8100   74.3040  220.6730 C   0  0  0  0  0  0  0  0  0  0  0  0
  144.6170   73.1690  220.5580 C   0  0  0  0  0  0  0  0  0  0  0  0
  146.3260   73.4290  220.3050 Cl  0  0  0  0  0  0  0  0  0  0  0  0
  144.0490   71.9140  220.6440 C   0  0  0  0  0  0  0  0  0  0  0  0
  142.6830   71.7520  220.8460 C   0  0  0  0  0  0  0  0  0  0  0  0
  141.8720   72.8690  220.9610 C   0  0  0  0  0  0  0  0  0  0  0  0
  140.5300   72.7340  221.1590 N   0  0  0  0  0  0  0  0  0  0  0  0
  140.1070   70.3310  225.7960 C   0  0  0  0  0  0  0  0  0  0  0  0
  140.1140   69.0050  226.2220 C   0  0  0  0  0  0  0  0  0  0  0  0
  140.5460   68.6820  227.4920 C   0  0  0  0  0  0  0  0  0  0  0  0
  140.9680   69.7100  228.3190 C   0  0  0  0  0  0  0  0  0  0  0  0
  140.9620   71.0400  227.8940 C   0  0  0  0  0  0  0  0  0  0  0  0
  140.5270   71.3550  226.6190 C   0  0  0  0  0  0  0  0  0  0  0  0
  140.5324   72.4843  224.8475 H   0  0  0  0  0  0  0  0  0  0  0  0
  141.1481   71.6928  223.3571 H   0  0  0  0  0  0  0  0  0  0  0  0
  139.5298   72.4724  223.3571 H   0  0  0  0  0  0  0  0  0  0  0  0
  139.8877   69.7903  223.6878 H   0  0  0  0  0  0  0  0  0  0  0  0
  137.7680   71.6250  224.6710 H   0  0  0  0  0  0  0  0  0  0  0  0
  135.6528   68.7389  223.8230 H   0  0  0  0  0  0  0  0  0  0  0  0
  135.4178   69.0425  226.2465 H   0  0  0  0  0  0  0  0  0  0  0  0
  136.0180   70.7302  226.1680 H   0  0  0  0  0  0  0  0  0  0  0  0
  133.3989   70.0927  226.4236 H   0  0  0  0  0  0  0  0  0  0  0  0
  134.0058   71.5762  225.5509 H   0  0  0  0  0  0  0  0  0  0  0  0
  133.2289   68.9398  224.2797 H   0  0  0  0  0  0  0  0  0  0  0  0
  132.2669   70.4946  224.3031 H   0  0  0  0  0  0  0  0  0  0  0  0
  133.9285   69.7249  222.2579 H   0  0  0  0  0  0  0  0  0  0  0  0
  133.4682   71.3870  222.5832 H   0  0  0  0  0  0  0  0  0  0  0  0
  135.8825   71.4168  221.0805 H   0  0  0  0  0  0  0  0  0  0  0  0
  135.7410   73.1915  221.3807 H   0  0  0  0  0  0  0  0  0  0  0  0
  138.3140   71.5860  221.3130 H   0  0  0  0  0  0  0  0  0  0  0  0
  139.6762   75.9670  221.2762 H   0  0  0  0  0  0  0  0  0  0  0  0
  142.1038   76.2335  220.9192 H   0  0  0  0  0  0  0  0  0  0  0  0
  144.2379   75.3152  220.6070 H   0  0  0  0  0  0  0  0  0  0  0  0
  144.6896   71.0246  220.5509 H   0  0  0  0  0  0  0  0  0  0  0  0
  142.2492   70.7435  220.9140 H   0  0  0  0  0  0  0  0  0  0  0  0
  139.7731   68.2105  225.5419 H   0  0  0  0  0  0  0  0  0  0  0  0
  140.5550   67.6378  227.8379 H   0  0  0  0  0  0  0  0  0  0  0  0
  141.3163   69.4728  229.3351 H   0  0  0  0  0  0  0  0  0  0  0  0
  141.3027   71.8363  228.5720 H   0  0  0  0  0  0  0  0  0  0  0  0
  140.5163   72.3980  226.2697 H   0  0  0  0  0  0  0  0  0  0  0  0
  1  2  1  0
  2  3  1  0
  3  4  1  0
  4  5  2  0
  4  6  1  0
  6  7  1  0
  7  8  1  0
  8  9  1  0
  9 10  1  0
 10 11  1  0
 11 12  1  0
 12 13  2  0
 12 14  1  0
 14 15  1  0
 15 16  1  0
 16 17  2  0
 16 18  1  0
 18 19  2  0
 19 20  1  0
 20 21  2  0
 21 22  1  0
 22 23  2  0
 23 24  1  0
 23 25  1  0
 25 26  2  0
 26 27  1  0
 27 28  2  0
  2 29  1  0
 29 30  2  0
 30 31  1  0
 31 32  2  0
 32 33  1  0
 33 34  2  0
 11  6  1  0
 28 18  1  0
 34 29  1  0
 27 21  1  0
  1 35  1  0
  1 36  1  0
  1 37  1  0
  2 38  1  6
  3 39  1  0
  6 40  1  6
  7 41  1  0
  7 42  1  0
  8 43  1  0
  8 44  1  0
  9 45  1  0
  9 46  1  0
 10 47  1  0
 10 48  1  0
 14 49  1  0
 14 50  1  0
 15 51  1  0
 19 52  1  0
 20 53  1  0
 22 54  1  0
 25 55  1  0
 26 56  1  0
 30 57  1  0
 31 58  1  0
 32 59  1  0
 33 60  1  0
 34 61  1  0
M  END
>  <smiles>  (82) 
C[C@H](NC(=O)C1CCCCN1C(=O)CNC(=O)c1ccc2cc(Cl)ccc2n1)c1ccccc1

>  <score_type>  (82) 
oracle

>  <origin>  (82) 
autodockgpu

>  <m_score__min__energy>  (82) 
-9.6899999999999995

>  <m_primary>  (82) 
energy

>  <rmsd>  (82) 
9.270464111250426

>  <m_score__min__rmsd>  (82) 
9.270464111250426

>  <meeko>  (82) 
{"free_energy": -7.48, "intermolecular_energy": -9.57, "internal_energy": -3.4, "cluster_size": 2, "cluster_id": 11, "rank_in_cluster": 1}

>  <energy>  (82) 
-8.29

>  <cluster_rmsd>  (82) 
0.83

>  <cluster>  (82) 
7

$$$$

     RDKit          3D

 61 64  0  0  1  0  0  0  0  0999 V2000
  138.3020   79.2300  222.2230 C   0  0  0  0  0  0  0  0  0  0  0  0
  139.5700   79.4690  221.4220 C   0  0  2  0  0  0  0  0  0  0  0  0
  139.9960   78.2690  220.7710 N   0  0  0  0  0  0  0  0  0  0  0  0
  141.2790   78.2360  220.0910 C   0  0  0  0  0  0  0  0  0  0  0  0
  141.9210   79.3100  220.1410 O   0  0  0  0  0  0  0  0  0  0  0  0
  141.6500   76.9940  219.4510 C   0  0  1  0  0  0  0  0  0  0  0  0
  143.1120   76.5640  219.6980 C   0  0  0  0  0  0  0  0  0  0  0  0
  143.2800   75.1150  219.2760 C   0  0  0  0  0  0  0  0  0  0  0  0
  142.2740   74.6770  218.2330 C   0  0  0  0  0  0  0  0  0  0  0  0
  140.8370   74.8050  218.6840 C   0  0  0  0  0  0  0  0  0  0  0  0
  140.9020   75.8070  219.7810 N   0  0  0  0  0  0  0  0  0  0  0  0
  140.2710   75.5180  221.0040 C   0  0  0  0  0  0  0  0  0  0  0  0
  140.4900   76.0890  222.1000 O   0  0  0  0  0  0  0  0  0  0  0  0
  139.2430   74.4370  221.0330 C   0  0  0  0  0  0  0  0  0  0  0  0
  139.4530   73.5540  222.1780 N   0  0  0  0  0  0  0  0  0  0  0  0
  139.4630   72.1330  222.0190 C   0  0  0  0  0  0  0  0  0  0  0  0
  139.2890   71.6180  220.8870 O   0  0  0  0  0  0  0  0  0  0  0  0
  139.6780   71.2940  223.1960 C   0  0  0  0  0  0  0  0  0  0  0  0
  139.3420   69.9480  223.1320 C   0  0  0  0  0  0  0  0  0  0  0  0
  139.5240   69.1140  224.2110 C   0  0  0  0  0  0  0  0  0  0  0  0
  140.0500   69.6160  225.3790 C   0  0  0  0  0  0  0  0  0  0  0  0
  140.2170   68.7560  226.4340 C   0  0  0  0  0  0  0  0  0  0  0  0
  140.7530   69.2740  227.6170 C   0  0  0  0  0  0  0  0  0  0  0  0
  140.9590   68.1650  228.9500 Cl  0  0  0  0  0  0  0  0  0  0  0  0
  141.0890   70.6100  227.6880 C   0  0  0  0  0  0  0  0  0  0  0  0
  140.9080   71.4590  226.6010 C   0  0  0  0  0  0  0  0  0  0  0  0
  140.3790   70.9580  225.4240 C   0  0  0  0  0  0  0  0  0  0  0  0
  140.1920   71.7720  224.3450 N   0  0  0  0  0  0  0  0  0  0  0  0
  140.6330   79.8500  222.4190 C   0  0  0  0  0  0  0  0  0  0  0  0
  141.0360   81.1840  222.4260 C   0  0  0  0  0  0  0  0  0  0  0  0
  142.0050   81.6160  223.3080 C   0  0  0  0  0  0  0  0  0  0  0  0
  142.5570   80.6890  224.1770 C   0  0  0  0  0  0  0  0  0  0  0  0
  142.1550   79.3510  224.1720 C   0  0  0  0  0  0  0  0  0  0  0  0
  141.1820   78.9270  223.2840 C   0  0  0  0  0  0  0  0  0  0  0  0
  138.5334   79.2736  223.2975 H   0  0  0  0  0  0  0  0  0  0  0  0
  137.5608   80.0042  221.9758 H   0  0  0  0  0  0  0  0  0  0  0  0
  137.8935   78.2390  221.9758 H   0  0  0  0  0  0  0  0  0  0  0  0
  139.3947   80.2418  220.6590 H   0  0  0  0  0  0  0  0  0  0  0  0
  139.3740   77.4330  220.7950 H   0  0  0  0  0  0  0  0  0  0  0  0
  141.4365   77.2966  218.4152 H   0  0  0  0  0  0  0  0  0  0  0  0
  143.7881   77.2005  219.1083 H   0  0  0  0  0  0  0  0  0  0  0  0
  143.3550   76.6704  220.7655 H   0  0  0  0  0  0  0  0  0  0  0  0
  144.2911   74.9864  218.8622 H   0  0  0  0  0  0  0  0  0  0  0  0
  143.1167   74.4935  220.1688 H   0  0  0  0  0  0  0  0  0  0  0  0
  142.4127   75.2967  217.3348 H   0  0  0  0  0  0  0  0  0  0  0  0
  142.4562   73.6098  218.0385 H   0  0  0  0  0  0  0  0  0  0  0  0
  140.1982   75.1626  217.8630 H   0  0  0  0  0  0  0  0  0  0  0  0
  140.4034   73.8467  219.0059 H   0  0  0  0  0  0  0  0  0  0  0  0
  138.2437   74.8911  221.1059 H   0  0  0  0  0  0  0  0  0  0  0  0
  139.3271   73.8446  220.1100 H   0  0  0  0  0  0  0  0  0  0  0  0
  139.6050   73.9350  223.1520 H   0  0  0  0  0  0  0  0  0  0  0  0
  138.9221   69.5407  222.2004 H   0  0  0  0  0  0  0  0  0  0  0  0
  139.2503   68.0510  224.1402 H   0  0  0  0  0  0  0  0  0  0  0  0
  139.9388   67.6949  226.3524 H   0  0  0  0  0  0  0  0  0  0  0  0
  141.5082   71.0118  228.6223 H   0  0  0  0  0  0  0  0  0  0  0  0
  141.1834   72.5213  226.6762 H   0  0  0  0  0  0  0  0  0  0  0  0
  140.5788   81.8969  221.7240 H   0  0  0  0  0  0  0  0  0  0  0  0
  142.3301   82.6668  223.3208 H   0  0  0  0  0  0  0  0  0  0  0  0
  143.3306   81.0143  224.8882 H   0  0  0  0  0  0  0  0  0  0  0  0
  142.6110   78.6360  224.8725 H   0  0  0  0  0  0  0  0  0  0  0  0
  140.8539   77.8772  223.2685 H   0  0  0  0  0  0  0  0  0  0  0  0
  1  2  1  0
  2  3  1  0
  3  4  1  0
  4  5  2  0
  4  6  1  0
  6  7  1  0
  7  8  1  0
  8  9  1  0
  9 10  1  0
 10 11  1  0
 11 12  1  0
 12 13  2  0
 12 14  1  0
 14 15  1  0
 15 16  1  0
 16 17  2  0
 16 18  1  0
 18 19  2  0
 19 20  1  0
 20 21  2  0
 21 22  1  0
 22 23  2  0
 23 24  1  0
 23 25  1  0
 25 26  2  0
 26 27  1  0
 27 28  2  0
  2 29  1  0
 29 30  2  0
 30 31  1  0
 31 32  2  0
 32 33  1  0
 33 34  2  0
 11  6  1  0
 28 18  1  0
 34 29  1  0
 27 21  1  0
  1 35  1  0
  1 36  1  0
  1 37  1  0
  2 38  1  6
  3 39  1  0
  6 40  1  6
  7 41  1  0
  7 42  1  0
  8 43  1  0
  8 44  1  0
  9 45  1  0
  9 46  1  0
 10 47  1  0
 10 48  1  0
 14 49  1  0
 14 50  1  0
 15 51  1  0
 19 52  1  0
 20 53  1  0
 22 54  1  0
 25 55  1  0
 26 56  1  0
 30 57  1  0
 31 58  1  0
 32 59  1  0
 33 60  1  0
 34 61  1  0
M  END
>  <smiles>  (83) 
C[C@H](NC(=O)C1CCCCN1C(=O)CNC(=O)c1ccc2cc(Cl)ccc2n1)c1ccccc1

>  <score_type>  (83) 
oracle

>  <origin>  (83) 
autodockgpu

>  <m_score__min__energy>  (83) 
-9.6899999999999995

>  <m_primary>  (83) 
energy

>  <rmsd>  (83) 
2.8331218821035344

>  <m_score__min__rmsd>  (83) 
2.8331218821035344

>  <meeko>  (83) 
{"free_energy": -8.98, "intermolecular_energy": -11.06, "internal_energy": -2.75, "cluster_size": 14, "cluster_id": 1, "rank_in_cluster": 8}

>  <energy>  (83) 
-8.27

>  <cluster_rmsd>  (83) 
1.06

>  <cluster>  (83) 
7

$$$$

     RDKit          3D

 61 64  0  0  1  0  0  0  0  0999 V2000
  142.6170   79.9580  223.0050 C   0  0  0  0  0  0  0  0  0  0  0  0
  141.7600   78.7060  223.0250 C   0  0  2  0  0  0  0  0  0  0  0  0
  141.8270   78.0200  221.7720 N   0  0  0  0  0  0  0  0  0  0  0  0
  141.4160   78.7000  220.5570 C   0  0  0  0  0  0  0  0  0  0  0  0
  141.0230   79.8770  220.7270 O   0  0  0  0  0  0  0  0  0  0  0  0
  141.5060   77.9510  219.3230 C   0  0  1  0  0  0  0  0  0  0  0  0
  142.9480   77.6060  218.8940 C   0  0  0  0  0  0  0  0  0  0  0  0
  142.9000   76.5530  217.8010 C   0  0  0  0  0  0  0  0  0  0  0  0
  141.6020   76.5590  217.0230 C   0  0  0  0  0  0  0  0  0  0  0  0
  140.3800   76.3140  217.8770 C   0  0  0  0  0  0  0  0  0  0  0  0
  140.8300   76.6800  219.2460 N   0  0  0  0  0  0  0  0  0  0  0  0
  140.5870   75.7870  220.3040 C   0  0  0  0  0  0  0  0  0  0  0  0
  140.2400   76.1000  221.4690 O   0  0  0  0  0  0  0  0  0  0  0  0
  140.7490   74.3260  220.0490 C   0  0  0  0  0  0  0  0  0  0  0  0
  140.6490   73.5690  221.2940 N   0  0  0  0  0  0  0  0  0  0  0  0
  140.2670   72.1910  221.2890 C   0  0  0  0  0  0  0  0  0  0  0  0
  140.0090   71.6070  220.2090 O   0  0  0  0  0  0  0  0  0  0  0  0
  140.1820   71.4800  222.5630 C   0  0  0  0  0  0  0  0  0  0  0  0
  139.5640   70.2360  222.5980 C   0  0  0  0  0  0  0  0  0  0  0  0
  139.4580   69.5230  223.7690 C   0  0  0  0  0  0  0  0  0  0  0  0
  139.9720   70.0460  224.9340 C   0  0  0  0  0  0  0  0  0  0  0  0
  139.8480   69.3080  226.0830 C   0  0  0  0  0  0  0  0  0  0  0  0
  140.3730   69.8460  227.2620 C   0  0  0  0  0  0  0  0  0  0  0  0
  140.2070   68.8930  228.7160 Cl  0  0  0  0  0  0  0  0  0  0  0  0
  140.9890   71.0810  227.2350 C   0  0  0  0  0  0  0  0  0  0  0  0
  141.1000   71.8070  226.0530 C   0  0  0  0  0  0  0  0  0  0  0  0
  140.5840   71.2850  224.8800 C   0  0  0  0  0  0  0  0  0  0  0  0
  140.6810   71.9790  223.7100 N   0  0  0  0  0  0  0  0  0  0  0  0
  140.3400   79.1690  223.2180 C   0  0  0  0  0  0  0  0  0  0  0  0
  140.1640   80.4370  223.7670 C   0  0  0  0  0  0  0  0  0  0  0  0
  138.8950   80.9380  223.9760 C   0  0  0  0  0  0  0  0  0  0  0  0
  137.8150   80.1450  223.6250 C   0  0  0  0  0  0  0  0  0  0  0  0
  137.9880   78.8730  223.0740 C   0  0  0  0  0  0  0  0  0  0  0  0
  139.2640   78.3800  222.8680 C   0  0  0  0  0  0  0  0  0  0  0  0
  142.8318   80.2718  224.0372 H   0  0  0  0  0  0  0  0  0  0  0  0
  143.5614   79.7476  222.4817 H   0  0  0  0  0  0  0  0  0  0  0  0
  142.0791   80.7622  222.4817 H   0  0  0  0  0  0  0  0  0  0  0  0
  142.1050   78.0260  223.8178 H   0  0  0  0  0  0  0  0  0  0  0  0
  142.1710   77.0360  221.7520 H   0  0  0  0  0  0  0  0  0  0  0  0
  141.0038   78.6826  218.6729 H   0  0  0  0  0  0  0  0  0  0  0  0
  143.4459   78.5101  218.5135 H   0  0  0  0  0  0  0  0  0  0  0  0
  143.5104   77.2204  219.7572 H   0  0  0  0  0  0  0  0  0  0  0  0
  143.7280   76.7381  217.1008 H   0  0  0  0  0  0  0  0  0  0  0  0
  142.9833   75.5710  218.2897 H   0  0  0  0  0  0  0  0  0  0  0  0
  141.4940   77.5392  216.5355 H   0  0  0  0  0  0  0  0  0  0  0  0
  141.6581   75.7333  216.2984 H   0  0  0  0  0  0  0  0  0  0  0  0
  139.5425   76.9506  217.5557 H   0  0  0  0  0  0  0  0  0  0  0  0
  140.0130   75.2792  217.8105 H   0  0  0  0  0  0  0  0  0  0  0  0
  139.9610   73.9907  219.3586 H   0  0  0  0  0  0  0  0  0  0  0  0
  141.7421   74.1524  219.6091 H   0  0  0  0  0  0  0  0  0  0  0  0
  140.8550   74.0130  222.2310 H   0  0  0  0  0  0  0  0  0  0  0  0
  139.1512   69.8130  221.6703 H   0  0  0  0  0  0  0  0  0  0  0  0
  138.9650   68.5397  223.7748 H   0  0  0  0  0  0  0  0  0  0  0  0
  139.3523   68.3260  226.0774 H   0  0  0  0  0  0  0  0  0  0  0  0
  141.4000   71.4993  228.1656 H   0  0  0  0  0  0  0  0  0  0  0  0
  141.5947   72.7895  226.0512 H   0  0  0  0  0  0  0  0  0  0  0  0
  141.0419   81.0429  224.0357 H   0  0  0  0  0  0  0  0  0  0  0  0
  138.7457   81.9382  224.4088 H   0  0  0  0  0  0  0  0  0  0  0  0
  136.7956   80.5264  223.7841 H   0  0  0  0  0  0  0  0  0  0  0  0
  137.1118   78.2650  222.8046 H   0  0  0  0  0  0  0  0  0  0  0  0
  139.4173   77.3807  222.4346 H   0  0  0  0  0  0  0  0  0  0  0  0
  1  2  1  0
  2  3  1  0
  3  4  1  0
  4  5  2  0
  4  6  1  0
  6  7  1  0
  7  8  1  0
  8  9  1  0
  9 10  1  0
 10 11  1  0
 11 12  1  0
 12 13  2  0
 12 14  1  0
 14 15  1  0
 15 16  1  0
 16 17  2  0
 16 18  1  0
 18 19  2  0
 19 20  1  0
 20 21  2  0
 21 22  1  0
 22 23  2  0
 23 24  1  0
 23 25  1  0
 25 26  2  0
 26 27  1  0
 27 28  2  0
  2 29  1  0
 29 30  2  0
 30 31  1  0
 31 32  2  0
 32 33  1  0
 33 34  2  0
 11  6  1  0
 28 18  1  0
 34 29  1  0
 27 21  1  0
  1 35  1  0
  1 36  1  0
  1 37  1  0
  2 38  1  1
  3 39  1  0
  6 40  1  6
  7 41  1  0
  7 42  1  0
  8 43  1  0
  8 44  1  0
  9 45  1  0
  9 46  1  0
 10 47  1  0
 10 48  1  0
 14 49  1  0
 14 50  1  0
 15 51  1  0
 19 52  1  0
 20 53  1  0
 22 54  1  0
 25 55  1  0
 26 56  1  0
 30 57  1  0
 31 58  1  0
 32 59  1  0
 33 60  1  0
 34 61  1  0
M  END
>  <smiles>  (84) 
C[C@H](NC(=O)C1CCCCN1C(=O)CNC(=O)c1ccc2cc(Cl)ccc2n1)c1ccccc1

>  <score_type>  (84) 
oracle

>  <origin>  (84) 
autodockgpu

>  <m_score__min__energy>  (84) 
-9.6899999999999995

>  <m_primary>  (84) 
energy

>  <rmsd>  (84) 
2.4324445105304253

>  <m_score__min__rmsd>  (84) 
2.4324445105304253

>  <meeko>  (84) 
{"free_energy": -8.3, "intermolecular_energy": -10.38, "internal_energy": -2.9, "cluster_size": 14, "cluster_id": 1, "rank_in_cluster": 11}

>  <energy>  (84) 
-8.22

>  <cluster_rmsd>  (84) 
0.69

>  <cluster>  (84) 
7

$$$$

     RDKit          3D

 61 64  0  0  1  0  0  0  0  0999 V2000
  140.3760   78.5000  219.9310 C   0  0  0  0  0  0  0  0  0  0  0  0
  141.8540   78.4450  220.2750 C   0  0  2  0  0  0  0  0  0  0  0  0
  142.3050   77.0910  220.3730 N   0  0  0  0  0  0  0  0  0  0  0  0
  143.0860   76.5130  219.2950 C   0  0  0  0  0  0  0  0  0  0  0  0
  143.3010   77.2870  218.3350 O   0  0  0  0  0  0  0  0  0  0  0  0
  143.5110   75.1400  219.4560 C   0  0  1  0  0  0  0  0  0  0  0  0
  144.6580   74.9450  220.4700 C   0  0  0  0  0  0  0  0  0  0  0  0
  144.7800   73.4680  220.8010 C   0  0  0  0  0  0  0  0  0  0  0  0
  144.2510   72.5650  219.7080 C   0  0  0  0  0  0  0  0  0  0  0  0
  142.7920   72.7900  219.3860 C   0  0  0  0  0  0  0  0  0  0  0  0
  142.5330   74.1690  219.8800 N   0  0  0  0  0  0  0  0  0  0  0  0
  141.4150   74.3990  220.7000 C   0  0  0  0  0  0  0  0  0  0  0  0
  141.4280   74.5190  221.9500 O   0  0  0  0  0  0  0  0  0  0  0  0
  140.0740   74.5140  220.0550 C   0  0  0  0  0  0  0  0  0  0  0  0
  139.3620   75.6900  220.5490 N   0  0  0  0  0  0  0  0  0  0  0  0
  138.9190   75.7650  221.9060 C   0  0  0  0  0  0  0  0  0  0  0  0
  139.1350   74.8160  222.6990 O   0  0  0  0  0  0  0  0  0  0  0  0
  138.2110   76.9630  222.3500 C   0  0  0  0  0  0  0  0  0  0  0  0
  136.8300   77.0210  222.2050 C   0  0  0  0  0  0  0  0  0  0  0  0
  136.1150   78.1250  222.6070 C   0  0  0  0  0  0  0  0  0  0  0  0
  136.7720   79.1960  223.1660 C   0  0  0  0  0  0  0  0  0  0  0  0
  136.0270   80.2800  223.5560 C   0  0  0  0  0  0  0  0  0  0  0  0
  136.7030   81.3640  224.1230 C   0  0  0  0  0  0  0  0  0  0  0  0
  135.7390   82.7360  224.6130 Cl  0  0  0  0  0  0  0  0  0  0  0  0
  138.0740   81.3140  224.2710 C   0  0  0  0  0  0  0  0  0  0  0  0
  138.8040   80.2010  223.8660 C   0  0  0  0  0  0  0  0  0  0  0  0
  138.1460   79.1210  223.3030 C   0  0  0  0  0  0  0  0  0  0  0  0
  138.8420   78.0190  222.8990 N   0  0  0  0  0  0  0  0  0  0  0  0
  141.9950   79.0740  221.6360 C   0  0  0  0  0  0  0  0  0  0  0  0
  141.7130   78.2640  222.7330 C   0  0  0  0  0  0  0  0  0  0  0  0
  141.8180   78.7630  224.0160 C   0  0  0  0  0  0  0  0  0  0  0  0
  142.2080   80.0820  224.1720 C   0  0  0  0  0  0  0  0  0  0  0  0
  142.4920   80.8970  223.0740 C   0  0  0  0  0  0  0  0  0  0  0  0
  142.3840   80.3880  221.7920 C   0  0  0  0  0  0  0  0  0  0  0  0
  139.7843   78.5220  220.8581 H   0  0  0  0  0  0  0  0  0  0  0  0
  140.1699   79.4064  219.3429 H   0  0  0  0  0  0  0  0  0  0  0  0
  140.1031   77.6114  219.3429 H   0  0  0  0  0  0  0  0  0  0  0  0
  142.4414   78.9576  219.4990 H   0  0  0  0  0  0  0  0  0  0  0  0
  142.0640   76.5390  221.2250 H   0  0  0  0  0  0  0  0  0  0  0  0
  143.7961   74.9537  218.4101 H   0  0  0  0  0  0  0  0  0  0  0  0
  145.6015   75.3041  220.0331 H   0  0  0  0  0  0  0  0  0  0  0  0
  144.4445   75.5147  221.3865 H   0  0  0  0  0  0  0  0  0  0  0  0
  145.8421   73.2332  220.9645 H   0  0  0  0  0  0  0  0  0  0  0  0
  144.1722   73.2837  221.6991 H   0  0  0  0  0  0  0  0  0  0  0  0
  144.8392   72.7430  218.7957 H   0  0  0  0  0  0  0  0  0  0  0  0
  144.3436   71.5314  220.0727 H   0  0  0  0  0  0  0  0  0  0  0  0
  142.6138   72.7210  218.3027 H   0  0  0  0  0  0  0  0  0  0  0  0
  142.1322   72.0401  219.8468 H   0  0  0  0  0  0  0  0  0  0  0  0
  140.2035   74.6014  218.9661 H   0  0  0  0  0  0  0  0  0  0  0  0
  139.4864   73.6167  220.2990 H   0  0  0  0  0  0  0  0  0  0  0  0
  139.1540   76.5160  219.9230 H   0  0  0  0  0  0  0  0  0  0  0  0
  136.2983   76.1671  221.7599 H   0  0  0  0  0  0  0  0  0  0  0  0
  135.0225   78.1512  222.4819 H   0  0  0  0  0  0  0  0  0  0  0  0
  134.9347   80.2955  223.4268 H   0  0  0  0  0  0  0  0  0  0  0  0
  138.5999   82.1706  224.7178 H   0  0  0  0  0  0  0  0  0  0  0  0
  139.8965   80.1793  223.9923 H   0  0  0  0  0  0  0  0  0  0  0  0
  141.4046   77.2198  222.5763 H   0  0  0  0  0  0  0  0  0  0  0  0
  141.5981   78.1308  224.8889 H   0  0  0  0  0  0  0  0  0  0  0  0
  142.2964   80.4987  225.1862 H   0  0  0  0  0  0  0  0  0  0  0  0
  142.8009   81.9414  223.2281 H   0  0  0  0  0  0  0  0  0  0  0  0
  142.6035   81.0172  220.9168 H   0  0  0  0  0  0  0  0  0  0  0  0
  1  2  1  0
  2  3  1  0
  3  4  1  0
  4  5  2  0
  4  6  1  0
  6  7  1  0
  7  8  1  0
  8  9  1  0
  9 10  1  0
 10 11  1  0
 11 12  1  0
 12 13  2  0
 12 14  1  0
 14 15  1  0
 15 16  1  0
 16 17  2  0
 16 18  1  0
 18 19  2  0
 19 20  1  0
 20 21  2  0
 21 22  1  0
 22 23  2  0
 23 24  1  0
 23 25  1  0
 25 26  2  0
 26 27  1  0
 27 28  2  0
  2 29  1  0
 29 30  2  0
 30 31  1  0
 31 32  2  0
 32 33  1  0
 33 34  2  0
 11  6  1  0
 28 18  1  0
 34 29  1  0
 27 21  1  0
  1 35  1  0
  1 36  1  0
  1 37  1  0
  2 38  1  6
  3 39  1  0
  6 40  1  6
  7 41  1  0
  7 42  1  0
  8 43  1  0
  8 44  1  0
  9 45  1  0
  9 46  1  0
 10 47  1  0
 10 48  1  0
 14 49  1  0
 14 50  1  0
 15 51  1  0
 19 52  1  0
 20 53  1  0
 22 54  1  0
 25 55  1  0
 26 56  1  0
 30 57  1  0
 31 58  1  0
 32 59  1  0
 33 60  1  0
 34 61  1  0
M  END
>  <smiles>  (85) 
C[C@H](NC(=O)C1CCCCN1C(=O)CNC(=O)c1ccc2cc(Cl)ccc2n1)c1ccccc1

>  <score_type>  (85) 
oracle

>  <origin>  (85) 
autodockgpu

>  <m_score__min__energy>  (85) 
-9.6899999999999995

>  <m_primary>  (85) 
energy

>  <rmsd>  (85) 
6.511044583872998

>  <m_score__min__rmsd>  (85) 
6.511044583872998

>  <meeko>  (85) 
{"free_energy": -7.48, "intermolecular_energy": -9.57, "internal_energy": -3.56, "cluster_size": 2, "cluster_id": 12, "rank_in_cluster": 1}

>  <energy>  (85) 
-8.38

>  <cluster_rmsd>  (85) 
0.0

>  <cluster>  (85) 
8

$$$$

     RDKit          3D

 61 64  0  0  1  0  0  0  0  0999 V2000
  141.8250   77.7360  219.8950 C   0  0  0  0  0  0  0  0  0  0  0  0
  141.3950   77.4110  221.3140 C   0  0  2  0  0  0  0  0  0  0  0  0
  139.9870   77.1650  221.3770 N   0  0  0  0  0  0  0  0  0  0  0  0
  139.5000   75.9060  221.9140 C   0  0  0  0  0  0  0  0  0  0  0  0
  140.3980   75.1180  222.2880 O   0  0  0  0  0  0  0  0  0  0  0  0
  138.0670   75.7190  221.9480 C   0  0  1  0  0  0  0  0  0  0  0  0
  137.3560   76.4710  223.0940 C   0  0  0  0  0  0  0  0  0  0  0  0
  135.8610   76.4770  222.8280 C   0  0  0  0  0  0  0  0  0  0  0  0
  135.4040   75.3280  221.9550 C   0  0  0  0  0  0  0  0  0  0  0  0
  136.0580   75.3040  220.5930 C   0  0  0  0  0  0  0  0  0  0  0  0
  137.3010   76.0980  220.7860 N   0  0  0  0  0  0  0  0  0  0  0  0
  137.6040   77.1200  219.8710 C   0  0  0  0  0  0  0  0  0  0  0  0
  138.5900   77.1460  219.0930 O   0  0  0  0  0  0  0  0  0  0  0  0
  136.6900   78.2970  219.7950 C   0  0  0  0  0  0  0  0  0  0  0  0
  136.4660   78.8640  221.1230 N   0  0  0  0  0  0  0  0  0  0  0  0
  137.5070   79.5630  221.8100 C   0  0  0  0  0  0  0  0  0  0  0  0
  138.6380   79.7000  221.2810 O   0  0  0  0  0  0  0  0  0  0  0  0
  137.2310   80.1110  223.1360 C   0  0  0  0  0  0  0  0  0  0  0  0
  138.2620   80.7230  223.8380 C   0  0  0  0  0  0  0  0  0  0  0  0
  138.0570   81.2560  225.0890 C   0  0  0  0  0  0  0  0  0  0  0  0
  136.8080   81.1870  225.6620 C   0  0  0  0  0  0  0  0  0  0  0  0
  136.6400   81.7290  226.9110 C   0  0  0  0  0  0  0  0  0  0  0  0
  135.3670   81.6550  227.4860 C   0  0  0  0  0  0  0  0  0  0  0  0
  135.1700   82.3500  229.0760 Cl  0  0  0  0  0  0  0  0  0  0  0  0
  134.3380   81.0490  226.7950 C   0  0  0  0  0  0  0  0  0  0  0  0
  134.5390   80.5080  225.5290 C   0  0  0  0  0  0  0  0  0  0  0  0
  135.7940   80.5750  224.9480 C   0  0  0  0  0  0  0  0  0  0  0  0
  136.0140   80.0510  223.7090 N   0  0  0  0  0  0  0  0  0  0  0  0
  141.6800   78.6420  222.1340 C   0  0  0  0  0  0  0  0  0  0  0  0
  141.8280   79.8390  221.4380 C   0  0  0  0  0  0  0  0  0  0  0  0
  142.0910   81.0130  222.1140 C   0  0  0  0  0  0  0  0  0  0  0  0
  142.2020   80.9600  223.4930 C   0  0  0  0  0  0  0  0  0  0  0  0
  142.0540   79.7610  224.1950 C   0  0  0  0  0  0  0  0  0  0  0  0
  141.7900   78.5900  223.5080 C   0  0  0  0  0  0  0  0  0  0  0  0
  142.7023   78.3991  219.9205 H   0  0  0  0  0  0  0  0  0  0  0  0
  142.0837   76.8057  219.3681 H   0  0  0  0  0  0  0  0  0  0  0  0
  141.0006   78.2387  219.3681 H   0  0  0  0  0  0  0  0  0  0  0  0
  141.9267   76.5179  221.6740 H   0  0  0  0  0  0  0  0  0  0  0  0
  139.3300   77.8990  221.0340 H   0  0  0  0  0  0  0  0  0  0  0  0
  138.0672   74.6243  222.0562 H   0  0  0  0  0  0  0  0  0  0  0  0
  137.5587   75.9645  224.0492 H   0  0  0  0  0  0  0  0  0  0  0  0
  137.7283   77.5047  223.1477 H   0  0  0  0  0  0  0  0  0  0  0  0
  135.3346   76.4141  223.7918 H   0  0  0  0  0  0  0  0  0  0  0  0
  135.6294   77.4078  222.2894 H   0  0  0  0  0  0  0  0  0  0  0  0
  135.6395   74.3851  222.4702 H   0  0  0  0  0  0  0  0  0  0  0  0
  134.3240   75.4578  221.7913 H   0  0  0  0  0  0  0  0  0  0  0  0
  136.2938   74.2735  220.2890 H   0  0  0  0  0  0  0  0  0  0  0  0
  135.4108   75.7100  219.8016 H   0  0  0  0  0  0  0  0  0  0  0  0
  137.1408   79.0629  219.1468 H   0  0  0  0  0  0  0  0  0  0  0  0
  135.7242   77.9686  219.3833 H   0  0  0  0  0  0  0  0  0  0  0  0
  135.5330   78.7770  221.6130 H   0  0  0  0  0  0  0  0  0  0  0  0
  139.2622   80.7824  223.3841 H   0  0  0  0  0  0  0  0  0  0  0  0
  138.8872   81.7350  225.6287 H   0  0  0  0  0  0  0  0  0  0  0  0
  137.4774   82.2053  227.4419 H   0  0  0  0  0  0  0  0  0  0  0  0
  133.3398   80.9925  227.2537 H   0  0  0  0  0  0  0  0  0  0  0  0
  133.7059   80.0299  224.9929 H   0  0  0  0  0  0  0  0  0  0  0  0
  141.7347   79.8488  220.3420 H   0  0  0  0  0  0  0  0  0  0  0  0
  142.2090   81.9634  221.5729 H   0  0  0  0  0  0  0  0  0  0  0  0
  142.4120   81.8850  224.0500 H   0  0  0  0  0  0  0  0  0  0  0  0
  142.1472   79.7484  225.2910 H   0  0  0  0  0  0  0  0  0  0  0  0
  141.6703   77.6378  224.0457 H   0  0  0  0  0  0  0  0  0  0  0  0
  1  2  1  0
  2  3  1  0
  3  4  1  0
  4  5  2  0
  4  6  1  0
  6  7  1  0
  7  8  1  0
  8  9  1  0
  9 10  1  0
 10 11  1  0
 11 12  1  0
 12 13  2  0
 12 14  1  0
 14 15  1  0
 15 16  1  0
 16 17  2  0
 16 18  1  0
 18 19  2  0
 19 20  1  0
 20 21  2  0
 21 22  1  0
 22 23  2  0
 23 24  1  0
 23 25  1  0
 25 26  2  0
 26 27  1  0
 27 28  2  0
  2 29  1  0
 29 30  2  0
 30 31  1  0
 31 32  2  0
 32 33  1  0
 33 34  2  0
 11  6  1  0
 28 18  1  0
 34 29  1  0
 27 21  1  0
  1 35  1  0
  1 36  1  0
  1 37  1  0
  2 38  1  1
  3 39  1  0
  6 40  1  1
  7 41  1  0
  7 42  1  0
  8 43  1  0
  8 44  1  0
  9 45  1  0
  9 46  1  0
 10 47  1  0
 10 48  1  0
 14 49  1  0
 14 50  1  0
 15 51  1  0
 19 52  1  0
 20 53  1  0
 22 54  1  0
 25 55  1  0
 26 56  1  0
 30 57  1  0
 31 58  1  0
 32 59  1  0
 33 60  1  0
 34 61  1  0
M  END
>  <smiles>  (86) 
C[C@H](NC(=O)C1CCCCN1C(=O)CNC(=O)c1ccc2cc(Cl)ccc2n1)c1ccccc1

>  <score_type>  (86) 
oracle

>  <origin>  (86) 
autodockgpu

>  <m_score__min__energy>  (86) 
-9.6899999999999995

>  <m_primary>  (86) 
energy

>  <rmsd>  (86) 
7.7358068075371715

>  <m_score__min__rmsd>  (86) 
7.7358068075371715

>  <meeko>  (86) 
{"free_energy": -6.64, "intermolecular_energy": -8.72, "internal_energy": -4.79, "cluster_size": 1, "cluster_id": 14, "rank_in_cluster": 1}

>  <energy>  (86) 
-8.34

>  <cluster_rmsd>  (86) 
0.32

>  <cluster>  (86) 
8

$$$$

     RDKit          3D

 61 64  0  0  1  0  0  0  0  0999 V2000
  140.1740   71.3280  223.5540 C   0  0  0  0  0  0  0  0  0  0  0  0
  139.5710   70.2930  224.4860 C   0  0  2  0  0  0  0  0  0  0  0  0
  138.1420   70.3300  224.4370 N   0  0  0  0  0  0  0  0  0  0  0  0
  137.4230   69.3420  223.6540 C   0  0  0  0  0  0  0  0  0  0  0  0
  138.1530   68.5100  223.0680 O   0  0  0  0  0  0  0  0  0  0  0  0
  135.9800   69.4360  223.6450 C   0  0  1  0  0  0  0  0  0  0  0  0
  135.3180   69.1730  225.0130 C   0  0  0  0  0  0  0  0  0  0  0  0
  133.8700   69.6270  224.9580 C   0  0  0  0  0  0  0  0  0  0  0  0
  133.2970   69.6280  223.5570 C   0  0  0  0  0  0  0  0  0  0  0  0
  134.0420   70.5260  222.5970 C   0  0  0  0  0  0  0  0  0  0  0  0
  135.3810   70.6790  223.2270 N   0  0  0  0  0  0  0  0  0  0  0  0
  135.9200   71.9680  223.3740 C   0  0  0  0  0  0  0  0  0  0  0  0
  136.1540   72.5520  224.4610 O   0  0  0  0  0  0  0  0  0  0  0  0
  136.2550   72.7410  222.1420 C   0  0  0  0  0  0  0  0  0  0  0  0
  137.1560   73.8480  222.4540 N   0  0  0  0  0  0  0  0  0  0  0  0
  137.9410   74.4680  221.4320 C   0  0  0  0  0  0  0  0  0  0  0  0
  137.8680   74.0690  220.2440 O   0  0  0  0  0  0  0  0  0  0  0  0
  138.8270   75.5710  221.7970 C   0  0  0  0  0  0  0  0  0  0  0  0
  140.1930   75.4330  221.5900 C   0  0  0  0  0  0  0  0  0  0  0  0
  141.0720   76.4400  221.9140 C   0  0  0  0  0  0  0  0  0  0  0  0
  140.5940   77.6120  222.4550 C   0  0  0  0  0  0  0  0  0  0  0  0
  141.4990   78.5950  222.7670 C   0  0  0  0  0  0  0  0  0  0  0  0
  141.0050   79.7820  223.3160 C   0  0  0  0  0  0  0  0  0  0  0  0
  142.1700   81.0230  223.7070 Cl  0  0  0  0  0  0  0  0  0  0  0  0
  139.6490   79.9270  223.5250 C   0  0  0  0  0  0  0  0  0  0  0  0
  138.7550   78.9130  223.1990 C   0  0  0  0  0  0  0  0  0  0  0  0
  139.2310   77.7320  222.6550 C   0  0  0  0  0  0  0  0  0  0  0  0
  138.3730   76.7240  222.3270 N   0  0  0  0  0  0  0  0  0  0  0  0
  139.9910   70.6830  225.8790 C   0  0  0  0  0  0  0  0  0  0  0  0
  140.7600   71.8380  226.0010 C   0  0  0  0  0  0  0  0  0  0  0  0
  141.1860   72.2660  227.2430 C   0  0  0  0  0  0  0  0  0  0  0  0
  140.8260   71.5150  228.3500 C   0  0  0  0  0  0  0  0  0  0  0  0
  140.0550   70.3570  228.2300 C   0  0  0  0  0  0  0  0  0  0  0  0
  139.6330   69.9360  226.9820 C   0  0  0  0  0  0  0  0  0  0  0  0
  140.6403   72.1283  224.1474 H   0  0  0  0  0  0  0  0  0  0  0  0
  140.9354   70.8508  222.9196 H   0  0  0  0  0  0  0  0  0  0  0  0
  139.3833   71.7550  222.9196 H   0  0  0  0  0  0  0  0  0  0  0  0
  139.9074   69.2861  224.1980 H   0  0  0  0  0  0  0  0  0  0  0  0
  137.6380   71.0730  224.9680 H   0  0  0  0  0  0  0  0  0  0  0  0
  135.7892   68.6555  222.8937 H   0  0  0  0  0  0  0  0  0  0  0  0
  135.3588   68.0978  225.2416 H   0  0  0  0  0  0  0  0  0  0  0  0
  135.8521   69.7298  225.7971 H   0  0  0  0  0  0  0  0  0  0  0  0
  133.2676   68.9498  225.5814 H   0  0  0  0  0  0  0  0  0  0  0  0
  133.8389   70.6638  225.3240 H   0  0  0  0  0  0  0  0  0  0  0  0
  133.3300   68.5998  223.1675 H   0  0  0  0  0  0  0  0  0  0  0  0
  132.2704   70.0163  223.6297 H   0  0  0  0  0  0  0  0  0  0  0  0
  134.1259   70.0570  221.6055 H   0  0  0  0  0  0  0  0  0  0  0  0
  133.5353   71.4883  222.4319 H   0  0  0  0  0  0  0  0  0  0  0  0
  136.7428   72.0720  221.4178 H   0  0  0  0  0  0  0  0  0  0  0  0
  135.3260   73.1506  221.7188 H   0  0  0  0  0  0  0  0  0  0  0  0
  137.2550   74.2220  223.4380 H   0  0  0  0  0  0  0  0  0  0  0  0
  140.5804   74.4986  221.1578 H   0  0  0  0  0  0  0  0  0  0  0  0
  142.1506   76.3096  221.7418 H   0  0  0  0  0  0  0  0  0  0  0  0
  142.5757   78.4540  222.5913 H   0  0  0  0  0  0  0  0  0  0  0  0
  139.2674   80.8634  223.9581 H   0  0  0  0  0  0  0  0  0  0  0  0
  137.6772   79.0482  223.3721 H   0  0  0  0  0  0  0  0  0  0  0  0
  141.0296   72.4127  225.1026 H   0  0  0  0  0  0  0  0  0  0  0  0
  141.7935   73.1767  227.3501 H   0  0  0  0  0  0  0  0  0  0  0  0
  141.1557   71.8389  229.3482 H   0  0  0  0  0  0  0  0  0  0  0  0
  139.7837   69.7805  229.1267 H   0  0  0  0  0  0  0  0  0  0  0  0
  139.0254   69.0257  226.8714 H   0  0  0  0  0  0  0  0  0  0  0  0
  1  2  1  0
  2  3  1  0
  3  4  1  0
  4  5  2  0
  4  6  1  0
  6  7  1  0
  7  8  1  0
  8  9  1  0
  9 10  1  0
 10 11  1  0
 11 12  1  0
 12 13  2  0
 12 14  1  0
 14 15  1  0
 15 16  1  0
 16 17  2  0
 16 18  1  0
 18 19  2  0
 19 20  1  0
 20 21  2  0
 21 22  1  0
 22 23  2  0
 23 24  1  0
 23 25  1  0
 25 26  2  0
 26 27  1  0
 27 28  2  0
  2 29  1  0
 29 30  2  0
 30 31  1  0
 31 32  2  0
 32 33  1  0
 33 34  2  0
 11  6  1  0
 28 18  1  0
 34 29  1  0
 27 21  1  0
  1 35  1  0
  1 36  1  0
  1 37  1  0
  2 38  1  6
  3 39  1  0
  6 40  1  6
  7 41  1  0
  7 42  1  0
  8 43  1  0
  8 44  1  0
  9 45  1  0
  9 46  1  0
 10 47  1  0
 10 48  1  0
 14 49  1  0
 14 50  1  0
 15 51  1  0
 19 52  1  0
 20 53  1  0
 22 54  1  0
 25 55  1  0
 26 56  1  0
 30 57  1  0
 31 58  1  0
 32 59  1  0
 33 60  1  0
 34 61  1  0
M  END
>  <smiles>  (87) 
C[C@H](NC(=O)C1CCCCN1C(=O)CNC(=O)c1ccc2cc(Cl)ccc2n1)c1ccccc1

>  <score_type>  (87) 
oracle

>  <origin>  (87) 
autodockgpu

>  <m_score__min__energy>  (87) 
-9.6899999999999995

>  <m_primary>  (87) 
energy

>  <rmsd>  (87) 
9.550386182826829

>  <m_score__min__rmsd>  (87) 
9.550386182826829

>  <meeko>  (87) 
{"free_energy": -8.59, "intermolecular_energy": -10.68, "internal_energy": -3.3, "cluster_size": 6, "cluster_id": 5, "rank_in_cluster": 4}

>  <energy>  (87) 
-8.28

>  <cluster_rmsd>  (87) 
0.96

>  <cluster>  (87) 
8

$$$$

     RDKit          3D

 61 64  0  0  1  0  0  0  0  0999 V2000
  135.4330   79.2270  223.6600 C   0  0  0  0  0  0  0  0  0  0  0  0
  136.3450   80.4380  223.7340 C   0  0  2  0  0  0  0  0  0  0  0  0
  137.7170   80.0520  223.6190 N   0  0  0  0  0  0  0  0  0  0  0  0
  138.5280   80.5930  222.5430 C   0  0  0  0  0  0  0  0  0  0  0  0
  137.9240   81.3820  221.7820 O   0  0  0  0  0  0  0  0  0  0  0  0
  139.9070   80.1620  222.4810 C   0  0  1  0  0  0  0  0  0  0  0  0
  140.6770   80.3040  223.8120 C   0  0  0  0  0  0  0  0  0  0  0  0
  141.9750   79.5210  223.7180 C   0  0  0  0  0  0  0  0  0  0  0  0
  142.4640   79.3430  222.2970 C   0  0  0  0  0  0  0  0  0  0  0  0
  141.4860   78.6160  221.4050 C   0  0  0  0  0  0  0  0  0  0  0  0
  140.1790   78.8010  222.0910 N   0  0  0  0  0  0  0  0  0  0  0  0
  139.3620   77.6790  222.3110 C   0  0  0  0  0  0  0  0  0  0  0  0
  138.4920   77.5650  223.2090 O   0  0  0  0  0  0  0  0  0  0  0  0
  139.5210   76.4990  221.4120 C   0  0  0  0  0  0  0  0  0  0  0  0
  139.3690   75.2540  222.1610 N   0  0  0  0  0  0  0  0  0  0  0  0
  139.8630   74.0180  221.6390 C   0  0  0  0  0  0  0  0  0  0  0  0
  140.4350   73.9820  220.5220 O   0  0  0  0  0  0  0  0  0  0  0  0
  139.6860   72.8000  222.4270 C   0  0  0  0  0  0  0  0  0  0  0  0
  138.6860   71.9050  222.0680 C   0  0  0  0  0  0  0  0  0  0  0  0
  138.4780   70.7440  222.7750 C   0  0  0  0  0  0  0  0  0  0  0  0
  139.2720   70.4560  223.8610 C   0  0  0  0  0  0  0  0  0  0  0  0
  139.0360   69.2900  224.5430 C   0  0  0  0  0  0  0  0  0  0  0  0
  139.8480   69.0050  225.6450 C   0  0  0  0  0  0  0  0  0  0  0  0
  139.5340   67.5160  226.5020 Cl  0  0  0  0  0  0  0  0  0  0  0  0
  140.8430   69.8890  226.0080 C   0  0  0  0  0  0  0  0  0  0  0  0
  141.0600   71.0640  225.2970 C   0  0  0  0  0  0  0  0  0  0  0  0
  140.2630   71.3580  224.2040 C   0  0  0  0  0  0  0  0  0  0  0  0
  140.4570   72.5050  223.4920 N   0  0  0  0  0  0  0  0  0  0  0  0
  136.1500   81.0300  225.1050 C   0  0  0  0  0  0  0  0  0  0  0  0
  137.1980   81.7970  225.6110 C   0  0  0  0  0  0  0  0  0  0  0  0
  137.1010   82.3760  226.8600 C   0  0  0  0  0  0  0  0  0  0  0  0
  135.9390   82.1700  227.5850 C   0  0  0  0  0  0  0  0  0  0  0  0
  134.8860   81.4020  227.0810 C   0  0  0  0  0  0  0  0  0  0  0  0
  134.9930   80.8270  225.8280 C   0  0  0  0  0  0  0  0  0  0  0  0
  135.1823   78.8941  224.6780 H   0  0  0  0  0  0  0  0  0  0  0  0
  134.5104   79.4949  223.1242 H   0  0  0  0  0  0  0  0  0  0  0  0
  135.9453   78.4143  223.1242 H   0  0  0  0  0  0  0  0  0  0  0  0
  136.1066   81.1399  222.9213 H   0  0  0  0  0  0  0  0  0  0  0  0
  138.1140   79.3840  224.3150 H   0  0  0  0  0  0  0  0  0  0  0  0
  140.2386   80.8520  221.6911 H   0  0  0  0  0  0  0  0  0  0  0  0
  140.8990   81.3651  223.9983 H   0  0  0  0  0  0  0  0  0  0  0  0
  140.0658   79.9127  224.6386 H   0  0  0  0  0  0  0  0  0  0  0  0
  142.7480   80.0563  224.2890 H   0  0  0  0  0  0  0  0  0  0  0  0
  141.7807   78.5174  224.1243 H   0  0  0  0  0  0  0  0  0  0  0  0
  142.6525   80.3379  221.8674 H   0  0  0  0  0  0  0  0  0  0  0  0
  143.3743   78.7273  222.3450 H   0  0  0  0  0  0  0  0  0  0  0  0
  141.4674   79.0604  220.3989 H   0  0  0  0  0  0  0  0  0  0  0  0
  141.7460   77.5569  221.2611 H   0  0  0  0  0  0  0  0  0  0  0  0
  138.7561   76.5410  220.6226 H   0  0  0  0  0  0  0  0  0  0  0  0
  140.5280   76.5247  220.9700 H   0  0  0  0  0  0  0  0  0  0  0  0
  138.8950   75.2290  223.1050 H   0  0  0  0  0  0  0  0  0  0  0  0
  138.0477   72.1295  221.2007 H   0  0  0  0  0  0  0  0  0  0  0  0
  137.6805   70.0489  222.4737 H   0  0  0  0  0  0  0  0  0  0  0  0
  138.2351   68.6023  224.2337 H   0  0  0  0  0  0  0  0  0  0  0  0
  141.4772   69.6598  226.8771 H   0  0  0  0  0  0  0  0  0  0  0  0
  141.8597   71.7554  225.6010 H   0  0  0  0  0  0  0  0  0  0  0  0
  138.1084   81.9418  225.0109 H   0  0  0  0  0  0  0  0  0  0  0  0
  137.9225   82.9833  227.2678 H   0  0  0  0  0  0  0  0  0  0  0  0
  135.8426   82.6225  228.5830 H   0  0  0  0  0  0  0  0  0  0  0  0
  133.9746   81.2553  227.6792 H   0  0  0  0  0  0  0  0  0  0  0  0
  134.1727   80.2205  225.4165 H   0  0  0  0  0  0  0  0  0  0  0  0
  1  2  1  0
  2  3  1  0
  3  4  1  0
  4  5  2  0
  4  6  1  0
  6  7  1  0
  7  8  1  0
  8  9  1  0
  9 10  1  0
 10 11  1  0
 11 12  1  0
 12 13  2  0
 12 14  1  0
 14 15  1  0
 15 16  1  0
 16 17  2  0
 16 18  1  0
 18 19  2  0
 19 20  1  0
 20 21  2  0
 21 22  1  0
 22 23  2  0
 23 24  1  0
 23 25  1  0
 25 26  2  0
 26 27  1  0
 27 28  2  0
  2 29  1  0
 29 30  2  0
 30 31  1  0
 31 32  2  0
 32 33  1  0
 33 34  2  0
 11  6  1  0
 28 18  1  0
 34 29  1  0
 27 21  1  0
  1 35  1  0
  1 36  1  0
  1 37  1  0
  2 38  1  6
  3 39  1  0
  6 40  1  6
  7 41  1  0
  7 42  1  0
  8 43  1  0
  8 44  1  0
  9 45  1  0
  9 46  1  0
 10 47  1  0
 10 48  1  0
 14 49  1  0
 14 50  1  0
 15 51  1  0
 19 52  1  0
 20 53  1  0
 22 54  1  0
 25 55  1  0
 26 56  1  0
 30 57  1  0
 31 58  1  0
 32 59  1  0
 33 60  1  0
 34 61  1  0
M  END
>  <smiles>  (88) 
C[C@H](NC(=O)C1CCCCN1C(=O)CNC(=O)c1ccc2cc(Cl)ccc2n1)c1ccccc1

>  <score_type>  (88) 
oracle

>  <origin>  (88) 
autodockgpu

>  <m_score__min__energy>  (88) 
-9.6899999999999995

>  <m_primary>  (88) 
energy

>  <rmsd>  (88) 
5.258344624120756

>  <m_score__min__rmsd>  (88) 
5.258344624120756

>  <meeko>  (88) 
{"free_energy": -8.48, "intermolecular_energy": -10.57, "internal_energy": -2.85, "cluster_size": 1, "cluster_id": 6, "rank_in_cluster": 1}

>  <energy>  (88) 
-8.19

>  <cluster_rmsd>  (88) 
0.59

>  <cluster>  (88) 
8

$$$$

     RDKit          3D

 61 64  0  0  1  0  0  0  0  0999 V2000
  137.5500   69.0690  223.1350 C   0  0  0  0  0  0  0  0  0  0  0  0
  137.4040   69.2090  224.6400 C   0  0  2  0  0  0  0  0  0  0  0  0
  136.3210   70.0830  224.9690 N   0  0  0  0  0  0  0  0  0  0  0  0
  134.9670   69.5600  225.0300 C   0  0  0  0  0  0  0  0  0  0  0  0
  134.8710   68.3380  224.7770 O   0  0  0  0  0  0  0  0  0  0  0  0
  133.9180   70.4960  225.3660 C   0  0  1  0  0  0  0  0  0  0  0  0
  133.8530   70.8650  226.8630 C   0  0  0  0  0  0  0  0  0  0  0  0
  132.9600   72.0820  227.0340 C   0  0  0  0  0  0  0  0  0  0  0  0
  131.9440   72.2380  225.9230 C   0  0  0  0  0  0  0  0  0  0  0  0
  132.5610   72.3760  224.5510 C   0  0  0  0  0  0  0  0  0  0  0  0
  133.9140   71.7810  224.7130 N   0  0  0  0  0  0  0  0  0  0  0  0
  135.0320   72.4980  224.2530 C   0  0  0  0  0  0  0  0  0  0  0  0
  135.8140   73.1790  224.9610 O   0  0  0  0  0  0  0  0  0  0  0  0
  135.3420   72.4670  222.7940 C   0  0  0  0  0  0  0  0  0  0  0  0
  136.7770   72.6200  222.5670 N   0  0  0  0  0  0  0  0  0  0  0  0
  137.4320   71.9200  221.5060 C   0  0  0  0  0  0  0  0  0  0  0  0
  136.7820   71.1580  220.7500 O   0  0  0  0  0  0  0  0  0  0  0  0
  138.8700   72.1070  221.3220 C   0  0  0  0  0  0  0  0  0  0  0  0
  139.6860   70.9880  221.2170 C   0  0  0  0  0  0  0  0  0  0  0  0
  141.0450   71.1080  221.0410 C   0  0  0  0  0  0  0  0  0  0  0  0
  141.6140   72.3580  220.9660 C   0  0  0  0  0  0  0  0  0  0  0  0
  142.9720   72.4400  220.7910 C   0  0  0  0  0  0  0  0  0  0  0  0
  143.5420   73.7140  220.7150 C   0  0  0  0  0  0  0  0  0  0  0  0
  145.2730   73.8000  220.4920 Cl  0  0  0  0  0  0  0  0  0  0  0  0
  142.7380   74.8310  220.8180 C   0  0  0  0  0  0  0  0  0  0  0  0
  141.3630   74.7170  220.9950 C   0  0  0  0  0  0  0  0  0  0  0  0
  140.7860   73.4610  221.0720 C   0  0  0  0  0  0  0  0  0  0  0  0
  139.4410   73.3250  221.2460 N   0  0  0  0  0  0  0  0  0  0  0  0
  138.6750   69.8540  225.1280 C   0  0  0  0  0  0  0  0  0  0  0  0
  139.2830   69.2750  226.2400 C   0  0  0  0  0  0  0  0  0  0  0  0
  140.4520   69.8030  226.7510 C   0  0  0  0  0  0  0  0  0  0  0  0
  140.9910   70.9160  226.1290 C   0  0  0  0  0  0  0  0  0  0  0  0
  140.3830   71.4990  225.0140 C   0  0  0  0  0  0  0  0  0  0  0  0
  139.2130   70.9620  224.5080 C   0  0  0  0  0  0  0  0  0  0  0  0
  138.3271   68.3238  222.9097 H   0  0  0  0  0  0  0  0  0  0  0  0
  136.5927   68.7426  222.7025 H   0  0  0  0  0  0  0  0  0  0  0  0
  137.8359   70.0392  222.7025 H   0  0  0  0  0  0  0  0  0  0  0  0
  137.2145   68.2252  225.0940 H   0  0  0  0  0  0  0  0  0  0  0  0
  136.5230   71.0880  225.1600 H   0  0  0  0  0  0  0  0  0  0  0  0
  133.0689   69.8935  225.0110 H   0  0  0  0  0  0  0  0  0  0  0  0
  133.4388   70.0205  227.4334 H   0  0  0  0  0  0  0  0  0  0  0  0
  134.8636   71.0904  227.2345 H   0  0  0  0  0  0  0  0  0  0  0  0
  132.4221   71.9893  227.9890 H   0  0  0  0  0  0  0  0  0  0  0  0
  133.6094   72.9695  227.0095 H   0  0  0  0  0  0  0  0  0  0  0  0
  131.2910   71.3528  225.9227 H   0  0  0  0  0  0  0  0  0  0  0  0
  131.3906   73.1676  226.1216 H   0  0  0  0  0  0  0  0  0  0  0  0
  131.9766   71.8236  223.8005 H   0  0  0  0  0  0  0  0  0  0  0  0
  132.5922   73.4180  224.1999 H   0  0  0  0  0  0  0  0  0  0  0  0
  135.0108   71.5054  222.3749 H   0  0  0  0  0  0  0  0  0  0  0  0
  134.8159   73.2991  222.3032 H   0  0  0  0  0  0  0  0  0  0  0  0
  137.3710   73.2500  223.1740 H   0  0  0  0  0  0  0  0  0  0  0  0
  139.2365   69.9857  221.2757 H   0  0  0  0  0  0  0  0  0  0  0  0
  141.6735   70.2088  220.9606 H   0  0  0  0  0  0  0  0  0  0  0  0
  143.5912   71.5342  220.7131 H   0  0  0  0  0  0  0  0  0  0  0  0
  143.1933   75.8306  220.7590 H   0  0  0  0  0  0  0  0  0  0  0  0
  140.7383   75.6190  221.0733 H   0  0  0  0  0  0  0  0  0  0  0  0
  138.8290   68.3920  226.7136 H   0  0  0  0  0  0  0  0  0  0  0  0
  140.9409   69.3522  227.6272 H   0  0  0  0  0  0  0  0  0  0  0  0
  141.9210   71.3524  226.5222 H   0  0  0  0  0  0  0  0  0  0  0  0
  140.8339   72.3831  224.5397 H   0  0  0  0  0  0  0  0  0  0  0  0
  138.7227   71.4089  223.6306 H   0  0  0  0  0  0  0  0  0  0  0  0
  1  2  1  0
  2  3  1  0
  3  4  1  0
  4  5  2  0
  4  6  1  0
  6  7  1  0
  7  8  1  0
  8  9  1  0
  9 10  1  0
 10 11  1  0
 11 12  1  0
 12 13  2  0
 12 14  1  0
 14 15  1  0
 15 16  1  0
 16 17  2  0
 16 18  1  0
 18 19  2  0
 19 20  1  0
 20 21  2  0
 21 22  1  0
 22 23  2  0
 23 24  1  0
 23 25  1  0
 25 26  2  0
 26 27  1  0
 27 28  2  0
  2 29  1  0
 29 30  2  0
 30 31  1  0
 31 32  2  0
 32 33  1  0
 33 34  2  0
 11  6  1  0
 28 18  1  0
 34 29  1  0
 27 21  1  0
  1 35  1  0
  1 36  1  0
  1 37  1  0
  2 38  1  1
  3 39  1  0
  6 40  1  6
  7 41  1  0
  7 42  1  0
  8 43  1  0
  8 44  1  0
  9 45  1  0
  9 46  1  0
 10 47  1  0
 10 48  1  0
 14 49  1  0
 14 50  1  0
 15 51  1  0
 19 52  1  0
 20 53  1  0
 22 54  1  0
 25 55  1  0
 26 56  1  0
 30 57  1  0
 31 58  1  0
 32 59  1  0
 33 60  1  0
 34 61  1  0
M  END
>  <smiles>  (89) 
C[C@H](NC(=O)C1CCCCN1C(=O)CNC(=O)c1ccc2cc(Cl)ccc2n1)c1ccccc1

>  <score_type>  (89) 
oracle

>  <origin>  (89) 
autodockgpu

>  <m_score__min__energy>  (89) 
-9.6899999999999995

>  <m_primary>  (89) 
energy

>  <rmsd>  (89) 
9.541432292730898

>  <m_score__min__rmsd>  (89) 
9.541432292730898

>  <meeko>  (89) 
{"free_energy": -7.08, "intermolecular_energy": -9.17, "internal_energy": -3.98, "cluster_size": 2, "cluster_id": 11, "rank_in_cluster": 2}

>  <energy>  (89) 
-8.17

>  <cluster_rmsd>  (89) 
1.12

>  <cluster>  (89) 
8

$$$$

     RDKit          3D

 61 64  0  0  1  0  0  0  0  0999 V2000
  141.0560   77.6030  220.8450 C   0  0  0  0  0  0  0  0  0  0  0  0
  140.8820   77.6040  222.3530 C   0  0  2  0  0  0  0  0  0  0  0  0
  139.5050   77.4520  222.7080 N   0  0  0  0  0  0  0  0  0  0  0  0
  138.9040   76.1310  222.7090 C   0  0  0  0  0  0  0  0  0  0  0  0
  139.6810   75.2050  222.3840 O   0  0  0  0  0  0  0  0  0  0  0  0
  137.5080   76.0460  223.0760 C   0  0  1  0  0  0  0  0  0  0  0  0
  136.7630   77.3980  223.0600 C   0  0  0  0  0  0  0  0  0  0  0  0
  135.2680   77.1400  223.1250 C   0  0  0  0  0  0  0  0  0  0  0  0
  134.9170   75.8160  223.7690 C   0  0  0  0  0  0  0  0  0  0  0  0
  135.5050   74.6200  223.0580 C   0  0  0  0  0  0  0  0  0  0  0  0
  136.6480   75.1920  222.2950 N   0  0  0  0  0  0  0  0  0  0  0  0
  136.7790   74.8810  220.9310 C   0  0  0  0  0  0  0  0  0  0  0  0
  136.3950   75.5940  219.9720 O   0  0  0  0  0  0  0  0  0  0  0  0
  137.4280   73.5900  220.5580 C   0  0  0  0  0  0  0  0  0  0  0  0
  137.9330   72.9030  221.7440 N   0  0  0  0  0  0  0  0  0  0  0  0
  137.8030   71.4860  221.8850 C   0  0  0  0  0  0  0  0  0  0  0  0
  137.2480   70.8060  220.9880 O   0  0  0  0  0  0  0  0  0  0  0  0
  138.3260   70.8480  223.0910 C   0  0  0  0  0  0  0  0  0  0  0  0
  137.9270   69.5510  223.3920 C   0  0  0  0  0  0  0  0  0  0  0  0
  138.3900   68.9030  224.5140 C   0  0  0  0  0  0  0  0  0  0  0  0
  139.2660   69.5460  225.3590 C   0  0  0  0  0  0  0  0  0  0  0  0
  139.7060   68.8690  226.4680 C   0  0  0  0  0  0  0  0  0  0  0  0
  140.5960   69.5290  227.3210 C   0  0  0  0  0  0  0  0  0  0  0  0
  141.1460   68.6530  228.7280 Cl  0  0  0  0  0  0  0  0  0  0  0  0
  140.9970   70.8160  227.0280 C   0  0  0  0  0  0  0  0  0  0  0  0
  140.5330   71.4770  225.8960 C   0  0  0  0  0  0  0  0  0  0  0  0
  139.6520   70.8350  225.0430 C   0  0  0  0  0  0  0  0  0  0  0  0
  139.1840   71.4640  223.9270 N   0  0  0  0  0  0  0  0  0  0  0  0
  141.3290   78.9610  222.8290 C   0  0  0  0  0  0  0  0  0  0  0  0
  140.3350   79.9200  223.0130 C   0  0  0  0  0  0  0  0  0  0  0  0
  140.6600   81.1890  223.4480 C   0  0  0  0  0  0  0  0  0  0  0  0
  141.9940   81.4730  223.6920 C   0  0  0  0  0  0  0  0  0  0  0  0
  142.9930   80.5140  223.5080 C   0  0  0  0  0  0  0  0  0  0  0  0
  142.6570   79.2450  223.0720 C   0  0  0  0  0  0  0  0  0  0  0  0
  142.1283   77.5968  220.5996 H   0  0  0  0  0  0  0  0  0  0  0  0
  140.5777   76.7076  220.4213 H   0  0  0  0  0  0  0  0  0  0  0  0
  140.5881   78.5038  220.4213 H   0  0  0  0  0  0  0  0  0  0  0  0
  141.4554   76.7781  222.7992 H   0  0  0  0  0  0  0  0  0  0  0  0
  138.9520   78.3000  222.9620 H   0  0  0  0  0  0  0  0  0  0  0  0
  137.6495   75.6195  224.0801 H   0  0  0  0  0  0  0  0  0  0  0  0
  137.0715   77.9993  223.9279 H   0  0  0  0  0  0  0  0  0  0  0  0
  137.0058   77.9450  222.1370 H   0  0  0  0  0  0  0  0  0  0  0  0
  134.7993   77.9469  223.7075 H   0  0  0  0  0  0  0  0  0  0  0  0
  134.8974   77.1075  222.0898 H   0  0  0  0  0  0  0  0  0  0  0  0
  135.2906   75.8232  224.8036 H   0  0  0  0  0  0  0  0  0  0  0  0
  133.8229   75.7141  223.7185 H   0  0  0  0  0  0  0  0  0  0  0  0
  135.8528   73.8662  223.7797 H   0  0  0  0  0  0  0  0  0  0  0  0
  134.7766   74.1055  222.4141 H   0  0  0  0  0  0  0  0  0  0  0  0
  136.6903   72.9472  220.0554 H   0  0  0  0  0  0  0  0  0  0  0  0
  138.2726   73.8007  219.8855 H   0  0  0  0  0  0  0  0  0  0  0  0
  138.4090   73.4280  222.5290 H   0  0  0  0  0  0  0  0  0  0  0  0
  137.2273   69.0324  222.7200 H   0  0  0  0  0  0  0  0  0  0  0  0
  138.0618   67.8765  224.7346 H   0  0  0  0  0  0  0  0  0  0  0  0
  139.3704   67.8429  226.6789 H   0  0  0  0  0  0  0  0  0  0  0  0
  141.6975   71.3294  227.7031 H   0  0  0  0  0  0  0  0  0  0  0  0
  140.8640   72.5035  225.6798 H   0  0  0  0  0  0  0  0  0  0  0  0
  139.2846   79.6641  222.8103 H   0  0  0  0  0  0  0  0  0  0  0  0
  139.8824   81.9527  223.5966 H   0  0  0  0  0  0  0  0  0  0  0  0
  142.2734   82.4787  224.0393 H   0  0  0  0  0  0  0  0  0  0  0  0
  144.0443   80.7674  223.7093 H   0  0  0  0  0  0  0  0  0  0  0  0
  143.4319   78.4788  222.9223 H   0  0  0  0  0  0  0  0  0  0  0  0
  1  2  1  0
  2  3  1  0
  3  4  1  0
  4  5  2  0
  4  6  1  0
  6  7  1  0
  7  8  1  0
  8  9  1  0
  9 10  1  0
 10 11  1  0
 11 12  1  0
 12 13  2  0
 12 14  1  0
 14 15  1  0
 15 16  1  0
 16 17  2  0
 16 18  1  0
 18 19  2  0
 19 20  1  0
 20 21  2  0
 21 22  1  0
 22 23  2  0
 23 24  1  0
 23 25  1  0
 25 26  2  0
 26 27  1  0
 27 28  2  0
  2 29  1  0
 29 30  2  0
 30 31  1  0
 31 32  2  0
 32 33  1  0
 33 34  2  0
 11  6  1  0
 28 18  1  0
 34 29  1  0
 27 21  1  0
  1 35  1  0
  1 36  1  0
  1 37  1  0
  2 38  1  1
  3 39  1  0
  6 40  1  1
  7 41  1  0
  7 42  1  0
  8 43  1  0
  8 44  1  0
  9 45  1  0
  9 46  1  0
 10 47  1  0
 10 48  1  0
 14 49  1  0
 14 50  1  0
 15 51  1  0
 19 52  1  0
 20 53  1  0
 22 54  1  0
 25 55  1  0
 26 56  1  0
 30 57  1  0
 31 58  1  0
 32 59  1  0
 33 60  1  0
 34 61  1  0
M  END
>  <smiles>  (90) 
C[C@H](NC(=O)C1CCCCN1C(=O)CNC(=O)c1ccc2cc(Cl)ccc2n1)c1ccccc1

>  <score_type>  (90) 
oracle

>  <origin>  (90) 
autodockgpu

>  <m_score__min__energy>  (90) 
-9.6899999999999995

>  <m_primary>  (90) 
energy

>  <rmsd>  (90) 
3.851279066388659

>  <m_score__min__rmsd>  (90) 
3.851279066388659

>  <meeko>  (90) 
{"free_energy": -8.76, "intermolecular_energy": -10.85, "internal_energy": -2.85, "cluster_size": 3, "cluster_id": 2, "rank_in_cluster": 2}

>  <energy>  (90) 
-7.95

>  <cluster_rmsd>  (90) 
1.4

>  <cluster>  (90) 
8

$$$$

     RDKit          3D

 61 64  0  0  1  0  0  0  0  0999 V2000
  142.0020   73.2250  218.2150 C   0  0  0  0  0  0  0  0  0  0  0  0
  142.1450   73.2560  219.7260 C   0  0  2  0  0  0  0  0  0  0  0  0
  141.5970   74.4620  220.2660 N   0  0  0  0  0  0  0  0  0  0  0  0
  140.8340   74.4160  221.5000 C   0  0  0  0  0  0  0  0  0  0  0  0
  140.7210   73.2740  222.0000 O   0  0  0  0  0  0  0  0  0  0  0  0
  140.3060   75.6690  221.9910 C   0  0  1  0  0  0  0  0  0  0  0  0
  141.0460   76.9180  221.4690 C   0  0  0  0  0  0  0  0  0  0  0  0
  140.2110   78.1500  221.7700 C   0  0  0  0  0  0  0  0  0  0  0  0
  139.2740   77.9650  222.9440 C   0  0  0  0  0  0  0  0  0  0  0  0
  138.2850   76.8380  222.7590 C   0  0  0  0  0  0  0  0  0  0  0  0
  138.9220   75.9770  221.7280 N   0  0  0  0  0  0  0  0  0  0  0  0
  138.1620   75.5670  220.6190 C   0  0  0  0  0  0  0  0  0  0  0  0
  137.7970   76.2950  219.6640 O   0  0  0  0  0  0  0  0  0  0  0  0
  137.7330   74.1390  220.5430 C   0  0  0  0  0  0  0  0  0  0  0  0
  138.1760   73.4020  221.7240 N   0  0  0  0  0  0  0  0  0  0  0  0
  137.9510   71.9950  221.8410 C   0  0  0  0  0  0  0  0  0  0  0  0
  137.3640   71.3670  220.9260 O   0  0  0  0  0  0  0  0  0  0  0  0
  138.4150   71.3050  223.0420 C   0  0  0  0  0  0  0  0  0  0  0  0
  137.8860   70.0570  223.3470 C   0  0  0  0  0  0  0  0  0  0  0  0
  138.2880   69.3640  224.4650 C   0  0  0  0  0  0  0  0  0  0  0  0
  139.2330   69.9100  225.3020 C   0  0  0  0  0  0  0  0  0  0  0  0
  139.6100   69.1910  226.4070 C   0  0  0  0  0  0  0  0  0  0  0  0
  140.5720   69.7530  227.2520 C   0  0  0  0  0  0  0  0  0  0  0  0
  141.0400   68.8240  228.6550 Cl  0  0  0  0  0  0  0  0  0  0  0  0
  141.1030   70.9920  226.9560 C   0  0  0  0  0  0  0  0  0  0  0  0
  140.7010   71.6980  225.8270 C   0  0  0  0  0  0  0  0  0  0  0  0
  139.7490   71.1530  224.9820 C   0  0  0  0  0  0  0  0  0  0  0  0
  139.3400   71.8270  223.8700 N   0  0  0  0  0  0  0  0  0  0  0  0
  143.6240   73.2590  220.0100 C   0  0  0  0  0  0  0  0  0  0  0  0
  144.1590   74.4340  220.5320 C   0  0  0  0  0  0  0  0  0  0  0  0
  145.5060   74.5210  220.8210 C   0  0  0  0  0  0  0  0  0  0  0  0
  146.2980   73.4110  220.5780 C   0  0  0  0  0  0  0  0  0  0  0  0
  145.7640   72.2310  220.0550 C   0  0  0  0  0  0  0  0  0  0  0  0
  144.4130   72.1540  219.7690 C   0  0  0  0  0  0  0  0  0  0  0  0
  140.9586   72.9988  217.9500 H   0  0  0  0  0  0  0  0  0  0  0  0
  142.2816   74.2046  217.8001 H   0  0  0  0  0  0  0  0  0  0  0  0
  142.6621   72.4491  217.8001 H   0  0  0  0  0  0  0  0  0  0  0  0
  141.6201   72.3985  220.1724 H   0  0  0  0  0  0  0  0  0  0  0  0
  141.7560   75.3600  219.7590 H   0  0  0  0  0  0  0  0  0  0  0  0
  140.4492   75.4739  223.0640 H   0  0  0  0  0  0  0  0  0  0  0  0
  142.0225   77.0035  221.9682 H   0  0  0  0  0  0  0  0  0  0  0  0
  141.2015   76.8309  220.3835 H   0  0  0  0  0  0  0  0  0  0  0  0
  140.8900   78.9861  221.9934 H   0  0  0  0  0  0  0  0  0  0  0  0
  139.5891   78.3469  220.8843 H   0  0  0  0  0  0  0  0  0  0  0  0
  139.8768   77.7547  223.8398 H   0  0  0  0  0  0  0  0  0  0  0  0
  138.6906   78.8927  223.0394 H   0  0  0  0  0  0  0  0  0  0  0  0
  138.1410   76.2841  223.6984 H   0  0  0  0  0  0  0  0  0  0  0  0
  137.2864   77.1911  222.4623 H   0  0  0  0  0  0  0  0  0  0  0  0
  136.6357   74.0947  220.4806 H   0  0  0  0  0  0  0  0  0  0  0  0
  138.1854   73.6814  219.6509 H   0  0  0  0  0  0  0  0  0  0  0  0
  138.6760   73.8830  222.5230 H   0  0  0  0  0  0  0  0  0  0  0  0
  137.1306   69.6143  222.6811 H   0  0  0  0  0  0  0  0  0  0  0  0
  137.8557   68.3776  224.6887 H   0  0  0  0  0  0  0  0  0  0  0  0
  139.1706   68.2056  226.6214 H   0  0  0  0  0  0  0  0  0  0  0  0
  141.8583   71.4294  227.6255 H   0  0  0  0  0  0  0  0  0  0  0  0
  141.1369   72.6836  225.6067 H   0  0  0  0  0  0  0  0  0  0  0  0
  143.5039   75.2985  220.7152 H   0  0  0  0  0  0  0  0  0  0  0  0
  145.9379   75.4452  221.2324 H   0  0  0  0  0  0  0  0  0  0  0  0
  147.3738   73.4599  220.8024 H   0  0  0  0  0  0  0  0  0  0  0  0
  146.4166   71.3648  219.8710 H   0  0  0  0  0  0  0  0  0  0  0  0
  143.9773   71.2313  219.3582 H   0  0  0  0  0  0  0  0  0  0  0  0
  1  2  1  0
  2  3  1  0
  3  4  1  0
  4  5  2  0
  4  6  1  0
  6  7  1  0
  7  8  1  0
  8  9  1  0
  9 10  1  0
 10 11  1  0
 11 12  1  0
 12 13  2  0
 12 14  1  0
 14 15  1  0
 15 16  1  0
 16 17  2  0
 16 18  1  0
 18 19  2  0
 19 20  1  0
 20 21  2  0
 21 22  1  0
 22 23  2  0
 23 24  1  0
 23 25  1  0
 25 26  2  0
 26 27  1  0
 27 28  2  0
  2 29  1  0
 29 30  2  0
 30 31  1  0
 31 32  2  0
 32 33  1  0
 33 34  2  0
 11  6  1  0
 28 18  1  0
 34 29  1  0
 27 21  1  0
  1 35  1  0
  1 36  1  0
  1 37  1  0
  2 38  1  1
  3 39  1  0
  6 40  1  1
  7 41  1  0
  7 42  1  0
  8 43  1  0
  8 44  1  0
  9 45  1  0
  9 46  1  0
 10 47  1  0
 10 48  1  0
 14 49  1  0
 14 50  1  0
 15 51  1  0
 19 52  1  0
 20 53  1  0
 22 54  1  0
 25 55  1  0
 26 56  1  0
 30 57  1  0
 31 58  1  0
 32 59  1  0
 33 60  1  0
 34 61  1  0
M  END
>  <smiles>  (91) 
C[C@H](NC(=O)C1CCCCN1C(=O)CNC(=O)c1ccc2cc(Cl)ccc2n1)c1ccccc1

>  <score_type>  (91) 
oracle

>  <origin>  (91) 
autodockgpu

>  <m_score__min__energy>  (91) 
-9.6899999999999995

>  <m_primary>  (91) 
energy

>  <rmsd>  (91) 
5.6470760600001615

>  <m_score__min__rmsd>  (91) 
5.6470760600001615

>  <meeko>  (91) 
{"free_energy": -8.19, "intermolecular_energy": -10.28, "internal_energy": -3.03, "cluster_size": 7, "cluster_id": 8, "rank_in_cluster": 4}

>  <energy>  (91) 
-6.34

>  <cluster_rmsd>  (91) 
1.54

>  <cluster>  (91) 
8

$$$$

     RDKit          3D

 61 64  0  0  1  0  0  0  0  0999 V2000
  142.2880   79.5710  223.1110 C   0  0  0  0  0  0  0  0  0  0  0  0
  141.4090   78.3350  223.0550 C   0  0  2  0  0  0  0  0  0  0  0  0
  141.5680   77.6510  221.8080 N   0  0  0  0  0  0  0  0  0  0  0  0
  141.2840   78.3450  220.5650 C   0  0  0  0  0  0  0  0  0  0  0  0
  140.9090   79.5320  220.7060 O   0  0  0  0  0  0  0  0  0  0  0  0
  141.4630   77.5970  219.3410 C   0  0  1  0  0  0  0  0  0  0  0  0
  142.9330   77.4540  218.8930 C   0  0  0  0  0  0  0  0  0  0  0  0
  143.0200   76.3870  217.8160 C   0  0  0  0  0  0  0  0  0  0  0  0
  141.7240   76.1960  217.0580 C   0  0  0  0  0  0  0  0  0  0  0  0
  140.5620   75.7930  217.9350 C   0  0  0  0  0  0  0  0  0  0  0  0
  140.9740   76.2420  219.2920 N   0  0  0  0  0  0  0  0  0  0  0  0
  140.8750   75.3400  220.3660 C   0  0  0  0  0  0  0  0  0  0  0  0
  141.8220   74.6880  220.8710 O   0  0  0  0  0  0  0  0  0  0  0  0
  139.5350   75.1150  220.9810 C   0  0  0  0  0  0  0  0  0  0  0  0
  139.6290   74.1760  222.0970 N   0  0  0  0  0  0  0  0  0  0  0  0
  139.8370   72.7810  221.8670 C   0  0  0  0  0  0  0  0  0  0  0  0
  139.9410   72.3360  220.6980 O   0  0  0  0  0  0  0  0  0  0  0  0
  139.9240   71.8830  223.0180 C   0  0  0  0  0  0  0  0  0  0  0  0
  139.4790   70.5740  222.8840 C   0  0  0  0  0  0  0  0  0  0  0  0
  139.5390   69.6880  223.9350 C   0  0  0  0  0  0  0  0  0  0  0  0
  140.0500   70.1000  225.1450 C   0  0  0  0  0  0  0  0  0  0  0  0
  140.0950   69.1900  226.1700 C   0  0  0  0  0  0  0  0  0  0  0  0
  140.6160   69.6160  227.3950 C   0  0  0  0  0  0  0  0  0  0  0  0
  140.6650   68.4440  228.6900 Cl  0  0  0  0  0  0  0  0  0  0  0  0
  141.0610   70.9140  227.5350 C   0  0  0  0  0  0  0  0  0  0  0  0
  141.0030   71.8150  226.4770 C   0  0  0  0  0  0  0  0  0  0  0  0
  140.4890   71.4060  225.2580 C   0  0  0  0  0  0  0  0  0  0  0  0
  140.4230   72.2720  224.2070 N   0  0  0  0  0  0  0  0  0  0  0  0
  139.9860   78.8240  223.1290 C   0  0  0  0  0  0  0  0  0  0  0  0
  138.9970   77.9420  222.7010 C   0  0  0  0  0  0  0  0  0  0  0  0
  137.6680   78.3120  222.7370 C   0  0  0  0  0  0  0  0  0  0  0  0
  137.3550   79.5760  223.2080 C   0  0  0  0  0  0  0  0  0  0  0  0
  138.3450   80.4630  223.6380 C   0  0  0  0  0  0  0  0  0  0  0  0
  139.6750   80.0830  223.5990 C   0  0  0  0  0  0  0  0  0  0  0  0
  142.4782   79.8384  224.1609 H   0  0  0  0  0  0  0  0  0  0  0  0
  143.2434   79.3647  222.6063 H   0  0  0  0  0  0  0  0  0  0  0  0
  141.7795   80.4057  222.6063 H   0  0  0  0  0  0  0  0  0  0  0  0
  141.6735   77.6474  223.8718 H   0  0  0  0  0  0  0  0  0  0  0  0
  141.8870   76.6580  221.8140 H   0  0  0  0  0  0  0  0  0  0  0  0
  140.8527   78.2396  218.6894 H   0  0  0  0  0  0  0  0  0  0  0  0
  143.2912   78.4134  218.4915 H   0  0  0  0  0  0  0  0  0  0  0  0
  143.5571   77.1667  219.7521 H   0  0  0  0  0  0  0  0  0  0  0  0
  143.8039   76.6760  217.1004 H   0  0  0  0  0  0  0  0  0  0  0  0
  143.2480   75.4349  218.3176 H   0  0  0  0  0  0  0  0  0  0  0  0
  141.4706   77.1430  216.5590 H   0  0  0  0  0  0  0  0  0  0  0  0
  141.8872   75.3759  216.3433 H   0  0  0  0  0  0  0  0  0  0  0  0
  139.6376   76.2981  217.6183 H   0  0  0  0  0  0  0  0  0  0  0  0
  140.3462   74.7154  217.8891 H   0  0  0  0  0  0  0  0  0  0  0  0
  139.1409   76.0740  221.3484 H   0  0  0  0  0  0  0  0  0  0  0  0
  138.8632   74.6924  220.2194 H   0  0  0  0  0  0  0  0  0  0  0  0
  139.5480   74.4980  223.1010 H   0  0  0  0  0  0  0  0  0  0  0  0
  139.0707   70.2392  221.9190 H   0  0  0  0  0  0  0  0  0  0  0  0
  139.1805   68.6557  223.8090 H   0  0  0  0  0  0  0  0  0  0  0  0
  139.7335   68.1602  226.0328 H   0  0  0  0  0  0  0  0  0  0  0  0
  141.4696   71.2429  228.5019 H   0  0  0  0  0  0  0  0  0  0  0  0
  141.3632   72.8461  226.6078 H   0  0  0  0  0  0  0  0  0  0  0  0
  139.2768   76.9443  222.3320 H   0  0  0  0  0  0  0  0  0  0  0  0
  136.8796   77.6224  222.4011 H   0  0  0  0  0  0  0  0  0  0  0  0
  136.3012   79.8893  223.2445 H   0  0  0  0  0  0  0  0  0  0  0  0
  138.0678   81.4615  224.0069 H   0  0  0  0  0  0  0  0  0  0  0  0
  140.4662   80.7693  223.9351 H   0  0  0  0  0  0  0  0  0  0  0  0
  1  2  1  0
  2  3  1  0
  3  4  1  0
  4  5  2  0
  4  6  1  0
  6  7  1  0
  7  8  1  0
  8  9  1  0
  9 10  1  0
 10 11  1  0
 11 12  1  0
 12 13  2  0
 12 14  1  0
 14 15  1  0
 15 16  1  0
 16 17  2  0
 16 18  1  0
 18 19  2  0
 19 20  1  0
 20 21  2  0
 21 22  1  0
 22 23  2  0
 23 24  1  0
 23 25  1  0
 25 26  2  0
 26 27  1  0
 27 28  2  0
  2 29  1  0
 29 30  2  0
 30 31  1  0
 31 32  2  0
 32 33  1  0
 33 34  2  0
 11  6  1  0
 28 18  1  0
 34 29  1  0
 27 21  1  0
  1 35  1  0
  1 36  1  0
  1 37  1  0
  2 38  1  1
  3 39  1  0
  6 40  1  6
  7 41  1  0
  7 42  1  0
  8 43  1  0
  8 44  1  0
  9 45  1  0
  9 46  1  0
 10 47  1  0
 10 48  1  0
 14 49  1  0
 14 50  1  0
 15 51  1  0
 19 52  1  0
 20 53  1  0
 22 54  1  0
 25 55  1  0
 26 56  1  0
 30 57  1  0
 31 58  1  0
 32 59  1  0
 33 60  1  0
 34 61  1  0
M  END
>  <smiles>  (92) 
C[C@H](NC(=O)C1CCCCN1C(=O)CNC(=O)c1ccc2cc(Cl)ccc2n1)c1ccccc1

>  <score_type>  (92) 
oracle

>  <origin>  (92) 
autodockgpu

>  <m_score__min__energy>  (92) 
-9.6899999999999995

>  <m_primary>  (92) 
energy

>  <rmsd>  (92) 
2.364913334785667

>  <m_score__min__rmsd>  (92) 
2.364913334785667

>  <meeko>  (92) 
{"free_energy": -9.03, "intermolecular_energy": -11.12, "internal_energy": -2.64, "cluster_size": 1, "cluster_id": 3, "rank_in_cluster": 1}

>  <energy>  (92) 
-8.32

>  <cluster_rmsd>  (92) 
0.0

>  <cluster>  (92) 
9

$$$$

     RDKit          3D

 61 64  0  0  1  0  0  0  0  0999 V2000
  138.4810   79.3900  221.8540 C   0  0  0  0  0  0  0  0  0  0  0  0
  139.8370   79.5010  221.1810 C   0  0  2  0  0  0  0  0  0  0  0  0
  140.2370   78.2450  220.6250 N   0  0  0  0  0  0  0  0  0  0  0  0
  141.4950   78.1430  219.9090 C   0  0  0  0  0  0  0  0  0  0  0  0
  142.1440   79.2110  219.8410 O   0  0  0  0  0  0  0  0  0  0  0  0
  141.8400   76.8450  219.3710 C   0  0  1  0  0  0  0  0  0  0  0  0
  143.2720   76.3790  219.7050 C   0  0  0  0  0  0  0  0  0  0  0  0
  143.3970   74.8990  219.3900 C   0  0  0  0  0  0  0  0  0  0  0  0
  142.4140   74.4270  218.3400 C   0  0  0  0  0  0  0  0  0  0  0  0
  140.9680   74.6400  218.7240 C   0  0  0  0  0  0  0  0  0  0  0  0
  141.0320   75.7130  219.7520 N   0  0  0  0  0  0  0  0  0  0  0  0
  140.3460   75.5350  220.9650 C   0  0  0  0  0  0  0  0  0  0  0  0
  140.6720   76.0190  222.0760 O   0  0  0  0  0  0  0  0  0  0  0  0
  139.1120   74.6950  220.9640 C   0  0  0  0  0  0  0  0  0  0  0  0
  139.1440   73.7280  222.0580 N   0  0  0  0  0  0  0  0  0  0  0  0
  140.2470   72.8320  222.2150 C   0  0  0  0  0  0  0  0  0  0  0  0
  141.2100   72.8610  221.4110 O   0  0  0  0  0  0  0  0  0  0  0  0
  140.2300   71.8830  223.3260 C   0  0  0  0  0  0  0  0  0  0  0  0
  139.7020   70.6150  223.1200 C   0  0  0  0  0  0  0  0  0  0  0  0
  139.6630   69.6830  224.1310 C   0  0  0  0  0  0  0  0  0  0  0  0
  140.1560   70.0060  225.3740 C   0  0  0  0  0  0  0  0  0  0  0  0
  140.1010   69.0530  226.3590 C   0  0  0  0  0  0  0  0  0  0  0  0
  140.6050   69.3890  227.6190 C   0  0  0  0  0  0  0  0  0  0  0  0
  140.5270   68.1630  228.8610 Cl  0  0  0  0  0  0  0  0  0  0  0  0
  141.1320   70.6460  227.8310 C   0  0  0  0  0  0  0  0  0  0  0  0
  141.1750   71.5930  226.8130 C   0  0  0  0  0  0  0  0  0  0  0  0
  140.6790   71.2730  225.5610 C   0  0  0  0  0  0  0  0  0  0  0  0
  140.7110   72.1850  224.5480 N   0  0  0  0  0  0  0  0  0  0  0  0
  140.8200   79.8540  222.2670 C   0  0  0  0  0  0  0  0  0  0  0  0
  141.2560   81.1760  222.3120 C   0  0  0  0  0  0  0  0  0  0  0  0
  142.1560   81.5820  223.2760 C   0  0  0  0  0  0  0  0  0  0  0  0
  142.6070   80.6400  224.1860 C   0  0  0  0  0  0  0  0  0  0  0  0
  142.1710   79.3140  224.1430 C   0  0  0  0  0  0  0  0  0  0  0  0
  141.2680   78.9160  223.1730 C   0  0  0  0  0  0  0  0  0  0  0  0
  138.6117   79.4007  222.9462 H   0  0  0  0  0  0  0  0  0  0  0  0
  137.8510   80.2396  221.5518 H   0  0  0  0  0  0  0  0  0  0  0  0
  137.9976   78.4493  221.5518 H   0  0  0  0  0  0  0  0  0  0  0  0
  139.7968   80.2471  220.3738 H   0  0  0  0  0  0  0  0  0  0  0  0
  139.6110   77.4190  220.7450 H   0  0  0  0  0  0  0  0  0  0  0  0
  141.6786   77.0816  218.3090 H   0  0  0  0  0  0  0  0  0  0  0  0
  143.9948   76.9469  219.1008 H   0  0  0  0  0  0  0  0  0  0  0  0
  143.4790   76.5504  220.7717 H   0  0  0  0  0  0  0  0  0  0  0  0
  144.4168   74.7039  219.0268 H   0  0  0  0  0  0  0  0  0  0  0  0
  143.1753   74.3482  220.3160 H   0  0  0  0  0  0  0  0  0  0  0  0
  142.6106   74.9768  217.4078 H   0  0  0  0  0  0  0  0  0  0  0  0
  142.5605   73.3428  218.2259 H   0  0  0  0  0  0  0  0  0  0  0  0
  140.3749   74.9631  217.8558 H   0  0  0  0  0  0  0  0  0  0  0  0
  140.4850   73.7233  219.0933 H   0  0  0  0  0  0  0  0  0  0  0  0
  138.2327   75.3452  221.0826 H   0  0  0  0  0  0  0  0  0  0  0  0
  139.0573   74.1485  220.0109 H   0  0  0  0  0  0  0  0  0  0  0  0
  138.3590   73.6610  222.7630 H   0  0  0  0  0  0  0  0  0  0  0  0
  139.3069   70.3506  222.1280 H   0  0  0  0  0  0  0  0  0  0  0  0
  139.2398   68.6846  223.9465 H   0  0  0  0  0  0  0  0  0  0  0  0
  139.6747   68.0579  226.1641 H   0  0  0  0  0  0  0  0  0  0  0  0
  141.5261   70.9047  228.8249 H   0  0  0  0  0  0  0  0  0  0  0  0
  141.6004   72.5897  227.0017 H   0  0  0  0  0  0  0  0  0  0  0  0
  140.8806   81.9008  221.5746 H   0  0  0  0  0  0  0  0  0  0  0  0
  142.5054   82.6241  223.3206 H   0  0  0  0  0  0  0  0  0  0  0  0
  143.3259   80.9438  224.9612 H   0  0  0  0  0  0  0  0  0  0  0  0
  142.5448   78.5871  224.8791 H   0  0  0  0  0  0  0  0  0  0  0  0
  140.9156   77.8751  223.1257 H   0  0  0  0  0  0  0  0  0  0  0  0
  1  2  1  0
  2  3  1  0
  3  4  1  0
  4  5  2  0
  4  6  1  0
  6  7  1  0
  7  8  1  0
  8  9  1  0
  9 10  1  0
 10 11  1  0
 11 12  1  0
 12 13  2  0
 12 14  1  0
 14 15  1  0
 15 16  1  0
 16 17  2  0
 16 18  1  0
 18 19  2  0
 19 20  1  0
 20 21  2  0
 21 22  1  0
 22 23  2  0
 23 24  1  0
 23 25  1  0
 25 26  2  0
 26 27  1  0
 27 28  2  0
  2 29  1  0
 29 30  2  0
 30 31  1  0
 31 32  2  0
 32 33  1  0
 33 34  2  0
 11  6  1  0
 28 18  1  0
 34 29  1  0
 27 21  1  0
  1 35  1  0
  1 36  1  0
  1 37  1  0
  2 38  1  6
  3 39  1  0
  6 40  1  6
  7 41  1  0
  7 42  1  0
  8 43  1  0
  8 44  1  0
  9 45  1  0
  9 46  1  0
 10 47  1  0
 10 48  1  0
 14 49  1  0
 14 50  1  0
 15 51  1  0
 19 52  1  0
 20 53  1  0
 22 54  1  0
 25 55  1  0
 26 56  1  0
 30 57  1  0
 31 58  1  0
 32 59  1  0
 33 60  1  0
 34 61  1  0
M  END
>  <smiles>  (93) 
C[C@H](NC(=O)C1CCCCN1C(=O)CNC(=O)c1ccc2cc(Cl)ccc2n1)c1ccccc1

>  <score_type>  (93) 
oracle

>  <origin>  (93) 
autodockgpu

>  <m_score__min__energy>  (93) 
-9.6899999999999995

>  <m_primary>  (93) 
energy

>  <rmsd>  (93) 
2.938300766848421

>  <m_score__min__rmsd>  (93) 
2.938300766848421

>  <meeko>  (93) 
{"free_energy": -9.04, "intermolecular_energy": -11.12, "internal_energy": -2.49, "cluster_size": 14, "cluster_id": 1, "rank_in_cluster": 7}

>  <energy>  (93) 
-8.21

>  <cluster_rmsd>  (93) 
0.0

>  <cluster>  (93) 
10

$$$$

     RDKit          3D

 61 64  0  0  1  0  0  0  0  0999 V2000
  140.3140   71.8820  223.6080 C   0  0  0  0  0  0  0  0  0  0  0  0
  139.7070   70.6790  224.3070 C   0  0  2  0  0  0  0  0  0  0  0  0
  138.2790   70.7700  224.3350 N   0  0  0  0  0  0  0  0  0  0  0  0
  137.4780   69.5720  224.1600 C   0  0  0  0  0  0  0  0  0  0  0  0
  138.1400   68.5230  223.9940 O   0  0  0  0  0  0  0  0  0  0  0  0
  136.0420   69.7340  224.1970 C   0  0  1  0  0  0  0  0  0  0  0  0
  135.4440   69.7740  225.6190 C   0  0  0  0  0  0  0  0  0  0  0  0
  134.0140   70.2790  225.5410 C   0  0  0  0  0  0  0  0  0  0  0  0
  133.3670   70.0350  224.1940 C   0  0  0  0  0  0  0  0  0  0  0  0
  134.0940   70.6920  223.0440 C   0  0  0  0  0  0  0  0  0  0  0  0
  135.4700   70.8990  223.5700 N   0  0  0  0  0  0  0  0  0  0  0  0
  136.0660   72.1650  223.4360 C   0  0  0  0  0  0  0  0  0  0  0  0
  136.0510   73.0820  224.2930 O   0  0  0  0  0  0  0  0  0  0  0  0
  136.7890   72.4760  222.1690 C   0  0  0  0  0  0  0  0  0  0  0  0
  137.5690   73.7040  222.3070 N   0  0  0  0  0  0  0  0  0  0  0  0
  138.6980   73.9570  221.4670 C   0  0  0  0  0  0  0  0  0  0  0  0
  139.0400   73.1240  220.5930 O   0  0  0  0  0  0  0  0  0  0  0  0
  139.4440   75.2010  221.6450 C   0  0  0  0  0  0  0  0  0  0  0  0
  140.7130   75.3090  221.0920 C   0  0  0  0  0  0  0  0  0  0  0  0
  141.4580   76.4570  221.2300 C   0  0  0  0  0  0  0  0  0  0  0  0
  140.9410   77.5250  221.9270 C   0  0  0  0  0  0  0  0  0  0  0  0
  141.7120   78.6530  222.0440 C   0  0  0  0  0  0  0  0  0  0  0  0
  141.1790   79.7330  222.7540 C   0  0  0  0  0  0  0  0  0  0  0  0
  142.1740   81.1620  222.8940 Cl  0  0  0  0  0  0  0  0  0  0  0  0
  139.9190   79.6340  223.3070 C   0  0  0  0  0  0  0  0  0  0  0  0
  139.1600   78.4760  223.1710 C   0  0  0  0  0  0  0  0  0  0  0  0
  139.6760   77.3990  222.4700 C   0  0  0  0  0  0  0  0  0  0  0  0
  138.9500   76.2540  222.3250 N   0  0  0  0  0  0  0  0  0  0  0  0
  140.1960   70.7260  225.7300 C   0  0  0  0  0  0  0  0  0  0  0  0
  140.0930   69.5480  226.4670 C   0  0  0  0  0  0  0  0  0  0  0  0
  140.5180   69.5060  227.7800 C   0  0  0  0  0  0  0  0  0  0  0  0
  141.0450   70.6620  228.3320 C   0  0  0  0  0  0  0  0  0  0  0  0
  141.1490   71.8440  227.5960 C   0  0  0  0  0  0  0  0  0  0  0  0
  140.7200   71.8760  226.2810 C   0  0  0  0  0  0  0  0  0  0  0  0
  140.6757   72.5989  224.3598 H   0  0  0  0  0  0  0  0  0  0  0  0
  141.1549   71.5548  222.9789 H   0  0  0  0  0  0  0  0  0  0  0  0
  139.5512   72.3640  222.9789 H   0  0  0  0  0  0  0  0  0  0  0  0
  139.9913   69.7552  223.7819 H   0  0  0  0  0  0  0  0  0  0  0  0
  137.8360   71.7030  224.4810 H   0  0  0  0  0  0  0  0  0  0  0  0
  135.7813   68.8332  223.6221 H   0  0  0  0  0  0  0  0  0  0  0  0
  135.4547   68.7629  226.0520 H   0  0  0  0  0  0  0  0  0  0  0  0
  136.0407   70.4455  226.2539 H   0  0  0  0  0  0  0  0  0  0  0  0
  133.4199   69.7665  226.3120 H   0  0  0  0  0  0  0  0  0  0  0  0
  134.0432   71.3675  225.6968 H   0  0  0  0  0  0  0  0  0  0  0  0
  133.3393   68.9503  224.0132 H   0  0  0  0  0  0  0  0  0  0  0  0
  132.3614   70.4791  224.2348 H   0  0  0  0  0  0  0  0  0  0  0  0
  134.1059   70.0359  222.1612 H   0  0  0  0  0  0  0  0  0  0  0  0
  133.6172   71.6277  222.7166 H   0  0  0  0  0  0  0  0  0  0  0  0
  137.4660   71.6437  221.9260 H   0  0  0  0  0  0  0  0  0  0  0  0
  136.0506   72.6147  221.3656 H   0  0  0  0  0  0  0  0  0  0  0  0
  137.3240   74.4390  223.0260 H   0  0  0  0  0  0  0  0  0  0  0  0
  141.1310   74.4593  220.5322 H   0  0  0  0  0  0  0  0  0  0  0  0
  142.4621   76.5211  220.7854 H   0  0  0  0  0  0  0  0  0  0  0  0
  142.7148   78.7062  221.5949 H   0  0  0  0  0  0  0  0  0  0  0  0
  139.5066   80.4869  223.8661 H   0  0  0  0  0  0  0  0  0  0  0  0
  138.1565   78.4163  223.6175 H   0  0  0  0  0  0  0  0  0  0  0  0
  139.6706   68.6461  226.0000 H   0  0  0  0  0  0  0  0  0  0  0  0
  140.4404   68.5813  228.3706 H   0  0  0  0  0  0  0  0  0  0  0  0
  141.3902   70.6485  229.3763 H   0  0  0  0  0  0  0  0  0  0  0  0
  141.5709   72.7475  228.0605 H   0  0  0  0  0  0  0  0  0  0  0  0
  140.7954   72.7993  225.6878 H   0  0  0  0  0  0  0  0  0  0  0  0
  1  2  1  0
  2  3  1  0
  3  4  1  0
  4  5  2  0
  4  6  1  0
  6  7  1  0
  7  8  1  0
  8  9  1  0
  9 10  1  0
 10 11  1  0
 11 12  1  0
 12 13  2  0
 12 14  1  0
 14 15  1  0
 15 16  1  0
 16 17  2  0
 16 18  1  0
 18 19  2  0
 19 20  1  0
 20 21  2  0
 21 22  1  0
 22 23  2  0
 23 24  1  0
 23 25  1  0
 25 26  2  0
 26 27  1  0
 27 28  2  0
  2 29  1  0
 29 30  2  0
 30 31  1  0
 31 32  2  0
 32 33  1  0
 33 34  2  0
 11  6  1  0
 28 18  1  0
 34 29  1  0
 27 21  1  0
  1 35  1  0
  1 36  1  0
  1 37  1  0
  2 38  1  6
  3 39  1  0
  6 40  1  6
  7 41  1  0
  7 42  1  0
  8 43  1  0
  8 44  1  0
  9 45  1  0
  9 46  1  0
 10 47  1  0
 10 48  1  0
 14 49  1  0
 14 50  1  0
 15 51  1  0
 19 52  1  0
 20 53  1  0
 22 54  1  0
 25 55  1  0
 26 56  1  0
 30 57  1  0
 31 58  1  0
 32 59  1  0
 33 60  1  0
 34 61  1  0
M  END
>  <smiles>  (94) 
C[C@H](NC(=O)C1CCCCN1C(=O)CNC(=O)c1ccc2cc(Cl)ccc2n1)c1ccccc1

>  <score_type>  (94) 
oracle

>  <origin>  (94) 
autodockgpu

>  <m_score__min__energy>  (94) 
-9.6899999999999995

>  <m_primary>  (94) 
energy

>  <rmsd>  (94) 
9.438915556157626

>  <m_score__min__rmsd>  (94) 
9.438915556157626

>  <meeko>  (94) 
{"free_energy": -8.68, "intermolecular_energy": -10.77, "internal_energy": -3.36, "cluster_size": 6, "cluster_id": 5, "rank_in_cluster": 3}

>  <energy>  (94) 
-7.48

>  <cluster_rmsd>  (94) 
0.0

>  <cluster>  (94) 
11

$$$$

     RDKit          3D

 61 64  0  0  1  0  0  0  0  0999 V2000
  142.3790   80.0060  222.7460 C   0  0  0  0  0  0  0  0  0  0  0  0
  141.6550   78.6830  222.9140 C   0  0  2  0  0  0  0  0  0  0  0  0
  141.7780   77.8800  221.7370 N   0  0  0  0  0  0  0  0  0  0  0  0
  141.3320   78.4050  220.4580 C   0  0  0  0  0  0  0  0  0  0  0  0
  140.8610   79.5630  220.5080 O   0  0  0  0  0  0  0  0  0  0  0  0
  141.4830   77.5420  219.3080 C   0  0  1  0  0  0  0  0  0  0  0  0
  142.9410   77.3620  218.8350 C   0  0  0  0  0  0  0  0  0  0  0  0
  143.0060   76.1960  217.8640 C   0  0  0  0  0  0  0  0  0  0  0  0
  141.6910   75.9280  217.1650 C   0  0  0  0  0  0  0  0  0  0  0  0
  140.5560   75.6070  218.1080 C   0  0  0  0  0  0  0  0  0  0  0  0
  141.0010   76.1860  219.4040 N   0  0  0  0  0  0  0  0  0  0  0  0
  140.9380   75.3930  220.5610 C   0  0  0  0  0  0  0  0  0  0  0  0
  141.8340   75.2880  221.4350 O   0  0  0  0  0  0  0  0  0  0  0  0
  139.7060   74.5860  220.8010 C   0  0  0  0  0  0  0  0  0  0  0  0
  139.8980   73.6690  221.9220 N   0  0  0  0  0  0  0  0  0  0  0  0
  139.1800   72.4340  221.9930 C   0  0  0  0  0  0  0  0  0  0  0  0
  138.3670   72.1180  221.0900 O   0  0  0  0  0  0  0  0  0  0  0  0
  139.4080   71.5520  223.1350 C   0  0  0  0  0  0  0  0  0  0  0  0
  138.9420   70.2440  223.0780 C   0  0  0  0  0  0  0  0  0  0  0  0
  139.1300   69.3720  224.1250 C   0  0  0  0  0  0  0  0  0  0  0  0
  139.7950   69.7950  225.2530 C   0  0  0  0  0  0  0  0  0  0  0  0
  139.9650   68.8980  226.2770 C   0  0  0  0  0  0  0  0  0  0  0  0
  140.6410   69.3360  227.4190 C   0  0  0  0  0  0  0  0  0  0  0  0
  140.8490   68.1820  228.7130 Cl  0  0  0  0  0  0  0  0  0  0  0  0
  141.1080   70.6330  227.4830 C   0  0  0  0  0  0  0  0  0  0  0  0
  140.9210   71.5210  226.4280 C   0  0  0  0  0  0  0  0  0  0  0  0
  140.2520   71.0990  225.2910 C   0  0  0  0  0  0  0  0  0  0  0  0
  140.0570   71.9520  224.2450 N   0  0  0  0  0  0  0  0  0  0  0  0
  140.1970   79.0180  223.0890 C   0  0  0  0  0  0  0  0  0  0  0  0
  139.2810   78.0230  222.7540 C   0  0  0  0  0  0  0  0  0  0  0  0
  137.9250   78.2490  222.8840 C   0  0  0  0  0  0  0  0  0  0  0  0
  137.5120   79.4840  223.3550 C   0  0  0  0  0  0  0  0  0  0  0  0
  138.4280   80.4830  223.6920 C   0  0  0  0  0  0  0  0  0  0  0  0
  139.7850   80.2480  223.5580 C   0  0  0  0  0  0  0  0  0  0  0  0
  142.6091   80.4264  223.7361 H   0  0  0  0  0  0  0  0  0  0  0  0
  143.3143   79.8442  222.1901 H   0  0  0  0  0  0  0  0  0  0  0  0
  141.7385   80.7065  222.1901 H   0  0  0  0  0  0  0  0  0  0  0  0
  142.0766   78.1283  223.7652 H   0  0  0  0  0  0  0  0  0  0  0  0
  142.1880   76.9240  221.8180 H   0  0  0  0  0  0  0  0  0  0  0  0
  140.8511   78.1161  218.6144 H   0  0  0  0  0  0  0  0  0  0  0  0
  143.2816   78.2795  218.3328 H   0  0  0  0  0  0  0  0  0  0  0  0
  143.5901   77.1615  219.7002 H   0  0  0  0  0  0  0  0  0  0  0  0
  143.7680   76.4175  217.1022 H   0  0  0  0  0  0  0  0  0  0  0  0
  143.2545   75.2977  218.4482 H   0  0  0  0  0  0  0  0  0  0  0  0
  141.4179   76.8216  216.5846 H   0  0  0  0  0  0  0  0  0  0  0  0
  141.8399   75.0432  216.5287 H   0  0  0  0  0  0  0  0  0  0  0  0
  139.6202   76.0757  217.7696 H   0  0  0  0  0  0  0  0  0  0  0  0
  140.3463   74.5291  218.1719 H   0  0  0  0  0  0  0  0  0  0  0  0
  138.8695   75.2633  221.0280 H   0  0  0  0  0  0  0  0  0  0  0  0
  139.4874   73.9981  219.8973 H   0  0  0  0  0  0  0  0  0  0  0  0
  140.5700   73.8870  222.7080 H   0  0  0  0  0  0  0  0  0  0  0  0
  138.4123   69.8992  222.1777 H   0  0  0  0  0  0  0  0  0  0  0  0
  138.7506   68.3415  224.0609 H   0  0  0  0  0  0  0  0  0  0  0  0
  139.5824   67.8694  226.2017 H   0  0  0  0  0  0  0  0  0  0  0  0
  141.6383   70.9715  228.3854 H   0  0  0  0  0  0  0  0  0  0  0  0
  141.3018   72.5507  226.4965 H   0  0  0  0  0  0  0  0  0  0  0  0
  139.6402   77.0515  222.3837 H   0  0  0  0  0  0  0  0  0  0  0  0
  137.1939   77.4704  222.6210 H   0  0  0  0  0  0  0  0  0  0  0  0
  136.4359   79.6831  223.4665 H   0  0  0  0  0  0  0  0  0  0  0  0
  138.0712   81.4550  224.0633 H   0  0  0  0  0  0  0  0  0  0  0  0
  140.5187   81.0246  223.8196 H   0  0  0  0  0  0  0  0  0  0  0  0
  1  2  1  0
  2  3  1  0
  3  4  1  0
  4  5  2  0
  4  6  1  0
  6  7  1  0
  7  8  1  0
  8  9  1  0
  9 10  1  0
 10 11  1  0
 11 12  1  0
 12 13  2  0
 12 14  1  0
 14 15  1  0
 15 16  1  0
 16 17  2  0
 16 18  1  0
 18 19  2  0
 19 20  1  0
 20 21  2  0
 21 22  1  0
 22 23  2  0
 23 24  1  0
 23 25  1  0
 25 26  2  0
 26 27  1  0
 27 28  2  0
  2 29  1  0
 29 30  2  0
 30 31  1  0
 31 32  2  0
 32 33  1  0
 33 34  2  0
 11  6  1  0
 28 18  1  0
 34 29  1  0
 27 21  1  0
  1 35  1  0
  1 36  1  0
  1 37  1  0
  2 38  1  1
  3 39  1  0
  6 40  1  6
  7 41  1  0
  7 42  1  0
  8 43  1  0
  8 44  1  0
  9 45  1  0
  9 46  1  0
 10 47  1  0
 10 48  1  0
 14 49  1  0
 14 50  1  0
 15 51  1  0
 19 52  1  0
 20 53  1  0
 22 54  1  0
 25 55  1  0
 26 56  1  0
 30 57  1  0
 31 58  1  0
 32 59  1  0
 33 60  1  0
 34 61  1  0
M  END
>  <smiles>  (95) 
C[C@H](NC(=O)C1CCCCN1C(=O)CNC(=O)c1ccc2cc(Cl)ccc2n1)c1ccccc1

>  <score_type>  (95) 
oracle

>  <origin>  (95) 
autodockgpu

>  <m_score__min__energy>  (95) 
-9.6899999999999995

>  <m_primary>  (95) 
energy

>  <rmsd>  (95) 
2.2866163287553656

>  <m_score__min__rmsd>  (95) 
2.2866163287553656

>  <meeko>  (95) 
{"free_energy": -8.45, "intermolecular_energy": -10.54, "internal_energy": -3.12, "cluster_size": 14, "cluster_id": 1, "rank_in_cluster": 10}

>  <energy>  (95) 
-7.08

>  <cluster_rmsd>  (95) 
1.68

>  <cluster>  (95) 
11

$$$$

     RDKit          3D

 61 64  0  0  1  0  0  0  0  0999 V2000
  141.7050   72.3290  218.9240 C   0  0  0  0  0  0  0  0  0  0  0  0
  142.0750   72.7690  220.3290 C   0  0  2  0  0  0  0  0  0  0  0  0
  141.5080   74.0480  220.6300 N   0  0  0  0  0  0  0  0  0  0  0  0
  140.6270   74.1930  221.7740 C   0  0  0  0  0  0  0  0  0  0  0  0
  140.4360   73.1380  222.4210 O   0  0  0  0  0  0  0  0  0  0  0  0
  140.0860   75.5100  222.0220 C   0  0  1  0  0  0  0  0  0  0  0  0
  140.8510   76.6530  221.3230 C   0  0  0  0  0  0  0  0  0  0  0  0
  140.0100   77.9170  221.3750 C   0  0  0  0  0  0  0  0  0  0  0  0
  139.0280   77.9330  222.5260 C   0  0  0  0  0  0  0  0  0  0  0  0
  138.0410   76.7890  222.4980 C   0  0  0  0  0  0  0  0  0  0  0  0
  138.7150   75.7650  221.6560 N   0  0  0  0  0  0  0  0  0  0  0  0
  137.9960   75.1690  220.6060 C   0  0  0  0  0  0  0  0  0  0  0  0
  138.0330   75.5120  219.3980 O   0  0  0  0  0  0  0  0  0  0  0  0
  137.0970   74.0210  220.9240 C   0  0  0  0  0  0  0  0  0  0  0  0
  137.6480   73.2210  222.0150 N   0  0  0  0  0  0  0  0  0  0  0  0
  137.2770   71.8500  222.1810 C   0  0  0  0  0  0  0  0  0  0  0  0
  136.4680   71.3090  221.3880 O   0  0  0  0  0  0  0  0  0  0  0  0
  137.8560   71.0930  223.2890 C   0  0  0  0  0  0  0  0  0  0  0  0
  137.2260   69.9280  223.7090 C   0  0  0  0  0  0  0  0  0  0  0  0
  137.7280   69.1780  224.7470 C   0  0  0  0  0  0  0  0  0  0  0  0
  138.8790   69.5820  225.3840 C   0  0  0  0  0  0  0  0  0  0  0  0
  139.3510   68.8090  226.4140 C   0  0  0  0  0  0  0  0  0  0  0  0
  140.5210   69.2270  227.0570 C   0  0  0  0  0  0  0  0  0  0  0  0
  141.1090   68.2310  228.3660 Cl  0  0  0  0  0  0  0  0  0  0  0  0
  141.1530   70.3820  226.6450 C   0  0  0  0  0  0  0  0  0  0  0  0
  140.6500   71.1450  225.5960 C   0  0  0  0  0  0  0  0  0  0  0  0
  139.4930   70.7430  224.9520 C   0  0  0  0  0  0  0  0  0  0  0  0
  138.9820   71.4760  223.9220 N   0  0  0  0  0  0  0  0  0  0  0  0
  143.5740   72.9200  220.3440 C   0  0  0  0  0  0  0  0  0  0  0  0
  144.3160   71.8340  219.8840 C   0  0  0  0  0  0  0  0  0  0  0  0
  145.6960   71.8900  219.8640 C   0  0  0  0  0  0  0  0  0  0  0  0
  146.3080   73.0490  220.3120 C   0  0  0  0  0  0  0  0  0  0  0  0
  145.5660   74.1380  220.7730 C   0  0  0  0  0  0  0  0  0  0  0  0
  144.1840   74.0730  220.7890 C   0  0  0  0  0  0  0  0  0  0  0  0
  140.9979   71.4881  218.9774 H   0  0  0  0  0  0  0  0  0  0  0  0
  141.2371   73.1681  218.3883 H   0  0  0  0  0  0  0  0  0  0  0  0
  142.6119   72.0120  218.3883 H   0  0  0  0  0  0  0  0  0  0  0  0
  141.7059   72.0368  221.0623 H   0  0  0  0  0  0  0  0  0  0  0  0
  141.7390   74.8590  220.0160 H   0  0  0  0  0  0  0  0  0  0  0  0
  140.1867   75.5020  223.1174 H   0  0  0  0  0  0  0  0  0  0  0  0
  141.8075   76.8253  221.8381 H   0  0  0  0  0  0  0  0  0  0  0  0
  141.0482   76.3813  220.2755 H   0  0  0  0  0  0  0  0  0  0  0  0
  140.6832   78.7808  221.4779 H   0  0  0  0  0  0  0  0  0  0  0  0
  139.4240   77.9581  220.4450 H   0  0  0  0  0  0  0  0  0  0  0  0
  139.5950   77.8796  223.4671 H   0  0  0  0  0  0  0  0  0  0  0  0
  138.4458   78.8622  222.4391 H   0  0  0  0  0  0  0  0  0  0  0  0
  137.8570   76.4043  223.5120 H   0  0  0  0  0  0  0  0  0  0  0  0
  137.0565   77.0838  222.1057 H   0  0  0  0  0  0  0  0  0  0  0  0
  136.1105   74.4064  221.2212 H   0  0  0  0  0  0  0  0  0  0  0  0
  137.0050   73.3856  220.0308 H   0  0  0  0  0  0  0  0  0  0  0  0
  138.3330   73.6270  222.7100 H   0  0  0  0  0  0  0  0  0  0  0  0
  136.3074   69.5989  223.2012 H   0  0  0  0  0  0  0  0  0  0  0  0
  137.2123   68.2603  225.0662 H   0  0  0  0  0  0  0  0  0  0  0  0
  138.8278   67.8923  226.7237 H   0  0  0  0  0  0  0  0  0  0  0  0
  142.0720   70.7058  227.1555 H   0  0  0  0  0  0  0  0  0  0  0  0
  141.1688   72.0622  225.2804 H   0  0  0  0  0  0  0  0  0  0  0  0
  143.8001   70.9273  219.5350 H   0  0  0  0  0  0  0  0  0  0  0  0
  146.2917   71.0388  219.5027 H   0  0  0  0  0  0  0  0  0  0  0  0
  147.4061   73.1130  220.3044 H   0  0  0  0  0  0  0  0  0  0  0  0
  146.0791   75.0460  221.1228 H   0  0  0  0  0  0  0  0  0  0  0  0
  143.5854   74.9228  221.1489 H   0  0  0  0  0  0  0  0  0  0  0  0
  1  2  1  0
  2  3  1  0
  3  4  1  0
  4  5  2  0
  4  6  1  0
  6  7  1  0
  7  8  1  0
  8  9  1  0
  9 10  1  0
 10 11  1  0
 11 12  1  0
 12 13  2  0
 12 14  1  0
 14 15  1  0
 15 16  1  0
 16 17  2  0
 16 18  1  0
 18 19  2  0
 19 20  1  0
 20 21  2  0
 21 22  1  0
 22 23  2  0
 23 24  1  0
 23 25  1  0
 25 26  2  0
 26 27  1  0
 27 28  2  0
  2 29  1  0
 29 30  2  0
 30 31  1  0
 31 32  2  0
 32 33  1  0
 33 34  2  0
 11  6  1  0
 28 18  1  0
 34 29  1  0
 27 21  1  0
  1 35  1  0
  1 36  1  0
  1 37  1  0
  2 38  1  1
  3 39  1  0
  6 40  1  1
  7 41  1  0
  7 42  1  0
  8 43  1  0
  8 44  1  0
  9 45  1  0
  9 46  1  0
 10 47  1  0
 10 48  1  0
 14 49  1  0
 14 50  1  0
 15 51  1  0
 19 52  1  0
 20 53  1  0
 22 54  1  0
 25 55  1  0
 26 56  1  0
 30 57  1  0
 31 58  1  0
 32 59  1  0
 33 60  1  0
 34 61  1  0
M  END
>  <smiles>  (96) 
C[C@H](NC(=O)C1CCCCN1C(=O)CNC(=O)c1ccc2cc(Cl)ccc2n1)c1ccccc1

>  <score_type>  (96) 
oracle

>  <origin>  (96) 
autodockgpu

>  <m_score__min__energy>  (96) 
-9.6899999999999995

>  <m_primary>  (96) 
energy

>  <rmsd>  (96) 
5.727533244713052

>  <m_score__min__rmsd>  (96) 
5.727533244713052

>  <meeko>  (96) 
{"free_energy": -8.38, "intermolecular_energy": -10.47, "internal_energy": -3.17, "cluster_size": 7, "cluster_id": 8, "rank_in_cluster": 1}

>  <energy>  (96) 
-7.48

>  <cluster_rmsd>  (96) 
0.0

>  <cluster>  (96) 
12

$$$$

     RDKit          3D

 61 64  0  0  1  0  0  0  0  0999 V2000
  142.6870   80.4980  222.5370 C   0  0  0  0  0  0  0  0  0  0  0  0
  141.7890   79.3700  223.0100 C   0  0  2  0  0  0  0  0  0  0  0  0
  141.8270   78.2700  222.0960 N   0  0  0  0  0  0  0  0  0  0  0  0
  141.5290   78.4900  220.6920 C   0  0  0  0  0  0  0  0  0  0  0  0
  141.2540   79.6750  220.3980 O   0  0  0  0  0  0  0  0  0  0  0  0
  141.5840   77.3360  219.8220 C   0  0  1  0  0  0  0  0  0  0  0  0
  142.8960   76.5290  219.9180 C   0  0  0  0  0  0  0  0  0  0  0  0
  142.7030   75.1870  219.2350 C   0  0  0  0  0  0  0  0  0  0  0  0
  141.6190   75.2050  218.1790 C   0  0  0  0  0  0  0  0  0  0  0  0
  140.2580   75.5880  218.7120 C   0  0  0  0  0  0  0  0  0  0  0  0
  140.5680   76.3230  219.9680 N   0  0  0  0  0  0  0  0  0  0  0  0
  139.8880   75.9720  221.1460 C   0  0  0  0  0  0  0  0  0  0  0  0
  140.1040   76.4400  222.2910 O   0  0  0  0  0  0  0  0  0  0  0  0
  138.8030   74.9500  221.0610 C   0  0  0  0  0  0  0  0  0  0  0  0
  138.9290   73.9720  222.1390 N   0  0  0  0  0  0  0  0  0  0  0  0
  139.8200   72.8600  222.0230 C   0  0  0  0  0  0  0  0  0  0  0  0
  140.5110   72.7040  220.9860 O   0  0  0  0  0  0  0  0  0  0  0  0
  139.9090   71.9100  223.1290 C   0  0  0  0  0  0  0  0  0  0  0  0
  139.4780   70.6040  222.9310 C   0  0  0  0  0  0  0  0  0  0  0  0
  139.5400   69.6700  223.9390 C   0  0  0  0  0  0  0  0  0  0  0  0
  140.0390   70.0280  225.1700 C   0  0  0  0  0  0  0  0  0  0  0  0
  140.0860   69.0710  226.1510 C   0  0  0  0  0  0  0  0  0  0  0  0
  140.5940   69.4430  227.3990 C   0  0  0  0  0  0  0  0  0  0  0  0
  140.6470   68.2120  228.6370 Cl  0  0  0  0  0  0  0  0  0  0  0  0
  141.0240   70.7380  227.6040 C   0  0  0  0  0  0  0  0  0  0  0  0
  140.9640   71.6880  226.5890 C   0  0  0  0  0  0  0  0  0  0  0  0
  140.4630   71.3320  225.3490 C   0  0  0  0  0  0  0  0  0  0  0  0
  140.3950   72.2470  224.3400 N   0  0  0  0  0  0  0  0  0  0  0  0
  140.3860   79.9180  223.0070 C   0  0  0  0  0  0  0  0  0  0  0  0
  139.3750   79.0540  223.4220 C   0  0  0  0  0  0  0  0  0  0  0  0
  138.0610   79.4770  223.4490 C   0  0  0  0  0  0  0  0  0  0  0  0
  137.7860   80.7760  223.0530 C   0  0  0  0  0  0  0  0  0  0  0  0
  138.7980   81.6440  222.6370 C   0  0  0  0  0  0  0  0  0  0  0  0
  140.1120   81.2110  222.6130 C   0  0  0  0  0  0  0  0  0  0  0  0
  143.1053   81.0235  223.4081 H   0  0  0  0  0  0  0  0  0  0  0  0
  143.5060   80.0847  221.9300 H   0  0  0  0  0  0  0  0  0  0  0  0
  142.1006   81.2035  221.9300 H   0  0  0  0  0  0  0  0  0  0  0  0
  142.1145   79.0183  224.0001 H   0  0  0  0  0  0  0  0  0  0  0  0
  142.0690   77.3220  222.4580 H   0  0  0  0  0  0  0  0  0  0  0  0
  141.4500   77.8685  218.8689 H   0  0  0  0  0  0  0  0  0  0  0  0
  143.7064   77.0824  219.4210 H   0  0  0  0  0  0  0  0  0  0  0  0
  143.1596   76.3733  220.9745 H   0  0  0  0  0  0  0  0  0  0  0  0
  143.6511   74.8982  218.7577 H   0  0  0  0  0  0  0  0  0  0  0  0
  142.3936   74.4685  220.0083 H   0  0  0  0  0  0  0  0  0  0  0  0
  141.9037   75.9290  217.4014 H   0  0  0  0  0  0  0  0  0  0  0  0
  141.5343   74.1804  217.7878 H   0  0  0  0  0  0  0  0  0  0  0  0
  139.7251   76.2350  217.9997 H   0  0  0  0  0  0  0  0  0  0  0  0
  139.6033   74.7194  218.8757 H   0  0  0  0  0  0  0  0  0  0  0  0
  137.8273   75.4517  221.1409 H   0  0  0  0  0  0  0  0  0  0  0  0
  138.8852   74.4264  220.0971 H   0  0  0  0  0  0  0  0  0  0  0  0
  138.3710   74.0560  223.0330 H   0  0  0  0  0  0  0  0  0  0  0  0
  139.0792   70.3111  221.9486 H   0  0  0  0  0  0  0  0  0  0  0  0
  139.1922   68.6416  223.7616 H   0  0  0  0  0  0  0  0  0  0  0  0
  139.7358   68.0454  225.9623 H   0  0  0  0  0  0  0  0  0  0  0  0
  141.4218   71.0249  228.5886 H   0  0  0  0  0  0  0  0  0  0  0  0
  141.3125   72.7153  226.7711 H   0  0  0  0  0  0  0  0  0  0  0  0
  139.6252   78.0281  223.7302 H   0  0  0  0  0  0  0  0  0  0  0  0
  137.2558   78.8023  223.7754 H   0  0  0  0  0  0  0  0  0  0  0  0
  136.7454   81.1323  223.0666 H   0  0  0  0  0  0  0  0  0  0  0  0
  138.5508   82.6706  222.3288 H   0  0  0  0  0  0  0  0  0  0  0  0
  140.9197   81.8828  222.2871 H   0  0  0  0  0  0  0  0  0  0  0  0
  1  2  1  0
  2  3  1  0
  3  4  1  0
  4  5  2  0
  4  6  1  0
  6  7  1  0
  7  8  1  0
  8  9  1  0
  9 10  1  0
 10 11  1  0
 11 12  1  0
 12 13  2  0
 12 14  1  0
 14 15  1  0
 15 16  1  0
 16 17  2  0
 16 18  1  0
 18 19  2  0
 19 20  1  0
 20 21  2  0
 21 22  1  0
 22 23  2  0
 23 24  1  0
 23 25  1  0
 25 26  2  0
 26 27  1  0
 27 28  2  0
  2 29  1  0
 29 30  2  0
 30 31  1  0
 31 32  2  0
 32 33  1  0
 33 34  2  0
 11  6  1  0
 28 18  1  0
 34 29  1  0
 27 21  1  0
  1 35  1  0
  1 36  1  0
  1 37  1  0
  2 38  1  1
  3 39  1  0
  6 40  1  6
  7 41  1  0
  7 42  1  0
  8 43  1  0
  8 44  1  0
  9 45  1  0
  9 46  1  0
 10 47  1  0
 10 48  1  0
 14 49  1  0
 14 50  1  0
 15 51  1  0
 19 52  1  0
 20 53  1  0
 22 54  1  0
 25 55  1  0
 26 56  1  0
 30 57  1  0
 31 58  1  0
 32 59  1  0
 33 60  1  0
 34 61  1  0
M  END
>  <smiles>  (97) 
C[C@H](NC(=O)C1CCCCN1C(=O)CNC(=O)c1ccc2cc(Cl)ccc2n1)c1ccccc1

>  <score_type>  (97) 
oracle

>  <origin>  (97) 
autodockgpu

>  <m_score__min__energy>  (97) 
-9.6899999999999995

>  <m_primary>  (97) 
energy

>  <rmsd>  (97) 
2.055255862800163

>  <m_score__min__rmsd>  (97) 
2.055255862800163

>  <meeko>  (97) 
{"free_energy": -9.22, "intermolecular_energy": -11.31, "internal_energy": -2.62, "cluster_size": 14, "cluster_id": 1, "rank_in_cluster": 6}

>  <energy>  (97) 
-6.28

>  <cluster_rmsd>  (97) 
1.84

>  <cluster>  (97) 
12

$$$$

     RDKit          3D

 61 64  0  0  1  0  0  0  0  0999 V2000
  138.4260   73.4130  220.4270 C   0  0  0  0  0  0  0  0  0  0  0  0
  139.6800   73.4840  221.2790 C   0  0  2  0  0  0  0  0  0  0  0  0
  139.5560   72.6600  222.4420 N   0  0  0  0  0  0  0  0  0  0  0  0
  140.0000   71.2780  222.3950 C   0  0  0  0  0  0  0  0  0  0  0  0
  140.4720   70.9210  221.2920 O   0  0  0  0  0  0  0  0  0  0  0  0
  139.8450   70.4990  223.6030 C   0  0  1  0  0  0  0  0  0  0  0  0
  140.4670   71.1440  224.8590 C   0  0  0  0  0  0  0  0  0  0  0  0
  139.9550   70.4200  226.0920 C   0  0  0  0  0  0  0  0  0  0  0  0
  139.5210   68.9970  225.8120 C   0  0  0  0  0  0  0  0  0  0  0  0
  138.4150   68.8900  224.7890 C   0  0  0  0  0  0  0  0  0  0  0  0
  138.5090   70.1670  224.0340 N   0  0  0  0  0  0  0  0  0  0  0  0
  137.3430   70.9240  223.8280 C   0  0  0  0  0  0  0  0  0  0  0  0
  137.2570   71.9780  223.1510 O   0  0  0  0  0  0  0  0  0  0  0  0
  136.0750   70.4570  224.4610 C   0  0  0  0  0  0  0  0  0  0  0  0
  135.3110   71.5880  224.9830 N   0  0  0  0  0  0  0  0  0  0  0  0
  134.3100   71.3980  225.9860 C   0  0  0  0  0  0  0  0  0  0  0  0
  134.0680   70.2510  226.4350 O   0  0  0  0  0  0  0  0  0  0  0  0
  133.5740   72.5620  226.4750 C   0  0  0  0  0  0  0  0  0  0  0  0
  132.3570   72.3670  227.1170 C   0  0  0  0  0  0  0  0  0  0  0  0
  131.6240   73.4270  227.5970 C   0  0  0  0  0  0  0  0  0  0  0  0
  132.1000   74.7090  227.4430 C   0  0  0  0  0  0  0  0  0  0  0  0
  131.3420   75.7420  227.9340 C   0  0  0  0  0  0  0  0  0  0  0  0
  131.8330   77.0420  227.7730 C   0  0  0  0  0  0  0  0  0  0  0  0
  130.8560   78.3450  228.4040 Cl  0  0  0  0  0  0  0  0  0  0  0  0
  133.0400   77.2430  227.1360 C   0  0  0  0  0  0  0  0  0  0  0  0
  133.7860   76.1750  226.6480 C   0  0  0  0  0  0  0  0  0  0  0  0
  133.3120   74.8840  226.8010 C   0  0  0  0  0  0  0  0  0  0  0  0
  134.0270   73.8220  226.3310 N   0  0  0  0  0  0  0  0  0  0  0  0
  139.7960   74.9130  221.7430 C   0  0  0  0  0  0  0  0  0  0  0  0
  138.6380   75.5050  222.2410 C   0  0  0  0  0  0  0  0  0  0  0  0
  138.6570   76.8110  222.6870 C   0  0  0  0  0  0  0  0  0  0  0  0
  139.8550   77.5050  222.6230 C   0  0  0  0  0  0  0  0  0  0  0  0
  141.0170   76.9130  222.1230 C   0  0  0  0  0  0  0  0  0  0  0  0
  140.9880   75.6030  221.6790 C   0  0  0  0  0  0  0  0  0  0  0  0
  137.5418   73.3629  221.0794 H   0  0  0  0  0  0  0  0  0  0  0  0
  138.3629   74.3090  219.7920 H   0  0  0  0  0  0  0  0  0  0  0  0
  138.4644   72.5156  219.7920 H   0  0  0  0  0  0  0  0  0  0  0  0
  140.5497   73.1453  220.6970 H   0  0  0  0  0  0  0  0  0  0  0  0
  139.1440   73.0690  223.3090 H   0  0  0  0  0  0  0  0  0  0  0  0
  140.3636   69.5926  223.2572 H   0  0  0  0  0  0  0  0  0  0  0  0
  141.5629   71.0617  224.8115 H   0  0  0  0  0  0  0  0  0  0  0  0
  140.1865   72.2065  224.9087 H   0  0  0  0  0  0  0  0  0  0  0  0
  140.7580   70.3989  226.8435 H   0  0  0  0  0  0  0  0  0  0  0  0
  139.0696   70.9673  226.4478 H   0  0  0  0  0  0  0  0  0  0  0  0
  140.3913   68.4347  225.4427 H   0  0  0  0  0  0  0  0  0  0  0  0
  139.1275   68.5894  226.7549 H   0  0  0  0  0  0  0  0  0  0  0  0
  138.5772   68.0285  224.1245 H   0  0  0  0  0  0  0  0  0  0  0  0
  137.4259   68.7360  225.2450 H   0  0  0  0  0  0  0  0  0  0  0  0
  135.4698   69.9284  223.7098 H   0  0  0  0  0  0  0  0  0  0  0  0
  136.3231   69.7832  225.2943 H   0  0  0  0  0  0  0  0  0  0  0  0
  135.4750   72.5740  224.6400 H   0  0  0  0  0  0  0  0  0  0  0  0
  131.9723   71.3443  227.2438 H   0  0  0  0  0  0  0  0  0  0  0  0
  130.6624   73.2511  228.1013 H   0  0  0  0  0  0  0  0  0  0  0  0
  130.3817   75.5544  228.4367 H   0  0  0  0  0  0  0  0  0  0  0  0
  133.4200   78.2677  227.0115 H   0  0  0  0  0  0  0  0  0  0  0  0
  134.7467   76.3557  226.1436 H   0  0  0  0  0  0  0  0  0  0  0  0
  137.7022   74.9280  222.2791 H   0  0  0  0  0  0  0  0  0  0  0  0
  137.7475   77.2874  223.0819 H   0  0  0  0  0  0  0  0  0  0  0  0
  139.8915   78.5467  222.9743 H   0  0  0  0  0  0  0  0  0  0  0  0
  141.9541   77.4876  222.0823 H   0  0  0  0  0  0  0  0  0  0  0  0
  141.8954   75.1228  221.2839 H   0  0  0  0  0  0  0  0  0  0  0  0
  1  2  1  0
  2  3  1  0
  3  4  1  0
  4  5  2  0
  4  6  1  0
  6  7  1  0
  7  8  1  0
  8  9  1  0
  9 10  1  0
 10 11  1  0
 11 12  1  0
 12 13  2  0
 12 14  1  0
 14 15  1  0
 15 16  1  0
 16 17  2  0
 16 18  1  0
 18 19  2  0
 19 20  1  0
 20 21  2  0
 21 22  1  0
 22 23  2  0
 23 24  1  0
 23 25  1  0
 25 26  2  0
 26 27  1  0
 27 28  2  0
  2 29  1  0
 29 30  2  0
 30 31  1  0
 31 32  2  0
 32 33  1  0
 33 34  2  0
 11  6  1  0
 28 18  1  0
 34 29  1  0
 27 21  1  0
  1 35  1  0
  1 36  1  0
  1 37  1  0
  2 38  1  6
  3 39  1  0
  6 40  1  6
  7 41  1  0
  7 42  1  0
  8 43  1  0
  8 44  1  0
  9 45  1  0
  9 46  1  0
 10 47  1  0
 10 48  1  0
 14 49  1  0
 14 50  1  0
 15 51  1  0
 19 52  1  0
 20 53  1  0
 22 54  1  0
 25 55  1  0
 26 56  1  0
 30 57  1  0
 31 58  1  0
 32 59  1  0
 33 60  1  0
 34 61  1  0
M  END
>  <smiles>  (98) 
C[C@H](NC(=O)C1CCCCN1C(=O)CNC(=O)c1ccc2cc(Cl)ccc2n1)c1ccccc1

>  <score_type>  (98) 
oracle

>  <origin>  (98) 
autodockgpu

>  <m_score__min__energy>  (98) 
-9.6899999999999995

>  <m_primary>  (98) 
energy

>  <rmsd>  (98) 
7.936278035100759

>  <m_score__min__rmsd>  (98) 
7.936278035100759

>  <meeko>  (98) 
{"free_energy": -8.21, "intermolecular_energy": -10.3, "internal_energy": -2.93, "cluster_size": 1, "cluster_id": 10, "rank_in_cluster": 1}

>  <energy>  (98) 
-6.96

>  <cluster_rmsd>  (98) 
0.0

>  <cluster>  (98) 
13

$$$$

     RDKit          3D

 61 64  0  0  1  0  0  0  0  0999 V2000
  143.4360   76.7070  217.5370 C   0  0  0  0  0  0  0  0  0  0  0  0
  142.9140   76.0490  218.8010 C   0  0  2  0  0  0  0  0  0  0  0  0
  142.9360   76.9640  219.9000 N   0  0  0  0  0  0  0  0  0  0  0  0
  141.7570   77.7560  220.2000 C   0  0  0  0  0  0  0  0  0  0  0  0
  140.7870   77.5560  219.4350 O   0  0  0  0  0  0  0  0  0  0  0  0
  141.8460   78.6630  221.3230 C   0  0  1  0  0  0  0  0  0  0  0  0
  141.6720   80.1510  220.9530 C   0  0  0  0  0  0  0  0  0  0  0  0
  141.4460   80.9540  222.2220 C   0  0  0  0  0  0  0  0  0  0  0  0
  142.0220   80.2940  223.4570 C   0  0  0  0  0  0  0  0  0  0  0  0
  141.4500   78.9230  223.7350 C   0  0  0  0  0  0  0  0  0  0  0  0
  140.9200   78.4890  222.4150 N   0  0  0  0  0  0  0  0  0  0  0  0
  139.6110   77.9840  222.3400 C   0  0  0  0  0  0  0  0  0  0  0  0
  138.5760   78.6510  222.0920 O   0  0  0  0  0  0  0  0  0  0  0  0
  139.3990   76.5260  222.5740 C   0  0  0  0  0  0  0  0  0  0  0  0
  139.9320   75.7410  221.4630 N   0  0  0  0  0  0  0  0  0  0  0  0
  140.1830   74.3410  221.6050 C   0  0  0  0  0  0  0  0  0  0  0  0
  139.9500   73.7600  222.6940 O   0  0  0  0  0  0  0  0  0  0  0  0
  140.7160   73.6010  220.4630 C   0  0  0  0  0  0  0  0  0  0  0  0
  141.3840   72.4040  220.6900 C   0  0  0  0  0  0  0  0  0  0  0  0
  141.9040   71.6680  219.6510 C   0  0  0  0  0  0  0  0  0  0  0  0
  141.7640   72.1200  218.3590 C   0  0  0  0  0  0  0  0  0  0  0  0
  142.2950   71.3600  217.3480 C   0  0  0  0  0  0  0  0  0  0  0  0
  142.1480   71.8260  216.0380 C   0  0  0  0  0  0  0  0  0  0  0  0
  142.8300   70.8470  214.7630 Cl  0  0  0  0  0  0  0  0  0  0  0  0
  141.4850   73.0140  215.8050 C   0  0  0  0  0  0  0  0  0  0  0  0
  140.9560   73.7630  216.8510 C   0  0  0  0  0  0  0  0  0  0  0  0
  141.0960   73.3130  218.1520 C   0  0  0  0  0  0  0  0  0  0  0  0
  140.5850   74.0310  219.1930 N   0  0  0  0  0  0  0  0  0  0  0  0
  143.8700   74.9290  219.1190 C   0  0  0  0  0  0  0  0  0  0  0  0
  144.1830   74.7360  220.4630 C   0  0  0  0  0  0  0  0  0  0  0  0
  145.0510   73.7310  220.8410 C   0  0  0  0  0  0  0  0  0  0  0  0
  145.5940   72.9310  219.8490 C   0  0  0  0  0  0  0  0  0  0  0  0
  145.2820   73.1230  218.5010 C   0  0  0  0  0  0  0  0  0  0  0  0
  144.4100   74.1320  218.1320 C   0  0  0  0  0  0  0  0  0  0  0  0
  144.0990   77.5427  217.8056 H   0  0  0  0  0  0  0  0  0  0  0  0
  143.9973   75.9694  216.9446 H   0  0  0  0  0  0  0  0  0  0  0  0
  142.5901   77.0858  216.9446 H   0  0  0  0  0  0  0  0  0  0  0  0
  141.8801   75.7059  218.6485 H   0  0  0  0  0  0  0  0  0  0  0  0
  143.8060   77.0470  220.4710 H   0  0  0  0  0  0  0  0  0  0  0  0
  142.8625   78.3934  221.6457 H   0  0  0  0  0  0  0  0  0  0  0  0
  142.5778   80.5127  220.4443 H   0  0  0  0  0  0  0  0  0  0  0  0
  140.8089   80.2679  220.2811 H   0  0  0  0  0  0  0  0  0  0  0  0
  141.9181   81.9400  222.1003 H   0  0  0  0  0  0  0  0  0  0  0  0
  140.3588   81.0314  222.3701 H   0  0  0  0  0  0  0  0  0  0  0  0
  143.1095   80.1962  223.3235 H   0  0  0  0  0  0  0  0  0  0  0  0
  141.7605   80.9317  224.3143 H   0  0  0  0  0  0  0  0  0  0  0  0
  142.2325   78.2357  224.0889 H   0  0  0  0  0  0  0  0  0  0  0  0
  140.6808   78.9330  224.5213 H   0  0  0  0  0  0  0  0  0  0  0  0
  139.9104   76.2313  223.5022 H   0  0  0  0  0  0  0  0  0  0  0  0
  138.3189   76.3347  222.6556 H   0  0  0  0  0  0  0  0  0  0  0  0
  140.1450   76.1810  220.5250 H   0  0  0  0  0  0  0  0  0  0  0  0
  141.4992   72.0378  221.7209 H   0  0  0  0  0  0  0  0  0  0  0  0
  142.4293   70.7226  219.8519 H   0  0  0  0  0  0  0  0  0  0  0  0
  142.8185   70.4162  217.5607 H   0  0  0  0  0  0  0  0  0  0  0  0
  141.3728   73.3755  214.7722 H   0  0  0  0  0  0  0  0  0  0  0  0
  140.4298   74.7068  216.6453 H   0  0  0  0  0  0  0  0  0  0  0  0
  143.7358   75.3883  221.2275 H   0  0  0  0  0  0  0  0  0  0  0  0
  145.3040   73.5702  221.8994 H   0  0  0  0  0  0  0  0  0  0  0  0
  146.2878   72.1249  220.1296 H   0  0  0  0  0  0  0  0  0  0  0  0
  145.7288   72.4732  217.7341 H   0  0  0  0  0  0  0  0  0  0  0  0
  144.1533   74.2946  217.0748 H   0  0  0  0  0  0  0  0  0  0  0  0
  1  2  1  0
  2  3  1  0
  3  4  1  0
  4  5  2  0
  4  6  1  0
  6  7  1  0
  7  8  1  0
  8  9  1  0
  9 10  1  0
 10 11  1  0
 11 12  1  0
 12 13  2  0
 12 14  1  0
 14 15  1  0
 15 16  1  0
 16 17  2  0
 16 18  1  0
 18 19  2  0
 19 20  1  0
 20 21  2  0
 21 22  1  0
 22 23  2  0
 23 24  1  0
 23 25  1  0
 25 26  2  0
 26 27  1  0
 27 28  2  0
  2 29  1  0
 29 30  2  0
 30 31  1  0
 31 32  2  0
 32 33  1  0
 33 34  2  0
 11  6  1  0
 28 18  1  0
 34 29  1  0
 27 21  1  0
  1 35  1  0
  1 36  1  0
  1 37  1  0
  2 38  1  6
  3 39  1  0
  6 40  1  1
  7 41  1  0
  7 42  1  0
  8 43  1  0
  8 44  1  0
  9 45  1  0
  9 46  1  0
 10 47  1  0
 10 48  1  0
 14 49  1  0
 14 50  1  0
 15 51  1  0
 19 52  1  0
 20 53  1  0
 22 54  1  0
 25 55  1  0
 26 56  1  0
 30 57  1  0
 31 58  1  0
 32 59  1  0
 33 60  1  0
 34 61  1  0
M  END
>  <smiles>  (99) 
C[C@H](NC(=O)C1CCCCN1C(=O)CNC(=O)c1ccc2cc(Cl)ccc2n1)c1ccccc1

>  <score_type>  (99) 
oracle

>  <origin>  (99) 
autodockgpu

>  <m_score__min__energy>  (99) 
-9.6899999999999995

>  <m_primary>  (99) 
energy

>  <rmsd>  (99) 
7.264886403204637

>  <m_score__min__rmsd>  (99) 
7.264886403204637

>  <meeko>  (99) 
{"free_energy": -6.01, "intermolecular_energy": -8.1, "internal_energy": -4.7, "cluster_size": 1, "cluster_id": 15, "rank_in_cluster": 1}

>  <energy>  (99) 
-6.64

>  <cluster_rmsd>  (99) 
0.0

>  <cluster>  (99) 
14

$$$$

     RDKit          3D

 61 64  0  0  1  0  0  0  0  0999 V2000
  141.6310   72.6720  218.4510 C   0  0  0  0  0  0  0  0  0  0  0  0
  141.7110   72.9120  219.9480 C   0  0  2  0  0  0  0  0  0  0  0  0
  140.9100   74.0340  220.3290 N   0  0  0  0  0  0  0  0  0  0  0  0
  140.4230   74.1410  221.6930 C   0  0  0  0  0  0  0  0  0  0  0  0
  140.7650   73.1990  222.4420 O   0  0  0  0  0  0  0  0  0  0  0  0
  139.6180   75.2990  222.0120 C   0  0  1  0  0  0  0  0  0  0  0  0
  140.0810   76.6030  221.3280 C   0  0  0  0  0  0  0  0  0  0  0  0
  138.9860   77.6470  221.4620 C   0  0  0  0  0  0  0  0  0  0  0  0
  138.0790   77.4120  222.6500 C   0  0  0  0  0  0  0  0  0  0  0  0
  137.3670   76.0800  222.6160 C   0  0  0  0  0  0  0  0  0  0  0  0
  138.2090   75.2550  221.7090 N   0  0  0  0  0  0  0  0  0  0  0  0
  137.5920   74.5460  220.6660 C   0  0  0  0  0  0  0  0  0  0  0  0
  137.1140   75.0430  219.6160 O   0  0  0  0  0  0  0  0  0  0  0  0
  137.4760   73.0630  220.7870 C   0  0  0  0  0  0  0  0  0  0  0  0
  138.1050   72.5950  222.0200 N   0  0  0  0  0  0  0  0  0  0  0  0
  138.2490   71.1980  222.2880 C   0  0  0  0  0  0  0  0  0  0  0  0
  137.8350   70.3460  221.4630 O   0  0  0  0  0  0  0  0  0  0  0  0
  138.8850   70.7820  223.5360 C   0  0  0  0  0  0  0  0  0  0  0  0
  139.6260   71.7110  224.2550 C   0  0  0  0  0  0  0  0  0  0  0  0
  140.2440   71.3720  225.4360 C   0  0  0  0  0  0  0  0  0  0  0  0
  140.1300   70.0890  225.9220 C   0  0  0  0  0  0  0  0  0  0  0  0
  140.7590   69.7870  227.1020 C   0  0  0  0  0  0  0  0  0  0  0  0
  140.6370   68.4820  227.5890 C   0  0  0  0  0  0  0  0  0  0  0  0
  141.4450   68.1140  229.0930 Cl  0  0  0  0  0  0  0  0  0  0  0  0
  139.9020   67.5540  226.8800 C   0  0  0  0  0  0  0  0  0  0  0  0
  139.2740   67.8900  225.6850 C   0  0  0  0  0  0  0  0  0  0  0  0
  139.3870   69.1790  225.1930 C   0  0  0  0  0  0  0  0  0  0  0  0
  138.7810   69.5300  224.0230 N   0  0  0  0  0  0  0  0  0  0  0  0
  143.1470   73.2530  220.2450 C   0  0  0  0  0  0  0  0  0  0  0  0
  143.4920   74.6020  220.2020 C   0  0  0  0  0  0  0  0  0  0  0  0
  144.7880   75.0010  220.4620 C   0  0  0  0  0  0  0  0  0  0  0  0
  145.7220   74.0240  220.7640 C   0  0  0  0  0  0  0  0  0  0  0  0
  145.3790   72.6710  220.8090 C   0  0  0  0  0  0  0  0  0  0  0  0
  144.0780   72.2810  220.5470 C   0  0  0  0  0  0  0  0  0  0  0  0
  141.2883   71.6439  218.2623 H   0  0  0  0  0  0  0  0  0  0  0  0
  140.9213   73.3831  218.0031 H   0  0  0  0  0  0  0  0  0  0  0  0
  142.6254   72.8151  218.0031 H   0  0  0  0  0  0  0  0  0  0  0  0
  141.3559   72.0242  220.4918 H   0  0  0  0  0  0  0  0  0  0  0  0
  140.6870   74.7610  219.6150 H   0  0  0  0  0  0  0  0  0  0  0  0
  139.7683   75.2823  223.1016 H   0  0  0  0  0  0  0  0  0  0  0  0
  140.9992   76.9674  221.8118 H   0  0  0  0  0  0  0  0  0  0  0  0
  140.2849   76.4126  220.2640 H   0  0  0  0  0  0  0  0  0  0  0  0
  139.4568   78.6350  221.5720 H   0  0  0  0  0  0  0  0  0  0  0  0
  138.3626   77.5840  220.5579 H   0  0  0  0  0  0  0  0  0  0  0  0
  138.6870   77.4576  223.5656 H   0  0  0  0  0  0  0  0  0  0  0  0
  137.3037   78.1919  222.6219 H   0  0  0  0  0  0  0  0  0  0  0  0
  137.3194   75.6346  223.6207 H   0  0  0  0  0  0  0  0  0  0  0  0
  136.3247   76.1617  222.2742 H   0  0  0  0  0  0  0  0  0  0  0  0
  136.4121   72.7835  220.7956 H   0  0  0  0  0  0  0  0  0  0  0  0
  137.9859   72.5972  219.9308 H   0  0  0  0  0  0  0  0  0  0  0  0
  138.4700   73.2690  222.7470 H   0  0  0  0  0  0  0  0  0  0  0  0
  139.7205   72.7380  223.8724 H   0  0  0  0  0  0  0  0  0  0  0  0
  140.8268   72.1227  225.9898 H   0  0  0  0  0  0  0  0  0  0  0  0
  141.3399   70.5455  227.6472 H   0  0  0  0  0  0  0  0  0  0  0  0
  139.8109   66.5285  227.2673 H   0  0  0  0  0  0  0  0  0  0  0  0
  138.6915   67.1364  225.1347 H   0  0  0  0  0  0  0  0  0  0  0  0
  142.7270   75.3542  219.9593 H   0  0  0  0  0  0  0  0  0  0  0  0
  145.0704   76.0637  220.4302 H   0  0  0  0  0  0  0  0  0  0  0  0
  146.7601   74.3212  220.9737 H   0  0  0  0  0  0  0  0  0  0  0  0
  146.1420   71.9169  221.0523 H   0  0  0  0  0  0  0  0  0  0  0  0
  143.7922   71.2193  220.5788 H   0  0  0  0  0  0  0  0  0  0  0  0
  1  2  1  0
  2  3  1  0
  3  4  1  0
  4  5  2  0
  4  6  1  0
  6  7  1  0
  7  8  1  0
  8  9  1  0
  9 10  1  0
 10 11  1  0
 11 12  1  0
 12 13  2  0
 12 14  1  0
 14 15  1  0
 15 16  1  0
 16 17  2  0
 16 18  1  0
 18 19  2  0
 19 20  1  0
 20 21  2  0
 21 22  1  0
 22 23  2  0
 23 24  1  0
 23 25  1  0
 25 26  2  0
 26 27  1  0
 27 28  2  0
  2 29  1  0
 29 30  2  0
 30 31  1  0
 31 32  2  0
 32 33  1  0
 33 34  2  0
 11  6  1  0
 28 18  1  0
 34 29  1  0
 27 21  1  0
  1 35  1  0
  1 36  1  0
  1 37  1  0
  2 38  1  1
  3 39  1  0
  6 40  1  1
  7 41  1  0
  7 42  1  0
  8 43  1  0
  8 44  1  0
  9 45  1  0
  9 46  1  0
 10 47  1  0
 10 48  1  0
 14 49  1  0
 14 50  1  0
 15 51  1  0
 19 52  1  0
 20 53  1  0
 22 54  1  0
 25 55  1  0
 26 56  1  0
 30 57  1  0
 31 58  1  0
 32 59  1  0
 33 60  1  0
 34 61  1  0
M  END
>  <smiles>  (100) 
C[C@H](NC(=O)C1CCCCN1C(=O)CNC(=O)c1ccc2cc(Cl)ccc2n1)c1ccccc1

>  <score_type>  (100) 
oracle

>  <origin>  (100) 
autodockgpu

>  <m_score__min__energy>  (100) 
-9.6899999999999995

>  <m_primary>  (100) 
energy

>  <rmsd>  (100) 
5.80011319155776

>  <m_score__min__rmsd>  (100) 
5.80011319155776

>  <meeko>  (100) 
{"free_energy": -8.28, "intermolecular_energy": -10.36, "internal_energy": -2.63, "cluster_size": 7, "cluster_id": 8, "rank_in_cluster": 3}

>  <energy>  (100) 
-6.01

>  <cluster_rmsd>  (100) 
0.0

>  <cluster>  (100) 
15

$$$$
