
     RDKit          3D

 58 61  0  0  0  0  0  0  0  0999 V2000
  141.7150   82.4050  218.5610 C   0  0  0  0  0  0  0  0  0  0  0  0
  140.9480   81.8780  219.7690 C   0  0  0  0  0  0  0  0  0  0  0  0
  141.8300   82.0090  220.9790 C   0  0  0  0  0  0  0  0  0  0  0  0
  140.5610   80.4530  219.5510 C   0  0  0  0  0  0  0  0  0  0  0  0
  141.3450   79.4740  220.1160 C   0  0  0  0  0  0  0  0  0  0  0  0
  140.9860   78.1630  219.9350 C   0  0  0  0  0  0  0  0  0  0  0  0
  141.7300   77.0720  220.4980 N   0  0  0  0  0  0  0  0  0  0  0  0
  142.3370   76.2030  219.5350 C   0  0  0  0  0  0  0  0  0  0  0  0
  142.2290   76.3780  218.2960 O   0  0  0  0  0  0  0  0  0  0  0  0
  143.1090   75.0740  220.0450 C   0  0  0  0  0  0  0  0  0  0  0  0
  144.4790   75.2320  220.0810 C   0  0  0  0  0  0  0  0  0  0  0  0
  145.2530   74.1950  220.5550 C   0  0  0  0  0  0  0  0  0  0  0  0
  144.7210   73.0030  220.9990 C   0  0  0  0  0  0  0  0  0  0  0  0
  143.3230   72.8870  220.9450 C   0  0  0  0  0  0  0  0  0  0  0  0
  142.5220   73.9040  220.4760 C   0  0  0  0  0  0  0  0  0  0  0  0
  141.0490   73.7160  220.4350 C   0  0  0  0  0  0  0  0  0  0  0  0
  140.5140   72.7440  219.8880 O   0  0  0  0  0  0  0  0  0  0  0  0
  140.2080   74.7050  221.0570 N   0  0  0  0  0  0  0  0  0  0  0  0
  138.7720   74.6260  221.0780 C   0  0  0  0  0  0  0  0  0  0  0  0
  138.1730   75.5970  222.0130 C   0  0  0  0  0  0  0  0  0  0  0  0
  137.0720   75.2460  222.5610 O   0  0  0  0  0  0  0  0  0  0  0  0
  138.6980   76.8950  222.3740 C   0  0  0  0  0  0  0  0  0  0  0  0
  137.8770   78.0140  222.4010 C   0  0  0  0  0  0  0  0  0  0  0  0
  138.3580   79.2660  222.7630 C   0  0  0  0  0  0  0  0  0  0  0  0
  139.6960   79.3930  223.1050 C   0  0  0  0  0  0  0  0  0  0  0  0
  140.2110   80.6210  223.4680 C   0  0  0  0  0  0  0  0  0  0  0  0
  141.5700   80.6530  223.7960 C   0  0  0  0  0  0  0  0  0  0  0  0
  142.1220   81.8510  224.1620 F   0  0  0  0  0  0  0  0  0  0  0  0
  142.3580   79.5240  223.7580 C   0  0  0  0  0  0  0  0  0  0  0  0
  141.8460   78.2990  223.3960 C   0  0  0  0  0  0  0  0  0  0  0  0
  140.4980   78.2610  223.0700 C   0  0  0  0  0  0  0  0  0  0  0  0
  139.9750   77.1060  222.7170 N   0  0  0  0  0  0  0  0  0  0  0  0
  139.8460   77.8650  219.1910 C   0  0  0  0  0  0  0  0  0  0  0  0
  139.0950   78.9030  218.6450 C   0  0  0  0  0  0  0  0  0  0  0  0
  139.4520   80.2010  218.8250 N   0  0  0  0  0  0  0  0  0  0  0  0
  142.5766   82.9970  218.9035 H   0  0  0  0  0  0  0  0  0  0  0  0
  142.0695   81.5588  217.9541 H   0  0  0  0  0  0  0  0  0  0  0  0
  141.0522   83.0393  217.9541 H   0  0  0  0  0  0  0  0  0  0  0  0
  140.0251   82.4580  219.9170 H   0  0  0  0  0  0  0  0  0  0  0  0
  141.2193   81.9183  221.8894 H   0  0  0  0  0  0  0  0  0  0  0  0
  142.5900   81.2139  220.9666 H   0  0  0  0  0  0  0  0  0  0  0  0
  142.3261   82.9907  220.9666 H   0  0  0  0  0  0  0  0  0  0  0  0
  142.2395   79.7368  220.6997 H   0  0  0  0  0  0  0  0  0  0  0  0
  141.8110   76.9430  221.5220 H   0  0  0  0  0  0  0  0  0  0  0  0
  144.9446   76.1677  219.7380 H   0  0  0  0  0  0  0  0  0  0  0  0
  146.3451   74.3241  220.5803 H   0  0  0  0  0  0  0  0  0  0  0  0
  145.3569   72.1879  221.3748 H   0  0  0  0  0  0  0  0  0  0  0  0
  142.8525   71.9539  221.2883 H   0  0  0  0  0  0  0  0  0  0  0  0
  140.7200   75.4820  221.5190 H   0  0  0  0  0  0  0  0  0  0  0  0
  138.3915   74.8280  220.0659 H   0  0  0  0  0  0  0  0  0  0  0  0
  138.4948   73.6168  221.4165 H   0  0  0  0  0  0  0  0  0  0  0  0
  136.8168   77.9065  222.1284 H   0  0  0  0  0  0  0  0  0  0  0  0
  137.6903   80.1400  222.7781 H   0  0  0  0  0  0  0  0  0  0  0  0
  139.5861   81.5258  223.4977 H   0  0  0  0  0  0  0  0  0  0  0  0
  143.4225   79.6034  224.0235 H   0  0  0  0  0  0  0  0  0  0  0  0
  142.4735   77.3960  223.3666 H   0  0  0  0  0  0  0  0  0  0  0  0
  139.5420   76.8192  219.0363 H   0  0  0  0  0  0  0  0  0  0  0  0
  138.1958   78.6672  218.0569 H   0  0  0  0  0  0  0  0  0  0  0  0
  1  2  1  0
  2  3  1  0
  2  4  1  0
  4  5  2  0
  5  6  1  0
  6  7  1  0
  7  8  1  0
  8  9  2  0
  8 10  1  0
 10 11  2  0
 11 12  1  0
 12 13  2  0
 13 14  1  0
 14 15  2  0
 15 16  1  0
 16 17  2  0
 16 18  1  0
 18 19  1  0
 19 20  1  0
 20 21  2  0
 20 22  1  0
 22 23  2  0
 23 24  1  0
 24 25  2  0
 25 26  1  0
 26 27  2  0
 27 28  1  0
 27 29  1  0
 29 30  2  0
 30 31  1  0
 31 32  2  0
  6 33  2  0
 33 34  1  0
 34 35  2  0
 35  4  1  0
 15 10  1  0
 32 22  1  0
 31 25  1  0
  1 36  1  0
  1 37  1  0
  1 38  1  0
  2 39  1  0
  3 40  1  0
  3 41  1  0
  3 42  1  0
  5 43  1  0
  7 44  1  0
 11 45  1  0
 12 46  1  0
 13 47  1  0
 14 48  1  0
 18 49  1  0
 19 50  1  0
 19 51  1  0
 23 52  1  0
 24 53  1  0
 26 54  1  0
 29 55  1  0
 30 56  1  0
 33 57  1  0
 34 58  1  0
M  END
>  <smiles>  (1) 
CC(C)c1cc(NC(=O)c2ccccc2C(=O)NCC(=O)c2ccc3cc(F)ccc3n2)ccn1

>  <score_type>  (1) 
oracle

>  <origin>  (1) 
autodockgpu

>  <m_score__min__energy>  (1) 
-9.8000000000000007

>  <m_primary>  (1) 
energy

>  <rmsd>  (1) 
7.3673615727030635

>  <m_score__min__rmsd>  (1) 
7.3673615727030635

>  <meeko>  (1) 
{"free_energy": -6.66, "intermolecular_energy": -8.74, "internal_energy": -4.57, "cluster_size": 11, "cluster_id": 8, "rank_in_cluster": 9}

>  <energy>  (1) 
-9.8

>  <cluster_rmsd>  (1) 
0.0

>  <cluster>  (1) 
1

$$$$

     RDKit          3D

 58 61  0  0  0  0  0  0  0  0999 V2000
  143.3100   69.7200  219.3650 C   0  0  0  0  0  0  0  0  0  0  0  0
  144.5150   70.4240  218.7510 C   0  0  0  0  0  0  0  0  0  0  0  0
  145.7260   69.5610  218.9730 C   0  0  0  0  0  0  0  0  0  0  0  0
  144.7020   71.7660  219.3790 C   0  0  0  0  0  0  0  0  0  0  0  0
  143.5980   72.3950  219.9070 C   0  0  0  0  0  0  0  0  0  0  0  0
  143.7650   73.6190  220.5020 C   0  0  0  0  0  0  0  0  0  0  0  0
  142.6780   74.3460  221.0940 N   0  0  0  0  0  0  0  0  0  0  0  0
  142.3660   75.5860  220.4480 C   0  0  0  0  0  0  0  0  0  0  0  0
  142.9900   76.0060  219.4430 O   0  0  0  0  0  0  0  0  0  0  0  0
  141.2680   76.3720  221.0030 C   0  0  0  0  0  0  0  0  0  0  0  0
  141.5320   77.7010  221.2610 C   0  0  0  0  0  0  0  0  0  0  0  0
  140.5290   78.4860  221.7850 C   0  0  0  0  0  0  0  0  0  0  0  0
  139.2680   78.0040  222.0650 C   0  0  0  0  0  0  0  0  0  0  0  0
  139.0440   76.6470  221.7860 C   0  0  0  0  0  0  0  0  0  0  0  0
  140.0260   75.8360  221.2620 C   0  0  0  0  0  0  0  0  0  0  0  0
  139.7280   74.4040  220.9990 C   0  0  0  0  0  0  0  0  0  0  0  0
  139.9480   73.8650  219.9070 O   0  0  0  0  0  0  0  0  0  0  0  0
  139.1600   73.6100  222.0560 N   0  0  0  0  0  0  0  0  0  0  0  0
  138.8310   72.2170  221.9140 C   0  0  0  0  0  0  0  0  0  0  0  0
  139.9040   71.3380  222.4150 C   0  0  0  0  0  0  0  0  0  0  0  0
  140.7000   70.8610  221.5340 O   0  0  0  0  0  0  0  0  0  0  0  0
  140.1490   70.9590  223.7880 C   0  0  0  0  0  0  0  0  0  0  0  0
  140.6940   71.8620  224.6910 C   0  0  0  0  0  0  0  0  0  0  0  0
  140.9200   71.5230  226.0190 C   0  0  0  0  0  0  0  0  0  0  0  0
  140.5900   70.2450  226.4470 C   0  0  0  0  0  0  0  0  0  0  0  0
  140.8010   69.8700  227.7590 C   0  0  0  0  0  0  0  0  0  0  0  0
  140.4390   68.5640  228.0980 C   0  0  0  0  0  0  0  0  0  0  0  0
  140.6310   68.1510  229.3900 F   0  0  0  0  0  0  0  0  0  0  0  0
  139.9000   67.6920  227.1780 C   0  0  0  0  0  0  0  0  0  0  0  0
  139.6890   68.0630  225.8700 C   0  0  0  0  0  0  0  0  0  0  0  0
  140.0470   69.3600  225.5270 C   0  0  0  0  0  0  0  0  0  0  0  0
  139.8600   69.7480  224.2840 N   0  0  0  0  0  0  0  0  0  0  0  0
  145.0380   74.1830  220.5540 C   0  0  0  0  0  0  0  0  0  0  0  0
  146.1150   73.4950  220.0010 C   0  0  0  0  0  0  0  0  0  0  0  0
  145.9470   72.2820  219.4120 N   0  0  0  0  0  0  0  0  0  0  0  0
  143.3808   69.7614  220.4619 H   0  0  0  0  0  0  0  0  0  0  0  0
  142.3868   70.2209  219.0380 H   0  0  0  0  0  0  0  0  0  0  0  0
  143.2930   68.6699  219.0380 H   0  0  0  0  0  0  0  0  0  0  0  0
  144.3592   70.5763  217.6728 H   0  0  0  0  0  0  0  0  0  0  0  0
  145.8966   69.4394  220.0529 H   0  0  0  0  0  0  0  0  0  0  0  0
  145.5624   68.5747  218.5143 H   0  0  0  0  0  0  0  0  0  0  0  0
  146.6049   70.0375  218.5143 H   0  0  0  0  0  0  0  0  0  0  0  0
  142.6042   71.9266  219.8530 H   0  0  0  0  0  0  0  0  0  0  0  0
  142.1710   73.9850  221.9220 H   0  0  0  0  0  0  0  0  0  0  0  0
  142.5249   78.1259  221.0522 H   0  0  0  0  0  0  0  0  0  0  0  0
  140.7437   79.5453  221.9893 H   0  0  0  0  0  0  0  0  0  0  0  0
  138.4807   78.6478  222.4841 H   0  0  0  0  0  0  0  0  0  0  0  0
  138.0526   76.2175  221.9924 H   0  0  0  0  0  0  0  0  0  0  0  0
  139.0240   74.1160  222.9540 H   0  0  0  0  0  0  0  0  0  0  0  0
  137.9107   72.0108  222.4801 H   0  0  0  0  0  0  0  0  0  0  0  0
  138.6964   72.0090  220.8423 H   0  0  0  0  0  0  0  0  0  0  0  0
  140.9539   72.8734  224.3453 H   0  0  0  0  0  0  0  0  0  0  0  0
  141.3524   72.2539  226.7181 H   0  0  0  0  0  0  0  0  0  0  0  0
  141.2310   70.5624  228.4976 H   0  0  0  0  0  0  0  0  0  0  0  0
  139.6317   66.6740  227.4969 H   0  0  0  0  0  0  0  0  0  0  0  0
  139.2588   67.3679  225.1339 H   0  0  0  0  0  0  0  0  0  0  0  0
  145.1910   75.1638  221.0280 H   0  0  0  0  0  0  0  0  0  0  0  0
  147.1196   73.9414  220.0417 H   0  0  0  0  0  0  0  0  0  0  0  0
  1  2  1  0
  2  3  1  0
  2  4  1  0
  4  5  2  0
  5  6  1  0
  6  7  1  0
  7  8  1  0
  8  9  2  0
  8 10  1  0
 10 11  2  0
 11 12  1  0
 12 13  2  0
 13 14  1  0
 14 15  2  0
 15 16  1  0
 16 17  2  0
 16 18  1  0
 18 19  1  0
 19 20  1  0
 20 21  2  0
 20 22  1  0
 22 23  2  0
 23 24  1  0
 24 25  2  0
 25 26  1  0
 26 27  2  0
 27 28  1  0
 27 29  1  0
 29 30  2  0
 30 31  1  0
 31 32  2  0
  6 33  2  0
 33 34  1  0
 34 35  2  0
 35  4  1  0
 15 10  1  0
 32 22  1  0
 31 25  1  0
  1 36  1  0
  1 37  1  0
  1 38  1  0
  2 39  1  0
  3 40  1  0
  3 41  1  0
  3 42  1  0
  5 43  1  0
  7 44  1  0
 11 45  1  0
 12 46  1  0
 13 47  1  0
 14 48  1  0
 18 49  1  0
 19 50  1  0
 19 51  1  0
 23 52  1  0
 24 53  1  0
 26 54  1  0
 29 55  1  0
 30 56  1  0
 33 57  1  0
 34 58  1  0
M  END
>  <smiles>  (2) 
CC(C)c1cc(NC(=O)c2ccccc2C(=O)NCC(=O)c2ccc3cc(F)ccc3n2)ccn1

>  <score_type>  (2) 
oracle

>  <origin>  (2) 
autodockgpu

>  <m_score__min__energy>  (2) 
-9.8000000000000007

>  <m_primary>  (2) 
energy

>  <rmsd>  (2) 
5.446745118418168

>  <m_score__min__rmsd>  (2) 
5.446745118418168

>  <meeko>  (2) 
{"free_energy": -9.29, "intermolecular_energy": -11.38, "internal_energy": -1.93, "cluster_size": 11, "cluster_id": 2, "rank_in_cluster": 3}

>  <energy>  (2) 
-9.4

>  <cluster_rmsd>  (2) 
1.01

>  <cluster>  (2) 
1

$$$$

     RDKit          3D

 58 61  0  0  0  0  0  0  0  0999 V2000
  140.6890   81.7560  222.1110 C   0  0  0  0  0  0  0  0  0  0  0  0
  140.6920   80.8340  223.3250 C   0  0  0  0  0  0  0  0  0  0  0  0
  142.1040   80.7270  223.8290 C   0  0  0  0  0  0  0  0  0  0  0  0
  140.1620   79.4890  222.9520 C   0  0  0  0  0  0  0  0  0  0  0  0
  141.0660   78.4860  222.6890 C   0  0  0  0  0  0  0  0  0  0  0  0
  140.5860   77.2430  222.3640 C   0  0  0  0  0  0  0  0  0  0  0  0
  141.4490   76.1290  222.0890 N   0  0  0  0  0  0  0  0  0  0  0  0
  141.7280   75.9180  220.6990 C   0  0  0  0  0  0  0  0  0  0  0  0
  141.2590   76.6470  219.7920 O   0  0  0  0  0  0  0  0  0  0  0  0
  142.6010   74.8000  220.3550 C   0  0  0  0  0  0  0  0  0  0  0  0
  143.9350   75.0960  220.1650 C   0  0  0  0  0  0  0  0  0  0  0  0
  144.8010   74.0750  219.8390 C   0  0  0  0  0  0  0  0  0  0  0  0
  144.3950   72.7650  219.6940 C   0  0  0  0  0  0  0  0  0  0  0  0
  143.0300   72.5090  219.8980 C   0  0  0  0  0  0  0  0  0  0  0  0
  142.1400   73.5080  220.2240 C   0  0  0  0  0  0  0  0  0  0  0  0
  140.7050   73.1740  220.4170 C   0  0  0  0  0  0  0  0  0  0  0  0
  139.9540   72.8810  219.4780 O   0  0  0  0  0  0  0  0  0  0  0  0
  140.1630   73.1930  221.7510 N   0  0  0  0  0  0  0  0  0  0  0  0
  138.7910   72.8890  222.0550 C   0  0  0  0  0  0  0  0  0  0  0  0
  138.6410   71.5690  222.6950 C   0  0  0  0  0  0  0  0  0  0  0  0
  137.8330   70.7550  222.1290 O   0  0  0  0  0  0  0  0  0  0  0  0
  139.3090   71.1000  223.8890 C   0  0  0  0  0  0  0  0  0  0  0  0
  140.2820   71.8690  224.5120 C   0  0  0  0  0  0  0  0  0  0  0  0
  140.9210   71.4440  225.6690 C   0  0  0  0  0  0  0  0  0  0  0  0
  140.5720   70.2160  226.2120 C   0  0  0  0  0  0  0  0  0  0  0  0
  141.1850   69.7580  227.3600 C   0  0  0  0  0  0  0  0  0  0  0  0
  140.7700   68.5100  227.8330 C   0  0  0  0  0  0  0  0  0  0  0  0
  141.3530   68.0190  228.9700 F   0  0  0  0  0  0  0  0  0  0  0  0
  139.8010   67.7710  227.1910 C   0  0  0  0  0  0  0  0  0  0  0  0
  139.1880   68.2250  226.0460 C   0  0  0  0  0  0  0  0  0  0  0  0
  139.5960   69.4640  225.5720 C   0  0  0  0  0  0  0  0  0  0  0  0
  139.0320   69.9290  224.4780 N   0  0  0  0  0  0  0  0  0  0  0  0
  139.2100   77.0370  222.3090 C   0  0  0  0  0  0  0  0  0  0  0  0
  138.3470   78.0950  222.5850 C   0  0  0  0  0  0  0  0  0  0  0  0
  138.8240   79.3250  222.9080 N   0  0  0  0  0  0  0  0  0  0  0  0
  140.6856   82.8037  222.4462 H   0  0  0  0  0  0  0  0  0  0  0  0
  141.5878   81.5677  221.5054 H   0  0  0  0  0  0  0  0  0  0  0  0
  139.7915   81.5619  221.5054 H   0  0  0  0  0  0  0  0  0  0  0  0
  140.0446   81.2422  224.1151 H   0  0  0  0  0  0  0  0  0  0  0  0
  142.1017   80.7272  224.9290 H   0  0  0  0  0  0  0  0  0  0  0  0
  142.5540   79.7922  223.4634 H   0  0  0  0  0  0  0  0  0  0  0  0
  142.6897   81.5833  223.4634 H   0  0  0  0  0  0  0  0  0  0  0  0
  142.1483   78.6764  222.7382 H   0  0  0  0  0  0  0  0  0  0  0  0
  141.8300   75.5380  222.8490 H   0  0  0  0  0  0  0  0  0  0  0  0
  144.3005   76.1280  220.2718 H   0  0  0  0  0  0  0  0  0  0  0  0
  145.8636   74.3156  219.6877 H   0  0  0  0  0  0  0  0  0  0  0  0
  145.1024   71.9642  219.4327 H   0  0  0  0  0  0  0  0  0  0  0  0
  142.6597   71.4784  219.7942 H   0  0  0  0  0  0  0  0  0  0  0  0
  140.8510   73.4220  222.4950 H   0  0  0  0  0  0  0  0  0  0  0  0
  138.4001   73.6593  222.7361 H   0  0  0  0  0  0  0  0  0  0  0  0
  138.2317   72.8704  221.1080 H   0  0  0  0  0  0  0  0  0  0  0  0
  140.5544   72.8420  224.0771 H   0  0  0  0  0  0  0  0  0  0  0  0
  141.6898   72.0694  226.1463 H   0  0  0  0  0  0  0  0  0  0  0  0
  141.9597   70.3443  227.8759 H   0  0  0  0  0  0  0  0  0  0  0  0
  139.5101   66.7938  227.6039 H   0  0  0  0  0  0  0  0  0  0  0  0
  138.4139   67.6360  225.5324 H   0  0  0  0  0  0  0  0  0  0  0  0
  138.8077   76.0466  222.0497 H   0  0  0  0  0  0  0  0  0  0  0  0
  137.2601   77.9315  222.5406 H   0  0  0  0  0  0  0  0  0  0  0  0
  1  2  1  0
  2  3  1  0
  2  4  1  0
  4  5  2  0
  5  6  1  0
  6  7  1  0
  7  8  1  0
  8  9  2  0
  8 10  1  0
 10 11  2  0
 11 12  1  0
 12 13  2  0
 13 14  1  0
 14 15  2  0
 15 16  1  0
 16 17  2  0
 16 18  1  0
 18 19  1  0
 19 20  1  0
 20 21  2  0
 20 22  1  0
 22 23  2  0
 23 24  1  0
 24 25  2  0
 25 26  1  0
 26 27  2  0
 27 28  1  0
 27 29  1  0
 29 30  2  0
 30 31  1  0
 31 32  2  0
  6 33  2  0
 33 34  1  0
 34 35  2  0
 35  4  1  0
 15 10  1  0
 32 22  1  0
 31 25  1  0
  1 36  1  0
  1 37  1  0
  1 38  1  0
  2 39  1  0
  3 40  1  0
  3 41  1  0
  3 42  1  0
  5 43  1  0
  7 44  1  0
 11 45  1  0
 12 46  1  0
 13 47  1  0
 14 48  1  0
 18 49  1  0
 19 50  1  0
 19 51  1  0
 23 52  1  0
 24 53  1  0
 26 54  1  0
 29 55  1  0
 30 56  1  0
 33 57  1  0
 34 58  1  0
M  END
>  <smiles>  (3) 
CC(C)c1cc(NC(=O)c2ccccc2C(=O)NCC(=O)c2ccc3cc(F)ccc3n2)ccn1

>  <score_type>  (3) 
oracle

>  <origin>  (3) 
autodockgpu

>  <m_score__min__energy>  (3) 
-9.8000000000000007

>  <m_primary>  (3) 
energy

>  <rmsd>  (3) 
7.691129065847466

>  <m_score__min__rmsd>  (3) 
7.691129065847466

>  <meeko>  (3) 
{"free_energy": -8.95, "intermolecular_energy": -11.04, "internal_energy": -1.69, "cluster_size": 8, "cluster_id": 1, "rank_in_cluster": 4}

>  <energy>  (3) 
-9.09

>  <cluster_rmsd>  (3) 
0.73

>  <cluster>  (3) 
1

$$$$

     RDKit          3D

 58 61  0  0  0  0  0  0  0  0999 V2000
  141.8680   70.4430  219.7270 C   0  0  0  0  0  0  0  0  0  0  0  0
  143.2890   70.6790  219.2260 C   0  0  0  0  0  0  0  0  0  0  0  0
  144.1410   69.5230  219.6710 C   0  0  0  0  0  0  0  0  0  0  0  0
  143.8200   71.9640  219.7680 C   0  0  0  0  0  0  0  0  0  0  0  0
  142.9290   72.9840  220.0090 C   0  0  0  0  0  0  0  0  0  0  0  0
  143.4060   74.1620  220.5250 C   0  0  0  0  0  0  0  0  0  0  0  0
  142.5540   75.2770  220.8240 N   0  0  0  0  0  0  0  0  0  0  0  0
  141.3930   74.9500  221.5990 C   0  0  0  0  0  0  0  0  0  0  0  0
  141.1400   73.7840  221.9860 O   0  0  0  0  0  0  0  0  0  0  0  0
  140.4860   76.0430  221.9370 C   0  0  0  0  0  0  0  0  0  0  0  0
  141.0700   77.2210  222.3530 C   0  0  0  0  0  0  0  0  0  0  0  0
  140.2570   78.2840  222.6830 C   0  0  0  0  0  0  0  0  0  0  0  0
  138.8810   78.2240  222.6170 C   0  0  0  0  0  0  0  0  0  0  0  0
  138.3300   77.0060  222.1880 C   0  0  0  0  0  0  0  0  0  0  0  0
  139.1160   75.9270  221.8510 C   0  0  0  0  0  0  0  0  0  0  0  0
  138.4710   74.6610  221.4140 C   0  0  0  0  0  0  0  0  0  0  0  0
  137.7910   74.5780  220.3840 O   0  0  0  0  0  0  0  0  0  0  0  0
  138.6430   73.4820  222.2230 N   0  0  0  0  0  0  0  0  0  0  0  0
  138.0660   72.2060  221.8980 C   0  0  0  0  0  0  0  0  0  0  0  0
  138.9630   71.0860  222.2360 C   0  0  0  0  0  0  0  0  0  0  0  0
  139.2770   70.3030  221.2730 O   0  0  0  0  0  0  0  0  0  0  0  0
  139.5220   70.7800  223.5340 C   0  0  0  0  0  0  0  0  0  0  0  0
  140.3200   71.6980  224.2020 C   0  0  0  0  0  0  0  0  0  0  0  0
  140.8510   71.4300  225.4570 C   0  0  0  0  0  0  0  0  0  0  0  0
  140.5720   70.2080  226.0520 C   0  0  0  0  0  0  0  0  0  0  0  0
  141.0830   69.9040  227.2980 C   0  0  0  0  0  0  0  0  0  0  0  0
  140.7500   68.6500  227.8180 C   0  0  0  0  0  0  0  0  0  0  0  0
  141.2360   68.3080  229.0510 F   0  0  0  0  0  0  0  0  0  0  0  0
  139.9560   67.7600  227.1290 C   0  0  0  0  0  0  0  0  0  0  0  0
  139.4460   68.0610  225.8870 C   0  0  0  0  0  0  0  0  0  0  0  0
  139.7730   69.3050  225.3650 C   0  0  0  0  0  0  0  0  0  0  0  0
  139.3030   69.6260  224.1790 N   0  0  0  0  0  0  0  0  0  0  0  0
  144.7690   74.2870  220.7870 C   0  0  0  0  0  0  0  0  0  0  0  0
  145.6190   73.2170  220.5210 C   0  0  0  0  0  0  0  0  0  0  0  0
  145.1440   72.0510  220.0100 N   0  0  0  0  0  0  0  0  0  0  0  0
  141.8624   70.4421  220.8270 H   0  0  0  0  0  0  0  0  0  0  0  0
  141.2112   71.2444  219.3577 H   0  0  0  0  0  0  0  0  0  0  0  0
  141.5055   69.4723  219.3577 H   0  0  0  0  0  0  0  0  0  0  0  0
  143.2992   70.7485  218.1282 H   0  0  0  0  0  0  0  0  0  0  0  0
  144.1667   69.4882  220.7702 H   0  0  0  0  0  0  0  0  0  0  0  0
  143.7169   68.5846  219.2842 H   0  0  0  0  0  0  0  0  0  0  0  0
  145.1629   69.6504  219.2842 H   0  0  0  0  0  0  0  0  0  0  0  0
  141.8579   72.8578  219.7927 H   0  0  0  0  0  0  0  0  0  0  0  0
  142.7780   76.2340  220.4990 H   0  0  0  0  0  0  0  0  0  0  0  0
  142.1643   77.3106  222.4202 H   0  0  0  0  0  0  0  0  0  0  0  0
  140.7268   79.2220  223.0138 H   0  0  0  0  0  0  0  0  0  0  0  0
  138.2494   79.0836  222.8858 H   0  0  0  0  0  0  0  0  0  0  0  0
  137.2363   76.9108  222.1190 H   0  0  0  0  0  0  0  0  0  0  0  0
  139.2450   73.6140  223.0590 H   0  0  0  0  0  0  0  0  0  0  0  0
  137.1268   72.0890  222.4585 H   0  0  0  0  0  0  0  0  0  0  0  0
  137.8905   72.1818  220.8124 H   0  0  0  0  0  0  0  0  0  0  0  0
  140.5380   72.6646  223.7243 H   0  0  0  0  0  0  0  0  0  0  0  0
  141.4806   72.1723  225.9694 H   0  0  0  0  0  0  0  0  0  0  0  0
  141.7182   70.6108  227.8519 H   0  0  0  0  0  0  0  0  0  0  0  0
  139.7240   66.7851  227.5826 H   0  0  0  0  0  0  0  0  0  0  0  0
  138.8113   67.3517  225.3356 H   0  0  0  0  0  0  0  0  0  0  0  0
  145.1702   75.2239  221.2008 H   0  0  0  0  0  0  0  0  0  0  0  0
  146.6946   73.3173  220.7282 H   0  0  0  0  0  0  0  0  0  0  0  0
  1  2  1  0
  2  3  1  0
  2  4  1  0
  4  5  2  0
  5  6  1  0
  6  7  1  0
  7  8  1  0
  8  9  2  0
  8 10  1  0
 10 11  2  0
 11 12  1  0
 12 13  2  0
 13 14  1  0
 14 15  2  0
 15 16  1  0
 16 17  2  0
 16 18  1  0
 18 19  1  0
 19 20  1  0
 20 21  2  0
 20 22  1  0
 22 23  2  0
 23 24  1  0
 24 25  2  0
 25 26  1  0
 26 27  2  0
 27 28  1  0
 27 29  1  0
 29 30  2  0
 30 31  1  0
 31 32  2  0
  6 33  2  0
 33 34  1  0
 34 35  2  0
 35  4  1  0
 15 10  1  0
 32 22  1  0
 31 25  1  0
  1 36  1  0
  1 37  1  0
  1 38  1  0
  2 39  1  0
  3 40  1  0
  3 41  1  0
  3 42  1  0
  5 43  1  0
  7 44  1  0
 11 45  1  0
 12 46  1  0
 13 47  1  0
 14 48  1  0
 18 49  1  0
 19 50  1  0
 19 51  1  0
 23 52  1  0
 24 53  1  0
 26 54  1  0
 29 55  1  0
 30 56  1  0
 33 57  1  0
 34 58  1  0
M  END
>  <smiles>  (4) 
CC(C)c1cc(NC(=O)c2ccccc2C(=O)NCC(=O)c2ccc3cc(F)ccc3n2)ccn1

>  <score_type>  (4) 
oracle

>  <origin>  (4) 
autodockgpu

>  <m_score__min__energy>  (4) 
-9.8000000000000007

>  <m_primary>  (4) 
energy

>  <rmsd>  (4) 
4.992457905503117

>  <m_score__min__rmsd>  (4) 
4.992457905503117

>  <meeko>  (4) 
{"free_energy": -9.29, "intermolecular_energy": -11.38, "internal_energy": -2.5, "cluster_size": 11, "cluster_id": 2, "rank_in_cluster": 4}

>  <energy>  (4) 
-8.95

>  <cluster_rmsd>  (4) 
0.86

>  <cluster>  (4) 
1

$$$$

     RDKit          3D

 58 61  0  0  0  0  0  0  0  0999 V2000
  145.0420   70.5420  217.6600 C   0  0  0  0  0  0  0  0  0  0  0  0
  144.7610   70.5230  219.1590 C   0  0  0  0  0  0  0  0  0  0  0  0
  143.3270   70.1220  219.3620 C   0  0  0  0  0  0  0  0  0  0  0  0
  145.0210   71.8700  219.7480 C   0  0  0  0  0  0  0  0  0  0  0  0
  143.9500   72.7150  219.9310 C   0  0  0  0  0  0  0  0  0  0  0  0
  144.1780   73.9470  220.4890 C   0  0  0  0  0  0  0  0  0  0  0  0
  143.1260   74.8910  220.7350 N   0  0  0  0  0  0  0  0  0  0  0  0
  142.8900   75.8160  219.6650 C   0  0  0  0  0  0  0  0  0  0  0  0
  143.5500   75.8030  218.5970 O   0  0  0  0  0  0  0  0  0  0  0  0
  141.8310   76.8020  219.8540 C   0  0  0  0  0  0  0  0  0  0  0  0
  142.0470   78.0500  219.3080 C   0  0  0  0  0  0  0  0  0  0  0  0
  141.0770   79.0160  219.4580 C   0  0  0  0  0  0  0  0  0  0  0  0
  139.8940   78.7930  220.1300 C   0  0  0  0  0  0  0  0  0  0  0  0
  139.7160   77.5090  220.6690 C   0  0  0  0  0  0  0  0  0  0  0  0
  140.6670   76.5220  220.5360 C   0  0  0  0  0  0  0  0  0  0  0  0
  140.4230   75.1860  221.1370 C   0  0  0  0  0  0  0  0  0  0  0  0
  140.6460   74.9380  222.3290 O   0  0  0  0  0  0  0  0  0  0  0  0
  139.9070   74.1340  220.3000 N   0  0  0  0  0  0  0  0  0  0  0  0
  139.6340   72.8040  220.7740 C   0  0  0  0  0  0  0  0  0  0  0  0
  140.5760   72.3830  221.8260 C   0  0  0  0  0  0  0  0  0  0  0  0
  141.7940   72.7470  221.6730 O   0  0  0  0  0  0  0  0  0  0  0  0
  140.2720   71.6050  223.0070 C   0  0  0  0  0  0  0  0  0  0  0  0
  139.5270   70.4370  222.9200 C   0  0  0  0  0  0  0  0  0  0  0  0
  139.2400   69.6670  224.0400 C   0  0  0  0  0  0  0  0  0  0  0  0
  139.7160   70.0830  225.2760 C   0  0  0  0  0  0  0  0  0  0  0  0
  139.4500   69.3450  226.4110 C   0  0  0  0  0  0  0  0  0  0  0  0
  139.9690   69.8410  227.6100 C   0  0  0  0  0  0  0  0  0  0  0  0
  139.7300   69.1400  228.7620 F   0  0  0  0  0  0  0  0  0  0  0  0
  140.7060   71.0040  227.6630 C   0  0  0  0  0  0  0  0  0  0  0  0
  140.9710   71.7410  226.5320 C   0  0  0  0  0  0  0  0  0  0  0  0
  140.4590   71.2530  225.3380 C   0  0  0  0  0  0  0  0  0  0  0  0
  140.6920   71.9340  224.2360 N   0  0  0  0  0  0  0  0  0  0  0  0
  145.4760   74.3020  220.8510 C   0  0  0  0  0  0  0  0  0  0  0  0
  146.5160   73.4000  220.6380 C   0  0  0  0  0  0  0  0  0  0  0  0
  146.2890   72.1800  220.0860 N   0  0  0  0  0  0  0  0  0  0  0  0
  146.1265   70.6153  217.4912 H   0  0  0  0  0  0  0  0  0  0  0  0
  144.6617   69.6161  217.2039 H   0  0  0  0  0  0  0  0  0  0  0  0
  144.5405   71.4083  217.2039 H   0  0  0  0  0  0  0  0  0  0  0  0
  145.4230   69.8032  219.6625 H   0  0  0  0  0  0  0  0  0  0  0  0
  143.1120   70.0619  220.4391 H   0  0  0  0  0  0  0  0  0  0  0  0
  142.6678   70.8703  218.8977 H   0  0  0  0  0  0  0  0  0  0  0  0
  143.1515   69.1403  218.8977 H   0  0  0  0  0  0  0  0  0  0  0  0
  142.9351   72.4094  219.6367 H   0  0  0  0  0  0  0  0  0  0  0  0
  142.5890   74.8880  221.6200 H   0  0  0  0  0  0  0  0  0  0  0  0
  142.9768   78.2697  218.7628 H   0  0  0  0  0  0  0  0  0  0  0  0
  141.2540   80.0103  219.0220 H   0  0  0  0  0  0  0  0  0  0  0  0
  139.1313   79.5782  220.2379 H   0  0  0  0  0  0  0  0  0  0  0  0
  138.7877   77.2843  221.2147 H   0  0  0  0  0  0  0  0  0  0  0  0
  139.7180   74.4150  219.3180 H   0  0  0  0  0  0  0  0  0  0  0  0
  138.6126   72.7759  221.1814 H   0  0  0  0  0  0  0  0  0  0  0  0
  139.7459   72.1136  219.9250 H   0  0  0  0  0  0  0  0  0  0  0  0
  139.1537   70.1123  221.9375 H   0  0  0  0  0  0  0  0  0  0  0  0
  138.6468   68.7451  223.9493 H   0  0  0  0  0  0  0  0  0  0  0  0
  138.8613   68.4165  226.3741 H   0  0  0  0  0  0  0  0  0  0  0  0
  141.0917   71.3515  228.6328 H   0  0  0  0  0  0  0  0  0  0  0  0
  141.5588   72.6699  226.5720 H   0  0  0  0  0  0  0  0  0  0  0  0
  145.6775   75.2854  221.3008 H   0  0  0  0  0  0  0  0  0  0  0  0
  147.5407   73.6812  220.9223 H   0  0  0  0  0  0  0  0  0  0  0  0
  1  2  1  0
  2  3  1  0
  2  4  1  0
  4  5  2  0
  5  6  1  0
  6  7  1  0
  7  8  1  0
  8  9  2  0
  8 10  1  0
 10 11  2  0
 11 12  1  0
 12 13  2  0
 13 14  1  0
 14 15  2  0
 15 16  1  0
 16 17  2  0
 16 18  1  0
 18 19  1  0
 19 20  1  0
 20 21  2  0
 20 22  1  0
 22 23  2  0
 23 24  1  0
 24 25  2  0
 25 26  1  0
 26 27  2  0
 27 28  1  0
 27 29  1  0
 29 30  2  0
 30 31  1  0
 31 32  2  0
  6 33  2  0
 33 34  1  0
 34 35  2  0
 35  4  1  0
 15 10  1  0
 32 22  1  0
 31 25  1  0
  1 36  1  0
  1 37  1  0
  1 38  1  0
  2 39  1  0
  3 40  1  0
  3 41  1  0
  3 42  1  0
  5 43  1  0
  7 44  1  0
 11 45  1  0
 12 46  1  0
 13 47  1  0
 14 48  1  0
 18 49  1  0
 19 50  1  0
 19 51  1  0
 23 52  1  0
 24 53  1  0
 26 54  1  0
 29 55  1  0
 30 56  1  0
 33 57  1  0
 34 58  1  0
M  END
>  <smiles>  (5) 
CC(C)c1cc(NC(=O)c2ccccc2C(=O)NCC(=O)c2ccc3cc(F)ccc3n2)ccn1

>  <score_type>  (5) 
oracle

>  <origin>  (5) 
autodockgpu

>  <m_score__min__energy>  (5) 
-9.8000000000000007

>  <m_primary>  (5) 
energy

>  <rmsd>  (5) 
5.523673823997738

>  <m_score__min__rmsd>  (5) 
5.523673823997738

>  <meeko>  (5) 
{"free_energy": -8.92, "intermolecular_energy": -11.01, "internal_energy": -2.73, "cluster_size": 11, "cluster_id": 2, "rank_in_cluster": 7}

>  <energy>  (5) 
-8.92

>  <cluster_rmsd>  (5) 
0.87

>  <cluster>  (5) 
1

$$$$

     RDKit          3D

 58 61  0  0  0  0  0  0  0  0999 V2000
  141.4230   82.3450  220.9950 C   0  0  0  0  0  0  0  0  0  0  0  0
  140.6110   82.2300  219.7090 C   0  0  0  0  0  0  0  0  0  0  0  0
  139.1800   81.9590  220.0800 C   0  0  0  0  0  0  0  0  0  0  0  0
  141.1520   81.1300  218.8560 C   0  0  0  0  0  0  0  0  0  0  0  0
  141.7010   80.0350  219.4810 C   0  0  0  0  0  0  0  0  0  0  0  0
  142.1830   79.0120  218.7040 C   0  0  0  0  0  0  0  0  0  0  0  0
  142.7590   77.8220  219.2630 N   0  0  0  0  0  0  0  0  0  0  0  0
  141.9420   76.6500  219.1430 C   0  0  0  0  0  0  0  0  0  0  0  0
  140.8130   76.6610  218.5950 O   0  0  0  0  0  0  0  0  0  0  0  0
  142.4730   75.4060  219.6920 C   0  0  0  0  0  0  0  0  0  0  0  0
  143.7010   74.9980  219.2140 C   0  0  0  0  0  0  0  0  0  0  0  0
  144.2460   73.8300  219.7010 C   0  0  0  0  0  0  0  0  0  0  0  0
  143.6210   73.0480  220.6490 C   0  0  0  0  0  0  0  0  0  0  0  0
  142.3740   73.5020  221.1070 C   0  0  0  0  0  0  0  0  0  0  0  0
  141.8020   74.6640  220.6400 C   0  0  0  0  0  0  0  0  0  0  0  0
  140.4750   75.0860  221.1570 C   0  0  0  0  0  0  0  0  0  0  0  0
  140.2640   75.3090  222.3560 O   0  0  0  0  0  0  0  0  0  0  0  0
  139.3870   75.2390  220.2270 N   0  0  0  0  0  0  0  0  0  0  0  0
  138.0620   75.6410  220.6150 C   0  0  0  0  0  0  0  0  0  0  0  0
  137.9080   77.1080  220.6380 C   0  0  0  0  0  0  0  0  0  0  0  0
  137.0230   77.5950  219.8530 O   0  0  0  0  0  0  0  0  0  0  0  0
  138.6470   78.0480  221.4500 C   0  0  0  0  0  0  0  0  0  0  0  0
  137.9920   79.0270  222.1850 C   0  0  0  0  0  0  0  0  0  0  0  0
  138.6840   79.9270  222.9850 C   0  0  0  0  0  0  0  0  0  0  0  0
  140.0670   79.8390  223.0470 C   0  0  0  0  0  0  0  0  0  0  0  0
  140.7890   80.7170  223.8300 C   0  0  0  0  0  0  0  0  0  0  0  0
  142.1770   80.5530  223.8290 C   0  0  0  0  0  0  0  0  0  0  0  0
  142.9320   81.4020  224.5930 F   0  0  0  0  0  0  0  0  0  0  0  0
  142.7980   79.5710  223.0890 C   0  0  0  0  0  0  0  0  0  0  0  0
  142.0790   78.6950  222.3070 C   0  0  0  0  0  0  0  0  0  0  0  0
  140.7000   78.8530  222.3040 C   0  0  0  0  0  0  0  0  0  0  0  0
  139.9820   78.0330  221.5670 N   0  0  0  0  0  0  0  0  0  0  0  0
  142.1010   79.1140  217.3170 C   0  0  0  0  0  0  0  0  0  0  0  0
  141.5340   80.2510  216.7460 C   0  0  0  0  0  0  0  0  0  0  0  0
  141.0570   81.2620  217.5170 N   0  0  0  0  0  0  0  0  0  0  0  0
  140.7524   82.2500  221.8618 H   0  0  0  0  0  0  0  0  0  0  0  0
  142.1770   81.5447  221.0253 H   0  0  0  0  0  0  0  0  0  0  0  0
  141.9252   83.3232  221.0253 H   0  0  0  0  0  0  0  0  0  0  0  0
  140.6749   83.1648  219.1327 H   0  0  0  0  0  0  0  0  0  0  0  0
  139.0824   81.9405  221.1755 H   0  0  0  0  0  0  0  0  0  0  0  0
  138.5380   82.7515  219.6680 H   0  0  0  0  0  0  0  0  0  0  0  0
  138.8722   80.9866  219.6680 H   0  0  0  0  0  0  0  0  0  0  0  0
  141.7526   79.9805  220.5784 H   0  0  0  0  0  0  0  0  0  0  0  0
  143.6920   77.8290  219.7100 H   0  0  0  0  0  0  0  0  0  0  0  0
  144.2347   75.5936  218.4587 H   0  0  0  0  0  0  0  0  0  0  0  0
  145.2244   73.5067  219.3159 H   0  0  0  0  0  0  0  0  0  0  0  0
  144.0745   72.1194  221.0258 H   0  0  0  0  0  0  0  0  0  0  0  0
  141.8368   72.9105  221.8630 H   0  0  0  0  0  0  0  0  0  0  0  0
  139.6360   75.0610  219.2340 H   0  0  0  0  0  0  0  0  0  0  0  0
  137.3405   75.2204  219.8991 H   0  0  0  0  0  0  0  0  0  0  0  0
  137.8807   75.2668  221.6334 H   0  0  0  0  0  0  0  0  0  0  0  0
  136.8952   79.0916  222.1323 H   0  0  0  0  0  0  0  0  0  0  0  0
  138.1453   80.6954  223.5589 H   0  0  0  0  0  0  0  0  0  0  0  0
  140.2985   81.5032  224.4227 H   0  0  0  0  0  0  0  0  0  0  0  0
  143.8941   79.4846  223.1236 H   0  0  0  0  0  0  0  0  0  0  0  0
  142.5722   77.9101  221.7149 H   0  0  0  0  0  0  0  0  0  0  0  0
  142.4809   78.3032  216.6780 H   0  0  0  0  0  0  0  0  0  0  0  0
  141.4715   80.3314  215.6507 H   0  0  0  0  0  0  0  0  0  0  0  0
  1  2  1  0
  2  3  1  0
  2  4  1  0
  4  5  2  0
  5  6  1  0
  6  7  1  0
  7  8  1  0
  8  9  2  0
  8 10  1  0
 10 11  2  0
 11 12  1  0
 12 13  2  0
 13 14  1  0
 14 15  2  0
 15 16  1  0
 16 17  2  0
 16 18  1  0
 18 19  1  0
 19 20  1  0
 20 21  2  0
 20 22  1  0
 22 23  2  0
 23 24  1  0
 24 25  2  0
 25 26  1  0
 26 27  2  0
 27 28  1  0
 27 29  1  0
 29 30  2  0
 30 31  1  0
 31 32  2  0
  6 33  2  0
 33 34  1  0
 34 35  2  0
 35  4  1  0
 15 10  1  0
 32 22  1  0
 31 25  1  0
  1 36  1  0
  1 37  1  0
  1 38  1  0
  2 39  1  0
  3 40  1  0
  3 41  1  0
  3 42  1  0
  5 43  1  0
  7 44  1  0
 11 45  1  0
 12 46  1  0
 13 47  1  0
 14 48  1  0
 18 49  1  0
 19 50  1  0
 19 51  1  0
 23 52  1  0
 24 53  1  0
 26 54  1  0
 29 55  1  0
 30 56  1  0
 33 57  1  0
 34 58  1  0
M  END
>  <smiles>  (6) 
CC(C)c1cc(NC(=O)c2ccccc2C(=O)NCC(=O)c2ccc3cc(F)ccc3n2)ccn1

>  <score_type>  (6) 
oracle

>  <origin>  (6) 
autodockgpu

>  <m_score__min__energy>  (6) 
-9.8000000000000007

>  <m_primary>  (6) 
energy

>  <rmsd>  (6) 
7.215423707168689

>  <m_score__min__rmsd>  (6) 
7.215423707168689

>  <meeko>  (6) 
{"free_energy": -6.71, "intermolecular_energy": -8.8, "internal_energy": -4.23, "cluster_size": 11, "cluster_id": 8, "rank_in_cluster": 7}

>  <energy>  (6) 
-8.68

>  <cluster_rmsd>  (6) 
1.71

>  <cluster>  (6) 
1

$$$$

     RDKit          3D

 58 61  0  0  0  0  0  0  0  0999 V2000
  142.1000   79.9390  223.8370 C   0  0  0  0  0  0  0  0  0  0  0  0
  141.9950   79.9700  222.3160 C   0  0  0  0  0  0  0  0  0  0  0  0
  141.0320   81.0600  221.9340 C   0  0  0  0  0  0  0  0  0  0  0  0
  141.5240   78.6490  221.8060 C   0  0  0  0  0  0  0  0  0  0  0  0
  140.5400   77.9940  222.5110 C   0  0  0  0  0  0  0  0  0  0  0  0
  140.0890   76.7880  222.0380 C   0  0  0  0  0  0  0  0  0  0  0  0
  139.0560   76.0380  222.6930 N   0  0  0  0  0  0  0  0  0  0  0  0
  137.7220   76.4130  222.3280 C   0  0  0  0  0  0  0  0  0  0  0  0
  137.4740   77.3240  221.5000 O   0  0  0  0  0  0  0  0  0  0  0  0
  136.6260   75.6860  222.9600 C   0  0  0  0  0  0  0  0  0  0  0  0
  135.8400   76.4010  223.8400 C   0  0  0  0  0  0  0  0  0  0  0  0
  134.7910   75.7600  224.4630 C   0  0  0  0  0  0  0  0  0  0  0  0
  134.4890   74.4320  224.2470 C   0  0  0  0  0  0  0  0  0  0  0  0
  135.3140   73.7440  223.3440 C   0  0  0  0  0  0  0  0  0  0  0  0
  136.3700   74.3560  222.7060 C   0  0  0  0  0  0  0  0  0  0  0  0
  137.2130   73.5700  221.7680 C   0  0  0  0  0  0  0  0  0  0  0  0
  136.7690   73.0710  220.7270 O   0  0  0  0  0  0  0  0  0  0  0  0
  138.6040   73.3790  222.0850 N   0  0  0  0  0  0  0  0  0  0  0  0
  139.5120   72.6370  221.2520 C   0  0  0  0  0  0  0  0  0  0  0  0
  140.4980   71.8760  222.0420 C   0  0  0  0  0  0  0  0  0  0  0  0
  141.6940   71.8590  221.5870 O   0  0  0  0  0  0  0  0  0  0  0  0
  140.2570   71.1520  223.2700 C   0  0  0  0  0  0  0  0  0  0  0  0
  139.5580   69.9530  223.2670 C   0  0  0  0  0  0  0  0  0  0  0  0
  139.3320   69.2340  224.4340 C   0  0  0  0  0  0  0  0  0  0  0  0
  139.8230   69.7340  225.6310 C   0  0  0  0  0  0  0  0  0  0  0  0
  139.6180   69.0480  226.8110 C   0  0  0  0  0  0  0  0  0  0  0  0
  140.1480   69.6280  227.9670 C   0  0  0  0  0  0  0  0  0  0  0  0
  139.9680   68.9810  229.1600 F   0  0  0  0  0  0  0  0  0  0  0  0
  140.8390   70.8200  227.9370 C   0  0  0  0  0  0  0  0  0  0  0  0
  141.0440   71.5050  226.7610 C   0  0  0  0  0  0  0  0  0  0  0  0
  140.5200   70.9340  225.6100 C   0  0  0  0  0  0  0  0  0  0  0  0
  140.6960   71.5620  224.4680 N   0  0  0  0  0  0  0  0  0  0  0  0
  140.6370   76.2680  220.8670 C   0  0  0  0  0  0  0  0  0  0  0  0
  141.6310   76.9800  220.2010 C   0  0  0  0  0  0  0  0  0  0  0  0
  142.0760   78.1750  220.6700 N   0  0  0  0  0  0  0  0  0  0  0  0
  141.1332   80.2244  224.2772 H   0  0  0  0  0  0  0  0  0  0  0  0
  142.3670   78.9237  224.1655 H   0  0  0  0  0  0  0  0  0  0  0  0
  142.8756   80.6465  224.1655 H   0  0  0  0  0  0  0  0  0  0  0  0
  142.9803   80.1707  221.8699 H   0  0  0  0  0  0  0  0  0  0  0  0
  140.6228   81.5232  222.8439 H   0  0  0  0  0  0  0  0  0  0  0  0
  141.5575   81.8217  221.3393 H   0  0  0  0  0  0  0  0  0  0  0  0
  140.2113   80.6324  221.3393 H   0  0  0  0  0  0  0  0  0  0  0  0
  140.1247   78.4277  223.4327 H   0  0  0  0  0  0  0  0  0  0  0  0
  139.2770   75.2880  223.3720 H   0  0  0  0  0  0  0  0  0  0  0  0
  136.0467   77.4626  224.0406 H   0  0  0  0  0  0  0  0  0  0  0  0
  134.1667   76.3335  225.1640 H   0  0  0  0  0  0  0  0  0  0  0  0
  133.6472   73.9387  224.7549 H   0  0  0  0  0  0  0  0  0  0  0  0
  135.1108   72.6825  223.1393 H   0  0  0  0  0  0  0  0  0  0  0  0
  138.9190   73.8440  222.9590 H   0  0  0  0  0  0  0  0  0  0  0  0
  138.9329   71.9335  220.6358 H   0  0  0  0  0  0  0  0  0  0  0  0
  140.0624   73.3566  220.6281 H   0  0  0  0  0  0  0  0  0  0  0  0
  139.1723   69.5612  222.3143 H   0  0  0  0  0  0  0  0  0  0  0  0
  138.7743   68.2862  224.4092 H   0  0  0  0  0  0  0  0  0  0  0  0
  139.0673   68.0962  226.8401 H   0  0  0  0  0  0  0  0  0  0  0  0
  141.2363   71.2339  228.8755 H   0  0  0  0  0  0  0  0  0  0  0  0
  141.5951   72.4566  226.7349 H   0  0  0  0  0  0  0  0  0  0  0  0
  140.2871   75.3028  220.4720 H   0  0  0  0  0  0  0  0  0  0  0  0
  142.0641   76.5673  219.2779 H   0  0  0  0  0  0  0  0  0  0  0  0
  1  2  1  0
  2  3  1  0
  2  4  1  0
  4  5  2  0
  5  6  1  0
  6  7  1  0
  7  8  1  0
  8  9  2  0
  8 10  1  0
 10 11  2  0
 11 12  1  0
 12 13  2  0
 13 14  1  0
 14 15  2  0
 15 16  1  0
 16 17  2  0
 16 18  1  0
 18 19  1  0
 19 20  1  0
 20 21  2  0
 20 22  1  0
 22 23  2  0
 23 24  1  0
 24 25  2  0
 25 26  1  0
 26 27  2  0
 27 28  1  0
 27 29  1  0
 29 30  2  0
 30 31  1  0
 31 32  2  0
  6 33  2  0
 33 34  1  0
 34 35  2  0
 35  4  1  0
 15 10  1  0
 32 22  1  0
 31 25  1  0
  1 36  1  0
  1 37  1  0
  1 38  1  0
  2 39  1  0
  3 40  1  0
  3 41  1  0
  3 42  1  0
  5 43  1  0
  7 44  1  0
 11 45  1  0
 12 46  1  0
 13 47  1  0
 14 48  1  0
 18 49  1  0
 19 50  1  0
 19 51  1  0
 23 52  1  0
 24 53  1  0
 26 54  1  0
 29 55  1  0
 30 56  1  0
 33 57  1  0
 34 58  1  0
M  END
>  <smiles>  (7) 
CC(C)c1cc(NC(=O)c2ccccc2C(=O)NCC(=O)c2ccc3cc(F)ccc3n2)ccn1

>  <score_type>  (7) 
oracle

>  <origin>  (7) 
autodockgpu

>  <m_score__min__energy>  (7) 
-9.8000000000000007

>  <m_primary>  (7) 
energy

>  <rmsd>  (7) 
7.313772820865226

>  <m_score__min__rmsd>  (7) 
7.313772820865226

>  <meeko>  (7) 
{"free_energy": -9.21, "intermolecular_energy": -11.3, "internal_energy": -1.78, "cluster_size": 4, "cluster_id": 4, "rank_in_cluster": 2}

>  <energy>  (7) 
-8.58

>  <cluster_rmsd>  (7) 
0.89

>  <cluster>  (7) 
1

$$$$

     RDKit          3D

 58 61  0  0  0  0  0  0  0  0999 V2000
  143.0420   71.0720  217.5570 C   0  0  0  0  0  0  0  0  0  0  0  0
  144.3810   71.7810  217.3840 C   0  0  0  0  0  0  0  0  0  0  0  0
  145.4470   70.7350  217.2100 C   0  0  0  0  0  0  0  0  0  0  0  0
  144.6690   72.6330  218.5760 C   0  0  0  0  0  0  0  0  0  0  0  0
  143.6390   73.3750  219.1070 C   0  0  0  0  0  0  0  0  0  0  0  0
  143.8920   74.1460  220.2130 C   0  0  0  0  0  0  0  0  0  0  0  0
  142.8810   74.9420  220.8480 N   0  0  0  0  0  0  0  0  0  0  0  0
  142.5120   76.1260  220.1290 C   0  0  0  0  0  0  0  0  0  0  0  0
  143.0300   76.4430  219.0310 O   0  0  0  0  0  0  0  0  0  0  0  0
  141.4860   76.9770  220.7230 C   0  0  0  0  0  0  0  0  0  0  0  0
  141.8060   78.3100  220.8760 C   0  0  0  0  0  0  0  0  0  0  0  0
  140.8710   79.1570  221.4320 C   0  0  0  0  0  0  0  0  0  0  0  0
  139.6260   78.7320  221.8430 C   0  0  0  0  0  0  0  0  0  0  0  0
  139.3430   77.3680  221.6680 C   0  0  0  0  0  0  0  0  0  0  0  0
  140.2560   76.4970  221.1160 C   0  0  0  0  0  0  0  0  0  0  0  0
  139.9000   75.0620  220.9660 C   0  0  0  0  0  0  0  0  0  0  0  0
  139.9290   74.4760  219.8770 O   0  0  0  0  0  0  0  0  0  0  0  0
  139.5030   74.3230  222.1360 N   0  0  0  0  0  0  0  0  0  0  0  0
  139.1370   72.9330  222.1100 C   0  0  0  0  0  0  0  0  0  0  0  0
  140.1960   72.0660  222.6590 C   0  0  0  0  0  0  0  0  0  0  0  0
  141.3370   72.1360  222.0830 O   0  0  0  0  0  0  0  0  0  0  0  0
  140.0830   71.1520  223.7730 C   0  0  0  0  0  0  0  0  0  0  0  0
  139.4970   69.9030  223.6150 C   0  0  0  0  0  0  0  0  0  0  0  0
  139.3960   69.0040  224.6690 C   0  0  0  0  0  0  0  0  0  0  0  0
  139.8960   69.3710  225.9100 C   0  0  0  0  0  0  0  0  0  0  0  0
  139.8120   68.5050  226.9820 C   0  0  0  0  0  0  0  0  0  0  0  0
  140.3410   68.9610  228.1920 C   0  0  0  0  0  0  0  0  0  0  0  0
  140.2790   68.1340  229.2820 F   0  0  0  0  0  0  0  0  0  0  0  0
  140.9160   70.2070  228.3160 C   0  0  0  0  0  0  0  0  0  0  0  0
  141.0000   71.0720  227.2490 C   0  0  0  0  0  0  0  0  0  0  0  0
  140.4760   70.6240  226.0440 C   0  0  0  0  0  0  0  0  0  0  0  0
  140.5380   71.4260  225.0030 N   0  0  0  0  0  0  0  0  0  0  0  0
  145.1730   74.1540  220.7600 C   0  0  0  0  0  0  0  0  0  0  0  0
  146.1730   73.3800  220.1740 C   0  0  0  0  0  0  0  0  0  0  0  0
  145.9210   72.6170  219.0790 N   0  0  0  0  0  0  0  0  0  0  0  0
  142.8240   70.9566  218.6290 H   0  0  0  0  0  0  0  0  0  0  0  0
  142.2478   71.6677  217.0834 H   0  0  0  0  0  0  0  0  0  0  0  0
  143.0884   70.0803  217.0834 H   0  0  0  0  0  0  0  0  0  0  0  0
  144.3546   72.4358  216.5006 H   0  0  0  0  0  0  0  0  0  0  0  0
  145.7926   70.3959  218.1977 H   0  0  0  0  0  0  0  0  0  0  0  0
  145.0351   69.8809  216.6525 H   0  0  0  0  0  0  0  0  0  0  0  0
  146.2932   71.1630  216.6525 H   0  0  0  0  0  0  0  0  0  0  0  0
  142.6364   73.3505  218.6552 H   0  0  0  0  0  0  0  0  0  0  0  0
  142.4610   74.6650  221.7530 H   0  0  0  0  0  0  0  0  0  0  0  0
  142.7888   78.6901  220.5603 H   0  0  0  0  0  0  0  0  0  0  0  0
  141.1302   80.2192  221.5530 H   0  0  0  0  0  0  0  0  0  0  0  0
  138.8937   79.4241  222.2843 H   0  0  0  0  0  0  0  0  0  0  0  0
  138.3615   76.9830  221.9815 H   0  0  0  0  0  0  0  0  0  0  0  0
  139.5240   74.8670  223.0210 H   0  0  0  0  0  0  0  0  0  0  0  0
  138.2230   72.7965  222.7067 H   0  0  0  0  0  0  0  0  0  0  0  0
  138.9773   72.6462  221.0601 H   0  0  0  0  0  0  0  0  0  0  0  0
  139.1022   69.6179  222.6287 H   0  0  0  0  0  0  0  0  0  0  0  0
  138.9282   68.0193  224.5225 H   0  0  0  0  0  0  0  0  0  0  0  0
  139.3533   67.5096  226.8884 H   0  0  0  0  0  0  0  0  0  0  0  0
  141.3177   70.5179  229.2917 H   0  0  0  0  0  0  0  0  0  0  0  0
  141.4587   72.0671  227.3459 H   0  0  0  0  0  0  0  0  0  0  0  0
  145.3935   74.7660  221.6470 H   0  0  0  0  0  0  0  0  0  0  0  0
  147.1846   73.3872  220.6061 H   0  0  0  0  0  0  0  0  0  0  0  0
  1  2  1  0
  2  3  1  0
  2  4  1  0
  4  5  2  0
  5  6  1  0
  6  7  1  0
  7  8  1  0
  8  9  2  0
  8 10  1  0
 10 11  2  0
 11 12  1  0
 12 13  2  0
 13 14  1  0
 14 15  2  0
 15 16  1  0
 16 17  2  0
 16 18  1  0
 18 19  1  0
 19 20  1  0
 20 21  2  0
 20 22  1  0
 22 23  2  0
 23 24  1  0
 24 25  2  0
 25 26  1  0
 26 27  2  0
 27 28  1  0
 27 29  1  0
 29 30  2  0
 30 31  1  0
 31 32  2  0
  6 33  2  0
 33 34  1  0
 34 35  2  0
 35  4  1  0
 15 10  1  0
 32 22  1  0
 31 25  1  0
  1 36  1  0
  1 37  1  0
  1 38  1  0
  2 39  1  0
  3 40  1  0
  3 41  1  0
  3 42  1  0
  5 43  1  0
  7 44  1  0
 11 45  1  0
 12 46  1  0
 13 47  1  0
 14 48  1  0
 18 49  1  0
 19 50  1  0
 19 51  1  0
 23 52  1  0
 24 53  1  0
 26 54  1  0
 29 55  1  0
 30 56  1  0
 33 57  1  0
 34 58  1  0
M  END
>  <smiles>  (8) 
CC(C)c1cc(NC(=O)c2ccccc2C(=O)NCC(=O)c2ccc3cc(F)ccc3n2)ccn1

>  <score_type>  (8) 
oracle

>  <origin>  (8) 
autodockgpu

>  <m_score__min__energy>  (8) 
-9.8000000000000007

>  <m_primary>  (8) 
energy

>  <rmsd>  (8) 
4.625667581572312

>  <m_score__min__rmsd>  (8) 
4.625667581572312

>  <meeko>  (8) 
{"free_energy": -9.16, "intermolecular_energy": -11.25, "internal_energy": -1.9, "cluster_size": 11, "cluster_id": 2, "rank_in_cluster": 5}

>  <energy>  (8) 
-8.14

>  <cluster_rmsd>  (8) 
1.45

>  <cluster>  (8) 
1

$$$$

     RDKit          3D

 58 61  0  0  0  0  0  0  0  0999 V2000
  140.4650   69.9340  227.6200 C   0  0  0  0  0  0  0  0  0  0  0  0
  139.7460   68.9360  226.7190 C   0  0  0  0  0  0  0  0  0  0  0  0
  140.6680   67.7730  226.4770 C   0  0  0  0  0  0  0  0  0  0  0  0
  139.3690   69.5860  225.4290 C   0  0  0  0  0  0  0  0  0  0  0  0
  140.2050   70.5550  224.9220 C   0  0  0  0  0  0  0  0  0  0  0  0
  139.8750   71.1440  223.7290 C   0  0  0  0  0  0  0  0  0  0  0  0
  140.6900   72.1520  223.1120 N   0  0  0  0  0  0  0  0  0  0  0  0
  141.1420   71.8290  221.7910 C   0  0  0  0  0  0  0  0  0  0  0  0
  140.8490   70.7520  221.2160 O   0  0  0  0  0  0  0  0  0  0  0  0
  141.9750   72.8150  221.1100 C   0  0  0  0  0  0  0  0  0  0  0  0
  143.2350   72.4000  220.7310 C   0  0  0  0  0  0  0  0  0  0  0  0
  144.0600   73.2930  220.0840 C   0  0  0  0  0  0  0  0  0  0  0  0
  143.6850   74.5870  219.7940 C   0  0  0  0  0  0  0  0  0  0  0  0
  142.3950   74.9670  220.1970 C   0  0  0  0  0  0  0  0  0  0  0  0
  141.5460   74.0970  220.8460 C   0  0  0  0  0  0  0  0  0  0  0  0
  140.1950   74.5630  221.2550 C   0  0  0  0  0  0  0  0  0  0  0  0
  139.7730   74.4540  222.4130 O   0  0  0  0  0  0  0  0  0  0  0  0
  139.3420   75.1650  220.2640 N   0  0  0  0  0  0  0  0  0  0  0  0
  138.0180   75.6490  220.5460 C   0  0  0  0  0  0  0  0  0  0  0  0
  137.9340   76.3110  221.8620 C   0  0  0  0  0  0  0  0  0  0  0  0
  137.2120   75.7270  222.7420 O   0  0  0  0  0  0  0  0  0  0  0  0
  138.5800   77.5420  222.2590 C   0  0  0  0  0  0  0  0  0  0  0  0
  137.8720   78.7350  222.3090 C   0  0  0  0  0  0  0  0  0  0  0  0
  138.4700   79.9240  222.7060 C   0  0  0  0  0  0  0  0  0  0  0  0
  139.8110   79.9110  223.0620 C   0  0  0  0  0  0  0  0  0  0  0  0
  140.4400   81.0730  223.4610 C   0  0  0  0  0  0  0  0  0  0  0  0
  141.7920   80.9630  223.7990 C   0  0  0  0  0  0  0  0  0  0  0  0
  142.4550   82.0920  224.2010 F   0  0  0  0  0  0  0  0  0  0  0  0
  142.4660   79.7630  223.7390 C   0  0  0  0  0  0  0  0  0  0  0  0
  141.8400   78.6040  223.3420 C   0  0  0  0  0  0  0  0  0  0  0  0
  140.4980   78.7060  223.0050 C   0  0  0  0  0  0  0  0  0  0  0  0
  139.8680   77.6180  222.6190 N   0  0  0  0  0  0  0  0  0  0  0  0
  138.7130   70.7460  223.0710 C   0  0  0  0  0  0  0  0  0  0  0  0
  137.9090   69.7600  223.6380 C   0  0  0  0  0  0  0  0  0  0  0  0
  138.2380   69.1770  224.8200 N   0  0  0  0  0  0  0  0  0  0  0  0
  140.2797   69.6768  228.6733 H   0  0  0  0  0  0  0  0  0  0  0  0
  141.5457   69.8976  227.4183 H   0  0  0  0  0  0  0  0  0  0  0  0
  140.0883   70.9476  227.4183 H   0  0  0  0  0  0  0  0  0  0  0  0
  138.8219   68.5845  227.2011 H   0  0  0  0  0  0  0  0  0  0  0  0
  140.9965   67.3586  227.4416 H   0  0  0  0  0  0  0  0  0  0  0  0
  140.1372   66.9968  225.9062 H   0  0  0  0  0  0  0  0  0  0  0  0
  141.5448   68.1128  225.9062 H   0  0  0  0  0  0  0  0  0  0  0  0
  141.1169   70.8499  225.4618 H   0  0  0  0  0  0  0  0  0  0  0  0
  140.9200   73.0360  223.5990 H   0  0  0  0  0  0  0  0  0  0  0  0
  143.5743   71.3751  220.9417 H   0  0  0  0  0  0  0  0  0  0  0  0
  145.0642   72.9581  219.7850 H   0  0  0  0  0  0  0  0  0  0  0  0
  144.3595   75.2840  219.2752 H   0  0  0  0  0  0  0  0  0  0  0  0
  142.0513   75.9909  219.9883 H   0  0  0  0  0  0  0  0  0  0  0  0
  139.7660   75.2490  219.3190 H   0  0  0  0  0  0  0  0  0  0  0  0
  137.7318   76.3714  219.7674 H   0  0  0  0  0  0  0  0  0  0  0  0
  137.3385   74.7841  220.5596 H   0  0  0  0  0  0  0  0  0  0  0  0
  136.8089   78.7387  222.0266 H   0  0  0  0  0  0  0  0  0  0  0  0
  137.8911   80.8588  222.7376 H   0  0  0  0  0  0  0  0  0  0  0  0
  139.9063   82.0336  223.5104 H   0  0  0  0  0  0  0  0  0  0  0  0
  143.5303   79.7307  224.0152 H   0  0  0  0  0  0  0  0  0  0  0  0
  142.3764   77.6448  223.2942 H   0  0  0  0  0  0  0  0  0  0  0  0
  138.4330   71.2065  222.1121 H   0  0  0  0  0  0  0  0  0  0  0  0
  136.9907   69.4477  223.1191 H   0  0  0  0  0  0  0  0  0  0  0  0
  1  2  1  0
  2  3  1  0
  2  4  1  0
  4  5  2  0
  5  6  1  0
  6  7  1  0
  7  8  1  0
  8  9  2  0
  8 10  1  0
 10 11  2  0
 11 12  1  0
 12 13  2  0
 13 14  1  0
 14 15  2  0
 15 16  1  0
 16 17  2  0
 16 18  1  0
 18 19  1  0
 19 20  1  0
 20 21  2  0
 20 22  1  0
 22 23  2  0
 23 24  1  0
 24 25  2  0
 25 26  1  0
 26 27  2  0
 27 28  1  0
 27 29  1  0
 29 30  2  0
 30 31  1  0
 31 32  2  0
  6 33  2  0
 33 34  1  0
 34 35  2  0
 35  4  1  0
 15 10  1  0
 32 22  1  0
 31 25  1  0
  1 36  1  0
  1 37  1  0
  1 38  1  0
  2 39  1  0
  3 40  1  0
  3 41  1  0
  3 42  1  0
  5 43  1  0
  7 44  1  0
 11 45  1  0
 12 46  1  0
 13 47  1  0
 14 48  1  0
 18 49  1  0
 19 50  1  0
 19 51  1  0
 23 52  1  0
 24 53  1  0
 26 54  1  0
 29 55  1  0
 30 56  1  0
 33 57  1  0
 34 58  1  0
M  END
>  <smiles>  (9) 
CC(C)c1cc(NC(=O)c2ccccc2C(=O)NCC(=O)c2ccc3cc(F)ccc3n2)ccn1

>  <score_type>  (9) 
oracle

>  <origin>  (9) 
autodockgpu

>  <m_score__min__energy>  (9) 
-9.8000000000000007

>  <m_primary>  (9) 
energy

>  <rmsd>  (9) 
9.397661927720675

>  <m_score__min__rmsd>  (9) 
9.397661927720675

>  <meeko>  (9) 
{"free_energy": -8.9, "intermolecular_energy": -10.99, "internal_energy": -2.16, "cluster_size": 4, "cluster_id": 5, "rank_in_cluster": 1}

>  <energy>  (9) 
-9.51

>  <cluster_rmsd>  (9) 
0.0

>  <cluster>  (9) 
2

$$$$

     RDKit          3D

 58 61  0  0  0  0  0  0  0  0999 V2000
  137.3240   78.5170  219.4400 C   0  0  0  0  0  0  0  0  0  0  0  0
  137.7600   79.9610  219.6680 C   0  0  0  0  0  0  0  0  0  0  0  0
  137.1810   80.8050  218.5660 C   0  0  0  0  0  0  0  0  0  0  0  0
  139.2500   80.0530  219.6760 C   0  0  0  0  0  0  0  0  0  0  0  0
  139.9680   78.9300  220.0150 C   0  0  0  0  0  0  0  0  0  0  0  0
  141.3370   79.0020  220.0070 C   0  0  0  0  0  0  0  0  0  0  0  0
  142.1730   77.8800  220.3300 N   0  0  0  0  0  0  0  0  0  0  0  0
  141.6830   76.6170  219.8630 C   0  0  0  0  0  0  0  0  0  0  0  0
  140.6100   76.4970  219.2230 O   0  0  0  0  0  0  0  0  0  0  0  0
  142.4890   75.4370  220.1600 C   0  0  0  0  0  0  0  0  0  0  0  0
  143.8520   75.5630  219.9870 C   0  0  0  0  0  0  0  0  0  0  0  0
  144.6570   74.4770  220.2550 C   0  0  0  0  0  0  0  0  0  0  0  0
  144.1630   73.2660  220.6900 C   0  0  0  0  0  0  0  0  0  0  0  0
  142.7710   73.1830  220.8530 C   0  0  0  0  0  0  0  0  0  0  0  0
  141.9400   74.2500  220.5940 C   0  0  0  0  0  0  0  0  0  0  0  0
  140.4730   74.0950  220.7770 C   0  0  0  0  0  0  0  0  0  0  0  0
  139.8820   73.0290  220.5660 O   0  0  0  0  0  0  0  0  0  0  0  0
  139.7080   75.2330  221.2150 N   0  0  0  0  0  0  0  0  0  0  0  0
  138.2850   75.1990  221.4250 C   0  0  0  0  0  0  0  0  0  0  0  0
  137.8320   76.2570  222.3460 C   0  0  0  0  0  0  0  0  0  0  0  0
  136.7020   76.0630  222.9160 O   0  0  0  0  0  0  0  0  0  0  0  0
  138.5250   77.4830  222.6730 C   0  0  0  0  0  0  0  0  0  0  0  0
  137.8300   78.6720  222.8460 C   0  0  0  0  0  0  0  0  0  0  0  0
  138.4760   79.8550  223.1780 C   0  0  0  0  0  0  0  0  0  0  0  0
  139.8540   79.8410  223.3390 C   0  0  0  0  0  0  0  0  0  0  0  0
  140.5320   80.9980  223.6680 C   0  0  0  0  0  0  0  0  0  0  0  0
  141.9180   80.8870  223.8090 C   0  0  0  0  0  0  0  0  0  0  0  0
  142.6300   82.0110  224.1350 F   0  0  0  0  0  0  0  0  0  0  0  0
  142.5790   79.6920  223.6310 C   0  0  0  0  0  0  0  0  0  0  0  0
  141.9050   78.5380  223.3030 C   0  0  0  0  0  0  0  0  0  0  0  0
  140.5280   78.6410  223.1620 C   0  0  0  0  0  0  0  0  0  0  0  0
  139.8520   77.5570  222.8470 N   0  0  0  0  0  0  0  0  0  0  0  0
  141.9540   80.2010  219.6570 C   0  0  0  0  0  0  0  0  0  0  0  0
  141.1700   81.3030  219.3240 C   0  0  0  0  0  0  0  0  0  0  0  0
  139.8130   81.2290  219.3330 N   0  0  0  0  0  0  0  0  0  0  0  0
  137.1744   78.0215  220.4106 H   0  0  0  0  0  0  0  0  0  0  0  0
  136.3818   78.5037  218.8725 H   0  0  0  0  0  0  0  0  0  0  0  0
  138.1014   77.9845  218.8725 H   0  0  0  0  0  0  0  0  0  0  0  0
  137.3964   80.3206  220.6419 H   0  0  0  0  0  0  0  0  0  0  0  0
  136.6100   81.6374  219.0031 H   0  0  0  0  0  0  0  0  0  0  0  0
  137.9954   81.2055  217.9444 H   0  0  0  0  0  0  0  0  0  0  0  0
  136.5142   80.1894  217.9444 H   0  0  0  0  0  0  0  0  0  0  0  0
  139.4555   77.9953  220.2864 H   0  0  0  0  0  0  0  0  0  0  0  0
  143.0560   77.9960  220.8570 H   0  0  0  0  0  0  0  0  0  0  0  0
  144.2878   76.5121  219.6418 H   0  0  0  0  0  0  0  0  0  0  0  0
  145.7431   74.5814  220.1154 H   0  0  0  0  0  0  0  0  0  0  0  0
  144.8233   72.4112  220.8981 H   0  0  0  0  0  0  0  0  0  0  0  0
  142.3305   72.2361  221.1984 H   0  0  0  0  0  0  0  0  0  0  0  0
  140.2680   76.0880  221.3980 H   0  0  0  0  0  0  0  0  0  0  0  0
  137.7808   75.3328  220.4565 H   0  0  0  0  0  0  0  0  0  0  0  0
  138.0337   74.2280  221.8768 H   0  0  0  0  0  0  0  0  0  0  0  0
  136.7377   78.6770  222.7165 H   0  0  0  0  0  0  0  0  0  0  0  0
  137.9059   80.7863  223.3110 H   0  0  0  0  0  0  0  0  0  0  0  0
  140.0095   81.9553  223.8114 H   0  0  0  0  0  0  0  0  0  0  0  0
  143.6716   79.6592  223.7539 H   0  0  0  0  0  0  0  0  0  0  0  0
  142.4308   77.5825  223.1598 H   0  0  0  0  0  0  0  0  0  0  0  0
  143.0513   80.2768  219.6437 H   0  0  0  0  0  0  0  0  0  0  0  0
  141.6577   82.2498  219.0489 H   0  0  0  0  0  0  0  0  0  0  0  0
  1  2  1  0
  2  3  1  0
  2  4  1  0
  4  5  2  0
  5  6  1  0
  6  7  1  0
  7  8  1  0
  8  9  2  0
  8 10  1  0
 10 11  2  0
 11 12  1  0
 12 13  2  0
 13 14  1  0
 14 15  2  0
 15 16  1  0
 16 17  2  0
 16 18  1  0
 18 19  1  0
 19 20  1  0
 20 21  2  0
 20 22  1  0
 22 23  2  0
 23 24  1  0
 24 25  2  0
 25 26  1  0
 26 27  2  0
 27 28  1  0
 27 29  1  0
 29 30  2  0
 30 31  1  0
 31 32  2  0
  6 33  2  0
 33 34  1  0
 34 35  2  0
 35  4  1  0
 15 10  1  0
 32 22  1  0
 31 25  1  0
  1 36  1  0
  1 37  1  0
  1 38  1  0
  2 39  1  0
  3 40  1  0
  3 41  1  0
  3 42  1  0
  5 43  1  0
  7 44  1  0
 11 45  1  0
 12 46  1  0
 13 47  1  0
 14 48  1  0
 18 49  1  0
 19 50  1  0
 19 51  1  0
 23 52  1  0
 24 53  1  0
 26 54  1  0
 29 55  1  0
 30 56  1  0
 33 57  1  0
 34 58  1  0
M  END
>  <smiles>  (10) 
CC(C)c1cc(NC(=O)c2ccccc2C(=O)NCC(=O)c2ccc3cc(F)ccc3n2)ccn1

>  <score_type>  (10) 
oracle

>  <origin>  (10) 
autodockgpu

>  <m_score__min__energy>  (10) 
-9.8000000000000007

>  <m_primary>  (10) 
energy

>  <rmsd>  (10) 
6.442943614283998

>  <m_score__min__rmsd>  (10) 
6.442943614283998

>  <meeko>  (10) 
{"free_energy": -6.47, "intermolecular_energy": -8.55, "internal_energy": -4.39, "cluster_size": 11, "cluster_id": 8, "rank_in_cluster": 11}

>  <energy>  (10) 
-9.36

>  <cluster_rmsd>  (10) 
1.05

>  <cluster>  (10) 
2

$$$$

     RDKit          3D

 58 61  0  0  0  0  0  0  0  0999 V2000
  140.5090   70.1830  227.5490 C   0  0  0  0  0  0  0  0  0  0  0  0
  139.6890   69.1360  226.8020 C   0  0  0  0  0  0  0  0  0  0  0  0
  140.5810   67.9610  226.5120 C   0  0  0  0  0  0  0  0  0  0  0  0
  139.1500   69.7140  225.5350 C   0  0  0  0  0  0  0  0  0  0  0  0
  139.8150   70.7800  224.9730 C   0  0  0  0  0  0  0  0  0  0  0  0
  139.3370   71.3030  223.7990 C   0  0  0  0  0  0  0  0  0  0  0  0
  139.9690   72.4030  223.1290 N   0  0  0  0  0  0  0  0  0  0  0  0
  140.6740   72.0480  221.9330 C   0  0  0  0  0  0  0  0  0  0  0  0
  140.7350   70.8710  221.5020 O   0  0  0  0  0  0  0  0  0  0  0  0
  141.3390   73.1240  221.2040 C   0  0  0  0  0  0  0  0  0  0  0  0
  142.7070   73.0170  221.0610 C   0  0  0  0  0  0  0  0  0  0  0  0
  143.3820   74.0070  220.3790 C   0  0  0  0  0  0  0  0  0  0  0  0
  142.7520   75.1040  219.8320 C   0  0  0  0  0  0  0  0  0  0  0  0
  141.3600   75.1720  220.0020 C   0  0  0  0  0  0  0  0  0  0  0  0
  140.6570   74.1990  220.6770 C   0  0  0  0  0  0  0  0  0  0  0  0
  139.1850   74.3340  220.8310 C   0  0  0  0  0  0  0  0  0  0  0  0
  138.3870   74.0020  219.9460 O   0  0  0  0  0  0  0  0  0  0  0  0
  138.6650   74.8750  222.0600 N   0  0  0  0  0  0  0  0  0  0  0  0
  137.2620   75.0520  222.3180 C   0  0  0  0  0  0  0  0  0  0  0  0
  136.8910   76.4730  222.4390 C   0  0  0  0  0  0  0  0  0  0  0  0
  135.6490   76.7470  222.2970 O   0  0  0  0  0  0  0  0  0  0  0  0
  137.7780   77.5850  222.6990 C   0  0  0  0  0  0  0  0  0  0  0  0
  137.2760   78.8500  222.9750 C   0  0  0  0  0  0  0  0  0  0  0  0
  138.1120   79.9260  223.2460 C   0  0  0  0  0  0  0  0  0  0  0  0
  139.4840   79.7240  223.2370 C   0  0  0  0  0  0  0  0  0  0  0  0
  140.3470   80.7690  223.5000 C   0  0  0  0  0  0  0  0  0  0  0  0
  141.7120   80.4710  223.4690 C   0  0  0  0  0  0  0  0  0  0  0  0
  142.6030   81.4790  223.7240 F   0  0  0  0  0  0  0  0  0  0  0  0
  142.1780   79.2050  223.1910 C   0  0  0  0  0  0  0  0  0  0  0  0
  141.3200   78.1620  222.9290 C   0  0  0  0  0  0  0  0  0  0  0  0
  139.9630   78.4510  222.9580 C   0  0  0  0  0  0  0  0  0  0  0  0
  139.1140   77.4780  222.7110 N   0  0  0  0  0  0  0  0  0  0  0  0
  138.2010   70.7440  223.2160 C   0  0  0  0  0  0  0  0  0  0  0  0
  137.5740   69.6660  223.8360 C   0  0  0  0  0  0  0  0  0  0  0  0
  138.0500   69.1480  224.9990 N   0  0  0  0  0  0  0  0  0  0  0  0
  140.3930   70.0348  228.6328 H   0  0  0  0  0  0  0  0  0  0  0  0
  141.5698   70.0808  227.2765 H   0  0  0  0  0  0  0  0  0  0  0  0
  140.1556   71.1884  227.2765 H   0  0  0  0  0  0  0  0  0  0  0  0
  138.8345   68.8120  227.4142 H   0  0  0  0  0  0  0  0  0  0  0  0
  140.9195   67.5151  227.4589 H   0  0  0  0  0  0  0  0  0  0  0  0
  140.0227   67.2110  225.9325 H   0  0  0  0  0  0  0  0  0  0  0  0
  141.4534   68.2972  225.9325 H   0  0  0  0  0  0  0  0  0  0  0  0
  140.7092   71.2026  225.4545 H   0  0  0  0  0  0  0  0  0  0  0  0
  139.9080   73.3700  223.4950 H   0  0  0  0  0  0  0  0  0  0  0  0
  143.2490   72.1579  221.4832 H   0  0  0  0  0  0  0  0  0  0  0  0
  144.4725   73.9173  220.2664 H   0  0  0  0  0  0  0  0  0  0  0  0
  143.3092   75.8835  219.2918 H   0  0  0  0  0  0  0  0  0  0  0  0
  140.8136   76.0297  219.5827 H   0  0  0  0  0  0  0  0  0  0  0  0
  139.3870   75.1100  222.7700 H   0  0  0  0  0  0  0  0  0  0  0  0
  136.6910   74.6065  221.4900 H   0  0  0  0  0  0  0  0  0  0  0  0
  137.0310   74.5610  223.2749 H   0  0  0  0  0  0  0  0  0  0  0  0
  136.1869   79.0043  222.9792 H   0  0  0  0  0  0  0  0  0  0  0  0
  137.6935   80.9197  223.4637 H   0  0  0  0  0  0  0  0  0  0  0  0
  139.9799   81.7819  223.7221 H   0  0  0  0  0  0  0  0  0  0  0  0
  143.2628   79.0234  223.1781 H   0  0  0  0  0  0  0  0  0  0  0  0
  141.6908   77.1503  222.7078 H   0  0  0  0  0  0  0  0  0  0  0  0
  137.8032   71.1507  222.2745 H   0  0  0  0  0  0  0  0  0  0  0  0
  136.6771   69.2257  223.3760 H   0  0  0  0  0  0  0  0  0  0  0  0
  1  2  1  0
  2  3  1  0
  2  4  1  0
  4  5  2  0
  5  6  1  0
  6  7  1  0
  7  8  1  0
  8  9  2  0
  8 10  1  0
 10 11  2  0
 11 12  1  0
 12 13  2  0
 13 14  1  0
 14 15  2  0
 15 16  1  0
 16 17  2  0
 16 18  1  0
 18 19  1  0
 19 20  1  0
 20 21  2  0
 20 22  1  0
 22 23  2  0
 23 24  1  0
 24 25  2  0
 25 26  1  0
 26 27  2  0
 27 28  1  0
 27 29  1  0
 29 30  2  0
 30 31  1  0
 31 32  2  0
  6 33  2  0
 33 34  1  0
 34 35  2  0
 35  4  1  0
 15 10  1  0
 32 22  1  0
 31 25  1  0
  1 36  1  0
  1 37  1  0
  1 38  1  0
  2 39  1  0
  3 40  1  0
  3 41  1  0
  3 42  1  0
  5 43  1  0
  7 44  1  0
 11 45  1  0
 12 46  1  0
 13 47  1  0
 14 48  1  0
 18 49  1  0
 19 50  1  0
 19 51  1  0
 23 52  1  0
 24 53  1  0
 26 54  1  0
 29 55  1  0
 30 56  1  0
 33 57  1  0
 34 58  1  0
M  END
>  <smiles>  (11) 
CC(C)c1cc(NC(=O)c2ccccc2C(=O)NCC(=O)c2ccc3cc(F)ccc3n2)ccn1

>  <score_type>  (11) 
oracle

>  <origin>  (11) 
autodockgpu

>  <m_score__min__energy>  (11) 
-9.8000000000000007

>  <m_primary>  (11) 
energy

>  <rmsd>  (11) 
9.070875706221358

>  <m_score__min__rmsd>  (11) 
9.070875706221358

>  <meeko>  (11) 
{"free_energy": -8.46, "intermolecular_energy": -10.55, "internal_energy": -2.29, "cluster_size": 4, "cluster_id": 5, "rank_in_cluster": 3}

>  <energy>  (11) 
-9.29

>  <cluster_rmsd>  (11) 
0.25

>  <cluster>  (11) 
2

$$$$

     RDKit          3D

 58 61  0  0  0  0  0  0  0  0999 V2000
  141.7240   79.2600  223.8900 C   0  0  0  0  0  0  0  0  0  0  0  0
  140.4740   79.4220  223.0310 C   0  0  0  0  0  0  0  0  0  0  0  0
  139.4030   80.0520  223.8760 C   0  0  0  0  0  0  0  0  0  0  0  0
  140.0270   78.0930  222.5170 C   0  0  0  0  0  0  0  0  0  0  0  0
  140.9670   77.2720  221.9380 C   0  0  0  0  0  0  0  0  0  0  0  0
  140.5670   76.0420  221.4810 C   0  0  0  0  0  0  0  0  0  0  0  0
  141.4750   75.1090  220.8770 N   0  0  0  0  0  0  0  0  0  0  0  0
  141.4180   73.7830  221.4200 C   0  0  0  0  0  0  0  0  0  0  0  0
  140.6370   73.4610  222.3480 O   0  0  0  0  0  0  0  0  0  0  0  0
  142.3180   72.7870  220.8460 C   0  0  0  0  0  0  0  0  0  0  0  0
  143.6570   73.1170  220.8080 C   0  0  0  0  0  0  0  0  0  0  0  0
  144.5480   72.2100  220.2770 C   0  0  0  0  0  0  0  0  0  0  0  0
  144.1630   70.9820  219.7810 C   0  0  0  0  0  0  0  0  0  0  0  0
  142.7910   70.6890  219.8410 C   0  0  0  0  0  0  0  0  0  0  0  0
  141.8760   71.5740  220.3650 C   0  0  0  0  0  0  0  0  0  0  0  0
  140.4360   71.2080  220.3910 C   0  0  0  0  0  0  0  0  0  0  0  0
  139.6050   71.7090  219.6240 O   0  0  0  0  0  0  0  0  0  0  0  0
  139.9880   70.2300  221.3480 N   0  0  0  0  0  0  0  0  0  0  0  0
  138.6210   69.8010  221.4630 C   0  0  0  0  0  0  0  0  0  0  0  0
  138.3750   69.0500  222.7080 C   0  0  0  0  0  0  0  0  0  0  0  0
  137.6090   68.0290  222.6100 O   0  0  0  0  0  0  0  0  0  0  0  0
  138.9050   69.3430  224.0210 C   0  0  0  0  0  0  0  0  0  0  0  0
  138.6520   68.5030  225.0970 C   0  0  0  0  0  0  0  0  0  0  0  0
  139.1680   68.7580  226.3610 C   0  0  0  0  0  0  0  0  0  0  0  0
  139.9560   69.8850  226.5460 C   0  0  0  0  0  0  0  0  0  0  0  0
  140.4850   70.1720  227.7880 C   0  0  0  0  0  0  0  0  0  0  0  0
  141.2650   71.3280  227.8790 C   0  0  0  0  0  0  0  0  0  0  0  0
  141.8100   71.6510  229.0930 F   0  0  0  0  0  0  0  0  0  0  0  0
  141.4970   72.1420  226.7910 C   0  0  0  0  0  0  0  0  0  0  0  0
  140.9700   71.8570  225.5520 C   0  0  0  0  0  0  0  0  0  0  0  0
  140.1950   70.7100  225.4560 C   0  0  0  0  0  0  0  0  0  0  0  0
  139.6740   70.4070  224.2860 N   0  0  0  0  0  0  0  0  0  0  0  0
  139.2320   75.6660  221.6160 C   0  0  0  0  0  0  0  0  0  0  0  0
  138.3300   76.5440  222.2110 C   0  0  0  0  0  0  0  0  0  0  0  0
  138.7280   77.7620  222.6640 N   0  0  0  0  0  0  0  0  0  0  0  0
  141.4453   79.2961  224.9535 H   0  0  0  0  0  0  0  0  0  0  0  0
  142.1987   78.2928  223.6680 H   0  0  0  0  0  0  0  0  0  0  0  0
  142.4295   80.0742  223.6680 H   0  0  0  0  0  0  0  0  0  0  0  0
  140.6879   80.0629  222.1630 H   0  0  0  0  0  0  0  0  0  0  0  0
  139.6443   79.9100  224.9398 H   0  0  0  0  0  0  0  0  0  0  0  0
  139.3457   81.1277  223.6534 H   0  0  0  0  0  0  0  0  0  0  0  0
  138.4349   79.5794  223.6534 H   0  0  0  0  0  0  0  0  0  0  0  0
  142.0145   77.5943  221.8438 H   0  0  0  0  0  0  0  0  0  0  0  0
  142.1110   75.3900  220.1100 H   0  0  0  0  0  0  0  0  0  0  0  0
  144.0067   74.0858  221.1943 H   0  0  0  0  0  0  0  0  0  0  0  0
  145.6146   72.4774  220.2473 H   0  0  0  0  0  0  0  0  0  0  0  0
  144.8905   70.2714  219.3616 H   0  0  0  0  0  0  0  0  0  0  0  0
  142.4360   69.7213  219.4570 H   0  0  0  0  0  0  0  0  0  0  0  0
  140.7400   69.8300  221.9440 H   0  0  0  0  0  0  0  0  0  0  0  0
  137.9694   70.6872  221.4494 H   0  0  0  0  0  0  0  0  0  0  0  0
  138.4051   69.1318  220.6171 H   0  0  0  0  0  0  0  0  0  0  0  0
  138.0260   67.6115  224.9443 H   0  0  0  0  0  0  0  0  0  0  0  0
  138.9559   68.0790  227.2000 H   0  0  0  0  0  0  0  0  0  0  0  0
  140.3025   69.5257  228.6592 H   0  0  0  0  0  0  0  0  0  0  0  0
  142.1183   73.0410  226.9161 H   0  0  0  0  0  0  0  0  0  0  0  0
  141.1537   72.5052  224.6825 H   0  0  0  0  0  0  0  0  0  0  0  0
  138.8935   74.6835  221.2554 H   0  0  0  0  0  0  0  0  0  0  0  0
  137.2762   76.2465  222.3163 H   0  0  0  0  0  0  0  0  0  0  0  0
  1  2  1  0
  2  3  1  0
  2  4  1  0
  4  5  2  0
  5  6  1  0
  6  7  1  0
  7  8  1  0
  8  9  2  0
  8 10  1  0
 10 11  2  0
 11 12  1  0
 12 13  2  0
 13 14  1  0
 14 15  2  0
 15 16  1  0
 16 17  2  0
 16 18  1  0
 18 19  1  0
 19 20  1  0
 20 21  2  0
 20 22  1  0
 22 23  2  0
 23 24  1  0
 24 25  2  0
 25 26  1  0
 26 27  2  0
 27 28  1  0
 27 29  1  0
 29 30  2  0
 30 31  1  0
 31 32  2  0
  6 33  2  0
 33 34  1  0
 34 35  2  0
 35  4  1  0
 15 10  1  0
 32 22  1  0
 31 25  1  0
  1 36  1  0
  1 37  1  0
  1 38  1  0
  2 39  1  0
  3 40  1  0
  3 41  1  0
  3 42  1  0
  5 43  1  0
  7 44  1  0
 11 45  1  0
 12 46  1  0
 13 47  1  0
 14 48  1  0
 18 49  1  0
 19 50  1  0
 19 51  1  0
 23 52  1  0
 24 53  1  0
 26 54  1  0
 29 55  1  0
 30 56  1  0
 33 57  1  0
 34 58  1  0
M  END
>  <smiles>  (12) 
CC(C)c1cc(NC(=O)c2ccccc2C(=O)NCC(=O)c2ccc3cc(F)ccc3n2)ccn1

>  <score_type>  (12) 
oracle

>  <origin>  (12) 
autodockgpu

>  <m_score__min__energy>  (12) 
-9.8000000000000007

>  <m_primary>  (12) 
energy

>  <rmsd>  (12) 
8.2422766278549

>  <m_score__min__rmsd>  (12) 
8.2422766278549

>  <meeko>  (12) 
{"free_energy": -8.68, "intermolecular_energy": -10.77, "internal_energy": -1.86, "cluster_size": 8, "cluster_id": 1, "rank_in_cluster": 6}

>  <energy>  (12) 
-9.29

>  <cluster_rmsd>  (12) 
1.16

>  <cluster>  (12) 
2

$$$$

     RDKit          3D

 58 61  0  0  0  0  0  0  0  0999 V2000
  132.2300   68.9810  225.5650 C   0  0  0  0  0  0  0  0  0  0  0  0
  132.8900   67.7300  224.9940 C   0  0  0  0  0  0  0  0  0  0  0  0
  133.1610   66.7830  226.1300 C   0  0  0  0  0  0  0  0  0  0  0  0
  134.1590   68.0920  224.2950 C   0  0  0  0  0  0  0  0  0  0  0  0
  135.0420   68.9250  224.9430 C   0  0  0  0  0  0  0  0  0  0  0  0
  136.2180   69.2470  224.3150 C   0  0  0  0  0  0  0  0  0  0  0  0
  137.2080   70.0940  224.9160 N   0  0  0  0  0  0  0  0  0  0  0  0
  138.3670   69.4060  225.4030 C   0  0  0  0  0  0  0  0  0  0  0  0
  138.5090   68.1620  225.3120 O   0  0  0  0  0  0  0  0  0  0  0  0
  139.4130   70.2130  226.0240 C   0  0  0  0  0  0  0  0  0  0  0  0
  139.6370   70.0010  227.3680 C   0  0  0  0  0  0  0  0  0  0  0  0
  140.6140   70.7370  228.0020 C   0  0  0  0  0  0  0  0  0  0  0  0
  141.3810   71.6810  227.3530 C   0  0  0  0  0  0  0  0  0  0  0  0
  141.1190   71.8640  225.9860 C   0  0  0  0  0  0  0  0  0  0  0  0
  140.1500   71.1430  225.3250 C   0  0  0  0  0  0  0  0  0  0  0  0
  139.9140   71.3910  223.8780 C   0  0  0  0  0  0  0  0  0  0  0  0
  140.7770   71.1870  223.0150 O   0  0  0  0  0  0  0  0  0  0  0  0
  138.6290   71.8910  223.4630 N   0  0  0  0  0  0  0  0  0  0  0  0
  138.2900   72.1670  222.0930 C   0  0  0  0  0  0  0  0  0  0  0  0
  136.8840   72.5820  221.9390 C   0  0  0  0  0  0  0  0  0  0  0  0
  136.3960   72.4960  220.7600 O   0  0  0  0  0  0  0  0  0  0  0  0
  136.0020   73.0720  222.9760 C   0  0  0  0  0  0  0  0  0  0  0  0
  135.5720   74.3910  222.9820 C   0  0  0  0  0  0  0  0  0  0  0  0
  134.7100   74.8750  223.9580 C   0  0  0  0  0  0  0  0  0  0  0  0
  134.2730   74.0100  224.9510 C   0  0  0  0  0  0  0  0  0  0  0  0
  133.4180   74.4550  225.9390 C   0  0  0  0  0  0  0  0  0  0  0  0
  133.0320   73.5140  226.8970 C   0  0  0  0  0  0  0  0  0  0  0  0
  132.1840   73.9120  227.8950 F   0  0  0  0  0  0  0  0  0  0  0  0
  133.4770   72.2100  226.8630 C   0  0  0  0  0  0  0  0  0  0  0  0
  134.3300   71.7650  225.8790 C   0  0  0  0  0  0  0  0  0  0  0  0
  134.7170   72.6960  224.9250 C   0  0  0  0  0  0  0  0  0  0  0  0
  135.5330   72.3050  223.9700 N   0  0  0  0  0  0  0  0  0  0  0  0
  136.4800   68.7240  223.0510 C   0  0  0  0  0  0  0  0  0  0  0  0
  135.5440   67.8860  222.4490 C   0  0  0  0  0  0  0  0  0  0  0  0
  134.3800   67.5690  223.0720 N   0  0  0  0  0  0  0  0  0  0  0  0
  132.2525   68.9383  226.6639 H   0  0  0  0  0  0  0  0  0  0  0  0
  132.7751   69.8725  225.2214 H   0  0  0  0  0  0  0  0  0  0  0  0
  131.1864   69.0343  225.2214 H   0  0  0  0  0  0  0  0  0  0  0  0
  132.2270   67.2497  224.2594 H   0  0  0  0  0  0  0  0  0  0  0  0
  133.0115   67.3054  227.0864 H   0  0  0  0  0  0  0  0  0  0  0  0
  132.4714   65.9283  226.0673 H   0  0  0  0  0  0  0  0  0  0  0  0
  134.1984   66.4225  226.0673 H   0  0  0  0  0  0  0  0  0  0  0  0
  134.8100   69.3235  225.9417 H   0  0  0  0  0  0  0  0  0  0  0  0
  137.0780   71.1190  224.9810 H   0  0  0  0  0  0  0  0  0  0  0  0
  139.0464   69.2578  227.9238 H   0  0  0  0  0  0  0  0  0  0  0  0
  140.7899   70.5637  229.0739 H   0  0  0  0  0  0  0  0  0  0  0  0
  142.1559   72.2592  227.8776 H   0  0  0  0  0  0  0  0  0  0  0  0
  141.7061   72.6065  225.4256 H   0  0  0  0  0  0  0  0  0  0  0  0
  137.9430   72.0170  224.2330 H   0  0  0  0  0  0  0  0  0  0  0  0
  138.9398   72.9738  221.7231 H   0  0  0  0  0  0  0  0  0  0  0  0
  138.4333   71.2409  221.5170 H   0  0  0  0  0  0  0  0  0  0  0  0
  135.9231   75.0719  222.1926 H   0  0  0  0  0  0  0  0  0  0  0  0
  134.3801   75.9243  223.9438 H   0  0  0  0  0  0  0  0  0  0  0  0
  133.0598   75.4946  225.9705 H   0  0  0  0  0  0  0  0  0  0  0  0
  133.1423   71.5081  227.6411 H   0  0  0  0  0  0  0  0  0  0  0  0
  134.6868   70.7249  225.8500 H   0  0  0  0  0  0  0  0  0  0  0  0
  137.4182   68.9706  222.5324 H   0  0  0  0  0  0  0  0  0  0  0  0
  135.7518   67.4736  221.4506 H   0  0  0  0  0  0  0  0  0  0  0  0
  1  2  1  0
  2  3  1  0
  2  4  1  0
  4  5  2  0
  5  6  1  0
  6  7  1  0
  7  8  1  0
  8  9  2  0
  8 10  1  0
 10 11  2  0
 11 12  1  0
 12 13  2  0
 13 14  1  0
 14 15  2  0
 15 16  1  0
 16 17  2  0
 16 18  1  0
 18 19  1  0
 19 20  1  0
 20 21  2  0
 20 22  1  0
 22 23  2  0
 23 24  1  0
 24 25  2  0
 25 26  1  0
 26 27  2  0
 27 28  1  0
 27 29  1  0
 29 30  2  0
 30 31  1  0
 31 32  2  0
  6 33  2  0
 33 34  1  0
 34 35  2  0
 35  4  1  0
 15 10  1  0
 32 22  1  0
 31 25  1  0
  1 36  1  0
  1 37  1  0
  1 38  1  0
  2 39  1  0
  3 40  1  0
  3 41  1  0
  3 42  1  0
  5 43  1  0
  7 44  1  0
 11 45  1  0
 12 46  1  0
 13 47  1  0
 14 48  1  0
 18 49  1  0
 19 50  1  0
 19 51  1  0
 23 52  1  0
 24 53  1  0
 26 54  1  0
 29 55  1  0
 30 56  1  0
 33 57  1  0
 34 58  1  0
M  END
>  <smiles>  (13) 
CC(C)c1cc(NC(=O)c2ccccc2C(=O)NCC(=O)c2ccc3cc(F)ccc3n2)ccn1

>  <score_type>  (13) 
oracle

>  <origin>  (13) 
autodockgpu

>  <m_score__min__energy>  (13) 
-9.8000000000000007

>  <m_primary>  (13) 
energy

>  <rmsd>  (13) 
12.22472598229051

>  <m_score__min__rmsd>  (13) 
12.22472598229051

>  <meeko>  (13) 
{"free_energy": -7.57, "intermolecular_energy": -9.66, "internal_energy": -3.59, "cluster_size": 1, "cluster_id": 9, "rank_in_cluster": 1}

>  <energy>  (13) 
-9.16

>  <cluster_rmsd>  (13) 
1.0

>  <cluster>  (13) 
2

$$$$

     RDKit          3D

 58 61  0  0  0  0  0  0  0  0999 V2000
  140.6710   71.6050  222.4590 C   0  0  0  0  0  0  0  0  0  0  0  0
  140.7370   71.7090  220.9390 C   0  0  0  0  0  0  0  0  0  0  0  0
  142.1260   71.3340  220.5020 C   0  0  0  0  0  0  0  0  0  0  0  0
  140.4050   73.0980  220.5030 C   0  0  0  0  0  0  0  0  0  0  0  0
  141.1500   74.1350  221.0170 C   0  0  0  0  0  0  0  0  0  0  0  0
  140.8630   75.4120  220.6070 C   0  0  0  0  0  0  0  0  0  0  0  0
  141.5930   76.5560  221.0730 N   0  0  0  0  0  0  0  0  0  0  0  0
  140.8210   77.4850  221.8430 C   0  0  0  0  0  0  0  0  0  0  0  0
  139.6020   77.3140  222.0930 O   0  0  0  0  0  0  0  0  0  0  0  0
  141.5080   78.6700  222.3470 C   0  0  0  0  0  0  0  0  0  0  0  0
  141.8170   78.6770  223.6910 C   0  0  0  0  0  0  0  0  0  0  0  0
  142.4670   79.7730  224.2160 C   0  0  0  0  0  0  0  0  0  0  0  0
  142.8250   80.8670  223.4580 C   0  0  0  0  0  0  0  0  0  0  0  0
  142.4910   80.8170  222.0950 C   0  0  0  0  0  0  0  0  0  0  0  0
  141.8420   79.7360  221.5410 C   0  0  0  0  0  0  0  0  0  0  0  0
  141.5070   79.7480  220.0930 C   0  0  0  0  0  0  0  0  0  0  0  0
  140.6620   80.5110  219.6080 O   0  0  0  0  0  0  0  0  0  0  0  0
  142.1930   78.8330  219.2180 N   0  0  0  0  0  0  0  0  0  0  0  0
  141.9500   78.7560  217.8020 C   0  0  0  0  0  0  0  0  0  0  0  0
  141.7460   77.3690  217.3460 C   0  0  0  0  0  0  0  0  0  0  0  0
  140.7680   77.1760  216.5440 O   0  0  0  0  0  0  0  0  0  0  0  0
  142.5320   76.2100  217.7060 C   0  0  0  0  0  0  0  0  0  0  0  0
  142.6360   75.1230  216.8490 C   0  0  0  0  0  0  0  0  0  0  0  0
  143.4010   74.0090  217.1700 C   0  0  0  0  0  0  0  0  0  0  0  0
  144.0770   73.9890  218.3810 C   0  0  0  0  0  0  0  0  0  0  0  0
  144.8450   72.8990  218.7360 C   0  0  0  0  0  0  0  0  0  0  0  0
  145.4880   72.9680  219.9750 C   0  0  0  0  0  0  0  0  0  0  0  0
  146.2620   71.9080  220.3660 F   0  0  0  0  0  0  0  0  0  0  0  0
  145.3650   74.0620  220.8030 C   0  0  0  0  0  0  0  0  0  0  0  0
  144.5990   75.1500  220.4510 C   0  0  0  0  0  0  0  0  0  0  0  0
  143.9580   75.0870  219.2220 C   0  0  0  0  0  0  0  0  0  0  0  0
  143.2160   76.1090  218.8540 N   0  0  0  0  0  0  0  0  0  0  0  0
  139.8340   75.6180  219.6900 C   0  0  0  0  0  0  0  0  0  0  0  0
  139.1170   74.5250  219.2080 C   0  0  0  0  0  0  0  0  0  0  0  0
  139.4030   73.2610  219.6150 N   0  0  0  0  0  0  0  0  0  0  0  0
  141.2090   72.4528  222.9082 H   0  0  0  0  0  0  0  0  0  0  0  0
  139.6199   71.6248  222.7826 H   0  0  0  0  0  0  0  0  0  0  0  0
  141.1365   70.6624  222.7826 H   0  0  0  0  0  0  0  0  0  0  0  0
  140.0057   71.0283  220.4788 H   0  0  0  0  0  0  0  0  0  0  0  0
  142.7557   71.1640  221.3878 H   0  0  0  0  0  0  0  0  0  0  0  0
  142.0851   70.4147  219.8993 H   0  0  0  0  0  0  0  0  0  0  0  0
  142.5533   72.1489  219.8993 H   0  0  0  0  0  0  0  0  0  0  0  0
  141.9568   73.9440  221.7398 H   0  0  0  0  0  0  0  0  0  0  0  0
  142.5990   76.6810  220.8610 H   0  0  0  0  0  0  0  0  0  0  0  0
  141.5497   77.8239  224.3319 H   0  0  0  0  0  0  0  0  0  0  0  0
  142.7111   79.7747  225.2886 H   0  0  0  0  0  0  0  0  0  0  0  0
  143.3440   81.7320  223.8967 H   0  0  0  0  0  0  0  0  0  0  0  0
  142.7559   81.6676  221.4498 H   0  0  0  0  0  0  0  0  0  0  0  0
  142.9060   78.2390  219.6840 H   0  0  0  0  0  0  0  0  0  0  0  0
  141.0503   79.3427  217.5647 H   0  0  0  0  0  0  0  0  0  0  0  0
  142.8358   79.1542  217.2855 H   0  0  0  0  0  0  0  0  0  0  0  0
  142.0981   75.1444  215.8898 H   0  0  0  0  0  0  0  0  0  0  0  0
  143.4695   73.1580  216.4764 H   0  0  0  0  0  0  0  0  0  0  0  0
  144.9458   72.0226  218.0789 H   0  0  0  0  0  0  0  0  0  0  0  0
  145.8916   74.0662  221.7687 H   0  0  0  0  0  0  0  0  0  0  0  0
  144.5000   76.0249  221.1104 H   0  0  0  0  0  0  0  0  0  0  0  0
  139.5899   76.6351  219.3496 H   0  0  0  0  0  0  0  0  0  0  0  0
  138.3046   74.6886  218.4847 H   0  0  0  0  0  0  0  0  0  0  0  0
  1  2  1  0
  2  3  1  0
  2  4  1  0
  4  5  2  0
  5  6  1  0
  6  7  1  0
  7  8  1  0
  8  9  2  0
  8 10  1  0
 10 11  2  0
 11 12  1  0
 12 13  2  0
 13 14  1  0
 14 15  2  0
 15 16  1  0
 16 17  2  0
 16 18  1  0
 18 19  1  0
 19 20  1  0
 20 21  2  0
 20 22  1  0
 22 23  2  0
 23 24  1  0
 24 25  2  0
 25 26  1  0
 26 27  2  0
 27 28  1  0
 27 29  1  0
 29 30  2  0
 30 31  1  0
 31 32  2  0
  6 33  2  0
 33 34  1  0
 34 35  2  0
 35  4  1  0
 15 10  1  0
 32 22  1  0
 31 25  1  0
  1 36  1  0
  1 37  1  0
  1 38  1  0
  2 39  1  0
  3 40  1  0
  3 41  1  0
  3 42  1  0
  5 43  1  0
  7 44  1  0
 11 45  1  0
 12 46  1  0
 13 47  1  0
 14 48  1  0
 18 49  1  0
 19 50  1  0
 19 51  1  0
 23 52  1  0
 24 53  1  0
 26 54  1  0
 29 55  1  0
 30 56  1  0
 33 57  1  0
 34 58  1  0
M  END
>  <smiles>  (14) 
CC(C)c1cc(NC(=O)c2ccccc2C(=O)NCC(=O)c2ccc3cc(F)ccc3n2)ccn1

>  <score_type>  (14) 
oracle

>  <origin>  (14) 
autodockgpu

>  <m_score__min__energy>  (14) 
-9.8000000000000007

>  <m_primary>  (14) 
energy

>  <rmsd>  (14) 
4.493810541870629

>  <m_score__min__rmsd>  (14) 
4.493810541870629

>  <meeko>  (14) 
{"free_energy": -6.86, "intermolecular_energy": -8.95, "internal_energy": -4.53, "cluster_size": 3, "cluster_id": 11, "rank_in_cluster": 2}

>  <energy>  (14) 
-9.1

>  <cluster_rmsd>  (14) 
1.25

>  <cluster>  (14) 
2

$$$$

     RDKit          3D

 58 61  0  0  0  0  0  0  0  0999 V2000
  137.4810   80.7800  224.5010 C   0  0  0  0  0  0  0  0  0  0  0  0
  138.3840   81.2900  223.3840 C   0  0  0  0  0  0  0  0  0  0  0  0
  137.5520   81.4490  222.1420 C   0  0  0  0  0  0  0  0  0  0  0  0
  139.5040   80.3310  223.1490 C   0  0  0  0  0  0  0  0  0  0  0  0
  139.6800   79.8390  221.8760 C   0  0  0  0  0  0  0  0  0  0  0  0
  140.7180   78.9710  221.6480 C   0  0  0  0  0  0  0  0  0  0  0  0
  140.9920   78.4170  220.3530 N   0  0  0  0  0  0  0  0  0  0  0  0
  141.8310   79.2300  219.5210 C   0  0  0  0  0  0  0  0  0  0  0  0
  142.2900   80.3370  219.8940 O   0  0  0  0  0  0  0  0  0  0  0  0
  142.1480   78.7210  218.1910 C   0  0  0  0  0  0  0  0  0  0  0  0
  141.9090   79.5730  217.1330 C   0  0  0  0  0  0  0  0  0  0  0  0
  142.1920   79.1400  215.8560 C   0  0  0  0  0  0  0  0  0  0  0  0
  142.7070   77.8900  215.5840 C   0  0  0  0  0  0  0  0  0  0  0  0
  142.9350   77.0560  216.6910 C   0  0  0  0  0  0  0  0  0  0  0  0
  142.6620   77.4600  217.9790 C   0  0  0  0  0  0  0  0  0  0  0  0
  142.9160   76.5270  219.1070 C   0  0  0  0  0  0  0  0  0  0  0  0
  144.0430   76.3440  219.5830 O   0  0  0  0  0  0  0  0  0  0  0  0
  141.8050   75.8030  219.6700 N   0  0  0  0  0  0  0  0  0  0  0  0
  141.9340   74.8760  220.7610 C   0  0  0  0  0  0  0  0  0  0  0  0
  140.6830   74.7420  221.5290 C   0  0  0  0  0  0  0  0  0  0  0  0
  140.5820   73.7020  222.2680 O   0  0  0  0  0  0  0  0  0  0  0  0
  139.5630   75.6570  221.5370 C   0  0  0  0  0  0  0  0  0  0  0  0
  138.9080   75.9740  222.7190 C   0  0  0  0  0  0  0  0  0  0  0  0
  137.8430   76.8650  222.7490 C   0  0  0  0  0  0  0  0  0  0  0  0
  137.4290   77.4510  221.5610 C   0  0  0  0  0  0  0  0  0  0  0  0
  136.3740   78.3400  221.5510 C   0  0  0  0  0  0  0  0  0  0  0  0
  136.0270   78.8800  220.3090 C   0  0  0  0  0  0  0  0  0  0  0  0
  134.9860   79.7670  220.2530 F   0  0  0  0  0  0  0  0  0  0  0  0
  136.6980   78.5450  219.1530 C   0  0  0  0  0  0  0  0  0  0  0  0
  137.7510   77.6580  219.1620 C   0  0  0  0  0  0  0  0  0  0  0  0
  138.0990   77.1200  220.3930 C   0  0  0  0  0  0  0  0  0  0  0  0
  139.1000   76.2670  220.4370 N   0  0  0  0  0  0  0  0  0  0  0  0
  141.5540   78.6180  222.7040 C   0  0  0  0  0  0  0  0  0  0  0  0
  141.3210   79.1500  223.9700 C   0  0  0  0  0  0  0  0  0  0  0  0
  140.2930   80.0100  224.1940 N   0  0  0  0  0  0  0  0  0  0  0  0
  137.9255   81.0311  225.4753 H   0  0  0  0  0  0  0  0  0  0  0  0
  136.4912   81.2525  224.4169 H   0  0  0  0  0  0  0  0  0  0  0  0
  137.3746   79.6884  224.4169 H   0  0  0  0  0  0  0  0  0  0  0  0
  138.8241   82.2588  223.6628 H   0  0  0  0  0  0  0  0  0  0  0  0
  136.5075   81.6486  222.4234 H   0  0  0  0  0  0  0  0  0  0  0  0
  137.9384   82.2895  221.5469 H   0  0  0  0  0  0  0  0  0  0  0  0
  137.6013   80.5252  221.5469 H   0  0  0  0  0  0  0  0  0  0  0  0
  139.0042   80.1347  221.0600 H   0  0  0  0  0  0  0  0  0  0  0  0
  140.6080   77.5020  220.0610 H   0  0  0  0  0  0  0  0  0  0  0  0
  141.5000   80.5795  217.3055 H   0  0  0  0  0  0  0  0  0  0  0  0
  141.9984   79.8224  215.0153 H   0  0  0  0  0  0  0  0  0  0  0  0
  142.9271   77.5640  214.5567 H   0  0  0  0  0  0  0  0  0  0  0  0
  143.3444   76.0488  216.5239 H   0  0  0  0  0  0  0  0  0  0  0  0
  140.8840   76.0210  219.2420 H   0  0  0  0  0  0  0  0  0  0  0  0
  142.2093   73.8903  220.3576 H   0  0  0  0  0  0  0  0  0  0  0  0
  142.7081   75.2608  221.4412 H   0  0  0  0  0  0  0  0  0  0  0  0
  139.2414   75.5069  223.6574 H   0  0  0  0  0  0  0  0  0  0  0  0
  137.3371   77.1018  223.6966 H   0  0  0  0  0  0  0  0  0  0  0  0
  135.8347   78.6095  222.4711 H   0  0  0  0  0  0  0  0  0  0  0  0
  136.3849   78.9970  218.2003 H   0  0  0  0  0  0  0  0  0  0  0  0
  138.2888   77.3896  218.2408 H   0  0  0  0  0  0  0  0  0  0  0  0
  142.3919   77.9244  222.5398 H   0  0  0  0  0  0  0  0  0  0  0  0
  141.9812   78.8688  224.8037 H   0  0  0  0  0  0  0  0  0  0  0  0
  1  2  1  0
  2  3  1  0
  2  4  1  0
  4  5  2  0
  5  6  1  0
  6  7  1  0
  7  8  1  0
  8  9  2  0
  8 10  1  0
 10 11  2  0
 11 12  1  0
 12 13  2  0
 13 14  1  0
 14 15  2  0
 15 16  1  0
 16 17  2  0
 16 18  1  0
 18 19  1  0
 19 20  1  0
 20 21  2  0
 20 22  1  0
 22 23  2  0
 23 24  1  0
 24 25  2  0
 25 26  1  0
 26 27  2  0
 27 28  1  0
 27 29  1  0
 29 30  2  0
 30 31  1  0
 31 32  2  0
  6 33  2  0
 33 34  1  0
 34 35  2  0
 35  4  1  0
 15 10  1  0
 32 22  1  0
 31 25  1  0
  1 36  1  0
  1 37  1  0
  1 38  1  0
  2 39  1  0
  3 40  1  0
  3 41  1  0
  3 42  1  0
  5 43  1  0
  7 44  1  0
 11 45  1  0
 12 46  1  0
 13 47  1  0
 14 48  1  0
 18 49  1  0
 19 50  1  0
 19 51  1  0
 23 52  1  0
 24 53  1  0
 26 54  1  0
 29 55  1  0
 30 56  1  0
 33 57  1  0
 34 58  1  0
M  END
>  <smiles>  (15) 
CC(C)c1cc(NC(=O)c2ccccc2C(=O)NCC(=O)c2ccc3cc(F)ccc3n2)ccn1

>  <score_type>  (15) 
oracle

>  <origin>  (15) 
autodockgpu

>  <m_score__min__energy>  (15) 
-9.8000000000000007

>  <m_primary>  (15) 
energy

>  <rmsd>  (15) 
6.632398604088807

>  <m_score__min__rmsd>  (15) 
6.632398604088807

>  <meeko>  (15) 
{"free_energy": -5.25, "intermolecular_energy": -7.34, "internal_energy": -4.87, "cluster_size": 1, "cluster_id": 14, "rank_in_cluster": 1}

>  <energy>  (15) 
-8.92

>  <cluster_rmsd>  (15) 
1.42

>  <cluster>  (15) 
2

$$$$

     RDKit          3D

 58 61  0  0  0  0  0  0  0  0999 V2000
  141.9000   70.3770  219.7790 C   0  0  0  0  0  0  0  0  0  0  0  0
  143.3100   70.6270  219.2550 C   0  0  0  0  0  0  0  0  0  0  0  0
  144.1820   69.4820  219.6910 C   0  0  0  0  0  0  0  0  0  0  0  0
  143.8350   71.9200  219.7860 C   0  0  0  0  0  0  0  0  0  0  0  0
  142.9400   72.9410  220.0090 C   0  0  0  0  0  0  0  0  0  0  0  0
  143.4130   74.1250  220.5130 C   0  0  0  0  0  0  0  0  0  0  0  0
  142.5560   75.2420  220.7940 N   0  0  0  0  0  0  0  0  0  0  0  0
  141.3980   74.9250  221.5760 C   0  0  0  0  0  0  0  0  0  0  0  0
  141.1490   73.7640  221.9840 O   0  0  0  0  0  0  0  0  0  0  0  0
  140.4870   76.0190  221.8960 C   0  0  0  0  0  0  0  0  0  0  0  0
  141.0550   77.1550  222.4350 C   0  0  0  0  0  0  0  0  0  0  0  0
  140.2370   78.2180  222.7540 C   0  0  0  0  0  0  0  0  0  0  0  0
  138.8720   78.1990  222.5590 C   0  0  0  0  0  0  0  0  0  0  0  0
  138.3380   77.0240  222.0080 C   0  0  0  0  0  0  0  0  0  0  0  0
  139.1280   75.9450  221.6790 C   0  0  0  0  0  0  0  0  0  0  0  0
  138.5000   74.7250  221.1080 C   0  0  0  0  0  0  0  0  0  0  0  0
  138.2400   74.6070  219.9040 O   0  0  0  0  0  0  0  0  0  0  0  0
  138.1770   73.6360  221.9920 N   0  0  0  0  0  0  0  0  0  0  0  0
  137.5680   72.4100  221.5520 C   0  0  0  0  0  0  0  0  0  0  0  0
  138.4400   71.2420  221.7740 C   0  0  0  0  0  0  0  0  0  0  0  0
  138.8560   70.6400  220.7240 O   0  0  0  0  0  0  0  0  0  0  0  0
  138.8720   70.7080  223.0460 C   0  0  0  0  0  0  0  0  0  0  0  0
  138.5990   69.3940  223.3990 C   0  0  0  0  0  0  0  0  0  0  0  0
  139.0220   68.8580  224.6090 C   0  0  0  0  0  0  0  0  0  0  0  0
  139.7370   69.6640  225.4820 C   0  0  0  0  0  0  0  0  0  0  0  0
  140.1730   69.1680  226.6940 C   0  0  0  0  0  0  0  0  0  0  0  0
  140.8850   70.0530  227.5090 C   0  0  0  0  0  0  0  0  0  0  0  0
  141.3360   69.6010  228.7200 F   0  0  0  0  0  0  0  0  0  0  0  0
  141.1390   71.3520  227.1300 C   0  0  0  0  0  0  0  0  0  0  0  0
  140.7050   71.8490  225.9220 C   0  0  0  0  0  0  0  0  0  0  0  0
  139.9980   70.9750  225.1080 C   0  0  0  0  0  0  0  0  0  0  0  0
  139.5670   71.4170  223.9470 N   0  0  0  0  0  0  0  0  0  0  0  0
  144.7730   74.2570  220.7830 C   0  0  0  0  0  0  0  0  0  0  0  0
  145.6270   73.1850  220.5340 C   0  0  0  0  0  0  0  0  0  0  0  0
  145.1580   72.0120  220.0340 N   0  0  0  0  0  0  0  0  0  0  0  0
  141.9119   70.3791  220.8789 H   0  0  0  0  0  0  0  0  0  0  0  0
  141.2287   71.1701  219.4180 H   0  0  0  0  0  0  0  0  0  0  0  0
  141.5423   69.4014  219.4180 H   0  0  0  0  0  0  0  0  0  0  0  0
  143.3025   70.6929  218.1570 H   0  0  0  0  0  0  0  0  0  0  0  0
  144.2124   69.4420  220.7898 H   0  0  0  0  0  0  0  0  0  0  0  0
  143.7712   68.5391  219.3010 H   0  0  0  0  0  0  0  0  0  0  0  0
  145.2002   69.6274  219.3010 H   0  0  0  0  0  0  0  0  0  0  0  0
  141.8704   72.8104  219.7881 H   0  0  0  0  0  0  0  0  0  0  0  0
  142.7760   76.1940  220.4530 H   0  0  0  0  0  0  0  0  0  0  0  0
  142.1400   77.2115  222.6070 H   0  0  0  0  0  0  0  0  0  0  0  0
  140.6937   79.1219  223.1834 H   0  0  0  0  0  0  0  0  0  0  0  0
  138.2365   79.0578  222.8210 H   0  0  0  0  0  0  0  0  0  0  0  0
  137.2537   76.9629  221.8333 H   0  0  0  0  0  0  0  0  0  0  0  0
  138.4430   73.7890  222.9850 H   0  0  0  0  0  0  0  0  0  0  0  0
  136.6298   72.2618  222.1069 H   0  0  0  0  0  0  0  0  0  0  0  0
  137.3856   72.4936  220.4705 H   0  0  0  0  0  0  0  0  0  0  0  0
  138.0322   68.7595  222.7018 H   0  0  0  0  0  0  0  0  0  0  0  0
  138.7940   67.8139  224.8696 H   0  0  0  0  0  0  0  0  0  0  0  0
  139.9710   68.1316  227.0022 H   0  0  0  0  0  0  0  0  0  0  0  0
  141.7025   72.0087  227.8091 H   0  0  0  0  0  0  0  0  0  0  0  0
  140.9082   72.8862  225.6172 H   0  0  0  0  0  0  0  0  0  0  0  0
  145.1692   75.1993  221.1892 H   0  0  0  0  0  0  0  0  0  0  0  0
  146.7012   73.2902  220.7462 H   0  0  0  0  0  0  0  0  0  0  0  0
  1  2  1  0
  2  3  1  0
  2  4  1  0
  4  5  2  0
  5  6  1  0
  6  7  1  0
  7  8  1  0
  8  9  2  0
  8 10  1  0
 10 11  2  0
 11 12  1  0
 12 13  2  0
 13 14  1  0
 14 15  2  0
 15 16  1  0
 16 17  2  0
 16 18  1  0
 18 19  1  0
 19 20  1  0
 20 21  2  0
 20 22  1  0
 22 23  2  0
 23 24  1  0
 24 25  2  0
 25 26  1  0
 26 27  2  0
 27 28  1  0
 27 29  1  0
 29 30  2  0
 30 31  1  0
 31 32  2  0
  6 33  2  0
 33 34  1  0
 34 35  2  0
 35  4  1  0
 15 10  1  0
 32 22  1  0
 31 25  1  0
  1 36  1  0
  1 37  1  0
  1 38  1  0
  2 39  1  0
  3 40  1  0
  3 41  1  0
  3 42  1  0
  5 43  1  0
  7 44  1  0
 11 45  1  0
 12 46  1  0
 13 47  1  0
 14 48  1  0
 18 49  1  0
 19 50  1  0
 19 51  1  0
 23 52  1  0
 24 53  1  0
 26 54  1  0
 29 55  1  0
 30 56  1  0
 33 57  1  0
 34 58  1  0
M  END
>  <smiles>  (16) 
CC(C)c1cc(NC(=O)c2ccccc2C(=O)NCC(=O)c2ccc3cc(F)ccc3n2)ccn1

>  <score_type>  (16) 
oracle

>  <origin>  (16) 
autodockgpu

>  <m_score__min__energy>  (16) 
-9.8000000000000007

>  <m_primary>  (16) 
energy

>  <rmsd>  (16) 
5.046640390331434

>  <m_score__min__rmsd>  (16) 
5.046640390331434

>  <meeko>  (16) 
{"free_energy": -8.74, "intermolecular_energy": -10.83, "internal_energy": -2.25, "cluster_size": 11, "cluster_id": 2, "rank_in_cluster": 9}

>  <energy>  (16) 
-8.86

>  <cluster_rmsd>  (16) 
1.33

>  <cluster>  (16) 
2

$$$$

     RDKit          3D

 58 61  0  0  0  0  0  0  0  0999 V2000
  142.1090   81.0180  223.4310 C   0  0  0  0  0  0  0  0  0  0  0  0
  141.4310   80.9180  222.0690 C   0  0  0  0  0  0  0  0  0  0  0  0
  140.4770   82.0730  221.9350 C   0  0  0  0  0  0  0  0  0  0  0  0
  140.7060   79.6190  221.9490 C   0  0  0  0  0  0  0  0  0  0  0  0
  141.4460   78.4590  221.9680 C   0  0  0  0  0  0  0  0  0  0  0  0
  140.7850   77.2600  221.8770 C   0  0  0  0  0  0  0  0  0  0  0  0
  141.4670   75.9980  221.9040 N   0  0  0  0  0  0  0  0  0  0  0  0
  142.0160   75.5880  220.6450 C   0  0  0  0  0  0  0  0  0  0  0  0
  141.9110   76.2760  219.6010 O   0  0  0  0  0  0  0  0  0  0  0  0
  142.7220   74.3110  220.6080 C   0  0  0  0  0  0  0  0  0  0  0  0
  144.0510   74.3540  220.2400 C   0  0  0  0  0  0  0  0  0  0  0  0
  144.7640   73.1750  220.1910 C   0  0  0  0  0  0  0  0  0  0  0  0
  144.2090   71.9500  220.4930 C   0  0  0  0  0  0  0  0  0  0  0  0
  142.8540   71.9540  220.8630 C   0  0  0  0  0  0  0  0  0  0  0  0
  142.1160   73.1140  220.9220 C   0  0  0  0  0  0  0  0  0  0  0  0
  140.6830   73.0500  221.3100 C   0  0  0  0  0  0  0  0  0  0  0  0
  140.1330   73.9300  221.9850 O   0  0  0  0  0  0  0  0  0  0  0  0
  139.9010   71.9180  220.8870 N   0  0  0  0  0  0  0  0  0  0  0  0
  138.5090   71.7510  221.2040 C   0  0  0  0  0  0  0  0  0  0  0  0
  138.2530   71.8360  222.6540 C   0  0  0  0  0  0  0  0  0  0  0  0
  137.2180   72.5010  223.0070 O   0  0  0  0  0  0  0  0  0  0  0  0
  139.0440   71.2500  223.7130 C   0  0  0  0  0  0  0  0  0  0  0  0
  140.2030   71.8670  224.1640 C   0  0  0  0  0  0  0  0  0  0  0  0
  140.9660   71.3290  225.1930 C   0  0  0  0  0  0  0  0  0  0  0  0
  140.5520   70.1420  225.7810 C   0  0  0  0  0  0  0  0  0  0  0  0
  141.2840   69.5760  226.8040 C   0  0  0  0  0  0  0  0  0  0  0  0
  140.7910   68.3810  227.3340 C   0  0  0  0  0  0  0  0  0  0  0  0
  141.4870   67.7850  228.3520 F   0  0  0  0  0  0  0  0  0  0  0  0
  139.6370   67.7930  226.8640 C   0  0  0  0  0  0  0  0  0  0  0  0
  138.9060   68.3560  225.8430 C   0  0  0  0  0  0  0  0  0  0  0  0
  139.3910   69.5430  225.3130 C   0  0  0  0  0  0  0  0  0  0  0  0
  138.7170   70.1090  224.3340 N   0  0  0  0  0  0  0  0  0  0  0  0
  139.3960   77.2550  221.7680 C   0  0  0  0  0  0  0  0  0  0  0  0
  138.7060   78.4640  221.7540 C   0  0  0  0  0  0  0  0  0  0  0  0
  139.3620   79.6500  221.8450 N   0  0  0  0  0  0  0  0  0  0  0  0
  141.3555   80.9069  224.2247 H   0  0  0  0  0  0  0  0  0  0  0  0
  142.8613   80.2211  223.5255 H   0  0  0  0  0  0  0  0  0  0  0  0
  142.5992   81.9982  223.5255 H   0  0  0  0  0  0  0  0  0  0  0  0
  142.1810   80.9589  221.2653 H   0  0  0  0  0  0  0  0  0  0  0  0
  140.1856   82.4258  222.9353 H   0  0  0  0  0  0  0  0  0  0  0  0
  140.9663   82.8909  221.3858 H   0  0  0  0  0  0  0  0  0  0  0  0
  139.5814   81.7470  221.3858 H   0  0  0  0  0  0  0  0  0  0  0  0
  142.5421   78.4921  222.0542 H   0  0  0  0  0  0  0  0  0  0  0  0
  141.5470   75.4430  222.7740 H   0  0  0  0  0  0  0  0  0  0  0  0
  144.5326   75.3109  219.9904 H   0  0  0  0  0  0  0  0  0  0  0  0
  145.8235   73.2137  219.8977 H   0  0  0  0  0  0  0  0  0  0  0  0
  144.7951   71.0203  220.4468 H   0  0  0  0  0  0  0  0  0  0  0  0
  142.3674   70.9998  221.1135 H   0  0  0  0  0  0  0  0  0  0  0  0
  140.4160   71.2290  220.3030 H   0  0  0  0  0  0  0  0  0  0  0  0
  137.9332   72.5386  220.6960 H   0  0  0  0  0  0  0  0  0  0  0  0
  138.2037   70.7499  220.8656 H   0  0  0  0  0  0  0  0  0  0  0  0
  140.5261   72.8075  223.6938 H   0  0  0  0  0  0  0  0  0  0  0  0
  141.8811   71.8344  225.5352 H   0  0  0  0  0  0  0  0  0  0  0  0
  142.2065   70.0406  227.1823 H   0  0  0  0  0  0  0  0  0  0  0  0
  139.2918   66.8512  227.3156 H   0  0  0  0  0  0  0  0  0  0  0  0
  137.9842   67.8888  225.4663 H   0  0  0  0  0  0  0  0  0  0  0  0
  138.8491   76.3035  221.6936 H   0  0  0  0  0  0  0  0  0  0  0  0
  137.6094   78.4588  221.6676 H   0  0  0  0  0  0  0  0  0  0  0  0
  1  2  1  0
  2  3  1  0
  2  4  1  0
  4  5  2  0
  5  6  1  0
  6  7  1  0
  7  8  1  0
  8  9  2  0
  8 10  1  0
 10 11  2  0
 11 12  1  0
 12 13  2  0
 13 14  1  0
 14 15  2  0
 15 16  1  0
 16 17  2  0
 16 18  1  0
 18 19  1  0
 19 20  1  0
 20 21  2  0
 20 22  1  0
 22 23  2  0
 23 24  1  0
 24 25  2  0
 25 26  1  0
 26 27  2  0
 27 28  1  0
 27 29  1  0
 29 30  2  0
 30 31  1  0
 31 32  2  0
  6 33  2  0
 33 34  1  0
 34 35  2  0
 35  4  1  0
 15 10  1  0
 32 22  1  0
 31 25  1  0
  1 36  1  0
  1 37  1  0
  1 38  1  0
  2 39  1  0
  3 40  1  0
  3 41  1  0
  3 42  1  0
  5 43  1  0
  7 44  1  0
 11 45  1  0
 12 46  1  0
 13 47  1  0
 14 48  1  0
 18 49  1  0
 19 50  1  0
 19 51  1  0
 23 52  1  0
 24 53  1  0
 26 54  1  0
 29 55  1  0
 30 56  1  0
 33 57  1  0
 34 58  1  0
M  END
>  <smiles>  (17) 
CC(C)c1cc(NC(=O)c2ccccc2C(=O)NCC(=O)c2ccc3cc(F)ccc3n2)ccn1

>  <score_type>  (17) 
oracle

>  <origin>  (17) 
autodockgpu

>  <m_score__min__energy>  (17) 
-9.8000000000000007

>  <m_primary>  (17) 
energy

>  <rmsd>  (17) 
7.805224882284812

>  <m_score__min__rmsd>  (17) 
7.805224882284812

>  <meeko>  (17) 
{"free_energy": -8.92, "intermolecular_energy": -11.0, "internal_energy": -2.1, "cluster_size": 8, "cluster_id": 1, "rank_in_cluster": 5}

>  <energy>  (17) 
-8.74

>  <cluster_rmsd>  (17) 
1.36

>  <cluster>  (17) 
2

$$$$

     RDKit          3D

 58 61  0  0  0  0  0  0  0  0999 V2000
  143.1050   70.2250  219.4100 C   0  0  0  0  0  0  0  0  0  0  0  0
  144.3410   70.8590  218.7820 C   0  0  0  0  0  0  0  0  0  0  0  0
  145.4880   69.8980  218.9290 C   0  0  0  0  0  0  0  0  0  0  0  0
  144.6510   72.1560  219.4520 C   0  0  0  0  0  0  0  0  0  0  0  0
  143.6160   73.0360  219.6740 C   0  0  0  0  0  0  0  0  0  0  0  0
  143.8900   74.2210  220.3070 C   0  0  0  0  0  0  0  0  0  0  0  0
  142.8770   75.1950  220.5970 N   0  0  0  0  0  0  0  0  0  0  0  0
  141.7240   74.6750  221.2710 C   0  0  0  0  0  0  0  0  0  0  0  0
  141.6070   73.4650  221.5840 O   0  0  0  0  0  0  0  0  0  0  0  0
  140.6570   75.6160  221.5950 C   0  0  0  0  0  0  0  0  0  0  0  0
  141.0470   76.8940  221.9400 C   0  0  0  0  0  0  0  0  0  0  0  0
  140.0770   77.8210  222.2530 C   0  0  0  0  0  0  0  0  0  0  0  0
  138.7290   77.5310  222.2390 C   0  0  0  0  0  0  0  0  0  0  0  0
  138.3780   76.2200  221.8820 C   0  0  0  0  0  0  0  0  0  0  0  0
  139.3230   75.2710  221.5640 C   0  0  0  0  0  0  0  0  0  0  0  0
  138.8870   73.8960  221.2040 C   0  0  0  0  0  0  0  0  0  0  0  0
  139.1370   73.3810  220.1070 O   0  0  0  0  0  0  0  0  0  0  0  0
  138.1420   73.1320  222.1700 N   0  0  0  0  0  0  0  0  0  0  0  0
  137.6690   71.7950  221.9310 C   0  0  0  0  0  0  0  0  0  0  0  0
  138.6860   70.7780  222.2530 C   0  0  0  0  0  0  0  0  0  0  0  0
  139.0520   70.0200  221.2900 O   0  0  0  0  0  0  0  0  0  0  0  0
  139.3110   70.5480  223.5370 C   0  0  0  0  0  0  0  0  0  0  0  0
  140.1580   71.4930  224.0990 C   0  0  0  0  0  0  0  0  0  0  0  0
  140.7520   71.2980  225.3390 C   0  0  0  0  0  0  0  0  0  0  0  0
  140.4880   70.1240  226.0290 C   0  0  0  0  0  0  0  0  0  0  0  0
  141.0610   69.8940  227.2630 C   0  0  0  0  0  0  0  0  0  0  0  0
  140.7380   68.6830  227.8830 C   0  0  0  0  0  0  0  0  0  0  0  0
  141.2840   68.4140  229.1090 F   0  0  0  0  0  0  0  0  0  0  0  0
  139.8930   67.7650  227.2980 C   0  0  0  0  0  0  0  0  0  0  0  0
  139.3210   67.9930  226.0680 C   0  0  0  0  0  0  0  0  0  0  0  0
  139.6380   69.1930  225.4470 C   0  0  0  0  0  0  0  0  0  0  0  0
  139.1100   69.4440  224.2690 N   0  0  0  0  0  0  0  0  0  0  0  0
  145.1980   74.4960  220.7020 C   0  0  0  0  0  0  0  0  0  0  0  0
  146.2000   73.5640  220.4470 C   0  0  0  0  0  0  0  0  0  0  0  0
  145.9270   72.3900  219.8210 N   0  0  0  0  0  0  0  0  0  0  0  0
  143.1879   70.2675  220.5061 H   0  0  0  0  0  0  0  0  0  0  0  0
  142.2077   70.7742  219.0885 H   0  0  0  0  0  0  0  0  0  0  0  0
  143.0276   69.1759  219.0885 H   0  0  0  0  0  0  0  0  0  0  0  0
  144.1634   71.0657  217.7163 H   0  0  0  0  0  0  0  0  0  0  0  0
  145.6900   69.7288  219.9970 H   0  0  0  0  0  0  0  0  0  0  0  0
  145.2298   68.9426  218.4488 H   0  0  0  0  0  0  0  0  0  0  0  0
  146.3834   70.3195  218.4488 H   0  0  0  0  0  0  0  0  0  0  0  0
  142.5927   72.7941  219.3510 H   0  0  0  0  0  0  0  0  0  0  0  0
  142.9890   76.1900  220.3350 H   0  0  0  0  0  0  0  0  0  0  0  0
  142.1122   77.1674  221.9646 H   0  0  0  0  0  0  0  0  0  0  0  0
  140.3922   78.8388  222.5265 H   0  0  0  0  0  0  0  0  0  0  0  0
  137.9705   78.2858  222.4937 H   0  0  0  0  0  0  0  0  0  0  0  0
  137.3141   75.9420  221.8555 H   0  0  0  0  0  0  0  0  0  0  0  0
  137.9880   73.6130  223.0780 H   0  0  0  0  0  0  0  0  0  0  0  0
  136.7804   71.6170  222.5545 H   0  0  0  0  0  0  0  0  0  0  0  0
  137.4315   71.7075  220.8605 H   0  0  0  0  0  0  0  0  0  0  0  0
  140.3644   72.4219  223.5471 H   0  0  0  0  0  0  0  0  0  0  0  0
  141.4197   72.0606  225.7663 H   0  0  0  0  0  0  0  0  0  0  0  0
  141.7357   70.6242  227.7338 H   0  0  0  0  0  0  0  0  0  0  0  0
  139.6705   66.8269  227.8276 H   0  0  0  0  0  0  0  0  0  0  0  0
  138.6463   67.2610  225.6001 H   0  0  0  0  0  0  0  0  0  0  0  0
  145.4365   75.4416  221.2109 H   0  0  0  0  0  0  0  0  0  0  0  0
  147.2322   73.7824  220.7583 H   0  0  0  0  0  0  0  0  0  0  0  0
  1  2  1  0
  2  3  1  0
  2  4  1  0
  4  5  2  0
  5  6  1  0
  6  7  1  0
  7  8  1  0
  8  9  2  0
  8 10  1  0
 10 11  2  0
 11 12  1  0
 12 13  2  0
 13 14  1  0
 14 15  2  0
 15 16  1  0
 16 17  2  0
 16 18  1  0
 18 19  1  0
 19 20  1  0
 20 21  2  0
 20 22  1  0
 22 23  2  0
 23 24  1  0
 24 25  2  0
 25 26  1  0
 26 27  2  0
 27 28  1  0
 27 29  1  0
 29 30  2  0
 30 31  1  0
 31 32  2  0
  6 33  2  0
 33 34  1  0
 34 35  2  0
 35  4  1  0
 15 10  1  0
 32 22  1  0
 31 25  1  0
  1 36  1  0
  1 37  1  0
  1 38  1  0
  2 39  1  0
  3 40  1  0
  3 41  1  0
  3 42  1  0
  5 43  1  0
  7 44  1  0
 11 45  1  0
 12 46  1  0
 13 47  1  0
 14 48  1  0
 18 49  1  0
 19 50  1  0
 19 51  1  0
 23 52  1  0
 24 53  1  0
 26 54  1  0
 29 55  1  0
 30 56  1  0
 33 57  1  0
 34 58  1  0
M  END
>  <smiles>  (18) 
CC(C)c1cc(NC(=O)c2ccccc2C(=O)NCC(=O)c2ccc3cc(F)ccc3n2)ccn1

>  <score_type>  (18) 
oracle

>  <origin>  (18) 
autodockgpu

>  <m_score__min__energy>  (18) 
-9.8000000000000007

>  <m_primary>  (18) 
energy

>  <rmsd>  (18) 
5.391706742831419

>  <m_score__min__rmsd>  (18) 
5.391706742831419

>  <meeko>  (18) 
{"free_energy": -9.36, "intermolecular_energy": -11.45, "internal_energy": -1.81, "cluster_size": 11, "cluster_id": 2, "rank_in_cluster": 2}

>  <energy>  (18) 
-8.69

>  <cluster_rmsd>  (18) 
1.04

>  <cluster>  (18) 
2

$$$$

     RDKit          3D

 58 61  0  0  0  0  0  0  0  0999 V2000
  136.6230   79.8260  223.3950 C   0  0  0  0  0  0  0  0  0  0  0  0
  138.0640   79.3340  223.4880 C   0  0  0  0  0  0  0  0  0  0  0  0
  138.9590   80.5310  223.6470 C   0  0  0  0  0  0  0  0  0  0  0  0
  138.4250   78.5640  222.2610 C   0  0  0  0  0  0  0  0  0  0  0  0
  139.5990   77.8470  222.2670 C   0  0  0  0  0  0  0  0  0  0  0  0
  139.9290   77.1220  221.1500 C   0  0  0  0  0  0  0  0  0  0  0  0
  141.1230   76.3310  221.0660 N   0  0  0  0  0  0  0  0  0  0  0  0
  140.9000   74.9400  220.8000 C   0  0  0  0  0  0  0  0  0  0  0  0
  139.7540   74.4510  220.6520 O   0  0  0  0  0  0  0  0  0  0  0  0
  142.0770   74.0810  220.7030 C   0  0  0  0  0  0  0  0  0  0  0  0
  141.9590   72.8140  221.2340 C   0  0  0  0  0  0  0  0  0  0  0  0
  143.0420   71.9640  221.1670 C   0  0  0  0  0  0  0  0  0  0  0  0
  144.2410   72.3220  220.5890 C   0  0  0  0  0  0  0  0  0  0  0  0
  144.3160   73.6200  220.0610 C   0  0  0  0  0  0  0  0  0  0  0  0
  143.2520   74.4930  220.1130 C   0  0  0  0  0  0  0  0  0  0  0  0
  143.3980   75.8580  219.5440 C   0  0  0  0  0  0  0  0  0  0  0  0
  144.0840   76.7370  220.0810 O   0  0  0  0  0  0  0  0  0  0  0  0
  142.7100   76.1730  218.3190 N   0  0  0  0  0  0  0  0  0  0  0  0
  142.7780   77.4600  217.6800 C   0  0  0  0  0  0  0  0  0  0  0  0
  141.7040   78.3640  218.1300 C   0  0  0  0  0  0  0  0  0  0  0  0
  140.6270   78.3500  217.4390 O   0  0  0  0  0  0  0  0  0  0  0  0
  141.7390   79.2600  219.2640 C   0  0  0  0  0  0  0  0  0  0  0  0
  141.3710   80.5920  219.1340 C   0  0  0  0  0  0  0  0  0  0  0  0
  141.3800   81.4630  220.2160 C   0  0  0  0  0  0  0  0  0  0  0  0
  141.7700   80.9810  221.4570 C   0  0  0  0  0  0  0  0  0  0  0  0
  141.7930   81.8170  222.5550 C   0  0  0  0  0  0  0  0  0  0  0  0
  142.2000   81.2450  223.7640 C   0  0  0  0  0  0  0  0  0  0  0  0
  142.2380   82.0380  224.8790 F   0  0  0  0  0  0  0  0  0  0  0  0
  142.5600   79.9180  223.8600 C   0  0  0  0  0  0  0  0  0  0  0  0
  142.5370   79.0840  222.7660 C   0  0  0  0  0  0  0  0  0  0  0  0
  142.1340   79.6470  221.5630 C   0  0  0  0  0  0  0  0  0  0  0  0
  142.1020   78.8780  220.4960 N   0  0  0  0  0  0  0  0  0  0  0  0
  139.0710   77.1350  220.0520 C   0  0  0  0  0  0  0  0  0  0  0  0
  137.8970   77.8820  220.1100 C   0  0  0  0  0  0  0  0  0  0  0  0
  137.5720   78.5990  221.2170 N   0  0  0  0  0  0  0  0  0  0  0  0
  136.2168   79.9647  224.4078 H   0  0  0  0  0  0  0  0  0  0  0  0
  136.5968   80.7840  222.8551 H   0  0  0  0  0  0  0  0  0  0  0  0
  136.0164   79.0841  222.8551 H   0  0  0  0  0  0  0  0  0  0  0  0
  138.1833   78.6635  224.3519 H   0  0  0  0  0  0  0  0  0  0  0  0
  139.1116   80.7351  224.7171 H   0  0  0  0  0  0  0  0  0  0  0  0
  139.9295   80.3291  223.1702 H   0  0  0  0  0  0  0  0  0  0  0  0
  138.4909   81.4048  223.1702 H   0  0  0  0  0  0  0  0  0  0  0  0
  140.2583   77.8548  223.1475 H   0  0  0  0  0  0  0  0  0  0  0  0
  142.0610   76.7500  221.1890 H   0  0  0  0  0  0  0  0  0  0  0  0
  141.0185   72.4878  221.7021 H   0  0  0  0  0  0  0  0  0  0  0  0
  142.9451   70.9549  221.5939 H   0  0  0  0  0  0  0  0  0  0  0  0
  145.0930   71.6277  220.5440 H   0  0  0  0  0  0  0  0  0  0  0  0
  145.2539   73.9506  219.5909 H   0  0  0  0  0  0  0  0  0  0  0  0
  142.1730   75.3850  217.9080 H   0  0  0  0  0  0  0  0  0  0  0  0
  143.7493   77.9204  217.9137 H   0  0  0  0  0  0  0  0  0  0  0  0
  142.6574   77.3057  216.5976 H   0  0  0  0  0  0  0  0  0  0  0  0
  141.0638   80.9682  218.1470 H   0  0  0  0  0  0  0  0  0  0  0  0
  141.0835   82.5149  220.0912 H   0  0  0  0  0  0  0  0  0  0  0  0
  141.5064   82.8766  222.4827 H   0  0  0  0  0  0  0  0  0  0  0  0
  142.8733   79.5160  224.8348 H   0  0  0  0  0  0  0  0  0  0  0  0
  142.8235   78.0246  222.8409 H   0  0  0  0  0  0  0  0  0  0  0  0
  139.3188   76.5603  219.1474 H   0  0  0  0  0  0  0  0  0  0  0  0
  137.2201   77.8916  219.2430 H   0  0  0  0  0  0  0  0  0  0  0  0
  1  2  1  0
  2  3  1  0
  2  4  1  0
  4  5  2  0
  5  6  1  0
  6  7  1  0
  7  8  1  0
  8  9  2  0
  8 10  1  0
 10 11  2  0
 11 12  1  0
 12 13  2  0
 13 14  1  0
 14 15  2  0
 15 16  1  0
 16 17  2  0
 16 18  1  0
 18 19  1  0
 19 20  1  0
 20 21  2  0
 20 22  1  0
 22 23  2  0
 23 24  1  0
 24 25  2  0
 25 26  1  0
 26 27  2  0
 27 28  1  0
 27 29  1  0
 29 30  2  0
 30 31  1  0
 31 32  2  0
  6 33  2  0
 33 34  1  0
 34 35  2  0
 35  4  1  0
 15 10  1  0
 32 22  1  0
 31 25  1  0
  1 36  1  0
  1 37  1  0
  1 38  1  0
  2 39  1  0
  3 40  1  0
  3 41  1  0
  3 42  1  0
  5 43  1  0
  7 44  1  0
 11 45  1  0
 12 46  1  0
 13 47  1  0
 14 48  1  0
 18 49  1  0
 19 50  1  0
 19 51  1  0
 23 52  1  0
 24 53  1  0
 26 54  1  0
 29 55  1  0
 30 56  1  0
 33 57  1  0
 34 58  1  0
M  END
>  <smiles>  (19) 
CC(C)c1cc(NC(=O)c2ccccc2C(=O)NCC(=O)c2ccc3cc(F)ccc3n2)ccn1

>  <score_type>  (19) 
oracle

>  <origin>  (19) 
autodockgpu

>  <m_score__min__energy>  (19) 
-9.8000000000000007

>  <m_primary>  (19) 
energy

>  <rmsd>  (19) 
7.925965532723331

>  <m_score__min__rmsd>  (19) 
7.925965532723331

>  <meeko>  (19) 
{"free_energy": -6.81, "intermolecular_energy": -8.9, "internal_energy": -4.36, "cluster_size": 1, "cluster_id": 13, "rank_in_cluster": 1}

>  <energy>  (19) 
-8.63

>  <cluster_rmsd>  (19) 
2.0

>  <cluster>  (19) 
2

$$$$

     RDKit          3D

 58 61  0  0  0  0  0  0  0  0999 V2000
  141.3800   81.7070  222.3850 C   0  0  0  0  0  0  0  0  0  0  0  0
  141.5540   80.5050  223.3070 C   0  0  0  0  0  0  0  0  0  0  0  0
  142.9630   80.5140  223.8310 C   0  0  0  0  0  0  0  0  0  0  0  0
  141.2770   79.2410  222.5620 C   0  0  0  0  0  0  0  0  0  0  0  0
  140.3160   78.3910  223.0590 C   0  0  0  0  0  0  0  0  0  0  0  0
  140.0430   77.2370  222.3700 C   0  0  0  0  0  0  0  0  0  0  0  0
  139.0480   76.2970  222.8000 N   0  0  0  0  0  0  0  0  0  0  0  0
  137.6970   76.6980  222.5430 C   0  0  0  0  0  0  0  0  0  0  0  0
  137.4030   77.7840  221.9860 O   0  0  0  0  0  0  0  0  0  0  0  0
  136.6370   75.7830  222.9570 C   0  0  0  0  0  0  0  0  0  0  0  0
  135.7150   76.2750  223.8560 C   0  0  0  0  0  0  0  0  0  0  0  0
  134.6940   75.4510  224.2780 C   0  0  0  0  0  0  0  0  0  0  0  0
  134.5510   74.1510  223.8410 C   0  0  0  0  0  0  0  0  0  0  0  0
  135.5120   73.6920  222.9260 C   0  0  0  0  0  0  0  0  0  0  0  0
  136.5430   74.4910  222.4860 C   0  0  0  0  0  0  0  0  0  0  0  0
  137.5340   73.9420  221.5240 C   0  0  0  0  0  0  0  0  0  0  0  0
  137.3210   73.8780  220.3070 O   0  0  0  0  0  0  0  0  0  0  0  0
  138.7950   73.4630  222.0290 N   0  0  0  0  0  0  0  0  0  0  0  0
  139.8260   72.9120  221.1920 C   0  0  0  0  0  0  0  0  0  0  0  0
  140.6490   71.9170  221.9030 C   0  0  0  0  0  0  0  0  0  0  0  0
  141.7700   71.6200  221.3620 O   0  0  0  0  0  0  0  0  0  0  0  0
  140.3240   71.2440  223.1410 C   0  0  0  0  0  0  0  0  0  0  0  0
  139.5660   70.0810  223.1440 C   0  0  0  0  0  0  0  0  0  0  0  0
  139.2600   69.4110  224.3220 C   0  0  0  0  0  0  0  0  0  0  0  0
  139.7280   69.9230  225.5230 C   0  0  0  0  0  0  0  0  0  0  0  0
  139.4430   69.2860  226.7140 C   0  0  0  0  0  0  0  0  0  0  0  0
  139.9560   69.8750  227.8730 C   0  0  0  0  0  0  0  0  0  0  0  0
  139.6980   69.2750  229.0760 F   0  0  0  0  0  0  0  0  0  0  0  0
  140.7060   71.0300  227.8360 C   0  0  0  0  0  0  0  0  0  0  0  0
  140.9910   71.6670  226.6490 C   0  0  0  0  0  0  0  0  0  0  0  0
  140.4840   71.0870  225.4950 C   0  0  0  0  0  0  0  0  0  0  0  0
  140.7360   71.6700  224.3430 N   0  0  0  0  0  0  0  0  0  0  0  0
  140.7420   76.9640  221.1970 C   0  0  0  0  0  0  0  0  0  0  0  0
  141.7040   77.8650  220.7460 C   0  0  0  0  0  0  0  0  0  0  0  0
  141.9720   79.0080  221.4300 N   0  0  0  0  0  0  0  0  0  0  0  0
  141.2483   82.6166  222.9893 H   0  0  0  0  0  0  0  0  0  0  0  0
  142.2720   81.8144  221.7503 H   0  0  0  0  0  0  0  0  0  0  0  0
  140.4942   81.5571  221.7503 H   0  0  0  0  0  0  0  0  0  0  0  0
  140.8453   80.5631  224.1462 H   0  0  0  0  0  0  0  0  0  0  0  0
  142.9452   80.5139  224.9308 H   0  0  0  0  0  0  0  0  0  0  0  0
  143.4931   79.6192  223.4728 H   0  0  0  0  0  0  0  0  0  0  0  0
  143.4817   81.4155  223.4728 H   0  0  0  0  0  0  0  0  0  0  0  0
  139.7787   78.6316  223.9882 H   0  0  0  0  0  0  0  0  0  0  0  0
  139.3070   75.4040  223.2560 H   0  0  0  0  0  0  0  0  0  0  0  0
  135.7928   77.3066  224.2298 H   0  0  0  0  0  0  0  0  0  0  0  0
  133.9606   75.8480  224.9953 H   0  0  0  0  0  0  0  0  0  0  0  0
  133.7291   73.5087  224.1901 H   0  0  0  0  0  0  0  0  0  0  0  0
  135.4387   72.6613  222.5488 H   0  0  0  0  0  0  0  0  0  0  0  0
  138.9200   73.5690  223.0550 H   0  0  0  0  0  0  0  0  0  0  0  0
  139.3558   72.4272  220.3237 H   0  0  0  0  0  0  0  0  0  0  0  0
  140.4856   73.7361  220.8824 H   0  0  0  0  0  0  0  0  0  0  0  0
  139.1979   69.6793  222.1884 H   0  0  0  0  0  0  0  0  0  0  0  0
  138.6574   68.4910  224.3025 H   0  0  0  0  0  0  0  0  0  0  0  0
  138.8441   68.3640  226.7490 H   0  0  0  0  0  0  0  0  0  0  0  0
  141.0863   71.4535  228.7773 H   0  0  0  0  0  0  0  0  0  0  0  0
  141.5902   72.5889  226.6172 H   0  0  0  0  0  0  0  0  0  0  0  0
  140.5361   76.0437  220.6307 H   0  0  0  0  0  0  0  0  0  0  0  0
  142.2563   77.6473  219.8199 H   0  0  0  0  0  0  0  0  0  0  0  0
  1  2  1  0
  2  3  1  0
  2  4  1  0
  4  5  2  0
  5  6  1  0
  6  7  1  0
  7  8  1  0
  8  9  2  0
  8 10  1  0
 10 11  2  0
 11 12  1  0
 12 13  2  0
 13 14  1  0
 14 15  2  0
 15 16  1  0
 16 17  2  0
 16 18  1  0
 18 19  1  0
 19 20  1  0
 20 21  2  0
 20 22  1  0
 22 23  2  0
 23 24  1  0
 24 25  2  0
 25 26  1  0
 26 27  2  0
 27 28  1  0
 27 29  1  0
 29 30  2  0
 30 31  1  0
 31 32  2  0
  6 33  2  0
 33 34  1  0
 34 35  2  0
 35  4  1  0
 15 10  1  0
 32 22  1  0
 31 25  1  0
  1 36  1  0
  1 37  1  0
  1 38  1  0
  2 39  1  0
  3 40  1  0
  3 41  1  0
  3 42  1  0
  5 43  1  0
  7 44  1  0
 11 45  1  0
 12 46  1  0
 13 47  1  0
 14 48  1  0
 18 49  1  0
 19 50  1  0
 19 51  1  0
 23 52  1  0
 24 53  1  0
 26 54  1  0
 29 55  1  0
 30 56  1  0
 33 57  1  0
 34 58  1  0
M  END
>  <smiles>  (20) 
CC(C)c1cc(NC(=O)c2ccccc2C(=O)NCC(=O)c2ccc3cc(F)ccc3n2)ccn1

>  <score_type>  (20) 
oracle

>  <origin>  (20) 
autodockgpu

>  <m_score__min__energy>  (20) 
-9.8000000000000007

>  <m_primary>  (20) 
energy

>  <rmsd>  (20) 
7.6684225826774055

>  <m_score__min__rmsd>  (20) 
7.6684225826774055

>  <meeko>  (20) 
{"free_energy": -9.34, "intermolecular_energy": -11.43, "internal_energy": -1.8, "cluster_size": 4, "cluster_id": 4, "rank_in_cluster": 1}

>  <energy>  (20) 
-9.35

>  <cluster_rmsd>  (20) 
0.0

>  <cluster>  (20) 
3

$$$$

     RDKit          3D

 58 61  0  0  0  0  0  0  0  0999 V2000
  137.3350   79.9350  219.3290 C   0  0  0  0  0  0  0  0  0  0  0  0
  138.2800   81.0040  218.7910 C   0  0  0  0  0  0  0  0  0  0  0  0
  138.3740   80.8410  217.2990 C   0  0  0  0  0  0  0  0  0  0  0  0
  139.6260   80.8650  219.4220 C   0  0  0  0  0  0  0  0  0  0  0  0
  140.2400   79.6350  219.3770 C   0  0  0  0  0  0  0  0  0  0  0  0
  141.4840   79.5040  219.9380 C   0  0  0  0  0  0  0  0  0  0  0  0
  142.2110   78.2670  219.9280 N   0  0  0  0  0  0  0  0  0  0  0  0
  141.3940   77.0930  220.0190 C   0  0  0  0  0  0  0  0  0  0  0  0
  140.1420   77.1400  220.1010 O   0  0  0  0  0  0  0  0  0  0  0  0
  142.0750   75.8020  220.0120 C   0  0  0  0  0  0  0  0  0  0  0  0
  143.3310   75.7720  219.4430 C   0  0  0  0  0  0  0  0  0  0  0  0
  144.0170   74.5770  219.4130 C   0  0  0  0  0  0  0  0  0  0  0  0
  143.5040   73.4050  219.9270 C   0  0  0  0  0  0  0  0  0  0  0  0
  142.2230   73.4820  220.4960 C   0  0  0  0  0  0  0  0  0  0  0  0
  141.5130   74.6610  220.5420 C   0  0  0  0  0  0  0  0  0  0  0  0
  140.1570   74.6750  221.1500 C   0  0  0  0  0  0  0  0  0  0  0  0
  139.9510   74.3730  222.3320 O   0  0  0  0  0  0  0  0  0  0  0  0
  139.0360   75.0530  220.3300 N   0  0  0  0  0  0  0  0  0  0  0  0
  137.6810   75.1010  220.8100 C   0  0  0  0  0  0  0  0  0  0  0  0
  137.5650   75.8470  222.0770 C   0  0  0  0  0  0  0  0  0  0  0  0
  136.8080   75.3300  222.9690 O   0  0  0  0  0  0  0  0  0  0  0  0
  138.2140   77.0950  222.4150 C   0  0  0  0  0  0  0  0  0  0  0  0
  137.4980   78.2820  222.4620 C   0  0  0  0  0  0  0  0  0  0  0  0
  138.1000   79.4870  222.8030 C   0  0  0  0  0  0  0  0  0  0  0  0
  139.4540   79.4950  223.1030 C   0  0  0  0  0  0  0  0  0  0  0  0
  140.0880   80.6730  223.4450 C   0  0  0  0  0  0  0  0  0  0  0  0
  141.4530   80.5840  223.7300 C   0  0  0  0  0  0  0  0  0  0  0  0
  142.1210   81.7290  224.0740 F   0  0  0  0  0  0  0  0  0  0  0  0
  142.1360   79.3890  223.6750 C   0  0  0  0  0  0  0  0  0  0  0  0
  141.5060   78.2140  223.3340 C   0  0  0  0  0  0  0  0  0  0  0  0
  140.1500   78.2960  223.0500 C   0  0  0  0  0  0  0  0  0  0  0  0
  139.5160   77.1910  222.7190 N   0  0  0  0  0  0  0  0  0  0  0  0
  142.0840   80.6130  220.5310 C   0  0  0  0  0  0  0  0  0  0  0  0
  141.4090   81.8310  220.5440 C   0  0  0  0  0  0  0  0  0  0  0  0
  140.1760   81.9590  219.9880 N   0  0  0  0  0  0  0  0  0  0  0  0
  137.3501   79.9521  220.4288 H   0  0  0  0  0  0  0  0  0  0  0  0
  136.3137   80.1357  218.9732 H   0  0  0  0  0  0  0  0  0  0  0  0
  137.6595   78.9460  218.9732 H   0  0  0  0  0  0  0  0  0  0  0  0
  137.8974   82.0068  219.0318 H   0  0  0  0  0  0  0  0  0  0  0  0
  138.9109   79.9099  217.0650 H   0  0  0  0  0  0  0  0  0  0  0  0
  137.3619   80.7983  216.8703 H   0  0  0  0  0  0  0  0  0  0  0  0
  138.9179   81.6956  216.8703 H   0  0  0  0  0  0  0  0  0  0  0  0
  139.7441   78.7759  218.9016 H   0  0  0  0  0  0  0  0  0  0  0  0
  143.2440   78.2450  219.8570 H   0  0  0  0  0  0  0  0  0  0  0  0
  143.7769   76.6848  219.0210 H   0  0  0  0  0  0  0  0  0  0  0  0
  145.0186   74.5574  218.9586 H   0  0  0  0  0  0  0  0  0  0  0  0
  144.0678   72.4611  219.8931 H   0  0  0  0  0  0  0  0  0  0  0  0
  141.7722   72.5719  220.9184 H   0  0  0  0  0  0  0  0  0  0  0  0
  139.2810   75.3180  219.3550 H   0  0  0  0  0  0  0  0  0  0  0  0
  137.0536   75.5916  220.0513 H   0  0  0  0  0  0  0  0  0  0  0  0
  137.3514   74.0680  220.9949 H   0  0  0  0  0  0  0  0  0  0  0  0
  136.4244   78.2691  222.2228 H   0  0  0  0  0  0  0  0  0  0  0  0
  137.5136   80.4172  222.8344 H   0  0  0  0  0  0  0  0  0  0  0  0
  139.5476   81.6300  223.4907 H   0  0  0  0  0  0  0  0  0  0  0  0
  143.2107   79.3736  223.9093 H   0  0  0  0  0  0  0  0  0  0  0  0
  142.0494   77.2587  223.2888 H   0  0  0  0  0  0  0  0  0  0  0  0
  143.0823   80.5271  220.9850 H   0  0  0  0  0  0  0  0  0  0  0  0
  141.8830   82.7058  221.0132 H   0  0  0  0  0  0  0  0  0  0  0  0
  1  2  1  0
  2  3  1  0
  2  4  1  0
  4  5  2  0
  5  6  1  0
  6  7  1  0
  7  8  1  0
  8  9  2  0
  8 10  1  0
 10 11  2  0
 11 12  1  0
 12 13  2  0
 13 14  1  0
 14 15  2  0
 15 16  1  0
 16 17  2  0
 16 18  1  0
 18 19  1  0
 19 20  1  0
 20 21  2  0
 20 22  1  0
 22 23  2  0
 23 24  1  0
 24 25  2  0
 25 26  1  0
 26 27  2  0
 27 28  1  0
 27 29  1  0
 29 30  2  0
 30 31  1  0
 31 32  2  0
  6 33  2  0
 33 34  1  0
 34 35  2  0
 35  4  1  0
 15 10  1  0
 32 22  1  0
 31 25  1  0
  1 36  1  0
  1 37  1  0
  1 38  1  0
  2 39  1  0
  3 40  1  0
  3 41  1  0
  3 42  1  0
  5 43  1  0
  7 44  1  0
 11 45  1  0
 12 46  1  0
 13 47  1  0
 14 48  1  0
 18 49  1  0
 19 50  1  0
 19 51  1  0
 23 52  1  0
 24 53  1  0
 26 54  1  0
 29 55  1  0
 30 56  1  0
 33 57  1  0
 34 58  1  0
M  END
>  <smiles>  (21) 
CC(C)c1cc(NC(=O)c2ccccc2C(=O)NCC(=O)c2ccc3cc(F)ccc3n2)ccn1

>  <score_type>  (21) 
oracle

>  <origin>  (21) 
autodockgpu

>  <m_score__min__energy>  (21) 
-9.8000000000000007

>  <m_primary>  (21) 
energy

>  <rmsd>  (21) 
6.420203302376802

>  <m_score__min__rmsd>  (21) 
6.420203302376802

>  <meeko>  (21) 
{"free_energy": -6.71, "intermolecular_energy": -8.8, "internal_energy": -3.79, "cluster_size": 11, "cluster_id": 8, "rank_in_cluster": 6}

>  <energy>  (21) 
-9.34

>  <cluster_rmsd>  (21) 
0.0

>  <cluster>  (21) 
4

$$$$

     RDKit          3D

 58 61  0  0  0  0  0  0  0  0999 V2000
  143.0840   70.0220  219.4930 C   0  0  0  0  0  0  0  0  0  0  0  0
  144.3310   70.6000  218.8330 C   0  0  0  0  0  0  0  0  0  0  0  0
  145.4430   69.5990  218.9730 C   0  0  0  0  0  0  0  0  0  0  0  0
  144.7020   71.8940  219.4790 C   0  0  0  0  0  0  0  0  0  0  0  0
  143.6890   72.7580  219.8300 C   0  0  0  0  0  0  0  0  0  0  0  0
  144.0210   73.9400  220.4410 C   0  0  0  0  0  0  0  0  0  0  0  0
  143.0370   74.8970  220.8590 N   0  0  0  0  0  0  0  0  0  0  0  0
  142.5550   75.7530  219.8150 C   0  0  0  0  0  0  0  0  0  0  0  0
  142.9580   75.6740  218.6290 O   0  0  0  0  0  0  0  0  0  0  0  0
  141.5500   76.7480  220.1770 C   0  0  0  0  0  0  0  0  0  0  0  0
  141.7950   78.0440  219.7740 C   0  0  0  0  0  0  0  0  0  0  0  0
  140.8760   79.0220  220.0900 C   0  0  0  0  0  0  0  0  0  0  0  0
  139.7190   78.7640  220.7930 C   0  0  0  0  0  0  0  0  0  0  0  0
  139.5110   77.4320  221.1830 C   0  0  0  0  0  0  0  0  0  0  0  0
  140.4090   76.4330  220.8820 C   0  0  0  0  0  0  0  0  0  0  0  0
  140.1360   75.0430  221.3330 C   0  0  0  0  0  0  0  0  0  0  0  0
  140.6530   74.5540  222.3450 O   0  0  0  0  0  0  0  0  0  0  0  0
  139.2340   74.2300  220.5590 N   0  0  0  0  0  0  0  0  0  0  0  0
  138.8970   72.8750  220.8990 C   0  0  0  0  0  0  0  0  0  0  0  0
  140.0040   72.1780  221.5790 C   0  0  0  0  0  0  0  0  0  0  0  0
  141.1430   72.2230  220.9960 O   0  0  0  0  0  0  0  0  0  0  0  0
  139.9400   71.4560  222.8300 C   0  0  0  0  0  0  0  0  0  0  0  0
  139.3130   70.2200  222.9090 C   0  0  0  0  0  0  0  0  0  0  0  0
  139.2580   69.5020  224.0970 C   0  0  0  0  0  0  0  0  0  0  0  0
  139.8470   70.0420  225.2310 C   0  0  0  0  0  0  0  0  0  0  0  0
  139.8120   69.3590  226.4300 C   0  0  0  0  0  0  0  0  0  0  0  0
  140.4310   69.9800  227.5180 C   0  0  0  0  0  0  0  0  0  0  0  0
  140.4190   69.3380  228.7270 F   0  0  0  0  0  0  0  0  0  0  0  0
  141.0450   71.2090  227.4070 C   0  0  0  0  0  0  0  0  0  0  0  0
  141.0810   71.8910  226.2120 C   0  0  0  0  0  0  0  0  0  0  0  0
  140.4680   71.2790  225.1280 C   0  0  0  0  0  0  0  0  0  0  0  0
  140.4830   71.9030  223.9710 N   0  0  0  0  0  0  0  0  0  0  0  0
  145.3620   74.2280  220.6840 C   0  0  0  0  0  0  0  0  0  0  0  0
  146.3400   73.3120  220.3030 C   0  0  0  0  0  0  0  0  0  0  0  0
  146.0090   72.1410  219.6990 N   0  0  0  0  0  0  0  0  0  0  0  0
  143.1914   70.0718  220.5866 H   0  0  0  0  0  0  0  0  0  0  0  0
  142.2028   70.6035  219.1843 H   0  0  0  0  0  0  0  0  0  0  0  0
  142.9582   68.9737  219.1843 H   0  0  0  0  0  0  0  0  0  0  0  0
  144.1414   70.7984  217.7678 H   0  0  0  0  0  0  0  0  0  0  0  0
  145.6425   69.4194  220.0398 H   0  0  0  0  0  0  0  0  0  0  0  0
  145.1493   68.6549  218.4909 H   0  0  0  0  0  0  0  0  0  0  0  0
  146.3511   69.9900  218.4909 H   0  0  0  0  0  0  0  0  0  0  0  0
  142.6380   72.5060  219.6251 H   0  0  0  0  0  0  0  0  0  0  0  0
  142.7130   74.9480  221.8410 H   0  0  0  0  0  0  0  0  0  0  0  0
  142.7066   78.2928  219.2109 H   0  0  0  0  0  0  0  0  0  0  0  0
  141.0752   80.0543  219.7666 H   0  0  0  0  0  0  0  0  0  0  0  0
  138.9980   79.5587  221.0352 H   0  0  0  0  0  0  0  0  0  0  0  0
  138.6014   77.1782  221.7472 H   0  0  0  0  0  0  0  0  0  0  0  0
  138.8160   74.7090  219.7360 H   0  0  0  0  0  0  0  0  0  0  0  0
  138.0221   72.8845  221.5657 H   0  0  0  0  0  0  0  0  0  0  0  0
  138.6832   72.3362  219.9641 H   0  0  0  0  0  0  0  0  0  0  0  0
  138.8471   69.7977  222.0065 H   0  0  0  0  0  0  0  0  0  0  0  0
  138.7568   68.5237  224.1377 H   0  0  0  0  0  0  0  0  0  0  0  0
  139.3229   68.3782  226.5240 H   0  0  0  0  0  0  0  0  0  0  0  0
  141.5174   71.6553  228.2945 H   0  0  0  0  0  0  0  0  0  0  0  0
  141.5709   72.8716  226.1209 H   0  0  0  0  0  0  0  0  0  0  0  0
  145.6465   75.1714  221.1730 H   0  0  0  0  0  0  0  0  0  0  0  0
  147.3987   73.5409  220.4945 H   0  0  0  0  0  0  0  0  0  0  0  0
  1  2  1  0
  2  3  1  0
  2  4  1  0
  4  5  2  0
  5  6  1  0
  6  7  1  0
  7  8  1  0
  8  9  2  0
  8 10  1  0
 10 11  2  0
 11 12  1  0
 12 13  2  0
 13 14  1  0
 14 15  2  0
 15 16  1  0
 16 17  2  0
 16 18  1  0
 18 19  1  0
 19 20  1  0
 20 21  2  0
 20 22  1  0
 22 23  2  0
 23 24  1  0
 24 25  2  0
 25 26  1  0
 26 27  2  0
 27 28  1  0
 27 29  1  0
 29 30  2  0
 30 31  1  0
 31 32  2  0
  6 33  2  0
 33 34  1  0
 34 35  2  0
 35  4  1  0
 15 10  1  0
 32 22  1  0
 31 25  1  0
  1 36  1  0
  1 37  1  0
  1 38  1  0
  2 39  1  0
  3 40  1  0
  3 41  1  0
  3 42  1  0
  5 43  1  0
  7 44  1  0
 11 45  1  0
 12 46  1  0
 13 47  1  0
 14 48  1  0
 18 49  1  0
 19 50  1  0
 19 51  1  0
 23 52  1  0
 24 53  1  0
 26 54  1  0
 29 55  1  0
 30 56  1  0
 33 57  1  0
 34 58  1  0
M  END
>  <smiles>  (22) 
CC(C)c1cc(NC(=O)c2ccccc2C(=O)NCC(=O)c2ccc3cc(F)ccc3n2)ccn1

>  <score_type>  (22) 
oracle

>  <origin>  (22) 
autodockgpu

>  <m_score__min__energy>  (22) 
-9.8000000000000007

>  <m_primary>  (22) 
energy

>  <rmsd>  (22) 
5.055004350139215

>  <m_score__min__rmsd>  (22) 
5.055004350139215

>  <meeko>  (22) 
{"free_energy": -9.1, "intermolecular_energy": -11.18, "internal_energy": -2.5, "cluster_size": 11, "cluster_id": 2, "rank_in_cluster": 6}

>  <energy>  (22) 
-9.21

>  <cluster_rmsd>  (22) 
0.57

>  <cluster>  (22) 
4

$$$$

     RDKit          3D

 58 61  0  0  0  0  0  0  0  0999 V2000
  145.7660   73.2150  221.1710 C   0  0  0  0  0  0  0  0  0  0  0  0
  144.3030   72.9300  220.8510 C   0  0  0  0  0  0  0  0  0  0  0  0
  144.2550   71.9320  219.7270 C   0  0  0  0  0  0  0  0  0  0  0  0
  143.6050   74.1920  220.4650 C   0  0  0  0  0  0  0  0  0  0  0  0
  142.2550   74.2880  220.7110 C   0  0  0  0  0  0  0  0  0  0  0  0
  141.6100   75.4520  220.3760 C   0  0  0  0  0  0  0  0  0  0  0  0
  140.2090   75.6530  220.6080 N   0  0  0  0  0  0  0  0  0  0  0  0
  139.8890   76.2070  221.8910 C   0  0  0  0  0  0  0  0  0  0  0  0
  140.7620   76.4950  222.7450 O   0  0  0  0  0  0  0  0  0  0  0  0
  138.4780   76.4370  222.1870 C   0  0  0  0  0  0  0  0  0  0  0  0
  138.1400   77.6980  222.6330 C   0  0  0  0  0  0  0  0  0  0  0  0
  136.8200   77.9660  222.9250 C   0  0  0  0  0  0  0  0  0  0  0  0
  135.8170   77.0290  222.7920 C   0  0  0  0  0  0  0  0  0  0  0  0
  136.2070   75.7600  222.3360 C   0  0  0  0  0  0  0  0  0  0  0  0
  137.5170   75.4610  222.0350 C   0  0  0  0  0  0  0  0  0  0  0  0
  137.8660   74.0960  221.5650 C   0  0  0  0  0  0  0  0  0  0  0  0
  138.3060   73.8700  220.4310 O   0  0  0  0  0  0  0  0  0  0  0  0
  137.6830   72.9870  222.4660 N   0  0  0  0  0  0  0  0  0  0  0  0
  137.9870   71.6250  222.1190 C   0  0  0  0  0  0  0  0  0  0  0  0
  139.2640   71.1730  222.7000 C   0  0  0  0  0  0  0  0  0  0  0  0
  140.3260   71.5680  222.1050 O   0  0  0  0  0  0  0  0  0  0  0  0
  139.4430   70.3340  223.8640 C   0  0  0  0  0  0  0  0  0  0  0  0
  139.0450   69.0040  223.8530 C   0  0  0  0  0  0  0  0  0  0  0  0
  139.2250   68.1780  224.9560 C   0  0  0  0  0  0  0  0  0  0  0  0
  139.8190   68.7040  226.0940 C   0  0  0  0  0  0  0  0  0  0  0  0
  140.0130   67.9140  227.2100 C   0  0  0  0  0  0  0  0  0  0  0  0
  140.6180   68.5300  228.3090 C   0  0  0  0  0  0  0  0  0  0  0  0
  140.8300   67.7830  229.4370 F   0  0  0  0  0  0  0  0  0  0  0  0
  141.0010   69.8530  228.2880 C   0  0  0  0  0  0  0  0  0  0  0  0
  140.8070   70.6420  227.1770 C   0  0  0  0  0  0  0  0  0  0  0  0
  140.2080   70.0360  226.0810 C   0  0  0  0  0  0  0  0  0  0  0  0
  140.0060   70.7610  225.0020 N   0  0  0  0  0  0  0  0  0  0  0  0
  142.3380   76.4920  219.8030 C   0  0  0  0  0  0  0  0  0  0  0  0
  143.7030   76.3320  219.5790 C   0  0  0  0  0  0  0  0  0  0  0  0
  144.3400   75.1780  219.9110 N   0  0  0  0  0  0  0  0  0  0  0  0
  145.9042   73.2419  222.2620 H   0  0  0  0  0  0  0  0  0  0  0  0
  146.3965   72.4228  220.7410 H   0  0  0  0  0  0  0  0  0  0  0  0
  146.0530   74.1859  220.7410 H   0  0  0  0  0  0  0  0  0  0  0  0
  143.7920   72.5207  221.7349 H   0  0  0  0  0  0  0  0  0  0  0  0
  144.2061   70.9145  220.1420 H   0  0  0  0  0  0  0  0  0  0  0  0
  143.3648   72.1189  219.1084 H   0  0  0  0  0  0  0  0  0  0  0  0
  145.1590   72.0326  219.1084 H   0  0  0  0  0  0  0  0  0  0  0  0
  141.7051   73.4509  221.1658 H   0  0  0  0  0  0  0  0  0  0  0  0
  139.5000   75.4140  219.8920 H   0  0  0  0  0  0  0  0  0  0  0  0
  138.9095   78.4748  222.7533 H   0  0  0  0  0  0  0  0  0  0  0  0
  136.5546   78.9727  223.2802 H   0  0  0  0  0  0  0  0  0  0  0  0
  134.7689   77.2631  223.0302 H   0  0  0  0  0  0  0  0  0  0  0  0
  135.4415   74.9793  222.2152 H   0  0  0  0  0  0  0  0  0  0  0  0
  137.3350   73.2470  223.4090 H   0  0  0  0  0  0  0  0  0  0  0  0
  137.1799   70.9764  222.4903 H   0  0  0  0  0  0  0  0  0  0  0  0
  138.0757   71.5677  221.0241 H   0  0  0  0  0  0  0  0  0  0  0  0
  138.5748   68.5932  222.9474 H   0  0  0  0  0  0  0  0  0  0  0  0
  138.9025   67.1267  224.9273 H   0  0  0  0  0  0  0  0  0  0  0  0
  139.7079   66.8574  227.2327 H   0  0  0  0  0  0  0  0  0  0  0  0
  141.4732   70.2894  229.1805 H   0  0  0  0  0  0  0  0  0  0  0  0
  141.1111   71.6990  227.1585 H   0  0  0  0  0  0  0  0  0  0  0  0
  141.8383   77.4330  219.5294 H   0  0  0  0  0  0  0  0  0  0  0  0
  144.2760   77.1541  219.1253 H   0  0  0  0  0  0  0  0  0  0  0  0
  1  2  1  0
  2  3  1  0
  2  4  1  0
  4  5  2  0
  5  6  1  0
  6  7  1  0
  7  8  1  0
  8  9  2  0
  8 10  1  0
 10 11  2  0
 11 12  1  0
 12 13  2  0
 13 14  1  0
 14 15  2  0
 15 16  1  0
 16 17  2  0
 16 18  1  0
 18 19  1  0
 19 20  1  0
 20 21  2  0
 20 22  1  0
 22 23  2  0
 23 24  1  0
 24 25  2  0
 25 26  1  0
 26 27  2  0
 27 28  1  0
 27 29  1  0
 29 30  2  0
 30 31  1  0
 31 32  2  0
  6 33  2  0
 33 34  1  0
 34 35  2  0
 35  4  1  0
 15 10  1  0
 32 22  1  0
 31 25  1  0
  1 36  1  0
  1 37  1  0
  1 38  1  0
  2 39  1  0
  3 40  1  0
  3 41  1  0
  3 42  1  0
  5 43  1  0
  7 44  1  0
 11 45  1  0
 12 46  1  0
 13 47  1  0
 14 48  1  0
 18 49  1  0
 19 50  1  0
 19 51  1  0
 23 52  1  0
 24 53  1  0
 26 54  1  0
 29 55  1  0
 30 56  1  0
 33 57  1  0
 34 58  1  0
M  END
>  <smiles>  (23) 
CC(C)c1cc(NC(=O)c2ccccc2C(=O)NCC(=O)c2ccc3cc(F)ccc3n2)ccn1

>  <score_type>  (23) 
oracle

>  <origin>  (23) 
autodockgpu

>  <m_score__min__energy>  (23) 
-9.8000000000000007

>  <m_primary>  (23) 
energy

>  <rmsd>  (23) 
5.749759209475285

>  <m_score__min__rmsd>  (23) 
5.749759209475285

>  <meeko>  (23) 
{"free_energy": -8.66, "intermolecular_energy": -10.75, "internal_energy": -2.3, "cluster_size": 1, "cluster_id": 6, "rank_in_cluster": 1}

>  <energy>  (23) 
-8.8

>  <cluster_rmsd>  (23) 
1.05

>  <cluster>  (23) 
4

$$$$

     RDKit          3D

 58 61  0  0  0  0  0  0  0  0999 V2000
  144.5190   75.8380  214.5720 C   0  0  0  0  0  0  0  0  0  0  0  0
  144.6540   75.6330  216.0770 C   0  0  0  0  0  0  0  0  0  0  0  0
  145.0230   74.1960  216.3230 C   0  0  0  0  0  0  0  0  0  0  0  0
  143.3690   75.9710  216.7590 C   0  0  0  0  0  0  0  0  0  0  0  0
  143.4270   76.4600  218.0440 C   0  0  0  0  0  0  0  0  0  0  0  0
  142.2520   76.7900  218.6710 C   0  0  0  0  0  0  0  0  0  0  0  0
  142.2100   77.3220  220.0030 N   0  0  0  0  0  0  0  0  0  0  0  0
  141.8170   78.6980  220.0840 C   0  0  0  0  0  0  0  0  0  0  0  0
  141.5320   79.3860  219.0740 O   0  0  0  0  0  0  0  0  0  0  0  0
  141.7540   79.2980  221.4140 C   0  0  0  0  0  0  0  0  0  0  0  0
  142.2200   80.5910  221.5280 C   0  0  0  0  0  0  0  0  0  0  0  0
  142.1810   81.2030  222.7620 C   0  0  0  0  0  0  0  0  0  0  0  0
  141.6960   80.5810  223.8930 C   0  0  0  0  0  0  0  0  0  0  0  0
  141.2330   79.2660  223.7300 C   0  0  0  0  0  0  0  0  0  0  0  0
  141.2580   78.6270  222.5110 C   0  0  0  0  0  0  0  0  0  0  0  0
  140.7620   77.2300  222.4060 C   0  0  0  0  0  0  0  0  0  0  0  0
  141.4530   76.2500  222.7100 O   0  0  0  0  0  0  0  0  0  0  0  0
  139.4220   77.0070  221.9280 N   0  0  0  0  0  0  0  0  0  0  0  0
  138.8380   75.7000  221.7860 C   0  0  0  0  0  0  0  0  0  0  0  0
  139.3200   75.0020  220.5800 C   0  0  0  0  0  0  0  0  0  0  0  0
  138.6020   75.1320  219.5280 O   0  0  0  0  0  0  0  0  0  0  0  0
  140.5120   74.1920  220.4600 C   0  0  0  0  0  0  0  0  0  0  0  0
  140.4260   72.8240  220.2440 C   0  0  0  0  0  0  0  0  0  0  0  0
  141.5590   72.0320  220.1080 C   0  0  0  0  0  0  0  0  0  0  0  0
  142.8070   72.6330  220.1920 C   0  0  0  0  0  0  0  0  0  0  0  0
  143.9560   71.8790  220.0640 C   0  0  0  0  0  0  0  0  0  0  0  0
  145.1670   72.5700  220.1630 C   0  0  0  0  0  0  0  0  0  0  0  0
  146.3320   71.8600  220.0410 F   0  0  0  0  0  0  0  0  0  0  0  0
  145.2190   73.9290  220.3790 C   0  0  0  0  0  0  0  0  0  0  0  0
  144.0740   74.6830  220.5070 C   0  0  0  0  0  0  0  0  0  0  0  0
  142.8680   74.0020  220.4090 C   0  0  0  0  0  0  0  0  0  0  0  0
  141.7540   74.6910  220.5290 N   0  0  0  0  0  0  0  0  0  0  0  0
  141.0470   76.6220  217.9920 C   0  0  0  0  0  0  0  0  0  0  0  0
  141.0580   76.1220  216.6920 C   0  0  0  0  0  0  0  0  0  0  0  0
  142.2220   75.7950  216.0730 N   0  0  0  0  0  0  0  0  0  0  0  0
  143.9235   76.7421  214.3771 H   0  0  0  0  0  0  0  0  0  0  0  0
  145.5181   75.9539  214.1266 H   0  0  0  0  0  0  0  0  0  0  0  0
  144.0179   74.9659  214.1266 H   0  0  0  0  0  0  0  0  0  0  0  0
  145.4345   76.2928  216.4838 H   0  0  0  0  0  0  0  0  0  0  0  0
  145.0708   74.0100  217.4061 H   0  0  0  0  0  0  0  0  0  0  0  0
  144.2641   73.5401  215.8714 H   0  0  0  0  0  0  0  0  0  0  0  0
  146.0040   73.9869  215.8714 H   0  0  0  0  0  0  0  0  0  0  0  0
  144.3925   76.5834  218.5564 H   0  0  0  0  0  0  0  0  0  0  0  0
  142.4460   76.7420  220.8270 H   0  0  0  0  0  0  0  0  0  0  0  0
  142.6153   81.1237  220.6505 H   0  0  0  0  0  0  0  0  0  0  0  0
  142.5536   82.2343  222.8487 H   0  0  0  0  0  0  0  0  0  0  0  0
  141.6732   81.0874  224.8692 H   0  0  0  0  0  0  0  0  0  0  0  0
  140.8374   78.7287  224.6046 H   0  0  0  0  0  0  0  0  0  0  0  0
  138.8880   77.8720  221.7140 H   0  0  0  0  0  0  0  0  0  0  0  0
  139.0963   75.0987  222.6702 H   0  0  0  0  0  0  0  0  0  0  0  0
  137.7493   75.8254  221.6908 H   0  0  0  0  0  0  0  0  0  0  0  0
  139.4336   72.3540  220.1787 H   0  0  0  0  0  0  0  0  0  0  0  0
  141.4687   70.9491  219.9370 H   0  0  0  0  0  0  0  0  0  0  0  0
  143.9206   70.7929  219.8933 H   0  0  0  0  0  0  0  0  0  0  0  0
  146.1987   74.4241  220.4510 H   0  0  0  0  0  0  0  0  0  0  0  0
  144.1127   75.7689  220.6781 H   0  0  0  0  0  0  0  0  0  0  0  0
  140.0952   76.8820  218.4784 H   0  0  0  0  0  0  0  0  0  0  0  0
  140.1063   75.9895  216.1566 H   0  0  0  0  0  0  0  0  0  0  0  0
  1  2  1  0
  2  3  1  0
  2  4  1  0
  4  5  2  0
  5  6  1  0
  6  7  1  0
  7  8  1  0
  8  9  2  0
  8 10  1  0
 10 11  2  0
 11 12  1  0
 12 13  2  0
 13 14  1  0
 14 15  2  0
 15 16  1  0
 16 17  2  0
 16 18  1  0
 18 19  1  0
 19 20  1  0
 20 21  2  0
 20 22  1  0
 22 23  2  0
 23 24  1  0
 24 25  2  0
 25 26  1  0
 26 27  2  0
 27 28  1  0
 27 29  1  0
 29 30  2  0
 30 31  1  0
 31 32  2  0
  6 33  2  0
 33 34  1  0
 34 35  2  0
 35  4  1  0
 15 10  1  0
 32 22  1  0
 31 25  1  0
  1 36  1  0
  1 37  1  0
  1 38  1  0
  2 39  1  0
  3 40  1  0
  3 41  1  0
  3 42  1  0
  5 43  1  0
  7 44  1  0
 11 45  1  0
 12 46  1  0
 13 47  1  0
 14 48  1  0
 18 49  1  0
 19 50  1  0
 19 51  1  0
 23 52  1  0
 24 53  1  0
 26 54  1  0
 29 55  1  0
 30 56  1  0
 33 57  1  0
 34 58  1  0
M  END
>  <smiles>  (24) 
CC(C)c1cc(NC(=O)c2ccccc2C(=O)NCC(=O)c2ccc3cc(F)ccc3n2)ccn1

>  <score_type>  (24) 
oracle

>  <origin>  (24) 
autodockgpu

>  <m_score__min__energy>  (24) 
-9.8000000000000007

>  <m_primary>  (24) 
energy

>  <rmsd>  (24) 
4.264786804806729

>  <m_score__min__rmsd>  (24) 
4.264786804806729

>  <meeko>  (24) 
{"free_energy": -6.56, "intermolecular_energy": -8.65, "internal_energy": -4.32, "cluster_size": 3, "cluster_id": 11, "rank_in_cluster": 3}

>  <energy>  (24) 
-8.35

>  <cluster_rmsd>  (24) 
1.27

>  <cluster>  (24) 
4

$$$$

     RDKit          3D

 58 61  0  0  0  0  0  0  0  0999 V2000
  140.9130   82.8750  221.2290 C   0  0  0  0  0  0  0  0  0  0  0  0
  140.2020   82.2440  220.0360 C   0  0  0  0  0  0  0  0  0  0  0  0
  138.9250   81.6220  220.5270 C   0  0  0  0  0  0  0  0  0  0  0  0
  141.0790   81.2160  219.4000 C   0  0  0  0  0  0  0  0  0  0  0  0
  141.2390   80.0110  220.0450 C   0  0  0  0  0  0  0  0  0  0  0  0
  142.0270   79.0550  219.4580 C   0  0  0  0  0  0  0  0  0  0  0  0
  142.2420   77.7630  220.0440 N   0  0  0  0  0  0  0  0  0  0  0  0
  141.2940   76.7630  219.6510 C   0  0  0  0  0  0  0  0  0  0  0  0
  140.3500   76.9950  218.8570 O   0  0  0  0  0  0  0  0  0  0  0  0
  141.4590   75.4260  220.2140 C   0  0  0  0  0  0  0  0  0  0  0  0
  142.7020   74.8460  220.0650 C   0  0  0  0  0  0  0  0  0  0  0  0
  142.9100   73.5840  220.5800 C   0  0  0  0  0  0  0  0  0  0  0  0
  141.9300   72.8730  221.2400 C   0  0  0  0  0  0  0  0  0  0  0  0
  140.6820   73.5020  221.3680 C   0  0  0  0  0  0  0  0  0  0  0  0
  140.4430   74.7620  220.8650 C   0  0  0  0  0  0  0  0  0  0  0  0
  139.0970   75.3700  221.0250 C   0  0  0  0  0  0  0  0  0  0  0  0
  138.4900   75.9080  220.0900 O   0  0  0  0  0  0  0  0  0  0  0  0
  138.4720   75.3340  222.3210 N   0  0  0  0  0  0  0  0  0  0  0  0
  137.1740   75.8900  222.5920 C   0  0  0  0  0  0  0  0  0  0  0  0
  137.1290   77.3450  222.3520 C   0  0  0  0  0  0  0  0  0  0  0  0
  136.0940   77.7850  221.7410 O   0  0  0  0  0  0  0  0  0  0  0  0
  138.1260   78.3210  222.7320 C   0  0  0  0  0  0  0  0  0  0  0  0
  137.7560   79.5840  223.1730 C   0  0  0  0  0  0  0  0  0  0  0  0
  138.6990   80.5280  223.5600 C   0  0  0  0  0  0  0  0  0  0  0  0
  140.0440   80.1930  223.5010 C   0  0  0  0  0  0  0  0  0  0  0  0
  141.0090   81.1050  223.8760 C   0  0  0  0  0  0  0  0  0  0  0  0
  142.3370   80.6790  223.7820 C   0  0  0  0  0  0  0  0  0  0  0  0
  143.3270   81.5520  224.1450 F   0  0  0  0  0  0  0  0  0  0  0  0
  142.6710   79.4170  223.3400 C   0  0  0  0  0  0  0  0  0  0  0  0
  141.7090   78.5060  222.9660 C   0  0  0  0  0  0  0  0  0  0  0  0
  140.3890   78.9240  223.0570 C   0  0  0  0  0  0  0  0  0  0  0  0
  139.4440   78.0790  222.7060 N   0  0  0  0  0  0  0  0  0  0  0  0
  142.6370   79.3310  218.2360 C   0  0  0  0  0  0  0  0  0  0  0  0
  142.4350   80.5710  217.6350 C   0  0  0  0  0  0  0  0  0  0  0  0
  141.6530   81.5170  218.2180 N   0  0  0  0  0  0  0  0  0  0  0  0
  140.4773   82.4883  222.1621 H   0  0  0  0  0  0  0  0  0  0  0  0
  141.9834   82.6241  221.1926 H   0  0  0  0  0  0  0  0  0  0  0  0
  140.7911   83.9676  221.1926 H   0  0  0  0  0  0  0  0  0  0  0  0
  139.9760   83.0083  219.2779 H   0  0  0  0  0  0  0  0  0  0  0  0
  138.9181   81.6186  221.6270 H   0  0  0  0  0  0  0  0  0  0  0  0
  138.0678   82.2035  220.1567 H   0  0  0  0  0  0  0  0  0  0  0  0
  138.8544   80.5886  220.1567 H   0  0  0  0  0  0  0  0  0  0  0  0
  140.7460   79.8192  221.0094 H   0  0  0  0  0  0  0  0  0  0  0  0
  143.0270   77.5870  220.6960 H   0  0  0  0  0  0  0  0  0  0  0  0
  143.5113   75.3800  219.5455 H   0  0  0  0  0  0  0  0  0  0  0  0
  143.9018   73.1239  220.4590 H   0  0  0  0  0  0  0  0  0  0  0  0
  142.1164   71.8671  221.6443 H   0  0  0  0  0  0  0  0  0  0  0  0
  139.8691   72.9723  221.8862 H   0  0  0  0  0  0  0  0  0  0  0  0
  139.0220   74.8470  223.0560 H   0  0  0  0  0  0  0  0  0  0  0  0
  136.4359   75.4005  221.9396 H   0  0  0  0  0  0  0  0  0  0  0  0
  136.9476   75.7161  223.6543 H   0  0  0  0  0  0  0  0  0  0  0  0
  136.6882   79.8443  223.2173 H   0  0  0  0  0  0  0  0  0  0  0  0
  138.3848   81.5234  223.9070 H   0  0  0  0  0  0  0  0  0  0  0  0
  140.7474   82.1131  224.2299 H   0  0  0  0  0  0  0  0  0  0  0  0
  143.7317   79.1308  223.2847 H   0  0  0  0  0  0  0  0  0  0  0  0
  141.9732   77.4982  222.6131 H   0  0  0  0  0  0  0  0  0  0  0  0
  143.2726   78.5760  217.7502 H   0  0  0  0  0  0  0  0  0  0  0  0
  142.9174   80.7886  216.6706 H   0  0  0  0  0  0  0  0  0  0  0  0
  1  2  1  0
  2  3  1  0
  2  4  1  0
  4  5  2  0
  5  6  1  0
  6  7  1  0
  7  8  1  0
  8  9  2  0
  8 10  1  0
 10 11  2  0
 11 12  1  0
 12 13  2  0
 13 14  1  0
 14 15  2  0
 15 16  1  0
 16 17  2  0
 16 18  1  0
 18 19  1  0
 19 20  1  0
 20 21  2  0
 20 22  1  0
 22 23  2  0
 23 24  1  0
 24 25  2  0
 25 26  1  0
 26 27  2  0
 27 28  1  0
 27 29  1  0
 29 30  2  0
 30 31  1  0
 31 32  2  0
  6 33  2  0
 33 34  1  0
 34 35  2  0
 35  4  1  0
 15 10  1  0
 32 22  1  0
 31 25  1  0
  1 36  1  0
  1 37  1  0
  1 38  1  0
  2 39  1  0
  3 40  1  0
  3 41  1  0
  3 42  1  0
  5 43  1  0
  7 44  1  0
 11 45  1  0
 12 46  1  0
 13 47  1  0
 14 48  1  0
 18 49  1  0
 19 50  1  0
 19 51  1  0
 23 52  1  0
 24 53  1  0
 26 54  1  0
 29 55  1  0
 30 56  1  0
 33 57  1  0
 34 58  1  0
M  END
>  <smiles>  (25) 
CC(C)c1cc(NC(=O)c2ccccc2C(=O)NCC(=O)c2ccc3cc(F)ccc3n2)ccn1

>  <score_type>  (25) 
oracle

>  <origin>  (25) 
autodockgpu

>  <m_score__min__energy>  (25) 
-9.8000000000000007

>  <m_primary>  (25) 
energy

>  <rmsd>  (25) 
7.069769466821065

>  <m_score__min__rmsd>  (25) 
7.069769466821065

>  <meeko>  (25) 
{"free_energy": -7.32, "intermolecular_energy": -9.41, "internal_energy": -3.39, "cluster_size": 11, "cluster_id": 8, "rank_in_cluster": 2}

>  <energy>  (25) 
-8.9

>  <cluster_rmsd>  (25) 
0.0

>  <cluster>  (25) 
5

$$$$

     RDKit          3D

 58 61  0  0  0  0  0  0  0  0999 V2000
  141.7980   79.3640  224.1770 C   0  0  0  0  0  0  0  0  0  0  0  0
  142.1260   79.3920  222.6880 C   0  0  0  0  0  0  0  0  0  0  0  0
  141.6580   80.7070  222.1290 C   0  0  0  0  0  0  0  0  0  0  0  0
  141.4550   78.2550  221.9920 C   0  0  0  0  0  0  0  0  0  0  0  0
  140.5270   77.5200  222.6950 C   0  0  0  0  0  0  0  0  0  0  0  0
  139.8930   76.4850  222.0570 C   0  0  0  0  0  0  0  0  0  0  0  0
  138.9000   75.6730  222.7000 N   0  0  0  0  0  0  0  0  0  0  0  0
  137.5620   76.1760  222.6030 C   0  0  0  0  0  0  0  0  0  0  0  0
  137.2770   77.2420  222.0040 O   0  0  0  0  0  0  0  0  0  0  0  0
  136.5050   75.3940  223.2370 C   0  0  0  0  0  0  0  0  0  0  0  0
  135.7970   76.0170  224.2430 C   0  0  0  0  0  0  0  0  0  0  0  0
  134.7880   75.3210  224.8730 C   0  0  0  0  0  0  0  0  0  0  0  0
  134.4510   74.0250  224.5430 C   0  0  0  0  0  0  0  0  0  0  0  0
  135.1980   73.4310  223.5130 C   0  0  0  0  0  0  0  0  0  0  0  0
  136.2110   74.1000  222.8650 C   0  0  0  0  0  0  0  0  0  0  0  0
  136.9710   73.4110  221.7890 C   0  0  0  0  0  0  0  0  0  0  0  0
  136.6320   73.4520  220.5990 O   0  0  0  0  0  0  0  0  0  0  0  0
  138.1490   72.6640  222.1440 N   0  0  0  0  0  0  0  0  0  0  0  0
  138.9600   71.9590  221.1880 C   0  0  0  0  0  0  0  0  0  0  0  0
  139.9190   71.0460  221.8360 C   0  0  0  0  0  0  0  0  0  0  0  0
  140.7090   70.4100  221.0550 O   0  0  0  0  0  0  0  0  0  0  0  0
  140.0610   70.7950  223.2530 C   0  0  0  0  0  0  0  0  0  0  0  0
  140.5030   71.7900  224.1140 C   0  0  0  0  0  0  0  0  0  0  0  0
  140.6280   71.5730  225.4800 C   0  0  0  0  0  0  0  0  0  0  0  0
  140.3010   70.3250  225.9900 C   0  0  0  0  0  0  0  0  0  0  0  0
  140.4140   70.0710  227.3420 C   0  0  0  0  0  0  0  0  0  0  0  0
  140.0640   68.7860  227.7650 C   0  0  0  0  0  0  0  0  0  0  0  0
  140.1610   68.4910  229.0980 F   0  0  0  0  0  0  0  0  0  0  0  0
  139.6300   67.8190  226.8850 C   0  0  0  0  0  0  0  0  0  0  0  0
  139.5170   68.0710  225.5360 C   0  0  0  0  0  0  0  0  0  0  0  0
  139.8630   69.3460  225.1110 C   0  0  0  0  0  0  0  0  0  0  0  0
  139.7680   69.6200  223.8280 N   0  0  0  0  0  0  0  0  0  0  0  0
  140.2050   76.2120  220.7270 C   0  0  0  0  0  0  0  0  0  0  0  0
  141.1540   76.9930  220.0720 C   0  0  0  0  0  0  0  0  0  0  0  0
  141.7810   78.0180  220.7060 N   0  0  0  0  0  0  0  0  0  0  0  0
  142.7281   79.4434  224.7589 H   0  0  0  0  0  0  0  0  0  0  0  0
  141.1383   80.2091  224.4231 H   0  0  0  0  0  0  0  0  0  0  0  0
  141.2910   78.4193  224.4231 H   0  0  0  0  0  0  0  0  0  0  0  0
  143.2102   79.2871  222.5344 H   0  0  0  0  0  0  0  0  0  0  0  0
  141.4146   81.3909  222.9554 H   0  0  0  0  0  0  0  0  0  0  0  0
  142.4547   81.1472  221.5113 H   0  0  0  0  0  0  0  0  0  0  0  0
  140.7624   80.5449  221.5113 H   0  0  0  0  0  0  0  0  0  0  0  0
  140.2993   77.7577  223.7446 H   0  0  0  0  0  0  0  0  0  0  0  0
  139.1500   74.7950  223.1880 H   0  0  0  0  0  0  0  0  0  0  0  0
  136.0331   77.0503  224.5372 H   0  0  0  0  0  0  0  0  0  0  0  0
  134.2261   75.8217  225.6752 H   0  0  0  0  0  0  0  0  0  0  0  0
  133.6419   73.4865  225.0581 H   0  0  0  0  0  0  0  0  0  0  0  0
  134.9660   72.3980  223.2146 H   0  0  0  0  0  0  0  0  0  0  0  0
  138.3920   72.6910  223.1540 H   0  0  0  0  0  0  0  0  0  0  0  0
  138.3022   71.3726  220.5297 H   0  0  0  0  0  0  0  0  0  0  0  0
  139.5353   72.7041  220.6190 H   0  0  0  0  0  0  0  0  0  0  0  0
  140.7613   72.7772  223.7032 H   0  0  0  0  0  0  0  0  0  0  0  0
  140.9797   72.3755  226.1450 H   0  0  0  0  0  0  0  0  0  0  0  0
  140.7611   70.8391  228.0488 H   0  0  0  0  0  0  0  0  0  0  0  0
  139.3676   66.8222  227.2690 H   0  0  0  0  0  0  0  0  0  0  0  0
  139.1702   67.3010  224.8312 H   0  0  0  0  0  0  0  0  0  0  0  0
  139.7059   75.3864  220.1985 H   0  0  0  0  0  0  0  0  0  0  0  0
  141.4004   76.7760  219.0222 H   0  0  0  0  0  0  0  0  0  0  0  0
  1  2  1  0
  2  3  1  0
  2  4  1  0
  4  5  2  0
  5  6  1  0
  6  7  1  0
  7  8  1  0
  8  9  2  0
  8 10  1  0
 10 11  2  0
 11 12  1  0
 12 13  2  0
 13 14  1  0
 14 15  2  0
 15 16  1  0
 16 17  2  0
 16 18  1  0
 18 19  1  0
 19 20  1  0
 20 21  2  0
 20 22  1  0
 22 23  2  0
 23 24  1  0
 24 25  2  0
 25 26  1  0
 26 27  2  0
 27 28  1  0
 27 29  1  0
 29 30  2  0
 30 31  1  0
 31 32  2  0
  6 33  2  0
 33 34  1  0
 34 35  2  0
 35  4  1  0
 15 10  1  0
 32 22  1  0
 31 25  1  0
  1 36  1  0
  1 37  1  0
  1 38  1  0
  2 39  1  0
  3 40  1  0
  3 41  1  0
  3 42  1  0
  5 43  1  0
  7 44  1  0
 11 45  1  0
 12 46  1  0
 13 47  1  0
 14 48  1  0
 18 49  1  0
 19 50  1  0
 19 51  1  0
 23 52  1  0
 24 53  1  0
 26 54  1  0
 29 55  1  0
 30 56  1  0
 33 57  1  0
 34 58  1  0
M  END
>  <smiles>  (26) 
CC(C)c1cc(NC(=O)c2ccccc2C(=O)NCC(=O)c2ccc3cc(F)ccc3n2)ccn1

>  <score_type>  (26) 
oracle

>  <origin>  (26) 
autodockgpu

>  <m_score__min__energy>  (26) 
-9.8000000000000007

>  <m_primary>  (26) 
energy

>  <rmsd>  (26) 
7.570056271928128

>  <m_score__min__rmsd>  (26) 
7.570056271928128

>  <meeko>  (26) 
{"free_energy": -8.8, "intermolecular_energy": -10.89, "internal_energy": -1.8, "cluster_size": 4, "cluster_id": 4, "rank_in_cluster": 3}

>  <energy>  (26) 
-8.7

>  <cluster_rmsd>  (26) 
1.03

>  <cluster>  (26) 
5

$$$$

     RDKit          3D

 58 61  0  0  0  0  0  0  0  0999 V2000
  144.9280   73.6270  220.8410 C   0  0  0  0  0  0  0  0  0  0  0  0
  143.6870   73.8090  219.9730 C   0  0  0  0  0  0  0  0  0  0  0  0
  143.2520   75.2450  220.0720 C   0  0  0  0  0  0  0  0  0  0  0  0
  142.5990   72.8960  220.4330 C   0  0  0  0  0  0  0  0  0  0  0  0
  141.5820   73.4290  221.1920 C   0  0  0  0  0  0  0  0  0  0  0  0
  140.5700   72.6000  221.6020 C   0  0  0  0  0  0  0  0  0  0  0  0
  139.4580   73.0640  222.3820 N   0  0  0  0  0  0  0  0  0  0  0  0
  138.1890   72.9820  221.7220 C   0  0  0  0  0  0  0  0  0  0  0  0
  138.0560   72.5390  220.5550 O   0  0  0  0  0  0  0  0  0  0  0  0
  137.0180   73.4400  222.4640 C   0  0  0  0  0  0  0  0  0  0  0  0
  136.7050   74.7790  222.3560 C   0  0  0  0  0  0  0  0  0  0  0  0
  135.6080   75.2600  223.0370 C   0  0  0  0  0  0  0  0  0  0  0  0
  134.8050   74.4630  223.8240 C   0  0  0  0  0  0  0  0  0  0  0  0
  135.1600   73.1080  223.9050 C   0  0  0  0  0  0  0  0  0  0  0  0
  136.2500   72.5960  223.2370 C   0  0  0  0  0  0  0  0  0  0  0  0
  136.5790   71.1530  223.3710 C   0  0  0  0  0  0  0  0  0  0  0  0
  136.6070   70.5720  224.4630 O   0  0  0  0  0  0  0  0  0  0  0  0
  136.8810   70.3990  222.1820 N   0  0  0  0  0  0  0  0  0  0  0  0
  137.2130   69.0000  222.1930 C   0  0  0  0  0  0  0  0  0  0  0  0
  138.5770   68.7550  222.6950 C   0  0  0  0  0  0  0  0  0  0  0  0
  139.3850   68.1860  221.8810 O   0  0  0  0  0  0  0  0  0  0  0  0
  139.0970   69.0870  224.0030 C   0  0  0  0  0  0  0  0  0  0  0  0
  139.0490   68.1710  225.0440 C   0  0  0  0  0  0  0  0  0  0  0  0
  139.5600   68.4650  226.3020 C   0  0  0  0  0  0  0  0  0  0  0  0
  140.1310   69.7120  226.5150 C   0  0  0  0  0  0  0  0  0  0  0  0
  140.6480   70.0420  227.7520 C   0  0  0  0  0  0  0  0  0  0  0  0
  141.2020   71.3190  227.8730 C   0  0  0  0  0  0  0  0  0  0  0  0
  141.7270   71.6870  229.0830 F   0  0  0  0  0  0  0  0  0  0  0  0
  141.2340   72.2060  226.8200 C   0  0  0  0  0  0  0  0  0  0  0  0
  140.7190   71.8790  225.5860 C   0  0  0  0  0  0  0  0  0  0  0  0
  140.1670   70.6110  225.4590 C   0  0  0  0  0  0  0  0  0  0  0  0
  139.6640   70.2660  224.2940 N   0  0  0  0  0  0  0  0  0  0  0  0
  140.6020   71.2550  221.2400 C   0  0  0  0  0  0  0  0  0  0  0  0
  141.6600   70.7770  220.4710 C   0  0  0  0  0  0  0  0  0  0  0  0
  142.6620   71.6000  220.0650 N   0  0  0  0  0  0  0  0  0  0  0  0
  144.6424   73.6689  221.9025 H   0  0  0  0  0  0  0  0  0  0  0  0
  145.3879   72.6518  220.6233 H   0  0  0  0  0  0  0  0  0  0  0  0
  145.6486   74.4291  220.6233 H   0  0  0  0  0  0  0  0  0  0  0  0
  143.9140   73.5601  218.9259 H   0  0  0  0  0  0  0  0  0  0  0  0
  143.1657   75.5298  221.1310 H   0  0  0  0  0  0  0  0  0  0  0  0
  143.9956   75.8882  219.5787 H   0  0  0  0  0  0  0  0  0  0  0  0
  142.2765   75.3675  219.5787 H   0  0  0  0  0  0  0  0  0  0  0  0
  141.5812   74.4950  221.4632 H   0  0  0  0  0  0  0  0  0  0  0  0
  139.5840   73.4250  223.3450 H   0  0  0  0  0  0  0  0  0  0  0  0
  137.3195   75.4501  221.7379 H   0  0  0  0  0  0  0  0  0  0  0  0
  135.3620   76.3285  222.9485 H   0  0  0  0  0  0  0  0  0  0  0  0
  133.9333   74.8672  224.3595 H   0  0  0  0  0  0  0  0  0  0  0  0
  134.5482   72.4332  224.5217 H   0  0  0  0  0  0  0  0  0  0  0  0
  136.8150   70.9400  221.2970 H   0  0  0  0  0  0  0  0  0  0  0  0
  136.4973   68.4712  222.8396 H   0  0  0  0  0  0  0  0  0  0  0  0
  137.1636   68.6332  221.1571 H   0  0  0  0  0  0  0  0  0  0  0  0
  138.5939   67.1851  224.8685 H   0  0  0  0  0  0  0  0  0  0  0  0
  139.5130   67.7239  227.1135 H   0  0  0  0  0  0  0  0  0  0  0  0
  140.6250   69.3376  228.5966 H   0  0  0  0  0  0  0  0  0  0  0  0
  141.6818   73.1997  226.9686 H   0  0  0  0  0  0  0  0  0  0  0  0
  140.7434   72.5859  224.7436 H   0  0  0  0  0  0  0  0  0  0  0  0
  139.7977   70.5759  221.5592 H   0  0  0  0  0  0  0  0  0  0  0  0
  141.6850   69.7145  220.1872 H   0  0  0  0  0  0  0  0  0  0  0  0
  1  2  1  0
  2  3  1  0
  2  4  1  0
  4  5  2  0
  5  6  1  0
  6  7  1  0
  7  8  1  0
  8  9  2  0
  8 10  1  0
 10 11  2  0
 11 12  1  0
 12 13  2  0
 13 14  1  0
 14 15  2  0
 15 16  1  0
 16 17  2  0
 16 18  1  0
 18 19  1  0
 19 20  1  0
 20 21  2  0
 20 22  1  0
 22 23  2  0
 23 24  1  0
 24 25  2  0
 25 26  1  0
 26 27  2  0
 27 28  1  0
 27 29  1  0
 29 30  2  0
 30 31  1  0
 31 32  2  0
  6 33  2  0
 33 34  1  0
 34 35  2  0
 35  4  1  0
 15 10  1  0
 32 22  1  0
 31 25  1  0
  1 36  1  0
  1 37  1  0
  1 38  1  0
  2 39  1  0
  3 40  1  0
  3 41  1  0
  3 42  1  0
  5 43  1  0
  7 44  1  0
 11 45  1  0
 12 46  1  0
 13 47  1  0
 14 48  1  0
 18 49  1  0
 19 50  1  0
 19 51  1  0
 23 52  1  0
 24 53  1  0
 26 54  1  0
 29 55  1  0
 30 56  1  0
 33 57  1  0
 34 58  1  0
M  END
>  <smiles>  (27) 
CC(C)c1cc(NC(=O)c2ccccc2C(=O)NCC(=O)c2ccc3cc(F)ccc3n2)ccn1

>  <score_type>  (27) 
oracle

>  <origin>  (27) 
autodockgpu

>  <m_score__min__energy>  (27) 
-9.8000000000000007

>  <m_primary>  (27) 
energy

>  <rmsd>  (27) 
7.148183127693862

>  <m_score__min__rmsd>  (27) 
7.148183127693862

>  <meeko>  (27) 
{"free_energy": -7.4, "intermolecular_energy": -9.48, "internal_energy": -3.43, "cluster_size": 1, "cluster_id": 10, "rank_in_cluster": 1}

>  <energy>  (27) 
-8.46

>  <cluster_rmsd>  (27) 
1.05

>  <cluster>  (27) 
5

$$$$

     RDKit          3D

 58 61  0  0  0  0  0  0  0  0999 V2000
  141.1130   71.9020  226.9210 C   0  0  0  0  0  0  0  0  0  0  0  0
  140.2260   70.6790  226.7130 C   0  0  0  0  0  0  0  0  0  0  0  0
  140.9590   69.4740  227.2350 C   0  0  0  0  0  0  0  0  0  0  0  0
  139.9070   70.5150  225.2640 C   0  0  0  0  0  0  0  0  0  0  0  0
  140.6190   71.2620  224.3540 C   0  0  0  0  0  0  0  0  0  0  0  0
  140.3440   71.1030  223.0200 C   0  0  0  0  0  0  0  0  0  0  0  0
  141.0420   71.8250  221.9950 N   0  0  0  0  0  0  0  0  0  0  0  0
  140.7360   73.2240  221.9350 C   0  0  0  0  0  0  0  0  0  0  0  0
  139.9230   73.7760  222.7160 O   0  0  0  0  0  0  0  0  0  0  0  0
  141.4160   74.0140  220.9140 C   0  0  0  0  0  0  0  0  0  0  0  0
  142.7860   73.8760  220.8390 C   0  0  0  0  0  0  0  0  0  0  0  0
  143.4750   74.6000  219.8900 C   0  0  0  0  0  0  0  0  0  0  0  0
  142.8560   75.4590  219.0070 C   0  0  0  0  0  0  0  0  0  0  0  0
  141.4610   75.5680  219.1180 C   0  0  0  0  0  0  0  0  0  0  0  0
  140.7440   74.8580  220.0560 C   0  0  0  0  0  0  0  0  0  0  0  0
  139.2690   75.0240  220.1290 C   0  0  0  0  0  0  0  0  0  0  0  0
  138.5210   74.7830  219.1740 O   0  0  0  0  0  0  0  0  0  0  0  0
  138.6870   75.4880  221.3610 N   0  0  0  0  0  0  0  0  0  0  0  0
  137.2740   75.6860  221.5460 C   0  0  0  0  0  0  0  0  0  0  0  0
  136.9710   76.9800  222.1850 C   0  0  0  0  0  0  0  0  0  0  0  0
  135.7330   77.2310  222.3920 O   0  0  0  0  0  0  0  0  0  0  0  0
  137.9200   77.9890  222.6000 C   0  0  0  0  0  0  0  0  0  0  0  0
  137.4900   79.2260  223.0600 C   0  0  0  0  0  0  0  0  0  0  0  0
  138.3850   80.2010  223.4810 C   0  0  0  0  0  0  0  0  0  0  0  0
  139.7440   79.9240  223.4380 C   0  0  0  0  0  0  0  0  0  0  0  0
  140.6640   80.8680  223.8460 C   0  0  0  0  0  0  0  0  0  0  0  0
  142.0100   80.5000  223.7660 C   0  0  0  0  0  0  0  0  0  0  0  0
  142.9570   81.4060  224.1620 F   0  0  0  0  0  0  0  0  0  0  0  0
  142.4040   79.2630  223.3050 C   0  0  0  0  0  0  0  0  0  0  0  0
  141.4880   78.3200  222.8970 C   0  0  0  0  0  0  0  0  0  0  0  0
  140.1500   78.6800  222.9740 C   0  0  0  0  0  0  0  0  0  0  0  0
  139.2470   77.8040  222.5910 N   0  0  0  0  0  0  0  0  0  0  0  0
  139.3610   70.1960  222.6310 C   0  0  0  0  0  0  0  0  0  0  0  0
  138.6760   69.4690  223.6020 C   0  0  0  0  0  0  0  0  0  0  0  0
  138.9500   69.6280  224.9230 N   0  0  0  0  0  0  0  0  0  0  0  0
  141.2432   72.0815  227.9984 H   0  0  0  0  0  0  0  0  0  0  0  0
  142.0948   71.7260  226.4573 H   0  0  0  0  0  0  0  0  0  0  0  0
  140.6407   72.7806  226.4573 H   0  0  0  0  0  0  0  0  0  0  0  0
  139.2760   70.8002  227.2541 H   0  0  0  0  0  0  0  0  0  0  0  0
  140.9506   69.4878  228.3349 H   0  0  0  0  0  0  0  0  0  0  0  0
  140.4639   68.5597  226.8760 H   0  0  0  0  0  0  0  0  0  0  0  0
  141.9986   69.4932  226.8760 H   0  0  0  0  0  0  0  0  0  0  0  0
  141.3910   71.9704  224.6888 H   0  0  0  0  0  0  0  0  0  0  0  0
  141.7120   71.3550  221.3610 H   0  0  0  0  0  0  0  0  0  0  0  0
  143.3192   73.2004  221.5241 H   0  0  0  0  0  0  0  0  0  0  0  0
  144.5678   74.4874  219.8346 H   0  0  0  0  0  0  0  0  0  0  0  0
  143.4243   76.0279  218.2565 H   0  0  0  0  0  0  0  0  0  0  0  0
  140.9233   76.2416  218.4345 H   0  0  0  0  0  0  0  0  0  0  0  0
  139.3670   75.6480  222.1300 H   0  0  0  0  0  0  0  0  0  0  0  0
  136.7801   75.6519  220.5637 H   0  0  0  0  0  0  0  0  0  0  0  0
  136.9054   74.8884  222.2079 H   0  0  0  0  0  0  0  0  0  0  0  0
  136.4115   79.4398  223.0919 H   0  0  0  0  0  0  0  0  0  0  0  0
  138.0231   81.1750  223.8420 H   0  0  0  0  0  0  0  0  0  0  0  0
  140.3547   81.8572  224.2145 H   0  0  0  0  0  0  0  0  0  0  0  0
  143.4767   79.0231  223.2619 H   0  0  0  0  0  0  0  0  0  0  0  0
  141.8006   77.3317  222.5288 H   0  0  0  0  0  0  0  0  0  0  0  0
  139.1274   70.0549  221.5654 H   0  0  0  0  0  0  0  0  0  0  0  0
  137.8995   68.7535  223.2936 H   0  0  0  0  0  0  0  0  0  0  0  0
  1  2  1  0
  2  3  1  0
  2  4  1  0
  4  5  2  0
  5  6  1  0
  6  7  1  0
  7  8  1  0
  8  9  2  0
  8 10  1  0
 10 11  2  0
 11 12  1  0
 12 13  2  0
 13 14  1  0
 14 15  2  0
 15 16  1  0
 16 17  2  0
 16 18  1  0
 18 19  1  0
 19 20  1  0
 20 21  2  0
 20 22  1  0
 22 23  2  0
 23 24  1  0
 24 25  2  0
 25 26  1  0
 26 27  2  0
 27 28  1  0
 27 29  1  0
 29 30  2  0
 30 31  1  0
 31 32  2  0
  6 33  2  0
 33 34  1  0
 34 35  2  0
 35  4  1  0
 15 10  1  0
 32 22  1  0
 31 25  1  0
  1 36  1  0
  1 37  1  0
  1 38  1  0
  2 39  1  0
  3 40  1  0
  3 41  1  0
  3 42  1  0
  5 43  1  0
  7 44  1  0
 11 45  1  0
 12 46  1  0
 13 47  1  0
 14 48  1  0
 18 49  1  0
 19 50  1  0
 19 51  1  0
 23 52  1  0
 24 53  1  0
 26 54  1  0
 29 55  1  0
 30 56  1  0
 33 57  1  0
 34 58  1  0
M  END
>  <smiles>  (28) 
CC(C)c1cc(NC(=O)c2ccccc2C(=O)NCC(=O)c2ccc3cc(F)ccc3n2)ccn1

>  <score_type>  (28) 
oracle

>  <origin>  (28) 
autodockgpu

>  <m_score__min__energy>  (28) 
-9.8000000000000007

>  <m_primary>  (28) 
energy

>  <rmsd>  (28) 
8.454319197286026

>  <m_score__min__rmsd>  (28) 
8.454319197286026

>  <meeko>  (28) 
{"free_energy": -8.38, "intermolecular_energy": -10.47, "internal_energy": -2.9, "cluster_size": 4, "cluster_id": 5, "rank_in_cluster": 4}

>  <energy>  (28) 
-8.38

>  <cluster_rmsd>  (28) 
1.35

>  <cluster>  (28) 
5

$$$$

     RDKit          3D

 58 61  0  0  0  0  0  0  0  0999 V2000
  139.5840   80.5200  222.7780 C   0  0  0  0  0  0  0  0  0  0  0  0
  140.0280   79.3050  223.5860 C   0  0  0  0  0  0  0  0  0  0  0  0
  141.5120   79.4040  223.8060 C   0  0  0  0  0  0  0  0  0  0  0  0
  139.6850   78.0490  222.8560 C   0  0  0  0  0  0  0  0  0  0  0  0
  140.6800   77.4240  222.1390 C   0  0  0  0  0  0  0  0  0  0  0  0
  140.3770   76.2590  221.4810 C   0  0  0  0  0  0  0  0  0  0  0  0
  141.3490   75.5260  220.7210 N   0  0  0  0  0  0  0  0  0  0  0  0
  141.6440   74.2190  221.2300 C   0  0  0  0  0  0  0  0  0  0  0  0
  141.0970   73.7500  222.2580 O   0  0  0  0  0  0  0  0  0  0  0  0
  142.6250   73.4220  220.5000 C   0  0  0  0  0  0  0  0  0  0  0  0
  143.7870   74.0660  220.1290 C   0  0  0  0  0  0  0  0  0  0  0  0
  144.7460   73.3580  219.4390 C   0  0  0  0  0  0  0  0  0  0  0  0
  144.5990   72.0290  219.1000 C   0  0  0  0  0  0  0  0  0  0  0  0
  143.4010   71.4150  219.4970 C   0  0  0  0  0  0  0  0  0  0  0  0
  142.4240   72.0950  220.1880 C   0  0  0  0  0  0  0  0  0  0  0  0
  141.1730   71.3900  220.5720 C   0  0  0  0  0  0  0  0  0  0  0  0
  141.1360   70.1770  220.8130 O   0  0  0  0  0  0  0  0  0  0  0  0
  139.9530   72.1490  220.6660 N   0  0  0  0  0  0  0  0  0  0  0  0
  138.6860   71.5720  221.0280 C   0  0  0  0  0  0  0  0  0  0  0  0
  138.3900   71.7320  222.4630 C   0  0  0  0  0  0  0  0  0  0  0  0
  137.3670   72.4440  222.7520 O   0  0  0  0  0  0  0  0  0  0  0  0
  139.1280   71.1710  223.5720 C   0  0  0  0  0  0  0  0  0  0  0  0
  140.2310   71.8280  224.1010 C   0  0  0  0  0  0  0  0  0  0  0  0
  140.9420   71.3140  225.1780 C   0  0  0  0  0  0  0  0  0  0  0  0
  140.5330   70.1110  225.7350 C   0  0  0  0  0  0  0  0  0  0  0  0
  141.2150   69.5680  226.8050 C   0  0  0  0  0  0  0  0  0  0  0  0
  140.7310   68.3530  227.2990 C   0  0  0  0  0  0  0  0  0  0  0  0
  141.3780   67.7790  228.3600 F   0  0  0  0  0  0  0  0  0  0  0  0
  139.6330   67.7260  226.7510 C   0  0  0  0  0  0  0  0  0  0  0  0
  138.9520   68.2660  225.6840 C   0  0  0  0  0  0  0  0  0  0  0  0
  139.4280   69.4720  225.1890 C   0  0  0  0  0  0  0  0  0  0  0  0
  138.8020   70.0160  224.1690 N   0  0  0  0  0  0  0  0  0  0  0  0
  139.0830   75.7490  221.5590 C   0  0  0  0  0  0  0  0  0  0  0  0
  138.1220   76.4310  222.3010 C   0  0  0  0  0  0  0  0  0  0  0  0
  138.4230   77.5840  222.9520 N   0  0  0  0  0  0  0  0  0  0  0  0
  139.2887   81.3281  223.4634 H   0  0  0  0  0  0  0  0  0  0  0  0
  140.4151   80.8623  222.1439 H   0  0  0  0  0  0  0  0  0  0  0  0
  138.7280   80.2458  222.1439 H   0  0  0  0  0  0  0  0  0  0  0  0
  139.5098   79.2816  224.5560 H   0  0  0  0  0  0  0  0  0  0  0  0
  141.7225   79.4180  224.8856 H   0  0  0  0  0  0  0  0  0  0  0  0
  142.0094   78.5370  223.3467 H   0  0  0  0  0  0  0  0  0  0  0  0
  141.8898   80.3293  223.3467 H   0  0  0  0  0  0  0  0  0  0  0  0
  141.6938   77.8485  222.0947 H   0  0  0  0  0  0  0  0  0  0  0  0
  141.7900   75.9260  219.8740 H   0  0  0  0  0  0  0  0  0  0  0  0
  143.9448   75.1254  220.3796 H   0  0  0  0  0  0  0  0  0  0  0  0
  145.6709   73.8758  219.1450 H   0  0  0  0  0  0  0  0  0  0  0  0
  145.3775   71.4809  218.5491 H   0  0  0  0  0  0  0  0  0  0  0  0
  143.2376   70.3561  219.2478 H   0  0  0  0  0  0  0  0  0  0  0  0
  140.0570   73.1650  220.4760 H   0  0  0  0  0  0  0  0  0  0  0  0
  137.8933   72.0647  220.4459 H   0  0  0  0  0  0  0  0  0  0  0  0
  138.7318   70.4946  220.8111 H   0  0  0  0  0  0  0  0  0  0  0  0
  140.5505   72.7815  223.6551 H   0  0  0  0  0  0  0  0  0  0  0  0
  141.8131   71.8508  225.5817 H   0  0  0  0  0  0  0  0  0  0  0  0
  142.0922   70.0645  227.2454 H   0  0  0  0  0  0  0  0  0  0  0  0
  139.2926   66.7706  227.1768 H   0  0  0  0  0  0  0  0  0  0  0  0
  138.0750   67.7671  225.2458 H   0  0  0  0  0  0  0  0  0  0  0  0
  138.8225   74.8154  221.0389 H   0  0  0  0  0  0  0  0  0  0  0  0
  137.1001   76.0282  222.3608 H   0  0  0  0  0  0  0  0  0  0  0  0
  1  2  1  0
  2  3  1  0
  2  4  1  0
  4  5  2  0
  5  6  1  0
  6  7  1  0
  7  8  1  0
  8  9  2  0
  8 10  1  0
 10 11  2  0
 11 12  1  0
 12 13  2  0
 13 14  1  0
 14 15  2  0
 15 16  1  0
 16 17  2  0
 16 18  1  0
 18 19  1  0
 19 20  1  0
 20 21  2  0
 20 22  1  0
 22 23  2  0
 23 24  1  0
 24 25  2  0
 25 26  1  0
 26 27  2  0
 27 28  1  0
 27 29  1  0
 29 30  2  0
 30 31  1  0
 31 32  2  0
  6 33  2  0
 33 34  1  0
 34 35  2  0
 35  4  1  0
 15 10  1  0
 32 22  1  0
 31 25  1  0
  1 36  1  0
  1 37  1  0
  1 38  1  0
  2 39  1  0
  3 40  1  0
  3 41  1  0
  3 42  1  0
  5 43  1  0
  7 44  1  0
 11 45  1  0
 12 46  1  0
 13 47  1  0
 14 48  1  0
 18 49  1  0
 19 50  1  0
 19 51  1  0
 23 52  1  0
 24 53  1  0
 26 54  1  0
 29 55  1  0
 30 56  1  0
 33 57  1  0
 34 58  1  0
M  END
>  <smiles>  (29) 
CC(C)c1cc(NC(=O)c2ccccc2C(=O)NCC(=O)c2ccc3cc(F)ccc3n2)ccn1

>  <score_type>  (29) 
oracle

>  <origin>  (29) 
autodockgpu

>  <m_score__min__energy>  (29) 
-9.8000000000000007

>  <m_primary>  (29) 
energy

>  <rmsd>  (29) 
7.947797415983095

>  <m_score__min__rmsd>  (29) 
7.947797415983095

>  <meeko>  (29) 
{"free_energy": -8.14, "intermolecular_energy": -10.23, "internal_energy": -2.3, "cluster_size": 8, "cluster_id": 1, "rank_in_cluster": 8}

>  <energy>  (29) 
-8.66

>  <cluster_rmsd>  (29) 
0.0

>  <cluster>  (29) 
6

$$$$

     RDKit          3D

 58 61  0  0  0  0  0  0  0  0999 V2000
  141.5220   81.8020  221.6920 C   0  0  0  0  0  0  0  0  0  0  0  0
  141.1170   81.1700  223.0190 C   0  0  0  0  0  0  0  0  0  0  0  0
  142.3540   81.0120  223.8600 C   0  0  0  0  0  0  0  0  0  0  0  0
  140.4690   79.8470  222.7820 C   0  0  0  0  0  0  0  0  0  0  0  0
  141.2790   78.7570  222.5620 C   0  0  0  0  0  0  0  0  0  0  0  0
  140.6910   77.5340  222.3620 C   0  0  0  0  0  0  0  0  0  0  0  0
  141.4510   76.3370  222.1410 N   0  0  0  0  0  0  0  0  0  0  0  0
  141.7860   76.0870  220.7700 C   0  0  0  0  0  0  0  0  0  0  0  0
  141.4440   76.8520  219.8360 O   0  0  0  0  0  0  0  0  0  0  0  0
  142.5600   74.8840  220.4800 C   0  0  0  0  0  0  0  0  0  0  0  0
  143.7900   75.0730  219.8840 C   0  0  0  0  0  0  0  0  0  0  0  0
  144.5600   73.9690  219.5900 C   0  0  0  0  0  0  0  0  0  0  0  0
  144.1580   72.6790  219.8650 C   0  0  0  0  0  0  0  0  0  0  0  0
  142.9010   72.5340  220.4720 C   0  0  0  0  0  0  0  0  0  0  0  0
  142.1080   73.6170  220.7780 C   0  0  0  0  0  0  0  0  0  0  0  0
  140.7820   73.3970  221.4110 C   0  0  0  0  0  0  0  0  0  0  0  0
  140.3560   74.1020  222.3340 O   0  0  0  0  0  0  0  0  0  0  0  0
  139.9580   72.3180  220.9330 N   0  0  0  0  0  0  0  0  0  0  0  0
  138.6590   72.0120  221.4700 C   0  0  0  0  0  0  0  0  0  0  0  0
  138.6670   70.7810  222.2820 C   0  0  0  0  0  0  0  0  0  0  0  0
  138.0420   69.7780  221.7920 O   0  0  0  0  0  0  0  0  0  0  0  0
  139.3040   70.5890  223.5660 C   0  0  0  0  0  0  0  0  0  0  0  0
  140.0370   71.6080  224.1590 C   0  0  0  0  0  0  0  0  0  0  0  0
  140.6410   71.4480  225.4000 C   0  0  0  0  0  0  0  0  0  0  0  0
  140.5020   70.2350  226.0590 C   0  0  0  0  0  0  0  0  0  0  0  0
  141.0880   70.0380  227.2930 C   0  0  0  0  0  0  0  0  0  0  0  0
  140.8960   68.7850  227.8800 C   0  0  0  0  0  0  0  0  0  0  0  0
  141.4600   68.5470  229.1040 F   0  0  0  0  0  0  0  0  0  0  0  0
  140.1620   67.7940  227.2650 C   0  0  0  0  0  0  0  0  0  0  0  0
  139.5770   67.9880  226.0340 C   0  0  0  0  0  0  0  0  0  0  0  0
  139.7650   69.2310  225.4460 C   0  0  0  0  0  0  0  0  0  0  0  0
  139.2210   69.4510  224.2690 N   0  0  0  0  0  0  0  0  0  0  0  0
  139.3010   77.4340  222.3890 C   0  0  0  0  0  0  0  0  0  0  0  0
  138.5370   78.5760  222.6160 C   0  0  0  0  0  0  0  0  0  0  0  0
  139.1220   79.7870  222.8140 N   0  0  0  0  0  0  0  0  0  0  0  0
  142.1064   82.7140  221.8835 H   0  0  0  0  0  0  0  0  0  0  0  0
  142.1321   81.0894  221.1175 H   0  0  0  0  0  0  0  0  0  0  0  0
  140.6197   82.0586  221.1175 H   0  0  0  0  0  0  0  0  0  0  0  0
  140.3911   81.8108  223.5410 H   0  0  0  0  0  0  0  0  0  0  0  0
  142.0804   81.0470  224.9248 H   0  0  0  0  0  0  0  0  0  0  0  0
  142.8294   80.0458  223.6351 H   0  0  0  0  0  0  0  0  0  0  0  0
  143.0569   81.8277  223.6351 H   0  0  0  0  0  0  0  0  0  0  0  0
  142.3737   78.8638  222.5468 H   0  0  0  0  0  0  0  0  0  0  0  0
  141.7280   75.7180  222.9230 H   0  0  0  0  0  0  0  0  0  0  0  0
  144.1489   76.0857  219.6481 H   0  0  0  0  0  0  0  0  0  0  0  0
  145.5397   74.1236  219.1144 H   0  0  0  0  0  0  0  0  0  0  0  0
  144.7882   71.8109  219.6219 H   0  0  0  0  0  0  0  0  0  0  0  0
  142.5380   71.5234  220.7107 H   0  0  0  0  0  0  0  0  0  0  0  0
  140.3630   71.7810  220.1410 H   0  0  0  0  0  0  0  0  0  0  0  0
  138.3303   72.8506  222.1015 H   0  0  0  0  0  0  0  0  0  0  0  0
  137.9731   71.8541  220.6247 H   0  0  0  0  0  0  0  0  0  0  0  0
  140.1424   72.5679  223.6322 H   0  0  0  0  0  0  0  0  0  0  0  0
  141.2187   72.2679  225.8517 H   0  0  0  0  0  0  0  0  0  0  0  0
  141.6750   70.8257  227.7879 H   0  0  0  0  0  0  0  0  0  0  0  0
  140.0406   66.8243  227.7700 H   0  0  0  0  0  0  0  0  0  0  0  0
  138.9906   67.1983  225.5416 H   0  0  0  0  0  0  0  0  0  0  0  0
  138.8117   76.4614  222.2324 H   0  0  0  0  0  0  0  0  0  0  0  0
  137.4400   78.4967  222.6354 H   0  0  0  0  0  0  0  0  0  0  0  0
  1  2  1  0
  2  3  1  0
  2  4  1  0
  4  5  2  0
  5  6  1  0
  6  7  1  0
  7  8  1  0
  8  9  2  0
  8 10  1  0
 10 11  2  0
 11 12  1  0
 12 13  2  0
 13 14  1  0
 14 15  2  0
 15 16  1  0
 16 17  2  0
 16 18  1  0
 18 19  1  0
 19 20  1  0
 20 21  2  0
 20 22  1  0
 22 23  2  0
 23 24  1  0
 24 25  2  0
 25 26  1  0
 26 27  2  0
 27 28  1  0
 27 29  1  0
 29 30  2  0
 30 31  1  0
 31 32  2  0
  6 33  2  0
 33 34  1  0
 34 35  2  0
 35  4  1  0
 15 10  1  0
 32 22  1  0
 31 25  1  0
  1 36  1  0
  1 37  1  0
  1 38  1  0
  2 39  1  0
  3 40  1  0
  3 41  1  0
  3 42  1  0
  5 43  1  0
  7 44  1  0
 11 45  1  0
 12 46  1  0
 13 47  1  0
 14 48  1  0
 18 49  1  0
 19 50  1  0
 19 51  1  0
 23 52  1  0
 24 53  1  0
 26 54  1  0
 29 55  1  0
 30 56  1  0
 33 57  1  0
 34 58  1  0
M  END
>  <smiles>  (30) 
CC(C)c1cc(NC(=O)c2ccccc2C(=O)NCC(=O)c2ccc3cc(F)ccc3n2)ccn1

>  <score_type>  (30) 
oracle

>  <origin>  (30) 
autodockgpu

>  <m_score__min__energy>  (30) 
-9.8000000000000007

>  <m_primary>  (30) 
energy

>  <rmsd>  (30) 
7.632478166809636

>  <m_score__min__rmsd>  (30) 
7.632478166809636

>  <meeko>  (30) 
{"free_energy": -9.8, "intermolecular_energy": -11.88, "internal_energy": -2.15, "cluster_size": 8, "cluster_id": 1, "rank_in_cluster": 1}

>  <energy>  (30) 
-7.72

>  <cluster_rmsd>  (30) 
0.0

>  <cluster>  (30) 
7

$$$$

     RDKit          3D

 58 61  0  0  0  0  0  0  0  0999 V2000
  137.3260   81.2430  220.1230 C   0  0  0  0  0  0  0  0  0  0  0  0
  138.0700   80.3650  219.1220 C   0  0  0  0  0  0  0  0  0  0  0  0
  137.4910   78.9800  219.1910 C   0  0  0  0  0  0  0  0  0  0  0  0
  139.5280   80.3430  219.4420 C   0  0  0  0  0  0  0  0  0  0  0  0
  140.0960   79.1410  219.7970 C   0  0  0  0  0  0  0  0  0  0  0  0
  141.4390   79.1100  220.0750 C   0  0  0  0  0  0  0  0  0  0  0  0
  142.1250   77.9030  220.4380 N   0  0  0  0  0  0  0  0  0  0  0  0
  141.8100   76.7680  219.6220 C   0  0  0  0  0  0  0  0  0  0  0  0
  141.0010   76.8220  218.6640 O   0  0  0  0  0  0  0  0  0  0  0  0
  142.4770   75.5090  219.9400 C   0  0  0  0  0  0  0  0  0  0  0  0
  143.7640   75.3570  219.4670 C   0  0  0  0  0  0  0  0  0  0  0  0
  144.4380   74.1870  219.7420 C   0  0  0  0  0  0  0  0  0  0  0  0
  143.8840   73.1560  220.4720 C   0  0  0  0  0  0  0  0  0  0  0  0
  142.5730   73.3540  220.9340 C   0  0  0  0  0  0  0  0  0  0  0  0
  141.8740   74.5120  220.6760 C   0  0  0  0  0  0  0  0  0  0  0  0
  140.4850   74.6560  221.1840 C   0  0  0  0  0  0  0  0  0  0  0  0
  140.1290   74.2260  222.2880 O   0  0  0  0  0  0  0  0  0  0  0  0
  139.5120   75.3230  220.3580 N   0  0  0  0  0  0  0  0  0  0  0  0
  138.1420   75.5190  220.7470 C   0  0  0  0  0  0  0  0  0  0  0  0
  138.0230   76.2120  222.0430 C   0  0  0  0  0  0  0  0  0  0  0  0
  137.2750   75.6530  222.9170 O   0  0  0  0  0  0  0  0  0  0  0  0
  138.6610   77.4510  222.4290 C   0  0  0  0  0  0  0  0  0  0  0  0
  137.9330   78.6290  222.5250 C   0  0  0  0  0  0  0  0  0  0  0  0
  138.5250   79.8250  222.9110 C   0  0  0  0  0  0  0  0  0  0  0  0
  139.8800   79.8350  223.2080 C   0  0  0  0  0  0  0  0  0  0  0  0
  140.5030   81.0040  223.5940 C   0  0  0  0  0  0  0  0  0  0  0  0
  141.8700   80.9180  223.8710 C   0  0  0  0  0  0  0  0  0  0  0  0
  142.5280   82.0550  224.2580 F   0  0  0  0  0  0  0  0  0  0  0  0
  142.5650   79.7330  223.7660 C   0  0  0  0  0  0  0  0  0  0  0  0
  141.9450   78.5660  223.3810 C   0  0  0  0  0  0  0  0  0  0  0  0
  140.5870   78.6460  223.1040 C   0  0  0  0  0  0  0  0  0  0  0  0
  139.9630   77.5490  222.7320 N   0  0  0  0  0  0  0  0  0  0  0  0
  142.1800   80.2860  219.9880 C   0  0  0  0  0  0  0  0  0  0  0  0
  141.5450   81.4710  219.6240 C   0  0  0  0  0  0  0  0  0  0  0  0
  140.2150   81.5000  219.3490 N   0  0  0  0  0  0  0  0  0  0  0  0
  137.5872   80.9348  221.1461 H   0  0  0  0  0  0  0  0  0  0  0  0
  137.6124   82.2943  219.9724 H   0  0  0  0  0  0  0  0  0  0  0  0
  136.2419   81.1331  219.9724 H   0  0  0  0  0  0  0  0  0  0  0  0
  137.9550   80.7657  218.1040 H   0  0  0  0  0  0  0  0  0  0  0  0
  137.3681   78.6860  220.2438 H   0  0  0  0  0  0  0  0  0  0  0  0
  136.5119   78.9665  218.6898 H   0  0  0  0  0  0  0  0  0  0  0  0
  138.1692   78.2737  218.6898 H   0  0  0  0  0  0  0  0  0  0  0  0
  139.4875   78.2265  219.8565 H   0  0  0  0  0  0  0  0  0  0  0  0
  142.7930   77.8750  221.2290 H   0  0  0  0  0  0  0  0  0  0  0  0
  144.2433   76.1551  218.8811 H   0  0  0  0  0  0  0  0  0  0  0  0
  145.4638   74.0699  219.3624 H   0  0  0  0  0  0  0  0  0  0  0  0
  144.4389   72.2295  220.6807 H   0  0  0  0  0  0  0  0  0  0  0  0
  142.0891   72.5591  221.5205 H   0  0  0  0  0  0  0  0  0  0  0  0
  139.8820   75.6820  219.4560 H   0  0  0  0  0  0  0  0  0  0  0  0
  137.6379   76.1206  219.9763 H   0  0  0  0  0  0  0  0  0  0  0  0
  137.6761   74.5280  220.8508 H   0  0  0  0  0  0  0  0  0  0  0  0
  136.8587   78.6151  222.2891 H   0  0  0  0  0  0  0  0  0  0  0  0
  137.9299   80.7476  222.9799 H   0  0  0  0  0  0  0  0  0  0  0  0
  139.9531   81.9529  223.6791 H   0  0  0  0  0  0  0  0  0  0  0  0
  143.6408   79.7192  223.9953 H   0  0  0  0  0  0  0  0  0  0  0  0
  142.4973   77.6184  223.2971 H   0  0  0  0  0  0  0  0  0  0  0  0
  143.2583   80.2790  220.2051 H   0  0  0  0  0  0  0  0  0  0  0  0
  142.1308   82.3997  219.5580 H   0  0  0  0  0  0  0  0  0  0  0  0
  1  2  1  0
  2  3  1  0
  2  4  1  0
  4  5  2  0
  5  6  1  0
  6  7  1  0
  7  8  1  0
  8  9  2  0
  8 10  1  0
 10 11  2  0
 11 12  1  0
 12 13  2  0
 13 14  1  0
 14 15  2  0
 15 16  1  0
 16 17  2  0
 16 18  1  0
 18 19  1  0
 19 20  1  0
 20 21  2  0
 20 22  1  0
 22 23  2  0
 23 24  1  0
 24 25  2  0
 25 26  1  0
 26 27  2  0
 27 28  1  0
 27 29  1  0
 29 30  2  0
 30 31  1  0
 31 32  2  0
  6 33  2  0
 33 34  1  0
 34 35  2  0
 35  4  1  0
 15 10  1  0
 32 22  1  0
 31 25  1  0
  1 36  1  0
  1 37  1  0
  1 38  1  0
  2 39  1  0
  3 40  1  0
  3 41  1  0
  3 42  1  0
  5 43  1  0
  7 44  1  0
 11 45  1  0
 12 46  1  0
 13 47  1  0
 14 48  1  0
 18 49  1  0
 19 50  1  0
 19 51  1  0
 23 52  1  0
 24 53  1  0
 26 54  1  0
 29 55  1  0
 30 56  1  0
 33 57  1  0
 34 58  1  0
M  END
>  <smiles>  (31) 
CC(C)c1cc(NC(=O)c2ccccc2C(=O)NCC(=O)c2ccc3cc(F)ccc3n2)ccn1

>  <score_type>  (31) 
oracle

>  <origin>  (31) 
autodockgpu

>  <m_score__min__energy>  (31) 
-9.8000000000000007

>  <m_primary>  (31) 
energy

>  <rmsd>  (31) 
6.681542613182702

>  <m_score__min__rmsd>  (31) 
6.681542613182702

>  <meeko>  (31) 
{"free_energy": -7.16, "intermolecular_energy": -9.25, "internal_energy": -4.39, "cluster_size": 11, "cluster_id": 8, "rank_in_cluster": 3}

>  <energy>  (31) 
-6.21

>  <cluster_rmsd>  (31) 
1.37

>  <cluster>  (31) 
7

$$$$

     RDKit          3D

 58 61  0  0  0  0  0  0  0  0999 V2000
  143.5350   69.7560  219.6820 C   0  0  0  0  0  0  0  0  0  0  0  0
  144.6040   70.5400  218.9270 C   0  0  0  0  0  0  0  0  0  0  0  0
  145.8710   69.7310  218.9350 C   0  0  0  0  0  0  0  0  0  0  0  0
  144.8220   71.8670  219.5740 C   0  0  0  0  0  0  0  0  0  0  0  0
  143.7170   72.6310  219.8770 C   0  0  0  0  0  0  0  0  0  0  0  0
  143.9090   73.8440  220.4880 C   0  0  0  0  0  0  0  0  0  0  0  0
  142.8210   74.7040  220.8570 N   0  0  0  0  0  0  0  0  0  0  0  0
  142.1240   75.2930  219.7520 C   0  0  0  0  0  0  0  0  0  0  0  0
  142.4380   75.0760  218.5560 O   0  0  0  0  0  0  0  0  0  0  0  0
  141.0060   76.1780  220.0620 C   0  0  0  0  0  0  0  0  0  0  0  0
  141.0670   77.4530  219.5400 C   0  0  0  0  0  0  0  0  0  0  0  0
  140.0350   78.3280  219.8030 C   0  0  0  0  0  0  0  0  0  0  0  0
  138.9390   77.9860  220.5670 C   0  0  0  0  0  0  0  0  0  0  0  0
  138.9180   76.6790  221.0780 C   0  0  0  0  0  0  0  0  0  0  0  0
  139.9340   75.7820  220.8320 C   0  0  0  0  0  0  0  0  0  0  0  0
  139.8580   74.4150  221.4100 C   0  0  0  0  0  0  0  0  0  0  0  0
  140.5940   74.0360  222.3290 O   0  0  0  0  0  0  0  0  0  0  0  0
  138.8890   73.4920  220.8780 N   0  0  0  0  0  0  0  0  0  0  0  0
  138.7280   72.1470  221.3590 C   0  0  0  0  0  0  0  0  0  0  0  0
  139.9640   71.6180  221.9640 C   0  0  0  0  0  0  0  0  0  0  0  0
  140.9960   71.5890  221.2070 O   0  0  0  0  0  0  0  0  0  0  0  0
  140.1330   71.1330  223.3150 C   0  0  0  0  0  0  0  0  0  0  0  0
  140.7040   71.9320  224.2950 C   0  0  0  0  0  0  0  0  0  0  0  0
  140.8580   71.4900  225.6030 C   0  0  0  0  0  0  0  0  0  0  0  0
  140.4260   70.2130  225.9310 C   0  0  0  0  0  0  0  0  0  0  0  0
  140.5630   69.7380  227.2190 C   0  0  0  0  0  0  0  0  0  0  0  0
  140.1010   68.4400  227.4560 C   0  0  0  0  0  0  0  0  0  0  0  0
  140.2180   67.9290  228.7210 F   0  0  0  0  0  0  0  0  0  0  0  0
  139.5390   67.6710  226.4610 C   0  0  0  0  0  0  0  0  0  0  0  0
  139.4010   68.1430  225.1760 C   0  0  0  0  0  0  0  0  0  0  0  0
  139.8590   69.4310  224.9350 C   0  0  0  0  0  0  0  0  0  0  0  0
  139.7440   69.9140  223.7160 N   0  0  0  0  0  0  0  0  0  0  0  0
  145.2050   74.2610  220.7820 C   0  0  0  0  0  0  0  0  0  0  0  0
  146.2810   73.4410  220.4490 C   0  0  0  0  0  0  0  0  0  0  0  0
  146.0890   72.2400  219.8440 N   0  0  0  0  0  0  0  0  0  0  0  0
  143.6920   69.8711  220.7647 H   0  0  0  0  0  0  0  0  0  0  0  0
  142.5400   70.1400  219.4129 H   0  0  0  0  0  0  0  0  0  0  0  0
  143.6023   68.6916  219.4129 H   0  0  0  0  0  0  0  0  0  0  0  0
  144.2840   70.7208  217.8902 H   0  0  0  0  0  0  0  0  0  0  0  0
  146.1754   69.5366  219.9740 H   0  0  0  0  0  0  0  0  0  0  0  0
  145.6990   68.7752  218.4184 H   0  0  0  0  0  0  0  0  0  0  0  0
  146.6657   70.2892  218.4184 H   0  0  0  0  0  0  0  0  0  0  0  0
  142.7042   72.2768  219.6347 H   0  0  0  0  0  0  0  0  0  0  0  0
  142.5730   74.8700  221.8480 H   0  0  0  0  0  0  0  0  0  0  0  0
  141.9236   77.7660  218.9250 H   0  0  0  0  0  0  0  0  0  0  0  0
  140.0880   79.3441  219.3850 H   0  0  0  0  0  0  0  0  0  0  0  0
  138.1252   78.6991  220.7652 H   0  0  0  0  0  0  0  0  0  0  0  0
  138.0638   76.3611  221.6940 H   0  0  0  0  0  0  0  0  0  0  0  0
  138.2870   73.8810  220.1260 H   0  0  0  0  0  0  0  0  0  0  0  0
  137.9302   72.1351  222.1162 H   0  0  0  0  0  0  0  0  0  0  0  0
  138.4746   71.5098  220.4989 H   0  0  0  0  0  0  0  0  0  0  0  0
  141.0442   72.9436  224.0289 H   0  0  0  0  0  0  0  0  0  0  0  0
  141.3138   72.1402  226.3642 H   0  0  0  0  0  0  0  0  0  0  0  0
  141.0118   70.3480  228.0168 H   0  0  0  0  0  0  0  0  0  0  0  0
  139.1921   66.6548  226.6995 H   0  0  0  0  0  0  0  0  0  0  0  0
  138.9508   67.5311  224.3805 H   0  0  0  0  0  0  0  0  0  0  0  0
  145.3776   75.2300  221.2732 H   0  0  0  0  0  0  0  0  0  0  0  0
  147.3042   73.7720  220.6801 H   0  0  0  0  0  0  0  0  0  0  0  0
  1  2  1  0
  2  3  1  0
  2  4  1  0
  4  5  2  0
  5  6  1  0
  6  7  1  0
  7  8  1  0
  8  9  2  0
  8 10  1  0
 10 11  2  0
 11 12  1  0
 12 13  2  0
 13 14  1  0
 14 15  2  0
 15 16  1  0
 16 17  2  0
 16 18  1  0
 18 19  1  0
 19 20  1  0
 20 21  2  0
 20 22  1  0
 22 23  2  0
 23 24  1  0
 24 25  2  0
 25 26  1  0
 26 27  2  0
 27 28  1  0
 27 29  1  0
 29 30  2  0
 30 31  1  0
 31 32  2  0
  6 33  2  0
 33 34  1  0
 34 35  2  0
 35  4  1  0
 15 10  1  0
 32 22  1  0
 31 25  1  0
  1 36  1  0
  1 37  1  0
  1 38  1  0
  2 39  1  0
  3 40  1  0
  3 41  1  0
  3 42  1  0
  5 43  1  0
  7 44  1  0
 11 45  1  0
 12 46  1  0
 13 47  1  0
 14 48  1  0
 18 49  1  0
 19 50  1  0
 19 51  1  0
 23 52  1  0
 24 53  1  0
 26 54  1  0
 29 55  1  0
 30 56  1  0
 33 57  1  0
 34 58  1  0
M  END
>  <smiles>  (32) 
CC(C)c1cc(NC(=O)c2ccccc2C(=O)NCC(=O)c2ccc3cc(F)ccc3n2)ccn1

>  <score_type>  (32) 
oracle

>  <origin>  (32) 
autodockgpu

>  <m_score__min__energy>  (32) 
-9.8000000000000007

>  <m_primary>  (32) 
energy

>  <rmsd>  (32) 
5.417596301211863

>  <m_score__min__rmsd>  (32) 
5.417596301211863

>  <meeko>  (32) 
{"free_energy": -8.69, "intermolecular_energy": -10.78, "internal_energy": -2.28, "cluster_size": 11, "cluster_id": 2, "rank_in_cluster": 10}

>  <energy>  (32) 
-7.6

>  <cluster_rmsd>  (32) 
0.0

>  <cluster>  (32) 
8

$$$$

     RDKit          3D

 58 61  0  0  0  0  0  0  0  0999 V2000
  144.0110   71.3900  219.5480 C   0  0  0  0  0  0  0  0  0  0  0  0
  145.0750   72.4000  219.1310 C   0  0  0  0  0  0  0  0  0  0  0  0
  145.9640   72.6610  220.3150 C   0  0  0  0  0  0  0  0  0  0  0  0
  144.4320   73.6640  218.6660 C   0  0  0  0  0  0  0  0  0  0  0  0
  144.0250   74.5720  219.6170 C   0  0  0  0  0  0  0  0  0  0  0  0
  143.4490   75.7440  219.1970 C   0  0  0  0  0  0  0  0  0  0  0  0
  143.0080   76.7590  220.1110 N   0  0  0  0  0  0  0  0  0  0  0  0
  141.6010   76.7430  220.3880 C   0  0  0  0  0  0  0  0  0  0  0  0
  140.8160   75.9090  219.8740 O   0  0  0  0  0  0  0  0  0  0  0  0
  141.0900   77.7510  221.3110 C   0  0  0  0  0  0  0  0  0  0  0  0
  141.7630   78.9550  221.3420 C   0  0  0  0  0  0  0  0  0  0  0  0
  141.3190   79.9410  222.1970 C   0  0  0  0  0  0  0  0  0  0  0  0
  140.2290   79.7790  223.0260 C   0  0  0  0  0  0  0  0  0  0  0  0
  139.5750   78.5390  222.9610 C   0  0  0  0  0  0  0  0  0  0  0  0
  139.9940   77.5350  222.1180 C   0  0  0  0  0  0  0  0  0  0  0  0
  139.2650   76.2400  222.1030 C   0  0  0  0  0  0  0  0  0  0  0  0
  138.0310   76.1660  222.1670 O   0  0  0  0  0  0  0  0  0  0  0  0
  140.0240   75.0200  222.0120 N   0  0  0  0  0  0  0  0  0  0  0  0
  139.4250   73.7130  221.9900 C   0  0  0  0  0  0  0  0  0  0  0  0
  140.3790   72.6550  222.3720 C   0  0  0  0  0  0  0  0  0  0  0  0
  141.4500   72.5830  221.6760 O   0  0  0  0  0  0  0  0  0  0  0  0
  140.2330   71.6970  223.4460 C   0  0  0  0  0  0  0  0  0  0  0  0
  139.6640   70.4520  223.2180 C   0  0  0  0  0  0  0  0  0  0  0  0
  139.5320   69.5120  224.2330 C   0  0  0  0  0  0  0  0  0  0  0  0
  139.9850   69.8340  225.5040 C   0  0  0  0  0  0  0  0  0  0  0  0
  139.8700   68.9260  226.5380 C   0  0  0  0  0  0  0  0  0  0  0  0
  140.3520   69.3380  227.7830 C   0  0  0  0  0  0  0  0  0  0  0  0
  140.2580   68.4680  228.8370 F   0  0  0  0  0  0  0  0  0  0  0  0
  140.9110   70.5820  227.9760 C   0  0  0  0  0  0  0  0  0  0  0  0
  141.0260   71.4880  226.9470 C   0  0  0  0  0  0  0  0  0  0  0  0
  140.5500   71.0850  225.7070 C   0  0  0  0  0  0  0  0  0  0  0  0
  140.6430   71.9270  224.7010 N   0  0  0  0  0  0  0  0  0  0  0  0
  143.2960   75.9780  217.8320 C   0  0  0  0  0  0  0  0  0  0  0  0
  143.7290   75.0170  216.9210 C   0  0  0  0  0  0  0  0  0  0  0  0
  144.2990   73.8570  217.3380 N   0  0  0  0  0  0  0  0  0  0  0  0
  143.9609   71.3424  220.6458 H   0  0  0  0  0  0  0  0  0  0  0  0
  143.0340   71.7010  219.1495 H   0  0  0  0  0  0  0  0  0  0  0  0
  144.2707   70.3982  219.1495 H   0  0  0  0  0  0  0  0  0  0  0  0
  145.6723   72.0016  218.2977 H   0  0  0  0  0  0  0  0  0  0  0  0
  145.3972   72.4946  221.2429 H   0  0  0  0  0  0  0  0  0  0  0  0
  146.8257   71.9779  220.2842 H   0  0  0  0  0  0  0  0  0  0  0  0
  146.3196   73.7015  220.2842 H   0  0  0  0  0  0  0  0  0  0  0  0
  144.1585   74.3628  220.6886 H   0  0  0  0  0  0  0  0  0  0  0  0
  143.6680   77.4380  220.5280 H   0  0  0  0  0  0  0  0  0  0  0  0
  142.6374   79.1250  220.6966 H   0  0  0  0  0  0  0  0  0  0  0  0
  141.8581   80.8996  222.2189 H   0  0  0  0  0  0  0  0  0  0  0  0
  139.8905   80.5784  223.7016 H   0  0  0  0  0  0  0  0  0  0  0  0
  138.6999   78.3640  223.6041 H   0  0  0  0  0  0  0  0  0  0  0  0
  141.0510   75.1520  221.9360 H   0  0  0  0  0  0  0  0  0  0  0  0
  138.5801   73.6989  222.6942 H   0  0  0  0  0  0  0  0  0  0  0  0
  139.0927   73.5117  220.9609 H   0  0  0  0  0  0  0  0  0  0  0  0
  139.3082   70.2027  222.2075 H   0  0  0  0  0  0  0  0  0  0  0  0
  139.0768   68.5309  224.0323 H   0  0  0  0  0  0  0  0  0  0  0  0
  139.4230   67.9319  226.3895 H   0  0  0  0  0  0  0  0  0  0  0  0
  141.2742   70.8578  228.9770 H   0  0  0  0  0  0  0  0  0  0  0  0
  141.4727   72.4816  227.0993 H   0  0  0  0  0  0  0  0  0  0  0  0
  142.8376   76.9128  217.4770 H   0  0  0  0  0  0  0  0  0  0  0  0
  143.6069   75.2013  215.8435 H   0  0  0  0  0  0  0  0  0  0  0  0
  1  2  1  0
  2  3  1  0
  2  4  1  0
  4  5  2  0
  5  6  1  0
  6  7  1  0
  7  8  1  0
  8  9  2  0
  8 10  1  0
 10 11  2  0
 11 12  1  0
 12 13  2  0
 13 14  1  0
 14 15  2  0
 15 16  1  0
 16 17  2  0
 16 18  1  0
 18 19  1  0
 19 20  1  0
 20 21  2  0
 20 22  1  0
 22 23  2  0
 23 24  1  0
 24 25  2  0
 25 26  1  0
 26 27  2  0
 27 28  1  0
 27 29  1  0
 29 30  2  0
 30 31  1  0
 31 32  2  0
  6 33  2  0
 33 34  1  0
 34 35  2  0
 35  4  1  0
 15 10  1  0
 32 22  1  0
 31 25  1  0
  1 36  1  0
  1 37  1  0
  1 38  1  0
  2 39  1  0
  3 40  1  0
  3 41  1  0
  3 42  1  0
  5 43  1  0
  7 44  1  0
 11 45  1  0
 12 46  1  0
 13 47  1  0
 14 48  1  0
 18 49  1  0
 19 50  1  0
 19 51  1  0
 23 52  1  0
 24 53  1  0
 26 54  1  0
 29 55  1  0
 30 56  1  0
 33 57  1  0
 34 58  1  0
M  END
>  <smiles>  (33) 
CC(C)c1cc(NC(=O)c2ccccc2C(=O)NCC(=O)c2ccc3cc(F)ccc3n2)ccn1

>  <score_type>  (33) 
oracle

>  <origin>  (33) 
autodockgpu

>  <m_score__min__energy>  (33) 
-9.8000000000000007

>  <m_primary>  (33) 
energy

>  <rmsd>  (33) 
4.411753227350085

>  <m_score__min__rmsd>  (33) 
4.411753227350085

>  <meeko>  (33) 
{"free_energy": -9.35, "intermolecular_energy": -11.44, "internal_energy": -2.13, "cluster_size": 1, "cluster_id": 3, "rank_in_cluster": 1}

>  <energy>  (33) 
-7.32

>  <cluster_rmsd>  (33) 
1.59

>  <cluster>  (33) 
8

$$$$

     RDKit          3D

 58 61  0  0  0  0  0  0  0  0999 V2000
  140.6160   83.1540  220.9930 C   0  0  0  0  0  0  0  0  0  0  0  0
  141.1570   82.4350  219.7620 C   0  0  0  0  0  0  0  0  0  0  0  0
  140.7700   83.2290  218.5460 C   0  0  0  0  0  0  0  0  0  0  0  0
  140.5990   81.0520  219.6880 C   0  0  0  0  0  0  0  0  0  0  0  0
  141.3660   80.0160  220.1700 C   0  0  0  0  0  0  0  0  0  0  0  0
  140.8520   78.7450  220.1220 C   0  0  0  0  0  0  0  0  0  0  0  0
  141.5680   77.6030  220.6150 N   0  0  0  0  0  0  0  0  0  0  0  0
  141.9960   76.6840  219.6020 C   0  0  0  0  0  0  0  0  0  0  0  0
  141.7660   76.8610  218.3810 O   0  0  0  0  0  0  0  0  0  0  0  0
  142.7310   75.5010  220.0400 C   0  0  0  0  0  0  0  0  0  0  0  0
  144.1070   75.5850  220.0080 C   0  0  0  0  0  0  0  0  0  0  0  0
  144.8470   74.4950  220.4120 C   0  0  0  0  0  0  0  0  0  0  0  0
  144.2740   73.3200  220.8500 C   0  0  0  0  0  0  0  0  0  0  0  0
  142.8710   73.2790  220.8660 C   0  0  0  0  0  0  0  0  0  0  0  0
  142.1040   74.3510  220.4680 C   0  0  0  0  0  0  0  0  0  0  0  0
  140.6220   74.2420  220.5000 C   0  0  0  0  0  0  0  0  0  0  0  0
  139.9990   73.4020  219.8380 O   0  0  0  0  0  0  0  0  0  0  0  0
  139.8790   75.1520  221.3320 N   0  0  0  0  0  0  0  0  0  0  0  0
  138.4450   75.1390  221.4400 C   0  0  0  0  0  0  0  0  0  0  0  0
  137.9390   76.2300  222.2920 C   0  0  0  0  0  0  0  0  0  0  0  0
  136.7800   76.0560  222.8050 O   0  0  0  0  0  0  0  0  0  0  0  0
  138.6120   77.4710  222.6070 C   0  0  0  0  0  0  0  0  0  0  0  0
  137.9170   78.6720  222.6380 C   0  0  0  0  0  0  0  0  0  0  0  0
  138.5410   79.8710  222.9570 C   0  0  0  0  0  0  0  0  0  0  0  0
  139.8970   79.8600  223.2520 C   0  0  0  0  0  0  0  0  0  0  0  0
  140.5530   81.0310  223.5730 C   0  0  0  0  0  0  0  0  0  0  0  0
  141.9170   80.9230  223.8550 C   0  0  0  0  0  0  0  0  0  0  0  0
  142.6070   82.0610  224.1770 F   0  0  0  0  0  0  0  0  0  0  0  0
  142.5790   79.7150  223.8160 C   0  0  0  0  0  0  0  0  0  0  0  0
  141.9260   78.5460  223.4960 C   0  0  0  0  0  0  0  0  0  0  0  0
  140.5710   78.6470  223.2150 C   0  0  0  0  0  0  0  0  0  0  0  0
  139.9160   77.5490  222.9050 N   0  0  0  0  0  0  0  0  0  0  0  0
  139.5800   78.5440  219.5910 C   0  0  0  0  0  0  0  0  0  0  0  0
  138.8550   79.6360  219.1180 C   0  0  0  0  0  0  0  0  0  0  0  0
  139.3650   80.8940  219.1670 N   0  0  0  0  0  0  0  0  0  0  0  0
  140.9893   82.6579  221.9010 H   0  0  0  0  0  0  0  0  0  0  0  0
  140.9519   84.2014  220.9830 H   0  0  0  0  0  0  0  0  0  0  0  0
  139.5165   83.1214  220.9830 H   0  0  0  0  0  0  0  0  0  0  0  0
  142.2525   82.3532  219.8190 H   0  0  0  0  0  0  0  0  0  0  0  0
  140.3080   84.1770  218.8589 H   0  0  0  0  0  0  0  0  0  0  0  0
  141.6668   83.4391  217.9446 H   0  0  0  0  0  0  0  0  0  0  0  0
  140.0520   82.6521  217.9446 H   0  0  0  0  0  0  0  0  0  0  0  0
  142.3678   80.2027  220.5841 H   0  0  0  0  0  0  0  0  0  0  0  0
  141.7520   77.4720  221.6250 H   0  0  0  0  0  0  0  0  0  0  0  0
  144.6045   76.5047  219.6664 H   0  0  0  0  0  0  0  0  0  0  0  0
  145.9444   74.5656  220.3838 H   0  0  0  0  0  0  0  0  0  0  0  0
  144.8830   72.4615  221.1695 H   0  0  0  0  0  0  0  0  0  0  0  0
  142.3686   72.3618  221.2071 H   0  0  0  0  0  0  0  0  0  0  0  0
  140.4630   75.8150  221.8800 H   0  0  0  0  0  0  0  0  0  0  0  0
  138.0134   75.2464  220.4339 H   0  0  0  0  0  0  0  0  0  0  0  0
  138.1508   74.1857  221.9033 H   0  0  0  0  0  0  0  0  0  0  0  0
  136.8423   78.6742  222.4034 H   0  0  0  0  0  0  0  0  0  0  0  0
  137.9711   80.8117  222.9755 H   0  0  0  0  0  0  0  0  0  0  0  0
  140.0297   81.9980  223.6051 H   0  0  0  0  0  0  0  0  0  0  0  0
  143.6543   79.6840  224.0459 H   0  0  0  0  0  0  0  0  0  0  0  0
  142.4520   77.5804  223.4647 H   0  0  0  0  0  0  0  0  0  0  0  0
  139.1515   77.5319  219.5455 H   0  0  0  0  0  0  0  0  0  0  0  0
  137.8513   79.4763  218.6972 H   0  0  0  0  0  0  0  0  0  0  0  0
  1  2  1  0
  2  3  1  0
  2  4  1  0
  4  5  2  0
  5  6  1  0
  6  7  1  0
  7  8  1  0
  8  9  2  0
  8 10  1  0
 10 11  2  0
 11 12  1  0
 12 13  2  0
 13 14  1  0
 14 15  2  0
 15 16  1  0
 16 17  2  0
 16 18  1  0
 18 19  1  0
 19 20  1  0
 20 21  2  0
 20 22  1  0
 22 23  2  0
 23 24  1  0
 24 25  2  0
 25 26  1  0
 26 27  2  0
 27 28  1  0
 27 29  1  0
 29 30  2  0
 30 31  1  0
 31 32  2  0
  6 33  2  0
 33 34  1  0
 34 35  2  0
 35  4  1  0
 15 10  1  0
 32 22  1  0
 31 25  1  0
  1 36  1  0
  1 37  1  0
  1 38  1  0
  2 39  1  0
  3 40  1  0
  3 41  1  0
  3 42  1  0
  5 43  1  0
  7 44  1  0
 11 45  1  0
 12 46  1  0
 13 47  1  0
 14 48  1  0
 18 49  1  0
 19 50  1  0
 19 51  1  0
 23 52  1  0
 24 53  1  0
 26 54  1  0
 29 55  1  0
 30 56  1  0
 33 57  1  0
 34 58  1  0
M  END
>  <smiles>  (34) 
CC(C)c1cc(NC(=O)c2ccccc2C(=O)NCC(=O)c2ccc3cc(F)ccc3n2)ccn1

>  <score_type>  (34) 
oracle

>  <origin>  (34) 
autodockgpu

>  <m_score__min__energy>  (34) 
-9.8000000000000007

>  <m_primary>  (34) 
energy

>  <rmsd>  (34) 
7.354169853794515

>  <m_score__min__rmsd>  (34) 
7.354169853794515

>  <meeko>  (34) 
{"free_energy": -6.63, "intermolecular_energy": -8.72, "internal_energy": -4.53, "cluster_size": 11, "cluster_id": 8, "rank_in_cluster": 10}

>  <energy>  (34) 
-7.16

>  <cluster_rmsd>  (34) 
1.3

>  <cluster>  (34) 
8

$$$$

     RDKit          3D

 58 61  0  0  0  0  0  0  0  0999 V2000
  137.4730   79.1540  219.1970 C   0  0  0  0  0  0  0  0  0  0  0  0
  137.9960   80.5440  219.5430 C   0  0  0  0  0  0  0  0  0  0  0  0
  137.5590   81.4930  218.4620 C   0  0  0  0  0  0  0  0  0  0  0  0
  139.4850   80.5210  219.6540 C   0  0  0  0  0  0  0  0  0  0  0  0
  140.0930   79.3280  219.9730 C   0  0  0  0  0  0  0  0  0  0  0  0
  141.4620   79.2950  220.0580 C   0  0  0  0  0  0  0  0  0  0  0  0
  142.1880   78.0970  220.3700 N   0  0  0  0  0  0  0  0  0  0  0  0
  141.7180   76.9220  219.6970 C   0  0  0  0  0  0  0  0  0  0  0  0
  140.7490   76.9360  218.8990 O   0  0  0  0  0  0  0  0  0  0  0  0
  142.4160   75.6700  219.9720 C   0  0  0  0  0  0  0  0  0  0  0  0
  143.7030   75.5640  219.4860 C   0  0  0  0  0  0  0  0  0  0  0  0
  144.4060   74.4010  219.7190 C   0  0  0  0  0  0  0  0  0  0  0  0
  143.8820   73.3360  220.4190 C   0  0  0  0  0  0  0  0  0  0  0  0
  142.5700   73.4880  220.8960 C   0  0  0  0  0  0  0  0  0  0  0  0
  141.8420   74.6360  220.6790 C   0  0  0  0  0  0  0  0  0  0  0  0
  140.4540   74.7310  221.2010 C   0  0  0  0  0  0  0  0  0  0  0  0
  140.1370   74.3450  222.3330 O   0  0  0  0  0  0  0  0  0  0  0  0
  139.4340   75.2940  220.3550 N   0  0  0  0  0  0  0  0  0  0  0  0
  138.0600   75.4350  220.7550 C   0  0  0  0  0  0  0  0  0  0  0  0
  137.9230   76.1380  222.0440 C   0  0  0  0  0  0  0  0  0  0  0  0
  137.1420   75.5980  222.9020 O   0  0  0  0  0  0  0  0  0  0  0  0
  138.5750   77.3670  222.4390 C   0  0  0  0  0  0  0  0  0  0  0  0
  137.8540   78.5450  222.5780 C   0  0  0  0  0  0  0  0  0  0  0  0
  138.4590   79.7300  222.9750 C   0  0  0  0  0  0  0  0  0  0  0  0
  139.8210   79.7300  223.2360 C   0  0  0  0  0  0  0  0  0  0  0  0
  140.4580   80.8890  223.6300 C   0  0  0  0  0  0  0  0  0  0  0  0
  141.8320   80.7930  223.8710 C   0  0  0  0  0  0  0  0  0  0  0  0
  142.5030   81.9190  224.2650 F   0  0  0  0  0  0  0  0  0  0  0  0
  142.5190   79.6080  223.7230 C   0  0  0  0  0  0  0  0  0  0  0  0
  141.8860   78.4510  223.3290 C   0  0  0  0  0  0  0  0  0  0  0  0
  140.5210   78.5410  223.0890 C   0  0  0  0  0  0  0  0  0  0  0  0
  139.8840   77.4540  222.7100 N   0  0  0  0  0  0  0  0  0  0  0  0
  142.1880   80.4600  219.8200 C   0  0  0  0  0  0  0  0  0  0  0  0
  141.5110   81.6350  219.5010 C   0  0  0  0  0  0  0  0  0  0  0  0
  140.1560   81.6660  219.4170 N   0  0  0  0  0  0  0  0  0  0  0  0
  137.2644   78.5995  220.1239 H   0  0  0  0  0  0  0  0  0  0  0  0
  136.5481   79.2462  218.6088 H   0  0  0  0  0  0  0  0  0  0  0  0
  138.2293   78.6136  218.6088 H   0  0  0  0  0  0  0  0  0  0  0  0
  137.5920   80.8727  220.5119 H   0  0  0  0  0  0  0  0  0  0  0  0
  137.1405   82.4018  218.9191 H   0  0  0  0  0  0  0  0  0  0  0  0
  138.4242   81.7614  217.8380 H   0  0  0  0  0  0  0  0  0  0  0  0
  136.7926   81.0101  217.8380 H   0  0  0  0  0  0  0  0  0  0  0  0
  139.4955   78.4226  220.1555 H   0  0  0  0  0  0  0  0  0  0  0  0
  142.9860   78.1020  221.0280 H   0  0  0  0  0  0  0  0  0  0  0  0
  144.1595   76.3916  218.9233 H   0  0  0  0  0  0  0  0  0  0  0  0
  145.4312   74.3197  219.3286 H   0  0  0  0  0  0  0  0  0  0  0  0
  144.4600   72.4167  220.5946 H   0  0  0  0  0  0  0  0  0  0  0  0
  142.1096   72.6639  221.4607 H   0  0  0  0  0  0  0  0  0  0  0  0
  139.7710   75.6210  219.4280 H   0  0  0  0  0  0  0  0  0  0  0  0
  137.5230   76.0047  219.9823 H   0  0  0  0  0  0  0  0  0  0  0  0
  137.6386   74.4260  220.8749 H   0  0  0  0  0  0  0  0  0  0  0  0
  136.7743   78.5396  222.3680 H   0  0  0  0  0  0  0  0  0  0  0  0
  137.8686   80.6521  223.0806 H   0  0  0  0  0  0  0  0  0  0  0  0
  139.9139   81.8377  223.7482 H   0  0  0  0  0  0  0  0  0  0  0  0
  143.6001   79.5860  223.9247 H   0  0  0  0  0  0  0  0  0  0  0  0
  142.4330   77.5040  223.2103 H   0  0  0  0  0  0  0  0  0  0  0  0
  143.2861   80.4521  219.8834 H   0  0  0  0  0  0  0  0  0  0  0  0
  142.0847   82.5547  219.3137 H   0  0  0  0  0  0  0  0  0  0  0  0
  1  2  1  0
  2  3  1  0
  2  4  1  0
  4  5  2  0
  5  6  1  0
  6  7  1  0
  7  8  1  0
  8  9  2  0
  8 10  1  0
 10 11  2  0
 11 12  1  0
 12 13  2  0
 13 14  1  0
 14 15  2  0
 15 16  1  0
 16 17  2  0
 16 18  1  0
 18 19  1  0
 19 20  1  0
 20 21  2  0
 20 22  1  0
 22 23  2  0
 23 24  1  0
 24 25  2  0
 25 26  1  0
 26 27  2  0
 27 28  1  0
 27 29  1  0
 29 30  2  0
 30 31  1  0
 31 32  2  0
  6 33  2  0
 33 34  1  0
 34 35  2  0
 35  4  1  0
 15 10  1  0
 32 22  1  0
 31 25  1  0
  1 36  1  0
  1 37  1  0
  1 38  1  0
  2 39  1  0
  3 40  1  0
  3 41  1  0
  3 42  1  0
  5 43  1  0
  7 44  1  0
 11 45  1  0
 12 46  1  0
 13 47  1  0
 14 48  1  0
 18 49  1  0
 19 50  1  0
 19 51  1  0
 23 52  1  0
 24 53  1  0
 26 54  1  0
 29 55  1  0
 30 56  1  0
 33 57  1  0
 34 58  1  0
M  END
>  <smiles>  (35) 
CC(C)c1cc(NC(=O)c2ccccc2C(=O)NCC(=O)c2ccc3cc(F)ccc3n2)ccn1

>  <score_type>  (35) 
oracle

>  <origin>  (35) 
autodockgpu

>  <m_score__min__energy>  (35) 
-9.8000000000000007

>  <m_primary>  (35) 
energy

>  <rmsd>  (35) 
6.441812671293535

>  <m_score__min__rmsd>  (35) 
6.441812671293535

>  <meeko>  (35) 
{"free_energy": -7.1, "intermolecular_energy": -9.19, "internal_energy": -4.29, "cluster_size": 11, "cluster_id": 8, "rank_in_cluster": 5}

>  <energy>  (35) 
-7.14

>  <cluster_rmsd>  (35) 
1.3

>  <cluster>  (35) 
8

$$$$

     RDKit          3D

 58 61  0  0  0  0  0  0  0  0999 V2000
  141.0780   83.6640  217.9090 C   0  0  0  0  0  0  0  0  0  0  0  0
  142.0800   82.6420  218.4370 C   0  0  0  0  0  0  0  0  0  0  0  0
  143.0110   82.2750  217.3140 C   0  0  0  0  0  0  0  0  0  0  0  0
  141.3650   81.4350  218.9450 C   0  0  0  0  0  0  0  0  0  0  0  0
  142.1140   80.3300  219.2800 C   0  0  0  0  0  0  0  0  0  0  0  0
  141.4650   79.2230  219.7660 C   0  0  0  0  0  0  0  0  0  0  0  0
  142.1600   78.0300  220.1580 N   0  0  0  0  0  0  0  0  0  0  0  0
  141.7140   76.8370  219.5010 C   0  0  0  0  0  0  0  0  0  0  0  0
  140.7910   76.8320  218.6510 O   0  0  0  0  0  0  0  0  0  0  0  0
  142.3830   75.5890  219.8570 C   0  0  0  0  0  0  0  0  0  0  0  0
  143.6640   75.4180  219.3760 C   0  0  0  0  0  0  0  0  0  0  0  0
  144.3390   74.2570  219.6850 C   0  0  0  0  0  0  0  0  0  0  0  0
  143.7920   73.2540  220.4560 C   0  0  0  0  0  0  0  0  0  0  0  0
  142.4860   73.4700  220.9240 C   0  0  0  0  0  0  0  0  0  0  0  0
  141.7860   74.6190  220.6330 C   0  0  0  0  0  0  0  0  0  0  0  0
  140.4030   74.7840  221.1510 C   0  0  0  0  0  0  0  0  0  0  0  0
  140.0820   74.4830  222.3080 O   0  0  0  0  0  0  0  0  0  0  0  0
  139.3930   75.3130  220.2720 N   0  0  0  0  0  0  0  0  0  0  0  0
  138.0250   75.5150  220.6640 C   0  0  0  0  0  0  0  0  0  0  0  0
  137.9130   76.2000  221.9650 C   0  0  0  0  0  0  0  0  0  0  0  0
  137.1710   75.6330  222.8400 O   0  0  0  0  0  0  0  0  0  0  0  0
  138.5500   77.4380  222.3550 C   0  0  0  0  0  0  0  0  0  0  0  0
  137.8150   78.6070  222.4900 C   0  0  0  0  0  0  0  0  0  0  0  0
  138.4060   79.8020  222.8810 C   0  0  0  0  0  0  0  0  0  0  0  0
  139.7680   79.8190  223.1410 C   0  0  0  0  0  0  0  0  0  0  0  0
  140.3910   80.9880  223.5300 C   0  0  0  0  0  0  0  0  0  0  0  0
  141.7660   80.9090  223.7700 C   0  0  0  0  0  0  0  0  0  0  0  0
  142.4240   82.0450  224.1590 F   0  0  0  0  0  0  0  0  0  0  0  0
  142.4670   79.7320  223.6270 C   0  0  0  0  0  0  0  0  0  0  0  0
  141.8480   78.5660  223.2380 C   0  0  0  0  0  0  0  0  0  0  0  0
  140.4830   78.6380  222.9990 C   0  0  0  0  0  0  0  0  0  0  0  0
  139.8580   77.5420  222.6250 N   0  0  0  0  0  0  0  0  0  0  0  0
  140.0790   79.2520  219.9030 C   0  0  0  0  0  0  0  0  0  0  0  0
  139.3790   80.4010  219.5440 C   0  0  0  0  0  0  0  0  0  0  0  0
  140.0230   81.4970  219.0640 N   0  0  0  0  0  0  0  0  0  0  0  0
  140.5859   84.1659  218.7551 H   0  0  0  0  0  0  0  0  0  0  0  0
  141.6041   84.4103  217.2956 H   0  0  0  0  0  0  0  0  0  0  0  0
  140.3215   83.1527  217.2956 H   0  0  0  0  0  0  0  0  0  0  0  0
  142.6546   83.0676  219.2729 H   0  0  0  0  0  0  0  0  0  0  0  0
  143.9583   81.9016  217.7302 H   0  0  0  0  0  0  0  0  0  0  0  0
  142.5484   81.4919  216.6953 H   0  0  0  0  0  0  0  0  0  0  0  0
  143.2072   83.1631  216.6953 H   0  0  0  0  0  0  0  0  0  0  0  0
  143.2075   80.3342  219.1609 H   0  0  0  0  0  0  0  0  0  0  0  0
  142.9210   78.0510  220.8590 H   0  0  0  0  0  0  0  0  0  0  0  0
  144.1383   76.1940  218.7572 H   0  0  0  0  0  0  0  0  0  0  0  0
  145.3605   74.1248  219.2989 H   0  0  0  0  0  0  0  0  0  0  0  0
  144.3481   72.3347  220.6917 H   0  0  0  0  0  0  0  0  0  0  0  0
  142.0071   72.6967  221.5426 H   0  0  0  0  0  0  0  0  0  0  0  0
  139.7340   75.5690  219.3240 H   0  0  0  0  0  0  0  0  0  0  0  0
  137.5236   76.1251  219.8982 H   0  0  0  0  0  0  0  0  0  0  0  0
  137.5525   74.5265  220.7614 H   0  0  0  0  0  0  0  0  0  0  0  0
  136.7351   78.5871  222.2818 H   0  0  0  0  0  0  0  0  0  0  0  0
  137.8048   80.7176  222.9824 H   0  0  0  0  0  0  0  0  0  0  0  0
  139.8356   81.9305  223.6449 H   0  0  0  0  0  0  0  0  0  0  0  0
  143.5483   79.7238  223.8287 H   0  0  0  0  0  0  0  0  0  0  0  0
  142.4065   77.6254  223.1225 H   0  0  0  0  0  0  0  0  0  0  0  0
  139.5418   78.3743  220.2916 H   0  0  0  0  0  0  0  0  0  0  0  0
  138.2844   80.4218  219.6510 H   0  0  0  0  0  0  0  0  0  0  0  0
  1  2  1  0
  2  3  1  0
  2  4  1  0
  4  5  2  0
  5  6  1  0
  6  7  1  0
  7  8  1  0
  8  9  2  0
  8 10  1  0
 10 11  2  0
 11 12  1  0
 12 13  2  0
 13 14  1  0
 14 15  2  0
 15 16  1  0
 16 17  2  0
 16 18  1  0
 18 19  1  0
 19 20  1  0
 20 21  2  0
 20 22  1  0
 22 23  2  0
 23 24  1  0
 24 25  2  0
 25 26  1  0
 26 27  2  0
 27 28  1  0
 27 29  1  0
 29 30  2  0
 30 31  1  0
 31 32  2  0
  6 33  2  0
 33 34  1  0
 34 35  2  0
 35  4  1  0
 15 10  1  0
 32 22  1  0
 31 25  1  0
  1 36  1  0
  1 37  1  0
  1 38  1  0
  2 39  1  0
  3 40  1  0
  3 41  1  0
  3 42  1  0
  5 43  1  0
  7 44  1  0
 11 45  1  0
 12 46  1  0
 13 47  1  0
 14 48  1  0
 18 49  1  0
 19 50  1  0
 19 51  1  0
 23 52  1  0
 24 53  1  0
 26 54  1  0
 29 55  1  0
 30 56  1  0
 33 57  1  0
 34 58  1  0
M  END
>  <smiles>  (36) 
CC(C)c1cc(NC(=O)c2ccccc2C(=O)NCC(=O)c2ccc3cc(F)ccc3n2)ccn1

>  <score_type>  (36) 
oracle

>  <origin>  (36) 
autodockgpu

>  <m_score__min__energy>  (36) 
-9.8000000000000007

>  <m_primary>  (36) 
energy

>  <rmsd>  (36) 
7.361734666997137

>  <m_score__min__rmsd>  (36) 
7.361734666997137

>  <meeko>  (36) 
{"free_energy": -7.6, "intermolecular_energy": -9.69, "internal_energy": -3.77, "cluster_size": 11, "cluster_id": 8, "rank_in_cluster": 1}

>  <energy>  (36) 
-7.1

>  <cluster_rmsd>  (36) 
1.24

>  <cluster>  (36) 
8

$$$$

     RDKit          3D

 58 61  0  0  0  0  0  0  0  0999 V2000
  142.0020   70.2520  219.6960 C   0  0  0  0  0  0  0  0  0  0  0  0
  143.2290   70.7580  218.9450 C   0  0  0  0  0  0  0  0  0  0  0  0
  144.2630   69.6670  218.9460 C   0  0  0  0  0  0  0  0  0  0  0  0
  143.7620   71.9900  219.5990 C   0  0  0  0  0  0  0  0  0  0  0  0
  142.8860   73.0200  219.8530 C   0  0  0  0  0  0  0  0  0  0  0  0
  143.3640   74.1470  220.4710 C   0  0  0  0  0  0  0  0  0  0  0  0
  142.5260   75.2670  220.7920 N   0  0  0  0  0  0  0  0  0  0  0  0
  141.3750   74.9450  221.5830 C   0  0  0  0  0  0  0  0  0  0  0  0
  141.1180   73.7780  221.9670 O   0  0  0  0  0  0  0  0  0  0  0  0
  140.4830   76.0430  221.9440 C   0  0  0  0  0  0  0  0  0  0  0  0
  141.0800   77.1830  222.4400 C   0  0  0  0  0  0  0  0  0  0  0  0
  140.2820   78.2490  222.7940 C   0  0  0  0  0  0  0  0  0  0  0  0
  138.9080   78.2290  222.6760 C   0  0  0  0  0  0  0  0  0  0  0  0
  138.3440   77.0480  222.1670 C   0  0  0  0  0  0  0  0  0  0  0  0
  139.1150   75.9670  221.8040 C   0  0  0  0  0  0  0  0  0  0  0  0
  138.4560   74.7420  221.2810 C   0  0  0  0  0  0  0  0  0  0  0  0
  137.8070   74.7290  220.2270 O   0  0  0  0  0  0  0  0  0  0  0  0
  138.5750   73.5190  222.0310 N   0  0  0  0  0  0  0  0  0  0  0  0
  137.9800   72.2750  221.6210 C   0  0  0  0  0  0  0  0  0  0  0  0
  138.8670   71.1240  221.8680 C   0  0  0  0  0  0  0  0  0  0  0  0
  139.4120   70.6000  220.8350 O   0  0  0  0  0  0  0  0  0  0  0  0
  139.1850   70.5280  223.1460 C   0  0  0  0  0  0  0  0  0  0  0  0
  138.8880   69.1980  223.4080 C   0  0  0  0  0  0  0  0  0  0  0  0
  139.2030   68.6030  224.6230 C   0  0  0  0  0  0  0  0  0  0  0  0
  139.8310   69.3660  225.5970 C   0  0  0  0  0  0  0  0  0  0  0  0
  140.1580   68.8110  226.8180 C   0  0  0  0  0  0  0  0  0  0  0  0
  140.7880   69.6550  227.7360 C   0  0  0  0  0  0  0  0  0  0  0  0
  141.1300   69.1450  228.9600 F   0  0  0  0  0  0  0  0  0  0  0  0
  141.0690   70.9730  227.4460 C   0  0  0  0  0  0  0  0  0  0  0  0
  140.7440   71.5280  226.2290 C   0  0  0  0  0  0  0  0  0  0  0  0
  140.1180   70.6940  225.3130 C   0  0  0  0  0  0  0  0  0  0  0  0
  139.7910   71.1920  224.1400 N   0  0  0  0  0  0  0  0  0  0  0  0
  144.7110   74.2130  220.8200 C   0  0  0  0  0  0  0  0  0  0  0  0
  145.5460   73.1360  220.5340 C   0  0  0  0  0  0  0  0  0  0  0  0
  145.0700   72.0200  219.9220 N   0  0  0  0  0  0  0  0  0  0  0  0
  142.1791   70.3250  220.7792 H   0  0  0  0  0  0  0  0  0  0  0  0
  141.1285   70.8633  219.4253 H   0  0  0  0  0  0  0  0  0  0  0  0
  141.8133   69.2027  219.4253 H   0  0  0  0  0  0  0  0  0  0  0  0
  142.9619   71.0166  217.9097 H   0  0  0  0  0  0  0  0  0  0  0  0
  144.5148   69.4014  219.9833 H   0  0  0  0  0  0  0  0  0  0  0  0
  143.8636   68.7828  218.4277 H   0  0  0  0  0  0  0  0  0  0  0  0
  145.1674   70.0184  218.4277 H   0  0  0  0  0  0  0  0  0  0  0  0
  141.8268   72.9413  219.5670 H   0  0  0  0  0  0  0  0  0  0  0  0
  142.7530   76.2250  220.4700 H   0  0  0  0  0  0  0  0  0  0  0  0
  142.1729   77.2402  222.5509 H   0  0  0  0  0  0  0  0  0  0  0  0
  140.7623   79.1566  223.1884 H   0  0  0  0  0  0  0  0  0  0  0  0
  138.2881   79.0906  222.9647 H   0  0  0  0  0  0  0  0  0  0  0  0
  137.2516   76.9847  222.0548 H   0  0  0  0  0  0  0  0  0  0  0  0
  139.1530   73.5920  222.8910 H   0  0  0  0  0  0  0  0  0  0  0  0
  137.0450   72.1281  222.1815 H   0  0  0  0  0  0  0  0  0  0  0  0
  137.7939   72.3310  220.5383 H   0  0  0  0  0  0  0  0  0  0  0  0
  138.3894   68.5984  222.6322 H   0  0  0  0  0  0  0  0  0  0  0  0
  138.9592   67.5467  224.8095 H   0  0  0  0  0  0  0  0  0  0  0  0
  139.9345   67.7604  227.0554 H   0  0  0  0  0  0  0  0  0  0  0  0
  141.5647   71.5960  228.2051 H   0  0  0  0  0  0  0  0  0  0  0  0
  140.9689   72.5789  225.9944 H   0  0  0  0  0  0  0  0  0  0  0  0
  145.1117   75.1085  221.3174 H   0  0  0  0  0  0  0  0  0  0  0  0
  146.6099   73.1896  220.8083 H   0  0  0  0  0  0  0  0  0  0  0  0
  1  2  1  0
  2  3  1  0
  2  4  1  0
  4  5  2  0
  5  6  1  0
  6  7  1  0
  7  8  1  0
  8  9  2  0
  8 10  1  0
 10 11  2  0
 11 12  1  0
 12 13  2  0
 13 14  1  0
 14 15  2  0
 15 16  1  0
 16 17  2  0
 16 18  1  0
 18 19  1  0
 19 20  1  0
 20 21  2  0
 20 22  1  0
 22 23  2  0
 23 24  1  0
 24 25  2  0
 25 26  1  0
 26 27  2  0
 27 28  1  0
 27 29  1  0
 29 30  2  0
 30 31  1  0
 31 32  2  0
  6 33  2  0
 33 34  1  0
 34 35  2  0
 35  4  1  0
 15 10  1  0
 32 22  1  0
 31 25  1  0
  1 36  1  0
  1 37  1  0
  1 38  1  0
  2 39  1  0
  3 40  1  0
  3 41  1  0
  3 42  1  0
  5 43  1  0
  7 44  1  0
 11 45  1  0
 12 46  1  0
 13 47  1  0
 14 48  1  0
 18 49  1  0
 19 50  1  0
 19 51  1  0
 23 52  1  0
 24 53  1  0
 26 54  1  0
 29 55  1  0
 30 56  1  0
 33 57  1  0
 34 58  1  0
M  END
>  <smiles>  (37) 
CC(C)c1cc(NC(=O)c2ccccc2C(=O)NCC(=O)c2ccc3cc(F)ccc3n2)ccn1

>  <score_type>  (37) 
oracle

>  <origin>  (37) 
autodockgpu

>  <m_score__min__energy>  (37) 
-9.8000000000000007

>  <m_primary>  (37) 
energy

>  <rmsd>  (37) 
4.977156220460548

>  <m_score__min__rmsd>  (37) 
4.977156220460548

>  <meeko>  (37) 
{"free_energy": -8.86, "intermolecular_energy": -10.95, "internal_energy": -2.56, "cluster_size": 11, "cluster_id": 2, "rank_in_cluster": 8}

>  <energy>  (37) 
-6.71

>  <cluster_rmsd>  (37) 
1.36

>  <cluster>  (37) 
8

$$$$

     RDKit          3D

 58 61  0  0  0  0  0  0  0  0999 V2000
  141.9470   81.1460  223.4840 C   0  0  0  0  0  0  0  0  0  0  0  0
  141.2640   81.0160  222.1270 C   0  0  0  0  0  0  0  0  0  0  0  0
  140.2820   82.1450  221.9850 C   0  0  0  0  0  0  0  0  0  0  0  0
  140.5710   79.6970  222.0250 C   0  0  0  0  0  0  0  0  0  0  0  0
  141.3430   78.5590  221.9870 C   0  0  0  0  0  0  0  0  0  0  0  0
  140.7120   77.3440  221.9120 C   0  0  0  0  0  0  0  0  0  0  0  0
  141.4300   76.1010  221.8840 N   0  0  0  0  0  0  0  0  0  0  0  0
  141.9760   75.7550  220.6050 C   0  0  0  0  0  0  0  0  0  0  0  0
  141.8400   76.4790  219.5890 O   0  0  0  0  0  0  0  0  0  0  0  0
  142.7180   74.5010  220.5120 C   0  0  0  0  0  0  0  0  0  0  0  0
  144.0220   74.5900  220.0710 C   0  0  0  0  0  0  0  0  0  0  0  0
  144.7660   73.4350  219.9660 C   0  0  0  0  0  0  0  0  0  0  0  0
  144.2670   72.1890  220.2830 C   0  0  0  0  0  0  0  0  0  0  0  0
  142.9360   72.1470  220.7280 C   0  0  0  0  0  0  0  0  0  0  0  0
  142.1670   73.2830  220.8430 C   0  0  0  0  0  0  0  0  0  0  0  0
  140.7600   73.1700  221.3110 C   0  0  0  0  0  0  0  0  0  0  0  0
  140.3450   73.7430  222.3260 O   0  0  0  0  0  0  0  0  0  0  0  0
  139.8430   72.3590  220.5540 N   0  0  0  0  0  0  0  0  0  0  0  0
  138.4620   72.1770  220.9120 C   0  0  0  0  0  0  0  0  0  0  0  0
  138.2370   70.9170  221.6430 C   0  0  0  0  0  0  0  0  0  0  0  0
  137.6270   69.9930  221.0010 O   0  0  0  0  0  0  0  0  0  0  0  0
  138.6310   70.6160  223.0020 C   0  0  0  0  0  0  0  0  0  0  0  0
  138.0590   69.5560  223.6920 C   0  0  0  0  0  0  0  0  0  0  0  0
  138.4380   69.2400  224.9910 C   0  0  0  0  0  0  0  0  0  0  0  0
  139.4140   70.0090  225.6080 C   0  0  0  0  0  0  0  0  0  0  0  0
  139.8150   69.7270  226.8980 C   0  0  0  0  0  0  0  0  0  0  0  0
  140.8030   70.5560  227.4370 C   0  0  0  0  0  0  0  0  0  0  0  0
  141.2300   70.3110  228.7150 F   0  0  0  0  0  0  0  0  0  0  0  0
  141.3500   71.6010  226.7250 C   0  0  0  0  0  0  0  0  0  0  0  0
  140.9510   71.8840  225.4390 C   0  0  0  0  0  0  0  0  0  0  0  0
  139.9700   71.0640  224.8980 C   0  0  0  0  0  0  0  0  0  0  0  0
  139.5640   71.3060  223.6700 N   0  0  0  0  0  0  0  0  0  0  0  0
  139.3200   77.2990  221.8760 C   0  0  0  0  0  0  0  0  0  0  0  0
  138.5960   78.4880  221.9170 C   0  0  0  0  0  0  0  0  0  0  0  0
  139.2230   79.6920  221.9920 N   0  0  0  0  0  0  0  0  0  0  0  0
  141.2045   81.0047  224.2832 H   0  0  0  0  0  0  0  0  0  0  0  0
  142.7326   80.3813  223.5739 H   0  0  0  0  0  0  0  0  0  0  0  0
  142.3967   82.1459  223.5739 H   0  0  0  0  0  0  0  0  0  0  0  0
  142.0082   81.0680  221.3186 H   0  0  0  0  0  0  0  0  0  0  0  0
  139.9781   82.4943  222.9828 H   0  0  0  0  0  0  0  0  0  0  0  0
  140.7523   82.9729  221.4341 H   0  0  0  0  0  0  0  0  0  0  0  0
  139.3969   81.7940  221.4341 H   0  0  0  0  0  0  0  0  0  0  0  0
  142.4408   78.6223  222.0161 H   0  0  0  0  0  0  0  0  0  0  0  0
  141.5350   75.5160  222.7320 H   0  0  0  0  0  0  0  0  0  0  0  0
  144.4595   75.5644  219.8082 H   0  0  0  0  0  0  0  0  0  0  0  0
  145.8052   73.5102  219.6133 H   0  0  0  0  0  0  0  0  0  0  0  0
  144.8778   71.2787  220.1923 H   0  0  0  0  0  0  0  0  0  0  0  0
  142.4936   71.1754  220.9932 H   0  0  0  0  0  0  0  0  0  0  0  0
  140.2490   71.9260  219.7010 H   0  0  0  0  0  0  0  0  0  0  0  0
  138.1477   73.0169  221.5490 H   0  0  0  0  0  0  0  0  0  0  0  0
  137.8749   72.1373  219.9826 H   0  0  0  0  0  0  0  0  0  0  0  0
  137.2854   68.9502  223.1975 H   0  0  0  0  0  0  0  0  0  0  0  0
  137.9726   68.3955  225.5204 H   0  0  0  0  0  0  0  0  0  0  0  0
  139.3806   68.8947  227.4712 H   0  0  0  0  0  0  0  0  0  0  0  0
  142.1245   72.2241  227.1961 H   0  0  0  0  0  0  0  0  0  0  0  0
  141.3870   72.7174  224.8686 H   0  0  0  0  0  0  0  0  0  0  0  0
  138.7974   76.3329  221.8157 H   0  0  0  0  0  0  0  0  0  0  0  0
  137.4969   78.4523  221.8882 H   0  0  0  0  0  0  0  0  0  0  0  0
  1  2  1  0
  2  3  1  0
  2  4  1  0
  4  5  2  0
  5  6  1  0
  6  7  1  0
  7  8  1  0
  8  9  2  0
  8 10  1  0
 10 11  2  0
 11 12  1  0
 12 13  2  0
 13 14  1  0
 14 15  2  0
 15 16  1  0
 16 17  2  0
 16 18  1  0
 18 19  1  0
 19 20  1  0
 20 21  2  0
 20 22  1  0
 22 23  2  0
 23 24  1  0
 24 25  2  0
 25 26  1  0
 26 27  2  0
 27 28  1  0
 27 29  1  0
 29 30  2  0
 30 31  1  0
 31 32  2  0
  6 33  2  0
 33 34  1  0
 34 35  2  0
 35  4  1  0
 15 10  1  0
 32 22  1  0
 31 25  1  0
  1 36  1  0
  1 37  1  0
  1 38  1  0
  2 39  1  0
  3 40  1  0
  3 41  1  0
  3 42  1  0
  5 43  1  0
  7 44  1  0
 11 45  1  0
 12 46  1  0
 13 47  1  0
 14 48  1  0
 18 49  1  0
 19 50  1  0
 19 51  1  0
 23 52  1  0
 24 53  1  0
 26 54  1  0
 29 55  1  0
 30 56  1  0
 33 57  1  0
 34 58  1  0
M  END
>  <smiles>  (38) 
CC(C)c1cc(NC(=O)c2ccccc2C(=O)NCC(=O)c2ccc3cc(F)ccc3n2)ccn1

>  <score_type>  (38) 
oracle

>  <origin>  (38) 
autodockgpu

>  <m_score__min__energy>  (38) 
-9.8000000000000007

>  <m_primary>  (38) 
energy

>  <rmsd>  (38) 
7.733709919581886

>  <m_score__min__rmsd>  (38) 
7.733709919581886

>  <meeko>  (38) 
{"free_energy": -8.58, "intermolecular_energy": -10.67, "internal_energy": -2.4, "cluster_size": 8, "cluster_id": 1, "rank_in_cluster": 7}

>  <energy>  (38) 
-6.71

>  <cluster_rmsd>  (38) 
1.34

>  <cluster>  (38) 
8

$$$$

     RDKit          3D

 58 61  0  0  0  0  0  0  0  0999 V2000
  142.1760   82.0400  218.5130 C   0  0  0  0  0  0  0  0  0  0  0  0
  141.1520   81.7000  219.5900 C   0  0  0  0  0  0  0  0  0  0  0  0
  141.7930   81.9150  220.9320 C   0  0  0  0  0  0  0  0  0  0  0  0
  140.7010   80.2840  219.4430 C   0  0  0  0  0  0  0  0  0  0  0  0
  141.4710   79.2960  220.0130 C   0  0  0  0  0  0  0  0  0  0  0  0
  141.0530   77.9940  219.8970 C   0  0  0  0  0  0  0  0  0  0  0  0
  141.7780   76.8960  220.4710 N   0  0  0  0  0  0  0  0  0  0  0  0
  142.4340   76.0500  219.5180 C   0  0  0  0  0  0  0  0  0  0  0  0
  142.3810   76.2510  218.2800 O   0  0  0  0  0  0  0  0  0  0  0  0
  143.1890   74.9150  220.0390 C   0  0  0  0  0  0  0  0  0  0  0  0
  144.5600   75.0610  220.0930 C   0  0  0  0  0  0  0  0  0  0  0  0
  145.3190   74.0180  220.5780 C   0  0  0  0  0  0  0  0  0  0  0  0
  144.7700   72.8310  221.0160 C   0  0  0  0  0  0  0  0  0  0  0  0
  143.3720   72.7270  220.9440 C   0  0  0  0  0  0  0  0  0  0  0  0
  142.5860   73.7510  220.4640 C   0  0  0  0  0  0  0  0  0  0  0  0
  141.1120   73.5760  220.4040 C   0  0  0  0  0  0  0  0  0  0  0  0
  140.5750   72.6120  219.8430 O   0  0  0  0  0  0  0  0  0  0  0  0
  140.2720   74.5680  221.0230 N   0  0  0  0  0  0  0  0  0  0  0  0
  138.8350   74.5010  221.0260 C   0  0  0  0  0  0  0  0  0  0  0  0
  138.2360   75.4200  222.0110 C   0  0  0  0  0  0  0  0  0  0  0  0
  137.1790   75.0050  222.6010 O   0  0  0  0  0  0  0  0  0  0  0  0
  138.7150   76.7340  222.3790 C   0  0  0  0  0  0  0  0  0  0  0  0
  137.8500   77.8180  222.4390 C   0  0  0  0  0  0  0  0  0  0  0  0
  138.2870   79.0830  222.8090 C   0  0  0  0  0  0  0  0  0  0  0  0
  139.6270   79.2610  223.1240 C   0  0  0  0  0  0  0  0  0  0  0  0
  140.0990   80.5040  223.4940 C   0  0  0  0  0  0  0  0  0  0  0  0
  141.4620   80.5880  223.7930 C   0  0  0  0  0  0  0  0  0  0  0  0
  141.9720   81.8020  224.1650 F   0  0  0  0  0  0  0  0  0  0  0  0
  142.2940   79.4920  223.7240 C   0  0  0  0  0  0  0  0  0  0  0  0
  141.8250   78.2520  223.3550 C   0  0  0  0  0  0  0  0  0  0  0  0
  140.4720   78.1630  223.0570 C   0  0  0  0  0  0  0  0  0  0  0  0
  139.9900   76.9930  222.6990 N   0  0  0  0  0  0  0  0  0  0  0  0
  139.8730   77.7160  219.2130 C   0  0  0  0  0  0  0  0  0  0  0  0
  139.1400   78.7620  218.6580 C   0  0  0  0  0  0  0  0  0  0  0  0
  139.5540   80.0500  218.7730 N   0  0  0  0  0  0  0  0  0  0  0  0
  143.1176   82.3527  218.9880 H   0  0  0  0  0  0  0  0  0  0  0  0
  142.3576   81.1540  217.8870 H   0  0  0  0  0  0  0  0  0  0  0  0
  141.7916   82.8587  217.8870 H   0  0  0  0  0  0  0  0  0  0  0  0
  140.2675   82.3466  219.4921 H   0  0  0  0  0  0  0  0  0  0  0  0
  141.0713   81.6729  221.7261 H   0  0  0  0  0  0  0  0  0  0  0  0
  142.6741   81.2632  221.0262 H   0  0  0  0  0  0  0  0  0  0  0  0
  142.1029   82.9663  221.0262 H   0  0  0  0  0  0  0  0  0  0  0  0
  142.3992   79.5439  220.5487 H   0  0  0  0  0  0  0  0  0  0  0  0
  141.8140   76.7460  221.4950 H   0  0  0  0  0  0  0  0  0  0  0  0
  145.0381   75.9923  219.7553 H   0  0  0  0  0  0  0  0  0  0  0  0
  146.4118   74.1375  220.6176 H   0  0  0  0  0  0  0  0  0  0  0  0
  145.3936   72.0106  221.4008 H   0  0  0  0  0  0  0  0  0  0  0  0
  142.8889   71.7982  221.2816 H   0  0  0  0  0  0  0  0  0  0  0  0
  140.7850   75.3360  221.4980 H   0  0  0  0  0  0  0  0  0  0  0  0
  138.4661   74.7662  220.0242 H   0  0  0  0  0  0  0  0  0  0  0  0
  138.5456   73.4761  221.3013 H   0  0  0  0  0  0  0  0  0  0  0  0
  136.7895   77.6709  222.1866 H   0  0  0  0  0  0  0  0  0  0  0  0
  137.5843   79.9283  222.8517 H   0  0  0  0  0  0  0  0  0  0  0  0
  139.4381   81.3815  223.5506 H   0  0  0  0  0  0  0  0  0  0  0  0
  143.3595   79.6111  223.9700 H   0  0  0  0  0  0  0  0  0  0  0  0
  142.4882   77.3762  223.2990 H   0  0  0  0  0  0  0  0  0  0  0  0
  139.5223   76.6784  219.1116 H   0  0  0  0  0  0  0  0  0  0  0  0
  138.2085   78.5407  218.1165 H   0  0  0  0  0  0  0  0  0  0  0  0
  1  2  1  0
  2  3  1  0
  2  4  1  0
  4  5  2  0
  5  6  1  0
  6  7  1  0
  7  8  1  0
  8  9  2  0
  8 10  1  0
 10 11  2  0
 11 12  1  0
 12 13  2  0
 13 14  1  0
 14 15  2  0
 15 16  1  0
 16 17  2  0
 16 18  1  0
 18 19  1  0
 19 20  1  0
 20 21  2  0
 20 22  1  0
 22 23  2  0
 23 24  1  0
 24 25  2  0
 25 26  1  0
 26 27  2  0
 27 28  1  0
 27 29  1  0
 29 30  2  0
 30 31  1  0
 31 32  2  0
  6 33  2  0
 33 34  1  0
 34 35  2  0
 35  4  1  0
 15 10  1  0
 32 22  1  0
 31 25  1  0
  1 36  1  0
  1 37  1  0
  1 38  1  0
  2 39  1  0
  3 40  1  0
  3 41  1  0
  3 42  1  0
  5 43  1  0
  7 44  1  0
 11 45  1  0
 12 46  1  0
 13 47  1  0
 14 48  1  0
 18 49  1  0
 19 50  1  0
 19 51  1  0
 23 52  1  0
 24 53  1  0
 26 54  1  0
 29 55  1  0
 30 56  1  0
 33 57  1  0
 34 58  1  0
M  END
>  <smiles>  (39) 
CC(C)c1cc(NC(=O)c2ccccc2C(=O)NCC(=O)c2ccc3cc(F)ccc3n2)ccn1

>  <score_type>  (39) 
oracle

>  <origin>  (39) 
autodockgpu

>  <m_score__min__energy>  (39) 
-9.8000000000000007

>  <m_primary>  (39) 
energy

>  <rmsd>  (39) 
7.386690457057651

>  <m_score__min__rmsd>  (39) 
7.386690457057651

>  <meeko>  (39) 
{"free_energy": -6.67, "intermolecular_energy": -8.76, "internal_energy": -4.59, "cluster_size": 11, "cluster_id": 8, "rank_in_cluster": 8}

>  <energy>  (39) 
-6.67

>  <cluster_rmsd>  (39) 
1.31

>  <cluster>  (39) 
8

$$$$

     RDKit          3D

 58 61  0  0  0  0  0  0  0  0999 V2000
  141.3430   81.8320  221.9010 C   0  0  0  0  0  0  0  0  0  0  0  0
  141.0740   80.8830  223.0640 C   0  0  0  0  0  0  0  0  0  0  0  0
  142.3810   80.6070  223.7560 C   0  0  0  0  0  0  0  0  0  0  0  0
  140.4660   79.6150  222.5640 C   0  0  0  0  0  0  0  0  0  0  0  0
  141.2620   78.4940  222.4990 C   0  0  0  0  0  0  0  0  0  0  0  0
  140.7050   77.3210  222.0570 C   0  0  0  0  0  0  0  0  0  0  0  0
  141.4490   76.0970  221.9700 N   0  0  0  0  0  0  0  0  0  0  0  0
  141.9080   75.7700  220.6520 C   0  0  0  0  0  0  0  0  0  0  0  0
  141.6800   76.4950  219.6530 O   0  0  0  0  0  0  0  0  0  0  0  0
  142.6720   74.5360  220.4970 C   0  0  0  0  0  0  0  0  0  0  0  0
  143.9530   74.6640  220.0010 C   0  0  0  0  0  0  0  0  0  0  0  0
  144.7160   73.5280  219.8370 C   0  0  0  0  0  0  0  0  0  0  0  0
  144.2580   72.2650  220.1470 C   0  0  0  0  0  0  0  0  0  0  0  0
  142.9500   72.1830  220.6500 C   0  0  0  0  0  0  0  0  0  0  0  0
  142.1630   73.2990  220.8250 C   0  0  0  0  0  0  0  0  0  0  0  0
  140.7820   73.1440  221.3510 C   0  0  0  0  0  0  0  0  0  0  0  0
  140.3580   73.7880  222.3190 O   0  0  0  0  0  0  0  0  0  0  0  0
  139.8990   72.2040  220.7110 N   0  0  0  0  0  0  0  0  0  0  0  0
  138.5440   71.9720  221.1350 C   0  0  0  0  0  0  0  0  0  0  0  0
  138.3860   70.6690  221.8070 C   0  0  0  0  0  0  0  0  0  0  0  0
  137.7370   69.7750  221.1610 O   0  0  0  0  0  0  0  0  0  0  0  0
  138.8850   70.2970  223.1120 C   0  0  0  0  0  0  0  0  0  0  0  0
  138.6970   69.0150  223.6090 C   0  0  0  0  0  0  0  0  0  0  0  0
  139.1840   68.6330  224.8530 C   0  0  0  0  0  0  0  0  0  0  0  0
  139.8770   69.5650  225.6130 C   0  0  0  0  0  0  0  0  0  0  0  0
  140.3750   69.2240  226.8540 C   0  0  0  0  0  0  0  0  0  0  0  0
  141.0580   70.2270  227.5470 C   0  0  0  0  0  0  0  0  0  0  0  0
  141.5690   69.9310  228.7820 F   0  0  0  0  0  0  0  0  0  0  0  0
  141.2270   71.4910  227.0260 C   0  0  0  0  0  0  0  0  0  0  0  0
  140.7310   71.8330  225.7890 C   0  0  0  0  0  0  0  0  0  0  0  0
  140.0520   70.8410  225.0960 C   0  0  0  0  0  0  0  0  0  0  0  0
  139.5630   71.1330  223.9100 N   0  0  0  0  0  0  0  0  0  0  0  0
  139.3600   77.3010  221.6920 C   0  0  0  0  0  0  0  0  0  0  0  0
  138.6090   78.4700  221.7800 C   0  0  0  0  0  0  0  0  0  0  0  0
  139.1620   79.6310  222.2180 N   0  0  0  0  0  0  0  0  0  0  0  0
  141.6234   82.8211  222.2922 H   0  0  0  0  0  0  0  0  0  0  0  0
  142.1639   81.4348  221.2860 H   0  0  0  0  0  0  0  0  0  0  0  0
  140.4357   81.9246  221.2860 H   0  0  0  0  0  0  0  0  0  0  0  0
  140.3661   81.3389  223.7718 H   0  0  0  0  0  0  0  0  0  0  0  0
  142.2328   80.6383  224.8455 H   0  0  0  0  0  0  0  0  0  0  0  0
  142.7473   79.6117  223.4642 H   0  0  0  0  0  0  0  0  0  0  0  0
  143.1185   81.3692  223.4642 H   0  0  0  0  0  0  0  0  0  0  0  0
  142.3206   78.5378  222.7947 H   0  0  0  0  0  0  0  0  0  0  0  0
  141.6300   75.5120  222.8040 H   0  0  0  0  0  0  0  0  0  0  0  0
  144.3575   75.6534  219.7415 H   0  0  0  0  0  0  0  0  0  0  0  0
  145.7367   73.6338  219.4408 H   0  0  0  0  0  0  0  0  0  0  0  0
  144.8832   71.3707  220.0078 H   0  0  0  0  0  0  0  0  0  0  0  0
  142.5410   71.1962  220.9125 H   0  0  0  0  0  0  0  0  0  0  0  0
  140.3070   71.7150  219.8900 H   0  0  0  0  0  0  0  0  0  0  0  0
  138.2501   72.7690  221.8339 H   0  0  0  0  0  0  0  0  0  0  0  0
  137.9056   71.9696  220.2392 H   0  0  0  0  0  0  0  0  0  0  0  0
  138.1473   68.2811  223.0014 H   0  0  0  0  0  0  0  0  0  0  0  0
  139.0234   67.6116  225.2283 H   0  0  0  0  0  0  0  0  0  0  0  0
  140.2415   68.2166  227.2751 H   0  0  0  0  0  0  0  0  0  0  0  0
  141.7716   72.2451  227.6131 H   0  0  0  0  0  0  0  0  0  0  0  0
  140.8659   72.8414  225.3708 H   0  0  0  0  0  0  0  0  0  0  0  0
  138.8956   76.3691  221.3373 H   0  0  0  0  0  0  0  0  0  0  0  0
  137.5482   78.4533  221.4895 H   0  0  0  0  0  0  0  0  0  0  0  0
  1  2  1  0
  2  3  1  0
  2  4  1  0
  4  5  2  0
  5  6  1  0
  6  7  1  0
  7  8  1  0
  8  9  2  0
  8 10  1  0
 10 11  2  0
 11 12  1  0
 12 13  2  0
 13 14  1  0
 14 15  2  0
 15 16  1  0
 16 17  2  0
 16 18  1  0
 18 19  1  0
 19 20  1  0
 20 21  2  0
 20 22  1  0
 22 23  2  0
 23 24  1  0
 24 25  2  0
 25 26  1  0
 26 27  2  0
 27 28  1  0
 27 29  1  0
 29 30  2  0
 30 31  1  0
 31 32  2  0
  6 33  2  0
 33 34  1  0
 34 35  2  0
 35  4  1  0
 15 10  1  0
 32 22  1  0
 31 25  1  0
  1 36  1  0
  1 37  1  0
  1 38  1  0
  2 39  1  0
  3 40  1  0
  3 41  1  0
  3 42  1  0
  5 43  1  0
  7 44  1  0
 11 45  1  0
 12 46  1  0
 13 47  1  0
 14 48  1  0
 18 49  1  0
 19 50  1  0
 19 51  1  0
 23 52  1  0
 24 53  1  0
 26 54  1  0
 29 55  1  0
 30 56  1  0
 33 57  1  0
 34 58  1  0
M  END
>  <smiles>  (40) 
CC(C)c1cc(NC(=O)c2ccccc2C(=O)NCC(=O)c2ccc3cc(F)ccc3n2)ccn1

>  <score_type>  (40) 
oracle

>  <origin>  (40) 
autodockgpu

>  <m_score__min__energy>  (40) 
-9.8000000000000007

>  <m_primary>  (40) 
energy

>  <rmsd>  (40) 
7.811682285424369

>  <m_score__min__rmsd>  (40) 
7.811682285424369

>  <meeko>  (40) 
{"free_energy": -9.09, "intermolecular_energy": -11.18, "internal_energy": -2.29, "cluster_size": 8, "cluster_id": 1, "rank_in_cluster": 3}

>  <energy>  (40) 
-6.66

>  <cluster_rmsd>  (40) 
1.24

>  <cluster>  (40) 
8

$$$$

     RDKit          3D

 58 61  0  0  0  0  0  0  0  0999 V2000
  142.9170   71.6430  221.1340 C   0  0  0  0  0  0  0  0  0  0  0  0
  141.4150   71.4380  220.9730 C   0  0  0  0  0  0  0  0  0  0  0  0
  141.1870   70.5430  219.7860 C   0  0  0  0  0  0  0  0  0  0  0  0
  140.7340   72.7530  220.7790 C   0  0  0  0  0  0  0  0  0  0  0  0
  141.4290   73.8960  221.1030 C   0  0  0  0  0  0  0  0  0  0  0  0
  140.8170   75.1090  220.9100 C   0  0  0  0  0  0  0  0  0  0  0  0
  141.4640   76.3560  221.2020 N   0  0  0  0  0  0  0  0  0  0  0  0
  140.7860   77.1700  222.1670 C   0  0  0  0  0  0  0  0  0  0  0  0
  139.7130   76.8210  222.7170 O   0  0  0  0  0  0  0  0  0  0  0  0
  141.3950   78.4520  222.5080 C   0  0  0  0  0  0  0  0  0  0  0  0
  141.7410   78.6370  223.8300 C   0  0  0  0  0  0  0  0  0  0  0  0
  142.3210   79.8310  224.2030 C   0  0  0  0  0  0  0  0  0  0  0  0
  142.5730   80.8520  223.3120 C   0  0  0  0  0  0  0  0  0  0  0  0
  142.2060   80.6200  221.9770 C   0  0  0  0  0  0  0  0  0  0  0  0
  141.6250   79.4380  221.5740 C   0  0  0  0  0  0  0  0  0  0  0  0
  141.2500   79.2570  220.1470 C   0  0  0  0  0  0  0  0  0  0  0  0
  140.1000   79.4420  219.7290 O   0  0  0  0  0  0  0  0  0  0  0  0
  142.2650   78.8490  219.2110 N   0  0  0  0  0  0  0  0  0  0  0  0
  142.0160   78.6430  217.8100 C   0  0  0  0  0  0  0  0  0  0  0  0
  141.7030   77.2360  217.5000 C   0  0  0  0  0  0  0  0  0  0  0  0
  140.5840   77.0220  216.9170 O   0  0  0  0  0  0  0  0  0  0  0  0
  142.5230   76.0790  217.7820 C   0  0  0  0  0  0  0  0  0  0  0  0
  142.6400   75.0460  216.8630 C   0  0  0  0  0  0  0  0  0  0  0  0
  143.4370   73.9350  217.1090 C   0  0  0  0  0  0  0  0  0  0  0  0
  144.1320   73.8640  218.3080 C   0  0  0  0  0  0  0  0  0  0  0  0
  144.9320   72.7750  218.5880 C   0  0  0  0  0  0  0  0  0  0  0  0
  145.5930   72.7900  219.8200 C   0  0  0  0  0  0  0  0  0  0  0  0
  146.3980   71.7300  220.1390 F   0  0  0  0  0  0  0  0  0  0  0  0
  145.4560   73.8320  220.7110 C   0  0  0  0  0  0  0  0  0  0  0  0
  144.6570   74.9180  220.4330 C   0  0  0  0  0  0  0  0  0  0  0  0
  143.9990   74.9080  219.2110 C   0  0  0  0  0  0  0  0  0  0  0  0
  143.2260   75.9310  218.9130 N   0  0  0  0  0  0  0  0  0  0  0  0
  139.5220   75.1450  220.3970 C   0  0  0  0  0  0  0  0  0  0  0  0
  138.8740   73.9510  220.0900 C   0  0  0  0  0  0  0  0  0  0  0  0
  139.4810   72.7510  220.2820 N   0  0  0  0  0  0  0  0  0  0  0  0
  143.1698   71.6775  222.2040 H   0  0  0  0  0  0  0  0  0  0  0  0
  143.4540   70.8098  220.6571 H   0  0  0  0  0  0  0  0  0  0  0  0
  143.2111   72.5896  220.6571 H   0  0  0  0  0  0  0  0  0  0  0  0
  140.9955   70.9717  221.8766 H   0  0  0  0  0  0  0  0  0  0  0  0
  140.9294   69.5316  220.1335 H   0  0  0  0  0  0  0  0  0  0  0  0
  140.3621   70.9431  219.1782 H   0  0  0  0  0  0  0  0  0  0  0  0
  142.1028   70.4997  219.1782 H   0  0  0  0  0  0  0  0  0  0  0  0
  142.4505   73.8385  221.5069 H   0  0  0  0  0  0  0  0  0  0  0  0
  142.3510   76.6280  220.7410 H   0  0  0  0  0  0  0  0  0  0  0  0
  141.5577   77.8469  224.5730 H   0  0  0  0  0  0  0  0  0  0  0  0
  142.5948   79.9751  225.2586 H   0  0  0  0  0  0  0  0  0  0  0  0
  143.0366   81.7975  223.6298 H   0  0  0  0  0  0  0  0  0  0  0  0
  142.3880   81.4064  221.2298 H   0  0  0  0  0  0  0  0  0  0  0  0
  143.2130   78.7360  219.6220 H   0  0  0  0  0  0  0  0  0  0  0  0
  141.1653   79.2703  217.5056 H   0  0  0  0  0  0  0  0  0  0  0  0
  142.9303   78.9139  217.2616 H   0  0  0  0  0  0  0  0  0  0  0  0
  142.0869   75.1084  215.9142 H   0  0  0  0  0  0  0  0  0  0  0  0
  143.5157   73.1266  216.3671 H   0  0  0  0  0  0  0  0  0  0  0  0
  145.0436   71.9403  217.8803 H   0  0  0  0  0  0  0  0  0  0  0  0
  145.9981   73.7952  221.6674 H   0  0  0  0  0  0  0  0  0  0  0  0
  144.5458   75.7509  221.1429 H   0  0  0  0  0  0  0  0  0  0  0  0
  139.0158   76.1082  220.2359 H   0  0  0  0  0  0  0  0  0  0  0  0
  137.8518   73.9802  219.6846 H   0  0  0  0  0  0  0  0  0  0  0  0
  1  2  1  0
  2  3  1  0
  2  4  1  0
  4  5  2  0
  5  6  1  0
  6  7  1  0
  7  8  1  0
  8  9  2  0
  8 10  1  0
 10 11  2  0
 11 12  1  0
 12 13  2  0
 13 14  1  0
 14 15  2  0
 15 16  1  0
 16 17  2  0
 16 18  1  0
 18 19  1  0
 19 20  1  0
 20 21  2  0
 20 22  1  0
 22 23  2  0
 23 24  1  0
 24 25  2  0
 25 26  1  0
 26 27  2  0
 27 28  1  0
 27 29  1  0
 29 30  2  0
 30 31  1  0
 31 32  2  0
  6 33  2  0
 33 34  1  0
 34 35  2  0
 35  4  1  0
 15 10  1  0
 32 22  1  0
 31 25  1  0
  1 36  1  0
  1 37  1  0
  1 38  1  0
  2 39  1  0
  3 40  1  0
  3 41  1  0
  3 42  1  0
  5 43  1  0
  7 44  1  0
 11 45  1  0
 12 46  1  0
 13 47  1  0
 14 48  1  0
 18 49  1  0
 19 50  1  0
 19 51  1  0
 23 52  1  0
 24 53  1  0
 26 54  1  0
 29 55  1  0
 30 56  1  0
 33 57  1  0
 34 58  1  0
M  END
>  <smiles>  (41) 
CC(C)c1cc(NC(=O)c2ccccc2C(=O)NCC(=O)c2ccc3cc(F)ccc3n2)ccn1

>  <score_type>  (41) 
oracle

>  <origin>  (41) 
autodockgpu

>  <m_score__min__energy>  (41) 
-9.8000000000000007

>  <m_primary>  (41) 
energy

>  <rmsd>  (41) 
4.731545889576578

>  <m_score__min__rmsd>  (41) 
4.731545889576578

>  <meeko>  (41) 
{"free_energy": -6.84, "intermolecular_energy": -8.92, "internal_energy": -4.09, "cluster_size": 1, "cluster_id": 12, "rank_in_cluster": 1}

>  <energy>  (41) 
-6.63

>  <cluster_rmsd>  (41) 
1.08

>  <cluster>  (41) 
8

$$$$

     RDKit          3D

 58 61  0  0  0  0  0  0  0  0999 V2000
  134.2860   68.3700  225.4280 C   0  0  0  0  0  0  0  0  0  0  0  0
  135.0090   69.7050  225.5720 C   0  0  0  0  0  0  0  0  0  0  0  0
  134.0790   70.6710  226.2520 C   0  0  0  0  0  0  0  0  0  0  0  0
  135.4140   70.2190  224.2300 C   0  0  0  0  0  0  0  0  0  0  0  0
  136.3340   71.2400  224.1770 C   0  0  0  0  0  0  0  0  0  0  0  0
  136.7250   71.7050  222.9470 C   0  0  0  0  0  0  0  0  0  0  0  0
  137.6900   72.7550  222.7880 N   0  0  0  0  0  0  0  0  0  0  0  0
  137.1820   73.9450  222.1730 C   0  0  0  0  0  0  0  0  0  0  0  0
  135.9880   74.0640  221.8030 O   0  0  0  0  0  0  0  0  0  0  0  0
  138.1160   75.0510  221.9840 C   0  0  0  0  0  0  0  0  0  0  0  0
  137.5820   76.3220  222.0350 C   0  0  0  0  0  0  0  0  0  0  0  0
  138.4230   77.4010  221.8640 C   0  0  0  0  0  0  0  0  0  0  0  0
  139.7770   77.2690  221.6430 C   0  0  0  0  0  0  0  0  0  0  0  0
  140.2770   75.9580  221.6000 C   0  0  0  0  0  0  0  0  0  0  0  0
  139.4630   74.8600  221.7680 C   0  0  0  0  0  0  0  0  0  0  0  0
  140.0510   73.4970  221.7010 C   0  0  0  0  0  0  0  0  0  0  0  0
  140.7860   73.0410  222.5860 O   0  0  0  0  0  0  0  0  0  0  0  0
  139.7550   72.6710  220.5590 N   0  0  0  0  0  0  0  0  0  0  0  0
  140.2680   71.3390  220.3890 C   0  0  0  0  0  0  0  0  0  0  0  0
  139.4230   70.3270  221.0490 C   0  0  0  0  0  0  0  0  0  0  0  0
  138.6300   69.6700  220.2880 O   0  0  0  0  0  0  0  0  0  0  0  0
  139.3970   69.9990  222.4570 C   0  0  0  0  0  0  0  0  0  0  0  0
  138.8700   68.7930  222.8990 C   0  0  0  0  0  0  0  0  0  0  0  0
  138.8530   68.4530  224.2460 C   0  0  0  0  0  0  0  0  0  0  0  0
  139.3770   69.3480  225.1680 C   0  0  0  0  0  0  0  0  0  0  0  0
  139.3760   69.0450  226.5140 C   0  0  0  0  0  0  0  0  0  0  0  0
  139.9240   70.0070  227.3680 C   0  0  0  0  0  0  0  0  0  0  0  0
  139.9440   69.7470  228.7120 F   0  0  0  0  0  0  0  0  0  0  0  0
  140.4390   71.1950  226.8970 C   0  0  0  0  0  0  0  0  0  0  0  0
  140.4410   71.4980  225.5540 C   0  0  0  0  0  0  0  0  0  0  0  0
  139.8980   70.5470  224.7020 C   0  0  0  0  0  0  0  0  0  0  0  0
  139.8820   70.8040  223.4120 N   0  0  0  0  0  0  0  0  0  0  0  0
  136.1820   71.1320  221.7990 C   0  0  0  0  0  0  0  0  0  0  0  0
  135.2540   70.1010  221.9210 C   0  0  0  0  0  0  0  0  0  0  0  0
  134.8690   69.6420  223.1400 N   0  0  0  0  0  0  0  0  0  0  0  0
  134.0655   67.9629  226.4258 H   0  0  0  0  0  0  0  0  0  0  0  0
  133.3457   68.5198  224.8771 H   0  0  0  0  0  0  0  0  0  0  0  0
  134.9252   67.6644  224.8771 H   0  0  0  0  0  0  0  0  0  0  0  0
  135.9218   69.5812  226.1732 H   0  0  0  0  0  0  0  0  0  0  0  0
  134.1775   70.5687  227.3428 H   0  0  0  0  0  0  0  0  0  0  0  0
  134.3365   71.6985  225.9554 H   0  0  0  0  0  0  0  0  0  0  0  0
  133.0425   70.4526  225.9554 H   0  0  0  0  0  0  0  0  0  0  0  0
  136.7468   71.6738  225.0997 H   0  0  0  0  0  0  0  0  0  0  0  0
  138.6710   72.6420  223.1010 H   0  0  0  0  0  0  0  0  0  0  0  0
  136.5062   76.4716  222.2087 H   0  0  0  0  0  0  0  0  0  0  0  0
  137.9940   78.4130  221.9058 H   0  0  0  0  0  0  0  0  0  0  0  0
  140.4304   78.1435  221.5077 H   0  0  0  0  0  0  0  0  0  0  0  0
  141.3521   75.8030  221.4268 H   0  0  0  0  0  0  0  0  0  0  0  0
  139.1120   73.1030  219.8660 H   0  0  0  0  0  0  0  0  0  0  0  0
  140.3165   71.1129  219.3136 H   0  0  0  0  0  0  0  0  0  0  0  0
  141.2649   71.3000  220.8523 H   0  0  0  0  0  0  0  0  0  0  0  0
  138.4550   68.0882  222.1634 H   0  0  0  0  0  0  0  0  0  0  0  0
  138.4318   67.4918  224.5756 H   0  0  0  0  0  0  0  0  0  0  0  0
  138.9663   68.0978  226.8947 H   0  0  0  0  0  0  0  0  0  0  0  0
  140.8586   71.9188  227.6112 H   0  0  0  0  0  0  0  0  0  0  0  0
  140.8521   72.4456  225.1758 H   0  0  0  0  0  0  0  0  0  0  0  0
  136.4840   71.4912  220.8041 H   0  0  0  0  0  0  0  0  0  0  0  0
  134.8250   69.6502  221.0139 H   0  0  0  0  0  0  0  0  0  0  0  0
  1  2  1  0
  2  3  1  0
  2  4  1  0
  4  5  2  0
  5  6  1  0
  6  7  1  0
  7  8  1  0
  8  9  2  0
  8 10  1  0
 10 11  2  0
 11 12  1  0
 12 13  2  0
 13 14  1  0
 14 15  2  0
 15 16  1  0
 16 17  2  0
 16 18  1  0
 18 19  1  0
 19 20  1  0
 20 21  2  0
 20 22  1  0
 22 23  2  0
 23 24  1  0
 24 25  2  0
 25 26  1  0
 26 27  2  0
 27 28  1  0
 27 29  1  0
 29 30  2  0
 30 31  1  0
 31 32  2  0
  6 33  2  0
 33 34  1  0
 34 35  2  0
 35  4  1  0
 15 10  1  0
 32 22  1  0
 31 25  1  0
  1 36  1  0
  1 37  1  0
  1 38  1  0
  2 39  1  0
  3 40  1  0
  3 41  1  0
  3 42  1  0
  5 43  1  0
  7 44  1  0
 11 45  1  0
 12 46  1  0
 13 47  1  0
 14 48  1  0
 18 49  1  0
 19 50  1  0
 19 51  1  0
 23 52  1  0
 24 53  1  0
 26 54  1  0
 29 55  1  0
 30 56  1  0
 33 57  1  0
 34 58  1  0
M  END
>  <smiles>  (42) 
CC(C)c1cc(NC(=O)c2ccccc2C(=O)NCC(=O)c2ccc3cc(F)ccc3n2)ccn1

>  <score_type>  (42) 
oracle

>  <origin>  (42) 
autodockgpu

>  <m_score__min__energy>  (42) 
-9.8000000000000007

>  <m_primary>  (42) 
energy

>  <rmsd>  (42) 
8.522802803550531

>  <m_score__min__rmsd>  (42) 
8.522802803550531

>  <meeko>  (42) 
{"free_energy": -6.21, "intermolecular_energy": -8.3, "internal_energy": -4.3, "cluster_size": 2, "cluster_id": 7, "rank_in_cluster": 2}

>  <energy>  (42) 
-6.47

>  <cluster_rmsd>  (42) 
1.39

>  <cluster>  (42) 
8

$$$$

     RDKit          3D

 58 61  0  0  0  0  0  0  0  0999 V2000
  140.6590   70.3590  227.6040 C   0  0  0  0  0  0  0  0  0  0  0  0
  139.9460   69.1930  226.9270 C   0  0  0  0  0  0  0  0  0  0  0  0
  140.9170   68.0510  226.8150 C   0  0  0  0  0  0  0  0  0  0  0  0
  139.4560   69.6030  225.5780 C   0  0  0  0  0  0  0  0  0  0  0  0
  139.9520   70.7660  225.0330 C   0  0  0  0  0  0  0  0  0  0  0  0
  139.5210   71.1390  223.7860 C   0  0  0  0  0  0  0  0  0  0  0  0
  139.9910   72.3240  223.1280 N   0  0  0  0  0  0  0  0  0  0  0  0
  140.8140   72.0840  221.9800 C   0  0  0  0  0  0  0  0  0  0  0  0
  141.1020   70.9300  221.5790 O   0  0  0  0  0  0  0  0  0  0  0  0
  141.3240   73.2510  221.2660 C   0  0  0  0  0  0  0  0  0  0  0  0
  142.6350   73.1890  220.8440 C   0  0  0  0  0  0  0  0  0  0  0  0
  143.1640   74.2660  220.1640 C   0  0  0  0  0  0  0  0  0  0  0  0
  142.4400   75.4050  219.8850 C   0  0  0  0  0  0  0  0  0  0  0  0
  141.1100   75.4240  220.3330 C   0  0  0  0  0  0  0  0  0  0  0  0
  140.5530   74.3650  221.0140 C   0  0  0  0  0  0  0  0  0  0  0  0
  139.1410   74.4500  221.4710 C   0  0  0  0  0  0  0  0  0  0  0  0
  138.4190   73.4540  221.6020 O   0  0  0  0  0  0  0  0  0  0  0  0
  138.5890   75.7450  221.7720 N   0  0  0  0  0  0  0  0  0  0  0  0
  137.2380   75.9470  222.2210 C   0  0  0  0  0  0  0  0  0  0  0  0
  137.0170   77.3130  222.7310 C   0  0  0  0  0  0  0  0  0  0  0  0
  135.8010   77.6410  222.9580 O   0  0  0  0  0  0  0  0  0  0  0  0
  138.0250   78.3140  223.0010 C   0  0  0  0  0  0  0  0  0  0  0  0
  137.6680   79.6200  223.3080 C   0  0  0  0  0  0  0  0  0  0  0  0
  138.6210   80.5920  223.5880 C   0  0  0  0  0  0  0  0  0  0  0  0
  139.9630   80.2390  223.5590 C   0  0  0  0  0  0  0  0  0  0  0  0
  140.9380   81.1770  223.8300 C   0  0  0  0  0  0  0  0  0  0  0  0
  142.2610   80.7320  223.7760 C   0  0  0  0  0  0  0  0  0  0  0  0
  143.2610   81.6290  224.0400 F   0  0  0  0  0  0  0  0  0  0  0  0
  142.5820   79.4280  223.4680 C   0  0  0  0  0  0  0  0  0  0  0  0
  141.6110   78.4910  223.1970 C   0  0  0  0  0  0  0  0  0  0  0  0
  140.2940   78.9280  223.2490 C   0  0  0  0  0  0  0  0  0  0  0  0
  139.3400   78.0600  222.9940 N   0  0  0  0  0  0  0  0  0  0  0  0
  138.6020   70.3350  223.1140 C   0  0  0  0  0  0  0  0  0  0  0  0
  138.1380   69.1710  223.7210 C   0  0  0  0  0  0  0  0  0  0  0  0
  138.5670   68.8020  224.9570 N   0  0  0  0  0  0  0  0  0  0  0  0
  140.5903   70.2466  228.6961 H   0  0  0  0  0  0  0  0  0  0  0  0
  141.7167   70.3671  227.3021 H   0  0  0  0  0  0  0  0  0  0  0  0
  140.1842   71.3042  227.3021 H   0  0  0  0  0  0  0  0  0  0  0  0
  139.0736   68.8825  227.5208 H   0  0  0  0  0  0  0  0  0  0  0  0
  141.2039   67.7136  227.8219 H   0  0  0  0  0  0  0  0  0  0  0  0
  140.4446   67.2201  226.2706 H   0  0  0  0  0  0  0  0  0  0  0  0
  141.8131   68.3837  226.2706 H   0  0  0  0  0  0  0  0  0  0  0  0
  140.6773   71.3817  225.5852 H   0  0  0  0  0  0  0  0  0  0  0  0
  139.7430   73.2690  223.4700 H   0  0  0  0  0  0  0  0  0  0  0  0
  143.2473   72.2977  221.0457 H   0  0  0  0  0  0  0  0  0  0  0  0
  144.2106   74.2135  219.8294 H   0  0  0  0  0  0  0  0  0  0  0  0
  142.8806   76.2533  219.3407 H   0  0  0  0  0  0  0  0  0  0  0  0
  140.4934   76.3129  220.1338 H   0  0  0  0  0  0  0  0  0  0  0  0
  139.2550   76.5360  221.6660 H   0  0  0  0  0  0  0  0  0  0  0  0
  136.5545   75.7692  221.3777 H   0  0  0  0  0  0  0  0  0  0  0  0
  137.0486   75.2446  223.0460 H   0  0  0  0  0  0  0  0  0  0  0  0
  136.6026   79.8927  223.3302 H   0  0  0  0  0  0  0  0  0  0  0  0
  138.3175   81.6217  223.8281 H   0  0  0  0  0  0  0  0  0  0  0  0
  140.6869   82.2195  224.0754 H   0  0  0  0  0  0  0  0  0  0  0  0
  143.6400   79.1285  223.4380 H   0  0  0  0  0  0  0  0  0  0  0  0
  141.8652   77.4492  222.9518 H   0  0  0  0  0  0  0  0  0  0  0  0
  138.2462   70.6177  222.1123 H   0  0  0  0  0  0  0  0  0  0  0  0
  137.4110   68.5384  223.1907 H   0  0  0  0  0  0  0  0  0  0  0  0
  1  2  1  0
  2  3  1  0
  2  4  1  0
  4  5  2  0
  5  6  1  0
  6  7  1  0
  7  8  1  0
  8  9  2  0
  8 10  1  0
 10 11  2  0
 11 12  1  0
 12 13  2  0
 13 14  1  0
 14 15  2  0
 15 16  1  0
 16 17  2  0
 16 18  1  0
 18 19  1  0
 19 20  1  0
 20 21  2  0
 20 22  1  0
 22 23  2  0
 23 24  1  0
 24 25  2  0
 25 26  1  0
 26 27  2  0
 27 28  1  0
 27 29  1  0
 29 30  2  0
 30 31  1  0
 31 32  2  0
  6 33  2  0
 33 34  1  0
 34 35  2  0
 35  4  1  0
 15 10  1  0
 32 22  1  0
 31 25  1  0
  1 36  1  0
  1 37  1  0
  1 38  1  0
  2 39  1  0
  3 40  1  0
  3 41  1  0
  3 42  1  0
  5 43  1  0
  7 44  1  0
 11 45  1  0
 12 46  1  0
 13 47  1  0
 14 48  1  0
 18 49  1  0
 19 50  1  0
 19 51  1  0
 23 52  1  0
 24 53  1  0
 26 54  1  0
 29 55  1  0
 30 56  1  0
 33 57  1  0
 34 58  1  0
M  END
>  <smiles>  (43) 
CC(C)c1cc(NC(=O)c2ccccc2C(=O)NCC(=O)c2ccc3cc(F)ccc3n2)ccn1

>  <score_type>  (43) 
oracle

>  <origin>  (43) 
autodockgpu

>  <m_score__min__energy>  (43) 
-9.8000000000000007

>  <m_primary>  (43) 
energy

>  <rmsd>  (43) 
8.977722235685036

>  <m_score__min__rmsd>  (43) 
8.977722235685036

>  <meeko>  (43) 
{"free_energy": -8.7, "intermolecular_energy": -10.79, "internal_energy": -2.42, "cluster_size": 4, "cluster_id": 5, "rank_in_cluster": 2}

>  <energy>  (43) 
-7.57

>  <cluster_rmsd>  (43) 
0.0

>  <cluster>  (43) 
9

$$$$

     RDKit          3D

 58 61  0  0  0  0  0  0  0  0999 V2000
  144.2580   76.3170  214.4790 C   0  0  0  0  0  0  0  0  0  0  0  0
  144.4870   75.9960  215.9520 C   0  0  0  0  0  0  0  0  0  0  0  0
  144.9410   74.5660  216.0550 C   0  0  0  0  0  0  0  0  0  0  0  0
  143.2280   76.2060  216.7260 C   0  0  0  0  0  0  0  0  0  0  0  0
  143.3290   76.6950  218.0080 C   0  0  0  0  0  0  0  0  0  0  0  0
  142.1750   76.9070  218.7190 C   0  0  0  0  0  0  0  0  0  0  0  0
  142.1760   77.4290  220.0560 N   0  0  0  0  0  0  0  0  0  0  0  0
  141.7520   78.7940  220.1650 C   0  0  0  0  0  0  0  0  0  0  0  0
  141.4060   79.4800  219.1730 O   0  0  0  0  0  0  0  0  0  0  0  0
  141.7310   79.3830  221.5010 C   0  0  0  0  0  0  0  0  0  0  0  0
  142.2120   80.6710  221.6130 C   0  0  0  0  0  0  0  0  0  0  0  0
  142.2130   81.2720  222.8530 C   0  0  0  0  0  0  0  0  0  0  0  0
  141.7520   80.6450  223.9910 C   0  0  0  0  0  0  0  0  0  0  0  0
  141.2710   79.3360  223.8300 C   0  0  0  0  0  0  0  0  0  0  0  0
  141.2580   78.7080  222.6050 C   0  0  0  0  0  0  0  0  0  0  0  0
  140.7450   77.3170  222.5020 C   0  0  0  0  0  0  0  0  0  0  0  0
  141.4510   76.3250  222.7230 O   0  0  0  0  0  0  0  0  0  0  0  0
  139.3690   77.1130  222.1270 N   0  0  0  0  0  0  0  0  0  0  0  0
  138.7670   75.8140  221.9960 C   0  0  0  0  0  0  0  0  0  0  0  0
  139.3090   75.0610  220.8500 C   0  0  0  0  0  0  0  0  0  0  0  0
  138.6340   75.1200  219.7650 O   0  0  0  0  0  0  0  0  0  0  0  0
  140.5170   74.2660  220.8240 C   0  0  0  0  0  0  0  0  0  0  0  0
  140.4670   72.8870  220.9680 C   0  0  0  0  0  0  0  0  0  0  0  0
  141.6150   72.1050  220.9270 C   0  0  0  0  0  0  0  0  0  0  0  0
  142.8400   72.7280  220.7360 C   0  0  0  0  0  0  0  0  0  0  0  0
  144.0030   71.9850  220.6910 C   0  0  0  0  0  0  0  0  0  0  0  0
  145.1890   72.6980  220.4950 C   0  0  0  0  0  0  0  0  0  0  0  0
  146.3660   72.0000  220.4430 F   0  0  0  0  0  0  0  0  0  0  0  0
  145.2040   74.0680  220.3550 C   0  0  0  0  0  0  0  0  0  0  0  0
  144.0460   74.8100  220.4000 C   0  0  0  0  0  0  0  0  0  0  0  0
  142.8650   74.1080  220.5940 C   0  0  0  0  0  0  0  0  0  0  0  0
  141.7390   74.7860  220.6430 N   0  0  0  0  0  0  0  0  0  0  0  0
  140.9470   76.6250  218.1250 C   0  0  0  0  0  0  0  0  0  0  0  0
  140.9130   76.1310  216.8230 C   0  0  0  0  0  0  0  0  0  0  0  0
  142.0570   75.9210  216.1210 N   0  0  0  0  0  0  0  0  0  0  0  0
  143.6211   77.2097  214.3930 H   0  0  0  0  0  0  0  0  0  0  0  0
  145.2250   76.5080  213.9907 H   0  0  0  0  0  0  0  0  0  0  0  0
  143.7627   75.4648  213.9907 H   0  0  0  0  0  0  0  0  0  0  0  0
  145.2549   76.6618  216.3727 H   0  0  0  0  0  0  0  0  0  0  0  0
  145.0302   74.2850  217.1148 H   0  0  0  0  0  0  0  0  0  0  0  0
  144.2064   73.9117  215.5628 H   0  0  0  0  0  0  0  0  0  0  0  0
  145.9185   74.4553  215.5628 H   0  0  0  0  0  0  0  0  0  0  0  0
  144.3118   76.9109  218.4524 H   0  0  0  0  0  0  0  0  0  0  0  0
  142.4620   76.8490  220.8650 H   0  0  0  0  0  0  0  0  0  0  0  0
  142.5875   81.2080  220.7295 H   0  0  0  0  0  0  0  0  0  0  0  0
  142.5991   82.2985  222.9387 H   0  0  0  0  0  0  0  0  0  0  0  0
  141.7606   81.1432  224.9717 H   0  0  0  0  0  0  0  0  0  0  0  0
  140.8927   78.7953  224.7101 H   0  0  0  0  0  0  0  0  0  0  0  0
  138.8260   77.9860  221.9800 H   0  0  0  0  0  0  0  0  0  0  0  0
  138.9554   75.2420  222.9165 H   0  0  0  0  0  0  0  0  0  0  0  0
  137.6896   75.9571  221.8264 H   0  0  0  0  0  0  0  0  0  0  0  0
  139.4925   72.3996  221.1187 H   0  0  0  0  0  0  0  0  0  0  0  0
  141.5537   71.0129  221.0437 H   0  0  0  0  0  0  0  0  0  0  0  0
  143.9964   70.8908  220.8034 H   0  0  0  0  0  0  0  0  0  0  0  0
  146.1649   74.5815  220.2035 H   0  0  0  0  0  0  0  0  0  0  0  0
  144.0561   75.9042  220.2878 H   0  0  0  0  0  0  0  0  0  0  0  0
  140.0117   76.7911  218.6796 H   0  0  0  0  0  0  0  0  0  0  0  0
  139.9430   75.9070  216.3551 H   0  0  0  0  0  0  0  0  0  0  0  0
  1  2  1  0
  2  3  1  0
  2  4  1  0
  4  5  2  0
  5  6  1  0
  6  7  1  0
  7  8  1  0
  8  9  2  0
  8 10  1  0
 10 11  2  0
 11 12  1  0
 12 13  2  0
 13 14  1  0
 14 15  2  0
 15 16  1  0
 16 17  2  0
 16 18  1  0
 18 19  1  0
 19 20  1  0
 20 21  2  0
 20 22  1  0
 22 23  2  0
 23 24  1  0
 24 25  2  0
 25 26  1  0
 26 27  2  0
 27 28  1  0
 27 29  1  0
 29 30  2  0
 30 31  1  0
 31 32  2  0
  6 33  2  0
 33 34  1  0
 34 35  2  0
 35  4  1  0
 15 10  1  0
 32 22  1  0
 31 25  1  0
  1 36  1  0
  1 37  1  0
  1 38  1  0
  2 39  1  0
  3 40  1  0
  3 41  1  0
  3 42  1  0
  5 43  1  0
  7 44  1  0
 11 45  1  0
 12 46  1  0
 13 47  1  0
 14 48  1  0
 18 49  1  0
 19 50  1  0
 19 51  1  0
 23 52  1  0
 24 53  1  0
 26 54  1  0
 29 55  1  0
 30 56  1  0
 33 57  1  0
 34 58  1  0
M  END
>  <smiles>  (44) 
CC(C)c1cc(NC(=O)c2ccccc2C(=O)NCC(=O)c2ccc3cc(F)ccc3n2)ccn1

>  <score_type>  (44) 
oracle

>  <origin>  (44) 
autodockgpu

>  <m_score__min__energy>  (44) 
-9.8000000000000007

>  <m_primary>  (44) 
energy

>  <rmsd>  (44) 
4.228898806511231

>  <m_score__min__rmsd>  (44) 
4.228898806511231

>  <meeko>  (44) 
{"free_energy": -6.91, "intermolecular_energy": -9.0, "internal_energy": -4.13, "cluster_size": 3, "cluster_id": 11, "rank_in_cluster": 1}

>  <energy>  (44) 
-7.4

>  <cluster_rmsd>  (44) 
0.0

>  <cluster>  (44) 
10

$$$$

     RDKit          3D

 58 61  0  0  0  0  0  0  0  0999 V2000
  132.7410   70.0420  226.1530 C   0  0  0  0  0  0  0  0  0  0  0  0
  133.2770   68.9400  225.2450 C   0  0  0  0  0  0  0  0  0  0  0  0
  133.6170   67.7510  226.1000 C   0  0  0  0  0  0  0  0  0  0  0  0
  134.4830   69.4220  224.5090 C   0  0  0  0  0  0  0  0  0  0  0  0
  134.7940   70.7610  224.5780 C   0  0  0  0  0  0  0  0  0  0  0  0
  135.9110   71.2070  223.9190 C   0  0  0  0  0  0  0  0  0  0  0  0
  136.3260   72.5810  223.9450 N   0  0  0  0  0  0  0  0  0  0  0  0
  136.2940   73.2390  222.6720 C   0  0  0  0  0  0  0  0  0  0  0  0
  135.9320   72.6630  221.6170 O   0  0  0  0  0  0  0  0  0  0  0  0
  136.7050   74.6390  222.6330 C   0  0  0  0  0  0  0  0  0  0  0  0
  135.7350   75.5730  222.9320 C   0  0  0  0  0  0  0  0  0  0  0  0
  136.0730   76.9090  222.9100 C   0  0  0  0  0  0  0  0  0  0  0  0
  137.3400   77.3580  222.6020 C   0  0  0  0  0  0  0  0  0  0  0  0
  138.2940   76.3720  222.3050 C   0  0  0  0  0  0  0  0  0  0  0  0
  137.9880   75.0300  222.3190 C   0  0  0  0  0  0  0  0  0  0  0  0
  139.0420   74.0360  221.9850 C   0  0  0  0  0  0  0  0  0  0  0  0
  140.2190   74.1640  222.3420 O   0  0  0  0  0  0  0  0  0  0  0  0
  138.6780   72.8760  221.2130 N   0  0  0  0  0  0  0  0  0  0  0  0
  139.6130   71.8520  220.8320 C   0  0  0  0  0  0  0  0  0  0  0  0
  139.4870   70.6430  221.6670 C   0  0  0  0  0  0  0  0  0  0  0  0
  139.0790   69.5860  221.0730 O   0  0  0  0  0  0  0  0  0  0  0  0
  139.7750   70.5270  223.0790 C   0  0  0  0  0  0  0  0  0  0  0  0
  140.2890   71.6000  223.7940 C   0  0  0  0  0  0  0  0  0  0  0  0
  140.5550   71.5140  225.1540 C   0  0  0  0  0  0  0  0  0  0  0  0
  140.2970   70.3180  225.8100 C   0  0  0  0  0  0  0  0  0  0  0  0
  140.5490   70.1930  227.1610 C   0  0  0  0  0  0  0  0  0  0  0  0
  140.2590   68.9530  227.7360 C   0  0  0  0  0  0  0  0  0  0  0  0
  140.4940   68.7850  229.0740 F   0  0  0  0  0  0  0  0  0  0  0  0
  139.7500   67.9060  226.9990 C   0  0  0  0  0  0  0  0  0  0  0  0
  139.4970   68.0290  225.6510 C   0  0  0  0  0  0  0  0  0  0  0  0
  139.7830   69.2590  225.0750 C   0  0  0  0  0  0  0  0  0  0  0  0
  139.5560   69.4120  223.7890 N   0  0  0  0  0  0  0  0  0  0  0  0
  136.6900   70.2990  223.2060 C   0  0  0  0  0  0  0  0  0  0  0  0
  136.3200   68.9560  223.1740 C   0  0  0  0  0  0  0  0  0  0  0  0
  135.2140   68.5150  223.8280 N   0  0  0  0  0  0  0  0  0  0  0  0
  132.8822   69.7517  227.2046 H   0  0  0  0  0  0  0  0  0  0  0  0
  133.2848   70.9774  225.9547 H   0  0  0  0  0  0  0  0  0  0  0  0
  131.6694   70.1917  225.9547 H   0  0  0  0  0  0  0  0  0  0  0  0
  132.5189   68.6573  224.4998 H   0  0  0  0  0  0  0  0  0  0  0  0
  133.5378   68.0281  227.1616 H   0  0  0  0  0  0  0  0  0  0  0  0
  132.9175   66.9306  225.8820 H   0  0  0  0  0  0  0  0  0  0  0  0
  134.6445   67.4244  225.8820 H   0  0  0  0  0  0  0  0  0  0  0  0
  134.1615   71.4571  225.1484 H   0  0  0  0  0  0  0  0  0  0  0  0
  136.6200   73.0420  224.8240 H   0  0  0  0  0  0  0  0  0  0  0  0
  134.7115   75.2577  223.1832 H   0  0  0  0  0  0  0  0  0  0  0  0
  135.2968   77.6509  223.1490 H   0  0  0  0  0  0  0  0  0  0  0  0
  137.5892   78.4293  222.5897 H   0  0  0  0  0  0  0  0  0  0  0  0
  139.3190   76.6817  222.0530 H   0  0  0  0  0  0  0  0  0  0  0  0
  137.6700   72.8170  220.9670 H   0  0  0  0  0  0  0  0  0  0  0  0
  139.4300   71.5781  219.7825 H   0  0  0  0  0  0  0  0  0  0  0  0
  140.6278   72.2533  220.9704 H   0  0  0  0  0  0  0  0  0  0  0  0
  140.4913   72.5449  223.2684 H   0  0  0  0  0  0  0  0  0  0  0  0
  140.9623   72.3769  225.7012 H   0  0  0  0  0  0  0  0  0  0  0  0
  140.9565   71.0253  227.7537 H   0  0  0  0  0  0  0  0  0  0  0  0
  139.5407   66.9490  227.4994 H   0  0  0  0  0  0  0  0  0  0  0  0
  139.0891   67.1951  225.0609 H   0  0  0  0  0  0  0  0  0  0  0  0
  137.5898   70.6392  222.6726 H   0  0  0  0  0  0  0  0  0  0  0  0
  136.9347   68.2399  222.6089 H   0  0  0  0  0  0  0  0  0  0  0  0
  1  2  1  0
  2  3  1  0
  2  4  1  0
  4  5  2  0
  5  6  1  0
  6  7  1  0
  7  8  1  0
  8  9  2  0
  8 10  1  0
 10 11  2  0
 11 12  1  0
 12 13  2  0
 13 14  1  0
 14 15  2  0
 15 16  1  0
 16 17  2  0
 16 18  1  0
 18 19  1  0
 19 20  1  0
 20 21  2  0
 20 22  1  0
 22 23  2  0
 23 24  1  0
 24 25  2  0
 25 26  1  0
 26 27  2  0
 27 28  1  0
 27 29  1  0
 29 30  2  0
 30 31  1  0
 31 32  2  0
  6 33  2  0
 33 34  1  0
 34 35  2  0
 35  4  1  0
 15 10  1  0
 32 22  1  0
 31 25  1  0
  1 36  1  0
  1 37  1  0
  1 38  1  0
  2 39  1  0
  3 40  1  0
  3 41  1  0
  3 42  1  0
  5 43  1  0
  7 44  1  0
 11 45  1  0
 12 46  1  0
 13 47  1  0
 14 48  1  0
 18 49  1  0
 19 50  1  0
 19 51  1  0
 23 52  1  0
 24 53  1  0
 26 54  1  0
 29 55  1  0
 30 56  1  0
 33 57  1  0
 34 58  1  0
M  END
>  <smiles>  (45) 
CC(C)c1cc(NC(=O)c2ccccc2C(=O)NCC(=O)c2ccc3cc(F)ccc3n2)ccn1

>  <score_type>  (45) 
oracle

>  <origin>  (45) 
autodockgpu

>  <m_score__min__energy>  (45) 
-9.8000000000000007

>  <m_primary>  (45) 
energy

>  <rmsd>  (45) 
9.459682437973228

>  <m_score__min__rmsd>  (45) 
9.459682437973228

>  <meeko>  (45) 
{"free_energy": -7.72, "intermolecular_energy": -9.81, "internal_energy": -3.2, "cluster_size": 2, "cluster_id": 7, "rank_in_cluster": 1}

>  <energy>  (45) 
-6.91

>  <cluster_rmsd>  (45) 
0.0

>  <cluster>  (45) 
11

$$$$

     RDKit          3D

 58 61  0  0  0  0  0  0  0  0999 V2000
  141.9330   79.5960  223.8820 C   0  0  0  0  0  0  0  0  0  0  0  0
  142.0450   79.4140  222.3720 C   0  0  0  0  0  0  0  0  0  0  0  0
  141.4050   80.6000  221.7070 C   0  0  0  0  0  0  0  0  0  0  0  0
  141.3720   78.1490  221.9550 C   0  0  0  0  0  0  0  0  0  0  0  0
  140.2320   77.7690  222.6250 C   0  0  0  0  0  0  0  0  0  0  0  0
  139.5970   76.6170  222.2350 C   0  0  0  0  0  0  0  0  0  0  0  0
  138.3940   76.1480  222.8610 N   0  0  0  0  0  0  0  0  0  0  0  0
  137.2660   76.0390  221.9830 C   0  0  0  0  0  0  0  0  0  0  0  0
  137.3230   76.3300  220.7630 O   0  0  0  0  0  0  0  0  0  0  0  0
  136.0120   75.5660  222.5600 C   0  0  0  0  0  0  0  0  0  0  0  0
  135.0270   76.5120  222.7510 C   0  0  0  0  0  0  0  0  0  0  0  0
  133.8230   76.1150  223.2920 C   0  0  0  0  0  0  0  0  0  0  0  0
  133.5560   74.8120  223.6530 C   0  0  0  0  0  0  0  0  0  0  0  0
  134.5870   73.8830  223.4410 C   0  0  0  0  0  0  0  0  0  0  0  0
  135.8000   74.2480  222.9020 C   0  0  0  0  0  0  0  0  0  0  0  0
  136.8550   73.2190  222.7120 C   0  0  0  0  0  0  0  0  0  0  0  0
  136.9910   72.2510  223.4720 O   0  0  0  0  0  0  0  0  0  0  0  0
  137.7590   73.3520  221.5990 N   0  0  0  0  0  0  0  0  0  0  0  0
  138.8160   72.4180  221.3180 C   0  0  0  0  0  0  0  0  0  0  0  0
  139.8250   72.3780  222.3930 C   0  0  0  0  0  0  0  0  0  0  0  0
  140.7720   73.2350  222.3100 O   0  0  0  0  0  0  0  0  0  0  0  0
  139.8570   71.4790  223.5240 C   0  0  0  0  0  0  0  0  0  0  0  0
  139.3550   70.1880  223.4250 C   0  0  0  0  0  0  0  0  0  0  0  0
  139.3940   69.3040  224.4950 C   0  0  0  0  0  0  0  0  0  0  0  0
  139.9500   69.7290  225.6930 C   0  0  0  0  0  0  0  0  0  0  0  0
  140.0040   68.8800  226.7800 C   0  0  0  0  0  0  0  0  0  0  0  0
  140.5810   69.3950  227.9440 C   0  0  0  0  0  0  0  0  0  0  0  0
  140.6550   68.5860  229.0460 F   0  0  0  0  0  0  0  0  0  0  0  0
  141.0690   70.6820  228.0100 C   0  0  0  0  0  0  0  0  0  0  0  0
  141.0150   71.5310  226.9280 C   0  0  0  0  0  0  0  0  0  0  0  0
  140.4440   71.0240  225.7690 C   0  0  0  0  0  0  0  0  0  0  0  0
  140.3750   71.8080  224.7150 N   0  0  0  0  0  0  0  0  0  0  0  0
  140.1220   75.8740  221.1800 C   0  0  0  0  0  0  0  0  0  0  0  0
  141.2800   76.3130  220.5430 C   0  0  0  0  0  0  0  0  0  0  0  0
  141.9080   77.4530  220.9310 N   0  0  0  0  0  0  0  0  0  0  0  0
  142.4442   78.7652  224.3904 H   0  0  0  0  0  0  0  0  0  0  0  0
  142.4019   80.5477  224.1724 H   0  0  0  0  0  0  0  0  0  0  0  0
  140.8721   79.6063  224.1724 H   0  0  0  0  0  0  0  0  0  0  0  0
  143.1016   79.3463  222.0738 H   0  0  0  0  0  0  0  0  0  0  0  0
  141.0309   81.2932  222.4748 H   0  0  0  0  0  0  0  0  0  0  0  0
  142.1482   81.1140  221.0797 H   0  0  0  0  0  0  0  0  0  0  0  0
  140.5674   80.2609  221.0797 H   0  0  0  0  0  0  0  0  0  0  0  0
  139.8386   78.3750  223.4545 H   0  0  0  0  0  0  0  0  0  0  0  0
  138.3640   75.9090  223.8680 H   0  0  0  0  0  0  0  0  0  0  0  0
  135.1988   77.5633  222.4769 H   0  0  0  0  0  0  0  0  0  0  0  0
  133.0397   76.8725  223.4425 H   0  0  0  0  0  0  0  0  0  0  0  0
  132.5880   74.5161  224.0837 H   0  0  0  0  0  0  0  0  0  0  0  0
  134.4204   72.8306  223.7141 H   0  0  0  0  0  0  0  0  0  0  0  0
  137.5750   74.1710  220.9870 H   0  0  0  0  0  0  0  0  0  0  0  0
  138.3806   71.4144  221.2034 H   0  0  0  0  0  0  0  0  0  0  0  0
  139.3184   72.7444  220.3955 H   0  0  0  0  0  0  0  0  0  0  0  0
  138.9145   69.8567  222.4730 H   0  0  0  0  0  0  0  0  0  0  0  0
  138.9914   68.2852  224.3947 H   0  0  0  0  0  0  0  0  0  0  0  0
  139.6136   67.8527  226.7326 H   0  0  0  0  0  0  0  0  0  0  0  0
  141.5127   71.0397  228.9508 H   0  0  0  0  0  0  0  0  0  0  0  0
  141.4044   72.5585  226.9792 H   0  0  0  0  0  0  0  0  0  0  0  0
  139.6260   74.9483  220.8528 H   0  0  0  0  0  0  0  0  0  0  0  0
  141.6937   75.7255  219.7101 H   0  0  0  0  0  0  0  0  0  0  0  0
  1  2  1  0
  2  3  1  0
  2  4  1  0
  4  5  2  0
  5  6  1  0
  6  7  1  0
  7  8  1  0
  8  9  2  0
  8 10  1  0
 10 11  2  0
 11 12  1  0
 12 13  2  0
 13 14  1  0
 14 15  2  0
 15 16  1  0
 16 17  2  0
 16 18  1  0
 18 19  1  0
 19 20  1  0
 20 21  2  0
 20 22  1  0
 22 23  2  0
 23 24  1  0
 24 25  2  0
 25 26  1  0
 26 27  2  0
 27 28  1  0
 27 29  1  0
 29 30  2  0
 30 31  1  0
 31 32  2  0
  6 33  2  0
 33 34  1  0
 34 35  2  0
 35  4  1  0
 15 10  1  0
 32 22  1  0
 31 25  1  0
  1 36  1  0
  1 37  1  0
  1 38  1  0
  2 39  1  0
  3 40  1  0
  3 41  1  0
  3 42  1  0
  5 43  1  0
  7 44  1  0
 11 45  1  0
 12 46  1  0
 13 47  1  0
 14 48  1  0
 18 49  1  0
 19 50  1  0
 19 51  1  0
 23 52  1  0
 24 53  1  0
 26 54  1  0
 29 55  1  0
 30 56  1  0
 33 57  1  0
 34 58  1  0
M  END
>  <smiles>  (46) 
CC(C)c1cc(NC(=O)c2ccccc2C(=O)NCC(=O)c2ccc3cc(F)ccc3n2)ccn1

>  <score_type>  (46) 
oracle

>  <origin>  (46) 
autodockgpu

>  <m_score__min__energy>  (46) 
-9.8000000000000007

>  <m_primary>  (46) 
energy

>  <rmsd>  (46) 
7.34706159546446

>  <m_score__min__rmsd>  (46) 
7.34706159546446

>  <meeko>  (46) 
{"free_energy": -8.35, "intermolecular_energy": -10.44, "internal_energy": -2.52, "cluster_size": 4, "cluster_id": 4, "rank_in_cluster": 4}

>  <energy>  (46) 
-6.86

>  <cluster_rmsd>  (46) 
1.98

>  <cluster>  (46) 
11

$$$$

     RDKit          3D

 58 61  0  0  0  0  0  0  0  0999 V2000
  145.7770   73.3410  221.1110 C   0  0  0  0  0  0  0  0  0  0  0  0
  144.3030   73.0470  220.8500 C   0  0  0  0  0  0  0  0  0  0  0  0
  144.2170   72.0070  219.7680 C   0  0  0  0  0  0  0  0  0  0  0  0
  143.5940   74.2950  220.4390 C   0  0  0  0  0  0  0  0  0  0  0  0
  142.2440   74.3860  220.6890 C   0  0  0  0  0  0  0  0  0  0  0  0
  141.5900   75.5370  220.3310 C   0  0  0  0  0  0  0  0  0  0  0  0
  140.1870   75.7330  220.5640 N   0  0  0  0  0  0  0  0  0  0  0  0
  139.8660   76.2900  221.8450 C   0  0  0  0  0  0  0  0  0  0  0  0
  140.7400   76.5840  222.6970 O   0  0  0  0  0  0  0  0  0  0  0  0
  138.4550   76.5140  222.1420 C   0  0  0  0  0  0  0  0  0  0  0  0
  138.1190   77.7600  222.6290 C   0  0  0  0  0  0  0  0  0  0  0  0
  136.7990   78.0230  222.9250 C   0  0  0  0  0  0  0  0  0  0  0  0
  135.7940   77.0950  222.7550 C   0  0  0  0  0  0  0  0  0  0  0  0
  136.1810   75.8410  222.2570 C   0  0  0  0  0  0  0  0  0  0  0  0
  137.4910   75.5480  221.9530 C   0  0  0  0  0  0  0  0  0  0  0  0
  137.8380   74.1980  221.4380 C   0  0  0  0  0  0  0  0  0  0  0  0
  138.1830   73.9960  220.2670 O   0  0  0  0  0  0  0  0  0  0  0  0
  137.7690   73.0760  222.3380 N   0  0  0  0  0  0  0  0  0  0  0  0
  138.0820   71.7270  221.9490 C   0  0  0  0  0  0  0  0  0  0  0  0
  139.4360   71.3240  222.3710 C   0  0  0  0  0  0  0  0  0  0  0  0
  140.3280   71.2960  221.4540 O   0  0  0  0  0  0  0  0  0  0  0  0
  139.8600   70.9600  223.7050 C   0  0  0  0  0  0  0  0  0  0  0  0
  140.5780   71.8490  224.4930 C   0  0  0  0  0  0  0  0  0  0  0  0
  140.9780   71.5240  225.7830 C   0  0  0  0  0  0  0  0  0  0  0  0
  140.6470   70.2760  226.2900 C   0  0  0  0  0  0  0  0  0  0  0  0
  141.0280   69.9170  227.5670 C   0  0  0  0  0  0  0  0  0  0  0  0
  140.6510   68.6400  227.9930 C   0  0  0  0  0  0  0  0  0  0  0  0
  141.0080   68.2430  229.2530 F   0  0  0  0  0  0  0  0  0  0  0  0
  139.9380   67.7810  227.1860 C   0  0  0  0  0  0  0  0  0  0  0  0
  139.5570   68.1370  225.9120 C   0  0  0  0  0  0  0  0  0  0  0  0
  139.9290   69.4040  225.4840 C   0  0  0  0  0  0  0  0  0  0  0  0
  139.5820   69.7780  224.2710 N   0  0  0  0  0  0  0  0  0  0  0  0
  142.3060   76.5700  219.7310 C   0  0  0  0  0  0  0  0  0  0  0  0
  143.6720   76.4150  219.5050 C   0  0  0  0  0  0  0  0  0  0  0  0
  144.3190   75.2740  219.8610 N   0  0  0  0  0  0  0  0  0  0  0  0
  145.9573   73.3770  222.1955 H   0  0  0  0  0  0  0  0  0  0  0  0
  146.3940   72.5482  220.6628 H   0  0  0  0  0  0  0  0  0  0  0  0
  146.0426   74.3098  220.6628 H   0  0  0  0  0  0  0  0  0  0  0  0
  143.8208   72.6729  221.7652 H   0  0  0  0  0  0  0  0  0  0  0  0
  144.1345   71.0094  220.2240 H   0  0  0  0  0  0  0  0  0  0  0  0
  143.3317   72.1993  219.1441 H   0  0  0  0  0  0  0  0  0  0  0  0
  145.1219   72.0513  219.1441 H   0  0  0  0  0  0  0  0  0  0  0  0
  141.7022   73.5552  221.1647 H   0  0  0  0  0  0  0  0  0  0  0  0
  139.4790   75.4870  219.8500 H   0  0  0  0  0  0  0  0  0  0  0  0
  138.8906   78.5297  222.7784 H   0  0  0  0  0  0  0  0  0  0  0  0
  136.5357   79.0176  223.3142 H   0  0  0  0  0  0  0  0  0  0  0  0
  134.7457   77.3247  222.9965 H   0  0  0  0  0  0  0  0  0  0  0  0
  135.4132   75.0682  222.1049 H   0  0  0  0  0  0  0  0  0  0  0  0
  137.4980   73.3160  223.3110 H   0  0  0  0  0  0  0  0  0  0  0  0
  137.3505   71.0469  222.4099 H   0  0  0  0  0  0  0  0  0  0  0  0
  138.0418   71.6749  220.8510 H   0  0  0  0  0  0  0  0  0  0  0  0
  140.8372   72.8372  224.0851 H   0  0  0  0  0  0  0  0  0  0  0  0
  141.5466   72.2429  226.3911 H   0  0  0  0  0  0  0  0  0  0  0  0
  141.5978   70.5992  228.2150 H   0  0  0  0  0  0  0  0  0  0  0  0
  139.6664   66.7862  227.5690 H   0  0  0  0  0  0  0  0  0  0  0  0
  138.9871   67.4527  225.2664 H   0  0  0  0  0  0  0  0  0  0  0  0
  141.7973   77.5003  219.4381 H   0  0  0  0  0  0  0  0  0  0  0  0
  144.2369   77.2306  219.0300 H   0  0  0  0  0  0  0  0  0  0  0  0
  1  2  1  0
  2  3  1  0
  2  4  1  0
  4  5  2  0
  5  6  1  0
  6  7  1  0
  7  8  1  0
  8  9  2  0
  8 10  1  0
 10 11  2  0
 11 12  1  0
 12 13  2  0
 13 14  1  0
 14 15  2  0
 15 16  1  0
 16 17  2  0
 16 18  1  0
 18 19  1  0
 19 20  1  0
 20 21  2  0
 20 22  1  0
 22 23  2  0
 23 24  1  0
 24 25  2  0
 25 26  1  0
 26 27  2  0
 27 28  1  0
 27 29  1  0
 29 30  2  0
 30 31  1  0
 31 32  2  0
  6 33  2  0
 33 34  1  0
 34 35  2  0
 35  4  1  0
 15 10  1  0
 32 22  1  0
 31 25  1  0
  1 36  1  0
  1 37  1  0
  1 38  1  0
  2 39  1  0
  3 40  1  0
  3 41  1  0
  3 42  1  0
  5 43  1  0
  7 44  1  0
 11 45  1  0
 12 46  1  0
 13 47  1  0
 14 48  1  0
 18 49  1  0
 19 50  1  0
 19 51  1  0
 23 52  1  0
 24 53  1  0
 26 54  1  0
 29 55  1  0
 30 56  1  0
 33 57  1  0
 34 58  1  0
M  END
>  <smiles>  (47) 
CC(C)c1cc(NC(=O)c2ccccc2C(=O)NCC(=O)c2ccc3cc(F)ccc3n2)ccn1

>  <score_type>  (47) 
oracle

>  <origin>  (47) 
autodockgpu

>  <m_score__min__energy>  (47) 
-9.8000000000000007

>  <m_primary>  (47) 
energy

>  <rmsd>  (47) 
5.704358781918237

>  <m_score__min__rmsd>  (47) 
5.704358781918237

>  <meeko>  (47) 
{"free_energy": -8.63, "intermolecular_energy": -10.71, "internal_energy": -2.5, "cluster_size": 11, "cluster_id": 2, "rank_in_cluster": 11}

>  <energy>  (47) 
-6.56

>  <cluster_rmsd>  (47) 
0.33

>  <cluster>  (47) 
11

$$$$

     RDKit          3D

 58 61  0  0  0  0  0  0  0  0999 V2000
  137.3960   81.4270  220.4210 C   0  0  0  0  0  0  0  0  0  0  0  0
  138.0130   80.5510  219.3350 C   0  0  0  0  0  0  0  0  0  0  0  0
  137.4200   79.1740  219.4490 C   0  0  0  0  0  0  0  0  0  0  0  0
  139.4960   80.5010  219.4950 C   0  0  0  0  0  0  0  0  0  0  0  0
  140.0700   79.3020  219.8520 C   0  0  0  0  0  0  0  0  0  0  0  0
  141.4340   79.2440  219.9830 C   0  0  0  0  0  0  0  0  0  0  0  0
  142.1260   78.0370  220.3360 N   0  0  0  0  0  0  0  0  0  0  0  0
  141.7590   76.8900  219.5600 C   0  0  0  0  0  0  0  0  0  0  0  0
  140.9030   76.9330  218.6440 O   0  0  0  0  0  0  0  0  0  0  0  0
  142.4290   75.6300  219.8710 C   0  0  0  0  0  0  0  0  0  0  0  0
  143.6970   75.4640  219.3530 C   0  0  0  0  0  0  0  0  0  0  0  0
  144.3730   74.2920  219.6190 C   0  0  0  0  0  0  0  0  0  0  0  0
  143.8390   73.2750  220.3810 C   0  0  0  0  0  0  0  0  0  0  0  0
  142.5470   73.4880  220.8870 C   0  0  0  0  0  0  0  0  0  0  0  0
  141.8470   74.6470  220.6400 C   0  0  0  0  0  0  0  0  0  0  0  0
  140.4780   74.8070  221.1970 C   0  0  0  0  0  0  0  0  0  0  0  0
  140.1780   74.4590  222.3450 O   0  0  0  0  0  0  0  0  0  0  0  0
  139.4570   75.3900  220.3650 N   0  0  0  0  0  0  0  0  0  0  0  0
  138.1010   75.5930  220.7980 C   0  0  0  0  0  0  0  0  0  0  0  0
  138.0280   76.2460  222.1170 C   0  0  0  0  0  0  0  0  0  0  0  0
  137.3220   75.6520  223.0040 O   0  0  0  0  0  0  0  0  0  0  0  0
  138.6680   77.4810  222.5130 C   0  0  0  0  0  0  0  0  0  0  0  0
  137.9240   78.6340  222.7250 C   0  0  0  0  0  0  0  0  0  0  0  0
  138.5180   79.8250  223.1240 C   0  0  0  0  0  0  0  0  0  0  0  0
  139.8920   79.8550  223.3130 C   0  0  0  0  0  0  0  0  0  0  0  0
  140.5190   81.0200  223.7070 C   0  0  0  0  0  0  0  0  0  0  0  0
  141.9050   80.9550  223.8720 C   0  0  0  0  0  0  0  0  0  0  0  0
  142.5670   82.0890  224.2630 F   0  0  0  0  0  0  0  0  0  0  0  0
  142.6150   79.7950  223.6530 C   0  0  0  0  0  0  0  0  0  0  0  0
  141.9920   78.6320  223.2600 C   0  0  0  0  0  0  0  0  0  0  0  0
  140.6150   78.6900  223.0950 C   0  0  0  0  0  0  0  0  0  0  0  0
  139.9870   77.5980  222.7180 N   0  0  0  0  0  0  0  0  0  0  0  0
  142.1900   80.3910  219.7520 C   0  0  0  0  0  0  0  0  0  0  0  0
  141.5480   81.5740  219.3930 C   0  0  0  0  0  0  0  0  0  0  0  0
  140.1970   81.6300  219.2640 N   0  0  0  0  0  0  0  0  0  0  0  0
  137.6728   81.0340  221.4104 H   0  0  0  0  0  0  0  0  0  0  0  0
  137.7694   82.4565  220.3178 H   0  0  0  0  0  0  0  0  0  0  0  0
  136.3009   81.4221  220.3178 H   0  0  0  0  0  0  0  0  0  0  0  0
  137.7964   80.9679  218.3404 H   0  0  0  0  0  0  0  0  0  0  0  0
  137.3065   78.9104  220.5109 H   0  0  0  0  0  0  0  0  0  0  0  0
  136.4349   79.1573  218.9598 H   0  0  0  0  0  0  0  0  0  0  0  0
  138.0847   78.4469  218.9598 H   0  0  0  0  0  0  0  0  0  0  0  0
  139.4493   78.4111  220.0281 H   0  0  0  0  0  0  0  0  0  0  0  0
  142.8320   78.0180  221.0930 H   0  0  0  0  0  0  0  0  0  0  0  0
  144.1596   76.2513  218.7397 H   0  0  0  0  0  0  0  0  0  0  0  0
  145.3837   74.1628  219.2046 H   0  0  0  0  0  0  0  0  0  0  0  0
  144.3949   72.3472  220.5816 H   0  0  0  0  0  0  0  0  0  0  0  0
  142.0792   72.7038  221.5003 H   0  0  0  0  0  0  0  0  0  0  0  0
  139.7800   75.6830  219.4220 H   0  0  0  0  0  0  0  0  0  0  0  0
  137.5850   76.2257  220.0608 H   0  0  0  0  0  0  0  0  0  0  0  0
  137.6233   74.6059  220.8838 H   0  0  0  0  0  0  0  0  0  0  0  0
  136.8350   78.6037  222.5730 H   0  0  0  0  0  0  0  0  0  0  0  0
  137.9102   80.7272  223.2869 H   0  0  0  0  0  0  0  0  0  0  0  0
  139.9576   81.9497  223.8817 H   0  0  0  0  0  0  0  0  0  0  0  0
  143.7057   79.7981  223.7956 H   0  0  0  0  0  0  0  0  0  0  0  0
  142.5566   77.7042  223.0856 H   0  0  0  0  0  0  0  0  0  0  0  0
  143.2851   80.3628  219.8523 H   0  0  0  0  0  0  0  0  0  0  0  0
  142.1459   82.4791  219.2107 H   0  0  0  0  0  0  0  0  0  0  0  0
  1  2  1  0
  2  3  1  0
  2  4  1  0
  4  5  2  0
  5  6  1  0
  6  7  1  0
  7  8  1  0
  8  9  2  0
  8 10  1  0
 10 11  2  0
 11 12  1  0
 12 13  2  0
 13 14  1  0
 14 15  2  0
 15 16  1  0
 16 17  2  0
 16 18  1  0
 18 19  1  0
 19 20  1  0
 20 21  2  0
 20 22  1  0
 22 23  2  0
 23 24  1  0
 24 25  2  0
 25 26  1  0
 26 27  2  0
 27 28  1  0
 27 29  1  0
 29 30  2  0
 30 31  1  0
 31 32  2  0
  6 33  2  0
 33 34  1  0
 34 35  2  0
 35  4  1  0
 15 10  1  0
 32 22  1  0
 31 25  1  0
  1 36  1  0
  1 37  1  0
  1 38  1  0
  2 39  1  0
  3 40  1  0
  3 41  1  0
  3 42  1  0
  5 43  1  0
  7 44  1  0
 11 45  1  0
 12 46  1  0
 13 47  1  0
 14 48  1  0
 18 49  1  0
 19 50  1  0
 19 51  1  0
 23 52  1  0
 24 53  1  0
 26 54  1  0
 29 55  1  0
 30 56  1  0
 33 57  1  0
 34 58  1  0
M  END
>  <smiles>  (48) 
CC(C)c1cc(NC(=O)c2ccccc2C(=O)NCC(=O)c2ccc3cc(F)ccc3n2)ccn1

>  <score_type>  (48) 
oracle

>  <origin>  (48) 
autodockgpu

>  <m_score__min__energy>  (48) 
-9.8000000000000007

>  <m_primary>  (48) 
energy

>  <rmsd>  (48) 
6.692914507340683

>  <m_score__min__rmsd>  (48) 
6.692914507340683

>  <meeko>  (48) 
{"free_energy": -7.14, "intermolecular_energy": -9.23, "internal_energy": -4.41, "cluster_size": 11, "cluster_id": 8, "rank_in_cluster": 4}

>  <energy>  (48) 
-6.84

>  <cluster_rmsd>  (48) 
0.0

>  <cluster>  (48) 
12

$$$$

     RDKit          3D

 58 61  0  0  0  0  0  0  0  0999 V2000
  141.5320   80.4730  223.4720 C   0  0  0  0  0  0  0  0  0  0  0  0
  140.1560   80.5000  222.8160 C   0  0  0  0  0  0  0  0  0  0  0  0
  139.1440   80.8720  223.8630 C   0  0  0  0  0  0  0  0  0  0  0  0
  139.8400   79.1650  222.2270 C   0  0  0  0  0  0  0  0  0  0  0  0
  140.8040   78.1850  222.2870 C   0  0  0  0  0  0  0  0  0  0  0  0
  140.5130   76.9500  221.7660 C   0  0  0  0  0  0  0  0  0  0  0  0
  141.4460   75.8600  221.7950 N   0  0  0  0  0  0  0  0  0  0  0  0
  142.0350   75.5430  220.5270 C   0  0  0  0  0  0  0  0  0  0  0  0
  141.7600   76.1680  219.4740 O   0  0  0  0  0  0  0  0  0  0  0  0
  142.9940   74.4430  220.4920 C   0  0  0  0  0  0  0  0  0  0  0  0
  144.2730   74.7540  220.0820 C   0  0  0  0  0  0  0  0  0  0  0  0
  145.2160   73.7510  220.0320 C   0  0  0  0  0  0  0  0  0  0  0  0
  144.9400   72.4440  220.3740 C   0  0  0  0  0  0  0  0  0  0  0  0
  143.6250   72.1730  220.7860 C   0  0  0  0  0  0  0  0  0  0  0  0
  142.6610   73.1540  220.8470 C   0  0  0  0  0  0  0  0  0  0  0  0
  141.2850   72.8000  221.2820 C   0  0  0  0  0  0  0  0  0  0  0  0
  140.5960   73.5440  221.9910 O   0  0  0  0  0  0  0  0  0  0  0  0
  140.7290   71.5400  220.8630 N   0  0  0  0  0  0  0  0  0  0  0  0
  139.4110   71.0940  221.2240 C   0  0  0  0  0  0  0  0  0  0  0  0
  139.0300   71.5210  222.5830 C   0  0  0  0  0  0  0  0  0  0  0  0
  138.1110   72.4080  222.6600 O   0  0  0  0  0  0  0  0  0  0  0  0
  139.5830   71.0450  223.8310 C   0  0  0  0  0  0  0  0  0  0  0  0
  140.5000   71.8060  224.5420 C   0  0  0  0  0  0  0  0  0  0  0  0
  141.0280   71.3740  225.7530 C   0  0  0  0  0  0  0  0  0  0  0  0
  140.6220   70.1470  226.2580 C   0  0  0  0  0  0  0  0  0  0  0  0
  141.1250   69.6830  227.4560 C   0  0  0  0  0  0  0  0  0  0  0  0
  140.6600   68.4370  227.8850 C   0  0  0  0  0  0  0  0  0  0  0  0
  141.1330   67.9390  229.0700 F   0  0  0  0  0  0  0  0  0  0  0  0
  139.7480   67.7050  227.1560 C   0  0  0  0  0  0  0  0  0  0  0  0
  139.2460   68.1660  225.9600 C   0  0  0  0  0  0  0  0  0  0  0  0
  139.7040   69.4030  225.5290 C   0  0  0  0  0  0  0  0  0  0  0  0
  139.2460   69.8740  224.3890 N   0  0  0  0  0  0  0  0  0  0  0  0
  139.2610   76.7290  221.1960 C   0  0  0  0  0  0  0  0  0  0  0  0
  138.3300   77.7640  221.1660 C   0  0  0  0  0  0  0  0  0  0  0  0
  138.6190   78.9860  221.6840 N   0  0  0  0  0  0  0  0  0  0  0  0
  141.4168   80.4753  224.5659 H   0  0  0  0  0  0  0  0  0  0  0  0
  142.0684   79.5642  223.1617 H   0  0  0  0  0  0  0  0  0  0  0  0
  142.1036   81.3601  223.1617 H   0  0  0  0  0  0  0  0  0  0  0  0
  140.1365   81.2389  222.0014 H   0  0  0  0  0  0  0  0  0  0  0  0
  139.5752   80.7135  224.8625 H   0  0  0  0  0  0  0  0  0  0  0  0
  138.8679   81.9304  223.7464 H   0  0  0  0  0  0  0  0  0  0  0  0
  138.2482   80.2444  223.7464 H   0  0  0  0  0  0  0  0  0  0  0  0
  141.7848   78.3872  222.7420 H   0  0  0  0  0  0  0  0  0  0  0  0
  141.6640   75.3560  222.6730 H   0  0  0  0  0  0  0  0  0  0  0  0
  144.5357   75.7842  219.7999 H   0  0  0  0  0  0  0  0  0  0  0  0
  146.2351   74.0042  219.7045 H   0  0  0  0  0  0  0  0  0  0  0  0
  145.7073   71.6572  220.3267 H   0  0  0  0  0  0  0  0  0  0  0  0
  143.3568   71.1444  221.0689 H   0  0  0  0  0  0  0  0  0  0  0  0
  141.3490   70.9750  220.2490 H   0  0  0  0  0  0  0  0  0  0  0  0
  138.6879   71.5093  220.5066 H   0  0  0  0  0  0  0  0  0  0  0  0
  139.4097   69.9942  221.2034 H   0  0  0  0  0  0  0  0  0  0  0  0
  140.8178   72.7777  224.1361 H   0  0  0  0  0  0  0  0  0  0  0  0
  141.7539   71.9930  226.3006 H   0  0  0  0  0  0  0  0  0  0  0  0
  141.8532   70.2629  228.0421 H   0  0  0  0  0  0  0  0  0  0  0  0
  139.4133   66.7295  227.5387 H   0  0  0  0  0  0  0  0  0  0  0  0
  138.5187   67.5834  225.3756 H   0  0  0  0  0  0  0  0  0  0  0  0
  139.0101   75.7450  220.7732 H   0  0  0  0  0  0  0  0  0  0  0  0
  137.3423   77.5888  220.7145 H   0  0  0  0  0  0  0  0  0  0  0  0
  1  2  1  0
  2  3  1  0
  2  4  1  0
  4  5  2  0
  5  6  1  0
  6  7  1  0
  7  8  1  0
  8  9  2  0
  8 10  1  0
 10 11  2  0
 11 12  1  0
 12 13  2  0
 13 14  1  0
 14 15  2  0
 15 16  1  0
 16 17  2  0
 16 18  1  0
 18 19  1  0
 19 20  1  0
 20 21  2  0
 20 22  1  0
 22 23  2  0
 23 24  1  0
 24 25  2  0
 25 26  1  0
 26 27  2  0
 27 28  1  0
 27 29  1  0
 29 30  2  0
 30 31  1  0
 31 32  2  0
  6 33  2  0
 33 34  1  0
 34 35  2  0
 35  4  1  0
 15 10  1  0
 32 22  1  0
 31 25  1  0
  1 36  1  0
  1 37  1  0
  1 38  1  0
  2 39  1  0
  3 40  1  0
  3 41  1  0
  3 42  1  0
  5 43  1  0
  7 44  1  0
 11 45  1  0
 12 46  1  0
 13 47  1  0
 14 48  1  0
 18 49  1  0
 19 50  1  0
 19 51  1  0
 23 52  1  0
 24 53  1  0
 26 54  1  0
 29 55  1  0
 30 56  1  0
 33 57  1  0
 34 58  1  0
M  END
>  <smiles>  (49) 
CC(C)c1cc(NC(=O)c2ccccc2C(=O)NCC(=O)c2ccc3cc(F)ccc3n2)ccn1

>  <score_type>  (49) 
oracle

>  <origin>  (49) 
autodockgpu

>  <m_score__min__energy>  (49) 
-9.8000000000000007

>  <m_primary>  (49) 
energy

>  <rmsd>  (49) 
7.750335165055371

>  <m_score__min__rmsd>  (49) 
7.750335165055371

>  <meeko>  (49) 
{"free_energy": -9.4, "intermolecular_energy": -11.49, "internal_energy": -1.96, "cluster_size": 8, "cluster_id": 1, "rank_in_cluster": 2}

>  <energy>  (49) 
-6.81

>  <cluster_rmsd>  (49) 
0.0

>  <cluster>  (49) 
13

$$$$

     RDKit          3D

 58 61  0  0  0  0  0  0  0  0999 V2000
  143.4150   69.6470  219.3900 C   0  0  0  0  0  0  0  0  0  0  0  0
  144.5880   70.3910  218.7610 C   0  0  0  0  0  0  0  0  0  0  0  0
  145.8280   69.5640  218.9590 C   0  0  0  0  0  0  0  0  0  0  0  0
  144.7440   71.7340  219.3930 C   0  0  0  0  0  0  0  0  0  0  0  0
  143.6180   72.3570  219.8810 C   0  0  0  0  0  0  0  0  0  0  0  0
  143.7560   73.5830  220.4800 C   0  0  0  0  0  0  0  0  0  0  0  0
  142.6440   74.3030  221.0320 N   0  0  0  0  0  0  0  0  0  0  0  0
  142.4290   75.6000  220.4620 C   0  0  0  0  0  0  0  0  0  0  0  0
  143.1540   76.0720  219.5520 O   0  0  0  0  0  0  0  0  0  0  0  0
  141.3120   76.3820  220.9820 C   0  0  0  0  0  0  0  0  0  0  0  0
  141.5090   77.7440  221.0850 C   0  0  0  0  0  0  0  0  0  0  0  0
  140.4840   78.5270  221.5690 C   0  0  0  0  0  0  0  0  0  0  0  0
  139.2650   78.0130  221.9560 C   0  0  0  0  0  0  0  0  0  0  0  0
  139.1090   76.6230  221.8340 C   0  0  0  0  0  0  0  0  0  0  0  0
  140.1140   75.8130  221.3540 C   0  0  0  0  0  0  0  0  0  0  0  0
  139.8890   74.3470  221.2570 C   0  0  0  0  0  0  0  0  0  0  0  0
  140.3620   73.6560  220.3470 O   0  0  0  0  0  0  0  0  0  0  0  0
  139.0860   73.7040  222.2640 N   0  0  0  0  0  0  0  0  0  0  0  0
  138.8020   72.2940  222.2710 C   0  0  0  0  0  0  0  0  0  0  0  0
  139.9540   71.4950  222.7280 C   0  0  0  0  0  0  0  0  0  0  0  0
  140.8130   71.1800  221.8330 O   0  0  0  0  0  0  0  0  0  0  0  0
  140.2150   71.0340  224.0730 C   0  0  0  0  0  0  0  0  0  0  0  0
  140.7060   71.8980  225.0420 C   0  0  0  0  0  0  0  0  0  0  0  0
  140.9460   71.4780  226.3440 C   0  0  0  0  0  0  0  0  0  0  0  0
  140.6840   70.1570  226.6780 C   0  0  0  0  0  0  0  0  0  0  0  0
  140.9100   69.7020  227.9610 C   0  0  0  0  0  0  0  0  0  0  0  0
  140.6180   68.3570  228.2040 C   0  0  0  0  0  0  0  0  0  0  0  0
  140.8280   67.8640  229.4640 F   0  0  0  0  0  0  0  0  0  0  0  0
  140.1310   67.5240  227.2210 C   0  0  0  0  0  0  0  0  0  0  0  0
  139.9050   67.9760  225.9410 C   0  0  0  0  0  0  0  0  0  0  0  0
  140.1930   69.3110  225.6930 C   0  0  0  0  0  0  0  0  0  0  0  0
  139.9900   69.7770  224.4790 N   0  0  0  0  0  0  0  0  0  0  0  0
  145.0220   74.1550  220.5760 C   0  0  0  0  0  0  0  0  0  0  0  0
  146.1220   73.4730  220.0620 C   0  0  0  0  0  0  0  0  0  0  0  0
  145.9840   72.2590  219.4690 N   0  0  0  0  0  0  0  0  0  0  0  0
  143.4942   69.6972  220.4860 H   0  0  0  0  0  0  0  0  0  0  0  0
  142.4712   70.1120  219.0689 H   0  0  0  0  0  0  0  0  0  0  0  0
  143.4334   68.5951  219.0689 H   0  0  0  0  0  0  0  0  0  0  0  0
  144.4103   70.5443  217.6863 H   0  0  0  0  0  0  0  0  0  0  0  0
  146.0168   69.4381  220.0353 H   0  0  0  0  0  0  0  0  0  0  0  0
  145.6889   68.5772  218.4933 H   0  0  0  0  0  0  0  0  0  0  0  0
  146.6855   70.0717  218.4933 H   0  0  0  0  0  0  0  0  0  0  0  0
  142.6296   71.8823  219.7926 H   0  0  0  0  0  0  0  0  0  0  0  0
  142.0540   73.8990  221.7810 H   0  0  0  0  0  0  0  0  0  0  0  0
  142.4664   78.1959  220.7863 H   0  0  0  0  0  0  0  0  0  0  0  0
  140.6458   79.6120  221.6503 H   0  0  0  0  0  0  0  0  0  0  0  0
  138.4591   78.6562  222.3392 H   0  0  0  0  0  0  0  0  0  0  0  0
  138.1534   76.1664  222.1313 H   0  0  0  0  0  0  0  0  0  0  0  0
  138.7400   74.3350  223.0130 H   0  0  0  0  0  0  0  0  0  0  0  0
  137.9523   72.1073  222.9442 H   0  0  0  0  0  0  0  0  0  0  0  0
  138.5700   71.9916  221.2391 H   0  0  0  0  0  0  0  0  0  0  0  0
  140.9107   72.9443  224.7713 H   0  0  0  0  0  0  0  0  0  0  0  0
  141.3364   72.1794  227.0961 H   0  0  0  0  0  0  0  0  0  0  0  0
  141.2990   70.3624  228.7500 H   0  0  0  0  0  0  0  0  0  0  0  0
  139.9177   66.4728  227.4649 H   0  0  0  0  0  0  0  0  0  0  0  0
  139.5159   67.3130  225.1543 H   0  0  0  0  0  0  0  0  0  0  0  0
  145.1521   75.1372  221.0538 H   0  0  0  0  0  0  0  0  0  0  0  0
  147.1215   73.9261  220.1377 H   0  0  0  0  0  0  0  0  0  0  0  0
  1  2  1  0
  2  3  1  0
  2  4  1  0
  4  5  2  0
  5  6  1  0
  6  7  1  0
  7  8  1  0
  8  9  2  0
  8 10  1  0
 10 11  2  0
 11 12  1  0
 12 13  2  0
 13 14  1  0
 14 15  2  0
 15 16  1  0
 16 17  2  0
 16 18  1  0
 18 19  1  0
 19 20  1  0
 20 21  2  0
 20 22  1  0
 22 23  2  0
 23 24  1  0
 24 25  2  0
 25 26  1  0
 26 27  2  0
 27 28  1  0
 27 29  1  0
 29 30  2  0
 30 31  1  0
 31 32  2  0
  6 33  2  0
 33 34  1  0
 34 35  2  0
 35  4  1  0
 15 10  1  0
 32 22  1  0
 31 25  1  0
  1 36  1  0
  1 37  1  0
  1 38  1  0
  2 39  1  0
  3 40  1  0
  3 41  1  0
  3 42  1  0
  5 43  1  0
  7 44  1  0
 11 45  1  0
 12 46  1  0
 13 47  1  0
 14 48  1  0
 18 49  1  0
 19 50  1  0
 19 51  1  0
 23 52  1  0
 24 53  1  0
 26 54  1  0
 29 55  1  0
 30 56  1  0
 33 57  1  0
 34 58  1  0
M  END
>  <smiles>  (50) 
CC(C)c1cc(NC(=O)c2ccccc2C(=O)NCC(=O)c2ccc3cc(F)ccc3n2)ccn1

>  <score_type>  (50) 
oracle

>  <origin>  (50) 
autodockgpu

>  <m_score__min__energy>  (50) 
-9.8000000000000007

>  <m_primary>  (50) 
energy

>  <rmsd>  (50) 
5.47338791813308

>  <m_score__min__rmsd>  (50) 
5.47338791813308

>  <meeko>  (50) 
{"free_energy": -9.51, "intermolecular_energy": -11.6, "internal_energy": -2.04, "cluster_size": 11, "cluster_id": 2, "rank_in_cluster": 1}

>  <energy>  (50) 
-5.25

>  <cluster_rmsd>  (50) 
0.0

>  <cluster>  (50) 
14

$$$$
