@<TRIPOS>MOLECULE
*****
 69 75 0 0 0
SMALL
GASTEIGER

@<TRIPOS>ATOM
      1 O         141.5490   75.3770  220.0590 O.2     1  UNL1       -0.2680
      2 C         140.7860   75.5040  221.0680 C.2     1  UNL1        0.2672
      3 C         140.7210   76.8410  221.6340 C.ar    1  UNL1        0.1033
      4 C         139.7220   77.5490  222.2310 C.ar    1  UNL1       -0.0236
      5 C         140.2360   78.7950  222.5480 C.ar    1  UNL1        0.0081
      6 C         139.7040   79.9110  223.1440 C.ar    1  UNL1       -0.0087
      7 C         138.3590   80.0230  223.6680 C.ar    1  UNL1       -0.0173
      8 C         137.3080   79.3240  223.0880 C.ar    1  UNL1       -0.0540
      9 C         135.9970   79.4730  223.5400 C.ar    1  UNL1       -0.0612
     10 C         135.7540   80.3490  224.6050 C.ar    1  UNL1       -0.0617
     11 C         136.8190   81.0490  225.1870 C.ar    1  UNL1       -0.0612
     12 C         138.1170   80.8770  224.7080 C.ar    1  UNL1       -0.0540
     13 C         140.5210   81.0320  223.3080 C.ar    1  UNL1       -0.0533
     14 C         141.8170   81.0610  222.9040 C.ar    1  UNL1       -0.0592
     15 C         142.3590   79.9580  222.3080 C.ar    1  UNL1       -0.0377
     16 C         141.5580   78.8280  222.1360 C.ar    1  UNL1        0.0476
     17 N         141.8210   77.6470  221.5950 N.ar    1  UNL1       -0.3505
     18 N         140.0580   74.3760  221.5960 N.am    1  UNL1       -0.2651
     19 C         140.7730   73.1980  222.0630 C.3     1  UNL1        0.0310
     20 C         139.7100   72.2570  222.5320 C.3     1  UNL1        0.0275
     21 C         139.7610   70.9470  221.7800 C.3     1  UNL1       -0.0278
     22 C         139.2160   69.9640  222.7780 C.3     1  UNL1        0.0001
     23 N         139.3490   70.5250  224.0840 N.3     1  UNL1       -0.2985
     24 C         140.1870   69.6620  224.9510 C.3     1  UNL1        0.0104
     25 C         139.4920   68.3850  225.2870 C.3     1  UNL1       -0.0373
     26 C         139.7890   67.7740  226.5950 C.3     1  UNL1       -0.0516
     27 C         139.9800   68.7350  227.7260 C.3     1  UNL1       -0.0530
     28 C         141.0700   69.7050  227.2840 C.3     1  UNL1       -0.0516
     29 C         140.5050   70.5100  226.1520 C.3     1  UNL1       -0.0373
     30 C         139.9230   71.8220  223.9650 C.3     1  UNL1        0.0104
     31 C         138.4600   72.9900  222.3350 C.ar    1  UNL1       -0.0170
     32 C         137.1540   72.6150  222.6020 C.ar    1  UNL1       -0.0562
     33 C         136.0810   73.4460  222.3440 C.ar    1  UNL1       -0.0614
     34 C         136.3300   74.6870  221.8040 C.ar    1  UNL1       -0.0600
     35 C         137.6140   75.0960  221.5280 C.ar    1  UNL1       -0.0400
     36 C         138.6640   74.2420  221.7960 C.ar    1  UNL1        0.0404
     37 H         138.6982   77.1967  222.4250 H       1  UNL1        0.0646
     38 H         137.5143   78.6376  222.2536 H       1  UNL1        0.0624
     39 H         135.1731   78.9153  223.0708 H       1  UNL1        0.0618
     40 H         134.7304   80.4871  224.9834 H       1  UNL1        0.0618
     41 H         136.6304   81.7366  226.0247 H       1  UNL1        0.0618
     42 H         138.9490   81.4301  225.1682 H       1  UNL1        0.0624
     43 H         140.0969   81.9284  223.7841 H       1  UNL1        0.0624
     44 H         142.4252   81.9650  223.0554 H       1  UNL1        0.0618
     45 H         143.4059   79.9602  221.9703 H       1  UNL1        0.0638
     46 H         142.7600   77.3970  221.1960 H       1  UNL1        0.1660
     47 H         141.3527   72.7481  221.2435 H       1  UNL1        0.0478
     48 H         141.4897   73.4407  222.8614 H       1  UNL1        0.0478
     49 H         139.1328   70.9841  220.8778 H       1  UNL1        0.0287
     50 H         140.7696   70.6900  221.4241 H       1  UNL1        0.0287
     51 H         138.1549   69.7679  222.5645 H       1  UNL1        0.0427
     52 H         139.7712   69.0164  222.7161 H       1  UNL1        0.0427
     53 H         141.1127   69.3344  224.4552 H       1  UNL1        0.0462
     54 H         138.4099   68.5794  225.2519 H       1  UNL1        0.0280
     55 H         139.8633   67.6602  224.5476 H       1  UNL1        0.0280
     56 H         138.9542   67.1065  226.8547 H       1  UNL1        0.0266
     57 H         140.7510   67.2543  226.4743 H       1  UNL1        0.0266
     58 H         139.0448   69.2785  227.9261 H       1  UNL1        0.0265
     59 H         140.2617   68.2119  228.6518 H       1  UNL1        0.0265
     60 H         141.3475   70.3672  228.1173 H       1  UNL1        0.0266
     61 H         141.9742   69.1636  226.9688 H       1  UNL1        0.0266
     62 H         139.5814   71.0004  226.4932 H       1  UNL1        0.0280
     63 H         141.2642   71.2472  225.8517 H       1  UNL1        0.0280
     64 H         139.4256   72.5221  224.6524 H       1  UNL1        0.0436
     65 H         140.9926   71.8083  224.2214 H       1  UNL1        0.0436
     66 H         136.9645   71.6214  223.0343 H       1  UNL1        0.0621
     67 H         135.0527   73.1236  222.5648 H       1  UNL1        0.0618
     68 H         135.4889   75.3627  221.5897 H       1  UNL1        0.0618
     69 H         137.8013   76.0914  221.0990 H       1  UNL1        0.0636
@<TRIPOS>BOND
     1     1     2    2
     2     2     3    1
     3     3     4   ar
     4     4     5   ar
     5     5     6   ar
     6     6     7    1
     7     7     8   ar
     8     8     9   ar
     9     9    10   ar
    10    10    11   ar
    11    11    12   ar
    12     6    13   ar
    13    13    14   ar
    14    14    15   ar
    15    15    16   ar
    16    16    17   ar
    17     2    18   am
    18    18    19    1
    19    20    19    1
    20    20    21    1
    21    21    22    1
    22    22    23    1
    23    23    24    1
    24    24    25    1
    25    25    26    1
    26    26    27    1
    27    27    28    1
    28    28    29    1
    29    23    30    1
    30    20    31    1
    31    31    32   ar
    32    32    33   ar
    33    33    34   ar
    34    34    35   ar
    35    35    36   ar
    36    17     3   ar
    37    36    18    1
    38    16     5   ar
    39    30    20    1
    40    36    31   ar
    41    12     7   ar
    42    29    24    1
    43     4    37    1
    44     8    38    1
    45     9    39    1
    46    10    40    1
    47    11    41    1
    48    12    42    1
    49    13    43    1
    50    14    44    1
    51    15    45    1
    52    17    46    1
    53    19    47    1
    54    19    48    1
    55    21    49    1
    56    21    50    1
    57    22    51    1
    58    22    52    1
    59    24    53    1
    60    25    54    1
    61    25    55    1
    62    26    56    1
    63    26    57    1
    64    27    58    1
    65    27    59    1
    66    28    60    1
    67    28    61    1
    68    29    62    1
    69    29    63    1
    70    30    64    1
    71    30    65    1
    72    32    66    1
    73    33    67    1
    74    34    68    1
    75    35    69    1
