
     RDKit          3D

 66 71  0  0  0  0  0  0  0  0999 V2000
  140.7200   71.0400  228.0610 C   0  0  0  0  0  0  0  0  0  0  0  0
  140.0290   69.9330  227.6020 C   0  0  0  0  0  0  0  0  0  0  0  0
  139.7890   69.7740  226.2480 C   0  0  0  0  0  0  0  0  0  0  0  0
  140.2610   70.7490  225.3890 C   0  0  0  0  0  0  0  0  0  0  0  0
  140.0040   70.5760  223.9380 C   0  0  0  0  0  0  0  0  0  0  0  0
  139.2530   71.7110  223.4740 N   0  0  0  0  0  0  0  0  0  0  0  0
  139.8930   72.6190  222.5760 C   0  0  0  0  0  0  0  0  0  0  0  0
  140.7520   72.1670  221.6530 N   0  0  0  0  0  0  0  0  0  0  0  0
  141.3800   72.9800  220.7840 C   0  0  0  0  0  0  0  0  0  0  0  0
  142.2940   72.5060  219.8060 N   0  0  0  0  0  0  0  0  0  0  0  0
  143.7300   72.7080  219.8920 C   0  0  0  0  0  0  0  0  0  0  0  0
  144.3340   71.3450  220.1200 C   0  0  0  0  0  0  0  0  0  0  0  0
  143.7510   70.3480  219.2740 N   0  0  0  0  0  0  0  0  0  0  0  0
  144.3630   69.0420  219.2970 C   0  0  0  0  0  0  0  0  0  0  0  0
  143.6750   67.9060  218.9150 C   0  0  0  0  0  0  0  0  0  0  0  0
  144.2390   66.6450  218.9280 C   0  0  0  0  0  0  0  0  0  0  0  0
  145.5570   66.5350  219.3460 C   0  0  0  0  0  0  0  0  0  0  0  0
  146.2490   67.6760  219.7290 C   0  0  0  0  0  0  0  0  0  0  0  0
  145.6380   68.8620  219.6900 N   0  0  0  0  0  0  0  0  0  0  0  0
  142.6230   70.5180  218.4140 C   0  0  0  0  0  0  0  0  0  0  0  0
  141.8330   71.7670  218.6240 C   0  0  0  0  0  0  0  0  0  0  0  0
  141.1370   74.2960  220.8420 N   0  0  0  0  0  0  0  0  0  0  0  0
  140.2680   74.8000  221.7680 C   0  0  0  0  0  0  0  0  0  0  0  0
  140.0020   76.2110  221.8360 N   0  0  0  0  0  0  0  0  0  0  0  0
  138.6700   76.6730  221.5150 C   0  0  0  0  0  0  0  0  0  0  0  0
  138.1820   77.4840  222.7160 C   0  0  0  0  0  0  0  0  0  0  0  0
  139.1730   78.5610  222.9730 C   0  0  0  0  0  0  0  0  0  0  0  0
  138.7340   79.7860  223.4590 C   0  0  0  0  0  0  0  0  0  0  0  0
  139.6230   80.8280  223.7140 C   0  0  0  0  0  0  0  0  0  0  0  0
  140.9680   80.6110  223.4710 C   0  0  0  0  0  0  0  0  0  0  0  0
  141.3710   79.3880  222.9910 C   0  0  0  0  0  0  0  0  0  0  0  0
  140.4940   78.3450  222.7340 C   0  0  0  0  0  0  0  0  0  0  0  0
  141.0830   77.0900  222.2200 C   0  0  0  0  0  0  0  0  0  0  0  0
  139.6660   73.9380  222.6160 N   0  0  0  0  0  0  0  0  0  0  0  0
  140.9470   71.8500  225.8400 C   0  0  0  0  0  0  0  0  0  0  0  0
  141.1910   72.0140  227.2000 C   0  0  0  0  0  0  0  0  0  0  0  0
  140.8997   71.1484  229.1408 H   0  0  0  0  0  0  0  0  0  0  0  0
  139.6692   69.1767  228.3152 H   0  0  0  0  0  0  0  0  0  0  0  0
  139.2403   68.8998  225.8677 H   0  0  0  0  0  0  0  0  0  0  0  0
  140.9591   70.5151  223.3958 H   0  0  0  0  0  0  0  0  0  0  0  0
  139.4383   69.6493  223.7612 H   0  0  0  0  0  0  0  0  0  0  0  0
  138.2800   71.8870  223.7660 H   0  0  0  0  0  0  0  0  0  0  0  0
  144.1107   73.1420  218.9557 H   0  0  0  0  0  0  0  0  0  0  0  0
  143.9890   73.4022  220.7050 H   0  0  0  0  0  0  0  0  0  0  0  0
  145.4135   71.3968  219.9149 H   0  0  0  0  0  0  0  0  0  0  0  0
  144.1388   71.0589  221.1640 H   0  0  0  0  0  0  0  0  0  0  0  0
  142.6307   68.0106  218.5856 H   0  0  0  0  0  0  0  0  0  0  0  0
  143.6637   65.7601  218.6181 H   0  0  0  0  0  0  0  0  0  0  0  0
  146.0498   65.5520  219.3738 H   0  0  0  0  0  0  0  0  0  0  0  0
  147.2946   67.6030  220.0626 H   0  0  0  0  0  0  0  0  0  0  0  0
  142.9863   70.5181  217.3757 H   0  0  0  0  0  0  0  0  0  0  0  0
  141.9399   69.6878  218.6467 H   0  0  0  0  0  0  0  0  0  0  0  0
  141.9389   72.4096  217.7375 H   0  0  0  0  0  0  0  0  0  0  0  0
  140.7813   71.4863  218.7824 H   0  0  0  0  0  0  0  0  0  0  0  0
  138.6952   77.3060  220.6157 H   0  0  0  0  0  0  0  0  0  0  0  0
  137.9974   75.8269  221.3107 H   0  0  0  0  0  0  0  0  0  0  0  0
  137.1992   77.9256  222.4943 H   0  0  0  0  0  0  0  0  0  0  0  0
  138.0815   76.8370  223.5999 H   0  0  0  0  0  0  0  0  0  0  0  0
  137.6607   79.9367  223.6467 H   0  0  0  0  0  0  0  0  0  0  0  0
  139.2661   81.7953  224.0974 H   0  0  0  0  0  0  0  0  0  0  0  0
  141.7042   81.4063  223.6594 H   0  0  0  0  0  0  0  0  0  0  0  0
  142.4427   79.2284  222.8012 H   0  0  0  0  0  0  0  0  0  0  0  0
  141.7163   77.3056  221.3469 H   0  0  0  0  0  0  0  0  0  0  0  0
  141.7036   76.6152  222.9942 H   0  0  0  0  0  0  0  0  0  0  0  0
  141.3047   72.6045  225.1239 H   0  0  0  0  0  0  0  0  0  0  0  0
  141.7402   72.8892  227.5775 H   0  0  0  0  0  0  0  0  0  0  0  0
  1  2  2  0
  2  3  1  0
  3  4  2  0
  4  5  1  0
  5  6  1  0
  6  7  1  0
  7  8  2  0
  8  9  1  0
  9 10  1  0
 10 11  1  0
 11 12  1  0
 12 13  1  0
 13 14  1  0
 14 15  2  0
 15 16  1  0
 16 17  2  0
 17 18  1  0
 18 19  2  0
 13 20  1  0
 20 21  1  0
  9 22  2  0
 22 23  1  0
 23 24  1  0
 24 25  1  0
 25 26  1  0
 26 27  1  0
 27 28  2  0
 28 29  1  0
 29 30  2  0
 30 31  1  0
 31 32  2  0
 32 33  1  0
 23 34  2  0
  4 35  1  0
 35 36  2  0
 36  1  1  0
 34  7  1  0
 21 10  1  0
 33 24  1  0
 19 14  1  0
 32 27  1  0
  1 37  1  0
  2 38  1  0
  3 39  1  0
  5 40  1  0
  5 41  1  0
  6 42  1  0
 11 43  1  0
 11 44  1  0
 12 45  1  0
 12 46  1  0
 15 47  1  0
 16 48  1  0
 17 49  1  0
 18 50  1  0
 20 51  1  0
 20 52  1  0
 21 53  1  0
 21 54  1  0
 25 55  1  0
 25 56  1  0
 26 57  1  0
 26 58  1  0
 28 59  1  0
 29 60  1  0
 30 61  1  0
 31 62  1  0
 33 63  1  0
 33 64  1  0
 35 65  1  0
 36 66  1  0
M  END
