@<TRIPOS>MOLECULE
*****
 67 71 0 0 0
SMALL
GASTEIGER

@<TRIPOS>ATOM
      1 O         139.2860   77.2970  222.7060 O.2     1  UNL1       -0.2699
      2 C         140.2180   76.6960  222.1130 C.2     1  UNL1        0.2483
      3 N         141.4370   77.3640  221.8360 N.am    1  UNL1       -0.2815
      4 C         141.6290   78.7370  222.2290 C.ar    1  UNL1        0.0337
      5 C         141.3980   79.7770  221.3330 C.ar    1  UNL1       -0.0405
      6 C         141.6080   81.0670  221.7960 C.ar    1  UNL1       -0.0600
      7 C         142.0260   81.3260  223.0840 C.ar    1  UNL1       -0.0616
      8 C         142.2560   80.2980  223.9760 C.ar    1  UNL1       -0.0600
      9 C         142.0470   78.9930  223.5200 C.ar    1  UNL1       -0.0405
     10 C         139.9770   75.3050  221.7350 C.ar    1  UNL1        0.0371
     11 C         141.0660   74.4750  221.5810 C.ar    1  UNL1       -0.0479
     12 C         140.8820   73.1430  221.2220 C.ar    1  UNL1       -0.0401
     13 C         139.6290   72.6020  221.0080 C.ar    1  UNL1        0.0272
     14 N         139.4440   71.2340  220.6390 N.pl3   1  UNL1       -0.3421
     15 C         140.6190   70.4090  220.4240 C.3     1  UNL1        0.0277
     16 C         140.1160   68.9910  220.3000 C.3     1  UNL1        0.0415
     17 C         141.0980   68.1020  219.6080 C.3     1  UNL1       -0.0314
     18 C         140.4080   67.6970  218.3160 C.3     1  UNL1       -0.0354
     19 C         139.4440   68.8560  218.1390 C.3     1  UNL1        0.0151
     20 N         138.8780   68.9720  219.4450 N.am    1  UNL1       -0.2957
     21 C         137.6160   69.0300  220.0270 C.2     1  UNL1        0.2330
     22 O         136.7970   69.8970  219.4810 O.2     1  UNL1       -0.2739
     23 C         137.0060   68.3070  221.1380 C.3     1  UNL1        0.0887
     24 N         137.8110   68.3040  222.3200 N.am    1  UNL1       -0.3015
     25 C         137.9890   69.5990  222.9590 C.2     1  UNL1        0.2628
     26 O         137.4220   70.5510  222.4080 O.2     1  UNL1       -0.2685
     27 C         138.7960   69.6880  224.1690 C.ar    1  UNL1        0.1260
     28 C         139.2510   70.9350  224.5400 C.ar    1  UNL1       -0.0306
     29 C         140.0230   71.1610  225.6590 C.ar    1  UNL1       -0.0503
     30 C         140.3330   70.0360  226.4240 C.ar    1  UNL1        0.0031
     31 C         141.1090   70.2250  227.5590 C.ar    1  UNL1       -0.0173
     32 C         141.4340   69.1400  228.3370 C.ar    1  UNL1        0.1241
     33 F         142.1960   69.2550  229.4710 F       1  UNL1       -0.2055
     34 C         140.9710   67.8790  227.9590 C.ar    1  UNL1       -0.0244
     35 C         140.1970   67.7020  226.8210 C.ar    1  UNL1       -0.0330
     36 C         139.8690   68.8020  226.0360 C.ar    1  UNL1        0.0720
     37 N         139.1140   68.6320  224.9270 N.ar    1  UNL1       -0.2421
     38 C         138.5480   73.4520  221.1660 C.ar    1  UNL1       -0.0401
     39 C         138.7150   74.7890  221.5260 C.ar    1  UNL1       -0.0479
     40 H         142.2150   76.8720  221.3440 H       1  UNL1        0.1551
     41 H         141.0636   79.5839  220.3030 H       1  UNL1        0.0636
     42 H         141.4354   81.9118  221.1130 H       1  UNL1        0.0618
     43 H         142.1784   82.3669  223.4055 H       1  UNL1        0.0618
     44 H         142.5904   80.4976  225.0047 H       1  UNL1        0.0618
     45 H         142.2196   78.1504  224.2057 H       1  UNL1        0.0636
     46 H         142.0817   74.8655  221.7419 H       1  UNL1        0.0626
     47 H         141.7655   72.4982  221.1045 H       1  UNL1        0.0636
     48 H         138.4640   70.8920  220.5400 H       1  UNL1        0.1461
     49 H         141.1358   70.7131  219.5018 H       1  UNL1        0.0479
     50 H         141.3384   70.5101  221.2499 H       1  UNL1        0.0479
     51 H         139.9352   68.6329  221.3243 H       1  UNL1        0.0516
     52 H         142.0307   68.6452  219.3959 H       1  UNL1        0.0284
     53 H         141.3764   67.2324  220.2214 H       1  UNL1        0.0284
     54 H         141.1196   67.6299  217.4799 H       1  UNL1        0.0281
     55 H         139.9316   66.7059  218.3431 H       1  UNL1        0.0281
     56 H         139.9733   69.7758  217.8495 H       1  UNL1        0.0465
     57 H         138.6995   68.6970  217.3450 H       1  UNL1        0.0465
     58 H         136.0408   68.7790  221.3739 H       1  UNL1        0.0558
     59 H         136.8885   67.2603  220.8207 H       1  UNL1        0.0558
     60 H         138.2600   67.4510  222.7310 H       1  UNL1        0.1496
     61 H         138.9837   71.7957  223.9093 H       1  UNL1        0.0641
     62 H         140.3735   72.1672  225.9325 H       1  UNL1        0.0625
     63 H         141.4596   71.2311  227.8325 H       1  UNL1        0.0653
     64 H         141.2254   67.0055  228.5772 H       1  UNL1        0.0647
     65 H         139.8451   66.6980  226.5416 H       1  UNL1        0.0640
     66 H         137.5319   73.0633  221.0036 H       1  UNL1        0.0636
     67 H         137.8338   75.4368  221.6441 H       1  UNL1        0.0626
@<TRIPOS>BOND
     1     1     2    2
     2     2     3   am
     3     3     4    1
     4     4     5   ar
     5     5     6   ar
     6     6     7   ar
     7     7     8   ar
     8     8     9   ar
     9     2    10    1
    10    10    11   ar
    11    11    12   ar
    12    12    13   ar
    13    13    14    1
    14    14    15    1
    15    15    16    1
    16    16    17    1
    17    17    18    1
    18    18    19    1
    19    19    20    1
    20    20    21   am
    21    21    22    2
    22    21    23    1
    23    23    24    1
    24    24    25   am
    25    25    26    2
    26    25    27    1
    27    27    28   ar
    28    28    29   ar
    29    29    30   ar
    30    30    31   ar
    31    31    32   ar
    32    32    33    1
    33    32    34   ar
    34    34    35   ar
    35    35    36   ar
    36    36    37   ar
    37    13    38   ar
    38    38    39   ar
    39     9     4   ar
    40    39    10   ar
    41    20    16    1
    42    37    27   ar
    43    36    30   ar
    44     3    40    1
    45     5    41    1
    46     6    42    1
    47     7    43    1
    48     8    44    1
    49     9    45    1
    50    11    46    1
    51    12    47    1
    52    14    48    1
    53    15    49    1
    54    15    50    1
    55    16    51    1
    56    17    52    1
    57    17    53    1
    58    18    54    1
    59    18    55    1
    60    19    56    1
    61    19    57    1
    62    23    58    1
    63    23    59    1
    64    24    60    1
    65    28    61    1
    66    29    62    1
    67    31    63    1
    68    34    64    1
    69    35    65    1
    70    38    66    1
    71    39    67    1
