
     RDKit          3D

 76 82  0  0  0  0  0  0  0  0999 V2000
  138.2690   70.0970  224.7880 O   0  0  0  0  0  0  0  0  0  0  0  0
  139.3130   70.6910  224.3620 C   0  0  0  0  0  0  0  0  0  0  0  0
  140.4790   70.5220  225.1630 N   0  0  0  0  0  0  0  0  0  0  0  0
  140.4950   69.7480  226.3560 C   0  0  0  0  0  0  0  0  0  0  0  0
  141.0720   68.4950  226.3810 C   0  0  0  0  0  0  0  0  0  0  0  0
  141.0580   67.7930  227.5660 C   0  0  0  0  0  0  0  0  0  0  0  0
  140.4890   68.2990  228.7230 C   0  0  0  0  0  0  0  0  0  0  0  0
  139.9260   69.5450  228.6660 C   0  0  0  0  0  0  0  0  0  0  0  0
  139.9320   70.2520  227.5030 C   0  0  0  0  0  0  0  0  0  0  0  0
  139.3080   71.5000  223.1190 C   0  0  2  0  0  0  0  0  0  0  0  0
  138.6490   70.7370  222.0000 C   0  0  0  0  0  0  0  0  0  0  0  0
  139.5990   70.2740  220.9440 C   0  0  0  0  0  0  0  0  0  0  0  0
  140.3910   71.4150  220.3870 C   0  0  0  0  0  0  0  0  0  0  0  0
  140.7770   72.3830  221.3700 N   0  0  0  0  0  0  0  0  0  0  0  0
  141.2250   73.6670  220.9520 C   0  0  0  0  0  0  0  0  0  0  0  0
  142.0310   73.7450  219.8800 N   0  0  0  0  0  0  0  0  0  0  0  0
  142.5020   74.9170  219.4130 C   0  0  0  0  0  0  0  0  0  0  0  0
  143.3640   74.9900  218.2660 N   0  0  0  0  0  0  0  0  0  0  0  0
  143.4080   76.2630  217.5710 C   0  0  0  0  0  0  0  0  0  0  0  0
  143.4750   75.9160  216.0850 C   0  0  0  0  0  0  0  0  0  0  0  0
  144.7850   75.2090  215.8970 C   0  0  0  0  0  0  0  0  0  0  0  0
  145.6620   75.5480  214.8880 C   0  0  0  0  0  0  0  0  0  0  0  0
  146.8560   74.8780  214.7450 C   0  0  0  0  0  0  0  0  0  0  0  0
  147.1420   73.8650  215.6380 C   0  0  0  0  0  0  0  0  0  0  0  0
  146.2620   73.5310  216.6440 C   0  0  0  0  0  0  0  0  0  0  0  0
  145.0540   74.1950  216.8030 C   0  0  0  0  0  0  0  0  0  0  0  0
  144.1070   73.8320  217.8890 C   0  0  0  0  0  0  0  0  0  0  0  0
  142.1260   76.0430  220.0750 N   0  0  0  0  0  0  0  0  0  0  0  0
  141.3220   76.0150  221.1520 C   0  0  0  0  0  0  0  0  0  0  0  0
  140.9740   77.2360  221.7890 N   0  0  0  0  0  0  0  0  0  0  0  0
  140.1030   78.1360  221.0560 C   0  0  0  0  0  0  0  0  0  0  0  0
  139.3830   79.0740  222.0330 C   0  0  0  0  0  0  0  0  0  0  0  0
  140.4910   79.8440  222.6910 C   0  0  0  0  0  0  0  0  0  0  0  0
  140.4720   81.2230  222.7560 C   0  0  0  0  0  0  0  0  0  0  0  0
  141.5350   81.8610  223.3820 C   0  0  0  0  0  0  0  0  0  0  0  0
  142.5840   81.1110  223.9250 C   0  0  0  0  0  0  0  0  0  0  0  0
  142.5750   79.7200  223.8450 C   0  0  0  0  0  0  0  0  0  0  0  0
  141.5170   79.0850  223.2220 C   0  0  0  0  0  0  0  0  0  0  0  0
  141.4540   77.5860  223.1050 C   0  0  0  0  0  0  0  0  0  0  0  0
  140.8810   74.8100  221.5750 N   0  0  0  0  0  0  0  0  0  0  0  0
  140.6920   72.0010  222.7680 C   0  0  0  0  0  0  0  0  0  0  0  0
  141.3790   70.9720  224.8910 H   0  0  0  0  0  0  0  0  0  0  0  0
  141.5315   68.0675  225.4776 H   0  0  0  0  0  0  0  0  0  0  0  0
  141.5158   66.7932  227.5945 H   0  0  0  0  0  0  0  0  0  0  0  0
  140.4896   67.7183  229.6572 H   0  0  0  0  0  0  0  0  0  0  0  0
  139.4655   69.9781  229.5662 H   0  0  0  0  0  0  0  0  0  0  0  0
  139.4745   71.2521  227.4811 H   0  0  0  0  0  0  0  0  0  0  0  0
  138.7054   72.4041  223.2905 H   0  0  0  0  0  0  0  0  0  0  0  0
  138.1502   69.8552  222.4284 H   0  0  0  0  0  0  0  0  0  0  0  0
  137.9424   71.4266  221.5150 H   0  0  0  0  0  0  0  0  0  0  0  0
  140.2898   69.5380  221.3812 H   0  0  0  0  0  0  0  0  0  0  0  0
  139.0168   69.8237  220.1265 H   0  0  0  0  0  0  0  0  0  0  0  0
  141.3020   71.0107  219.9215 H   0  0  0  0  0  0  0  0  0  0  0  0
  139.7437   71.9324  219.6636 H   0  0  0  0  0  0  0  0  0  0  0  0
  142.5038   76.8506  217.7879 H   0  0  0  0  0  0  0  0  0  0  0  0
  144.2690   76.8703  217.8870 H   0  0  0  0  0  0  0  0  0  0  0  0
  142.6393   75.2575  215.8060 H   0  0  0  0  0  0  0  0  0  0  0  0
  143.4011   76.8131  215.4528 H   0  0  0  0  0  0  0  0  0  0  0  0
  145.4053   76.3602  214.1920 H   0  0  0  0  0  0  0  0  0  0  0  0
  147.5611   75.1420  213.9431 H   0  0  0  0  0  0  0  0  0  0  0  0
  148.0897   73.3144  215.5447 H   0  0  0  0  0  0  0  0  0  0  0  0
  146.5233   72.7184  217.3379 H   0  0  0  0  0  0  0  0  0  0  0  0
  143.4181   73.0523  217.5318 H   0  0  0  0  0  0  0  0  0  0  0  0
  144.6659   73.4513  218.7566 H   0  0  0  0  0  0  0  0  0  0  0  0
  140.7028   78.7322  220.3526 H   0  0  0  0  0  0  0  0  0  0  0  0
  139.3571   77.5476  220.5015 H   0  0  0  0  0  0  0  0  0  0  0  0
  138.7040   79.7513  221.4944 H   0  0  0  0  0  0  0  0  0  0  0  0
  138.7610   78.5290  222.7584 H   0  0  0  0  0  0  0  0  0  0  0  0
  139.6399   81.7991  222.3249 H   0  0  0  0  0  0  0  0  0  0  0  0
  141.5523   82.9587  223.4511 H   0  0  0  0  0  0  0  0  0  0  0  0
  143.4225   81.6237  224.4190 H   0  0  0  0  0  0  0  0  0  0  0  0
  143.4011   79.1333  224.2731 H   0  0  0  0  0  0  0  0  0  0  0  0
  142.4577   77.1620  223.2561 H   0  0  0  0  0  0  0  0  0  0  0  0
  140.7724   77.1824  223.8682 H   0  0  0  0  0  0  0  0  0  0  0  0
  141.4227   71.2030  222.9663 H   0  0  0  0  0  0  0  0  0  0  0  0
  140.9063   72.8873  223.3833 H   0  0  0  0  0  0  0  0  0  0  0  0
  1  2  2  0
  2  3  1  0
  3  4  1  0
  4  5  2  0
  5  6  1  0
  6  7  2  0
  7  8  1  0
  8  9  2  0
  2 10  1  0
 10 11  1  0
 11 12  1  0
 12 13  1  0
 13 14  1  0
 14 15  1  0
 15 16  2  0
 16 17  1  0
 17 18  1  0
 18 19  1  0
 19 20  1  0
 20 21  1  0
 21 22  2  0
 22 23  1  0
 23 24  2  0
 24 25  1  0
 25 26  2  0
 26 27  1  0
 17 28  2  0
 28 29  1  0
 29 30  1  0
 30 31  1  0
 31 32  1  0
 32 33  1  0
 33 34  2  0
 34 35  1  0
 35 36  2  0
 36 37  1  0
 37 38  2  0
 38 39  1  0
 29 40  2  0
 14 41  1  0
  9  4  1  0
 41 10  1  0
 40 15  1  0
 27 18  1  0
 39 30  1  0
 26 21  1  0
 38 33  1  0
  3 42  1  0
  5 43  1  0
  6 44  1  0
  7 45  1  0
  8 46  1  0
  9 47  1  0
 10 48  1  1
 11 49  1  0
 11 50  1  0
 12 51  1  0
 12 52  1  0
 13 53  1  0
 13 54  1  0
 19 55  1  0
 19 56  1  0
 20 57  1  0
 20 58  1  0
 22 59  1  0
 23 60  1  0
 24 61  1  0
 25 62  1  0
 27 63  1  0
 27 64  1  0
 31 65  1  0
 31 66  1  0
 32 67  1  0
 32 68  1  0
 34 69  1  0
 35 70  1  0
 36 71  1  0
 37 72  1  0
 39 73  1  0
 39 74  1  0
 41 75  1  0
 41 76  1  0
M  END
>  <smiles>  (1) 
O=C(Nc1ccccc1)[C@@H]1CCCN(c2nc(N3CCc4ccccc4C3)nc(N3CCc4ccccc4C3)n2)C1

>  <score_type>  (1) 
oracle

>  <origin>  (1) 
autodockgpu

>  <m_score__min__energy>  (1) 
-9.7799999999999994

>  <m_primary>  (1) 
energy

>  <rmsd>  (1) 
10.464164346289424

>  <m_score__min__rmsd>  (1) 
10.464164346289424

>  <meeko>  (1) 
{"free_energy": -9.75, "intermolecular_energy": -11.24, "internal_energy": -1.29, "cluster_size": 15, "cluster_id": 1, "rank_in_cluster": 2}

>  <energy>  (1) 
-9.78

>  <cluster_rmsd>  (1) 
0.0

>  <cluster>  (1) 
1

$$$$

     RDKit          3D

 76 82  0  0  0  0  0  0  0  0999 V2000
  140.8490   79.7490  222.8140 O   0  0  0  0  0  0  0  0  0  0  0  0
  140.1280   78.7890  222.3880 C   0  0  0  0  0  0  0  0  0  0  0  0
  138.7240   78.9540  222.5700 N   0  0  0  0  0  0  0  0  0  0  0  0
  138.1520   80.1040  223.1820 C   0  0  0  0  0  0  0  0  0  0  0  0
  137.5200   81.0690  222.4260 C   0  0  0  0  0  0  0  0  0  0  0  0
  136.9840   82.1590  223.0750 C   0  0  0  0  0  0  0  0  0  0  0  0
  137.0580   82.3170  224.4490 C   0  0  0  0  0  0  0  0  0  0  0  0
  137.6900   81.3410  225.1710 C   0  0  0  0  0  0  0  0  0  0  0  0
  138.2250   80.2570  224.5460 C   0  0  0  0  0  0  0  0  0  0  0  0
  140.7140   77.5870  221.7470 C   0  0  2  0  0  0  0  0  0  0  0  0
  140.8330   77.7910  220.2600 C   0  0  0  0  0  0  0  0  0  0  0  0
  139.8730   76.9720  219.4600 C   0  0  0  0  0  0  0  0  0  0  0  0
  139.9940   75.5170  219.7880 C   0  0  0  0  0  0  0  0  0  0  0  0
  140.2250   75.2560  221.1770 N   0  0  0  0  0  0  0  0  0  0  0  0
  140.6970   73.9760  221.5820 C   0  0  0  0  0  0  0  0  0  0  0  0
  141.5860   73.3440  220.7960 N   0  0  0  0  0  0  0  0  0  0  0  0
  142.0860   72.1320  221.1000 C   0  0  0  0  0  0  0  0  0  0  0  0
  143.0360   71.4640  220.2530 N   0  0  0  0  0  0  0  0  0  0  0  0
  144.2520   72.1940  219.9450 C   0  0  0  0  0  0  0  0  0  0  0  0
  144.5570   71.8820  218.4820 C   0  0  0  0  0  0  0  0  0  0  0  0
  144.8430   70.4090  218.4360 C   0  0  0  0  0  0  0  0  0  0  0  0
  145.9490   69.8980  217.7920 C   0  0  0  0  0  0  0  0  0  0  0  0
  146.1820   68.5410  217.7710 C   0  0  0  0  0  0  0  0  0  0  0  0
  145.2770   67.7190  218.4110 C   0  0  0  0  0  0  0  0  0  0  0  0
  144.1730   68.2350  219.0530 C   0  0  0  0  0  0  0  0  0  0  0  0
  143.9230   69.6010  219.0850 C   0  0  0  0  0  0  0  0  0  0  0  0
  142.7320   70.1540  219.7780 C   0  0  0  0  0  0  0  0  0  0  0  0
  141.6550   71.5560  222.2520 N   0  0  0  0  0  0  0  0  0  0  0  0
  140.7680   72.1480  223.0710 C   0  0  0  0  0  0  0  0  0  0  0  0
  140.3660   71.4810  224.2580 N   0  0  0  0  0  0  0  0  0  0  0  0
  141.0980   71.7980  225.4710 C   0  0  0  0  0  0  0  0  0  0  0  0
  140.2350   71.4770  226.6980 C   0  0  0  0  0  0  0  0  0  0  0  0
  139.9970   69.9980  226.6060 C   0  0  0  0  0  0  0  0  0  0  0  0
  140.2420   69.1600  227.6770 C   0  0  0  0  0  0  0  0  0  0  0  0
  139.9960   67.8030  227.5110 C   0  0  0  0  0  0  0  0  0  0  0  0
  139.5140   67.3200  226.2900 C   0  0  0  0  0  0  0  0  0  0  0  0
  139.2770   68.1900  225.2290 C   0  0  0  0  0  0  0  0  0  0  0  0
  139.5210   69.5410  225.3920 C   0  0  0  0  0  0  0  0  0  0  0  0
  139.2830   70.5260  224.2810 C   0  0  0  0  0  0  0  0  0  0  0  0
  140.2990   73.3640  222.7130 N   0  0  0  0  0  0  0  0  0  0  0  0
  139.9630   76.3270  222.1210 C   0  0  0  0  0  0  0  0  0  0  0  0
  138.0580   78.2190  222.2530 H   0  0  0  0  0  0  0  0  0  0  0  0
  137.4460   80.9706  221.3329 H   0  0  0  0  0  0  0  0  0  0  0  0
  136.4780   82.9333  222.4797 H   0  0  0  0  0  0  0  0  0  0  0  0
  136.6231   83.1980  224.9437 H   0  0  0  0  0  0  0  0  0  0  0  0
  137.7660   81.4335  226.2645 H   0  0  0  0  0  0  0  0  0  0  0  0
  138.7279   79.4848  225.1467 H   0  0  0  0  0  0  0  0  0  0  0  0
  141.7337   77.4443  222.1340 H   0  0  0  0  0  0  0  0  0  0  0  0
  140.6499   78.8531  220.0399 H   0  0  0  0  0  0  0  0  0  0  0  0
  141.8450   77.4697  219.9726 H   0  0  0  0  0  0  0  0  0  0  0  0
  138.8480   77.3048  219.6803 H   0  0  0  0  0  0  0  0  0  0  0  0
  140.1058   77.1078  218.3935 H   0  0  0  0  0  0  0  0  0  0  0  0
  139.0610   75.0156  219.4912 H   0  0  0  0  0  0  0  0  0  0  0  0
  140.8686   75.1362  219.2402 H   0  0  0  0  0  0  0  0  0  0  0  0
  144.0971   73.2742  220.0833 H   0  0  0  0  0  0  0  0  0  0  0  0
  145.0814   71.9015  220.6057 H   0  0  0  0  0  0  0  0  0  0  0  0
  143.6912   72.1253  217.8487 H   0  0  0  0  0  0  0  0  0  0  0  0
  145.4051   72.4738  218.1073 H   0  0  0  0  0  0  0  0  0  0  0  0
  146.6516   70.5798  217.2905 H   0  0  0  0  0  0  0  0  0  0  0  0
  147.0626   68.1249  217.2597 H   0  0  0  0  0  0  0  0  0  0  0  0
  145.4403   66.6312  218.4084 H   0  0  0  0  0  0  0  0  0  0  0  0
  143.4727   67.5491  219.5522 H   0  0  0  0  0  0  0  0  0  0  0  0
  141.8869   70.2036  219.0756 H   0  0  0  0  0  0  0  0  0  0  0  0
  142.4612   69.5060  220.6246 H   0  0  0  0  0  0  0  0  0  0  0  0
  142.0208   71.2005  225.5072 H   0  0  0  0  0  0  0  0  0  0  0  0
  141.3493   72.8689  225.4740 H   0  0  0  0  0  0  0  0  0  0  0  0
  140.7683   71.7290  227.6265 H   0  0  0  0  0  0  0  0  0  0  0  0
  139.2984   72.0535  226.7160 H   0  0  0  0  0  0  0  0  0  0  0  0
  140.6201   69.5552  228.6314 H   0  0  0  0  0  0  0  0  0  0  0  0
  140.1807   67.1064  228.3420 H   0  0  0  0  0  0  0  0  0  0  0  0
  139.3206   66.2441  226.1670 H   0  0  0  0  0  0  0  0  0  0  0  0
  138.8991   67.8059  224.2700 H   0  0  0  0  0  0  0  0  0  0  0  0
  139.2404   69.9937  223.3193 H   0  0  0  0  0  0  0  0  0  0  0  0
  138.3299   71.0495  224.4469 H   0  0  0  0  0  0  0  0  0  0  0  0
  138.8842   76.5419  222.1285 H   0  0  0  0  0  0  0  0  0  0  0  0
  140.3027   76.0032  223.1159 H   0  0  0  0  0  0  0  0  0  0  0  0
  1  2  2  0
  2  3  1  0
  3  4  1  0
  4  5  2  0
  5  6  1  0
  6  7  2  0
  7  8  1  0
  8  9  2  0
  2 10  1  0
 10 11  1  0
 11 12  1  0
 12 13  1  0
 13 14  1  0
 14 15  1  0
 15 16  2  0
 16 17  1  0
 17 18  1  0
 18 19  1  0
 19 20  1  0
 20 21  1  0
 21 22  2  0
 22 23  1  0
 23 24  2  0
 24 25  1  0
 25 26  2  0
 26 27  1  0
 17 28  2  0
 28 29  1  0
 29 30  1  0
 30 31  1  0
 31 32  1  0
 32 33  1  0
 33 34  2  0
 34 35  1  0
 35 36  2  0
 36 37  1  0
 37 38  2  0
 38 39  1  0
 29 40  2  0
 14 41  1  0
  9  4  1  0
 41 10  1  0
 40 15  1  0
 27 18  1  0
 39 30  1  0
 26 21  1  0
 38 33  1  0
  3 42  1  0
  5 43  1  0
  6 44  1  0
  7 45  1  0
  8 46  1  0
  9 47  1  0
 10 48  1  1
 11 49  1  0
 11 50  1  0
 12 51  1  0
 12 52  1  0
 13 53  1  0
 13 54  1  0
 19 55  1  0
 19 56  1  0
 20 57  1  0
 20 58  1  0
 22 59  1  0
 23 60  1  0
 24 61  1  0
 25 62  1  0
 27 63  1  0
 27 64  1  0
 31 65  1  0
 31 66  1  0
 32 67  1  0
 32 68  1  0
 34 69  1  0
 35 70  1  0
 36 71  1  0
 37 72  1  0
 39 73  1  0
 39 74  1  0
 41 75  1  0
 41 76  1  0
M  END
>  <smiles>  (2) 
O=C(Nc1ccccc1)[C@@H]1CCCN(c2nc(N3CCc4ccccc4C3)nc(N3CCc4ccccc4C3)n2)C1

>  <score_type>  (2) 
oracle

>  <origin>  (2) 
autodockgpu

>  <m_score__min__energy>  (2) 
-9.7799999999999994

>  <m_primary>  (2) 
energy

>  <rmsd>  (2) 
3.467656026536545

>  <m_score__min__rmsd>  (2) 
3.467656026536545

>  <meeko>  (2) 
{"free_energy": -9.38, "intermolecular_energy": -10.87, "internal_energy": -1.34, "cluster_size": 13, "cluster_id": 3, "rank_in_cluster": 7}

>  <energy>  (2) 
-9.75

>  <cluster_rmsd>  (2) 
0.1

>  <cluster>  (2) 
1

$$$$

     RDKit          3D

 76 82  0  0  0  0  0  0  0  0999 V2000
  137.8000   78.3230  222.4010 O   0  0  0  0  0  0  0  0  0  0  0  0
  139.0570   78.4700  222.5490 C   0  0  0  0  0  0  0  0  0  0  0  0
  139.4580   79.6810  223.1850 N   0  0  0  0  0  0  0  0  0  0  0  0
  138.5330   80.6660  223.6290 C   0  0  0  0  0  0  0  0  0  0  0  0
  138.0800   81.6500  222.7740 C   0  0  0  0  0  0  0  0  0  0  0  0
  137.1840   82.5760  223.2600 C   0  0  0  0  0  0  0  0  0  0  0  0
  136.7270   82.5520  224.5680 C   0  0  0  0  0  0  0  0  0  0  0  0
  137.1940   81.5630  225.3900 C   0  0  0  0  0  0  0  0  0  0  0  0
  138.0790   80.6400  224.9250 C   0  0  0  0  0  0  0  0  0  0  0  0
  140.0300   77.4480  222.0920 C   0  0  2  0  0  0  0  0  0  0  0  0
  140.6930   77.8910  220.8140 C   0  0  0  0  0  0  0  0  0  0  0  0
  140.2690   77.1110  219.6130 C   0  0  0  0  0  0  0  0  0  0  0  0
  140.4790   75.6430  219.8160 C   0  0  0  0  0  0  0  0  0  0  0  0
  140.1800   75.1960  221.1430 N   0  0  0  0  0  0  0  0  0  0  0  0
  140.6480   73.9250  221.5770 C   0  0  0  0  0  0  0  0  0  0  0  0
  141.5430   73.2760  220.8100 N   0  0  0  0  0  0  0  0  0  0  0  0
  142.0410   72.0700  221.1420 C   0  0  0  0  0  0  0  0  0  0  0  0
  142.9950   71.3850  220.3160 N   0  0  0  0  0  0  0  0  0  0  0  0
  144.2540   72.0670  220.0830 C   0  0  0  0  0  0  0  0  0  0  0  0
  144.6090   71.7840  218.6240 C   0  0  0  0  0  0  0  0  0  0  0  0
  144.8310   70.3020  218.5440 C   0  0  0  0  0  0  0  0  0  0  0  0
  145.9400   69.7600  217.9310 C   0  0  0  0  0  0  0  0  0  0  0  0
  146.1120   68.3950  217.8770 C   0  0  0  0  0  0  0  0  0  0  0  0
  145.1450   67.5960  218.4530 C   0  0  0  0  0  0  0  0  0  0  0  0
  144.0380   68.1440  219.0640 C   0  0  0  0  0  0  0  0  0  0  0  0
  143.8480   69.5180  219.1280 C   0  0  0  0  0  0  0  0  0  0  0  0
  142.6540   70.1050  219.7880 C   0  0  0  0  0  0  0  0  0  0  0  0
  141.6020   71.5180  222.3040 N   0  0  0  0  0  0  0  0  0  0  0  0
  140.7090   72.1280  223.1040 C   0  0  0  0  0  0  0  0  0  0  0  0
  140.3000   71.4850  224.3030 N   0  0  0  0  0  0  0  0  0  0  0  0
  141.0610   71.7840  225.5020 C   0  0  0  0  0  0  0  0  0  0  0  0
  140.2050   71.5060  226.7440 C   0  0  0  0  0  0  0  0  0  0  0  0
  139.9100   70.0360  226.6680 C   0  0  0  0  0  0  0  0  0  0  0  0
  140.1380   69.1970  227.7420 C   0  0  0  0  0  0  0  0  0  0  0  0
  139.8390   67.8500  227.5910 C   0  0  0  0  0  0  0  0  0  0  0  0
  139.3220   67.3760  226.3810 C   0  0  0  0  0  0  0  0  0  0  0  0
  139.1010   68.2460  225.3160 C   0  0  0  0  0  0  0  0  0  0  0  0
  139.3990   69.5880  225.4650 C   0  0  0  0  0  0  0  0  0  0  0  0
  139.1820   70.5730  224.3490 C   0  0  0  0  0  0  0  0  0  0  0  0
  140.2440   73.3370  222.7180 N   0  0  0  0  0  0  0  0  0  0  0  0
  139.4010   76.0750  221.9960 C   0  0  0  0  0  0  0  0  0  0  0  0
  140.4660   79.8860  223.3470 H   0  0  0  0  0  0  0  0  0  0  0  0
  138.4259   81.6936  221.7307 H   0  0  0  0  0  0  0  0  0  0  0  0
  136.8176   83.3636  222.5851 H   0  0  0  0  0  0  0  0  0  0  0  0
  136.0120   83.3037  224.9335 H   0  0  0  0  0  0  0  0  0  0  0  0
  136.8516   81.5137  226.4342 H   0  0  0  0  0  0  0  0  0  0  0  0
  138.4398   79.8534  225.6040 H   0  0  0  0  0  0  0  0  0  0  0  0
  140.8221   77.3529  222.8493 H   0  0  0  0  0  0  0  0  0  0  0  0
  140.4469   78.9496  220.6446 H   0  0  0  0  0  0  0  0  0  0  0  0
  141.7731   77.7245  220.9391 H   0  0  0  0  0  0  0  0  0  0  0  0
  139.2017   77.2974  219.4232 H   0  0  0  0  0  0  0  0  0  0  0  0
  140.8788   77.4338  218.7563 H   0  0  0  0  0  0  0  0  0  0  0  0
  139.8315   75.0992  219.1124 H   0  0  0  0  0  0  0  0  0  0  0  0
  141.5471   75.4446  219.6434 H   0  0  0  0  0  0  0  0  0  0  0  0
  144.1414   73.1487  220.2482 H   0  0  0  0  0  0  0  0  0  0  0  0
  145.0398   71.7177  220.7689 H   0  0  0  0  0  0  0  0  0  0  0  0
  143.7834   72.0850  217.9624 H   0  0  0  0  0  0  0  0  0  0  0  0
  145.4983   72.3471  218.3044 H   0  0  0  0  0  0  0  0  0  0  0  0
  146.6937   70.4232  217.4813 H   0  0  0  0  0  0  0  0  0  0  0  0
  146.9939   67.9542  217.3893 H   0  0  0  0  0  0  0  0  0  0  0  0
  145.2601   66.5024  218.4238 H   0  0  0  0  0  0  0  0  0  0  0  0
  143.2867   67.4768  219.5118 H   0  0  0  0  0  0  0  0  0  0  0  0
  141.8430   70.2139  219.0529 H   0  0  0  0  0  0  0  0  0  0  0  0
  142.3187   69.4456  220.6021 H   0  0  0  0  0  0  0  0  0  0  0  0
  141.9611   71.1524  225.5301 H   0  0  0  0  0  0  0  0  0  0  0  0
  141.3524   72.8446  225.4919 H   0  0  0  0  0  0  0  0  0  0  0  0
  140.7612   71.7451  227.6624 H   0  0  0  0  0  0  0  0  0  0  0  0
  139.2912   72.1178  226.7708 H   0  0  0  0  0  0  0  0  0  0  0  0
  140.5441   69.5848  228.6879 H   0  0  0  0  0  0  0  0  0  0  0  0
  140.0091   67.1535  228.4252 H   0  0  0  0  0  0  0  0  0  0  0  0
  139.0879   66.3070  226.2695 H   0  0  0  0  0  0  0  0  0  0  0  0
  138.6936   67.8694  224.3662 H   0  0  0  0  0  0  0  0  0  0  0  0
  139.1050   70.0354  223.3924 H   0  0  0  0  0  0  0  0  0  0  0  0
  138.2520   71.1338  224.5239 H   0  0  0  0  0  0  0  0  0  0  0  0
  138.3879   76.1734  221.5790 H   0  0  0  0  0  0  0  0  0  0  0  0
  139.3660   75.6380  223.0049 H   0  0  0  0  0  0  0  0  0  0  0  0
  1  2  2  0
  2  3  1  0
  3  4  1  0
  4  5  2  0
  5  6  1  0
  6  7  2  0
  7  8  1  0
  8  9  2  0
  2 10  1  0
 10 11  1  0
 11 12  1  0
 12 13  1  0
 13 14  1  0
 14 15  1  0
 15 16  2  0
 16 17  1  0
 17 18  1  0
 18 19  1  0
 19 20  1  0
 20 21  1  0
 21 22  2  0
 22 23  1  0
 23 24  2  0
 24 25  1  0
 25 26  2  0
 26 27  1  0
 17 28  2  0
 28 29  1  0
 29 30  1  0
 30 31  1  0
 31 32  1  0
 32 33  1  0
 33 34  2  0
 34 35  1  0
 35 36  2  0
 36 37  1  0
 37 38  2  0
 38 39  1  0
 29 40  2  0
 14 41  1  0
  9  4  1  0
 41 10  1  0
 40 15  1  0
 27 18  1  0
 39 30  1  0
 26 21  1  0
 38 33  1  0
  3 42  1  0
  5 43  1  0
  6 44  1  0
  7 45  1  0
  8 46  1  0
  9 47  1  0
 10 48  1  1
 11 49  1  0
 11 50  1  0
 12 51  1  0
 12 52  1  0
 13 53  1  0
 13 54  1  0
 19 55  1  0
 19 56  1  0
 20 57  1  0
 20 58  1  0
 22 59  1  0
 23 60  1  0
 24 61  1  0
 25 62  1  0
 27 63  1  0
 27 64  1  0
 31 65  1  0
 31 66  1  0
 32 67  1  0
 32 68  1  0
 34 69  1  0
 35 70  1  0
 36 71  1  0
 37 72  1  0
 39 73  1  0
 39 74  1  0
 41 75  1  0
 41 76  1  0
M  END
>  <smiles>  (3) 
O=C(Nc1ccccc1)[C@@H]1CCCN(c2nc(N3CCc4ccccc4C3)nc(N3CCc4ccccc4C3)n2)C1

>  <score_type>  (3) 
oracle

>  <origin>  (3) 
autodockgpu

>  <m_score__min__energy>  (3) 
-9.7799999999999994

>  <m_primary>  (3) 
energy

>  <rmsd>  (3) 
3.6424538945239244

>  <m_score__min__rmsd>  (3) 
3.6424538945239244

>  <meeko>  (3) 
{"free_energy": -9.57, "intermolecular_energy": -11.06, "internal_energy": -1.31, "cluster_size": 13, "cluster_id": 3, "rank_in_cluster": 1}

>  <energy>  (3) 
-9.74

>  <cluster_rmsd>  (3) 
0.2

>  <cluster>  (3) 
1

$$$$

     RDKit          3D

 76 82  0  0  0  0  0  0  0  0999 V2000
  135.9760   68.7730  222.9530 O   0  0  0  0  0  0  0  0  0  0  0  0
  136.6970   69.3130  223.8550 C   0  0  0  0  0  0  0  0  0  0  0  0
  136.0310   69.5810  225.0860 N   0  0  0  0  0  0  0  0  0  0  0  0
  134.6600   69.2750  225.3090 C   0  0  0  0  0  0  0  0  0  0  0  0
  133.7030   70.2690  225.3180 C   0  0  0  0  0  0  0  0  0  0  0  0
  132.3920   69.9110  225.5380 C   0  0  0  0  0  0  0  0  0  0  0  0
  132.0060   68.5970  225.7500 C   0  0  0  0  0  0  0  0  0  0  0  0
  132.9780   67.6350  225.7340 C   0  0  0  0  0  0  0  0  0  0  0  0
  134.2780   67.9710  225.5170 C   0  0  0  0  0  0  0  0  0  0  0  0
  138.1270   69.6350  223.6330 C   0  0  2  0  0  0  0  0  0  0  0  0
  138.9740   69.0440  224.7300 C   0  0  0  0  0  0  0  0  0  0  0  0
  139.5430   70.0600  225.6660 C   0  0  0  0  0  0  0  0  0  0  0  0
  140.3190   71.1050  224.9280 C   0  0  0  0  0  0  0  0  0  0  0  0
  139.7310   71.4850  223.6780 N   0  0  0  0  0  0  0  0  0  0  0  0
  140.5100   72.1950  222.7230 C   0  0  0  0  0  0  0  0  0  0  0  0
  141.4190   71.5130  222.0040 N   0  0  0  0  0  0  0  0  0  0  0  0
  142.2000   72.1020  221.0790 C   0  0  0  0  0  0  0  0  0  0  0  0
  143.1680   71.3650  220.3160 N   0  0  0  0  0  0  0  0  0  0  0  0
  144.4730   71.9790  220.1620 C   0  0  0  0  0  0  0  0  0  0  0  0
  144.9040   71.6730  218.7300 C   0  0  0  0  0  0  0  0  0  0  0  0
  145.0530   70.1810  218.6650 C   0  0  0  0  0  0  0  0  0  0  0  0
  146.1690   69.5800  218.1240 C   0  0  0  0  0  0  0  0  0  0  0  0
  146.2730   68.2070  218.0820 C   0  0  0  0  0  0  0  0  0  0  0  0
  145.2310   67.4620  218.5950 C   0  0  0  0  0  0  0  0  0  0  0  0
  144.1180   68.0690  219.1340 C   0  0  0  0  0  0  0  0  0  0  0  0
  143.9960   69.4520  219.1850 C   0  0  0  0  0  0  0  0  0  0  0  0
  142.7940   70.1030  219.7670 C   0  0  0  0  0  0  0  0  0  0  0  0
  142.0340   73.4380  220.8900 N   0  0  0  0  0  0  0  0  0  0  0  0
  141.1390   74.1630  221.5840 C   0  0  0  0  0  0  0  0  0  0  0  0
  141.0260   75.5560  221.3290 N   0  0  0  0  0  0  0  0  0  0  0  0
  141.6450   76.0540  220.1140 C   0  0  0  0  0  0  0  0  0  0  0  0
  140.9830   77.3730  219.6960 C   0  0  0  0  0  0  0  0  0  0  0  0
  141.2590   78.3040  220.8400 C   0  0  0  0  0  0  0  0  0  0  0  0
  141.8090   79.5550  220.6360 C   0  0  0  0  0  0  0  0  0  0  0  0
  142.0340   80.3560  221.7480 C   0  0  0  0  0  0  0  0  0  0  0  0
  141.7070   79.8940  223.0260 C   0  0  0  0  0  0  0  0  0  0  0  0
  141.1530   78.6270  223.2010 C   0  0  0  0  0  0  0  0  0  0  0  0
  140.9290   77.8280  222.0950 C   0  0  0  0  0  0  0  0  0  0  0  0
  140.3340   76.4520  222.2230 C   0  0  0  0  0  0  0  0  0  0  0  0
  140.3850   73.5160  222.5010 N   0  0  0  0  0  0  0  0  0  0  0  0
  138.3460   71.1200  223.4410 C   0  0  0  0  0  0  0  0  0  0  0  0
  136.5420   70.0220  225.8800 H   0  0  0  0  0  0  0  0  0  0  0  0
  133.9805   71.3206  225.1536 H   0  0  0  0  0  0  0  0  0  0  0  0
  131.6225   70.6970  225.5458 H   0  0  0  0  0  0  0  0  0  0  0  0
  130.9519   68.3362  225.9255 H   0  0  0  0  0  0  0  0  0  0  0  0
  132.7064   66.5817  225.8978 H   0  0  0  0  0  0  0  0  0  0  0  0
  135.0423   67.1800  225.5077 H   0  0  0  0  0  0  0  0  0  0  0  0
  138.4503   69.1684  222.6908 H   0  0  0  0  0  0  0  0  0  0  0  0
  138.3522   68.3470  225.3110 H   0  0  0  0  0  0  0  0  0  0  0  0
  139.8248   68.5441  224.2439 H   0  0  0  0  0  0  0  0  0  0  0  0
  138.7203   70.5440  226.2127 H   0  0  0  0  0  0  0  0  0  0  0  0
  140.2244   69.5481  226.3615 H   0  0  0  0  0  0  0  0  0  0  0  0
  140.3893   71.9993  225.5646 H   0  0  0  0  0  0  0  0  0  0  0  0
  141.3045   70.6723  224.7008 H   0  0  0  0  0  0  0  0  0  0  0  0
  144.4071   73.0657  220.3193 H   0  0  0  0  0  0  0  0  0  0  0  0
  145.1946   71.5911  220.8960 H   0  0  0  0  0  0  0  0  0  0  0  0
  144.1388   72.0141  218.0172 H   0  0  0  0  0  0  0  0  0  0  0  0
  145.8398   72.1879  218.4671 H   0  0  0  0  0  0  0  0  0  0  0  0
  146.9830   70.2015  217.7226 H   0  0  0  0  0  0  0  0  0  0  0  0
  147.1603   67.7191  217.6523 H   0  0  0  0  0  0  0  0  0  0  0  0
  145.2901   66.3638  218.5732 H   0  0  0  0  0  0  0  0  0  0  0  0
  143.3062   67.4435  219.5337 H   0  0  0  0  0  0  0  0  0  0  0  0
  142.0387   70.2521  218.9813 H   0  0  0  0  0  0  0  0  0  0  0  0
  142.3723   69.4647  220.5574 H   0  0  0  0  0  0  0  0  0  0  0  0
  142.7168   76.2243  220.2936 H   0  0  0  0  0  0  0  0  0  0  0  0
  141.5166   75.3130  219.3112 H   0  0  0  0  0  0  0  0  0  0  0  0
  141.4288   77.7554  218.7659 H   0  0  0  0  0  0  0  0  0  0  0  0
  139.9073   77.2591  219.4964 H   0  0  0  0  0  0  0  0  0  0  0  0
  142.0608   79.9056  219.6243 H   0  0  0  0  0  0  0  0  0  0  0  0
  142.4711   81.3576  221.6225 H   0  0  0  0  0  0  0  0  0  0  0  0
  141.8884   80.5356  223.9009 H   0  0  0  0  0  0  0  0  0  0  0  0
  140.8967   78.2666  224.2082 H   0  0  0  0  0  0  0  0  0  0  0  0
  140.4440   76.0975  223.2585 H   0  0  0  0  0  0  0  0  0  0  0  0
  139.2654   76.4836  221.9638 H   0  0  0  0  0  0  0  0  0  0  0  0
  137.7050   71.6705  224.1453 H   0  0  0  0  0  0  0  0  0  0  0  0
  138.0929   71.3763  222.4016 H   0  0  0  0  0  0  0  0  0  0  0  0
  1  2  2  0
  2  3  1  0
  3  4  1  0
  4  5  2  0
  5  6  1  0
  6  7  2  0
  7  8  1  0
  8  9  2  0
  2 10  1  0
 10 11  1  0
 11 12  1  0
 12 13  1  0
 13 14  1  0
 14 15  1  0
 15 16  2  0
 16 17  1  0
 17 18  1  0
 18 19  1  0
 19 20  1  0
 20 21  1  0
 21 22  2  0
 22 23  1  0
 23 24  2  0
 24 25  1  0
 25 26  2  0
 26 27  1  0
 17 28  2  0
 28 29  1  0
 29 30  1  0
 30 31  1  0
 31 32  1  0
 32 33  1  0
 33 34  2  0
 34 35  1  0
 35 36  2  0
 36 37  1  0
 37 38  2  0
 38 39  1  0
 29 40  2  0
 14 41  1  0
  9  4  1  0
 41 10  1  0
 40 15  1  0
 27 18  1  0
 39 30  1  0
 26 21  1  0
 38 33  1  0
  3 42  1  0
  5 43  1  0
  6 44  1  0
  7 45  1  0
  8 46  1  0
  9 47  1  0
 10 48  1  6
 11 49  1  0
 11 50  1  0
 12 51  1  0
 12 52  1  0
 13 53  1  0
 13 54  1  0
 19 55  1  0
 19 56  1  0
 20 57  1  0
 20 58  1  0
 22 59  1  0
 23 60  1  0
 24 61  1  0
 25 62  1  0
 27 63  1  0
 27 64  1  0
 31 65  1  0
 31 66  1  0
 32 67  1  0
 32 68  1  0
 34 69  1  0
 35 70  1  0
 36 71  1  0
 37 72  1  0
 39 73  1  0
 39 74  1  0
 41 75  1  0
 41 76  1  0
M  END
>  <smiles>  (4) 
O=C(Nc1ccccc1)[C@@H]1CCCN(c2nc(N3CCc4ccccc4C3)nc(N3CCc4ccccc4C3)n2)C1

>  <score_type>  (4) 
oracle

>  <origin>  (4) 
autodockgpu

>  <m_score__min__energy>  (4) 
-9.7799999999999994

>  <m_primary>  (4) 
energy

>  <rmsd>  (4) 
11.890756292164708

>  <m_score__min__rmsd>  (4) 
11.890756292164708

>  <meeko>  (4) 
{"free_energy": -9.41, "intermolecular_energy": -10.9, "internal_energy": -1.35, "cluster_size": 19, "cluster_id": 4, "rank_in_cluster": 6}

>  <energy>  (4) 
-9.73

>  <cluster_rmsd>  (4) 
0.17

>  <cluster>  (4) 
1

$$$$

     RDKit          3D

 76 82  0  0  0  0  0  0  0  0999 V2000
  138.3260   70.8910  224.4060 O   0  0  0  0  0  0  0  0  0  0  0  0
  139.4540   71.2020  223.9000 C   0  0  0  0  0  0  0  0  0  0  0  0
  140.5900   70.8510  224.6850 N   0  0  0  0  0  0  0  0  0  0  0  0
  140.4910   70.1990  225.9450 C   0  0  0  0  0  0  0  0  0  0  0  0
  140.4580   70.9240  227.1190 C   0  0  0  0  0  0  0  0  0  0  0  0
  140.3600   70.2380  228.3080 C   0  0  0  0  0  0  0  0  0  0  0  0
  140.2940   68.8550  228.3650 C   0  0  0  0  0  0  0  0  0  0  0  0
  140.3280   68.1650  227.1840 C   0  0  0  0  0  0  0  0  0  0  0  0
  140.4240   68.8280  226.0000 C   0  0  0  0  0  0  0  0  0  0  0  0
  139.5690   71.8810  222.5860 C   0  0  2  0  0  0  0  0  0  0  0  0
  139.1290   70.9580  221.4800 C   0  0  0  0  0  0  0  0  0  0  0  0
  140.2480   70.4750  220.6170 C   0  0  0  0  0  0  0  0  0  0  0  0
  141.0300   71.6170  220.0500 C   0  0  0  0  0  0  0  0  0  0  0  0
  141.2060   72.7070  220.9630 N   0  0  0  0  0  0  0  0  0  0  0  0
  141.6180   73.9760  220.4710 C   0  0  0  0  0  0  0  0  0  0  0  0
  142.4240   74.0140  219.3950 N   0  0  0  0  0  0  0  0  0  0  0  0
  142.8630   75.1690  218.8610 C   0  0  0  0  0  0  0  0  0  0  0  0
  143.7240   75.1990  217.7110 N   0  0  0  0  0  0  0  0  0  0  0  0
  143.6840   76.4050  216.9060 C   0  0  0  0  0  0  0  0  0  0  0  0
  143.7830   75.9330  215.4560 C   0  0  0  0  0  0  0  0  0  0  0  0
  145.1390   75.3030  215.3310 C   0  0  0  0  0  0  0  0  0  0  0  0
  145.9960   75.6100  214.2960 C   0  0  0  0  0  0  0  0  0  0  0  0
  147.2340   75.0140  214.2120 C   0  0  0  0  0  0  0  0  0  0  0  0
  147.5840   74.1060  215.1910 C   0  0  0  0  0  0  0  0  0  0  0  0
  146.7240   73.8030  216.2230 C   0  0  0  0  0  0  0  0  0  0  0  0
  145.4710   74.3950  216.3240 C   0  0  0  0  0  0  0  0  0  0  0  0
  144.5460   74.0660  217.4390 C   0  0  0  0  0  0  0  0  0  0  0  0
  142.4550   76.3200  219.4560 N   0  0  0  0  0  0  0  0  0  0  0  0
  141.6500   76.3340  220.5330 C   0  0  0  0  0  0  0  0  0  0  0  0
  141.2670   77.5790  221.0980 N   0  0  0  0  0  0  0  0  0  0  0  0
  140.9990   78.6660  220.1740 C   0  0  0  0  0  0  0  0  0  0  0  0
  140.0880   79.7040  220.8420 C   0  0  0  0  0  0  0  0  0  0  0  0
  140.8880   80.2000  222.0110 C   0  0  0  0  0  0  0  0  0  0  0  0
  141.0820   81.5500  222.2320 C   0  0  0  0  0  0  0  0  0  0  0  0
  141.8340   81.9280  223.3360 C   0  0  0  0  0  0  0  0  0  0  0  0
  142.3700   80.9560  224.1870 C   0  0  0  0  0  0  0  0  0  0  0  0
  142.1570   79.6020  223.9390 C   0  0  0  0  0  0  0  0  0  0  0  0
  141.4080   79.2250  222.8400 C   0  0  0  0  0  0  0  0  0  0  0  0
  141.1460   77.7780  222.5230 C   0  0  0  0  0  0  0  0  0  0  0  0
  141.2420   75.1430  221.0260 N   0  0  0  0  0  0  0  0  0  0  0  0
  140.9510   72.4590  222.3710 C   0  0  0  0  0  0  0  0  0  0  0  0
  141.5530   71.0670  224.3500 H   0  0  0  0  0  0  0  0  0  0  0  0
  140.5087   72.0227  227.1046 H   0  0  0  0  0  0  0  0  0  0  0  0
  140.3331   70.8087  229.2480 H   0  0  0  0  0  0  0  0  0  0  0  0
  140.2168   68.3292  229.3281 H   0  0  0  0  0  0  0  0  0  0  0  0
  140.2773   67.0662  227.1920 H   0  0  0  0  0  0  0  0  0  0  0  0
  140.4486   68.2519  225.0633 H   0  0  0  0  0  0  0  0  0  0  0  0
  138.8874   72.7443  222.5742 H   0  0  0  0  0  0  0  0  0  0  0  0
  138.6379   70.0839  221.9325 H   0  0  0  0  0  0  0  0  0  0  0  0
  138.4510   71.5338  220.8329 H   0  0  0  0  0  0  0  0  0  0  0  0
  140.9192   69.8456  221.2198 H   0  0  0  0  0  0  0  0  0  0  0  0
  139.8194   69.9001  219.7829 H   0  0  0  0  0  0  0  0  0  0  0  0
  142.0233   71.2458  219.7574 H   0  0  0  0  0  0  0  0  0  0  0  0
  140.4568   72.0046  219.1949 H   0  0  0  0  0  0  0  0  0  0  0  0
  142.7403   76.9456  217.0705 H   0  0  0  0  0  0  0  0  0  0  0  0
  144.4994   77.0960  217.1663 H   0  0  0  0  0  0  0  0  0  0  0  0
  142.9955   75.1970  215.2367 H   0  0  0  0  0  0  0  0  0  0  0  0
  143.6520   76.7635  214.7467 H   0  0  0  0  0  0  0  0  0  0  0  0
  145.6880   76.3375  213.5306 H   0  0  0  0  0  0  0  0  0  0  0  0
  147.9237   75.2541  213.3894 H   0  0  0  0  0  0  0  0  0  0  0  0
  148.5676   73.6156  215.1460 H   0  0  0  0  0  0  0  0  0  0  0  0
  147.0366   73.0747  216.9858 H   0  0  0  0  0  0  0  0  0  0  0  0
  143.9140   73.2120  217.1539 H   0  0  0  0  0  0  0  0  0  0  0  0
  145.1251   73.8034  218.3366 H   0  0  0  0  0  0  0  0  0  0  0  0
  141.9475   79.1435  219.8871 H   0  0  0  0  0  0  0  0  0  0  0  0
  140.4991   78.2668  219.2791 H   0  0  0  0  0  0  0  0  0  0  0  0
  139.8602   80.5267  220.1483 H   0  0  0  0  0  0  0  0  0  0  0  0
  139.1189   79.2806  221.1446 H   0  0  0  0  0  0  0  0  0  0  0  0
  140.6535   82.3025  221.5537 H   0  0  0  0  0  0  0  0  0  0  0  0
  142.0087   82.9943  223.5420 H   0  0  0  0  0  0  0  0  0  0  0  0
  142.9649   81.2635  225.0597 H   0  0  0  0  0  0  0  0  0  0  0  0
  142.5804   78.8407  224.6107 H   0  0  0  0  0  0  0  0  0  0  0  0
  141.8792   77.1472  223.0469 H   0  0  0  0  0  0  0  0  0  0  0  0
  140.1328   77.5034  222.8516 H   0  0  0  0  0  0  0  0  0  0  0  0
  141.6997   71.7484  222.7510 H   0  0  0  0  0  0  0  0  0  0  0  0
  141.0146   73.4162  222.9092 H   0  0  0  0  0  0  0  0  0  0  0  0
  1  2  2  0
  2  3  1  0
  3  4  1  0
  4  5  2  0
  5  6  1  0
  6  7  2  0
  7  8  1  0
  8  9  2  0
  2 10  1  0
 10 11  1  0
 11 12  1  0
 12 13  1  0
 13 14  1  0
 14 15  1  0
 15 16  2  0
 16 17  1  0
 17 18  1  0
 18 19  1  0
 19 20  1  0
 20 21  1  0
 21 22  2  0
 22 23  1  0
 23 24  2  0
 24 25  1  0
 25 26  2  0
 26 27  1  0
 17 28  2  0
 28 29  1  0
 29 30  1  0
 30 31  1  0
 31 32  1  0
 32 33  1  0
 33 34  2  0
 34 35  1  0
 35 36  2  0
 36 37  1  0
 37 38  2  0
 38 39  1  0
 29 40  2  0
 14 41  1  0
  9  4  1  0
 41 10  1  0
 40 15  1  0
 27 18  1  0
 39 30  1  0
 26 21  1  0
 38 33  1  0
  3 42  1  0
  5 43  1  0
  6 44  1  0
  7 45  1  0
  8 46  1  0
  9 47  1  0
 10 48  1  1
 11 49  1  0
 11 50  1  0
 12 51  1  0
 12 52  1  0
 13 53  1  0
 13 54  1  0
 19 55  1  0
 19 56  1  0
 20 57  1  0
 20 58  1  0
 22 59  1  0
 23 60  1  0
 24 61  1  0
 25 62  1  0
 27 63  1  0
 27 64  1  0
 31 65  1  0
 31 66  1  0
 32 67  1  0
 32 68  1  0
 34 69  1  0
 35 70  1  0
 36 71  1  0
 37 72  1  0
 39 73  1  0
 39 74  1  0
 41 75  1  0
 41 76  1  0
M  END
>  <smiles>  (5) 
O=C(Nc1ccccc1)[C@@H]1CCCN(c2nc(N3CCc4ccccc4C3)nc(N3CCc4ccccc4C3)n2)C1

>  <score_type>  (5) 
oracle

>  <origin>  (5) 
autodockgpu

>  <m_score__min__energy>  (5) 
-9.7799999999999994

>  <m_primary>  (5) 
energy

>  <rmsd>  (5) 
9.880232432452265

>  <m_score__min__rmsd>  (5) 
9.880232432452265

>  <meeko>  (5) 
{"free_energy": -9.56, "intermolecular_energy": -11.05, "internal_energy": -1.32, "cluster_size": 15, "cluster_id": 1, "rank_in_cluster": 11}

>  <energy>  (5) 
-9.66

>  <cluster_rmsd>  (5) 
0.28

>  <cluster>  (5) 
1

$$$$

     RDKit          3D

 76 82  0  0  0  0  0  0  0  0999 V2000
  138.4850   70.0620  224.8320 O   0  0  0  0  0  0  0  0  0  0  0  0
  139.4500   70.7880  224.4240 C   0  0  0  0  0  0  0  0  0  0  0  0
  140.6620   70.6580  225.1620 N   0  0  0  0  0  0  0  0  0  0  0  0
  140.8030   69.7860  226.2770 C   0  0  0  0  0  0  0  0  0  0  0  0
  140.7960   68.4160  226.1110 C   0  0  0  0  0  0  0  0  0  0  0  0
  140.9380   67.6230  227.2270 C   0  0  0  0  0  0  0  0  0  0  0  0
  141.0850   68.1500  228.5000 C   0  0  0  0  0  0  0  0  0  0  0  0
  141.0880   69.5120  228.6310 C   0  0  0  0  0  0  0  0  0  0  0  0
  140.9500   70.3110  227.5380 C   0  0  0  0  0  0  0  0  0  0  0  0
  139.3150   71.6990  223.2620 C   0  0  2  0  0  0  0  0  0  0  0  0
  138.3650   71.1180  222.2480 C   0  0  0  0  0  0  0  0  0  0  0  0
  139.0320   70.6480  220.9980 C   0  0  0  0  0  0  0  0  0  0  0  0
  139.8450   71.7370  220.3710 C   0  0  0  0  0  0  0  0  0  0  0  0
  140.5300   72.5640  221.3200 N   0  0  0  0  0  0  0  0  0  0  0  0
  141.0510   73.8210  220.9080 C   0  0  0  0  0  0  0  0  0  0  0  0
  141.8910   73.8520  219.8580 N   0  0  0  0  0  0  0  0  0  0  0  0
  142.4330   74.9960  219.3980 C   0  0  0  0  0  0  0  0  0  0  0  0
  143.3290   75.0180  218.2760 N   0  0  0  0  0  0  0  0  0  0  0  0
  143.4260   76.2710  217.5520 C   0  0  0  0  0  0  0  0  0  0  0  0
  143.5280   75.8850  216.0770 C   0  0  0  0  0  0  0  0  0  0  0  0
  144.8250   75.1410  215.9460 C   0  0  0  0  0  0  0  0  0  0  0  0
  145.7390   75.4320  214.9560 C   0  0  0  0  0  0  0  0  0  0  0  0
  146.9190   74.7290  214.8660 C   0  0  0  0  0  0  0  0  0  0  0  0
  147.1530   73.7330  215.7920 C   0  0  0  0  0  0  0  0  0  0  0  0
  146.2360   73.4460  216.7790 C   0  0  0  0  0  0  0  0  0  0  0  0
  145.0400   74.1450  216.8850 C   0  0  0  0  0  0  0  0  0  0  0  0
  144.0530   73.8330  217.9510 C   0  0  0  0  0  0  0  0  0  0  0  0
  142.0930   76.1430  220.0420 N   0  0  0  0  0  0  0  0  0  0  0  0
  141.2580   76.1630  221.0960 C   0  0  0  0  0  0  0  0  0  0  0  0
  140.9530   77.4040  221.7160 N   0  0  0  0  0  0  0  0  0  0  0  0
  140.1850   78.3570  220.9360 C   0  0  0  0  0  0  0  0  0  0  0  0
  139.4710   79.3400  221.8730 C   0  0  0  0  0  0  0  0  0  0  0  0
  140.5860   80.0380  222.5950 C   0  0  0  0  0  0  0  0  0  0  0  0
  140.6510   81.4160  222.6630 C   0  0  0  0  0  0  0  0  0  0  0  0
  141.7140   81.9850  223.3510 C   0  0  0  0  0  0  0  0  0  0  0  0
  142.6800   81.1700  223.9510 C   0  0  0  0  0  0  0  0  0  0  0  0
  142.5870   79.7830  223.8660 C   0  0  0  0  0  0  0  0  0  0  0  0
  141.5290   79.2160  223.1820 C   0  0  0  0  0  0  0  0  0  0  0  0
  141.3780   77.7240  223.0570 C   0  0  0  0  0  0  0  0  0  0  0  0
  140.7470   74.9840  221.5130 N   0  0  0  0  0  0  0  0  0  0  0  0
  140.6610   72.0710  222.6790 C   0  0  0  0  0  0  0  0  0  0  0  0
  141.5040   71.2140  224.9000 H   0  0  0  0  0  0  0  0  0  0  0  0
  140.6799   67.9693  225.1125 H   0  0  0  0  0  0  0  0  0  0  0  0
  140.9347   66.5299  227.1037 H   0  0  0  0  0  0  0  0  0  0  0  0
  141.1957   67.4948  229.3767 H   0  0  0  0  0  0  0  0  0  0  0  0
  141.2028   69.9644  229.6270 H   0  0  0  0  0  0  0  0  0  0  0  0
  140.9563   71.4034  227.6673 H   0  0  0  0  0  0  0  0  0  0  0  0
  138.8757   72.6466  223.6072 H   0  0  0  0  0  0  0  0  0  0  0  0
  137.8475   70.2630  222.7076 H   0  0  0  0  0  0  0  0  0  0  0  0
  137.6732   71.9229  221.9590 H   0  0  0  0  0  0  0  0  0  0  0  0
  139.6926   69.8026  221.2408 H   0  0  0  0  0  0  0  0  0  0  0  0
  138.2533   70.3419  220.2838 H   0  0  0  0  0  0  0  0  0  0  0  0
  140.5927   71.2751  219.7094 H   0  0  0  0  0  0  0  0  0  0  0  0
  139.1453   72.3866  219.8247 H   0  0  0  0  0  0  0  0  0  0  0  0
  142.5311   76.8862  217.7271 H   0  0  0  0  0  0  0  0  0  0  0  0
  144.2926   76.8645  217.8788 H   0  0  0  0  0  0  0  0  0  0  0  0
  142.6843   75.2406  215.7890 H   0  0  0  0  0  0  0  0  0  0  0  0
  143.4956   76.7674  215.4210 H   0  0  0  0  0  0  0  0  0  0  0  0
  145.5237   76.2321  214.2324 H   0  0  0  0  0  0  0  0  0  0  0  0
  147.6538   74.9545  214.0791 H   0  0  0  0  0  0  0  0  0  0  0  0
  148.0891   73.1576  215.7410 H   0  0  0  0  0  0  0  0  0  0  0  0
  146.4557   72.6448  217.5000 H   0  0  0  0  0  0  0  0  0  0  0  0
  143.3555   73.0613  217.5932 H   0  0  0  0  0  0  0  0  0  0  0  0
  144.5764   73.4610  218.8442 H   0  0  0  0  0  0  0  0  0  0  0  0
  140.8612   78.9130  220.2700 H   0  0  0  0  0  0  0  0  0  0  0  0
  139.4366   77.8171  220.3374 H   0  0  0  0  0  0  0  0  0  0  0  0
  138.8684   80.0588  221.2983 H   0  0  0  0  0  0  0  0  0  0  0  0
  138.7749   78.8365  222.5600 H   0  0  0  0  0  0  0  0  0  0  0  0
  139.8836   82.0436  222.1864 H   0  0  0  0  0  0  0  0  0  0  0  0
  141.7970   83.0794  223.4246 H   0  0  0  0  0  0  0  0  0  0  0  0
  143.5196   81.6283  224.4942 H   0  0  0  0  0  0  0  0  0  0  0  0
  143.3484   79.1453  224.3388 H   0  0  0  0  0  0  0  0  0  0  0  0
  142.3426   77.2374  223.2638 H   0  0  0  0  0  0  0  0  0  0  0  0
  140.6296   77.3652  223.7789 H   0  0  0  0  0  0  0  0  0  0  0  0
  141.3084   71.1817  222.6765 H   0  0  0  0  0  0  0  0  0  0  0  0
  141.0979   72.8693  223.2969 H   0  0  0  0  0  0  0  0  0  0  0  0
  1  2  2  0
  2  3  1  0
  3  4  1  0
  4  5  2  0
  5  6  1  0
  6  7  2  0
  7  8  1  0
  8  9  2  0
  2 10  1  0
 10 11  1  0
 11 12  1  0
 12 13  1  0
 13 14  1  0
 14 15  1  0
 15 16  2  0
 16 17  1  0
 17 18  1  0
 18 19  1  0
 19 20  1  0
 20 21  1  0
 21 22  2  0
 22 23  1  0
 23 24  2  0
 24 25  1  0
 25 26  2  0
 26 27  1  0
 17 28  2  0
 28 29  1  0
 29 30  1  0
 30 31  1  0
 31 32  1  0
 32 33  1  0
 33 34  2  0
 34 35  1  0
 35 36  2  0
 36 37  1  0
 37 38  2  0
 38 39  1  0
 29 40  2  0
 14 41  1  0
  9  4  1  0
 41 10  1  0
 40 15  1  0
 27 18  1  0
 39 30  1  0
 26 21  1  0
 38 33  1  0
  3 42  1  0
  5 43  1  0
  6 44  1  0
  7 45  1  0
  8 46  1  0
  9 47  1  0
 10 48  1  1
 11 49  1  0
 11 50  1  0
 12 51  1  0
 12 52  1  0
 13 53  1  0
 13 54  1  0
 19 55  1  0
 19 56  1  0
 20 57  1  0
 20 58  1  0
 22 59  1  0
 23 60  1  0
 24 61  1  0
 25 62  1  0
 27 63  1  0
 27 64  1  0
 31 65  1  0
 31 66  1  0
 32 67  1  0
 32 68  1  0
 34 69  1  0
 35 70  1  0
 36 71  1  0
 37 72  1  0
 39 73  1  0
 39 74  1  0
 41 75  1  0
 41 76  1  0
M  END
>  <smiles>  (6) 
O=C(Nc1ccccc1)[C@@H]1CCCN(c2nc(N3CCc4ccccc4C3)nc(N3CCc4ccccc4C3)n2)C1

>  <score_type>  (6) 
oracle

>  <origin>  (6) 
autodockgpu

>  <m_score__min__energy>  (6) 
-9.7799999999999994

>  <m_primary>  (6) 
energy

>  <rmsd>  (6) 
10.378623203860872

>  <m_score__min__rmsd>  (6) 
10.378623203860872

>  <meeko>  (6) 
{"free_energy": -9.64, "intermolecular_energy": -11.14, "internal_energy": -1.27, "cluster_size": 15, "cluster_id": 1, "rank_in_cluster": 7}

>  <energy>  (6) 
-9.65

>  <cluster_rmsd>  (6) 
0.33

>  <cluster>  (6) 
1

$$$$

     RDKit          3D

 76 82  0  0  0  0  0  0  0  0999 V2000
  138.5300   70.1300  224.7110 O   0  0  0  0  0  0  0  0  0  0  0  0
  139.4790   70.8930  224.3350 C   0  0  0  0  0  0  0  0  0  0  0  0
  140.6590   70.8340  225.1320 N   0  0  0  0  0  0  0  0  0  0  0  0
  140.7840   69.9900  226.2700 C   0  0  0  0  0  0  0  0  0  0  0  0
  140.9830   70.5200  227.5290 C   0  0  0  0  0  0  0  0  0  0  0  0
  141.0960   69.6540  228.5920 C   0  0  0  0  0  0  0  0  0  0  0  0
  141.0170   68.2780  228.4420 C   0  0  0  0  0  0  0  0  0  0  0  0
  140.8190   67.7830  227.1820 C   0  0  0  0  0  0  0  0  0  0  0  0
  140.7040   68.6260  226.1200 C   0  0  0  0  0  0  0  0  0  0  0  0
  139.3600   71.7750  223.1490 C   0  0  2  0  0  0  0  0  0  0  0  0
  138.3100   71.2470  222.2070 C   0  0  0  0  0  0  0  0  0  0  0  0
  138.8660   70.6810  220.9410 C   0  0  0  0  0  0  0  0  0  0  0  0
  139.7340   71.6750  220.2350 C   0  0  0  0  0  0  0  0  0  0  0  0
  140.5370   72.4690  221.1170 N   0  0  0  0  0  0  0  0  0  0  0  0
  141.1410   73.6630  220.6340 C   0  0  0  0  0  0  0  0  0  0  0  0
  142.0190   73.5690  219.6200 N   0  0  0  0  0  0  0  0  0  0  0  0
  142.6380   74.6450  219.0980 C   0  0  0  0  0  0  0  0  0  0  0  0
  143.5760   74.5360  218.0150 N   0  0  0  0  0  0  0  0  0  0  0  0
  144.0980   73.2100  217.7450 C   0  0  0  0  0  0  0  0  0  0  0  0
  145.5710   73.4130  217.3960 C   0  0  0  0  0  0  0  0  0  0  0  0
  145.5760   74.2110  216.1250 C   0  0  0  0  0  0  0  0  0  0  0  0
  146.3460   73.8540  215.0390 C   0  0  0  0  0  0  0  0  0  0  0  0
  146.3250   74.6090  213.8870 C   0  0  0  0  0  0  0  0  0  0  0  0
  145.5150   75.7260  213.8600 C   0  0  0  0  0  0  0  0  0  0  0  0
  144.7480   76.0780  214.9480 C   0  0  0  0  0  0  0  0  0  0  0  0
  144.7560   75.3290  216.1170 C   0  0  0  0  0  0  0  0  0  0  0  0
  143.9280   75.7120  217.2890 C   0  0  0  0  0  0  0  0  0  0  0  0
  142.3380   75.8550  219.6400 N   0  0  0  0  0  0  0  0  0  0  0  0
  141.4660   75.9990  220.6540 C   0  0  0  0  0  0  0  0  0  0  0  0
  141.2060   77.2980  221.1660 N   0  0  0  0  0  0  0  0  0  0  0  0
  141.0950   78.3750  220.2000 C   0  0  0  0  0  0  0  0  0  0  0  0
  140.2810   79.5300  220.8000 C   0  0  0  0  0  0  0  0  0  0  0  0
  141.0890   79.9740  221.9840 C   0  0  0  0  0  0  0  0  0  0  0  0
  141.4250   81.3010  222.1720 C   0  0  0  0  0  0  0  0  0  0  0  0
  142.1740   81.6310  223.2940 C   0  0  0  0  0  0  0  0  0  0  0  0
  142.5670   80.6360  224.1940 C   0  0  0  0  0  0  0  0  0  0  0  0
  142.2130   79.3060  223.9780 C   0  0  0  0  0  0  0  0  0  0  0  0
  141.4670   78.9760  222.8620 C   0  0  0  0  0  0  0  0  0  0  0  0
  141.0570   77.5570  222.5780 C   0  0  0  0  0  0  0  0  0  0  0  0
  140.8770   74.8820  221.1370 N   0  0  0  0  0  0  0  0  0  0  0  0
  140.6990   72.0100  222.4850 C   0  0  0  0  0  0  0  0  0  0  0  0
  141.4860   71.4230  224.9000 H   0  0  0  0  0  0  0  0  0  0  0  0
  141.0496   71.6077  227.6786 H   0  0  0  0  0  0  0  0  0  0  0  0
  141.2549   70.0687  229.5983 H   0  0  0  0  0  0  0  0  0  0  0  0
  141.1105   67.6061  229.3079 H   0  0  0  0  0  0  0  0  0  0  0  0
  140.7523   66.6961  227.0264 H   0  0  0  0  0  0  0  0  0  0  0  0
  140.5430   68.2054  225.1164 H   0  0  0  0  0  0  0  0  0  0  0  0
  139.0230   72.7679  223.4814 H   0  0  0  0  0  0  0  0  0  0  0  0
  137.7474   70.4552  222.7233 H   0  0  0  0  0  0  0  0  0  0  0  0
  137.6744   72.0994  221.9251 H   0  0  0  0  0  0  0  0  0  0  0  0
  139.4640   69.7891  221.1797 H   0  0  0  0  0  0  0  0  0  0  0  0
  138.0266   70.4216  220.2790 H   0  0  0  0  0  0  0  0  0  0  0  0
  140.4030   71.1293  219.5534 H   0  0  0  0  0  0  0  0  0  0  0  0
  139.0635   72.3655  219.7024 H   0  0  0  0  0  0  0  0  0  0  0  0
  143.9985   72.5696  218.6338 H   0  0  0  0  0  0  0  0  0  0  0  0
  143.5505   72.7148  216.9295 H   0  0  0  0  0  0  0  0  0  0  0  0
  146.0836   73.9644  218.1980 H   0  0  0  0  0  0  0  0  0  0  0  0
  146.0981   72.4547  217.2781 H   0  0  0  0  0  0  0  0  0  0  0  0
  146.9827   72.9586  215.0927 H   0  0  0  0  0  0  0  0  0  0  0  0
  146.9352   74.3301  213.0153 H   0  0  0  0  0  0  0  0  0  0  0  0
  145.4815   76.3467  212.9524 H   0  0  0  0  0  0  0  0  0  0  0  0
  144.1134   76.9746  214.8896 H   0  0  0  0  0  0  0  0  0  0  0  0
  144.5010   76.3890  217.9396 H   0  0  0  0  0  0  0  0  0  0  0  0
  143.0162   76.2240  216.9476 H   0  0  0  0  0  0  0  0  0  0  0  0
  142.1007   78.7349  219.9372 H   0  0  0  0  0  0  0  0  0  0  0  0
  140.5871   78.0029  219.2980 H   0  0  0  0  0  0  0  0  0  0  0  0
  140.1714   80.3486  220.0735 H   0  0  0  0  0  0  0  0  0  0  0  0
  139.2603   79.2270  221.0763 H   0  0  0  0  0  0  0  0  0  0  0  0
  141.1088   82.0727  221.4547 H   0  0  0  0  0  0  0  0  0  0  0  0
  142.4587   82.6780  223.4750 H   0  0  0  0  0  0  0  0  0  0  0  0
  143.1606   80.9055  225.0800 H   0  0  0  0  0  0  0  0  0  0  0  0
  142.5241   78.5261  224.6886 H   0  0  0  0  0  0  0  0  0  0  0  0
  141.6961   76.8673  223.1488 H   0  0  0  0  0  0  0  0  0  0  0  0
  140.0084   77.4069  222.8745 H   0  0  0  0  0  0  0  0  0  0  0  0
  141.2675   71.0683  222.4819 H   0  0  0  0  0  0  0  0  0  0  0  0
  141.2350   72.7867  223.0503 H   0  0  0  0  0  0  0  0  0  0  0  0
  1  2  2  0
  2  3  1  0
  3  4  1  0
  4  5  2  0
  5  6  1  0
  6  7  2  0
  7  8  1  0
  8  9  2  0
  2 10  1  0
 10 11  1  0
 11 12  1  0
 12 13  1  0
 13 14  1  0
 14 15  1  0
 15 16  2  0
 16 17  1  0
 17 18  1  0
 18 19  1  0
 19 20  1  0
 20 21  1  0
 21 22  2  0
 22 23  1  0
 23 24  2  0
 24 25  1  0
 25 26  2  0
 26 27  1  0
 17 28  2  0
 28 29  1  0
 29 30  1  0
 30 31  1  0
 31 32  1  0
 32 33  1  0
 33 34  2  0
 34 35  1  0
 35 36  2  0
 36 37  1  0
 37 38  2  0
 38 39  1  0
 29 40  2  0
 14 41  1  0
  9  4  1  0
 41 10  1  0
 40 15  1  0
 27 18  1  0
 39 30  1  0
 26 21  1  0
 38 33  1  0
  3 42  1  0
  5 43  1  0
  6 44  1  0
  7 45  1  0
  8 46  1  0
  9 47  1  0
 10 48  1  1
 11 49  1  0
 11 50  1  0
 12 51  1  0
 12 52  1  0
 13 53  1  0
 13 54  1  0
 19 55  1  0
 19 56  1  0
 20 57  1  0
 20 58  1  0
 22 59  1  0
 23 60  1  0
 24 61  1  0
 25 62  1  0
 27 63  1  0
 27 64  1  0
 31 65  1  0
 31 66  1  0
 32 67  1  0
 32 68  1  0
 34 69  1  0
 35 70  1  0
 36 71  1  0
 37 72  1  0
 39 73  1  0
 39 74  1  0
 41 75  1  0
 41 76  1  0
M  END
>  <smiles>  (7) 
O=C(Nc1ccccc1)[C@@H]1CCCN(c2nc(N3CCc4ccccc4C3)nc(N3CCc4ccccc4C3)n2)C1

>  <score_type>  (7) 
oracle

>  <origin>  (7) 
autodockgpu

>  <m_score__min__energy>  (7) 
-9.7799999999999994

>  <m_primary>  (7) 
energy

>  <rmsd>  (7) 
10.1962612990072

>  <m_score__min__rmsd>  (7) 
10.1962612990072

>  <meeko>  (7) 
{"free_energy": -9.38, "intermolecular_energy": -10.87, "internal_energy": -1.27, "cluster_size": 15, "cluster_id": 1, "rank_in_cluster": 13}

>  <energy>  (7) 
-9.64

>  <cluster_rmsd>  (7) 
0.32

>  <cluster>  (7) 
1

$$$$

     RDKit          3D

 76 82  0  0  0  0  0  0  0  0999 V2000
  140.8660   79.7480  222.7400 O   0  0  0  0  0  0  0  0  0  0  0  0
  140.1440   78.7740  222.3470 C   0  0  0  0  0  0  0  0  0  0  0  0
  138.7420   78.9350  222.5490 N   0  0  0  0  0  0  0  0  0  0  0  0
  138.1730   80.0930  223.1470 C   0  0  0  0  0  0  0  0  0  0  0  0
  137.6150   81.0900  222.3730 C   0  0  0  0  0  0  0  0  0  0  0  0
  137.0780   82.1870  223.0080 C   0  0  0  0  0  0  0  0  0  0  0  0
  137.0800   82.3220  224.3870 C   0  0  0  0  0  0  0  0  0  0  0  0
  137.6400   81.3170  225.1270 C   0  0  0  0  0  0  0  0  0  0  0  0
  138.1740   80.2250  224.5150 C   0  0  0  0  0  0  0  0  0  0  0  0
  140.7260   77.5620  221.7210 C   0  0  2  0  0  0  0  0  0  0  0  0
  140.8620   77.7540  220.2330 C   0  0  0  0  0  0  0  0  0  0  0  0
  139.9040   76.9380  219.4300 C   0  0  0  0  0  0  0  0  0  0  0  0
  140.0090   75.4840  219.7700 C   0  0  0  0  0  0  0  0  0  0  0  0
  140.2240   75.2310  221.1630 N   0  0  0  0  0  0  0  0  0  0  0  0
  140.6800   73.9510  221.5820 C   0  0  0  0  0  0  0  0  0  0  0  0
  141.5630   73.3000  220.8040 N   0  0  0  0  0  0  0  0  0  0  0  0
  142.0490   72.0860  221.1220 C   0  0  0  0  0  0  0  0  0  0  0  0
  142.9930   71.3990  220.2840 N   0  0  0  0  0  0  0  0  0  0  0  0
  144.2560   72.0710  220.0460 C   0  0  0  0  0  0  0  0  0  0  0  0
  144.5970   71.7960  218.5830 C   0  0  0  0  0  0  0  0  0  0  0  0
  144.8060   70.3130  218.4910 C   0  0  0  0  0  0  0  0  0  0  0  0
  145.9060   69.7660  217.8670 C   0  0  0  0  0  0  0  0  0  0  0  0
  146.0670   68.4000  217.8020 C   0  0  0  0  0  0  0  0  0  0  0  0
  145.0970   67.6050  218.3790 C   0  0  0  0  0  0  0  0  0  0  0  0
  143.9990   68.1580  219.0010 C   0  0  0  0  0  0  0  0  0  0  0  0
  143.8210   69.5330  219.0760 C   0  0  0  0  0  0  0  0  0  0  0  0
  142.6360   70.1260  219.7490 C   0  0  0  0  0  0  0  0  0  0  0  0
  141.6110   71.5270  222.2800 N   0  0  0  0  0  0  0  0  0  0  0  0
  140.7290   72.1380  223.0910 C   0  0  0  0  0  0  0  0  0  0  0  0
  140.3180   71.4880  224.2850 N   0  0  0  0  0  0  0  0  0  0  0  0
  141.0700   71.7890  225.4890 C   0  0  0  0  0  0  0  0  0  0  0  0
  140.2100   71.4990  226.7260 C   0  0  0  0  0  0  0  0  0  0  0  0
  139.9270   70.0280  226.6430 C   0  0  0  0  0  0  0  0  0  0  0  0
  140.1570   69.1870  227.7150 C   0  0  0  0  0  0  0  0  0  0  0  0
  139.8690   67.8380  227.5580 C   0  0  0  0  0  0  0  0  0  0  0  0
  139.3620   67.3640  226.3440 C   0  0  0  0  0  0  0  0  0  0  0  0
  139.1410   68.2360  225.2810 C   0  0  0  0  0  0  0  0  0  0  0  0
  139.4260   69.5790  225.4360 C   0  0  0  0  0  0  0  0  0  0  0  0
  139.2080   70.5670  224.3220 C   0  0  0  0  0  0  0  0  0  0  0  0
  140.2750   73.3560  222.7190 N   0  0  0  0  0  0  0  0  0  0  0  0
  139.9610   76.3120  222.0960 C   0  0  0  0  0  0  0  0  0  0  0  0
  138.0750   78.1890  222.2590 H   0  0  0  0  0  0  0  0  0  0  0  0
  137.5997   81.0101  221.2760 H   0  0  0  0  0  0  0  0  0  0  0  0
  136.6308   82.9858  222.3982 H   0  0  0  0  0  0  0  0  0  0  0  0
  136.6452   83.2089  224.8712 H   0  0  0  0  0  0  0  0  0  0  0  0
  137.6588   81.3920  226.2243 H   0  0  0  0  0  0  0  0  0  0  0  0
  138.6173   79.4283  225.1305 H   0  0  0  0  0  0  0  0  0  0  0  0
  141.7403   77.4134  222.1199 H   0  0  0  0  0  0  0  0  0  0  0  0
  140.6904   78.8160  220.0033 H   0  0  0  0  0  0  0  0  0  0  0  0
  141.8741   77.4220  219.9584 H   0  0  0  0  0  0  0  0  0  0  0  0
  138.8797   77.2813  219.6373 H   0  0  0  0  0  0  0  0  0  0  0  0
  140.1489   77.0638  218.3650 H   0  0  0  0  0  0  0  0  0  0  0  0
  139.0746   74.9886  219.4676 H   0  0  0  0  0  0  0  0  0  0  0  0
  140.8857   75.0917  219.2338 H   0  0  0  0  0  0  0  0  0  0  0  0
  144.1546   73.1524  220.2201 H   0  0  0  0  0  0  0  0  0  0  0  0
  145.0439   71.7092  220.7230 H   0  0  0  0  0  0  0  0  0  0  0  0
  143.7688   72.1086  217.9301 H   0  0  0  0  0  0  0  0  0  0  0  0
  145.4882   72.3541  218.2602 H   0  0  0  0  0  0  0  0  0  0  0  0
  146.6620   70.4262  217.4169 H   0  0  0  0  0  0  0  0  0  0  0  0
  146.9421   67.9556  217.3053 H   0  0  0  0  0  0  0  0  0  0  0  0
  145.2026   66.5107  218.3415 H   0  0  0  0  0  0  0  0  0  0  0  0
  143.2451   67.4941  219.4491 H   0  0  0  0  0  0  0  0  0  0  0  0
  141.8209   70.2478  219.0204 H   0  0  0  0  0  0  0  0  0  0  0  0
  142.2998   69.4636  220.5603 H   0  0  0  0  0  0  0  0  0  0  0  0
  141.9754   71.1650  225.5194 H   0  0  0  0  0  0  0  0  0  0  0  0
  141.3521   72.8522  225.4843 H   0  0  0  0  0  0  0  0  0  0  0  0
  140.7599   71.7388  227.6480 H   0  0  0  0  0  0  0  0  0  0  0  0
  139.2912   72.1034  226.7506 H   0  0  0  0  0  0  0  0  0  0  0  0
  140.5561   69.5746  228.6639 H   0  0  0  0  0  0  0  0  0  0  0  0
  140.0401   67.1401  228.3908 H   0  0  0  0  0  0  0  0  0  0  0  0
  139.1359   66.2938  226.2278 H   0  0  0  0  0  0  0  0  0  0  0  0
  138.7434   67.8592  224.3271 H   0  0  0  0  0  0  0  0  0  0  0  0
  139.1407   70.0323  223.3631 H   0  0  0  0  0  0  0  0  0  0  0  0
  138.2728   71.1199  224.4943 H   0  0  0  0  0  0  0  0  0  0  0  0
  138.8841   76.5360  222.0901 H   0  0  0  0  0  0  0  0  0  0  0  0
  140.2874   75.9931  223.0969 H   0  0  0  0  0  0  0  0  0  0  0  0
  1  2  2  0
  2  3  1  0
  3  4  1  0
  4  5  2  0
  5  6  1  0
  6  7  2  0
  7  8  1  0
  8  9  2  0
  2 10  1  0
 10 11  1  0
 11 12  1  0
 12 13  1  0
 13 14  1  0
 14 15  1  0
 15 16  2  0
 16 17  1  0
 17 18  1  0
 18 19  1  0
 19 20  1  0
 20 21  1  0
 21 22  2  0
 22 23  1  0
 23 24  2  0
 24 25  1  0
 25 26  2  0
 26 27  1  0
 17 28  2  0
 28 29  1  0
 29 30  1  0
 30 31  1  0
 31 32  1  0
 32 33  1  0
 33 34  2  0
 34 35  1  0
 35 36  2  0
 36 37  1  0
 37 38  2  0
 38 39  1  0
 29 40  2  0
 14 41  1  0
  9  4  1  0
 41 10  1  0
 40 15  1  0
 27 18  1  0
 39 30  1  0
 26 21  1  0
 38 33  1  0
  3 42  1  0
  5 43  1  0
  6 44  1  0
  7 45  1  0
  8 46  1  0
  9 47  1  0
 10 48  1  1
 11 49  1  0
 11 50  1  0
 12 51  1  0
 12 52  1  0
 13 53  1  0
 13 54  1  0
 19 55  1  0
 19 56  1  0
 20 57  1  0
 20 58  1  0
 22 59  1  0
 23 60  1  0
 24 61  1  0
 25 62  1  0
 27 63  1  0
 27 64  1  0
 31 65  1  0
 31 66  1  0
 32 67  1  0
 32 68  1  0
 34 69  1  0
 35 70  1  0
 36 71  1  0
 37 72  1  0
 39 73  1  0
 39 74  1  0
 41 75  1  0
 41 76  1  0
M  END
>  <smiles>  (8) 
O=C(Nc1ccccc1)[C@@H]1CCCN(c2nc(N3CCc4ccccc4C3)nc(N3CCc4ccccc4C3)n2)C1

>  <score_type>  (8) 
oracle

>  <origin>  (8) 
autodockgpu

>  <m_score__min__energy>  (8) 
-9.7799999999999994

>  <m_primary>  (8) 
energy

>  <rmsd>  (8) 
3.4404190098826644

>  <m_score__min__rmsd>  (8) 
3.4404190098826644

>  <meeko>  (8) 
{"free_energy": -9.41, "intermolecular_energy": -10.9, "internal_energy": -1.33, "cluster_size": 13, "cluster_id": 3, "rank_in_cluster": 6}

>  <energy>  (8) 
-9.61

>  <cluster_rmsd>  (8) 
0.38

>  <cluster>  (8) 
1

$$$$

     RDKit          3D

 76 82  0  0  0  0  0  0  0  0999 V2000
  138.4690   69.6780  224.5040 O   0  0  0  0  0  0  0  0  0  0  0  0
  139.3000   70.6260  224.3250 C   0  0  0  0  0  0  0  0  0  0  0  0
  140.3360   70.7200  225.2990 N   0  0  0  0  0  0  0  0  0  0  0  0
  140.4480   69.8270  226.4000 C   0  0  0  0  0  0  0  0  0  0  0  0
  141.0620   68.5990  226.2590 C   0  0  0  0  0  0  0  0  0  0  0  0
  141.1420   67.7780  227.3610 C   0  0  0  0  0  0  0  0  0  0  0  0
  140.6300   68.1400  228.5960 C   0  0  0  0  0  0  0  0  0  0  0  0
  140.0280   69.3640  228.7050 C   0  0  0  0  0  0  0  0  0  0  0  0
  139.9420   70.1890  227.6250 C   0  0  0  0  0  0  0  0  0  0  0  0
  139.1940   71.5620  223.1790 C   0  0  2  0  0  0  0  0  0  0  0  0
  138.2670   71.0050  222.1310 C   0  0  0  0  0  0  0  0  0  0  0  0
  138.9630   70.5590  220.8870 C   0  0  0  0  0  0  0  0  0  0  0  0
  139.7930   71.6600  220.3030 C   0  0  0  0  0  0  0  0  0  0  0  0
  140.4560   72.4650  221.2850 N   0  0  0  0  0  0  0  0  0  0  0  0
  140.9890   73.7300  220.9110 C   0  0  0  0  0  0  0  0  0  0  0  0
  141.8420   73.7830  219.8730 N   0  0  0  0  0  0  0  0  0  0  0  0
  142.3940   74.9350  219.4490 C   0  0  0  0  0  0  0  0  0  0  0  0
  143.3050   74.9820  218.3390 N   0  0  0  0  0  0  0  0  0  0  0  0
  143.4290   76.2570  217.6590 C   0  0  0  0  0  0  0  0  0  0  0  0
  143.5430   75.9190  216.1730 C   0  0  0  0  0  0  0  0  0  0  0  0
  144.8300   75.1600  216.0320 C   0  0  0  0  0  0  0  0  0  0  0  0
  145.7600   75.4700  215.0630 C   0  0  0  0  0  0  0  0  0  0  0  0
  146.9320   74.7530  214.9630 C   0  0  0  0  0  0  0  0  0  0  0  0
  147.1390   73.7220  215.8580 C   0  0  0  0  0  0  0  0  0  0  0  0
  146.2050   73.4170  216.8230 C   0  0  0  0  0  0  0  0  0  0  0  0
  145.0190   74.1290  216.9390 C   0  0  0  0  0  0  0  0  0  0  0  0
  144.0150   73.7970  217.9830 C   0  0  0  0  0  0  0  0  0  0  0  0
  142.0530   76.0680  220.1180 N   0  0  0  0  0  0  0  0  0  0  0  0
  141.2050   76.0650  221.1620 C   0  0  0  0  0  0  0  0  0  0  0  0
  140.8980   77.2920  221.8100 N   0  0  0  0  0  0  0  0  0  0  0  0
  140.0190   78.2060  221.1040 C   0  0  0  0  0  0  0  0  0  0  0  0
  139.3460   79.1560  222.1030 C   0  0  0  0  0  0  0  0  0  0  0  0
  140.4870   79.9070  222.7250 C   0  0  0  0  0  0  0  0  0  0  0  0
  140.4940   81.2870  222.7900 C   0  0  0  0  0  0  0  0  0  0  0  0
  141.5860   81.9060  223.3820 C   0  0  0  0  0  0  0  0  0  0  0  0
  142.6390   81.1390  223.8910 C   0  0  0  0  0  0  0  0  0  0  0  0
  142.6040   79.7480  223.8120 C   0  0  0  0  0  0  0  0  0  0  0  0
  141.5170   79.1310  223.2230 C   0  0  0  0  0  0  0  0  0  0  0  0
  141.4260   77.6330  223.1090 C   0  0  0  0  0  0  0  0  0  0  0  0
  140.6820   74.8780  221.5420 N   0  0  0  0  0  0  0  0  0  0  0  0
  140.5540   71.9430  222.6360 C   0  0  0  0  0  0  0  0  0  0  0  0
  141.0610   71.4650  225.2320 H   0  0  0  0  0  0  0  0  0  0  0  0
  141.4771   68.2842  225.2902 H   0  0  0  0  0  0  0  0  0  0  0  0
  141.6307   66.7980  227.2569 H   0  0  0  0  0  0  0  0  0  0  0  0
  140.7049   67.4652  229.4614 H   0  0  0  0  0  0  0  0  0  0  0  0
  139.6108   69.6836  229.6713 H   0  0  0  0  0  0  0  0  0  0  0  0
  139.4555   71.1693  227.7361 H   0  0  0  0  0  0  0  0  0  0  0  0
  138.7484   72.5031  223.5336 H   0  0  0  0  0  0  0  0  0  0  0  0
  137.7367   70.1421  222.5602 H   0  0  0  0  0  0  0  0  0  0  0  0
  137.5840   71.8176  221.8425 H   0  0  0  0  0  0  0  0  0  0  0  0
  139.6160   69.7071  221.1276 H   0  0  0  0  0  0  0  0  0  0  0  0
  138.2014   70.2692  220.1481 H   0  0  0  0  0  0  0  0  0  0  0  0
  140.5557   71.2108  219.6499 H   0  0  0  0  0  0  0  0  0  0  0  0
  139.1075   72.3225  219.7542 H   0  0  0  0  0  0  0  0  0  0  0  0
  142.5412   76.8794  217.8445 H   0  0  0  0  0  0  0  0  0  0  0  0
  144.3001   76.8262  218.0156 H   0  0  0  0  0  0  0  0  0  0  0  0
  142.6933   75.2976  215.8538 H   0  0  0  0  0  0  0  0  0  0  0  0
  143.5318   76.8233  215.5468 H   0  0  0  0  0  0  0  0  0  0  0  0
  145.5647   76.2966  214.3640 H   0  0  0  0  0  0  0  0  0  0  0  0
  147.6802   74.9944  214.1936 H   0  0  0  0  0  0  0  0  0  0  0  0
  148.0666   73.1337  215.7991 H   0  0  0  0  0  0  0  0  0  0  0  0
  146.4037   72.5887  217.5191 H   0  0  0  0  0  0  0  0  0  0  0  0
  143.3103   73.0484  217.5920 H   0  0  0  0  0  0  0  0  0  0  0  0
  144.5222   73.3876  218.8691 H   0  0  0  0  0  0  0  0  0  0  0  0
  140.6059   78.7920  220.3814 H   0  0  0  0  0  0  0  0  0  0  0  0
  139.2464   77.6299  220.5738 H   0  0  0  0  0  0  0  0  0  0  0  0
  138.6617   79.8447  221.5858 H   0  0  0  0  0  0  0  0  0  0  0  0
  138.7382   78.6216  222.8479 H   0  0  0  0  0  0  0  0  0  0  0  0
  139.6591   81.8775  222.3847 H   0  0  0  0  0  0  0  0  0  0  0  0
  141.6235   83.0032  223.4511 H   0  0  0  0  0  0  0  0  0  0  0  0
  143.5016   81.6376  224.3573 H   0  0  0  0  0  0  0  0  0  0  0  0
  143.4332   79.1475  224.2144 H   0  0  0  0  0  0  0  0  0  0  0  0
  142.4270   77.1926  223.2274 H   0  0  0  0  0  0  0  0  0  0  0  0
  140.7635   77.2400  223.8943 H   0  0  0  0  0  0  0  0  0  0  0  0
  141.1996   71.0524  222.6299 H   0  0  0  0  0  0  0  0  0  0  0  0
  140.9778   72.7269  223.2809 H   0  0  0  0  0  0  0  0  0  0  0  0
  1  2  2  0
  2  3  1  0
  3  4  1  0
  4  5  2  0
  5  6  1  0
  6  7  2  0
  7  8  1  0
  8  9  2  0
  2 10  1  0
 10 11  1  0
 11 12  1  0
 12 13  1  0
 13 14  1  0
 14 15  1  0
 15 16  2  0
 16 17  1  0
 17 18  1  0
 18 19  1  0
 19 20  1  0
 20 21  1  0
 21 22  2  0
 22 23  1  0
 23 24  2  0
 24 25  1  0
 25 26  2  0
 26 27  1  0
 17 28  2  0
 28 29  1  0
 29 30  1  0
 30 31  1  0
 31 32  1  0
 32 33  1  0
 33 34  2  0
 34 35  1  0
 35 36  2  0
 36 37  1  0
 37 38  2  0
 38 39  1  0
 29 40  2  0
 14 41  1  0
  9  4  1  0
 41 10  1  0
 40 15  1  0
 27 18  1  0
 39 30  1  0
 26 21  1  0
 38 33  1  0
  3 42  1  0
  5 43  1  0
  6 44  1  0
  7 45  1  0
  8 46  1  0
  9 47  1  0
 10 48  1  1
 11 49  1  0
 11 50  1  0
 12 51  1  0
 12 52  1  0
 13 53  1  0
 13 54  1  0
 19 55  1  0
 19 56  1  0
 20 57  1  0
 20 58  1  0
 22 59  1  0
 23 60  1  0
 24 61  1  0
 25 62  1  0
 27 63  1  0
 27 64  1  0
 31 65  1  0
 31 66  1  0
 32 67  1  0
 32 68  1  0
 34 69  1  0
 35 70  1  0
 36 71  1  0
 37 72  1  0
 39 73  1  0
 39 74  1  0
 41 75  1  0
 41 76  1  0
M  END
>  <smiles>  (9) 
O=C(Nc1ccccc1)[C@@H]1CCCN(c2nc(N3CCc4ccccc4C3)nc(N3CCc4ccccc4C3)n2)C1

>  <score_type>  (9) 
oracle

>  <origin>  (9) 
autodockgpu

>  <m_score__min__energy>  (9) 
-9.7799999999999994

>  <m_primary>  (9) 
energy

>  <rmsd>  (9) 
10.437255536739798

>  <m_score__min__rmsd>  (9) 
10.437255536739798

>  <meeko>  (9) 
{"free_energy": -9.73, "intermolecular_energy": -11.23, "internal_energy": -1.28, "cluster_size": 15, "cluster_id": 1, "rank_in_cluster": 4}

>  <energy>  (9) 
-9.61

>  <cluster_rmsd>  (9) 
0.73

>  <cluster>  (9) 
1

$$$$

     RDKit          3D

 76 82  0  0  0  0  0  0  0  0999 V2000
  137.8490   78.5920  223.1240 O   0  0  0  0  0  0  0  0  0  0  0  0
  139.0400   78.9940  223.3310 C   0  0  0  0  0  0  0  0  0  0  0  0
  139.1520   80.2620  223.9720 N   0  0  0  0  0  0  0  0  0  0  0  0
  138.0230   81.0370  224.3590 C   0  0  0  0  0  0  0  0  0  0  0  0
  137.5110   80.9550  225.6380 C   0  0  0  0  0  0  0  0  0  0  0  0
  136.4190   81.7300  225.9540 C   0  0  0  0  0  0  0  0  0  0  0  0
  135.8220   82.5820  225.0400 C   0  0  0  0  0  0  0  0  0  0  0  0
  136.3530   82.6420  223.7800 C   0  0  0  0  0  0  0  0  0  0  0  0
  137.4340   81.8830  223.4510 C   0  0  0  0  0  0  0  0  0  0  0  0
  140.2230   78.1940  222.9330 C   0  0  2  0  0  0  0  0  0  0  0  0
  141.3280   79.0960  222.4490 C   0  0  0  0  0  0  0  0  0  0  0  0
  141.5690   79.0180  220.9770 C   0  0  0  0  0  0  0  0  0  0  0  0
  141.8320   77.6100  220.5430 C   0  0  0  0  0  0  0  0  0  0  0  0
  141.0300   76.6370  221.2230 N   0  0  0  0  0  0  0  0  0  0  0  0
  141.3980   75.2640  221.1720 C   0  0  0  0  0  0  0  0  0  0  0  0
  140.7110   74.3890  221.9270 N   0  0  0  0  0  0  0  0  0  0  0  0
  140.9890   73.0720  221.9420 C   0  0  0  0  0  0  0  0  0  0  0  0
  140.2500   72.1450  222.7530 N   0  0  0  0  0  0  0  0  0  0  0  0
  139.0900   71.5290  222.1360 C   0  0  0  0  0  0  0  0  0  0  0  0
  138.0300   71.4610  223.2330 C   0  0  0  0  0  0  0  0  0  0  0  0
  138.5860   70.5310  224.2720 C   0  0  0  0  0  0  0  0  0  0  0  0
  137.8430   69.4980  224.8020 C   0  0  0  0  0  0  0  0  0  0  0  0
  138.3850   68.6630  225.7530 C   0  0  0  0  0  0  0  0  0  0  0  0
  139.6860   68.8930  226.1520 C   0  0  0  0  0  0  0  0  0  0  0  0
  140.4240   69.9270  225.6180 C   0  0  0  0  0  0  0  0  0  0  0  0
  139.8930   70.7800  224.6590 C   0  0  0  0  0  0  0  0  0  0  0  0
  140.6920   71.8930  224.0850 C   0  0  0  0  0  0  0  0  0  0  0  0
  142.0070   72.6460  221.1490 N   0  0  0  0  0  0  0  0  0  0  0  0
  142.7230   73.4820  220.3760 C   0  0  0  0  0  0  0  0  0  0  0  0
  143.7730   72.9590  219.5750 N   0  0  0  0  0  0  0  0  0  0  0  0
  143.7300   73.2620  218.1560 C   0  0  0  0  0  0  0  0  0  0  0  0
  145.1380   73.1450  217.5570 C   0  0  0  0  0  0  0  0  0  0  0  0
  145.5130   71.7080  217.7720 C   0  0  0  0  0  0  0  0  0  0  0  0
  145.9820   70.9220  216.7360 C   0  0  0  0  0  0  0  0  0  0  0  0
  146.3080   69.6020  217.0170 C   0  0  0  0  0  0  0  0  0  0  0  0
  146.1590   69.1010  218.3140 C   0  0  0  0  0  0  0  0  0  0  0  0
  145.6840   69.9180  219.3380 C   0  0  0  0  0  0  0  0  0  0  0  0
  145.3600   71.2330  219.0600 C   0  0  0  0  0  0  0  0  0  0  0  0
  144.8420   72.1600  220.1250 C   0  0  0  0  0  0  0  0  0  0  0  0
  142.3990   74.7940  220.4040 N   0  0  0  0  0  0  0  0  0  0  0  0
  139.8610   77.1060  221.9440 C   0  0  0  0  0  0  0  0  0  0  0  0
  140.0870   80.6700  224.1800 H   0  0  0  0  0  0  0  0  0  0  0  0
  137.9643   80.2873  226.3855 H   0  0  0  0  0  0  0  0  0  0  0  0
  136.0045   81.6706  226.9712 H   0  0  0  0  0  0  0  0  0  0  0  0
  134.9491   83.1910  225.3177 H   0  0  0  0  0  0  0  0  0  0  0  0
  135.9034   83.3077  223.0285 H   0  0  0  0  0  0  0  0  0  0  0  0
  137.8460   81.9487  222.4332 H   0  0  0  0  0  0  0  0  0  0  0  0
  140.6042   77.6665  223.8198 H   0  0  0  0  0  0  0  0  0  0  0  0
  141.0650   80.1335  222.7028 H   0  0  0  0  0  0  0  0  0  0  0  0
  142.2527   78.7631  222.9430 H   0  0  0  0  0  0  0  0  0  0  0  0
  140.6818   79.3962  220.4481 H   0  0  0  0  0  0  0  0  0  0  0  0
  142.4536   79.6262  220.7373 H   0  0  0  0  0  0  0  0  0  0  0  0
  141.6280   77.5354  219.4647 H   0  0  0  0  0  0  0  0  0  0  0  0
  142.8812   77.3892  220.7887 H   0  0  0  0  0  0  0  0  0  0  0  0
  138.7328   72.1401  221.2940 H   0  0  0  0  0  0  0  0  0  0  0  0
  139.3238   70.5325  221.7332 H   0  0  0  0  0  0  0  0  0  0  0  0
  137.8575   72.4586  223.6631 H   0  0  0  0  0  0  0  0  0  0  0  0
  137.0634   71.1075  222.8447 H   0  0  0  0  0  0  0  0  0  0  0  0
  136.8088   69.3395  224.4624 H   0  0  0  0  0  0  0  0  0  0  0  0
  137.7986   67.8372  226.1821 H   0  0  0  0  0  0  0  0  0  0  0  0
  140.1421   68.2391  226.9099 H   0  0  0  0  0  0  0  0  0  0  0  0
  141.4583   70.0805  225.9594 H   0  0  0  0  0  0  0  0  0  0  0  0
  140.5558   72.7976  224.6958 H   0  0  0  0  0  0  0  0  0  0  0  0
  141.7573   71.6191  224.0768 H   0  0  0  0  0  0  0  0  0  0  0  0
  143.0581   72.5522  217.6512 H   0  0  0  0  0  0  0  0  0  0  0  0
  143.3590   74.2879  218.0146 H   0  0  0  0  0  0  0  0  0  0  0  0
  145.1268   73.3887  216.4844 H   0  0  0  0  0  0  0  0  0  0  0  0
  145.8522   73.8403  218.0222 H   0  0  0  0  0  0  0  0  0  0  0  0
  146.0934   71.3297  215.7205 H   0  0  0  0  0  0  0  0  0  0  0  0
  146.6848   68.9481  216.2167 H   0  0  0  0  0  0  0  0  0  0  0  0
  146.4188   68.0537  218.5276 H   0  0  0  0  0  0  0  0  0  0  0  0
  145.5680   69.5207  220.3572 H   0  0  0  0  0  0  0  0  0  0  0  0
  144.4632   71.5714  220.9735 H   0  0  0  0  0  0  0  0  0  0  0  0
  145.6538   72.8155  220.4733 H   0  0  0  0  0  0  0  0  0  0  0  0
  139.1321   77.5052  221.2234 H   0  0  0  0  0  0  0  0  0  0  0  0
  139.4344   76.2589  222.5012 H   0  0  0  0  0  0  0  0  0  0  0  0
  1  2  2  0
  2  3  1  0
  3  4  1  0
  4  5  2  0
  5  6  1  0
  6  7  2  0
  7  8  1  0
  8  9  2  0
  2 10  1  0
 10 11  1  0
 11 12  1  0
 12 13  1  0
 13 14  1  0
 14 15  1  0
 15 16  2  0
 16 17  1  0
 17 18  1  0
 18 19  1  0
 19 20  1  0
 20 21  1  0
 21 22  2  0
 22 23  1  0
 23 24  2  0
 24 25  1  0
 25 26  2  0
 26 27  1  0
 17 28  2  0
 28 29  1  0
 29 30  1  0
 30 31  1  0
 31 32  1  0
 32 33  1  0
 33 34  2  0
 34 35  1  0
 35 36  2  0
 36 37  1  0
 37 38  2  0
 38 39  1  0
 29 40  2  0
 14 41  1  0
  9  4  1  0
 41 10  1  0
 40 15  1  0
 27 18  1  0
 39 30  1  0
 26 21  1  0
 38 33  1  0
  3 42  1  0
  5 43  1  0
  6 44  1  0
  7 45  1  0
  8 46  1  0
  9 47  1  0
 10 48  1  1
 11 49  1  0
 11 50  1  0
 12 51  1  0
 12 52  1  0
 13 53  1  0
 13 54  1  0
 19 55  1  0
 19 56  1  0
 20 57  1  0
 20 58  1  0
 22 59  1  0
 23 60  1  0
 24 61  1  0
 25 62  1  0
 27 63  1  0
 27 64  1  0
 31 65  1  0
 31 66  1  0
 32 67  1  0
 32 68  1  0
 34 69  1  0
 35 70  1  0
 36 71  1  0
 37 72  1  0
 39 73  1  0
 39 74  1  0
 41 75  1  0
 41 76  1  0
M  END
>  <smiles>  (10) 
O=C(Nc1ccccc1)[C@@H]1CCCN(c2nc(N3CCc4ccccc4C3)nc(N3CCc4ccccc4C3)n2)C1

>  <score_type>  (10) 
oracle

>  <origin>  (10) 
autodockgpu

>  <m_score__min__energy>  (10) 
-9.7799999999999994

>  <m_primary>  (10) 
energy

>  <rmsd>  (10) 
4.825587380825039

>  <m_score__min__rmsd>  (10) 
4.825587380825039

>  <meeko>  (10) 
{"free_energy": -9.14, "intermolecular_energy": -10.63, "internal_energy": -1.33, "cluster_size": 13, "cluster_id": 3, "rank_in_cluster": 11}

>  <energy>  (10) 
-9.59

>  <cluster_rmsd>  (10) 
0.66

>  <cluster>  (10) 
1

$$$$

     RDKit          3D

 76 82  0  0  0  0  0  0  0  0999 V2000
  133.6970   71.9980  223.2300 O   0  0  0  0  0  0  0  0  0  0  0  0
  134.8920   72.3770  223.4590 C   0  0  0  0  0  0  0  0  0  0  0  0
  135.1030   72.9880  224.7300 N   0  0  0  0  0  0  0  0  0  0  0  0
  134.0650   73.1690  225.6850 C   0  0  0  0  0  0  0  0  0  0  0  0
  133.6010   74.4300  225.9990 C   0  0  0  0  0  0  0  0  0  0  0  0
  132.5940   74.5420  226.9310 C   0  0  0  0  0  0  0  0  0  0  0  0
  132.0350   73.4400  227.5580 C   0  0  0  0  0  0  0  0  0  0  0  0
  132.5160   72.2030  227.2250 C   0  0  0  0  0  0  0  0  0  0  0  0
  133.5110   72.0740  226.3050 C   0  0  0  0  0  0  0  0  0  0  0  0
  135.9820   72.1920  222.4710 C   0  0  2  0  0  0  0  0  0  0  0  0
  135.8380   70.8650  221.7740 C   0  0  0  0  0  0  0  0  0  0  0  0
  136.8760   69.8640  222.1620 C   0  0  0  0  0  0  0  0  0  0  0  0
  138.2570   70.4040  221.9540 C   0  0  0  0  0  0  0  0  0  0  0  0
  138.3910   71.7900  222.2880 N   0  0  0  0  0  0  0  0  0  0  0  0
  139.5240   72.5170  221.8290 C   0  0  0  0  0  0  0  0  0  0  0  0
  140.5730   71.8270  221.3470 N   0  0  0  0  0  0  0  0  0  0  0  0
  141.6870   72.4300  220.8910 C   0  0  0  0  0  0  0  0  0  0  0  0
  142.8030   71.6850  220.3780 N   0  0  0  0  0  0  0  0  0  0  0  0
  144.1130   72.2840  220.5500 C   0  0  0  0  0  0  0  0  0  0  0  0
  144.8750   71.9800  219.2610 C   0  0  0  0  0  0  0  0  0  0  0  0
  145.0190   70.4870  219.2230 C   0  0  0  0  0  0  0  0  0  0  0  0
  146.2250   69.8740  218.9630 C   0  0  0  0  0  0  0  0  0  0  0  0
  146.3220   68.5010  218.9360 C   0  0  0  0  0  0  0  0  0  0  0  0
  145.1780   67.7660  219.1760 C   0  0  0  0  0  0  0  0  0  0  0  0
  143.9750   68.3840  219.4340 C   0  0  0  0  0  0  0  0  0  0  0  0
  143.8590   69.7680  219.4650 C   0  0  0  0  0  0  0  0  0  0  0  0
  142.5590   70.4300  219.7450 C   0  0  0  0  0  0  0  0  0  0  0  0
  141.7160   73.7880  220.9320 N   0  0  0  0  0  0  0  0  0  0  0  0
  140.6920   74.5210  221.4040 C   0  0  0  0  0  0  0  0  0  0  0  0
  140.7990   75.9380  221.4140 N   0  0  0  0  0  0  0  0  0  0  0  0
  141.5100   76.5510  220.3070 C   0  0  0  0  0  0  0  0  0  0  0  0
  141.0650   78.0110  220.1500 C   0  0  0  0  0  0  0  0  0  0  0  0
  141.4600   78.6590  221.4440 C   0  0  0  0  0  0  0  0  0  0  0  0
  142.1990   79.8270  221.4720 C   0  0  0  0  0  0  0  0  0  0  0  0
  142.5230   80.3630  222.7100 C   0  0  0  0  0  0  0  0  0  0  0  0
  142.1050   79.7270  223.8840 C   0  0  0  0  0  0  0  0  0  0  0  0
  141.3610   78.5510  223.8240 C   0  0  0  0  0  0  0  0  0  0  0  0
  141.0370   78.0160  222.5920 C   0  0  0  0  0  0  0  0  0  0  0  0
  140.2360   76.7480  222.4670 C   0  0  0  0  0  0  0  0  0  0  0  0
  139.6010   73.8600  221.8500 N   0  0  0  0  0  0  0  0  0  0  0  0
  137.3470   72.3970  223.0930 C   0  0  0  0  0  0  0  0  0  0  0  0
  136.0480   73.3290  225.0030 H   0  0  0  0  0  0  0  0  0  0  0  0
  134.0250   75.3232  225.5168 H   0  0  0  0  0  0  0  0  0  0  0  0
  132.2191   75.5438  227.1876 H   0  0  0  0  0  0  0  0  0  0  0  0
  131.2307   73.5558  228.2994 H   0  0  0  0  0  0  0  0  0  0  0  0
  132.0957   71.3065  227.7041 H   0  0  0  0  0  0  0  0  0  0  0  0
  133.8807   71.0695  226.0515 H   0  0  0  0  0  0  0  0  0  0  0  0
  135.8931   72.9715  221.7000 H   0  0  0  0  0  0  0  0  0  0  0  0
  134.8486   70.4508  222.0180 H   0  0  0  0  0  0  0  0  0  0  0  0
  135.9619   71.0538  220.6974 H   0  0  0  0  0  0  0  0  0  0  0  0
  136.7476   69.6079  223.2240 H   0  0  0  0  0  0  0  0  0  0  0  0
  136.7527   68.9728  221.5292 H   0  0  0  0  0  0  0  0  0  0  0  0
  138.9532   69.8272  222.5806 H   0  0  0  0  0  0  0  0  0  0  0  0
  138.4801   70.3096  220.8810 H   0  0  0  0  0  0  0  0  0  0  0  0
  144.0225   73.3706  220.6956 H   0  0  0  0  0  0  0  0  0  0  0  0
  144.6313   71.8836  221.4338 H   0  0  0  0  0  0  0  0  0  0  0  0
  144.3086   72.3339  218.3870 H   0  0  0  0  0  0  0  0  0  0  0  0
  145.8519   72.4850  219.2357 H   0  0  0  0  0  0  0  0  0  0  0  0
  147.1187   70.4872  218.7752 H   0  0  0  0  0  0  0  0  0  0  0  0
  147.2817   68.0046  218.7295 H   0  0  0  0  0  0  0  0  0  0  0  0
  145.2286   66.6673  219.1608 H   0  0  0  0  0  0  0  0  0  0  0  0
  143.0838   67.7667  219.6202 H   0  0  0  0  0  0  0  0  0  0  0  0
  142.0171   70.5921  218.8016 H   0  0  0  0  0  0  0  0  0  0  0  0
  141.9524   69.7928  220.4053 H   0  0  0  0  0  0  0  0  0  0  0  0
  142.5917   76.5179  220.5042 H   0  0  0  0  0  0  0  0  0  0  0  0
  141.2857   76.0008  219.3813 H   0  0  0  0  0  0  0  0  0  0  0  0
  141.5804   78.4866  219.3025 H   0  0  0  0  0  0  0  0  0  0  0  0
  139.9882   78.1029  219.9450 H   0  0  0  0  0  0  0  0  0  0  0  0
  142.5204   80.3166  220.5409 H   0  0  0  0  0  0  0  0  0  0  0  0
  143.1105   81.2911  222.7687 H   0  0  0  0  0  0  0  0  0  0  0  0
  142.3658   80.1588  224.8615 H   0  0  0  0  0  0  0  0  0  0  0  0
  141.0344   78.0529  224.7488 H   0  0  0  0  0  0  0  0  0  0  0  0
  140.2713   76.1944  223.4169 H   0  0  0  0  0  0  0  0  0  0  0  0
  139.1899   76.9914  222.2294 H   0  0  0  0  0  0  0  0  0  0  0  0
  137.3564   71.9416  224.0942 H   0  0  0  0  0  0  0  0  0  0  0  0
  137.5411   73.4780  223.1548 H   0  0  0  0  0  0  0  0  0  0  0  0
  1  2  2  0
  2  3  1  0
  3  4  1  0
  4  5  2  0
  5  6  1  0
  6  7  2  0
  7  8  1  0
  8  9  2  0
  2 10  1  0
 10 11  1  0
 11 12  1  0
 12 13  1  0
 13 14  1  0
 14 15  1  0
 15 16  2  0
 16 17  1  0
 17 18  1  0
 18 19  1  0
 19 20  1  0
 20 21  1  0
 21 22  2  0
 22 23  1  0
 23 24  2  0
 24 25  1  0
 25 26  2  0
 26 27  1  0
 17 28  2  0
 28 29  1  0
 29 30  1  0
 30 31  1  0
 31 32  1  0
 32 33  1  0
 33 34  2  0
 34 35  1  0
 35 36  2  0
 36 37  1  0
 37 38  2  0
 38 39  1  0
 29 40  2  0
 14 41  1  0
  9  4  1  0
 41 10  1  0
 40 15  1  0
 27 18  1  0
 39 30  1  0
 26 21  1  0
 38 33  1  0
  3 42  1  0
  5 43  1  0
  6 44  1  0
  7 45  1  0
  8 46  1  0
  9 47  1  0
 10 48  1  6
 11 49  1  0
 11 50  1  0
 12 51  1  0
 12 52  1  0
 13 53  1  0
 13 54  1  0
 19 55  1  0
 19 56  1  0
 20 57  1  0
 20 58  1  0
 22 59  1  0
 23 60  1  0
 24 61  1  0
 25 62  1  0
 27 63  1  0
 27 64  1  0
 31 65  1  0
 31 66  1  0
 32 67  1  0
 32 68  1  0
 34 69  1  0
 35 70  1  0
 36 71  1  0
 37 72  1  0
 39 73  1  0
 39 74  1  0
 41 75  1  0
 41 76  1  0
M  END
>  <smiles>  (11) 
O=C(Nc1ccccc1)[C@@H]1CCCN(c2nc(N3CCc4ccccc4C3)nc(N3CCc4ccccc4C3)n2)C1

>  <score_type>  (11) 
oracle

>  <origin>  (11) 
autodockgpu

>  <m_score__min__energy>  (11) 
-9.7799999999999994

>  <m_primary>  (11) 
energy

>  <rmsd>  (11) 
9.786621304200459

>  <m_score__min__rmsd>  (11) 
9.786621304200459

>  <meeko>  (11) 
{"free_energy": -9.34, "intermolecular_energy": -10.83, "internal_energy": -1.31, "cluster_size": 19, "cluster_id": 4, "rank_in_cluster": 18}

>  <energy>  (11) 
-9.56

>  <cluster_rmsd>  (11) 
0.81

>  <cluster>  (11) 
1

$$$$

     RDKit          3D

 76 82  0  0  0  0  0  0  0  0999 V2000
  134.5310   70.4930  223.8210 O   0  0  0  0  0  0  0  0  0  0  0  0
  135.5640   71.2310  223.9270 C   0  0  0  0  0  0  0  0  0  0  0  0
  135.4370   72.3300  224.8260 N   0  0  0  0  0  0  0  0  0  0  0  0
  134.2480   72.5990  225.5590 C   0  0  0  0  0  0  0  0  0  0  0  0
  133.5050   73.7360  225.3150 C   0  0  0  0  0  0  0  0  0  0  0  0
  132.3640   73.9410  226.0560 C   0  0  0  0  0  0  0  0  0  0  0  0
  131.9400   73.0520  227.0310 C   0  0  0  0  0  0  0  0  0  0  0  0
  132.6980   71.9340  227.2490 C   0  0  0  0  0  0  0  0  0  0  0  0
  133.8290   71.7150  226.5250 C   0  0  0  0  0  0  0  0  0  0  0  0
  136.8090   70.9590  223.1690 C   0  0  2  0  0  0  0  0  0  0  0  0
  137.1710   69.5000  223.2610 C   0  0  0  0  0  0  0  0  0  0  0  0
  138.3760   69.2310  224.1020 C   0  0  0  0  0  0  0  0  0  0  0  0
  139.5560   70.0220  223.6330 C   0  0  0  0  0  0  0  0  0  0  0  0
  139.2260   71.3470  223.1990 N   0  0  0  0  0  0  0  0  0  0  0  0
  140.1610   72.0830  222.4190 C   0  0  0  0  0  0  0  0  0  0  0  0
  141.1170   71.4060  221.7590 N   0  0  0  0  0  0  0  0  0  0  0  0
  142.0430   72.0190  220.9980 C   0  0  0  0  0  0  0  0  0  0  0  0
  143.0600   71.2870  220.2960 N   0  0  0  0  0  0  0  0  0  0  0  0
  144.3640   71.9160  220.2090 C   0  0  0  0  0  0  0  0  0  0  0  0
  144.8770   71.6010  218.8050 C   0  0  0  0  0  0  0  0  0  0  0  0
  145.0480   70.1110  218.7640 C   0  0  0  0  0  0  0  0  0  0  0  0
  146.1990   69.5190  218.2920 C   0  0  0  0  0  0  0  0  0  0  0  0
  146.3230   68.1470  218.2700 C   0  0  0  0  0  0  0  0  0  0  0  0
  145.2620   67.3940  218.7330 C   0  0  0  0  0  0  0  0  0  0  0  0
  144.1140   67.9920  219.2030 C   0  0  0  0  0  0  0  0  0  0  0  0
  143.9730   69.3730  219.2330 C   0  0  0  0  0  0  0  0  0  0  0  0
  142.7330   70.0140  219.7420 C   0  0  0  0  0  0  0  0  0  0  0  0
  141.9770   73.3740  220.9140 N   0  0  0  0  0  0  0  0  0  0  0  0
  141.0400   74.0940  221.5550 C   0  0  0  0  0  0  0  0  0  0  0  0
  141.0380   75.5080  221.4190 N   0  0  0  0  0  0  0  0  0  0  0  0
  141.7590   76.0600  220.2860 C   0  0  0  0  0  0  0  0  0  0  0  0
  141.2140   77.4550  219.9530 C   0  0  0  0  0  0  0  0  0  0  0  0
  141.4860   78.2630  221.1870 C   0  0  0  0  0  0  0  0  0  0  0  0
  142.1310   79.4830  221.1230 C   0  0  0  0  0  0  0  0  0  0  0  0
  142.3450   80.1700  222.3110 C   0  0  0  0  0  0  0  0  0  0  0  0
  141.9140   79.6260  223.5250 C   0  0  0  0  0  0  0  0  0  0  0  0
  141.2660   78.3940  223.5580 C   0  0  0  0  0  0  0  0  0  0  0  0
  141.0520   77.7090  222.3760 C   0  0  0  0  0  0  0  0  0  0  0  0
  140.3580   76.3750  222.3510 C   0  0  0  0  0  0  0  0  0  0  0  0
  140.1380   73.4240  222.3060 N   0  0  0  0  0  0  0  0  0  0  0  0
  137.9330   71.8840  223.5820 C   0  0  0  0  0  0  0  0  0  0  0  0
  136.2320   72.9870  224.9750 H   0  0  0  0  0  0  0  0  0  0  0  0
  133.8170   74.4599  224.5477 H   0  0  0  0  0  0  0  0  0  0  0  0
  131.7657   74.8446  225.8674 H   0  0  0  0  0  0  0  0  0  0  0  0
  131.0240   73.2391  227.6107 H   0  0  0  0  0  0  0  0  0  0  0  0
  132.3908   71.2069  228.0151 H   0  0  0  0  0  0  0  0  0  0  0  0
  134.4223   70.8089  226.7172 H   0  0  0  0  0  0  0  0  0  0  0  0
  136.6285   71.1778  222.1062 H   0  0  0  0  0  0  0  0  0  0  0  0
  136.3176   68.9573  223.6937 H   0  0  0  0  0  0  0  0  0  0  0  0
  137.4097   69.1636  222.2413 H   0  0  0  0  0  0  0  0  0  0  0  0
  138.1534   69.5039  225.1441 H   0  0  0  0  0  0  0  0  0  0  0  0
  138.6221   68.1618  224.0228 H   0  0  0  0  0  0  0  0  0  0  0  0
  140.2752   70.0972  224.4619 H   0  0  0  0  0  0  0  0  0  0  0  0
  139.9719   69.4931  222.7628 H   0  0  0  0  0  0  0  0  0  0  0  0
  144.2765   73.0032  220.3512 H   0  0  0  0  0  0  0  0  0  0  0  0
  145.0484   71.5449  220.9861 H   0  0  0  0  0  0  0  0  0  0  0  0
  144.1478   71.9250  218.0479 H   0  0  0  0  0  0  0  0  0  0  0  0
  145.8193   72.1254  218.5883 H   0  0  0  0  0  0  0  0  0  0  0  0
  147.0261   70.1471  217.9296 H   0  0  0  0  0  0  0  0  0  0  0  0
  147.2387   67.6663  217.8953 H   0  0  0  0  0  0  0  0  0  0  0  0
  145.3352   66.2965  218.7262 H   0  0  0  0  0  0  0  0  0  0  0  0
  143.2887   67.3603  219.5634 H   0  0  0  0  0  0  0  0  0  0  0  0
  142.0194   70.1443  218.9151 H   0  0  0  0  0  0  0  0  0  0  0  0
  142.2779   69.3786  220.5160 H   0  0  0  0  0  0  0  0  0  0  0  0
  142.8278   76.1353  220.5348 H   0  0  0  0  0  0  0  0  0  0  0  0
  141.6268   75.4010  219.4152 H   0  0  0  0  0  0  0  0  0  0  0  0
  141.7380   77.8811  219.0848 H   0  0  0  0  0  0  0  0  0  0  0  0
  140.1463   77.4372  219.6890 H   0  0  0  0  0  0  0  0  0  0  0  0
  142.4649   79.8977  220.1605 H   0  0  0  0  0  0  0  0  0  0  0  0
  142.8549   81.1446  222.2969 H   0  0  0  0  0  0  0  0  0  0  0  0
  142.0883   80.1759  224.4616 H   0  0  0  0  0  0  0  0  0  0  0  0
  140.9277   77.9698  224.5149 H   0  0  0  0  0  0  0  0  0  0  0  0
  140.3825   75.9278  223.3557 H   0  0  0  0  0  0  0  0  0  0  0  0
  139.3113   76.5068  222.0395 H   0  0  0  0  0  0  0  0  0  0  0  0
  137.9079   72.0130  224.6741 H   0  0  0  0  0  0  0  0  0  0  0  0
  137.7933   72.8489  223.0727 H   0  0  0  0  0  0  0  0  0  0  0  0
  1  2  2  0
  2  3  1  0
  3  4  1  0
  4  5  2  0
  5  6  1  0
  6  7  2  0
  7  8  1  0
  8  9  2  0
  2 10  1  0
 10 11  1  0
 11 12  1  0
 12 13  1  0
 13 14  1  0
 14 15  1  0
 15 16  2  0
 16 17  1  0
 17 18  1  0
 18 19  1  0
 19 20  1  0
 20 21  1  0
 21 22  2  0
 22 23  1  0
 23 24  2  0
 24 25  1  0
 25 26  2  0
 26 27  1  0
 17 28  2  0
 28 29  1  0
 29 30  1  0
 30 31  1  0
 31 32  1  0
 32 33  1  0
 33 34  2  0
 34 35  1  0
 35 36  2  0
 36 37  1  0
 37 38  2  0
 38 39  1  0
 29 40  2  0
 14 41  1  0
  9  4  1  0
 41 10  1  0
 40 15  1  0
 27 18  1  0
 39 30  1  0
 26 21  1  0
 38 33  1  0
  3 42  1  0
  5 43  1  0
  6 44  1  0
  7 45  1  0
  8 46  1  0
  9 47  1  0
 10 48  1  6
 11 49  1  0
 11 50  1  0
 12 51  1  0
 12 52  1  0
 13 53  1  0
 13 54  1  0
 19 55  1  0
 19 56  1  0
 20 57  1  0
 20 58  1  0
 22 59  1  0
 23 60  1  0
 24 61  1  0
 25 62  1  0
 27 63  1  0
 27 64  1  0
 31 65  1  0
 31 66  1  0
 32 67  1  0
 32 68  1  0
 34 69  1  0
 35 70  1  0
 36 71  1  0
 37 72  1  0
 39 73  1  0
 39 74  1  0
 41 75  1  0
 41 76  1  0
M  END
>  <smiles>  (12) 
O=C(Nc1ccccc1)[C@@H]1CCCN(c2nc(N3CCc4ccccc4C3)nc(N3CCc4ccccc4C3)n2)C1

>  <score_type>  (12) 
oracle

>  <origin>  (12) 
autodockgpu

>  <m_score__min__energy>  (12) 
-9.7799999999999994

>  <m_primary>  (12) 
energy

>  <rmsd>  (12) 
10.297683790746014

>  <m_score__min__rmsd>  (12) 
10.297683790746014

>  <meeko>  (12) 
{"free_energy": -9.41, "intermolecular_energy": -10.9, "internal_energy": -1.31, "cluster_size": 19, "cluster_id": 4, "rank_in_cluster": 5}

>  <energy>  (12) 
-9.51

>  <cluster_rmsd>  (12) 
0.57

>  <cluster>  (12) 
1

$$$$

     RDKit          3D

 76 82  0  0  0  0  0  0  0  0999 V2000
  135.9900   68.7640  222.9410 O   0  0  0  0  0  0  0  0  0  0  0  0
  136.7070   69.3090  223.8430 C   0  0  0  0  0  0  0  0  0  0  0  0
  136.0370   69.5790  225.0720 N   0  0  0  0  0  0  0  0  0  0  0  0
  134.6660   69.2690  225.2920 C   0  0  0  0  0  0  0  0  0  0  0  0
  133.6990   70.2520  225.2430 C   0  0  0  0  0  0  0  0  0  0  0  0
  132.3890   69.8910  225.4630 C   0  0  0  0  0  0  0  0  0  0  0  0
  132.0130   68.5840  225.7310 C   0  0  0  0  0  0  0  0  0  0  0  0
  132.9950   67.6320  225.7730 C   0  0  0  0  0  0  0  0  0  0  0  0
  134.2950   67.9720  225.5560 C   0  0  0  0  0  0  0  0  0  0  0  0
  138.1360   69.6350  223.6240 C   0  0  2  0  0  0  0  0  0  0  0  0
  138.9820   69.0500  224.7250 C   0  0  0  0  0  0  0  0  0  0  0  0
  139.5450   70.0700  225.6590 C   0  0  0  0  0  0  0  0  0  0  0  0
  140.3200   71.1160  224.9200 C   0  0  0  0  0  0  0  0  0  0  0  0
  139.7340   71.4900  223.6680 N   0  0  0  0  0  0  0  0  0  0  0  0
  140.5140   72.2010  222.7130 C   0  0  0  0  0  0  0  0  0  0  0  0
  141.4210   71.5180  221.9930 N   0  0  0  0  0  0  0  0  0  0  0  0
  142.2010   72.1070  221.0670 C   0  0  0  0  0  0  0  0  0  0  0  0
  143.1680   71.3690  220.3030 N   0  0  0  0  0  0  0  0  0  0  0  0
  144.4730   71.9840  220.1450 C   0  0  0  0  0  0  0  0  0  0  0  0
  144.9010   71.6760  218.7120 C   0  0  0  0  0  0  0  0  0  0  0  0
  145.0500   70.1840  218.6490 C   0  0  0  0  0  0  0  0  0  0  0  0
  146.1650   69.5820  218.1060 C   0  0  0  0  0  0  0  0  0  0  0  0
  146.2700   68.2100  218.0660 C   0  0  0  0  0  0  0  0  0  0  0  0
  145.2280   67.4650  218.5830 C   0  0  0  0  0  0  0  0  0  0  0  0
  144.1160   68.0720  219.1230 C   0  0  0  0  0  0  0  0  0  0  0  0
  143.9940   69.4540  219.1730 C   0  0  0  0  0  0  0  0  0  0  0  0
  142.7930   70.1060  219.7570 C   0  0  0  0  0  0  0  0  0  0  0  0
  142.0370   73.4430  220.8800 N   0  0  0  0  0  0  0  0  0  0  0  0
  141.1440   74.1680  221.5750 C   0  0  0  0  0  0  0  0  0  0  0  0
  141.0330   75.5610  221.3210 N   0  0  0  0  0  0  0  0  0  0  0  0
  141.6550   76.0600  220.1090 C   0  0  0  0  0  0  0  0  0  0  0  0
  140.9950   77.3810  219.6900 C   0  0  0  0  0  0  0  0  0  0  0  0
  141.2690   78.3100  220.8360 C   0  0  0  0  0  0  0  0  0  0  0  0
  141.8190   79.5610  220.6350 C   0  0  0  0  0  0  0  0  0  0  0  0
  142.0420   80.3610  221.7480 C   0  0  0  0  0  0  0  0  0  0  0  0
  141.7110   79.8970  223.0250 C   0  0  0  0  0  0  0  0  0  0  0  0
  141.1560   78.6310  223.1960 C   0  0  0  0  0  0  0  0  0  0  0  0
  140.9340   77.8330  222.0900 C   0  0  0  0  0  0  0  0  0  0  0  0
  140.3390   76.4580  222.2140 C   0  0  0  0  0  0  0  0  0  0  0  0
  140.3890   73.5220  222.4910 N   0  0  0  0  0  0  0  0  0  0  0  0
  138.3510   71.1200  223.4280 C   0  0  0  0  0  0  0  0  0  0  0  0
  136.5440   70.0240  225.8650 H   0  0  0  0  0  0  0  0  0  0  0  0
  133.9681   71.2978  225.0334 H   0  0  0  0  0  0  0  0  0  0  0  0
  131.6118   70.6685  225.4247 H   0  0  0  0  0  0  0  0  0  0  0  0
  130.9592   68.3206  225.9043 H   0  0  0  0  0  0  0  0  0  0  0  0
  132.7320   66.5849  225.9835 H   0  0  0  0  0  0  0  0  0  0  0  0
  135.0675   67.1898  225.5928 H   0  0  0  0  0  0  0  0  0  0  0  0
  138.4632   69.1667  222.6839 H   0  0  0  0  0  0  0  0  0  0  0  0
  138.3609   68.3527  225.3064 H   0  0  0  0  0  0  0  0  0  0  0  0
  139.8357   68.5515  224.2426 H   0  0  0  0  0  0  0  0  0  0  0  0
  138.7192   70.5529  226.2021 H   0  0  0  0  0  0  0  0  0  0  0  0
  140.2263   69.5622  226.3575 H   0  0  0  0  0  0  0  0  0  0  0  0
  140.3856   72.0124  225.5542 H   0  0  0  0  0  0  0  0  0  0  0  0
  141.3077   70.6863  224.6968 H   0  0  0  0  0  0  0  0  0  0  0  0
  144.4067   73.0709  220.3008 H   0  0  0  0  0  0  0  0  0  0  0  0
  145.1966   71.5977  220.8780 H   0  0  0  0  0  0  0  0  0  0  0  0
  144.1341   72.0160  218.0004 H   0  0  0  0  0  0  0  0  0  0  0  0
  145.8361   72.1907  218.4462 H   0  0  0  0  0  0  0  0  0  0  0  0
  146.9776   70.2032  217.7013 H   0  0  0  0  0  0  0  0  0  0  0  0
  147.1567   67.7218  217.6354 H   0  0  0  0  0  0  0  0  0  0  0  0
  145.2875   66.3668  218.5630 H   0  0  0  0  0  0  0  0  0  0  0  0
  143.3049   67.4467  219.5244 H   0  0  0  0  0  0  0  0  0  0  0  0
  142.0358   70.2536  218.9729 H   0  0  0  0  0  0  0  0  0  0  0  0
  142.3734   69.4690  220.5496 H   0  0  0  0  0  0  0  0  0  0  0  0
  142.7264   76.2292  220.2917 H   0  0  0  0  0  0  0  0  0  0  0  0
  141.5277   75.3201  219.3050 H   0  0  0  0  0  0  0  0  0  0  0  0
  141.4438   77.7640  218.7616 H   0  0  0  0  0  0  0  0  0  0  0  0
  139.9198   77.2686  219.4870 H   0  0  0  0  0  0  0  0  0  0  0  0
  142.0726   79.9128  219.6241 H   0  0  0  0  0  0  0  0  0  0  0  0
  142.4802   81.3624  221.6248 H   0  0  0  0  0  0  0  0  0  0  0  0
  141.8904   80.5370  223.9015 H   0  0  0  0  0  0  0  0  0  0  0  0
  140.8968   78.2698  224.2022 H   0  0  0  0  0  0  0  0  0  0  0  0
  140.4456   76.1025  223.2495 H   0  0  0  0  0  0  0  0  0  0  0  0
  139.2715   76.4909  221.9506 H   0  0  0  0  0  0  0  0  0  0  0  0
  137.7062   71.6708  224.1286 H   0  0  0  0  0  0  0  0  0  0  0  0
  138.1003   71.3722  222.3871 H   0  0  0  0  0  0  0  0  0  0  0  0
  1  2  2  0
  2  3  1  0
  3  4  1  0
  4  5  2  0
  5  6  1  0
  6  7  2  0
  7  8  1  0
  8  9  2  0
  2 10  1  0
 10 11  1  0
 11 12  1  0
 12 13  1  0
 13 14  1  0
 14 15  1  0
 15 16  2  0
 16 17  1  0
 17 18  1  0
 18 19  1  0
 19 20  1  0
 20 21  1  0
 21 22  2  0
 22 23  1  0
 23 24  2  0
 24 25  1  0
 25 26  2  0
 26 27  1  0
 17 28  2  0
 28 29  1  0
 29 30  1  0
 30 31  1  0
 31 32  1  0
 32 33  1  0
 33 34  2  0
 34 35  1  0
 35 36  2  0
 36 37  1  0
 37 38  2  0
 38 39  1  0
 29 40  2  0
 14 41  1  0
  9  4  1  0
 41 10  1  0
 40 15  1  0
 27 18  1  0
 39 30  1  0
 26 21  1  0
 38 33  1  0
  3 42  1  0
  5 43  1  0
  6 44  1  0
  7 45  1  0
  8 46  1  0
  9 47  1  0
 10 48  1  6
 11 49  1  0
 11 50  1  0
 12 51  1  0
 12 52  1  0
 13 53  1  0
 13 54  1  0
 19 55  1  0
 19 56  1  0
 20 57  1  0
 20 58  1  0
 22 59  1  0
 23 60  1  0
 24 61  1  0
 25 62  1  0
 27 63  1  0
 27 64  1  0
 31 65  1  0
 31 66  1  0
 32 67  1  0
 32 68  1  0
 34 69  1  0
 35 70  1  0
 36 71  1  0
 37 72  1  0
 39 73  1  0
 39 74  1  0
 41 75  1  0
 41 76  1  0
M  END
>  <smiles>  (13) 
O=C(Nc1ccccc1)[C@@H]1CCCN(c2nc(N3CCc4ccccc4C3)nc(N3CCc4ccccc4C3)n2)C1

>  <score_type>  (13) 
oracle

>  <origin>  (13) 
autodockgpu

>  <m_score__min__energy>  (13) 
-9.7799999999999994

>  <m_primary>  (13) 
energy

>  <rmsd>  (13) 
11.88727403581573

>  <m_score__min__rmsd>  (13) 
11.88727403581573

>  <meeko>  (13) 
{"free_energy": -9.4, "intermolecular_energy": -10.89, "internal_energy": -1.35, "cluster_size": 19, "cluster_id": 4, "rank_in_cluster": 9}

>  <energy>  (13) 
-9.38

>  <cluster_rmsd>  (13) 
0.76

>  <cluster>  (13) 
1

$$$$

     RDKit          3D

 76 82  0  0  0  0  0  0  0  0999 V2000
  136.0250   68.7070  222.9850 O   0  0  0  0  0  0  0  0  0  0  0  0
  136.7300   69.2710  223.8850 C   0  0  0  0  0  0  0  0  0  0  0  0
  136.0500   69.5470  225.1060 N   0  0  0  0  0  0  0  0  0  0  0  0
  134.6820   69.2230  225.3230 C   0  0  0  0  0  0  0  0  0  0  0  0
  133.6990   70.1860  225.2120 C   0  0  0  0  0  0  0  0  0  0  0  0
  132.3930   69.8120  225.4320 C   0  0  0  0  0  0  0  0  0  0  0  0
  132.0350   68.5140  225.7580 C   0  0  0  0  0  0  0  0  0  0  0  0
  133.0320   67.5830  225.8600 C   0  0  0  0  0  0  0  0  0  0  0  0
  134.3290   67.9350  225.6450 C   0  0  0  0  0  0  0  0  0  0  0  0
  138.1570   69.6110  223.6700 C   0  0  2  0  0  0  0  0  0  0  0  0
  139.0030   69.0530  224.7850 C   0  0  0  0  0  0  0  0  0  0  0  0
  139.5480   70.0930  225.7080 C   0  0  0  0  0  0  0  0  0  0  0  0
  140.3140   71.1370  224.9580 C   0  0  0  0  0  0  0  0  0  0  0  0
  139.7330   71.4860  223.6970 N   0  0  0  0  0  0  0  0  0  0  0  0
  140.5100   72.1910  222.7370 C   0  0  0  0  0  0  0  0  0  0  0  0
  141.4130   71.5040  222.0150 N   0  0  0  0  0  0  0  0  0  0  0  0
  142.1910   72.0890  221.0850 C   0  0  0  0  0  0  0  0  0  0  0  0
  143.1530   71.3470  220.3190 N   0  0  0  0  0  0  0  0  0  0  0  0
  144.4610   71.9540  220.1630 C   0  0  0  0  0  0  0  0  0  0  0  0
  144.8880   71.6450  218.7290 C   0  0  0  0  0  0  0  0  0  0  0  0
  145.0280   70.1530  218.6640 C   0  0  0  0  0  0  0  0  0  0  0  0
  146.1400   69.5450  218.1200 C   0  0  0  0  0  0  0  0  0  0  0  0
  146.2370   68.1720  218.0780 C   0  0  0  0  0  0  0  0  0  0  0  0
  145.1910   67.4330  218.5930 C   0  0  0  0  0  0  0  0  0  0  0  0
  144.0830   68.0460  219.1350 C   0  0  0  0  0  0  0  0  0  0  0  0
  143.9680   69.4290  219.1860 C   0  0  0  0  0  0  0  0  0  0  0  0
  142.7720   70.0860  219.7720 C   0  0  0  0  0  0  0  0  0  0  0  0
  142.0290   73.4240  220.8930 N   0  0  0  0  0  0  0  0  0  0  0  0
  141.1400   74.1540  221.5900 C   0  0  0  0  0  0  0  0  0  0  0  0
  141.0300   75.5460  221.3310 N   0  0  0  0  0  0  0  0  0  0  0  0
  141.6620   76.0420  220.1220 C   0  0  0  0  0  0  0  0  0  0  0  0
  141.0040   77.3610  219.6960 C   0  0  0  0  0  0  0  0  0  0  0  0
  141.2690   78.2940  220.8410 C   0  0  0  0  0  0  0  0  0  0  0  0
  141.8210   79.5440  220.6410 C   0  0  0  0  0  0  0  0  0  0  0  0
  142.0350   80.3470  221.7540 C   0  0  0  0  0  0  0  0  0  0  0  0
  141.6950   79.8870  223.0300 C   0  0  0  0  0  0  0  0  0  0  0  0
  141.1390   78.6210  223.2000 C   0  0  0  0  0  0  0  0  0  0  0  0
  140.9250   77.8200  222.0940 C   0  0  0  0  0  0  0  0  0  0  0  0
  140.3290   76.4450  222.2170 C   0  0  0  0  0  0  0  0  0  0  0  0
  140.3870   73.5120  222.5110 N   0  0  0  0  0  0  0  0  0  0  0  0
  138.3560   71.0960  223.4540 C   0  0  0  0  0  0  0  0  0  0  0  0
  136.5480   70.0060  225.8980 H   0  0  0  0  0  0  0  0  0  0  0  0
  133.9530   71.2248  224.9545 H   0  0  0  0  0  0  0  0  0  0  0  0
  131.6032   70.5728  225.3457 H   0  0  0  0  0  0  0  0  0  0  0  0
  130.9833   68.2409  225.9292 H   0  0  0  0  0  0  0  0  0  0  0  0
  132.7838   66.5428  226.1175 H   0  0  0  0  0  0  0  0  0  0  0  0
  135.1140   67.1693  225.7312 H   0  0  0  0  0  0  0  0  0  0  0  0
  138.4951   69.1327  222.7389 H   0  0  0  0  0  0  0  0  0  0  0  0
  138.3866   68.3568  225.3726 H   0  0  0  0  0  0  0  0  0  0  0  0
  139.8659   68.5585  224.3151 H   0  0  0  0  0  0  0  0  0  0  0  0
  138.7133   70.5735  226.2395 H   0  0  0  0  0  0  0  0  0  0  0  0
  140.2310   69.6039  226.4181 H   0  0  0  0  0  0  0  0  0  0  0  0
  140.3644   72.0433  225.5793 H   0  0  0  0  0  0  0  0  0  0  0  0
  141.3078   70.7152  224.7469 H   0  0  0  0  0  0  0  0  0  0  0  0
  144.4012   73.0411  220.3202 H   0  0  0  0  0  0  0  0  0  0  0  0
  145.1818   71.5626  220.8960 H   0  0  0  0  0  0  0  0  0  0  0  0
  144.1235   71.9905  218.0175 H   0  0  0  0  0  0  0  0  0  0  0  0
  145.8264   72.1544  218.4644 H   0  0  0  0  0  0  0  0  0  0  0  0
  146.9563   70.1620  217.7163 H   0  0  0  0  0  0  0  0  0  0  0  0
  147.1210   67.6792  217.6472 H   0  0  0  0  0  0  0  0  0  0  0  0
  145.2433   66.3345  218.5701 H   0  0  0  0  0  0  0  0  0  0  0  0
  143.2692   67.4248  219.5373 H   0  0  0  0  0  0  0  0  0  0  0  0
  142.0145   70.2379  218.9890 H   0  0  0  0  0  0  0  0  0  0  0  0
  142.3511   69.4502  220.5648 H   0  0  0  0  0  0  0  0  0  0  0  0
  142.7319   76.2123  220.3125 H   0  0  0  0  0  0  0  0  0  0  0  0
  141.5425   75.3001  219.3187 H   0  0  0  0  0  0  0  0  0  0  0  0
  141.4586   77.7420  218.7696 H   0  0  0  0  0  0  0  0  0  0  0  0
  139.9301   77.2467  219.4867 H   0  0  0  0  0  0  0  0  0  0  0  0
  142.0831   79.8930  219.6313 H   0  0  0  0  0  0  0  0  0  0  0  0
  142.4735   81.3483  221.6312 H   0  0  0  0  0  0  0  0  0  0  0  0
  141.8678   80.5295  223.9060 H   0  0  0  0  0  0  0  0  0  0  0  0
  140.8727   78.2621  224.2051 H   0  0  0  0  0  0  0  0  0  0  0  0
  140.4280   76.0919  223.2541 H   0  0  0  0  0  0  0  0  0  0  0  0
  139.2634   76.4770  221.9458 H   0  0  0  0  0  0  0  0  0  0  0  0
  137.7004   71.6490  224.1427 H   0  0  0  0  0  0  0  0  0  0  0  0
  138.1090   71.3302  222.4080 H   0  0  0  0  0  0  0  0  0  0  0  0
  1  2  2  0
  2  3  1  0
  3  4  1  0
  4  5  2  0
  5  6  1  0
  6  7  2  0
  7  8  1  0
  8  9  2  0
  2 10  1  0
 10 11  1  0
 11 12  1  0
 12 13  1  0
 13 14  1  0
 14 15  1  0
 15 16  2  0
 16 17  1  0
 17 18  1  0
 18 19  1  0
 19 20  1  0
 20 21  1  0
 21 22  2  0
 22 23  1  0
 23 24  2  0
 24 25  1  0
 25 26  2  0
 26 27  1  0
 17 28  2  0
 28 29  1  0
 29 30  1  0
 30 31  1  0
 31 32  1  0
 32 33  1  0
 33 34  2  0
 34 35  1  0
 35 36  2  0
 36 37  1  0
 37 38  2  0
 38 39  1  0
 29 40  2  0
 14 41  1  0
  9  4  1  0
 41 10  1  0
 40 15  1  0
 27 18  1  0
 39 30  1  0
 26 21  1  0
 38 33  1  0
  3 42  1  0
  5 43  1  0
  6 44  1  0
  7 45  1  0
  8 46  1  0
  9 47  1  0
 10 48  1  6
 11 49  1  0
 11 50  1  0
 12 51  1  0
 12 52  1  0
 13 53  1  0
 13 54  1  0
 19 55  1  0
 19 56  1  0
 20 57  1  0
 20 58  1  0
 22 59  1  0
 23 60  1  0
 24 61  1  0
 25 62  1  0
 27 63  1  0
 27 64  1  0
 31 65  1  0
 31 66  1  0
 32 67  1  0
 32 68  1  0
 34 69  1  0
 35 70  1  0
 36 71  1  0
 37 72  1  0
 39 73  1  0
 39 74  1  0
 41 75  1  0
 41 76  1  0
M  END
>  <smiles>  (14) 
O=C(Nc1ccccc1)[C@@H]1CCCN(c2nc(N3CCc4ccccc4C3)nc(N3CCc4ccccc4C3)n2)C1

>  <score_type>  (14) 
oracle

>  <origin>  (14) 
autodockgpu

>  <m_score__min__energy>  (14) 
-9.7799999999999994

>  <m_primary>  (14) 
energy

>  <rmsd>  (14) 
11.925097845455221

>  <m_score__min__rmsd>  (14) 
11.925097845455221

>  <meeko>  (14) 
{"free_energy": -9.4, "intermolecular_energy": -10.89, "internal_energy": -1.36, "cluster_size": 19, "cluster_id": 4, "rank_in_cluster": 13}

>  <energy>  (14) 
-9.32

>  <cluster_rmsd>  (14) 
0.82

>  <cluster>  (14) 
1

$$$$

     RDKit          3D

 76 82  0  0  0  0  0  0  0  0999 V2000
  134.5380   70.4930  223.8040 O   0  0  0  0  0  0  0  0  0  0  0  0
  135.5710   71.2330  223.9090 C   0  0  0  0  0  0  0  0  0  0  0  0
  135.4420   72.3330  224.8050 N   0  0  0  0  0  0  0  0  0  0  0  0
  134.2530   72.6010  225.5390 C   0  0  0  0  0  0  0  0  0  0  0  0
  133.4900   73.7190  225.2700 C   0  0  0  0  0  0  0  0  0  0  0  0
  132.3490   73.9250  226.0120 C   0  0  0  0  0  0  0  0  0  0  0  0
  131.9450   73.0540  227.0110 C   0  0  0  0  0  0  0  0  0  0  0  0
  132.7220   71.9540  227.2530 C   0  0  0  0  0  0  0  0  0  0  0  0
  133.8530   71.7350  226.5280 C   0  0  0  0  0  0  0  0  0  0  0  0
  136.8160   70.9620  223.1500 C   0  0  2  0  0  0  0  0  0  0  0  0
  137.1810   69.5040  223.2460 C   0  0  0  0  0  0  0  0  0  0  0  0
  138.3870   69.2390  224.0880 C   0  0  0  0  0  0  0  0  0  0  0  0
  139.5650   70.0320  223.6160 C   0  0  0  0  0  0  0  0  0  0  0  0
  139.2330   71.3550  223.1800 N   0  0  0  0  0  0  0  0  0  0  0  0
  140.1660   72.0910  222.3990 C   0  0  0  0  0  0  0  0  0  0  0  0
  141.1230   71.4150  221.7390 N   0  0  0  0  0  0  0  0  0  0  0  0
  142.0470   72.0280  220.9760 C   0  0  0  0  0  0  0  0  0  0  0  0
  143.0660   71.2960  220.2760 N   0  0  0  0  0  0  0  0  0  0  0  0
  144.3710   71.9240  220.1930 C   0  0  0  0  0  0  0  0  0  0  0  0
  144.8870   71.6130  218.7900 C   0  0  0  0  0  0  0  0  0  0  0  0
  145.0560   70.1220  218.7450 C   0  0  0  0  0  0  0  0  0  0  0  0
  146.2070   69.5300  218.2740 C   0  0  0  0  0  0  0  0  0  0  0  0
  146.3290   68.1580  218.2490 C   0  0  0  0  0  0  0  0  0  0  0  0
  145.2660   67.4050  218.7070 C   0  0  0  0  0  0  0  0  0  0  0  0
  144.1180   68.0030  219.1760 C   0  0  0  0  0  0  0  0  0  0  0  0
  143.9780   69.3840  219.2090 C   0  0  0  0  0  0  0  0  0  0  0  0
  142.7380   70.0260  219.7170 C   0  0  0  0  0  0  0  0  0  0  0  0
  141.9790   73.3820  220.8910 N   0  0  0  0  0  0  0  0  0  0  0  0
  141.0410   74.1030  221.5320 C   0  0  0  0  0  0  0  0  0  0  0  0
  141.0370   75.5160  221.3930 N   0  0  0  0  0  0  0  0  0  0  0  0
  141.7370   76.0660  220.2470 C   0  0  0  0  0  0  0  0  0  0  0  0
  141.1860   77.4610  219.9210 C   0  0  0  0  0  0  0  0  0  0  0  0
  141.4820   78.2710  221.1490 C   0  0  0  0  0  0  0  0  0  0  0  0
  142.1260   79.4910  221.0720 C   0  0  0  0  0  0  0  0  0  0  0  0
  142.3620   80.1790  222.2540 C   0  0  0  0  0  0  0  0  0  0  0  0
  141.9530   79.6370  223.4770 C   0  0  0  0  0  0  0  0  0  0  0  0
  141.3050   78.4050  223.5240 C   0  0  0  0  0  0  0  0  0  0  0  0
  141.0690   77.7190  222.3470 C   0  0  0  0  0  0  0  0  0  0  0  0
  140.3740   76.3840  222.3370 C   0  0  0  0  0  0  0  0  0  0  0  0
  140.1410   73.4320  222.2840 N   0  0  0  0  0  0  0  0  0  0  0  0
  137.9390   71.8900  223.5620 C   0  0  0  0  0  0  0  0  0  0  0  0
  136.2350   72.9910  224.9540 H   0  0  0  0  0  0  0  0  0  0  0  0
  133.7861   74.4277  224.4825 H   0  0  0  0  0  0  0  0  0  0  0  0
  131.7353   74.8139  225.8041 H   0  0  0  0  0  0  0  0  0  0  0  0
  131.0291   73.2408  227.5909 H   0  0  0  0  0  0  0  0  0  0  0  0
  132.4306   71.2417  228.0390 H   0  0  0  0  0  0  0  0  0  0  0  0
  134.4615   70.8432  226.7389 H   0  0  0  0  0  0  0  0  0  0  0  0
  136.6346   71.1782  222.0868 H   0  0  0  0  0  0  0  0  0  0  0  0
  136.3286   68.9608  223.6801 H   0  0  0  0  0  0  0  0  0  0  0  0
  137.4206   69.1656  222.2271 H   0  0  0  0  0  0  0  0  0  0  0  0
  138.1642   69.5139  225.1295 H   0  0  0  0  0  0  0  0  0  0  0  0
  138.6353   68.1701  224.0120 H   0  0  0  0  0  0  0  0  0  0  0  0
  140.2850   70.1100  224.4440 H   0  0  0  0  0  0  0  0  0  0  0  0
  139.9803   69.5024  222.7459 H   0  0  0  0  0  0  0  0  0  0  0  0
  144.2841   73.0109  220.3381 H   0  0  0  0  0  0  0  0  0  0  0  0
  145.0534   71.5496  220.9703 H   0  0  0  0  0  0  0  0  0  0  0  0
  144.1602   71.9404  218.0320 H   0  0  0  0  0  0  0  0  0  0  0  0
  145.8306   72.1368  218.5773 H   0  0  0  0  0  0  0  0  0  0  0  0
  147.0357   70.1579  217.9148 H   0  0  0  0  0  0  0  0  0  0  0  0
  147.2451   67.6771  217.8756 H   0  0  0  0  0  0  0  0  0  0  0  0
  145.3377   66.3074  218.6970 H   0  0  0  0  0  0  0  0  0  0  0  0
  143.2914   67.3712  219.5333 H   0  0  0  0  0  0  0  0  0  0  0  0
  142.0269   70.1606  218.8886 H   0  0  0  0  0  0  0  0  0  0  0  0
  142.2796   69.3889  220.4877 H   0  0  0  0  0  0  0  0  0  0  0  0
  142.8101   76.1418  220.4765 H   0  0  0  0  0  0  0  0  0  0  0  0
  141.5890   75.4055  219.3799 H   0  0  0  0  0  0  0  0  0  0  0  0
  141.6938   77.8853  219.0423 H   0  0  0  0  0  0  0  0  0  0  0  0
  140.1136   77.4435  219.6767 H   0  0  0  0  0  0  0  0  0  0  0  0
  142.4422   79.9045  220.1030 H   0  0  0  0  0  0  0  0  0  0  0  0
  142.8721   81.1533  222.2290 H   0  0  0  0  0  0  0  0  0  0  0  0
  142.1447   80.1884  224.4093 H   0  0  0  0  0  0  0  0  0  0  0  0
  140.9843   77.9822  224.4875 H   0  0  0  0  0  0  0  0  0  0  0  0
  140.4175   75.9380  223.3416 H   0  0  0  0  0  0  0  0  0  0  0  0
  139.3215   76.5152  222.0455 H   0  0  0  0  0  0  0  0  0  0  0  0
  137.9135   72.0204  224.6539 H   0  0  0  0  0  0  0  0  0  0  0  0
  137.7976   72.8539  223.0512 H   0  0  0  0  0  0  0  0  0  0  0  0
  1  2  2  0
  2  3  1  0
  3  4  1  0
  4  5  2  0
  5  6  1  0
  6  7  2  0
  7  8  1  0
  8  9  2  0
  2 10  1  0
 10 11  1  0
 11 12  1  0
 12 13  1  0
 13 14  1  0
 14 15  1  0
 15 16  2  0
 16 17  1  0
 17 18  1  0
 18 19  1  0
 19 20  1  0
 20 21  1  0
 21 22  2  0
 22 23  1  0
 23 24  2  0
 24 25  1  0
 25 26  2  0
 26 27  1  0
 17 28  2  0
 28 29  1  0
 29 30  1  0
 30 31  1  0
 31 32  1  0
 32 33  1  0
 33 34  2  0
 34 35  1  0
 35 36  2  0
 36 37  1  0
 37 38  2  0
 38 39  1  0
 29 40  2  0
 14 41  1  0
  9  4  1  0
 41 10  1  0
 40 15  1  0
 27 18  1  0
 39 30  1  0
 26 21  1  0
 38 33  1  0
  3 42  1  0
  5 43  1  0
  6 44  1  0
  7 45  1  0
  8 46  1  0
  9 47  1  0
 10 48  1  6
 11 49  1  0
 11 50  1  0
 12 51  1  0
 12 52  1  0
 13 53  1  0
 13 54  1  0
 19 55  1  0
 19 56  1  0
 20 57  1  0
 20 58  1  0
 22 59  1  0
 23 60  1  0
 24 61  1  0
 25 62  1  0
 27 63  1  0
 27 64  1  0
 31 65  1  0
 31 66  1  0
 32 67  1  0
 32 68  1  0
 34 69  1  0
 35 70  1  0
 36 71  1  0
 37 72  1  0
 39 73  1  0
 39 74  1  0
 41 75  1  0
 41 76  1  0
M  END
>  <smiles>  (15) 
O=C(Nc1ccccc1)[C@@H]1CCCN(c2nc(N3CCc4ccccc4C3)nc(N3CCc4ccccc4C3)n2)C1

>  <score_type>  (15) 
oracle

>  <origin>  (15) 
autodockgpu

>  <m_score__min__energy>  (15) 
-9.7799999999999994

>  <m_primary>  (15) 
energy

>  <rmsd>  (15) 
10.284599222716977

>  <m_score__min__rmsd>  (15) 
10.284599222716977

>  <meeko>  (15) 
{"free_energy": -9.42, "intermolecular_energy": -10.92, "internal_energy": -1.31, "cluster_size": 19, "cluster_id": 4, "rank_in_cluster": 4}

>  <energy>  (15) 
-8.99

>  <cluster_rmsd>  (15) 
1.31

>  <cluster>  (15) 
1

$$$$

     RDKit          3D

 76 82  0  0  0  0  0  0  0  0999 V2000
  146.5430   72.3160  216.2040 O   0  0  0  0  0  0  0  0  0  0  0  0
  145.8830   73.1090  216.9530 C   0  0  0  0  0  0  0  0  0  0  0  0
  145.8850   74.4750  216.5440 N   0  0  0  0  0  0  0  0  0  0  0  0
  146.5690   74.9370  215.3860 C   0  0  0  0  0  0  0  0  0  0  0  0
  147.9470   74.9500  215.3340 C   0  0  0  0  0  0  0  0  0  0  0  0
  148.5530   75.4080  214.1850 C   0  0  0  0  0  0  0  0  0  0  0  0
  147.8300   75.8500  213.0890 C   0  0  0  0  0  0  0  0  0  0  0  0
  146.4640   75.8240  213.1710 C   0  0  0  0  0  0  0  0  0  0  0  0
  145.8500   75.3740  214.2990 C   0  0  0  0  0  0  0  0  0  0  0  0
  145.1660   72.6380  218.1620 C   0  0  2  0  0  0  0  0  0  0  0  0
  145.2830   71.1420  218.2920 C   0  0  0  0  0  0  0  0  0  0  0  0
  144.0090   70.4120  218.0240 C   0  0  0  0  0  0  0  0  0  0  0  0
  142.8990   70.9150  218.8930 C   0  0  0  0  0  0  0  0  0  0  0  0
  142.9220   72.3330  219.0950 N   0  0  0  0  0  0  0  0  0  0  0  0
  142.1590   72.9050  220.1500 C   0  0  0  0  0  0  0  0  0  0  0  0
  141.6410   72.0840  221.0810 N   0  0  0  0  0  0  0  0  0  0  0  0
  140.9070   72.5360  222.1160 C   0  0  0  0  0  0  0  0  0  0  0  0
  140.3570   71.6520  223.1050 N   0  0  0  0  0  0  0  0  0  0  0  0
  139.5090   70.5820  222.6160 C   0  0  0  0  0  0  0  0  0  0  0  0
  138.3750   70.4610  223.6320 C   0  0  0  0  0  0  0  0  0  0  0  0
  139.0280   70.0230  224.9110 C   0  0  0  0  0  0  0  0  0  0  0  0
  138.5410   68.9730  225.6590 C   0  0  0  0  0  0  0  0  0  0  0  0
  139.1660   68.5980  226.8280 C   0  0  0  0  0  0  0  0  0  0  0  0
  140.2860   69.3040  227.2190 C   0  0  0  0  0  0  0  0  0  0  0  0
  140.7670   70.3520  226.4670 C   0  0  0  0  0  0  0  0  0  0  0  0
  140.1500   70.7450  225.2870 C   0  0  0  0  0  0  0  0  0  0  0  0
  140.6730   71.8760  224.4780 C   0  0  0  0  0  0  0  0  0  0  0  0
  140.7040   73.8780  222.1900 N   0  0  0  0  0  0  0  0  0  0  0  0
  141.2020   74.7380  221.2840 C   0  0  0  0  0  0  0  0  0  0  0  0
  140.9450   76.1270  221.4320 N   0  0  0  0  0  0  0  0  0  0  0  0
  141.0470   76.9450  220.2370 C   0  0  0  0  0  0  0  0  0  0  0  0
  140.2230   78.2270  220.4130 C   0  0  0  0  0  0  0  0  0  0  0  0
  140.8670   78.9230  221.5760 C   0  0  0  0  0  0  0  0  0  0  0  0
  141.2500   80.2490  221.5020 C   0  0  0  0  0  0  0  0  0  0  0  0
  141.8380   80.8200  222.6230 C   0  0  0  0  0  0  0  0  0  0  0  0
  142.0290   80.0600  223.7810 C   0  0  0  0  0  0  0  0  0  0  0  0
  141.6320   78.7260  223.8260 C   0  0  0  0  0  0  0  0  0  0  0  0
  141.0460   78.1560  222.7110 C   0  0  0  0  0  0  0  0  0  0  0  0
  140.5990   76.7200  222.7010 C   0  0  0  0  0  0  0  0  0  0  0  0
  141.9300   74.2250  220.2670 N   0  0  0  0  0  0  0  0  0  0  0  0
  143.7360   73.1330  218.1970 C   0  0  0  0  0  0  0  0  0  0  0  0
  145.3730   75.1940  217.0970 H   0  0  0  0  0  0  0  0  0  0  0  0
  148.5469   74.6034  216.1884 H   0  0  0  0  0  0  0  0  0  0  0  0
  149.6518   75.4234  214.1358 H   0  0  0  0  0  0  0  0  0  0  0  0
  148.3375   76.2103  212.1820 H   0  0  0  0  0  0  0  0  0  0  0  0
  145.8587   76.1690  212.3198 H   0  0  0  0  0  0  0  0  0  0  0  0
  144.7509   75.3596  214.3420 H   0  0  0  0  0  0  0  0  0  0  0  0
  145.6475   73.0757  219.0489 H   0  0  0  0  0  0  0  0  0  0  0  0
  146.0412   70.7901  217.5770 H   0  0  0  0  0  0  0  0  0  0  0  0
  145.5588   70.9320  219.3360 H   0  0  0  0  0  0  0  0  0  0  0  0
  143.7303   70.5536  216.9694 H   0  0  0  0  0  0  0  0  0  0  0  0
  144.1670   69.3463  218.2459 H   0  0  0  0  0  0  0  0  0  0  0  0
  141.9414   70.6469  218.4228 H   0  0  0  0  0  0  0  0  0  0  0  0
  143.0276   70.4479  219.8806 H   0  0  0  0  0  0  0  0  0  0  0  0
  139.1093   70.8323  221.6222 H   0  0  0  0  0  0  0  0  0  0  0  0
  140.0640   69.6381  222.5106 H   0  0  0  0  0  0  0  0  0  0  0  0
  137.8754   71.4315  223.7681 H   0  0  0  0  0  0  0  0  0  0  0  0
  137.6052   69.7481  223.3016 H   0  0  0  0  0  0  0  0  0  0  0  0
  137.6463   68.4301  225.3200 H   0  0  0  0  0  0  0  0  0  0  0  0
  138.7842   67.7614  227.4316 H   0  0  0  0  0  0  0  0  0  0  0  0
  140.8035   69.0241  228.1484 H   0  0  0  0  0  0  0  0  0  0  0  0
  141.6624   70.8914  226.8095 H   0  0  0  0  0  0  0  0  0  0  0  0
  140.2094   72.8151  224.8144 H   0  0  0  0  0  0  0  0  0  0  0  0
  141.7638   71.9468  224.6009 H   0  0  0  0  0  0  0  0  0  0  0  0
  142.1007   77.2090  220.0640 H   0  0  0  0  0  0  0  0  0  0  0  0
  140.6603   76.3800  219.3760 H   0  0  0  0  0  0  0  0  0  0  0  0
  140.2741   78.8507  219.5083 H   0  0  0  0  0  0  0  0  0  0  0  0
  139.1560   78.0214  220.5838 H   0  0  0  0  0  0  0  0  0  0  0  0
  141.0939   80.8339  220.5836 H   0  0  0  0  0  0  0  0  0  0  0  0
  142.1544   81.8733  222.5999 H   0  0  0  0  0  0  0  0  0  0  0  0
  142.4969   80.5198  224.6640 H   0  0  0  0  0  0  0  0  0  0  0  0
  141.7831   78.1318  224.7393 H   0  0  0  0  0  0  0  0  0  0  0  0
  141.1005   76.1724  223.5125 H   0  0  0  0  0  0  0  0  0  0  0  0
  139.5102   76.6696  222.8492 H   0  0  0  0  0  0  0  0  0  0  0  0
  143.3124   73.0765  217.1834 H   0  0  0  0  0  0  0  0  0  0  0  0
  143.7369   74.1709  218.5614 H   0  0  0  0  0  0  0  0  0  0  0  0
  1  2  2  0
  2  3  1  0
  3  4  1  0
  4  5  2  0
  5  6  1  0
  6  7  2  0
  7  8  1  0
  8  9  2  0
  2 10  1  0
 10 11  1  0
 11 12  1  0
 12 13  1  0
 13 14  1  0
 14 15  1  0
 15 16  2  0
 16 17  1  0
 17 18  1  0
 18 19  1  0
 19 20  1  0
 20 21  1  0
 21 22  2  0
 22 23  1  0
 23 24  2  0
 24 25  1  0
 25 26  2  0
 26 27  1  0
 17 28  2  0
 28 29  1  0
 29 30  1  0
 30 31  1  0
 31 32  1  0
 32 33  1  0
 33 34  2  0
 34 35  1  0
 35 36  2  0
 36 37  1  0
 37 38  2  0
 38 39  1  0
 29 40  2  0
 14 41  1  0
  9  4  1  0
 41 10  1  0
 40 15  1  0
 27 18  1  0
 39 30  1  0
 26 21  1  0
 38 33  1  0
  3 42  1  0
  5 43  1  0
  6 44  1  0
  7 45  1  0
  8 46  1  0
  9 47  1  0
 10 48  1  1
 11 49  1  0
 11 50  1  0
 12 51  1  0
 12 52  1  0
 13 53  1  0
 13 54  1  0
 19 55  1  0
 19 56  1  0
 20 57  1  0
 20 58  1  0
 22 59  1  0
 23 60  1  0
 24 61  1  0
 25 62  1  0
 27 63  1  0
 27 64  1  0
 31 65  1  0
 31 66  1  0
 32 67  1  0
 32 68  1  0
 34 69  1  0
 35 70  1  0
 36 71  1  0
 37 72  1  0
 39 73  1  0
 39 74  1  0
 41 75  1  0
 41 76  1  0
M  END
>  <smiles>  (16) 
O=C(Nc1ccccc1)[C@@H]1CCCN(c2nc(N3CCc4ccccc4C3)nc(N3CCc4ccccc4C3)n2)C1

>  <score_type>  (16) 
oracle

>  <origin>  (16) 
autodockgpu

>  <m_score__min__energy>  (16) 
-9.7799999999999994

>  <m_primary>  (16) 
energy

>  <rmsd>  (16) 
9.058823624041548

>  <m_score__min__rmsd>  (16) 
9.058823624041548

>  <meeko>  (16) 
{"free_energy": -9.7, "intermolecular_energy": -11.19, "internal_energy": -1.28, "cluster_size": 3, "cluster_id": 2, "rank_in_cluster": 3}

>  <energy>  (16) 
-9.77

>  <cluster_rmsd>  (16) 
0.0

>  <cluster>  (16) 
2

$$$$

     RDKit          3D

 76 82  0  0  0  0  0  0  0  0999 V2000
  137.6310   78.3740  222.2270 O   0  0  0  0  0  0  0  0  0  0  0  0
  138.8920   78.4390  222.4060 C   0  0  0  0  0  0  0  0  0  0  0  0
  139.3440   79.5770  223.1360 N   0  0  0  0  0  0  0  0  0  0  0  0
  138.4650   80.5770  223.6360 C   0  0  0  0  0  0  0  0  0  0  0  0
  138.0070   81.5910  222.8200 C   0  0  0  0  0  0  0  0  0  0  0  0
  137.1570   82.5300  223.3590 C   0  0  0  0  0  0  0  0  0  0  0  0
  136.7510   82.4920  224.6830 C   0  0  0  0  0  0  0  0  0  0  0  0
  137.2220   81.4730  225.4670 C   0  0  0  0  0  0  0  0  0  0  0  0
  138.0620   80.5360  224.9490 C   0  0  0  0  0  0  0  0  0  0  0  0
  139.8170   77.4010  221.8910 C   0  0  2  0  0  0  0  0  0  0  0  0
  140.2710   77.7480  220.4980 C   0  0  0  0  0  0  0  0  0  0  0  0
  139.6990   76.8640  219.4390 C   0  0  0  0  0  0  0  0  0  0  0  0
  139.9800   75.4220  219.7240 C   0  0  0  0  0  0  0  0  0  0  0  0
  139.8930   75.0810  221.1130 N   0  0  0  0  0  0  0  0  0  0  0  0
  140.4580   73.8580  221.5720 C   0  0  0  0  0  0  0  0  0  0  0  0
  141.3870   73.2570  220.8080 N   0  0  0  0  0  0  0  0  0  0  0  0
  141.9760   72.0990  221.1630 C   0  0  0  0  0  0  0  0  0  0  0  0
  142.9670   71.4640  220.3400 N   0  0  0  0  0  0  0  0  0  0  0  0
  144.1920   72.2070  220.1140 C   0  0  0  0  0  0  0  0  0  0  0  0
  144.5670   71.9460  218.6560 C   0  0  0  0  0  0  0  0  0  0  0  0
  144.8630   70.4770  218.5750 C   0  0  0  0  0  0  0  0  0  0  0  0
  146.0000   69.9910  217.9670 C   0  0  0  0  0  0  0  0  0  0  0  0
  146.2400   68.6370  217.9110 C   0  0  0  0  0  0  0  0  0  0  0  0
  145.3110   67.7900  218.4810 C   0  0  0  0  0  0  0  0  0  0  0  0
  144.1760   68.2810  219.0870 C   0  0  0  0  0  0  0  0  0  0  0  0
  143.9170   69.6440  219.1520 C   0  0  0  0  0  0  0  0  0  0  0  0
  142.6920   70.1700  219.8080 C   0  0  0  0  0  0  0  0  0  0  0  0
  141.5930   71.5470  222.3440 N   0  0  0  0  0  0  0  0  0  0  0  0
  140.6690   72.1110  223.1420 C   0  0  0  0  0  0  0  0  0  0  0  0
  140.3220   71.4720  224.3620 N   0  0  0  0  0  0  0  0  0  0  0  0
  141.1200   71.8050  225.5280 C   0  0  0  0  0  0  0  0  0  0  0  0
  140.3180   71.5180  226.8050 C   0  0  0  0  0  0  0  0  0  0  0  0
  140.0610   70.0400  226.7550 C   0  0  0  0  0  0  0  0  0  0  0  0
  140.3530   69.2210  227.8290 C   0  0  0  0  0  0  0  0  0  0  0  0
  140.0850   67.8640  227.7040 C   0  0  0  0  0  0  0  0  0  0  0  0
  139.5360   67.3620  226.5190 C   0  0  0  0  0  0  0  0  0  0  0  0
  139.2520   68.2130  225.4540 C   0  0  0  0  0  0  0  0  0  0  0  0
  139.5180   69.5640  225.5770 C   0  0  0  0  0  0  0  0  0  0  0  0
  139.2330   70.5300  224.4600 C   0  0  0  0  0  0  0  0  0  0  0  0
  140.1120   73.2720  222.7320 N   0  0  0  0  0  0  0  0  0  0  0  0
  139.2220   76.0130  222.0000 C   0  0  0  0  0  0  0  0  0  0  0  0
  140.3580   79.7130  223.3300 H   0  0  0  0  0  0  0  0  0  0  0  0
  138.3135   81.6476  221.7651 H   0  0  0  0  0  0  0  0  0  0  0  0
  136.7863   83.3407  222.7145 H   0  0  0  0  0  0  0  0  0  0  0  0
  136.0724   83.2555  225.0911 H   0  0  0  0  0  0  0  0  0  0  0  0
  136.9193   81.4114  226.5227 H   0  0  0  0  0  0  0  0  0  0  0  0
  138.4273   79.7259  225.5973 H   0  0  0  0  0  0  0  0  0  0  0  0
  140.7150   77.3836  222.5260 H   0  0  0  0  0  0  0  0  0  0  0  0
  139.9710   78.7844  220.2837 H   0  0  0  0  0  0  0  0  0  0  0  0
  141.3622   77.6115  220.4738 H   0  0  0  0  0  0  0  0  0  0  0  0
  138.6103   77.0151  219.3956 H   0  0  0  0  0  0  0  0  0  0  0  0
  140.1669   77.1256  218.4784 H   0  0  0  0  0  0  0  0  0  0  0  0
  139.2524   74.8105  219.1702 H   0  0  0  0  0  0  0  0  0  0  0  0
  141.0164   75.2287  219.4102 H   0  0  0  0  0  0  0  0  0  0  0  0
  144.0260   73.2814  220.2815 H   0  0  0  0  0  0  0  0  0  0  0  0
  144.9910   71.8942  220.8023 H   0  0  0  0  0  0  0  0  0  0  0  0
  143.7303   72.2068  217.9912 H   0  0  0  0  0  0  0  0  0  0  0  0
  145.4280   72.5538  218.3410 H   0  0  0  0  0  0  0  0  0  0  0  0
  146.7223   70.6915  217.5224 H   0  0  0  0  0  0  0  0  0  0  0  0
  147.1450   68.2416  217.4265 H   0  0  0  0  0  0  0  0  0  0  0  0
  145.4803   66.7035  218.4507 H   0  0  0  0  0  0  0  0  0  0  0  0
  143.4569   67.5765  219.5304 H   0  0  0  0  0  0  0  0  0  0  0  0
  141.8798   70.2403  219.0695 H   0  0  0  0  0  0  0  0  0  0  0  0
  142.3861   69.4930  220.6192 H   0  0  0  0  0  0  0  0  0  0  0  0
  142.0373   71.1979  225.5285 H   0  0  0  0  0  0  0  0  0  0  0  0
  141.3827   72.8727  225.4959 H   0  0  0  0  0  0  0  0  0  0  0  0
  140.9011   71.7824  227.6994 H   0  0  0  0  0  0  0  0  0  0  0  0
  139.3894   72.1052  226.8599 H   0  0  0  0  0  0  0  0  0  0  0  0
  140.7843   69.6311  228.7541 H   0  0  0  0  0  0  0  0  0  0  0  0
  140.3049   67.1822  228.5387 H   0  0  0  0  0  0  0  0  0  0  0  0
  139.3269   66.2859  226.4279 H   0  0  0  0  0  0  0  0  0  0  0  0
  138.8203   67.8142  224.5241 H   0  0  0  0  0  0  0  0  0  0  0  0
  139.1355   69.9795  223.5126 H   0  0  0  0  0  0  0  0  0  0  0  0
  138.2951   71.0672  224.6644 H   0  0  0  0  0  0  0  0  0  0  0  0
  138.1560   76.0580  221.7325 H   0  0  0  0  0  0  0  0  0  0  0  0
  139.3490   75.6609  223.0343 H   0  0  0  0  0  0  0  0  0  0  0  0
  1  2  2  0
  2  3  1  0
  3  4  1  0
  4  5  2  0
  5  6  1  0
  6  7  2  0
  7  8  1  0
  8  9  2  0
  2 10  1  0
 10 11  1  0
 11 12  1  0
 12 13  1  0
 13 14  1  0
 14 15  1  0
 15 16  2  0
 16 17  1  0
 17 18  1  0
 18 19  1  0
 19 20  1  0
 20 21  1  0
 21 22  2  0
 22 23  1  0
 23 24  2  0
 24 25  1  0
 25 26  2  0
 26 27  1  0
 17 28  2  0
 28 29  1  0
 29 30  1  0
 30 31  1  0
 31 32  1  0
 32 33  1  0
 33 34  2  0
 34 35  1  0
 35 36  2  0
 36 37  1  0
 37 38  2  0
 38 39  1  0
 29 40  2  0
 14 41  1  0
  9  4  1  0
 41 10  1  0
 40 15  1  0
 27 18  1  0
 39 30  1  0
 26 21  1  0
 38 33  1  0
  3 42  1  0
  5 43  1  0
  6 44  1  0
  7 45  1  0
  8 46  1  0
  9 47  1  0
 10 48  1  1
 11 49  1  0
 11 50  1  0
 12 51  1  0
 12 52  1  0
 13 53  1  0
 13 54  1  0
 19 55  1  0
 19 56  1  0
 20 57  1  0
 20 58  1  0
 22 59  1  0
 23 60  1  0
 24 61  1  0
 25 62  1  0
 27 63  1  0
 27 64  1  0
 31 65  1  0
 31 66  1  0
 32 67  1  0
 32 68  1  0
 34 69  1  0
 35 70  1  0
 36 71  1  0
 37 72  1  0
 39 73  1  0
 39 74  1  0
 41 75  1  0
 41 76  1  0
M  END
>  <smiles>  (17) 
O=C(Nc1ccccc1)[C@@H]1CCCN(c2nc(N3CCc4ccccc4C3)nc(N3CCc4ccccc4C3)n2)C1

>  <score_type>  (17) 
oracle

>  <origin>  (17) 
autodockgpu

>  <m_score__min__energy>  (17) 
-9.7799999999999994

>  <m_primary>  (17) 
energy

>  <rmsd>  (17) 
3.5865839277018674

>  <m_score__min__rmsd>  (17) 
3.5865839277018674

>  <meeko>  (17) 
{"free_energy": -9.49, "intermolecular_energy": -10.98, "internal_energy": -1.3, "cluster_size": 13, "cluster_id": 3, "rank_in_cluster": 4}

>  <energy>  (17) 
-9.73

>  <cluster_rmsd>  (17) 
0.2

>  <cluster>  (17) 
2

$$$$

     RDKit          3D

 76 82  0  0  0  0  0  0  0  0999 V2000
  137.9340   78.5640  223.1270 O   0  0  0  0  0  0  0  0  0  0  0  0
  139.1290   78.9910  223.2510 C   0  0  0  0  0  0  0  0  0  0  0  0
  139.2540   80.3010  223.7980 N   0  0  0  0  0  0  0  0  0  0  0  0
  138.1350   81.0900  224.1840 C   0  0  0  0  0  0  0  0  0  0  0  0
  137.6060   82.0360  223.3310 C   0  0  0  0  0  0  0  0  0  0  0  0
  136.5220   82.7690  223.7590 C   0  0  0  0  0  0  0  0  0  0  0  0
  135.9500   82.5880  225.0080 C   0  0  0  0  0  0  0  0  0  0  0  0
  136.4960   81.6420  225.8310 C   0  0  0  0  0  0  0  0  0  0  0  0
  137.5680   80.9080  225.4230 C   0  0  0  0  0  0  0  0  0  0  0  0
  140.3030   78.1760  222.8530 C   0  0  2  0  0  0  0  0  0  0  0  0
  141.4170   79.0650  222.3670 C   0  0  0  0  0  0  0  0  0  0  0  0
  141.6560   78.9810  220.8950 C   0  0  0  0  0  0  0  0  0  0  0  0
  141.9020   77.5690  220.4630 C   0  0  0  0  0  0  0  0  0  0  0  0
  141.0900   76.6070  221.1460 N   0  0  0  0  0  0  0  0  0  0  0  0
  141.4420   75.2300  221.0970 C   0  0  0  0  0  0  0  0  0  0  0  0
  140.7440   74.3640  221.8530 N   0  0  0  0  0  0  0  0  0  0  0  0
  141.0070   73.0440  221.8700 C   0  0  0  0  0  0  0  0  0  0  0  0
  140.2550   72.1270  222.6810 N   0  0  0  0  0  0  0  0  0  0  0  0
  139.0950   71.5160  222.0600 C   0  0  0  0  0  0  0  0  0  0  0  0
  138.0270   71.4620  223.1510 C   0  0  0  0  0  0  0  0  0  0  0  0
  138.5700   70.5330  224.1970 C   0  0  0  0  0  0  0  0  0  0  0  0
  137.8160   69.5080  224.7290 C   0  0  0  0  0  0  0  0  0  0  0  0
  138.3460   68.6730  225.6870 C   0  0  0  0  0  0  0  0  0  0  0  0
  139.6460   68.8970  226.0930 C   0  0  0  0  0  0  0  0  0  0  0  0
  140.3940   69.9220  225.5590 C   0  0  0  0  0  0  0  0  0  0  0  0
  139.8760   70.7730  224.5920 C   0  0  0  0  0  0  0  0  0  0  0  0
  140.6870   71.8780  224.0170 C   0  0  0  0  0  0  0  0  0  0  0  0
  142.0210   72.6050  221.0800 N   0  0  0  0  0  0  0  0  0  0  0  0
  142.7480   73.4310  220.3070 C   0  0  0  0  0  0  0  0  0  0  0  0
  143.7930   72.8950  219.5080 N   0  0  0  0  0  0  0  0  0  0  0  0
  143.7840   73.2370  218.0980 C   0  0  0  0  0  0  0  0  0  0  0  0
  145.1970   73.0900  217.5180 C   0  0  0  0  0  0  0  0  0  0  0  0
  145.5210   71.6360  217.6990 C   0  0  0  0  0  0  0  0  0  0  0  0
  145.9800   70.8630  216.6500 C   0  0  0  0  0  0  0  0  0  0  0  0
  146.2580   69.5250  216.8990 C   0  0  0  0  0  0  0  0  0  0  0  0
  146.0710   68.9950  218.1800 C   0  0  0  0  0  0  0  0  0  0  0  0
  145.6060   69.8000  219.2180 C   0  0  0  0  0  0  0  0  0  0  0  0
  145.3300   71.1310  218.9710 C   0  0  0  0  0  0  0  0  0  0  0  0
  144.8250   72.0470  220.0530 C   0  0  0  0  0  0  0  0  0  0  0  0
  142.4380   74.7470  220.3320 N   0  0  0  0  0  0  0  0  0  0  0  0
  139.9270   77.0910  221.8670 C   0  0  0  0  0  0  0  0  0  0  0  0
  140.1920   80.7310  223.9350 H   0  0  0  0  0  0  0  0  0  0  0  0
  138.0394   82.2007  222.3335 H   0  0  0  0  0  0  0  0  0  0  0  0
  136.0945   83.5258  223.0849 H   0  0  0  0  0  0  0  0  0  0  0  0
  135.0840   83.1863  225.3275 H   0  0  0  0  0  0  0  0  0  0  0  0
  136.0663   81.4729  226.8294 H   0  0  0  0  0  0  0  0  0  0  0  0
  137.9902   80.1516  226.1009 H   0  0  0  0  0  0  0  0  0  0  0  0
  140.6797   77.6449  223.7396 H   0  0  0  0  0  0  0  0  0  0  0  0
  141.1652   80.1058  222.6187 H   0  0  0  0  0  0  0  0  0  0  0  0
  142.3385   78.7237  222.8614 H   0  0  0  0  0  0  0  0  0  0  0  0
  140.7729   79.3688  220.3660 H   0  0  0  0  0  0  0  0  0  0  0  0
  142.5478   79.5780  220.6537 H   0  0  0  0  0  0  0  0  0  0  0  0
  141.6953   77.4948  219.3851 H   0  0  0  0  0  0  0  0  0  0  0  0
  142.9490   77.3364  220.7072 H   0  0  0  0  0  0  0  0  0  0  0  0
  138.7477   72.1248  221.2122 H   0  0  0  0  0  0  0  0  0  0  0  0
  139.3242   70.5156  221.6643 H   0  0  0  0  0  0  0  0  0  0  0  0
  137.8596   72.4630  223.5752 H   0  0  0  0  0  0  0  0  0  0  0  0
  137.0597   71.1147  222.7588 H   0  0  0  0  0  0  0  0  0  0  0  0
  136.7822   69.3563  224.3850 H   0  0  0  0  0  0  0  0  0  0  0  0
  137.7516   67.8526  226.1156 H   0  0  0  0  0  0  0  0  0  0  0  0
  140.0927   68.2444  226.8575 H   0  0  0  0  0  0  0  0  0  0  0  0
  141.4270   70.0703  225.9069 H   0  0  0  0  0  0  0  0  0  0  0  0
  140.5538   72.7865  224.6227 H   0  0  0  0  0  0  0  0  0  0  0  0
  141.7502   71.5960  224.0164 H   0  0  0  0  0  0  0  0  0  0  0  0
  143.0980   72.5636  217.5633 H   0  0  0  0  0  0  0  0  0  0  0  0
  143.4493   74.2781  217.9791 H   0  0  0  0  0  0  0  0  0  0  0  0
  145.2115   73.3630  216.4525 H   0  0  0  0  0  0  0  0  0  0  0  0
  145.9259   73.7484  218.0132 H   0  0  0  0  0  0  0  0  0  0  0  0
  146.1210   71.2941  215.6478 H   0  0  0  0  0  0  0  0  0  0  0  0
  146.6261   68.8807  216.0870 H   0  0  0  0  0  0  0  0  0  0  0  0
  146.2928   67.9344  218.3694 H   0  0  0  0  0  0  0  0  0  0  0  0
  145.4601   69.3799  220.2241 H   0  0  0  0  0  0  0  0  0  0  0  0
  144.4128   71.4493  220.8793 H   0  0  0  0  0  0  0  0  0  0  0  0
  145.6521   72.6654  220.4318 H   0  0  0  0  0  0  0  0  0  0  0  0
  139.2022   77.4974  221.1462 H   0  0  0  0  0  0  0  0  0  0  0  0
  139.4906   76.2502  222.4260 H   0  0  0  0  0  0  0  0  0  0  0  0
  1  2  2  0
  2  3  1  0
  3  4  1  0
  4  5  2  0
  5  6  1  0
  6  7  2  0
  7  8  1  0
  8  9  2  0
  2 10  1  0
 10 11  1  0
 11 12  1  0
 12 13  1  0
 13 14  1  0
 14 15  1  0
 15 16  2  0
 16 17  1  0
 17 18  1  0
 18 19  1  0
 19 20  1  0
 20 21  1  0
 21 22  2  0
 22 23  1  0
 23 24  2  0
 24 25  1  0
 25 26  2  0
 26 27  1  0
 17 28  2  0
 28 29  1  0
 29 30  1  0
 30 31  1  0
 31 32  1  0
 32 33  1  0
 33 34  2  0
 34 35  1  0
 35 36  2  0
 36 37  1  0
 37 38  2  0
 38 39  1  0
 29 40  2  0
 14 41  1  0
  9  4  1  0
 41 10  1  0
 40 15  1  0
 27 18  1  0
 39 30  1  0
 26 21  1  0
 38 33  1  0
  3 42  1  0
  5 43  1  0
  6 44  1  0
  7 45  1  0
  8 46  1  0
  9 47  1  0
 10 48  1  1
 11 49  1  0
 11 50  1  0
 12 51  1  0
 12 52  1  0
 13 53  1  0
 13 54  1  0
 19 55  1  0
 19 56  1  0
 20 57  1  0
 20 58  1  0
 22 59  1  0
 23 60  1  0
 24 61  1  0
 25 62  1  0
 27 63  1  0
 27 64  1  0
 31 65  1  0
 31 66  1  0
 32 67  1  0
 32 68  1  0
 34 69  1  0
 35 70  1  0
 36 71  1  0
 37 72  1  0
 39 73  1  0
 39 74  1  0
 41 75  1  0
 41 76  1  0
M  END
>  <smiles>  (18) 
O=C(Nc1ccccc1)[C@@H]1CCCN(c2nc(N3CCc4ccccc4C3)nc(N3CCc4ccccc4C3)n2)C1

>  <score_type>  (18) 
oracle

>  <origin>  (18) 
autodockgpu

>  <m_score__min__energy>  (18) 
-9.7799999999999994

>  <m_primary>  (18) 
energy

>  <rmsd>  (18) 
4.746823583586111

>  <m_score__min__rmsd>  (18) 
4.746823583586111

>  <meeko>  (18) 
{"free_energy": -9.13, "intermolecular_energy": -10.62, "internal_energy": -1.33, "cluster_size": 13, "cluster_id": 3, "rank_in_cluster": 12}

>  <energy>  (18) 
-9.7

>  <cluster_rmsd>  (18) 
0.2

>  <cluster>  (18) 
2

$$$$

     RDKit          3D

 76 82  0  0  0  0  0  0  0  0999 V2000
  134.3890   70.6900  223.8960 O   0  0  0  0  0  0  0  0  0  0  0  0
  135.4490   71.3950  223.9520 C   0  0  0  0  0  0  0  0  0  0  0  0
  135.4130   72.4760  224.8810 N   0  0  0  0  0  0  0  0  0  0  0  0
  134.2820   72.7610  225.6960 C   0  0  0  0  0  0  0  0  0  0  0  0
  133.7080   71.7810  226.4800 C   0  0  0  0  0  0  0  0  0  0  0  0
  132.6160   72.1170  227.2480 C   0  0  0  0  0  0  0  0  0  0  0  0
  132.0790   73.3950  227.2590 C   0  0  0  0  0  0  0  0  0  0  0  0
  132.6720   74.3440  226.4720 C   0  0  0  0  0  0  0  0  0  0  0  0
  133.7530   74.0290  225.7070 C   0  0  0  0  0  0  0  0  0  0  0  0
  136.6340   71.1060  223.1090 C   0  0  2  0  0  0  0  0  0  0  0  0
  136.8700   69.6210  223.0270 C   0  0  0  0  0  0  0  0  0  0  0  0
  138.0780   69.1600  223.7750 C   0  0  0  0  0  0  0  0  0  0  0  0
  139.3040   69.8970  223.3360 C   0  0  0  0  0  0  0  0  0  0  0  0
  139.0760   71.2850  223.0630 N   0  0  0  0  0  0  0  0  0  0  0  0
  140.0410   72.0220  222.3230 C   0  0  0  0  0  0  0  0  0  0  0  0
  141.0130   71.3450  221.6860 N   0  0  0  0  0  0  0  0  0  0  0  0
  141.9670   71.9590  220.9610 C   0  0  0  0  0  0  0  0  0  0  0  0
  143.0010   71.2270  220.2850 N   0  0  0  0  0  0  0  0  0  0  0  0
  144.3080   71.8530  220.2330 C   0  0  0  0  0  0  0  0  0  0  0  0
  144.8580   71.5420  218.8430 C   0  0  0  0  0  0  0  0  0  0  0  0
  145.0260   70.0510  218.8010 C   0  0  0  0  0  0  0  0  0  0  0  0
  146.1870   69.4570  218.3570 C   0  0  0  0  0  0  0  0  0  0  0  0
  146.3080   68.0860  218.3340 C   0  0  0  0  0  0  0  0  0  0  0  0
  145.2340   67.3340  218.7660 C   0  0  0  0  0  0  0  0  0  0  0  0
  144.0750   67.9330  219.2090 C   0  0  0  0  0  0  0  0  0  0  0  0
  143.9360   69.3140  219.2390 C   0  0  0  0  0  0  0  0  0  0  0  0
  142.6850   69.9570  219.7170 C   0  0  0  0  0  0  0  0  0  0  0  0
  141.9140   73.3150  220.8920 N   0  0  0  0  0  0  0  0  0  0  0  0
  140.9630   74.0360  221.5110 C   0  0  0  0  0  0  0  0  0  0  0  0
  140.9760   75.4510  221.3900 N   0  0  0  0  0  0  0  0  0  0  0  0
  141.6610   76.0070  220.2380 C   0  0  0  0  0  0  0  0  0  0  0  0
  141.1240   77.4130  219.9410 C   0  0  0  0  0  0  0  0  0  0  0  0
  141.4550   78.2020  221.1740 C   0  0  0  0  0  0  0  0  0  0  0  0
  142.1150   79.4140  221.0990 C   0  0  0  0  0  0  0  0  0  0  0  0
  142.3840   80.0830  222.2850 C   0  0  0  0  0  0  0  0  0  0  0  0
  141.9920   79.5310  223.5090 C   0  0  0  0  0  0  0  0  0  0  0  0
  141.3270   78.3070  223.5530 C   0  0  0  0  0  0  0  0  0  0  0  0
  141.0580   77.6400  222.3720 C   0  0  0  0  0  0  0  0  0  0  0  0
  140.3450   76.3160  222.3580 C   0  0  0  0  0  0  0  0  0  0  0  0
  140.0320   73.3640  222.2240 N   0  0  0  0  0  0  0  0  0  0  0  0
  137.8520   71.8820  223.5640 C   0  0  0  0  0  0  0  0  0  0  0  0
  136.2350   73.1050  224.9940 H   0  0  0  0  0  0  0  0  0  0  0  0
  134.1124   70.7581  226.4909 H   0  0  0  0  0  0  0  0  0  0  0  0
  132.1522   71.3424  227.8764 H   0  0  0  0  0  0  0  0  0  0  0  0
  131.2045   73.6381  227.8804 H   0  0  0  0  0  0  0  0  0  0  0  0
  132.2725   75.3688  226.4573 H   0  0  0  0  0  0  0  0  0  0  0  0
  134.2141   74.8084  225.0826 H   0  0  0  0  0  0  0  0  0  0  0  0
  136.4307   71.4560  222.0862 H   0  0  0  0  0  0  0  0  0  0  0  0
  135.9895   69.1067  223.4395 H   0  0  0  0  0  0  0  0  0  0  0  0
  137.0392   69.3817  221.9668 H   0  0  0  0  0  0  0  0  0  0  0  0
  137.9215   69.3333  224.8499 H   0  0  0  0  0  0  0  0  0  0  0  0
  138.2250   68.0892  223.5705 H   0  0  0  0  0  0  0  0  0  0  0  0
  140.0593   69.8193  224.1319 H   0  0  0  0  0  0  0  0  0  0  0  0
  139.6364   69.4351  222.3947 H   0  0  0  0  0  0  0  0  0  0  0  0
  144.2189   72.9400  220.3762 H   0  0  0  0  0  0  0  0  0  0  0  0
  144.9709   71.4770  221.0262 H   0  0  0  0  0  0  0  0  0  0  0  0
  144.1506   71.8709  218.0675 H   0  0  0  0  0  0  0  0  0  0  0  0
  145.8074   72.0645  218.6541 H   0  0  0  0  0  0  0  0  0  0  0  0
  147.0248   70.0839  218.0178 H   0  0  0  0  0  0  0  0  0  0  0  0
  147.2322   67.6044  217.9821 H   0  0  0  0  0  0  0  0  0  0  0  0
  145.3048   66.2363  218.7564 H   0  0  0  0  0  0  0  0  0  0  0  0
  143.2398   67.3019  219.5470 H   0  0  0  0  0  0  0  0  0  0  0  0
  141.9944   70.0930  218.8717 H   0  0  0  0  0  0  0  0  0  0  0  0
  142.2072   69.3199  220.4758 H   0  0  0  0  0  0  0  0  0  0  0  0
  142.7393   76.0649  220.4475 H   0  0  0  0  0  0  0  0  0  0  0  0
  141.4865   75.3604  219.3654 H   0  0  0  0  0  0  0  0  0  0  0  0
  141.6209   77.8419  219.0583 H   0  0  0  0  0  0  0  0  0  0  0  0
  140.0471   77.4139  219.7169 H   0  0  0  0  0  0  0  0  0  0  0  0
  142.4178   79.8355  220.1291 H   0  0  0  0  0  0  0  0  0  0  0  0
  142.9071   81.0504  222.2623 H   0  0  0  0  0  0  0  0  0  0  0  0
  142.2103   80.0672  224.4443 H   0  0  0  0  0  0  0  0  0  0  0  0
  141.0193   77.8760  224.5172 H   0  0  0  0  0  0  0  0  0  0  0  0
  140.4021   75.8561  223.3556 H   0  0  0  0  0  0  0  0  0  0  0  0
  139.2891   76.4661  222.0887 H   0  0  0  0  0  0  0  0  0  0  0  0
  137.8814   71.8900  224.6636 H   0  0  0  0  0  0  0  0  0  0  0  0
  137.7785   72.9059  223.1687 H   0  0  0  0  0  0  0  0  0  0  0  0
  1  2  2  0
  2  3  1  0
  3  4  1  0
  4  5  2  0
  5  6  1  0
  6  7  2  0
  7  8  1  0
  8  9  2  0
  2 10  1  0
 10 11  1  0
 11 12  1  0
 12 13  1  0
 13 14  1  0
 14 15  1  0
 15 16  2  0
 16 17  1  0
 17 18  1  0
 18 19  1  0
 19 20  1  0
 20 21  1  0
 21 22  2  0
 22 23  1  0
 23 24  2  0
 24 25  1  0
 25 26  2  0
 26 27  1  0
 17 28  2  0
 28 29  1  0
 29 30  1  0
 30 31  1  0
 31 32  1  0
 32 33  1  0
 33 34  2  0
 34 35  1  0
 35 36  2  0
 36 37  1  0
 37 38  2  0
 38 39  1  0
 29 40  2  0
 14 41  1  0
  9  4  1  0
 41 10  1  0
 40 15  1  0
 27 18  1  0
 39 30  1  0
 26 21  1  0
 38 33  1  0
  3 42  1  0
  5 43  1  0
  6 44  1  0
  7 45  1  0
  8 46  1  0
  9 47  1  0
 10 48  1  6
 11 49  1  0
 11 50  1  0
 12 51  1  0
 12 52  1  0
 13 53  1  0
 13 54  1  0
 19 55  1  0
 19 56  1  0
 20 57  1  0
 20 58  1  0
 22 59  1  0
 23 60  1  0
 24 61  1  0
 25 62  1  0
 27 63  1  0
 27 64  1  0
 31 65  1  0
 31 66  1  0
 32 67  1  0
 32 68  1  0
 34 69  1  0
 35 70  1  0
 36 71  1  0
 37 72  1  0
 39 73  1  0
 39 74  1  0
 41 75  1  0
 41 76  1  0
M  END
>  <smiles>  (19) 
O=C(Nc1ccccc1)[C@@H]1CCCN(c2nc(N3CCc4ccccc4C3)nc(N3CCc4ccccc4C3)n2)C1

>  <score_type>  (19) 
oracle

>  <origin>  (19) 
autodockgpu

>  <m_score__min__energy>  (19) 
-9.7799999999999994

>  <m_primary>  (19) 
energy

>  <rmsd>  (19) 
10.233582883758636

>  <m_score__min__rmsd>  (19) 
10.233582883758636

>  <meeko>  (19) 
{"free_energy": -9.48, "intermolecular_energy": -10.97, "internal_energy": -1.27, "cluster_size": 19, "cluster_id": 4, "rank_in_cluster": 1}

>  <energy>  (19) 
-9.57

>  <cluster_rmsd>  (19) 
0.0

>  <cluster>  (19) 
3

$$$$

     RDKit          3D

 76 82  0  0  0  0  0  0  0  0999 V2000
  146.6330   72.4060  216.1220 O   0  0  0  0  0  0  0  0  0  0  0  0
  145.9420   73.1780  216.8640 C   0  0  0  0  0  0  0  0  0  0  0  0
  145.9510   74.5520  216.4870 N   0  0  0  0  0  0  0  0  0  0  0  0
  146.6750   75.0450  215.3660 C   0  0  0  0  0  0  0  0  0  0  0  0
  146.0230   75.4240  214.2100 C   0  0  0  0  0  0  0  0  0  0  0  0
  146.7780   75.8940  213.1590 C   0  0  0  0  0  0  0  0  0  0  0  0
  148.1580   75.9980  213.2230 C   0  0  0  0  0  0  0  0  0  0  0  0
  148.7750   75.6150  214.3820 C   0  0  0  0  0  0  0  0  0  0  0  0
  148.0440   75.1490  215.4310 C   0  0  0  0  0  0  0  0  0  0  0  0
  145.1820   72.6760  218.0330 C   0  0  2  0  0  0  0  0  0  0  0  0
  145.2080   71.1700  218.0680 C   0  0  0  0  0  0  0  0  0  0  0  0
  143.8960   70.5360  217.7420 C   0  0  0  0  0  0  0  0  0  0  0  0
  142.8070   71.0490  218.6310 C   0  0  0  0  0  0  0  0  0  0  0  0
  142.9120   72.4480  218.9230 N   0  0  0  0  0  0  0  0  0  0  0  0
  142.1700   72.9960  220.0060 C   0  0  0  0  0  0  0  0  0  0  0  0
  141.6550   72.1540  220.9190 N   0  0  0  0  0  0  0  0  0  0  0  0
  140.9400   72.5830  221.9760 C   0  0  0  0  0  0  0  0  0  0  0  0
  140.3940   71.6760  222.9470 N   0  0  0  0  0  0  0  0  0  0  0  0
  139.5640   70.6040  222.4330 C   0  0  0  0  0  0  0  0  0  0  0  0
  138.4230   70.4510  223.4370 C   0  0  0  0  0  0  0  0  0  0  0  0
  139.0700   70.0020  224.7150 C   0  0  0  0  0  0  0  0  0  0  0  0
  138.5910   68.9340  225.4420 C   0  0  0  0  0  0  0  0  0  0  0  0
  139.2100   68.5480  226.6100 C   0  0  0  0  0  0  0  0  0  0  0  0
  140.3170   69.2620  227.0230 C   0  0  0  0  0  0  0  0  0  0  0  0
  140.7910   70.3290  226.2920 C   0  0  0  0  0  0  0  0  0  0  0  0
  140.1790   70.7320  225.1120 C   0  0  0  0  0  0  0  0  0  0  0  0
  140.6940   71.8830  224.3260 C   0  0  0  0  0  0  0  0  0  0  0  0
  140.7540   73.9240  222.0940 N   0  0  0  0  0  0  0  0  0  0  0  0
  141.2500   74.8050  221.2070 C   0  0  0  0  0  0  0  0  0  0  0  0
  141.0120   76.1920  221.3990 N   0  0  0  0  0  0  0  0  0  0  0  0
  141.0840   77.0410  220.2230 C   0  0  0  0  0  0  0  0  0  0  0  0
  140.2790   78.3250  220.4590 C   0  0  0  0  0  0  0  0  0  0  0  0
  140.9660   78.9840  221.6190 C   0  0  0  0  0  0  0  0  0  0  0  0
  141.3590   80.3080  221.5680 C   0  0  0  0  0  0  0  0  0  0  0  0
  141.9890   80.8440  222.6840 C   0  0  0  0  0  0  0  0  0  0  0  0
  142.2090   80.0520  223.8150 C   0  0  0  0  0  0  0  0  0  0  0  0
  141.8010   78.7200  223.8370 C   0  0  0  0  0  0  0  0  0  0  0  0
  141.1740   78.1850  222.7280 C   0  0  0  0  0  0  0  0  0  0  0  0
  140.7120   76.7540  222.6940 C   0  0  0  0  0  0  0  0  0  0  0  0
  141.9580   74.3150  220.1650 N   0  0  0  0  0  0  0  0  0  0  0  0
  143.7830   73.2520  218.0860 C   0  0  0  0  0  0  0  0  0  0  0  0
  145.4140   75.2560  217.0360 H   0  0  0  0  0  0  0  0  0  0  0  0
  144.9282   75.3524  214.1305 H   0  0  0  0  0  0  0  0  0  0  0  0
  146.2664   76.1983  212.2340 H   0  0  0  0  0  0  0  0  0  0  0  0
  148.7389   76.3765  212.3690 H   0  0  0  0  0  0  0  0  0  0  0  0
  149.8695   75.6841  214.4668 H   0  0  0  0  0  0  0  0  0  0  0  0
  148.5616   74.8481  216.3538 H   0  0  0  0  0  0  0  0  0  0  0  0
  145.6767   73.0280  218.9503 H   0  0  0  0  0  0  0  0  0  0  0  0
  145.9532   70.8191  217.3389 H   0  0  0  0  0  0  0  0  0  0  0  0
  145.4570   70.8781  219.0989 H   0  0  0  0  0  0  0  0  0  0  0  0
  143.6399   70.7604  216.6960 H   0  0  0  0  0  0  0  0  0  0  0  0
  143.9874   69.4508  217.8967 H   0  0  0  0  0  0  0  0  0  0  0  0
  141.8412   70.8692  218.1361 H   0  0  0  0  0  0  0  0  0  0  0  0
  142.8947   70.5137  219.5880 H   0  0  0  0  0  0  0  0  0  0  0  0
  139.1694   70.8661  221.4402 H   0  0  0  0  0  0  0  0  0  0  0  0
  140.1321   69.6692  222.3166 H   0  0  0  0  0  0  0  0  0  0  0  0
  137.9087   71.4122  223.5837 H   0  0  0  0  0  0  0  0  0  0  0  0
  137.6666   69.7324  223.0884 H   0  0  0  0  0  0  0  0  0  0  0  0
  137.7066   68.3850  225.0864 H   0  0  0  0  0  0  0  0  0  0  0  0
  138.8338   67.6966  227.1961 H   0  0  0  0  0  0  0  0  0  0  0  0
  140.8298   68.9737  227.9525 H   0  0  0  0  0  0  0  0  0  0  0  0
  141.6756   70.8751  226.6515 H   0  0  0  0  0  0  0  0  0  0  0  0
  140.2142   72.8102  224.6725 H   0  0  0  0  0  0  0  0  0  0  0  0
  141.7825   71.9672  224.4606 H   0  0  0  0  0  0  0  0  0  0  0  0
  142.1343   77.3000  220.0233 H   0  0  0  0  0  0  0  0  0  0  0  0
  140.6645   76.5028  219.3603 H   0  0  0  0  0  0  0  0  0  0  0  0
  140.3078   78.9721  219.5700 H   0  0  0  0  0  0  0  0  0  0  0  0
  139.2159   78.1245  220.6582 H   0  0  0  0  0  0  0  0  0  0  0  0
  141.1784   80.9187  220.6711 H   0  0  0  0  0  0  0  0  0  0  0  0
  142.3157   81.8944  222.6779 H   0  0  0  0  0  0  0  0  0  0  0  0
  142.7084   80.4841  224.6947 H   0  0  0  0  0  0  0  0  0  0  0  0
  141.9763   78.1002  224.7287 H   0  0  0  0  0  0  0  0  0  0  0  0
  141.2331   76.1800  223.4744 H   0  0  0  0  0  0  0  0  0  0  0  0
  139.6279   76.7100  222.8752 H   0  0  0  0  0  0  0  0  0  0  0  0
  143.3703   73.2845  217.0669 H   0  0  0  0  0  0  0  0  0  0  0  0
  143.8403   74.2630  218.5157 H   0  0  0  0  0  0  0  0  0  0  0  0
  1  2  2  0
  2  3  1  0
  3  4  1  0
  4  5  2  0
  5  6  1  0
  6  7  2  0
  7  8  1  0
  8  9  2  0
  2 10  1  0
 10 11  1  0
 11 12  1  0
 12 13  1  0
 13 14  1  0
 14 15  1  0
 15 16  2  0
 16 17  1  0
 17 18  1  0
 18 19  1  0
 19 20  1  0
 20 21  1  0
 21 22  2  0
 22 23  1  0
 23 24  2  0
 24 25  1  0
 25 26  2  0
 26 27  1  0
 17 28  2  0
 28 29  1  0
 29 30  1  0
 30 31  1  0
 31 32  1  0
 32 33  1  0
 33 34  2  0
 34 35  1  0
 35 36  2  0
 36 37  1  0
 37 38  2  0
 38 39  1  0
 29 40  2  0
 14 41  1  0
  9  4  1  0
 41 10  1  0
 40 15  1  0
 27 18  1  0
 39 30  1  0
 26 21  1  0
 38 33  1  0
  3 42  1  0
  5 43  1  0
  6 44  1  0
  7 45  1  0
  8 46  1  0
  9 47  1  0
 10 48  1  1
 11 49  1  0
 11 50  1  0
 12 51  1  0
 12 52  1  0
 13 53  1  0
 13 54  1  0
 19 55  1  0
 19 56  1  0
 20 57  1  0
 20 58  1  0
 22 59  1  0
 23 60  1  0
 24 61  1  0
 25 62  1  0
 27 63  1  0
 27 64  1  0
 31 65  1  0
 31 66  1  0
 32 67  1  0
 32 68  1  0
 34 69  1  0
 35 70  1  0
 36 71  1  0
 37 72  1  0
 39 73  1  0
 39 74  1  0
 41 75  1  0
 41 76  1  0
M  END
>  <smiles>  (20) 
O=C(Nc1ccccc1)[C@@H]1CCCN(c2nc(N3CCc4ccccc4C3)nc(N3CCc4ccccc4C3)n2)C1

>  <score_type>  (20) 
oracle

>  <origin>  (20) 
autodockgpu

>  <m_score__min__energy>  (20) 
-9.7799999999999994

>  <m_primary>  (20) 
energy

>  <rmsd>  (20) 
8.95910030808086

>  <m_score__min__rmsd>  (20) 
8.95910030808086

>  <meeko>  (20) 
{"free_energy": -9.77, "intermolecular_energy": -11.27, "internal_energy": -1.28, "cluster_size": 3, "cluster_id": 2, "rank_in_cluster": 1}

>  <energy>  (20) 
-9.53

>  <cluster_rmsd>  (20) 
0.09

>  <cluster>  (20) 
3

$$$$

     RDKit          3D

 76 82  0  0  0  0  0  0  0  0999 V2000
  137.9230   78.4480  223.0990 O   0  0  0  0  0  0  0  0  0  0  0  0
  139.1180   78.8840  223.1780 C   0  0  0  0  0  0  0  0  0  0  0  0
  139.2500   80.2070  223.6920 N   0  0  0  0  0  0  0  0  0  0  0  0
  138.1370   80.9980  224.0920 C   0  0  0  0  0  0  0  0  0  0  0  0
  137.5080   81.8410  223.1980 C   0  0  0  0  0  0  0  0  0  0  0  0
  136.4350   82.5800  223.6430 C   0  0  0  0  0  0  0  0  0  0  0  0
  135.9710   82.5080  224.9470 C   0  0  0  0  0  0  0  0  0  0  0  0
  136.6160   81.6630  225.8080 C   0  0  0  0  0  0  0  0  0  0  0  0
  137.6780   80.9240  225.3850 C   0  0  0  0  0  0  0  0  0  0  0  0
  140.2850   78.0680  222.7660 C   0  0  2  0  0  0  0  0  0  0  0  0
  141.3630   78.9480  222.1910 C   0  0  0  0  0  0  0  0  0  0  0  0
  141.5390   78.8000  220.7150 C   0  0  0  0  0  0  0  0  0  0  0  0
  141.7870   77.3740  220.3360 C   0  0  0  0  0  0  0  0  0  0  0  0
  141.0200   76.4330  221.0970 N   0  0  0  0  0  0  0  0  0  0  0  0
  141.3900   75.0600  221.0940 C   0  0  0  0  0  0  0  0  0  0  0  0
  140.7170   74.2150  221.8940 N   0  0  0  0  0  0  0  0  0  0  0  0
  140.9980   72.8990  221.9550 C   0  0  0  0  0  0  0  0  0  0  0  0
  140.2730   72.0040  222.8130 N   0  0  0  0  0  0  0  0  0  0  0  0
  139.1680   71.2840  222.2100 C   0  0  0  0  0  0  0  0  0  0  0  0
  138.0710   71.2500  223.2730 C   0  0  0  0  0  0  0  0  0  0  0  0
  138.6310   70.4340  224.4010 C   0  0  0  0  0  0  0  0  0  0  0  0
  137.9180   69.4110  224.9880 C   0  0  0  0  0  0  0  0  0  0  0  0
  138.4630   68.6820  226.0220 C   0  0  0  0  0  0  0  0  0  0  0  0
  139.7360   69.0080  226.4450 C   0  0  0  0  0  0  0  0  0  0  0  0
  140.4430   70.0320  225.8540 C   0  0  0  0  0  0  0  0  0  0  0  0
  139.9090   70.7780  224.8110 C   0  0  0  0  0  0  0  0  0  0  0  0
  140.6750   71.8810  224.1760 C   0  0  0  0  0  0  0  0  0  0  0  0
  142.0050   72.4440  221.1650 N   0  0  0  0  0  0  0  0  0  0  0  0
  142.7060   73.2500  220.3490 C   0  0  0  0  0  0  0  0  0  0  0  0
  143.7450   72.6980  219.5530 N   0  0  0  0  0  0  0  0  0  0  0  0
  143.7430   73.0370  218.1410 C   0  0  0  0  0  0  0  0  0  0  0  0
  145.1550   72.8690  217.5640 C   0  0  0  0  0  0  0  0  0  0  0  0
  145.4580   71.4100  217.7480 C   0  0  0  0  0  0  0  0  0  0  0  0
  145.9080   70.6290  216.7010 C   0  0  0  0  0  0  0  0  0  0  0  0
  146.1660   69.2880  216.9540 C   0  0  0  0  0  0  0  0  0  0  0  0
  145.9700   68.7630  218.2350 C   0  0  0  0  0  0  0  0  0  0  0  0
  145.5150   69.5760  219.2710 C   0  0  0  0  0  0  0  0  0  0  0  0
  145.2580   70.9110  219.0210 C   0  0  0  0  0  0  0  0  0  0  0  0
  144.7650   71.8360  220.1010 C   0  0  0  0  0  0  0  0  0  0  0  0
  142.3800   74.5620  220.3300 N   0  0  0  0  0  0  0  0  0  0  0  0
  139.8830   76.9350  221.8460 C   0  0  0  0  0  0  0  0  0  0  0  0
  140.1890   80.6460  223.7920 H   0  0  0  0  0  0  0  0  0  0  0  0
  137.8550   81.9203  222.1572 H   0  0  0  0  0  0  0  0  0  0  0  0
  135.9267   83.2531  222.9369 H   0  0  0  0  0  0  0  0  0  0  0  0
  135.1124   83.1104  225.2787 H   0  0  0  0  0  0  0  0  0  0  0  0
  136.2738   81.5801  226.8501 H   0  0  0  0  0  0  0  0  0  0  0  0
  138.1809   80.2514  226.0954 H   0  0  0  0  0  0  0  0  0  0  0  0
  140.7074   77.5833  223.6585 H   0  0  0  0  0  0  0  0  0  0  0  0
  141.1068   79.9959  222.4063 H   0  0  0  0  0  0  0  0  0  0  0  0
  142.3102   78.6413  222.6588 H   0  0  0  0  0  0  0  0  0  0  0  0
  140.6280   79.1518  220.2087 H   0  0  0  0  0  0  0  0  0  0  0  0
  142.4107   79.3968  220.4083 H   0  0  0  0  0  0  0  0  0  0  0  0
  141.5344   77.2485  219.2728 H   0  0  0  0  0  0  0  0  0  0  0  0
  142.8471   77.1664  220.5435 H   0  0  0  0  0  0  0  0  0  0  0  0
  138.8142   71.8076  221.3097 H   0  0  0  0  0  0  0  0  0  0  0  0
  139.4638   70.2716  221.8978 H   0  0  0  0  0  0  0  0  0  0  0  0
  137.8356   72.2686  223.6152 H   0  0  0  0  0  0  0  0  0  0  0  0
  137.1372   70.8195  222.8822 H   0  0  0  0  0  0  0  0  0  0  0  0
  136.9058   69.1748  224.6280 H   0  0  0  0  0  0  0  0  0  0  0  0
  137.9005   67.8644  226.4965 H   0  0  0  0  0  0  0  0  0  0  0  0
  140.1938   68.4402  227.2684 H   0  0  0  0  0  0  0  0  0  0  0  0
  141.4550   70.2646  226.2169 H   0  0  0  0  0  0  0  0  0  0  0  0
  140.4723   72.8232  224.7063 H   0  0  0  0  0  0  0  0  0  0  0  0
  141.7517   71.6614  224.2264 H   0  0  0  0  0  0  0  0  0  0  0  0
  143.0487   72.3718  217.6067 H   0  0  0  0  0  0  0  0  0  0  0  0
  143.4228   74.0823  218.0189 H   0  0  0  0  0  0  0  0  0  0  0  0
  145.1755   73.1401  216.4981 H   0  0  0  0  0  0  0  0  0  0  0  0
  145.8922   73.5178  218.0596 H   0  0  0  0  0  0  0  0  0  0  0  0
  146.0573   71.0559  215.6983 H   0  0  0  0  0  0  0  0  0  0  0  0
  146.5258   68.6367  216.1438 H   0  0  0  0  0  0  0  0  0  0  0  0
  146.1767   67.6997  218.4264 H   0  0  0  0  0  0  0  0  0  0  0  0
  145.3619   69.1597  220.2776 H   0  0  0  0  0  0  0  0  0  0  0  0
  144.3436   71.2457  220.9280 H   0  0  0  0  0  0  0  0  0  0  0  0
  145.6003   72.4433  220.4796 H   0  0  0  0  0  0  0  0  0  0  0  0
  139.1222   77.2997  221.1402 H   0  0  0  0  0  0  0  0  0  0  0  0
  139.4836   76.1148  222.4606 H   0  0  0  0  0  0  0  0  0  0  0  0
  1  2  2  0
  2  3  1  0
  3  4  1  0
  4  5  2  0
  5  6  1  0
  6  7  2  0
  7  8  1  0
  8  9  2  0
  2 10  1  0
 10 11  1  0
 11 12  1  0
 12 13  1  0
 13 14  1  0
 14 15  1  0
 15 16  2  0
 16 17  1  0
 17 18  1  0
 18 19  1  0
 19 20  1  0
 20 21  1  0
 21 22  2  0
 22 23  1  0
 23 24  2  0
 24 25  1  0
 25 26  2  0
 26 27  1  0
 17 28  2  0
 28 29  1  0
 29 30  1  0
 30 31  1  0
 31 32  1  0
 32 33  1  0
 33 34  2  0
 34 35  1  0
 35 36  2  0
 36 37  1  0
 37 38  2  0
 38 39  1  0
 29 40  2  0
 14 41  1  0
  9  4  1  0
 41 10  1  0
 40 15  1  0
 27 18  1  0
 39 30  1  0
 26 21  1  0
 38 33  1  0
  3 42  1  0
  5 43  1  0
  6 44  1  0
  7 45  1  0
  8 46  1  0
  9 47  1  0
 10 48  1  1
 11 49  1  0
 11 50  1  0
 12 51  1  0
 12 52  1  0
 13 53  1  0
 13 54  1  0
 19 55  1  0
 19 56  1  0
 20 57  1  0
 20 58  1  0
 22 59  1  0
 23 60  1  0
 24 61  1  0
 25 62  1  0
 27 63  1  0
 27 64  1  0
 31 65  1  0
 31 66  1  0
 32 67  1  0
 32 68  1  0
 34 69  1  0
 35 70  1  0
 36 71  1  0
 37 72  1  0
 39 73  1  0
 39 74  1  0
 41 75  1  0
 41 76  1  0
M  END
>  <smiles>  (21) 
O=C(Nc1ccccc1)[C@@H]1CCCN(c2nc(N3CCc4ccccc4C3)nc(N3CCc4ccccc4C3)n2)C1

>  <score_type>  (21) 
oracle

>  <origin>  (21) 
autodockgpu

>  <m_score__min__energy>  (21) 
-9.7799999999999994

>  <m_primary>  (21) 
energy

>  <rmsd>  (21) 
4.615069667456154

>  <m_score__min__rmsd>  (21) 
4.615069667456154

>  <meeko>  (21) 
{"free_energy": -9.16, "intermolecular_energy": -10.66, "internal_energy": -1.33, "cluster_size": 13, "cluster_id": 3, "rank_in_cluster": 10}

>  <energy>  (21) 
-9.52

>  <cluster_rmsd>  (21) 
1.29

>  <cluster>  (21) 
3

$$$$

     RDKit          3D

 76 82  0  0  0  0  0  0  0  0999 V2000
  137.7550   78.2720  222.5300 O   0  0  0  0  0  0  0  0  0  0  0  0
  139.0140   78.4640  222.5850 C   0  0  0  0  0  0  0  0  0  0  0  0
  139.4150   79.7160  223.1340 N   0  0  0  0  0  0  0  0  0  0  0  0
  138.4900   80.6940  223.5930 C   0  0  0  0  0  0  0  0  0  0  0  0
  137.9940   80.6540  224.8800 C   0  0  0  0  0  0  0  0  0  0  0  0
  137.1020   81.6280  225.2670 C   0  0  0  0  0  0  0  0  0  0  0  0
  136.6890   82.6390  224.4150 C   0  0  0  0  0  0  0  0  0  0  0  0
  137.1990   82.6520  223.1450 C   0  0  0  0  0  0  0  0  0  0  0  0
  138.0820   81.6970  222.7460 C   0  0  0  0  0  0  0  0  0  0  0  0
  139.9870   77.4510  222.1110 C   0  0  2  0  0  0  0  0  0  0  0  0
  140.6290   77.9010  220.8250 C   0  0  0  0  0  0  0  0  0  0  0  0
  140.1940   77.1210  219.6290 C   0  0  0  0  0  0  0  0  0  0  0  0
  140.4170   75.6540  219.8250 C   0  0  0  0  0  0  0  0  0  0  0  0
  140.1410   75.2010  221.1550 N   0  0  0  0  0  0  0  0  0  0  0  0
  140.6240   73.9330  221.5800 C   0  0  0  0  0  0  0  0  0  0  0  0
  141.5160   73.2950  220.8010 N   0  0  0  0  0  0  0  0  0  0  0  0
  142.0280   72.0930  221.1230 C   0  0  0  0  0  0  0  0  0  0  0  0
  142.9800   71.4190  220.2850 N   0  0  0  0  0  0  0  0  0  0  0  0
  144.2100   72.1350  219.9990 C   0  0  0  0  0  0  0  0  0  0  0  0
  144.5310   71.8300  218.5370 C   0  0  0  0  0  0  0  0  0  0  0  0
  144.7990   70.3540  218.4840 C   0  0  0  0  0  0  0  0  0  0  0  0
  145.9060   69.8340  217.8510 C   0  0  0  0  0  0  0  0  0  0  0  0
  146.1210   68.4740  217.8220 C   0  0  0  0  0  0  0  0  0  0  0  0
  145.1970   67.6580  218.4430 C   0  0  0  0  0  0  0  0  0  0  0  0
  144.0910   68.1850  219.0740 C   0  0  0  0  0  0  0  0  0  0  0  0
  143.8590   69.5530  219.1130 C   0  0  0  0  0  0  0  0  0  0  0  0
  142.6650   70.1170  219.7950 C   0  0  0  0  0  0  0  0  0  0  0  0
  141.6060   71.5320  222.2870 N   0  0  0  0  0  0  0  0  0  0  0  0
  140.7160   72.1300  223.0990 C   0  0  0  0  0  0  0  0  0  0  0  0
  140.3240   71.4800  224.2990 N   0  0  0  0  0  0  0  0  0  0  0  0
  141.0740   71.8050  225.4980 C   0  0  0  0  0  0  0  0  0  0  0  0
  140.2250   71.5050  226.7400 C   0  0  0  0  0  0  0  0  0  0  0  0
  139.9750   70.0270  226.6680 C   0  0  0  0  0  0  0  0  0  0  0  0
  140.2270   69.1990  227.7450 C   0  0  0  0  0  0  0  0  0  0  0  0
  139.9690   67.8430  227.5980 C   0  0  0  0  0  0  0  0  0  0  0  0
  139.4680   67.3490  226.3890 C   0  0  0  0  0  0  0  0  0  0  0  0
  139.2230   68.2090  225.3200 C   0  0  0  0  0  0  0  0  0  0  0  0
  139.4800   69.5590  225.4650 C   0  0  0  0  0  0  0  0  0  0  0  0
  139.2350   70.5340  224.3460 C   0  0  0  0  0  0  0  0  0  0  0  0
  140.2360   73.3370  222.7220 N   0  0  0  0  0  0  0  0  0  0  0  0
  139.3680   76.0730  222.0210 C   0  0  0  0  0  0  0  0  0  0  0  0
  140.4250   79.9590  223.2170 H   0  0  0  0  0  0  0  0  0  0  0  0
  138.3038   79.8634  225.5792 H   0  0  0  0  0  0  0  0  0  0  0  0
  136.7020   81.6027  226.2914 H   0  0  0  0  0  0  0  0  0  0  0  0
  135.9746   83.4062  224.7481 H   0  0  0  0  0  0  0  0  0  0  0  0
  136.8927   83.4404  222.4417 H   0  0  0  0  0  0  0  0  0  0  0  0
  138.4791   81.7282  221.7207 H   0  0  0  0  0  0  0  0  0  0  0  0
  140.7903   77.3611  222.8570 H   0  0  0  0  0  0  0  0  0  0  0  0
  140.3733   78.9583  220.6612 H   0  0  0  0  0  0  0  0  0  0  0  0
  141.7118   77.7416  220.9348 H   0  0  0  0  0  0  0  0  0  0  0  0
  139.1228   77.3003  219.4546 H   0  0  0  0  0  0  0  0  0  0  0  0
  140.7898   77.4500  218.7648 H   0  0  0  0  0  0  0  0  0  0  0  0
  139.7629   75.1076  219.1296 H   0  0  0  0  0  0  0  0  0  0  0  0
  141.4838   75.4637  219.6362 H   0  0  0  0  0  0  0  0  0  0  0  0
  144.0677   73.2161  220.1436 H   0  0  0  0  0  0  0  0  0  0  0  0
  145.0264   71.8262  220.6684 H   0  0  0  0  0  0  0  0  0  0  0  0
  143.6769   72.0889  217.8939 H   0  0  0  0  0  0  0  0  0  0  0  0
  145.3914   72.4138  218.1780 H   0  0  0  0  0  0  0  0  0  0  0  0
  146.6243   70.5104  217.3646 H   0  0  0  0  0  0  0  0  0  0  0  0
  147.0029   68.0506  217.3189 H   0  0  0  0  0  0  0  0  0  0  0  0
  145.3460   66.5682  218.4340 H   0  0  0  0  0  0  0  0  0  0  0  0
  143.3747   67.5051  219.5585 H   0  0  0  0  0  0  0  0  0  0  0  0
  141.8303   70.1837  219.0816 H   0  0  0  0  0  0  0  0  0  0  0  0
  142.3740   69.4658  220.6324 H   0  0  0  0  0  0  0  0  0  0  0  0
  141.9926   71.2007  225.5290 H   0  0  0  0  0  0  0  0  0  0  0  0
  141.3335   72.8739  225.4852 H   0  0  0  0  0  0  0  0  0  0  0  0
  140.7725   71.7636  227.6584 H   0  0  0  0  0  0  0  0  0  0  0  0
  139.2931   72.0889  226.7639 H   0  0  0  0  0  0  0  0  0  0  0  0
  140.6201   69.6020  228.6900 H   0  0  0  0  0  0  0  0  0  0  0  0
  140.1591   67.1548  228.4348 H   0  0  0  0  0  0  0  0  0  0  0  0
  139.2658   66.2731  226.2811 H   0  0  0  0  0  0  0  0  0  0  0  0
  138.8291   67.8172  224.3706 H   0  0  0  0  0  0  0  0  0  0  0  0
  139.1763   69.9917  223.3908 H   0  0  0  0  0  0  0  0  0  0  0  0
  138.2879   71.0664  224.5181 H   0  0  0  0  0  0  0  0  0  0  0  0
  138.3482   76.1642  221.6189 H   0  0  0  0  0  0  0  0  0  0  0  0
  139.3520   75.6340  223.0295 H   0  0  0  0  0  0  0  0  0  0  0  0
  1  2  2  0
  2  3  1  0
  3  4  1  0
  4  5  2  0
  5  6  1  0
  6  7  2  0
  7  8  1  0
  8  9  2  0
  2 10  1  0
 10 11  1  0
 11 12  1  0
 12 13  1  0
 13 14  1  0
 14 15  1  0
 15 16  2  0
 16 17  1  0
 17 18  1  0
 18 19  1  0
 19 20  1  0
 20 21  1  0
 21 22  2  0
 22 23  1  0
 23 24  2  0
 24 25  1  0
 25 26  2  0
 26 27  1  0
 17 28  2  0
 28 29  1  0
 29 30  1  0
 30 31  1  0
 31 32  1  0
 32 33  1  0
 33 34  2  0
 34 35  1  0
 35 36  2  0
 36 37  1  0
 37 38  2  0
 38 39  1  0
 29 40  2  0
 14 41  1  0
  9  4  1  0
 41 10  1  0
 40 15  1  0
 27 18  1  0
 39 30  1  0
 26 21  1  0
 38 33  1  0
  3 42  1  0
  5 43  1  0
  6 44  1  0
  7 45  1  0
  8 46  1  0
  9 47  1  0
 10 48  1  1
 11 49  1  0
 11 50  1  0
 12 51  1  0
 12 52  1  0
 13 53  1  0
 13 54  1  0
 19 55  1  0
 19 56  1  0
 20 57  1  0
 20 58  1  0
 22 59  1  0
 23 60  1  0
 24 61  1  0
 25 62  1  0
 27 63  1  0
 27 64  1  0
 31 65  1  0
 31 66  1  0
 32 67  1  0
 32 68  1  0
 34 69  1  0
 35 70  1  0
 36 71  1  0
 37 72  1  0
 39 73  1  0
 39 74  1  0
 41 75  1  0
 41 76  1  0
M  END
>  <smiles>  (22) 
O=C(Nc1ccccc1)[C@@H]1CCCN(c2nc(N3CCc4ccccc4C3)nc(N3CCc4ccccc4C3)n2)C1

>  <score_type>  (22) 
oracle

>  <origin>  (22) 
autodockgpu

>  <m_score__min__energy>  (22) 
-9.7799999999999994

>  <m_primary>  (22) 
energy

>  <rmsd>  (22) 
3.6000146203186705

>  <m_score__min__rmsd>  (22) 
3.6000146203186705

>  <meeko>  (22) 
{"free_energy": -9.53, "intermolecular_energy": -11.02, "internal_energy": -1.31, "cluster_size": 13, "cluster_id": 3, "rank_in_cluster": 2}

>  <energy>  (22) 
-9.49

>  <cluster_rmsd>  (22) 
0.23

>  <cluster>  (22) 
3

$$$$

     RDKit          3D

 76 82  0  0  0  0  0  0  0  0999 V2000
  133.8560   71.6740  223.3540 O   0  0  0  0  0  0  0  0  0  0  0  0
  135.0200   72.1640  223.5270 C   0  0  0  0  0  0  0  0  0  0  0  0
  135.1770   72.9590  224.6990 N   0  0  0  0  0  0  0  0  0  0  0  0
  134.1200   73.1990  225.6210 C   0  0  0  0  0  0  0  0  0  0  0  0
  133.4930   72.1540  226.2690 C   0  0  0  0  0  0  0  0  0  0  0  0
  132.4780   72.4490  227.1510 C   0  0  0  0  0  0  0  0  0  0  0  0
  132.0690   73.7470  227.4070 C   0  0  0  0  0  0  0  0  0  0  0  0
  132.7110   74.7610  226.7490 C   0  0  0  0  0  0  0  0  0  0  0  0
  133.7170   74.4880  225.8750 C   0  0  0  0  0  0  0  0  0  0  0  0
  136.1290   71.9190  222.5730 C   0  0  2  0  0  0  0  0  0  0  0  0
  136.0580   70.5140  222.0360 C   0  0  0  0  0  0  0  0  0  0  0  0
  137.1400   69.6190  222.5450 C   0  0  0  0  0  0  0  0  0  0  0  0
  138.4940   70.1990  222.2820 C   0  0  0  0  0  0  0  0  0  0  0  0
  138.5560   71.6200  222.4520 N   0  0  0  0  0  0  0  0  0  0  0  0
  139.6570   72.3430  221.9160 C   0  0  0  0  0  0  0  0  0  0  0  0
  140.6940   71.6500  221.4130 N   0  0  0  0  0  0  0  0  0  0  0  0
  141.7770   72.2500  220.8850 C   0  0  0  0  0  0  0  0  0  0  0  0
  142.8800   71.5010  220.3510 N   0  0  0  0  0  0  0  0  0  0  0  0
  144.1970   72.0860  220.5110 C   0  0  0  0  0  0  0  0  0  0  0  0
  144.9390   71.7890  219.2090 C   0  0  0  0  0  0  0  0  0  0  0  0
  145.0700   70.2950  219.1530 C   0  0  0  0  0  0  0  0  0  0  0  0
  146.2680   69.6750  218.8710 C   0  0  0  0  0  0  0  0  0  0  0  0
  146.3520   68.3010  218.8290 C   0  0  0  0  0  0  0  0  0  0  0  0
  145.2050   67.5740  219.0770 C   0  0  0  0  0  0  0  0  0  0  0  0
  144.0110   68.1990  219.3580 C   0  0  0  0  0  0  0  0  0  0  0  0
  143.9070   69.5830  219.4050 C   0  0  0  0  0  0  0  0  0  0  0  0
  142.6170   70.2540  219.7090 C   0  0  0  0  0  0  0  0  0  0  0  0
  141.7890   73.6090  220.8760 N   0  0  0  0  0  0  0  0  0  0  0  0
  140.7770   74.3450  221.3670 C   0  0  0  0  0  0  0  0  0  0  0  0
  140.8640   75.7620  221.3220 N   0  0  0  0  0  0  0  0  0  0  0  0
  141.5630   76.3420  220.1890 C   0  0  0  0  0  0  0  0  0  0  0  0
  141.0980   77.7880  219.9760 C   0  0  0  0  0  0  0  0  0  0  0  0
  141.4870   78.4920  221.2430 C   0  0  0  0  0  0  0  0  0  0  0  0
  142.2090   79.6700  221.2220 C   0  0  0  0  0  0  0  0  0  0  0  0
  142.5290   80.2590  222.4380 C   0  0  0  0  0  0  0  0  0  0  0  0
  142.1230   79.6640  223.6370 C   0  0  0  0  0  0  0  0  0  0  0  0
  141.3950   78.4760  223.6260 C   0  0  0  0  0  0  0  0  0  0  0  0
  141.0750   77.8880  222.4160 C   0  0  0  0  0  0  0  0  0  0  0  0
  140.2920   76.6060  222.3440 C   0  0  0  0  0  0  0  0  0  0  0  0
  139.7160   73.6870  221.8850 N   0  0  0  0  0  0  0  0  0  0  0  0
  137.4740   72.2640  223.1740 C   0  0  0  0  0  0  0  0  0  0  0  0
  136.0940   73.4000  224.9210 H   0  0  0  0  0  0  0  0  0  0  0  0
  133.7964   71.1127  226.0855 H   0  0  0  0  0  0  0  0  0  0  0  0
  131.9728   71.6224  227.6721 H   0  0  0  0  0  0  0  0  0  0  0  0
  131.2546   73.9563  228.1162 H   0  0  0  0  0  0  0  0  0  0  0  0
  132.4113   75.8041  226.9282 H   0  0  0  0  0  0  0  0  0  0  0  0
  134.2201   75.3191  225.3591 H   0  0  0  0  0  0  0  0  0  0  0  0
  136.0109   72.5967  221.7146 H   0  0  0  0  0  0  0  0  0  0  0  0
  135.0875   70.0821  222.3217 H   0  0  0  0  0  0  0  0  0  0  0  0
  136.1841   70.5810  220.9453 H   0  0  0  0  0  0  0  0  0  0  0  0
  137.0126   69.4836  223.6292 H   0  0  0  0  0  0  0  0  0  0  0  0
  137.0678   68.6544  222.0212 H   0  0  0  0  0  0  0  0  0  0  0  0
  139.2109   69.7349  222.9753 H   0  0  0  0  0  0  0  0  0  0  0  0
  138.7331   69.9911  221.2286 H   0  0  0  0  0  0  0  0  0  0  0  0
  144.1183   73.1717  220.6691 H   0  0  0  0  0  0  0  0  0  0  0  0
  144.7234   71.6714  221.3833 H   0  0  0  0  0  0  0  0  0  0  0  0
  144.3640   72.1569  218.3465 H   0  0  0  0  0  0  0  0  0  0  0  0
  145.9198   72.2858  219.1762 H   0  0  0  0  0  0  0  0  0  0  0  0
  147.1645   70.2825  218.6779 H   0  0  0  0  0  0  0  0  0  0  0  0
  147.3042   67.7981  218.6046 H   0  0  0  0  0  0  0  0  0  0  0  0
  145.2458   66.4751  219.0496 H   0  0  0  0  0  0  0  0  0  0  0  0
  143.1173   67.5870  219.5500 H   0  0  0  0  0  0  0  0  0  0  0  0
  142.0640   70.4301  218.7745 H   0  0  0  0  0  0  0  0  0  0  0  0
  142.0140   69.6157  220.3715 H   0  0  0  0  0  0  0  0  0  0  0  0
  142.6456   76.3315  220.3836 H   0  0  0  0  0  0  0  0  0  0  0  0
  141.3428   75.7531  219.2864 H   0  0  0  0  0  0  0  0  0  0  0  0
  141.6051   78.2369  219.1092 H   0  0  0  0  0  0  0  0  0  0  0  0
  140.0196   77.8571  219.7704 H   0  0  0  0  0  0  0  0  0  0  0  0
  142.5206   80.1271  220.2712 H   0  0  0  0  0  0  0  0  0  0  0  0
  143.1037   81.1967  222.4585 H   0  0  0  0  0  0  0  0  0  0  0  0
  142.3804   80.1376  224.5959 H   0  0  0  0  0  0  0  0  0  0  0  0
  141.0779   78.0103  224.5708 H   0  0  0  0  0  0  0  0  0  0  0  0
  140.3372   76.0913  223.3151 H   0  0  0  0  0  0  0  0  0  0  0  0
  139.2421   76.8253  222.0998 H   0  0  0  0  0  0  0  0  0  0  0  0
  137.4942   71.9303  224.2220 H   0  0  0  0  0  0  0  0  0  0  0  0
  137.6137   73.3532  223.1091 H   0  0  0  0  0  0  0  0  0  0  0  0
  1  2  2  0
  2  3  1  0
  3  4  1  0
  4  5  2  0
  5  6  1  0
  6  7  2  0
  7  8  1  0
  8  9  2  0
  2 10  1  0
 10 11  1  0
 11 12  1  0
 12 13  1  0
 13 14  1  0
 14 15  1  0
 15 16  2  0
 16 17  1  0
 17 18  1  0
 18 19  1  0
 19 20  1  0
 20 21  1  0
 21 22  2  0
 22 23  1  0
 23 24  2  0
 24 25  1  0
 25 26  2  0
 26 27  1  0
 17 28  2  0
 28 29  1  0
 29 30  1  0
 30 31  1  0
 31 32  1  0
 32 33  1  0
 33 34  2  0
 34 35  1  0
 35 36  2  0
 36 37  1  0
 37 38  2  0
 38 39  1  0
 29 40  2  0
 14 41  1  0
  9  4  1  0
 41 10  1  0
 40 15  1  0
 27 18  1  0
 39 30  1  0
 26 21  1  0
 38 33  1  0
  3 42  1  0
  5 43  1  0
  6 44  1  0
  7 45  1  0
  8 46  1  0
  9 47  1  0
 10 48  1  6
 11 49  1  0
 11 50  1  0
 12 51  1  0
 12 52  1  0
 13 53  1  0
 13 54  1  0
 19 55  1  0
 19 56  1  0
 20 57  1  0
 20 58  1  0
 22 59  1  0
 23 60  1  0
 24 61  1  0
 25 62  1  0
 27 63  1  0
 27 64  1  0
 31 65  1  0
 31 66  1  0
 32 67  1  0
 32 68  1  0
 34 69  1  0
 35 70  1  0
 36 71  1  0
 37 72  1  0
 39 73  1  0
 39 74  1  0
 41 75  1  0
 41 76  1  0
M  END
>  <smiles>  (23) 
O=C(Nc1ccccc1)[C@@H]1CCCN(c2nc(N3CCc4ccccc4C3)nc(N3CCc4ccccc4C3)n2)C1

>  <score_type>  (23) 
oracle

>  <origin>  (23) 
autodockgpu

>  <m_score__min__energy>  (23) 
-9.7799999999999994

>  <m_primary>  (23) 
energy

>  <rmsd>  (23) 
9.83275720385511

>  <m_score__min__rmsd>  (23) 
9.83275720385511

>  <meeko>  (23) 
{"free_energy": -9.37, "intermolecular_energy": -10.86, "internal_energy": -1.29, "cluster_size": 19, "cluster_id": 4, "rank_in_cluster": 17}

>  <energy>  (23) 
-9.45

>  <cluster_rmsd>  (23) 
1.29

>  <cluster>  (23) 
3

$$$$

     RDKit          3D

 76 82  0  0  0  0  0  0  0  0999 V2000
  133.6620   72.4240  223.1250 O   0  0  0  0  0  0  0  0  0  0  0  0
  134.8760   72.7270  223.3720 C   0  0  0  0  0  0  0  0  0  0  0  0
  135.1230   73.2280  224.6830 N   0  0  0  0  0  0  0  0  0  0  0  0
  134.1000   73.3860  225.6590 C   0  0  0  0  0  0  0  0  0  0  0  0
  133.6040   74.6350  225.9720 C   0  0  0  0  0  0  0  0  0  0  0  0
  132.6140   74.7250  226.9230 C   0  0  0  0  0  0  0  0  0  0  0  0
  132.1030   73.6120  227.5720 C   0  0  0  0  0  0  0  0  0  0  0  0
  132.6140   72.3880  227.2400 C   0  0  0  0  0  0  0  0  0  0  0  0
  133.5930   72.2810  226.3000 C   0  0  0  0  0  0  0  0  0  0  0  0
  135.9500   72.5650  222.3630 C   0  0  2  0  0  0  0  0  0  0  0  0
  135.7250   71.3150  221.5540 C   0  0  0  0  0  0  0  0  0  0  0  0
  136.7030   70.2240  221.8440 C   0  0  0  0  0  0  0  0  0  0  0  0
  138.1120   70.6970  221.6740 C   0  0  0  0  0  0  0  0  0  0  0  0
  138.3300   72.0380  222.1270 N   0  0  0  0  0  0  0  0  0  0  0  0
  139.5030   72.7330  221.7240 C   0  0  0  0  0  0  0  0  0  0  0  0
  140.5500   72.0160  221.2770 N   0  0  0  0  0  0  0  0  0  0  0  0
  141.7000   72.5890  220.8750 C   0  0  0  0  0  0  0  0  0  0  0  0
  142.8120   71.8150  220.3990 N   0  0  0  0  0  0  0  0  0  0  0  0
  144.1160   72.4460  220.4710 C   0  0  0  0  0  0  0  0  0  0  0  0
  144.8430   72.0320  219.1930 C   0  0  0  0  0  0  0  0  0  0  0  0
  145.0120   70.5440  219.2910 C   0  0  0  0  0  0  0  0  0  0  0  0
  146.2210   69.9270  219.0510 C   0  0  0  0  0  0  0  0  0  0  0  0
  146.3400   68.5590  219.1510 C   0  0  0  0  0  0  0  0  0  0  0  0
  145.2170   67.8340  219.4960 C   0  0  0  0  0  0  0  0  0  0  0  0
  144.0110   68.4560  219.7340 C   0  0  0  0  0  0  0  0  0  0  0  0
  143.8730   69.8350  219.6380 C   0  0  0  0  0  0  0  0  0  0  0  0
  142.5710   70.5020  219.8960 C   0  0  0  0  0  0  0  0  0  0  0  0
  141.7690   73.9450  220.9340 N   0  0  0  0  0  0  0  0  0  0  0  0
  140.7500   74.7050  221.3730 C   0  0  0  0  0  0  0  0  0  0  0  0
  140.9010   76.1170  221.4060 N   0  0  0  0  0  0  0  0  0  0  0  0
  141.7020   76.7170  220.3550 C   0  0  0  0  0  0  0  0  0  0  0  0
  141.3150   78.1920  220.1850 C   0  0  0  0  0  0  0  0  0  0  0  0
  141.6440   78.8150  221.5100 C   0  0  0  0  0  0  0  0  0  0  0  0
  142.4160   79.9580  221.5980 C   0  0  0  0  0  0  0  0  0  0  0  0
  142.6750   80.4730  222.8610 C   0  0  0  0  0  0  0  0  0  0  0  0
  142.1610   79.8400  223.9970 C   0  0  0  0  0  0  0  0  0  0  0  0
  141.3850   78.6890  223.8770 C   0  0  0  0  0  0  0  0  0  0  0  0
  141.1260   78.1760  222.6200 C   0  0  0  0  0  0  0  0  0  0  0  0
  140.2960   76.9360  222.4290 C   0  0  0  0  0  0  0  0  0  0  0  0
  139.6210   74.0730  221.7650 N   0  0  0  0  0  0  0  0  0  0  0  0
  137.3260   72.6330  222.9900 C   0  0  0  0  0  0  0  0  0  0  0  0
  136.0850   73.5010  224.9740 H   0  0  0  0  0  0  0  0  0  0  0  0
  133.9905   75.5362  225.4736 H   0  0  0  0  0  0  0  0  0  0  0  0
  132.2131   75.7171  227.1778 H   0  0  0  0  0  0  0  0  0  0  0  0
  131.3118   73.7102  228.3298 H   0  0  0  0  0  0  0  0  0  0  0  0
  132.2315   71.4836  227.7358 H   0  0  0  0  0  0  0  0  0  0  0  0
  133.9879   71.2859  226.0474 H   0  0  0  0  0  0  0  0  0  0  0  0
  135.9058   73.4128  221.6636 H   0  0  0  0  0  0  0  0  0  0  0  0
  134.7135   70.9401  221.7694 H   0  0  0  0  0  0  0  0  0  0  0  0
  135.8565   71.5899  220.4971 H   0  0  0  0  0  0  0  0  0  0  0  0
  136.5622   69.8828  222.8802 H   0  0  0  0  0  0  0  0  0  0  0  0
  136.5253   69.4014  221.1356 H   0  0  0  0  0  0  0  0  0  0  0  0
  138.7738   70.0270  222.2425 H   0  0  0  0  0  0  0  0  0  0  0  0
  138.3263   70.6844  220.5951 H   0  0  0  0  0  0  0  0  0  0  0  0
  144.0113   73.5401  220.5161 H   0  0  0  0  0  0  0  0  0  0  0  0
  144.6681   72.1386  221.3714 H   0  0  0  0  0  0  0  0  0  0  0  0
  144.2439   72.2933  218.3082 H   0  0  0  0  0  0  0  0  0  0  0  0
  145.8098   72.5462  219.0890 H   0  0  0  0  0  0  0  0  0  0  0  0
  147.0977   70.5324  218.7774 H   0  0  0  0  0  0  0  0  0  0  0  0
  147.3012   68.0587  218.9617 H   0  0  0  0  0  0  0  0  0  0  0  0
  145.2864   66.7396  219.5825 H   0  0  0  0  0  0  0  0  0  0  0  0
  143.1368   67.8464  220.0064 H   0  0  0  0  0  0  0  0  0  0  0  0
  141.9975   70.5656  218.9595 H   0  0  0  0  0  0  0  0  0  0  0  0
  141.9965   69.9219  220.6332 H   0  0  0  0  0  0  0  0  0  0  0  0
  142.7667   76.6472  220.6223 H   0  0  0  0  0  0  0  0  0  0  0  0
  141.5213   76.1828  219.4106 H   0  0  0  0  0  0  0  0  0  0  0  0
  141.9003   78.6583  219.3788 H   0  0  0  0  0  0  0  0  0  0  0  0
  140.2577   78.3208  219.9102 H   0  0  0  0  0  0  0  0  0  0  0  0
  142.8131   80.4448  220.6950 H   0  0  0  0  0  0  0  0  0  0  0  0
  143.2861   81.3813  222.9683 H   0  0  0  0  0  0  0  0  0  0  0  0
  142.3711   80.2544  224.9941 H   0  0  0  0  0  0  0  0  0  0  0  0
  140.9828   78.1939  224.7731 H   0  0  0  0  0  0  0  0  0  0  0  0
  140.2514   76.3733  223.3731 H   0  0  0  0  0  0  0  0  0  0  0  0
  139.2761   77.2152  222.1259 H   0  0  0  0  0  0  0  0  0  0  0  0
  137.3104   72.0916  223.9474 H   0  0  0  0  0  0  0  0  0  0  0  0
  137.5846   73.6909  223.1446 H   0  0  0  0  0  0  0  0  0  0  0  0
  1  2  2  0
  2  3  1  0
  3  4  1  0
  4  5  2  0
  5  6  1  0
  6  7  2  0
  7  8  1  0
  8  9  2  0
  2 10  1  0
 10 11  1  0
 11 12  1  0
 12 13  1  0
 13 14  1  0
 14 15  1  0
 15 16  2  0
 16 17  1  0
 17 18  1  0
 18 19  1  0
 19 20  1  0
 20 21  1  0
 21 22  2  0
 22 23  1  0
 23 24  2  0
 24 25  1  0
 25 26  2  0
 26 27  1  0
 17 28  2  0
 28 29  1  0
 29 30  1  0
 30 31  1  0
 31 32  1  0
 32 33  1  0
 33 34  2  0
 34 35  1  0
 35 36  2  0
 36 37  1  0
 37 38  2  0
 38 39  1  0
 29 40  2  0
 14 41  1  0
  9  4  1  0
 41 10  1  0
 40 15  1  0
 27 18  1  0
 39 30  1  0
 26 21  1  0
 38 33  1  0
  3 42  1  0
  5 43  1  0
  6 44  1  0
  7 45  1  0
  8 46  1  0
  9 47  1  0
 10 48  1  6
 11 49  1  0
 11 50  1  0
 12 51  1  0
 12 52  1  0
 13 53  1  0
 13 54  1  0
 19 55  1  0
 19 56  1  0
 20 57  1  0
 20 58  1  0
 22 59  1  0
 23 60  1  0
 24 61  1  0
 25 62  1  0
 27 63  1  0
 27 64  1  0
 31 65  1  0
 31 66  1  0
 32 67  1  0
 32 68  1  0
 34 69  1  0
 35 70  1  0
 36 71  1  0
 37 72  1  0
 39 73  1  0
 39 74  1  0
 41 75  1  0
 41 76  1  0
M  END
>  <smiles>  (24) 
O=C(Nc1ccccc1)[C@@H]1CCCN(c2nc(N3CCc4ccccc4C3)nc(N3CCc4ccccc4C3)n2)C1

>  <score_type>  (24) 
oracle

>  <origin>  (24) 
autodockgpu

>  <m_score__min__energy>  (24) 
-9.7799999999999994

>  <m_primary>  (24) 
energy

>  <rmsd>  (24) 
9.571609792546443

>  <m_score__min__rmsd>  (24) 
9.571609792546443

>  <meeko>  (24) 
{"free_energy": -9.25, "intermolecular_energy": -10.75, "internal_energy": -1.32, "cluster_size": 19, "cluster_id": 4, "rank_in_cluster": 19}

>  <energy>  (24) 
-9.41

>  <cluster_rmsd>  (24) 
0.82

>  <cluster>  (24) 
3

$$$$

     RDKit          3D

 76 82  0  0  0  0  0  0  0  0999 V2000
  138.2240   70.8540  224.4550 O   0  0  0  0  0  0  0  0  0  0  0  0
  139.3550   71.1390  223.9430 C   0  0  0  0  0  0  0  0  0  0  0  0
  140.4880   70.7370  224.7090 N   0  0  0  0  0  0  0  0  0  0  0  0
  140.3810   70.0640  225.9580 C   0  0  0  0  0  0  0  0  0  0  0  0
  140.2930   68.6880  226.0170 C   0  0  0  0  0  0  0  0  0  0  0  0
  140.1920   68.0930  227.2540 C   0  0  0  0  0  0  0  0  0  0  0  0
  140.1770   68.8230  228.4320 C   0  0  0  0  0  0  0  0  0  0  0  0
  140.2670   70.1860  228.3400 C   0  0  0  0  0  0  0  0  0  0  0  0
  140.3680   70.7900  227.1240 C   0  0  0  0  0  0  0  0  0  0  0  0
  139.4790   71.8390  222.6420 C   0  0  2  0  0  0  0  0  0  0  0  0
  139.3000   70.8670  221.5050 C   0  0  0  0  0  0  0  0  0  0  0  0
  140.5580   70.5810  220.7530 C   0  0  0  0  0  0  0  0  0  0  0  0
  141.1920   71.8420  220.2530 C   0  0  0  0  0  0  0  0  0  0  0  0
  141.1010   72.9360  221.1720 N   0  0  0  0  0  0  0  0  0  0  0  0
  141.3430   74.2610  220.7130 C   0  0  0  0  0  0  0  0  0  0  0  0
  142.0760   74.4260  219.5970 N   0  0  0  0  0  0  0  0  0  0  0  0
  142.3550   75.6410  219.0890 C   0  0  0  0  0  0  0  0  0  0  0  0
  143.1390   75.8080  217.8970 N   0  0  0  0  0  0  0  0  0  0  0  0
  143.0900   77.1150  217.2690 C   0  0  0  0  0  0  0  0  0  0  0  0
  143.0760   76.8470  215.7660 C   0  0  0  0  0  0  0  0  0  0  0  0
  144.3970   76.2050  215.4600 C   0  0  0  0  0  0  0  0  0  0  0  0
  145.1940   76.6300  214.4190 C   0  0  0  0  0  0  0  0  0  0  0  0
  146.4020   76.0180  214.1670 C   0  0  0  0  0  0  0  0  0  0  0  0
  146.7820   74.9730  214.9850 C   0  0  0  0  0  0  0  0  0  0  0  0
  145.9810   74.5530  216.0240 C   0  0  0  0  0  0  0  0  0  0  0  0
  144.7600   75.1580  216.2930 C   0  0  0  0  0  0  0  0  0  0  0  0
  143.8990   74.7020  217.4140 C   0  0  0  0  0  0  0  0  0  0  0  0
  141.8600   76.7180  219.7530 N   0  0  0  0  0  0  0  0  0  0  0  0
  141.1220   76.6040  220.8720 C   0  0  0  0  0  0  0  0  0  0  0  0
  140.6410   77.7780  221.5090 N   0  0  0  0  0  0  0  0  0  0  0  0
  141.3780   78.2460  222.6690 C   0  0  0  0  0  0  0  0  0  0  0  0
  141.1170   79.7430  222.8810 C   0  0  0  0  0  0  0  0  0  0  0  0
  139.6410   79.8290  223.1340 C   0  0  0  0  0  0  0  0  0  0  0  0
  139.1340   80.5020  224.2290 C   0  0  0  0  0  0  0  0  0  0  0  0
  137.7550   80.5360  224.3920 C   0  0  0  0  0  0  0  0  0  0  0  0
  136.9220   79.9020  223.4650 C   0  0  0  0  0  0  0  0  0  0  0  0
  137.4620   79.2320  222.3700 C   0  0  0  0  0  0  0  0  0  0  0  0
  138.8340   79.1970  222.2060 C   0  0  0  0  0  0  0  0  0  0  0  0
  139.4740   78.4880  221.0440 C   0  0  0  0  0  0  0  0  0  0  0  0
  140.8760   75.3580  221.3360 N   0  0  0  0  0  0  0  0  0  0  0  0
  140.7610   72.6380  222.5520 C   0  0  0  0  0  0  0  0  0  0  0  0
  141.4530   70.9290  224.3680 H   0  0  0  0  0  0  0  0  0  0  0  0
  140.3033   68.0823  225.0989 H   0  0  0  0  0  0  0  0  0  0  0  0
  140.1205   66.9967  227.3097 H   0  0  0  0  0  0  0  0  0  0  0  0
  140.0955   68.3237  229.4088 H   0  0  0  0  0  0  0  0  0  0  0  0
  140.2576   70.7972  229.2545 H   0  0  0  0  0  0  0  0  0  0  0  0
  140.4410   71.8864  227.0741 H   0  0  0  0  0  0  0  0  0  0  0  0
  138.6692   72.5792  222.5624 H   0  0  0  0  0  0  0  0  0  0  0  0
  138.9181   69.9203  221.9149 H   0  0  0  0  0  0  0  0  0  0  0  0
  138.6002   71.3307  220.7942 H   0  0  0  0  0  0  0  0  0  0  0  0
  141.2644   70.0648  221.4197 H   0  0  0  0  0  0  0  0  0  0  0  0
  140.3088   69.9507  219.8866 H   0  0  0  0  0  0  0  0  0  0  0  0
  142.2555   71.6415  220.0561 H   0  0  0  0  0  0  0  0  0  0  0  0
  140.6455   72.1384  219.3455 H   0  0  0  0  0  0  0  0  0  0  0  0
  142.1794   77.6528  217.5718 H   0  0  0  0  0  0  0  0  0  0  0  0
  143.9455   77.7407  217.5633 H   0  0  0  0  0  0  0  0  0  0  0  0
  142.2498   76.1697  215.5041 H   0  0  0  0  0  0  0  0  0  0  0  0
  142.9285   77.7715  215.1884 H   0  0  0  0  0  0  0  0  0  0  0  0
  144.8626   77.4649  213.7841 H   0  0  0  0  0  0  0  0  0  0  0  0
  147.0445   76.3519  213.3389 H   0  0  0  0  0  0  0  0  0  0  0  0
  147.7416   74.4666  214.8039 H   0  0  0  0  0  0  0  0  0  0  0  0
  146.3167   73.7178  216.6563 H   0  0  0  0  0  0  0  0  0  0  0  0
  143.2184   73.9141  217.0591 H   0  0  0  0  0  0  0  0  0  0  0  0
  144.5259   74.3006  218.2239 H   0  0  0  0  0  0  0  0  0  0  0  0
  141.0506   77.6886  223.5590 H   0  0  0  0  0  0  0  0  0  0  0  0
  142.4537   78.0843  222.5055 H   0  0  0  0  0  0  0  0  0  0  0  0
  141.6833   80.1187  223.7460 H   0  0  0  0  0  0  0  0  0  0  0  0
  141.4322   80.3509  222.0201 H   0  0  0  0  0  0  0  0  0  0  0  0
  139.8022   80.9959  224.9498 H   0  0  0  0  0  0  0  0  0  0  0  0
  137.3171   81.0630  225.2525 H   0  0  0  0  0  0  0  0  0  0  0  0
  135.8310   79.9327  223.6018 H   0  0  0  0  0  0  0  0  0  0  0  0
  136.8030   78.7354  221.6426 H   0  0  0  0  0  0  0  0  0  0  0  0
  138.7586   77.7752  220.6080 H   0  0  0  0  0  0  0  0  0  0  0  0
  139.7669   79.2212  220.2781 H   0  0  0  0  0  0  0  0  0  0  0  0
  141.5779   72.0570  223.0049 H   0  0  0  0  0  0  0  0  0  0  0  0
  140.6163   73.5882  223.0870 H   0  0  0  0  0  0  0  0  0  0  0  0
  1  2  2  0
  2  3  1  0
  3  4  1  0
  4  5  2  0
  5  6  1  0
  6  7  2  0
  7  8  1  0
  8  9  2  0
  2 10  1  0
 10 11  1  0
 11 12  1  0
 12 13  1  0
 13 14  1  0
 14 15  1  0
 15 16  2  0
 16 17  1  0
 17 18  1  0
 18 19  1  0
 19 20  1  0
 20 21  1  0
 21 22  2  0
 22 23  1  0
 23 24  2  0
 24 25  1  0
 25 26  2  0
 26 27  1  0
 17 28  2  0
 28 29  1  0
 29 30  1  0
 30 31  1  0
 31 32  1  0
 32 33  1  0
 33 34  2  0
 34 35  1  0
 35 36  2  0
 36 37  1  0
 37 38  2  0
 38 39  1  0
 29 40  2  0
 14 41  1  0
  9  4  1  0
 41 10  1  0
 40 15  1  0
 27 18  1  0
 39 30  1  0
 26 21  1  0
 38 33  1  0
  3 42  1  0
  5 43  1  0
  6 44  1  0
  7 45  1  0
  8 46  1  0
  9 47  1  0
 10 48  1  1
 11 49  1  0
 11 50  1  0
 12 51  1  0
 12 52  1  0
 13 53  1  0
 13 54  1  0
 19 55  1  0
 19 56  1  0
 20 57  1  0
 20 58  1  0
 22 59  1  0
 23 60  1  0
 24 61  1  0
 25 62  1  0
 27 63  1  0
 27 64  1  0
 31 65  1  0
 31 66  1  0
 32 67  1  0
 32 68  1  0
 34 69  1  0
 35 70  1  0
 36 71  1  0
 37 72  1  0
 39 73  1  0
 39 74  1  0
 41 75  1  0
 41 76  1  0
M  END
>  <smiles>  (25) 
O=C(Nc1ccccc1)[C@@H]1CCCN(c2nc(N3CCc4ccccc4C3)nc(N3CCc4ccccc4C3)n2)C1

>  <score_type>  (25) 
oracle

>  <origin>  (25) 
autodockgpu

>  <m_score__min__energy>  (25) 
-9.7799999999999994

>  <m_primary>  (25) 
energy

>  <rmsd>  (25) 
10.017816887072051

>  <m_score__min__rmsd>  (25) 
10.017816887072051

>  <meeko>  (25) 
{"free_energy": -8.99, "intermolecular_energy": -10.48, "internal_energy": -1.33, "cluster_size": 15, "cluster_id": 1, "rank_in_cluster": 15}

>  <energy>  (25) 
-9.38

>  <cluster_rmsd>  (25) 
0.83

>  <cluster>  (25) 
3

$$$$

     RDKit          3D

 76 82  0  0  0  0  0  0  0  0999 V2000
  136.0100   68.7150  222.9510 O   0  0  0  0  0  0  0  0  0  0  0  0
  136.7160   69.2790  223.8490 C   0  0  0  0  0  0  0  0  0  0  0  0
  136.0380   69.5580  225.0710 N   0  0  0  0  0  0  0  0  0  0  0  0
  134.6690   69.2370  225.2890 C   0  0  0  0  0  0  0  0  0  0  0  0
  133.6840   70.1930  225.1500 C   0  0  0  0  0  0  0  0  0  0  0  0
  132.3780   69.8220  225.3720 C   0  0  0  0  0  0  0  0  0  0  0  0
  132.0210   68.5320  225.7280 C   0  0  0  0  0  0  0  0  0  0  0  0
  133.0210   67.6060  225.8580 C   0  0  0  0  0  0  0  0  0  0  0  0
  134.3180   67.9560  225.6410 C   0  0  0  0  0  0  0  0  0  0  0  0
  138.1440   69.6180  223.6340 C   0  0  2  0  0  0  0  0  0  0  0  0
  138.9890   69.0590  224.7480 C   0  0  0  0  0  0  0  0  0  0  0  0
  139.5360   70.0990  225.6700 C   0  0  0  0  0  0  0  0  0  0  0  0
  140.3040   71.1420  224.9190 C   0  0  0  0  0  0  0  0  0  0  0  0
  139.7220   71.4900  223.6580 N   0  0  0  0  0  0  0  0  0  0  0  0
  140.4990   72.1940  222.6970 C   0  0  0  0  0  0  0  0  0  0  0  0
  141.4030   71.5060  221.9770 N   0  0  0  0  0  0  0  0  0  0  0  0
  142.1810   72.0890  221.0460 C   0  0  0  0  0  0  0  0  0  0  0  0
  143.1440   71.3460  220.2820 N   0  0  0  0  0  0  0  0  0  0  0  0
  144.4470   71.9600  220.1120 C   0  0  0  0  0  0  0  0  0  0  0  0
  144.8670   71.6400  218.6790 C   0  0  0  0  0  0  0  0  0  0  0  0
  145.0180   70.1480  218.6280 C   0  0  0  0  0  0  0  0  0  0  0  0
  146.1300   69.5420  218.0840 C   0  0  0  0  0  0  0  0  0  0  0  0
  146.2350   68.1700  218.0540 C   0  0  0  0  0  0  0  0  0  0  0  0
  145.1980   67.4290  218.5830 C   0  0  0  0  0  0  0  0  0  0  0  0
  144.0880   68.0400  219.1250 C   0  0  0  0  0  0  0  0  0  0  0  0
  143.9650   69.4220  219.1630 C   0  0  0  0  0  0  0  0  0  0  0  0
  142.7670   70.0780  219.7490 C   0  0  0  0  0  0  0  0  0  0  0  0
  142.0180   73.4240  220.8510 N   0  0  0  0  0  0  0  0  0  0  0  0
  141.1280   74.1550  221.5460 C   0  0  0  0  0  0  0  0  0  0  0  0
  141.0180   75.5470  221.2850 N   0  0  0  0  0  0  0  0  0  0  0  0
  141.6480   76.0400  220.0740 C   0  0  0  0  0  0  0  0  0  0  0  0
  140.9900   77.3580  219.6450 C   0  0  0  0  0  0  0  0  0  0  0  0
  141.2570   78.2930  220.7890 C   0  0  0  0  0  0  0  0  0  0  0  0
  141.8090   79.5430  220.5850 C   0  0  0  0  0  0  0  0  0  0  0  0
  142.0240   80.3490  221.6960 C   0  0  0  0  0  0  0  0  0  0  0  0
  141.6850   79.8900  222.9730 C   0  0  0  0  0  0  0  0  0  0  0  0
  141.1300   78.6250  223.1470 C   0  0  0  0  0  0  0  0  0  0  0  0
  140.9150   77.8220  222.0420 C   0  0  0  0  0  0  0  0  0  0  0  0
  140.3190   76.4470  222.1700 C   0  0  0  0  0  0  0  0  0  0  0  0
  140.3760   73.5150  222.4680 N   0  0  0  0  0  0  0  0  0  0  0  0
  138.3440   71.1020  223.4160 C   0  0  0  0  0  0  0  0  0  0  0  0
  136.5360   70.0180  225.8620 H   0  0  0  0  0  0  0  0  0  0  0  0
  133.9366   71.2260  224.8687 H   0  0  0  0  0  0  0  0  0  0  0  0
  131.5872   70.5787  225.2626 H   0  0  0  0  0  0  0  0  0  0  0  0
  130.9691   68.2605  225.9005 H   0  0  0  0  0  0  0  0  0  0  0  0
  132.7743   66.5717  226.1399 H   0  0  0  0  0  0  0  0  0  0  0  0
  135.1046   67.1949  225.7501 H   0  0  0  0  0  0  0  0  0  0  0  0
  138.4825   69.1393  222.7033 H   0  0  0  0  0  0  0  0  0  0  0  0
  138.3717   68.3641  225.3363 H   0  0  0  0  0  0  0  0  0  0  0  0
  139.8507   68.5623  224.2781 H   0  0  0  0  0  0  0  0  0  0  0  0
  138.7022   70.5811  226.2013 H   0  0  0  0  0  0  0  0  0  0  0  0
  140.2186   69.6092  226.3800 H   0  0  0  0  0  0  0  0  0  0  0  0
  140.3558   72.0488  225.5395 H   0  0  0  0  0  0  0  0  0  0  0  0
  141.2976   70.7196  224.7084 H   0  0  0  0  0  0  0  0  0  0  0  0
  144.3810   73.0481  220.2590 H   0  0  0  0  0  0  0  0  0  0  0  0
  145.1749   71.5804  220.8442 H   0  0  0  0  0  0  0  0  0  0  0  0
  144.0954   71.9726  217.9691 H   0  0  0  0  0  0  0  0  0  0  0  0
  145.7997   72.1538  218.4032 H   0  0  0  0  0  0  0  0  0  0  0  0
  146.9404   70.1601  217.6703 H   0  0  0  0  0  0  0  0  0  0  0  0
  147.1191   67.6788  217.6213 H   0  0  0  0  0  0  0  0  0  0  0  0
  145.2585   66.3307  218.5718 H   0  0  0  0  0  0  0  0  0  0  0  0
  143.2802   67.4176  219.5374 H   0  0  0  0  0  0  0  0  0  0  0  0
  142.0048   70.2183  218.9683 H   0  0  0  0  0  0  0  0  0  0  0  0
  142.3531   69.4473  220.5496 H   0  0  0  0  0  0  0  0  0  0  0  0
  142.7182   76.2106  220.2626 H   0  0  0  0  0  0  0  0  0  0  0  0
  141.5267   75.2960  219.2729 H   0  0  0  0  0  0  0  0  0  0  0  0
  141.4441   77.7369  218.7175 H   0  0  0  0  0  0  0  0  0  0  0  0
  139.9161   77.2441  219.4360 H   0  0  0  0  0  0  0  0  0  0  0  0
  142.0702   79.8894  219.5742 H   0  0  0  0  0  0  0  0  0  0  0  0
  142.4618   81.3504  221.5711 H   0  0  0  0  0  0  0  0  0  0  0  0
  141.8584   80.5342  223.8476 H   0  0  0  0  0  0  0  0  0  0  0  0
  140.8653   78.2680  224.1532 H   0  0  0  0  0  0  0  0  0  0  0  0
  140.4204   76.0964  223.2077 H   0  0  0  0  0  0  0  0  0  0  0  0
  139.2527   76.4780  221.9016 H   0  0  0  0  0  0  0  0  0  0  0  0
  137.6894   71.6567  224.1044 H   0  0  0  0  0  0  0  0  0  0  0  0
  138.0962   71.3357  222.3701 H   0  0  0  0  0  0  0  0  0  0  0  0
  1  2  2  0
  2  3  1  0
  3  4  1  0
  4  5  2  0
  5  6  1  0
  6  7  2  0
  7  8  1  0
  8  9  2  0
  2 10  1  0
 10 11  1  0
 11 12  1  0
 12 13  1  0
 13 14  1  0
 14 15  1  0
 15 16  2  0
 16 17  1  0
 17 18  1  0
 18 19  1  0
 19 20  1  0
 20 21  1  0
 21 22  2  0
 22 23  1  0
 23 24  2  0
 24 25  1  0
 25 26  2  0
 26 27  1  0
 17 28  2  0
 28 29  1  0
 29 30  1  0
 30 31  1  0
 31 32  1  0
 32 33  1  0
 33 34  2  0
 34 35  1  0
 35 36  2  0
 36 37  1  0
 37 38  2  0
 38 39  1  0
 29 40  2  0
 14 41  1  0
  9  4  1  0
 41 10  1  0
 40 15  1  0
 27 18  1  0
 39 30  1  0
 26 21  1  0
 38 33  1  0
  3 42  1  0
  5 43  1  0
  6 44  1  0
  7 45  1  0
  8 46  1  0
  9 47  1  0
 10 48  1  6
 11 49  1  0
 11 50  1  0
 12 51  1  0
 12 52  1  0
 13 53  1  0
 13 54  1  0
 19 55  1  0
 19 56  1  0
 20 57  1  0
 20 58  1  0
 22 59  1  0
 23 60  1  0
 24 61  1  0
 25 62  1  0
 27 63  1  0
 27 64  1  0
 31 65  1  0
 31 66  1  0
 32 67  1  0
 32 68  1  0
 34 69  1  0
 35 70  1  0
 36 71  1  0
 37 72  1  0
 39 73  1  0
 39 74  1  0
 41 75  1  0
 41 76  1  0
M  END
>  <smiles>  (26) 
O=C(Nc1ccccc1)[C@@H]1CCCN(c2nc(N3CCc4ccccc4C3)nc(N3CCc4ccccc4C3)n2)C1

>  <score_type>  (26) 
oracle

>  <origin>  (26) 
autodockgpu

>  <m_score__min__energy>  (26) 
-9.7799999999999994

>  <m_primary>  (26) 
energy

>  <rmsd>  (26) 
11.906139493360344

>  <m_score__min__rmsd>  (26) 
11.906139493360344

>  <meeko>  (26) 
{"free_energy": -9.4, "intermolecular_energy": -10.89, "internal_energy": -1.36, "cluster_size": 19, "cluster_id": 4, "rank_in_cluster": 12}

>  <energy>  (26) 
-9.34

>  <cluster_rmsd>  (26) 
1.36

>  <cluster>  (26) 
3

$$$$

     RDKit          3D

 76 82  0  0  0  0  0  0  0  0999 V2000
  137.8330   78.6050  223.0960 O   0  0  0  0  0  0  0  0  0  0  0  0
  139.0220   78.9970  223.3350 C   0  0  0  0  0  0  0  0  0  0  0  0
  139.1270   80.2550  223.9970 N   0  0  0  0  0  0  0  0  0  0  0  0
  137.9950   81.0310  224.3700 C   0  0  0  0  0  0  0  0  0  0  0  0
  137.3480   81.8300  223.4500 C   0  0  0  0  0  0  0  0  0  0  0  0
  136.2570   82.5580  223.8700 C   0  0  0  0  0  0  0  0  0  0  0  0
  135.7930   82.5150  225.1750 C   0  0  0  0  0  0  0  0  0  0  0  0
  136.4560   81.7130  226.0630 C   0  0  0  0  0  0  0  0  0  0  0  0
  137.5350   80.9870  225.6640 C   0  0  0  0  0  0  0  0  0  0  0  0
  140.2090   78.1950  222.9520 C   0  0  2  0  0  0  0  0  0  0  0  0
  141.3260   79.0960  222.4970 C   0  0  0  0  0  0  0  0  0  0  0  0
  141.5950   79.0310  221.0300 C   0  0  0  0  0  0  0  0  0  0  0  0
  141.8590   77.6260  220.5860 C   0  0  0  0  0  0  0  0  0  0  0  0
  141.0400   76.6510  221.2420 N   0  0  0  0  0  0  0  0  0  0  0  0
  141.4030   75.2770  221.1840 C   0  0  0  0  0  0  0  0  0  0  0  0
  140.7130   74.4010  221.9370 N   0  0  0  0  0  0  0  0  0  0  0  0
  140.9850   73.0830  221.9450 C   0  0  0  0  0  0  0  0  0  0  0  0
  140.2430   72.1550  222.7520 N   0  0  0  0  0  0  0  0  0  0  0  0
  139.0630   71.5700  222.1440 C   0  0  0  0  0  0  0  0  0  0  0  0
  138.0190   71.5020  223.2570 C   0  0  0  0  0  0  0  0  0  0  0  0
  138.5750   70.5440  224.2700 C   0  0  0  0  0  0  0  0  0  0  0  0
  137.8230   69.5160  224.7960 C   0  0  0  0  0  0  0  0  0  0  0  0
  138.3650   68.6550  225.7230 C   0  0  0  0  0  0  0  0  0  0  0  0
  139.6770   68.8560  226.1050 C   0  0  0  0  0  0  0  0  0  0  0  0
  140.4230   69.8860  225.5770 C   0  0  0  0  0  0  0  0  0  0  0  0
  139.8930   70.7640  224.6410 C   0  0  0  0  0  0  0  0  0  0  0  0
  140.7020   71.8730  224.0730 C   0  0  0  0  0  0  0  0  0  0  0  0
  142.0010   72.6560  221.1500 N   0  0  0  0  0  0  0  0  0  0  0  0
  142.7200   73.4930  220.3800 C   0  0  0  0  0  0  0  0  0  0  0  0
  143.7670   72.9700  219.5760 N   0  0  0  0  0  0  0  0  0  0  0  0
  143.7340   73.2920  218.1610 C   0  0  0  0  0  0  0  0  0  0  0  0
  145.1430   73.1690  217.5660 C   0  0  0  0  0  0  0  0  0  0  0  0
  145.5010   71.7240  217.7620 C   0  0  0  0  0  0  0  0  0  0  0  0
  145.9660   70.9480  216.7180 C   0  0  0  0  0  0  0  0  0  0  0  0
  146.2760   69.6200  216.9820 C   0  0  0  0  0  0  0  0  0  0  0  0
  146.1160   69.1040  218.2720 C   0  0  0  0  0  0  0  0  0  0  0  0
  145.6460   69.9110  219.3050 C   0  0  0  0  0  0  0  0  0  0  0  0
  145.3370   71.2330  219.0440 C   0  0  0  0  0  0  0  0  0  0  0  0
  144.8250   72.1520  220.1200 C   0  0  0  0  0  0  0  0  0  0  0  0
  142.4010   74.8060  220.4140 N   0  0  0  0  0  0  0  0  0  0  0  0
  139.8600   77.1190  221.9460 C   0  0  0  0  0  0  0  0  0  0  0  0
  140.0600   80.6540  224.2320 H   0  0  0  0  0  0  0  0  0  0  0  0
  137.6948   81.8842  222.4075 H   0  0  0  0  0  0  0  0  0  0  0  0
  135.7347   83.1971  223.1428 H   0  0  0  0  0  0  0  0  0  0  0  0
  134.9197   83.1067  225.4868 H   0  0  0  0  0  0  0  0  0  0  0  0
  136.1142   81.6547  227.1069 H   0  0  0  0  0  0  0  0  0  0  0  0
  138.0522   80.3488  226.3956 H   0  0  0  0  0  0  0  0  0  0  0  0
  140.5716   77.6575  223.8406 H   0  0  0  0  0  0  0  0  0  0  0  0
  141.0624   80.1322  222.7554 H   0  0  0  0  0  0  0  0  0  0  0  0
  142.2397   78.7539  223.0050 H   0  0  0  0  0  0  0  0  0  0  0  0
  140.7202   79.4195  220.4880 H   0  0  0  0  0  0  0  0  0  0  0  0
  142.4877   79.6364  220.8141 H   0  0  0  0  0  0  0  0  0  0  0  0
  141.6738   77.5633  219.5035 H   0  0  0  0  0  0  0  0  0  0  0  0
  142.9027   77.3972  220.8473 H   0  0  0  0  0  0  0  0  0  0  0  0
  138.7034   72.2013  221.3181 H   0  0  0  0  0  0  0  0  0  0  0  0
  139.2728   70.5764  221.7211 H   0  0  0  0  0  0  0  0  0  0  0  0
  137.8716   72.4948  223.7071 H   0  0  0  0  0  0  0  0  0  0  0  0
  137.0398   71.1732  222.8787 H   0  0  0  0  0  0  0  0  0  0  0  0
  136.7803   69.3823  224.4721 H   0  0  0  0  0  0  0  0  0  0  0  0
  137.7712   67.8317  226.1468 H   0  0  0  0  0  0  0  0  0  0  0  0
  140.1340   68.1814  226.8440 H   0  0  0  0  0  0  0  0  0  0  0  0
  141.4648   70.0165  225.9049 H   0  0  0  0  0  0  0  0  0  0  0  0
  140.5910   72.7693  224.7009 H   0  0  0  0  0  0  0  0  0  0  0  0
  141.7622   71.5814  224.0431 H   0  0  0  0  0  0  0  0  0  0  0  0
  143.0574   72.5957  217.6439 H   0  0  0  0  0  0  0  0  0  0  0  0
  143.3745   74.3235  218.0319 H   0  0  0  0  0  0  0  0  0  0  0  0
  145.1390   73.4284  216.4970 H   0  0  0  0  0  0  0  0  0  0  0  0
  145.8629   73.8499  218.0437 H   0  0  0  0  0  0  0  0  0  0  0  0
  146.0870   71.3687  215.7089 H   0  0  0  0  0  0  0  0  0  0  0  0
  146.6483   68.9725  216.1744 H   0  0  0  0  0  0  0  0  0  0  0  0
  146.3637   68.0512  218.4725 H   0  0  0  0  0  0  0  0  0  0  0  0
  145.5219   69.5009  220.3181 H   0  0  0  0  0  0  0  0  0  0  0  0
  144.4362   71.5565  220.9592 H   0  0  0  0  0  0  0  0  0  0  0  0
  145.6426   72.7936  220.4804 H   0  0  0  0  0  0  0  0  0  0  0  0
  139.1466   77.5291  221.2160 H   0  0  0  0  0  0  0  0  0  0  0  0
  139.4189   76.2687  222.4867 H   0  0  0  0  0  0  0  0  0  0  0  0
  1  2  2  0
  2  3  1  0
  3  4  1  0
  4  5  2  0
  5  6  1  0
  6  7  2  0
  7  8  1  0
  8  9  2  0
  2 10  1  0
 10 11  1  0
 11 12  1  0
 12 13  1  0
 13 14  1  0
 14 15  1  0
 15 16  2  0
 16 17  1  0
 17 18  1  0
 18 19  1  0
 19 20  1  0
 20 21  1  0
 21 22  2  0
 22 23  1  0
 23 24  2  0
 24 25  1  0
 25 26  2  0
 26 27  1  0
 17 28  2  0
 28 29  1  0
 29 30  1  0
 30 31  1  0
 31 32  1  0
 32 33  1  0
 33 34  2  0
 34 35  1  0
 35 36  2  0
 36 37  1  0
 37 38  2  0
 38 39  1  0
 29 40  2  0
 14 41  1  0
  9  4  1  0
 41 10  1  0
 40 15  1  0
 27 18  1  0
 39 30  1  0
 26 21  1  0
 38 33  1  0
  3 42  1  0
  5 43  1  0
  6 44  1  0
  7 45  1  0
  8 46  1  0
  9 47  1  0
 10 48  1  1
 11 49  1  0
 11 50  1  0
 12 51  1  0
 12 52  1  0
 13 53  1  0
 13 54  1  0
 19 55  1  0
 19 56  1  0
 20 57  1  0
 20 58  1  0
 22 59  1  0
 23 60  1  0
 24 61  1  0
 25 62  1  0
 27 63  1  0
 27 64  1  0
 31 65  1  0
 31 66  1  0
 32 67  1  0
 32 68  1  0
 34 69  1  0
 35 70  1  0
 36 71  1  0
 37 72  1  0
 39 73  1  0
 39 74  1  0
 41 75  1  0
 41 76  1  0
M  END
>  <smiles>  (27) 
O=C(Nc1ccccc1)[C@@H]1CCCN(c2nc(N3CCc4ccccc4C3)nc(N3CCc4ccccc4C3)n2)C1

>  <score_type>  (27) 
oracle

>  <origin>  (27) 
autodockgpu

>  <m_score__min__energy>  (27) 
-9.7799999999999994

>  <m_primary>  (27) 
energy

>  <rmsd>  (27) 
4.8873871964070945

>  <m_score__min__rmsd>  (27) 
4.8873871964070945

>  <meeko>  (27) 
{"free_energy": -9.17, "intermolecular_energy": -10.66, "internal_energy": -1.33, "cluster_size": 13, "cluster_id": 3, "rank_in_cluster": 9}

>  <energy>  (27) 
-9.17

>  <cluster_rmsd>  (27) 
1.38

>  <cluster>  (27) 
3

$$$$

     RDKit          3D

 76 82  0  0  0  0  0  0  0  0999 V2000
  139.8970   69.5750  223.7010 O   0  0  0  0  0  0  0  0  0  0  0  0
  139.8170   70.8260  223.9320 C   0  0  0  0  0  0  0  0  0  0  0  0
  139.9540   71.2020  225.3000 N   0  0  0  0  0  0  0  0  0  0  0  0
  140.1650   70.2610  226.3450 C   0  0  0  0  0  0  0  0  0  0  0  0
  139.4780   69.0650  226.3730 C   0  0  0  0  0  0  0  0  0  0  0  0
  139.7250   68.1940  227.4100 C   0  0  0  0  0  0  0  0  0  0  0  0
  140.6330   68.4760  228.4170 C   0  0  0  0  0  0  0  0  0  0  0  0
  141.3000   69.6690  228.3610 C   0  0  0  0  0  0  0  0  0  0  0  0
  141.0680   70.5420  227.3430 C   0  0  0  0  0  0  0  0  0  0  0  0
  139.5990   71.8160  222.8500 C   0  0  2  0  0  0  0  0  0  0  0  0
  138.5030   71.3510  221.9280 C   0  0  0  0  0  0  0  0  0  0  0  0
  138.9870   70.9280  220.5800 C   0  0  0  0  0  0  0  0  0  0  0  0
  139.7830   72.0120  219.9220 C   0  0  0  0  0  0  0  0  0  0  0  0
  140.6230   72.7390  220.8260 N   0  0  0  0  0  0  0  0  0  0  0  0
  141.1650   73.9920  220.4260 C   0  0  0  0  0  0  0  0  0  0  0  0
  142.0440   74.0130  219.4080 N   0  0  0  0  0  0  0  0  0  0  0  0
  142.6070   75.1510  218.9620 C   0  0  0  0  0  0  0  0  0  0  0  0
  143.5450   75.1630  217.8740 N   0  0  0  0  0  0  0  0  0  0  0  0
  143.6480   76.4000  217.1230 C   0  0  0  0  0  0  0  0  0  0  0  0
  143.8120   75.9810  215.6630 C   0  0  0  0  0  0  0  0  0  0  0  0
  145.1250   75.2570  215.5990 C   0  0  0  0  0  0  0  0  0  0  0  0
  146.0710   75.5400  214.6370 C   0  0  0  0  0  0  0  0  0  0  0  0
  147.2660   74.8570  214.6080 C   0  0  0  0  0  0  0  0  0  0  0  0
  147.4820   73.8870  215.5670 C   0  0  0  0  0  0  0  0  0  0  0  0
  146.5320   73.6080  216.5250 C   0  0  0  0  0  0  0  0  0  0  0  0
  145.3220   74.2870  216.5700 C   0  0  0  0  0  0  0  0  0  0  0  0
  144.3010   73.9840  217.6050 C   0  0  0  0  0  0  0  0  0  0  0  0
  142.2490   76.3040  219.5850 N   0  0  0  0  0  0  0  0  0  0  0  0
  141.3750   76.3350  220.6070 C   0  0  0  0  0  0  0  0  0  0  0  0
  141.0520   77.5800  221.2070 N   0  0  0  0  0  0  0  0  0  0  0  0
  140.6900   78.6660  220.3150 C   0  0  0  0  0  0  0  0  0  0  0  0
  139.8510   79.7040  221.0720 C   0  0  0  0  0  0  0  0  0  0  0  0
  140.7670   80.2020  222.1520 C   0  0  0  0  0  0  0  0  0  0  0  0
  140.9810   81.5520  222.3510 C   0  0  0  0  0  0  0  0  0  0  0  0
  141.8420   81.9310  223.3720 C   0  0  0  0  0  0  0  0  0  0  0  0
  142.4640   80.9610  224.1650 C   0  0  0  0  0  0  0  0  0  0  0  0
  142.2270   79.6060  223.9410 C   0  0  0  0  0  0  0  0  0  0  0  0
  141.3700   79.2280  222.9250 C   0  0  0  0  0  0  0  0  0  0  0  0
  141.0770   77.7800  222.6370 C   0  0  0  0  0  0  0  0  0  0  0  0
  140.8430   75.1600  221.0120 N   0  0  0  0  0  0  0  0  0  0  0  0
  140.8860   72.1540  222.1280 C   0  0  0  0  0  0  0  0  0  0  0  0
  139.9020   72.2030  225.5820 H   0  0  0  0  0  0  0  0  0  0  0  0
  138.7512   68.8137  225.5865 H   0  0  0  0  0  0  0  0  0  0  0  0
  139.1809   67.2384  227.4399 H   0  0  0  0  0  0  0  0  0  0  0  0
  140.8121   67.7635  229.2357 H   0  0  0  0  0  0  0  0  0  0  0  0
  142.0289   69.9245  229.1442 H   0  0  0  0  0  0  0  0  0  0  0  0
  141.6161   71.4954  227.3181 H   0  0  0  0  0  0  0  0  0  0  0  0
  139.2612   72.7608  223.3009 H   0  0  0  0  0  0  0  0  0  0  0  0
  137.9944   70.4962  222.3976 H   0  0  0  0  0  0  0  0  0  0  0  0
  137.8309   72.2078  221.7723 H   0  0  0  0  0  0  0  0  0  0  0  0
  139.6203   70.0354  220.6907 H   0  0  0  0  0  0  0  0  0  0  0  0
  138.1120   70.7092  219.9503 H   0  0  0  0  0  0  0  0  0  0  0  0
  140.4182   71.5557  219.1485 H   0  0  0  0  0  0  0  0  0  0  0  0
  139.0631   72.7307  219.5036 H   0  0  0  0  0  0  0  0  0  0  0  0
  142.7368   77.0031  217.2495 H   0  0  0  0  0  0  0  0  0  0  0  0
  144.4916   77.0163  217.4671 H   0  0  0  0  0  0  0  0  0  0  0  0
  142.9906   75.3152  215.3595 H   0  0  0  0  0  0  0  0  0  0  0  0
  143.7898   76.8468  214.9849 H   0  0  0  0  0  0  0  0  0  0  0  0
  145.8693   76.3182  213.8861 H   0  0  0  0  0  0  0  0  0  0  0  0
  148.0260   75.0773  213.8439 H   0  0  0  0  0  0  0  0  0  0  0  0
  148.4290   73.3274  215.5659 H   0  0  0  0  0  0  0  0  0  0  0  0
  146.7374   72.8278  217.2728 H   0  0  0  0  0  0  0  0  0  0  0  0
  143.6306   73.1918  217.2403 H   0  0  0  0  0  0  0  0  0  0  0  0
  144.7967   73.6434  218.5260 H   0  0  0  0  0  0  0  0  0  0  0  0
  141.6038   79.1441  219.9324 H   0  0  0  0  0  0  0  0  0  0  0  0
  140.1015   78.2657  219.4763 H   0  0  0  0  0  0  0  0  0  0  0  0
  139.5520   80.5257  220.4046 H   0  0  0  0  0  0  0  0  0  0  0  0
  138.9185   79.2803  221.4730 H   0  0  0  0  0  0  0  0  0  0  0  0
  140.4845   82.3037  221.7199 H   0  0  0  0  0  0  0  0  0  0  0  0
  142.0357   82.9977  223.5580 H   0  0  0  0  0  0  0  0  0  0  0  0
  143.1453   81.2700  224.9714 H   0  0  0  0  0  0  0  0  0  0  0  0
  142.7171   78.8453  224.5665 H   0  0  0  0  0  0  0  0  0  0  0  0
  141.8598   77.1495  223.0838 H   0  0  0  0  0  0  0  0  0  0  0  0
  140.1026   77.5056  223.0674 H   0  0  0  0  0  0  0  0  0  0  0  0
  141.4744   71.2341  221.9952 H   0  0  0  0  0  0  0  0  0  0  0  0
  141.4405   72.8872  222.7322 H   0  0  0  0  0  0  0  0  0  0  0  0
  1  2  2  0
  2  3  1  0
  3  4  1  0
  4  5  2  0
  5  6  1  0
  6  7  2  0
  7  8  1  0
  8  9  2  0
  2 10  1  0
 10 11  1  0
 11 12  1  0
 12 13  1  0
 13 14  1  0
 14 15  1  0
 15 16  2  0
 16 17  1  0
 17 18  1  0
 18 19  1  0
 19 20  1  0
 20 21  1  0
 21 22  2  0
 22 23  1  0
 23 24  2  0
 24 25  1  0
 25 26  2  0
 26 27  1  0
 17 28  2  0
 28 29  1  0
 29 30  1  0
 30 31  1  0
 31 32  1  0
 32 33  1  0
 33 34  2  0
 34 35  1  0
 35 36  2  0
 36 37  1  0
 37 38  2  0
 38 39  1  0
 29 40  2  0
 14 41  1  0
  9  4  1  0
 41 10  1  0
 40 15  1  0
 27 18  1  0
 39 30  1  0
 26 21  1  0
 38 33  1  0
  3 42  1  0
  5 43  1  0
  6 44  1  0
  7 45  1  0
  8 46  1  0
  9 47  1  0
 10 48  1  1
 11 49  1  0
 11 50  1  0
 12 51  1  0
 12 52  1  0
 13 53  1  0
 13 54  1  0
 19 55  1  0
 19 56  1  0
 20 57  1  0
 20 58  1  0
 22 59  1  0
 23 60  1  0
 24 61  1  0
 25 62  1  0
 27 63  1  0
 27 64  1  0
 31 65  1  0
 31 66  1  0
 32 67  1  0
 32 68  1  0
 34 69  1  0
 35 70  1  0
 36 71  1  0
 37 72  1  0
 39 73  1  0
 39 74  1  0
 41 75  1  0
 41 76  1  0
M  END
>  <smiles>  (28) 
O=C(Nc1ccccc1)[C@@H]1CCCN(c2nc(N3CCc4ccccc4C3)nc(N3CCc4ccccc4C3)n2)C1

>  <score_type>  (28) 
oracle

>  <origin>  (28) 
autodockgpu

>  <m_score__min__energy>  (28) 
-9.7799999999999994

>  <m_primary>  (28) 
energy

>  <rmsd>  (28) 
10.022984269905471

>  <m_score__min__rmsd>  (28) 
10.022984269905471

>  <meeko>  (28) 
{"free_energy": -9.32, "intermolecular_energy": -10.81, "internal_energy": -1.16, "cluster_size": 15, "cluster_id": 1, "rank_in_cluster": 14}

>  <energy>  (28) 
-9.16

>  <cluster_rmsd>  (28) 
1.26

>  <cluster>  (28) 
3

$$$$

     RDKit          3D

 76 82  0  0  0  0  0  0  0  0999 V2000
  134.4610   70.5710  223.8520 O   0  0  0  0  0  0  0  0  0  0  0  0
  135.5050   71.2970  223.9310 C   0  0  0  0  0  0  0  0  0  0  0  0
  135.4190   72.3890  224.8420 N   0  0  0  0  0  0  0  0  0  0  0  0
  134.2570   72.6650  225.6150 C   0  0  0  0  0  0  0  0  0  0  0  0
  133.7680   71.7400  226.5150 C   0  0  0  0  0  0  0  0  0  0  0  0
  132.6400   72.0640  227.2360 C   0  0  0  0  0  0  0  0  0  0  0  0
  131.9860   73.2760  227.0880 C   0  0  0  0  0  0  0  0  0  0  0  0
  132.4960   74.1720  226.1880 C   0  0  0  0  0  0  0  0  0  0  0  0
  133.6100   73.8690  225.4690 C   0  0  0  0  0  0  0  0  0  0  0  0
  136.7220   71.0180  223.1320 C   0  0  2  0  0  0  0  0  0  0  0  0
  137.0410   69.5460  223.1570 C   0  0  0  0  0  0  0  0  0  0  0  0
  138.2550   69.2050  223.9560 C   0  0  0  0  0  0  0  0  0  0  0  0
  139.4490   69.9790  223.4900 C   0  0  0  0  0  0  0  0  0  0  0  0
  139.1510   71.3290  223.1180 N   0  0  0  0  0  0  0  0  0  0  0  0
  140.0900   72.0680  222.3450 C   0  0  0  0  0  0  0  0  0  0  0  0
  141.0500   71.3920  221.6880 N   0  0  0  0  0  0  0  0  0  0  0  0
  141.9800   72.0070  220.9340 C   0  0  0  0  0  0  0  0  0  0  0  0
  143.0010   71.2770  220.2360 N   0  0  0  0  0  0  0  0  0  0  0  0
  144.3050   71.9070  220.1540 C   0  0  0  0  0  0  0  0  0  0  0  0
  144.8240   71.5950  218.7520 C   0  0  0  0  0  0  0  0  0  0  0  0
  144.9960   70.1050  218.7100 C   0  0  0  0  0  0  0  0  0  0  0  0
  146.1490   69.5140  218.2410 C   0  0  0  0  0  0  0  0  0  0  0  0
  146.2740   68.1430  218.2180 C   0  0  0  0  0  0  0  0  0  0  0  0
  145.2120   67.3880  218.6750 C   0  0  0  0  0  0  0  0  0  0  0  0
  144.0610   67.9850  219.1420 C   0  0  0  0  0  0  0  0  0  0  0  0
  143.9190   69.3650  219.1730 C   0  0  0  0  0  0  0  0  0  0  0  0
  142.6760   70.0050  219.6770 C   0  0  0  0  0  0  0  0  0  0  0  0
  141.9150   73.3620  220.8540 N   0  0  0  0  0  0  0  0  0  0  0  0
  140.9750   74.0810  221.4930 C   0  0  0  0  0  0  0  0  0  0  0  0
  140.9740   75.4960  221.3600 N   0  0  0  0  0  0  0  0  0  0  0  0
  141.6790   76.0490  220.2190 C   0  0  0  0  0  0  0  0  0  0  0  0
  141.1320   77.4470  219.8980 C   0  0  0  0  0  0  0  0  0  0  0  0
  141.4250   78.2500  221.1310 C   0  0  0  0  0  0  0  0  0  0  0  0
  142.0720   79.4690  221.0610 C   0  0  0  0  0  0  0  0  0  0  0  0
  142.3060   80.1510  222.2480 C   0  0  0  0  0  0  0  0  0  0  0  0
  141.8910   79.6050  223.4660 C   0  0  0  0  0  0  0  0  0  0  0  0
  141.2410   78.3740  223.5050 C   0  0  0  0  0  0  0  0  0  0  0  0
  141.0070   77.6940  222.3250 C   0  0  0  0  0  0  0  0  0  0  0  0
  140.3100   76.3610  222.3060 C   0  0  0  0  0  0  0  0  0  0  0  0
  140.0680   73.4090  222.2360 N   0  0  0  0  0  0  0  0  0  0  0  0
  137.8850   71.8900  223.5540 C   0  0  0  0  0  0  0  0  0  0  0  0
  136.2250   73.0360  224.9720 H   0  0  0  0  0  0  0  0  0  0  0  0
  134.2662   70.7691  226.6530 H   0  0  0  0  0  0  0  0  0  0  0  0
  132.2438   71.3330  227.9562 H   0  0  0  0  0  0  0  0  0  0  0  0
  131.0858   73.5108  227.6749 H   0  0  0  0  0  0  0  0  0  0  0  0
  132.0015   75.1441  226.0451 H   0  0  0  0  0  0  0  0  0  0  0  0
  134.0030   74.6057  224.7529 H   0  0  0  0  0  0  0  0  0  0  0  0
  136.5221   71.2854  222.0839 H   0  0  0  0  0  0  0  0  0  0  0  0
  136.1812   69.0123  223.5881 H   0  0  0  0  0  0  0  0  0  0  0  0
  137.2464   69.2455  222.1190 H   0  0  0  0  0  0  0  0  0  0  0  0
  138.0657   69.4409  225.0136 H   0  0  0  0  0  0  0  0  0  0  0  0
  138.4649   68.1329  223.8276 H   0  0  0  0  0  0  0  0  0  0  0  0
  140.1893   69.9984  224.3034 H   0  0  0  0  0  0  0  0  0  0  0  0
  139.8278   69.4738  222.5893 H   0  0  0  0  0  0  0  0  0  0  0  0
  144.2161   72.9940  220.2975 H   0  0  0  0  0  0  0  0  0  0  0  0
  144.9868   71.5346  220.9328 H   0  0  0  0  0  0  0  0  0  0  0  0
  144.0978   71.9196  217.9923 H   0  0  0  0  0  0  0  0  0  0  0  0
  145.7667   72.1206  218.5397 H   0  0  0  0  0  0  0  0  0  0  0  0
  146.9768   70.1430  217.8818 H   0  0  0  0  0  0  0  0  0  0  0  0
  147.1919   67.6637  217.8469 H   0  0  0  0  0  0  0  0  0  0  0  0
  145.2860   66.2905  218.6662 H   0  0  0  0  0  0  0  0  0  0  0  0
  143.2349   67.3523  219.4988 H   0  0  0  0  0  0  0  0  0  0  0  0
  141.9669   70.1376  218.8466 H   0  0  0  0  0  0  0  0  0  0  0  0
  142.2162   69.3678  220.4468 H   0  0  0  0  0  0  0  0  0  0  0  0
  142.7516   76.1211  220.4522 H   0  0  0  0  0  0  0  0  0  0  0  0
  141.5326   75.3928  219.3484 H   0  0  0  0  0  0  0  0  0  0  0  0
  141.6439   77.8747  219.0233 H   0  0  0  0  0  0  0  0  0  0  0  0
  140.0605   77.4329  219.6496 H   0  0  0  0  0  0  0  0  0  0  0  0
  142.3919   79.8864  220.0948 H   0  0  0  0  0  0  0  0  0  0  0  0
  142.8194   81.1237  222.2296 H   0  0  0  0  0  0  0  0  0  0  0  0
  142.0794   80.1522  224.4015 H   0  0  0  0  0  0  0  0  0  0  0  0
  140.9170   77.9472  224.4657 H   0  0  0  0  0  0  0  0  0  0  0  0
  140.3494   75.9101  223.3086 H   0  0  0  0  0  0  0  0  0  0  0  0
  139.2588   76.4958  222.0115 H   0  0  0  0  0  0  0  0  0  0  0  0
  137.8896   71.9750  224.6507 H   0  0  0  0  0  0  0  0  0  0  0  0
  137.7645   72.8788  223.0873 H   0  0  0  0  0  0  0  0  0  0  0  0
  1  2  2  0
  2  3  1  0
  3  4  1  0
  4  5  2  0
  5  6  1  0
  6  7  2  0
  7  8  1  0
  8  9  2  0
  2 10  1  0
 10 11  1  0
 11 12  1  0
 12 13  1  0
 13 14  1  0
 14 15  1  0
 15 16  2  0
 16 17  1  0
 17 18  1  0
 18 19  1  0
 19 20  1  0
 20 21  1  0
 21 22  2  0
 22 23  1  0
 23 24  2  0
 24 25  1  0
 25 26  2  0
 26 27  1  0
 17 28  2  0
 28 29  1  0
 29 30  1  0
 30 31  1  0
 31 32  1  0
 32 33  1  0
 33 34  2  0
 34 35  1  0
 35 36  2  0
 36 37  1  0
 37 38  2  0
 38 39  1  0
 29 40  2  0
 14 41  1  0
  9  4  1  0
 41 10  1  0
 40 15  1  0
 27 18  1  0
 39 30  1  0
 26 21  1  0
 38 33  1  0
  3 42  1  0
  5 43  1  0
  6 44  1  0
  7 45  1  0
  8 46  1  0
  9 47  1  0
 10 48  1  6
 11 49  1  0
 11 50  1  0
 12 51  1  0
 12 52  1  0
 13 53  1  0
 13 54  1  0
 19 55  1  0
 19 56  1  0
 20 57  1  0
 20 58  1  0
 22 59  1  0
 23 60  1  0
 24 61  1  0
 25 62  1  0
 27 63  1  0
 27 64  1  0
 31 65  1  0
 31 66  1  0
 32 67  1  0
 32 68  1  0
 34 69  1  0
 35 70  1  0
 36 71  1  0
 37 72  1  0
 39 73  1  0
 39 74  1  0
 41 75  1  0
 41 76  1  0
M  END
>  <smiles>  (29) 
O=C(Nc1ccccc1)[C@@H]1CCCN(c2nc(N3CCc4ccccc4C3)nc(N3CCc4ccccc4C3)n2)C1

>  <score_type>  (29) 
oracle

>  <origin>  (29) 
autodockgpu

>  <m_score__min__energy>  (29) 
-9.7799999999999994

>  <m_primary>  (29) 
energy

>  <rmsd>  (29) 
10.280182863618792

>  <m_score__min__rmsd>  (29) 
10.280182863618792

>  <meeko>  (29) 
{"free_energy": -9.4, "intermolecular_energy": -10.89, "internal_energy": -1.3, "cluster_size": 19, "cluster_id": 4, "rank_in_cluster": 8}

>  <energy>  (29) 
-9.14

>  <cluster_rmsd>  (29) 
1.37

>  <cluster>  (29) 
3

$$$$

     RDKit          3D

 76 82  0  0  0  0  0  0  0  0999 V2000
  137.8820   77.7890  222.7140 O   0  0  0  0  0  0  0  0  0  0  0  0
  139.1050   78.1140  222.8710 C   0  0  0  0  0  0  0  0  0  0  0  0
  139.3250   79.4290  223.3730 N   0  0  0  0  0  0  0  0  0  0  0  0
  138.2670   80.3280  223.6830 C   0  0  0  0  0  0  0  0  0  0  0  0
  138.0680   80.7720  224.9750 C   0  0  0  0  0  0  0  0  0  0  0  0
  137.0290   81.6420  225.2130 C   0  0  0  0  0  0  0  0  0  0  0  0
  136.1820   82.0830  224.2090 C   0  0  0  0  0  0  0  0  0  0  0  0
  136.4060   81.6250  222.9390 C   0  0  0  0  0  0  0  0  0  0  0  0
  137.4290   80.7650  222.6850 C   0  0  0  0  0  0  0  0  0  0  0  0
  140.2150   77.1840  222.5520 C   0  0  2  0  0  0  0  0  0  0  0  0
  141.3570   77.9310  221.9140 C   0  0  0  0  0  0  0  0  0  0  0  0
  141.5340   77.6350  220.4610 C   0  0  0  0  0  0  0  0  0  0  0  0
  141.6850   76.1660  220.2190 C   0  0  0  0  0  0  0  0  0  0  0  0
  140.8480   75.3550  221.0520 N   0  0  0  0  0  0  0  0  0  0  0  0
  141.1220   73.9650  221.1810 C   0  0  0  0  0  0  0  0  0  0  0  0
  140.6950   73.3300  222.2870 N   0  0  0  0  0  0  0  0  0  0  0  0
  140.9080   72.0170  222.4940 C   0  0  0  0  0  0  0  0  0  0  0  0
  140.4480   71.3460  223.6780 N   0  0  0  0  0  0  0  0  0  0  0  0
  139.6670   70.1410  223.4760 C   0  0  0  0  0  0  0  0  0  0  0  0
  138.5710   70.1800  224.5400 C   0  0  0  0  0  0  0  0  0  0  0  0
  139.2860   70.0870  225.8560 C   0  0  0  0  0  0  0  0  0  0  0  0
  138.8950   69.2050  226.8410 C   0  0  0  0  0  0  0  0  0  0  0  0
  139.5740   69.1450  228.0370 C   0  0  0  0  0  0  0  0  0  0  0  0
  140.6500   69.9920  228.2140 C   0  0  0  0  0  0  0  0  0  0  0  0
  141.0350   70.8720  227.2270 C   0  0  0  0  0  0  0  0  0  0  0  0
  140.3620   70.9460  226.0140 C   0  0  0  0  0  0  0  0  0  0  0  0
  140.7810   71.8960  224.9520 C   0  0  0  0  0  0  0  0  0  0  0  0
  141.5810   71.3390  221.5270 N   0  0  0  0  0  0  0  0  0  0  0  0
  142.0280   71.9310  220.4050 C   0  0  0  0  0  0  0  0  0  0  0  0
  142.7240   71.1540  219.4410 N   0  0  0  0  0  0  0  0  0  0  0  0
  141.9200   70.4280  218.4760 C   0  0  0  0  0  0  0  0  0  0  0  0
  142.7530   70.1320  217.2220 C   0  0  0  0  0  0  0  0  0  0  0  0
  143.8750   69.2680  217.7190 C   0  0  0  0  0  0  0  0  0  0  0  0
  144.1820   68.0650  217.1130 C   0  0  0  0  0  0  0  0  0  0  0  0
  145.2350   67.3250  217.6330 C   0  0  0  0  0  0  0  0  0  0  0  0
  145.9510   67.7990  218.7370 C   0  0  0  0  0  0  0  0  0  0  0  0
  145.6180   69.0160  219.3270 C   0  0  0  0  0  0  0  0  0  0  0  0
  144.5700   69.7550  218.8100 C   0  0  0  0  0  0  0  0  0  0  0  0
  144.1650   71.0750  219.4060 C   0  0  0  0  0  0  0  0  0  0  0  0
  141.7850   73.2520  220.2530 N   0  0  0  0  0  0  0  0  0  0  0  0
  139.7420   76.0010  221.7360 C   0  0  0  0  0  0  0  0  0  0  0  0
  140.2920   79.7810  223.5320 H   0  0  0  0  0  0  0  0  0  0  0  0
  138.7233   80.4387  225.7932 H   0  0  0  0  0  0  0  0  0  0  0  0
  136.8645   82.0012  226.2396 H   0  0  0  0  0  0  0  0  0  0  0  0
  135.3572   82.7779  224.4255 H   0  0  0  0  0  0  0  0  0  0  0  0
  135.7537   81.9549  222.1170 H   0  0  0  0  0  0  0  0  0  0  0  0
  137.5894   80.4108  221.6560 H   0  0  0  0  0  0  0  0  0  0  0  0
  140.5956   76.7556  223.4909 H   0  0  0  0  0  0  0  0  0  0  0  0
  141.1729   79.0094  222.0283 H   0  0  0  0  0  0  0  0  0  0  0  0
  142.2766   77.6047  222.4217 H   0  0  0  0  0  0  0  0  0  0  0  0
  140.6538   77.9999  219.9113 H   0  0  0  0  0  0  0  0  0  0  0  0
  142.4474   78.1395  220.1130 H   0  0  0  0  0  0  0  0  0  0  0  0
  141.4332   75.9597  219.1683 H   0  0  0  0  0  0  0  0  0  0  0  0
  142.7263   75.9063  220.4605 H   0  0  0  0  0  0  0  0  0  0  0  0
  139.2247   70.1342  222.4689 H   0  0  0  0  0  0  0  0  0  0  0  0
  140.2856   69.2354  223.5611 H   0  0  0  0  0  0  0  0  0  0  0  0
  138.0058   71.1215  224.4753 H   0  0  0  0  0  0  0  0  0  0  0  0
  137.8471   69.3620  224.4103 H   0  0  0  0  0  0  0  0  0  0  0  0
  138.0330   68.5435  226.6697 H   0  0  0  0  0  0  0  0  0  0  0  0
  139.2687   68.4437  228.8275 H   0  0  0  0  0  0  0  0  0  0  0  0
  141.2098   69.9634  229.1605 H   0  0  0  0  0  0  0  0  0  0  0  0
  141.8967   71.5326  227.4036 H   0  0  0  0  0  0  0  0  0  0  0  0
  140.2586   72.8545  225.0877 H   0  0  0  0  0  0  0  0  0  0  0  0
  141.8664   72.0644  225.0115 H   0  0  0  0  0  0  0  0  0  0  0  0
  141.5818   69.4808  218.9216 H   0  0  0  0  0  0  0  0  0  0  0  0
  141.0487   71.0387  218.1970 H   0  0  0  0  0  0  0  0  0  0  0  0
  142.1519   69.5972  216.4719 H   0  0  0  0  0  0  0  0  0  0  0  0
  143.1132   71.0477  216.7303 H   0  0  0  0  0  0  0  0  0  0  0  0
  143.6098   67.7048  216.2454 H   0  0  0  0  0  0  0  0  0  0  0  0
  145.5072   66.3625  217.1752 H   0  0  0  0  0  0  0  0  0  0  0  0
  146.7839   67.2059  219.1426 H   0  0  0  0  0  0  0  0  0  0  0  0
  146.1830   69.3854  220.1955 H   0  0  0  0  0  0  0  0  0  0  0  0
  144.5634   71.1556  220.4281 H   0  0  0  0  0  0  0  0  0  0  0  0
  144.5669   71.8968  218.7953 H   0  0  0  0  0  0  0  0  0  0  0  0
  139.0134   76.3494  220.9892 H   0  0  0  0  0  0  0  0  0  0  0  0
  139.2819   75.2708  222.4180 H   0  0  0  0  0  0  0  0  0  0  0  0
  1  2  2  0
  2  3  1  0
  3  4  1  0
  4  5  2  0
  5  6  1  0
  6  7  2  0
  7  8  1  0
  8  9  2  0
  2 10  1  0
 10 11  1  0
 11 12  1  0
 12 13  1  0
 13 14  1  0
 14 15  1  0
 15 16  2  0
 16 17  1  0
 17 18  1  0
 18 19  1  0
 19 20  1  0
 20 21  1  0
 21 22  2  0
 22 23  1  0
 23 24  2  0
 24 25  1  0
 25 26  2  0
 26 27  1  0
 17 28  2  0
 28 29  1  0
 29 30  1  0
 30 31  1  0
 31 32  1  0
 32 33  1  0
 33 34  2  0
 34 35  1  0
 35 36  2  0
 36 37  1  0
 37 38  2  0
 38 39  1  0
 29 40  2  0
 14 41  1  0
  9  4  1  0
 41 10  1  0
 40 15  1  0
 27 18  1  0
 39 30  1  0
 26 21  1  0
 38 33  1  0
  3 42  1  0
  5 43  1  0
  6 44  1  0
  7 45  1  0
  8 46  1  0
  9 47  1  0
 10 48  1  1
 11 49  1  0
 11 50  1  0
 12 51  1  0
 12 52  1  0
 13 53  1  0
 13 54  1  0
 19 55  1  0
 19 56  1  0
 20 57  1  0
 20 58  1  0
 22 59  1  0
 23 60  1  0
 24 61  1  0
 25 62  1  0
 27 63  1  0
 27 64  1  0
 31 65  1  0
 31 66  1  0
 32 67  1  0
 32 68  1  0
 34 69  1  0
 35 70  1  0
 36 71  1  0
 37 72  1  0
 39 73  1  0
 39 74  1  0
 41 75  1  0
 41 76  1  0
M  END
>  <smiles>  (30) 
O=C(Nc1ccccc1)[C@@H]1CCCN(c2nc(N3CCc4ccccc4C3)nc(N3CCc4ccccc4C3)n2)C1

>  <score_type>  (30) 
oracle

>  <origin>  (30) 
autodockgpu

>  <m_score__min__energy>  (30) 
-9.7799999999999994

>  <m_primary>  (30) 
energy

>  <rmsd>  (30) 
4.061596071778334

>  <m_score__min__rmsd>  (30) 
4.061596071778334

>  <meeko>  (30) 
{"free_energy": -9.12, "intermolecular_energy": -10.61, "internal_energy": -1.3, "cluster_size": 13, "cluster_id": 3, "rank_in_cluster": 13}

>  <energy>  (30) 
-9.13

>  <cluster_rmsd>  (30) 
1.37

>  <cluster>  (30) 
3

$$$$

     RDKit          3D

 76 82  0  0  0  0  0  0  0  0999 V2000
  138.5410   69.9750  224.8410 O   0  0  0  0  0  0  0  0  0  0  0  0
  139.4880   70.7360  224.4560 C   0  0  0  0  0  0  0  0  0  0  0  0
  140.6770   70.6720  225.2400 N   0  0  0  0  0  0  0  0  0  0  0  0
  140.8130   69.8250  226.3750 C   0  0  0  0  0  0  0  0  0  0  0  0
  140.9090   70.3530  227.6460 C   0  0  0  0  0  0  0  0  0  0  0  0
  141.0370   69.4840  228.7060 C   0  0  0  0  0  0  0  0  0  0  0  0
  141.0730   68.1090  228.5400 C   0  0  0  0  0  0  0  0  0  0  0  0
  140.9750   67.6170  227.2670 C   0  0  0  0  0  0  0  0  0  0  0  0
  140.8460   68.4620  226.2080 C   0  0  0  0  0  0  0  0  0  0  0  0
  139.3580   71.6210  223.2730 C   0  0  2  0  0  0  0  0  0  0  0  0
  138.4650   70.9860  222.2400 C   0  0  0  0  0  0  0  0  0  0  0  0
  139.1910   70.5200  221.0210 C   0  0  0  0  0  0  0  0  0  0  0  0
  139.9830   71.6280  220.4010 C   0  0  0  0  0  0  0  0  0  0  0  0
  140.6030   72.4970  221.3560 N   0  0  0  0  0  0  0  0  0  0  0  0
  141.0910   73.7660  220.9370 C   0  0  0  0  0  0  0  0  0  0  0  0
  141.9170   73.8160  219.8770 N   0  0  0  0  0  0  0  0  0  0  0  0
  142.4250   74.9720  219.4110 C   0  0  0  0  0  0  0  0  0  0  0  0
  143.3070   75.0150  218.2780 N   0  0  0  0  0  0  0  0  0  0  0  0
  143.4110   76.2870  217.5880 C   0  0  0  0  0  0  0  0  0  0  0  0
  143.4880   75.9430  216.1020 C   0  0  0  0  0  0  0  0  0  0  0  0
  144.7730   75.1860  215.9310 C   0  0  0  0  0  0  0  0  0  0  0  0
  145.6770   75.4930  214.9380 C   0  0  0  0  0  0  0  0  0  0  0  0
  146.8470   74.7780  214.8110 C   0  0  0  0  0  0  0  0  0  0  0  0
  147.0800   73.7520  215.7050 C   0  0  0  0  0  0  0  0  0  0  0  0
  146.1720   73.4500  216.6950 C   0  0  0  0  0  0  0  0  0  0  0  0
  144.9870   74.1600  216.8380 C   0  0  0  0  0  0  0  0  0  0  0  0
  144.0100   73.8310  217.9080 C   0  0  0  0  0  0  0  0  0  0  0  0
  142.0680   76.1120  220.0590 N   0  0  0  0  0  0  0  0  0  0  0  0
  141.2450   76.1130  221.1230 C   0  0  0  0  0  0  0  0  0  0  0  0
  140.9190   77.3460  221.7470 N   0  0  0  0  0  0  0  0  0  0  0  0
  140.0460   78.2430  221.0130 C   0  0  0  0  0  0  0  0  0  0  0  0
  139.3490   79.2030  221.9870 C   0  0  0  0  0  0  0  0  0  0  0  0
  140.4750   79.9720  222.6160 C   0  0  0  0  0  0  0  0  0  0  0  0
  140.4700   81.3530  222.6600 C   0  0  0  0  0  0  0  0  0  0  0  0
  141.5480   81.9890  223.2600 C   0  0  0  0  0  0  0  0  0  0  0  0
  142.5980   81.2370  223.7980 C   0  0  0  0  0  0  0  0  0  0  0  0
  142.5740   79.8460  223.7390 C   0  0  0  0  0  0  0  0  0  0  0  0
  141.5010   79.2110  223.1420 C   0  0  0  0  0  0  0  0  0  0  0  0
  141.4230   77.7120  223.0490 C   0  0  0  0  0  0  0  0  0  0  0  0
  140.7670   74.9220  221.5460 N   0  0  0  0  0  0  0  0  0  0  0  0
  140.7080   72.0330  222.7280 C   0  0  0  0  0  0  0  0  0  0  0  0
  141.5030   71.2590  224.9980 H   0  0  0  0  0  0  0  0  0  0  0  0
  140.8839   71.4407  227.8083 H   0  0  0  0  0  0  0  0  0  0  0  0
  141.1136   69.8967  229.7227 H   0  0  0  0  0  0  0  0  0  0  0  0
  141.1769   67.4351  229.4031 H   0  0  0  0  0  0  0  0  0  0  0  0
  141.0007   66.5303  227.0983 H   0  0  0  0  0  0  0  0  0  0  0  0
  140.7662   68.0434  225.1939 H   0  0  0  0  0  0  0  0  0  0  0  0
  138.8724   72.5574  223.5849 H   0  0  0  0  0  0  0  0  0  0  0  0
  137.9654   70.1199  222.6986 H   0  0  0  0  0  0  0  0  0  0  0  0
  137.7529   71.7582  221.9135 H   0  0  0  0  0  0  0  0  0  0  0  0
  139.8743   69.7047  221.3010 H   0  0  0  0  0  0  0  0  0  0  0  0
  138.4487   70.1722  220.2875 H   0  0  0  0  0  0  0  0  0  0  0  0
  140.7698   71.1836  219.7738 H   0  0  0  0  0  0  0  0  0  0  0  0
  139.2783   72.2403  219.8193 H   0  0  0  0  0  0  0  0  0  0  0  0
  142.5268   76.9084  217.7930 H   0  0  0  0  0  0  0  0  0  0  0  0
  144.2901   76.8592  217.9194 H   0  0  0  0  0  0  0  0  0  0  0  0
  142.6318   75.3184  215.8072 H   0  0  0  0  0  0  0  0  0  0  0  0
  143.4590   76.8447  215.4726 H   0  0  0  0  0  0  0  0  0  0  0  0
  145.4625   76.3162  214.2406 H   0  0  0  0  0  0  0  0  0  0  0  0
  147.5741   75.0171  214.0210 H   0  0  0  0  0  0  0  0  0  0  0  0
  148.0072   73.1656  215.6250 H   0  0  0  0  0  0  0  0  0  0  0  0
  146.3906   72.6258  217.3900 H   0  0  0  0  0  0  0  0  0  0  0  0
  143.2969   73.0798  217.5375 H   0  0  0  0  0  0  0  0  0  0  0  0
  144.5405   73.4264  218.7826 H   0  0  0  0  0  0  0  0  0  0  0  0
  140.6410   78.8227  220.2919 H   0  0  0  0  0  0  0  0  0  0  0  0
  139.2866   77.6537  220.4782 H   0  0  0  0  0  0  0  0  0  0  0  0
  138.6682   79.8787  221.4485 H   0  0  0  0  0  0  0  0  0  0  0  0
  138.7327   78.6753  222.7298 H   0  0  0  0  0  0  0  0  0  0  0  0
  139.6372   81.9307  222.2326 H   0  0  0  0  0  0  0  0  0  0  0  0
  141.5769   83.0874  223.3126 H   0  0  0  0  0  0  0  0  0  0  0  0
  143.4491   81.7486  224.2713 H   0  0  0  0  0  0  0  0  0  0  0  0
  143.4011   79.2580  224.1634 H   0  0  0  0  0  0  0  0  0  0  0  0
  142.4252   77.2814  223.1906 H   0  0  0  0  0  0  0  0  0  0  0  0
  140.7501   77.3265  223.8291 H   0  0  0  0  0  0  0  0  0  0  0  0
  141.3877   71.1688  222.7631 H   0  0  0  0  0  0  0  0  0  0  0  0
  141.0950   72.8573  223.3450 H   0  0  0  0  0  0  0  0  0  0  0  0
  1  2  2  0
  2  3  1  0
  3  4  1  0
  4  5  2  0
  5  6  1  0
  6  7  2  0
  7  8  1  0
  8  9  2  0
  2 10  1  0
 10 11  1  0
 11 12  1  0
 12 13  1  0
 13 14  1  0
 14 15  1  0
 15 16  2  0
 16 17  1  0
 17 18  1  0
 18 19  1  0
 19 20  1  0
 20 21  1  0
 21 22  2  0
 22 23  1  0
 23 24  2  0
 24 25  1  0
 25 26  2  0
 26 27  1  0
 17 28  2  0
 28 29  1  0
 29 30  1  0
 30 31  1  0
 31 32  1  0
 32 33  1  0
 33 34  2  0
 34 35  1  0
 35 36  2  0
 36 37  1  0
 37 38  2  0
 38 39  1  0
 29 40  2  0
 14 41  1  0
  9  4  1  0
 41 10  1  0
 40 15  1  0
 27 18  1  0
 39 30  1  0
 26 21  1  0
 38 33  1  0
  3 42  1  0
  5 43  1  0
  6 44  1  0
  7 45  1  0
  8 46  1  0
  9 47  1  0
 10 48  1  1
 11 49  1  0
 11 50  1  0
 12 51  1  0
 12 52  1  0
 13 53  1  0
 13 54  1  0
 19 55  1  0
 19 56  1  0
 20 57  1  0
 20 58  1  0
 22 59  1  0
 23 60  1  0
 24 61  1  0
 25 62  1  0
 27 63  1  0
 27 64  1  0
 31 65  1  0
 31 66  1  0
 32 67  1  0
 32 68  1  0
 34 69  1  0
 35 70  1  0
 36 71  1  0
 37 72  1  0
 39 73  1  0
 39 74  1  0
 41 75  1  0
 41 76  1  0
M  END
>  <smiles>  (31) 
O=C(Nc1ccccc1)[C@@H]1CCCN(c2nc(N3CCc4ccccc4C3)nc(N3CCc4ccccc4C3)n2)C1

>  <score_type>  (31) 
oracle

>  <origin>  (31) 
autodockgpu

>  <m_score__min__energy>  (31) 
-9.7799999999999994

>  <m_primary>  (31) 
energy

>  <rmsd>  (31) 
10.358145886168687

>  <m_score__min__rmsd>  (31) 
10.358145886168687

>  <meeko>  (31) 
{"free_energy": -9.66, "intermolecular_energy": -11.15, "internal_energy": -1.28, "cluster_size": 15, "cluster_id": 1, "rank_in_cluster": 5}

>  <energy>  (31) 
-9.12

>  <cluster_rmsd>  (31) 
1.02

>  <cluster>  (31) 
3

$$$$

     RDKit          3D

 76 82  0  0  0  0  0  0  0  0999 V2000
  138.3920   70.6150  224.6540 O   0  0  0  0  0  0  0  0  0  0  0  0
  139.4490   71.0820  224.1160 C   0  0  0  0  0  0  0  0  0  0  0  0
  140.6650   70.7650  224.7890 N   0  0  0  0  0  0  0  0  0  0  0  0
  140.7130   69.9840  225.9770 C   0  0  0  0  0  0  0  0  0  0  0  0
  140.5270   68.6180  225.9370 C   0  0  0  0  0  0  0  0  0  0  0  0
  140.5850   67.9150  227.1190 C   0  0  0  0  0  0  0  0  0  0  0  0
  140.8230   68.5300  228.3380 C   0  0  0  0  0  0  0  0  0  0  0  0
  141.0040   69.8860  228.3450 C   0  0  0  0  0  0  0  0  0  0  0  0
  140.9500   70.5950  227.1850 C   0  0  0  0  0  0  0  0  0  0  0  0
  139.4110   71.8950  222.8770 C   0  0  2  0  0  0  0  0  0  0  0  0
  138.5960   71.2000  221.8180 C   0  0  0  0  0  0  0  0  0  0  0  0
  139.4100   70.6630  220.6870 C   0  0  0  0  0  0  0  0  0  0  0  0
  140.2500   71.7340  220.0640 C   0  0  0  0  0  0  0  0  0  0  0  0
  140.8000   72.6580  221.0100 N   0  0  0  0  0  0  0  0  0  0  0  0
  141.3220   73.9010  220.5550 C   0  0  0  0  0  0  0  0  0  0  0  0
  142.1860   73.8920  219.5250 N   0  0  0  0  0  0  0  0  0  0  0  0
  142.7290   75.0190  219.0280 C   0  0  0  0  0  0  0  0  0  0  0  0
  143.6520   75.0010  217.9270 N   0  0  0  0  0  0  0  0  0  0  0  0
  143.7030   76.1960  217.1060 C   0  0  0  0  0  0  0  0  0  0  0  0
  143.8620   75.7000  215.6700 C   0  0  0  0  0  0  0  0  0  0  0  0
  145.1980   75.0170  215.6260 C   0  0  0  0  0  0  0  0  0  0  0  0
  146.1200   75.2770  214.6360 C   0  0  0  0  0  0  0  0  0  0  0  0
  147.3380   74.6330  214.6270 C   0  0  0  0  0  0  0  0  0  0  0  0
  147.5980   73.7270  215.6360 C   0  0  0  0  0  0  0  0  0  0  0  0
  146.6720   73.4710  216.6230 C   0  0  0  0  0  0  0  0  0  0  0  0
  145.4400   74.1110  216.6470 C   0  0  0  0  0  0  0  0  0  0  0  0
  144.4430   73.8340  217.7130 C   0  0  0  0  0  0  0  0  0  0  0  0
  142.3660   76.1910  219.6120 N   0  0  0  0  0  0  0  0  0  0  0  0
  141.5060   76.2510  220.6440 C   0  0  0  0  0  0  0  0  0  0  0  0
  141.1770   77.5150  221.2020 N   0  0  0  0  0  0  0  0  0  0  0  0
  140.9290   78.6000  220.2700 C   0  0  0  0  0  0  0  0  0  0  0  0
  140.0650   79.6750  220.9420 C   0  0  0  0  0  0  0  0  0  0  0  0
  140.9030   80.1570  222.0910 C   0  0  0  0  0  0  0  0  0  0  0  0
  141.1470   81.5020  222.2920 C   0  0  0  0  0  0  0  0  0  0  0  0
  141.9320   81.8660  223.3780 C   0  0  0  0  0  0  0  0  0  0  0  0
  142.4510   80.8870  224.2300 C   0  0  0  0  0  0  0  0  0  0  0  0
  142.1880   79.5380  224.0020 C   0  0  0  0  0  0  0  0  0  0  0  0
  141.4060   79.1740  222.9220 C   0  0  0  0  0  0  0  0  0  0  0  0
  141.0890   77.7330  222.6260 C   0  0  0  0  0  0  0  0  0  0  0  0
  140.9940   75.0860  221.1010 N   0  0  0  0  0  0  0  0  0  0  0  0
  140.8000   72.2760  222.4110 C   0  0  0  0  0  0  0  0  0  0  0  0
  141.5780   71.1040  224.4210 H   0  0  0  0  0  0  0  0  0  0  0  0
  140.3369   68.1029  224.9838 H   0  0  0  0  0  0  0  0  0  0  0  0
  140.4371   66.8253  227.0952 H   0  0  0  0  0  0  0  0  0  0  0  0
  140.8650   67.9467  229.2697 H   0  0  0  0  0  0  0  0  0  0  0  0
  141.1945   70.4067  229.2950 H   0  0  0  0  0  0  0  0  0  0  0  0
  141.0998   71.6844  227.2148 H   0  0  0  0  0  0  0  0  0  0  0  0
  138.9060   72.8472  223.0969 H   0  0  0  0  0  0  0  0  0  0  0  0
  138.0593   70.3624  222.2874 H   0  0  0  0  0  0  0  0  0  0  0  0
  137.9142   71.9517  221.3935 H   0  0  0  0  0  0  0  0  0  0  0  0
  140.0677   69.8667  221.0655 H   0  0  0  0  0  0  0  0  0  0  0  0
  138.7242   70.2708  219.9216 H   0  0  0  0  0  0  0  0  0  0  0  0
  141.0799   71.2544  219.5242 H   0  0  0  0  0  0  0  0  0  0  0  0
  139.5926   72.3105  219.3966 H   0  0  0  0  0  0  0  0  0  0  0  0
  142.7736   76.7748  217.2118 H   0  0  0  0  0  0  0  0  0  0  0  0
  144.5295   76.8588  217.4020 H   0  0  0  0  0  0  0  0  0  0  0  0
  143.0596   74.9913  215.4172 H   0  0  0  0  0  0  0  0  0  0  0  0
  143.8018   76.5249  214.9448 H   0  0  0  0  0  0  0  0  0  0  0  0
  145.8818   76.0047  213.8462 H   0  0  0  0  0  0  0  0  0  0  0  0
  148.0802   74.8344  213.8405 H   0  0  0  0  0  0  0  0  0  0  0  0
  148.5632   73.1996  215.6519 H   0  0  0  0  0  0  0  0  0  0  0  0
  146.9142   72.7424  217.4107 H   0  0  0  0  0  0  0  0  0  0  0  0
  143.7945   73.0012  217.4034 H   0  0  0  0  0  0  0  0  0  0  0  0
  144.9619   73.5623  218.6441 H   0  0  0  0  0  0  0  0  0  0  0  0
  141.8876   79.0424  219.9611 H   0  0  0  0  0  0  0  0  0  0  0  0
  140.4005   78.2080  219.3885 H   0  0  0  0  0  0  0  0  0  0  0  0
  139.8517   80.4971  220.2430 H   0  0  0  0  0  0  0  0  0  0  0  0
  139.0880   79.2877  221.2668 H   0  0  0  0  0  0  0  0  0  0  0  0
  140.7321   82.2611  221.6126 H   0  0  0  0  0  0  0  0  0  0  0  0
  142.1461   82.9280  223.5684 H   0  0  0  0  0  0  0  0  0  0  0  0
  143.0723   81.1842  225.0877 H   0  0  0  0  0  0  0  0  0  0  0  0
  142.5985   78.7705  224.6746 H   0  0  0  0  0  0  0  0  0  0  0  0
  141.8098   77.0830  223.1438 H   0  0  0  0  0  0  0  0  0  0  0  0
  140.0733   77.4967  222.9759 H   0  0  0  0  0  0  0  0  0  0  0  0
  141.4724   71.4163  222.5480 H   0  0  0  0  0  0  0  0  0  0  0  0
  141.1420   73.1360  223.0055 H   0  0  0  0  0  0  0  0  0  0  0  0
  1  2  2  0
  2  3  1  0
  3  4  1  0
  4  5  2  0
  5  6  1  0
  6  7  2  0
  7  8  1  0
  8  9  2  0
  2 10  1  0
 10 11  1  0
 11 12  1  0
 12 13  1  0
 13 14  1  0
 14 15  1  0
 15 16  2  0
 16 17  1  0
 17 18  1  0
 18 19  1  0
 19 20  1  0
 20 21  1  0
 21 22  2  0
 22 23  1  0
 23 24  2  0
 24 25  1  0
 25 26  2  0
 26 27  1  0
 17 28  2  0
 28 29  1  0
 29 30  1  0
 30 31  1  0
 31 32  1  0
 32 33  1  0
 33 34  2  0
 34 35  1  0
 35 36  2  0
 36 37  1  0
 37 38  2  0
 38 39  1  0
 29 40  2  0
 14 41  1  0
  9  4  1  0
 41 10  1  0
 40 15  1  0
 27 18  1  0
 39 30  1  0
 26 21  1  0
 38 33  1  0
  3 42  1  0
  5 43  1  0
  6 44  1  0
  7 45  1  0
  8 46  1  0
  9 47  1  0
 10 48  1  1
 11 49  1  0
 11 50  1  0
 12 51  1  0
 12 52  1  0
 13 53  1  0
 13 54  1  0
 19 55  1  0
 19 56  1  0
 20 57  1  0
 20 58  1  0
 22 59  1  0
 23 60  1  0
 24 61  1  0
 25 62  1  0
 27 63  1  0
 27 64  1  0
 31 65  1  0
 31 66  1  0
 32 67  1  0
 32 68  1  0
 34 69  1  0
 35 70  1  0
 36 71  1  0
 37 72  1  0
 39 73  1  0
 39 74  1  0
 41 75  1  0
 41 76  1  0
M  END
>  <smiles>  (32) 
O=C(Nc1ccccc1)[C@@H]1CCCN(c2nc(N3CCc4ccccc4C3)nc(N3CCc4ccccc4C3)n2)C1

>  <score_type>  (32) 
oracle

>  <origin>  (32) 
autodockgpu

>  <m_score__min__energy>  (32) 
-9.7799999999999994

>  <m_primary>  (32) 
energy

>  <rmsd>  (32) 
10.078252413655603

>  <m_score__min__rmsd>  (32) 
10.078252413655603

>  <meeko>  (32) 
{"free_energy": -9.59, "intermolecular_energy": -11.08, "internal_energy": -1.29, "cluster_size": 15, "cluster_id": 1, "rank_in_cluster": 10}

>  <energy>  (32) 
-9.48

>  <cluster_rmsd>  (32) 
0.0

>  <cluster>  (32) 
4

$$$$

     RDKit          3D

 76 82  0  0  0  0  0  0  0  0999 V2000
  146.5310   72.3580  216.2030 O   0  0  0  0  0  0  0  0  0  0  0  0
  145.8650   73.1470  216.9500 C   0  0  0  0  0  0  0  0  0  0  0  0
  145.8480   74.5100  216.5330 N   0  0  0  0  0  0  0  0  0  0  0  0
  146.5220   74.9740  215.3700 C   0  0  0  0  0  0  0  0  0  0  0  0
  147.8970   75.0910  215.3460 C   0  0  0  0  0  0  0  0  0  0  0  0
  148.4930   75.5440  214.1910 C   0  0  0  0  0  0  0  0  0  0  0  0
  147.7660   75.8850  213.0620 C   0  0  0  0  0  0  0  0  0  0  0  0
  146.4040   75.7570  213.1180 C   0  0  0  0  0  0  0  0  0  0  0  0
  145.7990   75.3090  214.2510 C   0  0  0  0  0  0  0  0  0  0  0  0
  145.1570   72.6740  218.1630 C   0  0  2  0  0  0  0  0  0  0  0  0
  145.2840   71.1790  218.2950 C   0  0  0  0  0  0  0  0  0  0  0  0
  144.0120   70.4400  218.0350 C   0  0  0  0  0  0  0  0  0  0  0  0
  142.9050   70.9380  218.9100 C   0  0  0  0  0  0  0  0  0  0  0  0
  142.9200   72.3570  219.1080 N   0  0  0  0  0  0  0  0  0  0  0  0
  142.1590   72.9250  220.1670 C   0  0  0  0  0  0  0  0  0  0  0  0
  141.6440   72.1030  221.0980 N   0  0  0  0  0  0  0  0  0  0  0  0
  140.9120   72.5520  222.1350 C   0  0  0  0  0  0  0  0  0  0  0  0
  140.3660   71.6650  223.1240 N   0  0  0  0  0  0  0  0  0  0  0  0
  139.5030   70.6070  222.6370 C   0  0  0  0  0  0  0  0  0  0  0  0
  138.3800   70.4870  223.6660 C   0  0  0  0  0  0  0  0  0  0  0  0
  139.0430   70.0350  224.9330 C   0  0  0  0  0  0  0  0  0  0  0  0
  138.5560   68.9840  225.6800 C   0  0  0  0  0  0  0  0  0  0  0  0
  139.1910   68.5940  226.8380 C   0  0  0  0  0  0  0  0  0  0  0  0
  140.3210   69.2880  227.2220 C   0  0  0  0  0  0  0  0  0  0  0  0
  140.8030   70.3380  226.4720 C   0  0  0  0  0  0  0  0  0  0  0  0
  140.1760   70.7440  225.3020 C   0  0  0  0  0  0  0  0  0  0  0  0
  140.6990   71.8770  224.4950 C   0  0  0  0  0  0  0  0  0  0  0  0
  140.7080   73.8930  222.2130 N   0  0  0  0  0  0  0  0  0  0  0  0
  141.2020   74.7550  221.3070 C   0  0  0  0  0  0  0  0  0  0  0  0
  140.9450   76.1440  221.4580 N   0  0  0  0  0  0  0  0  0  0  0  0
  141.0340   76.9630  220.2620 C   0  0  0  0  0  0  0  0  0  0  0  0
  140.2100   78.2430  220.4460 C   0  0  0  0  0  0  0  0  0  0  0  0
  140.8630   78.9400  221.6040 C   0  0  0  0  0  0  0  0  0  0  0  0
  141.2420   80.2660  221.5280 C   0  0  0  0  0  0  0  0  0  0  0  0
  141.8400   80.8380  222.6430 C   0  0  0  0  0  0  0  0  0  0  0  0
  142.0430   80.0780  223.7990 C   0  0  0  0  0  0  0  0  0  0  0  0
  141.6500   78.7430  223.8460 C   0  0  0  0  0  0  0  0  0  0  0  0
  141.0540   78.1720  222.7370 C   0  0  0  0  0  0  0  0  0  0  0  0
  140.6090   76.7350  222.7310 C   0  0  0  0  0  0  0  0  0  0  0  0
  141.9290   74.2450  220.2870 N   0  0  0  0  0  0  0  0  0  0  0  0
  143.7240   73.1590  218.2050 C   0  0  0  0  0  0  0  0  0  0  0  0
  145.3280   75.2250  217.0830 H   0  0  0  0  0  0  0  0  0  0  0  0
  148.5010   74.8290  216.2272 H   0  0  0  0  0  0  0  0  0  0  0  0
  149.5885   75.6389  214.1633 H   0  0  0  0  0  0  0  0  0  0  0  0
  148.2662   76.2464  212.1514 H   0  0  0  0  0  0  0  0  0  0  0  0
  145.7945   76.0184  212.2404 H   0  0  0  0  0  0  0  0  0  0  0  0
  144.7034   75.2126  214.2717 H   0  0  0  0  0  0  0  0  0  0  0  0
  145.6403   73.1173  219.0461 H   0  0  0  0  0  0  0  0  0  0  0  0
  146.0405   70.8305  217.5765 H   0  0  0  0  0  0  0  0  0  0  0  0
  145.5667   70.9726  219.3378 H   0  0  0  0  0  0  0  0  0  0  0  0
  143.7261   70.5784  216.9819 H   0  0  0  0  0  0  0  0  0  0  0  0
  144.1775   69.3754  218.2568 H   0  0  0  0  0  0  0  0  0  0  0  0
  141.9460   70.6623  218.4472 H   0  0  0  0  0  0  0  0  0  0  0  0
  143.0435   70.4746  219.8979 H   0  0  0  0  0  0  0  0  0  0  0  0
  139.0934   70.8691  221.6503 H   0  0  0  0  0  0  0  0  0  0  0  0
  140.0485   69.6593  222.5172 H   0  0  0  0  0  0  0  0  0  0  0  0
  137.8896   71.4603  223.8150 H   0  0  0  0  0  0  0  0  0  0  0  0
  137.6013   69.7821  223.3394 H   0  0  0  0  0  0  0  0  0  0  0  0
  137.6521   68.4521  225.3482 H   0  0  0  0  0  0  0  0  0  0  0  0
  138.8095   67.7552  227.4387 H   0  0  0  0  0  0  0  0  0  0  0  0
  140.8461   68.9971  228.1438 H   0  0  0  0  0  0  0  0  0  0  0  0
  141.7066   70.8676  226.8083 H   0  0  0  0  0  0  0  0  0  0  0  0
  140.2465   72.8172  224.8431 H   0  0  0  0  0  0  0  0  0  0  0  0
  141.7916   71.9386  224.6063 H   0  0  0  0  0  0  0  0  0  0  0  0
  142.0856   77.2289  220.0790 H   0  0  0  0  0  0  0  0  0  0  0  0
  140.6398   76.3976  219.4047 H   0  0  0  0  0  0  0  0  0  0  0  0
  140.2521   78.8672  219.5412 H   0  0  0  0  0  0  0  0  0  0  0  0
  139.1449   78.0354  220.6263 H   0  0  0  0  0  0  0  0  0  0  0  0
  141.0751   80.8513  220.6117 H   0  0  0  0  0  0  0  0  0  0  0  0
  142.1548   81.8917  222.6168 H   0  0  0  0  0  0  0  0  0  0  0  0
  142.5170   80.5385  224.6784 H   0  0  0  0  0  0  0  0  0  0  0  0
  141.8122   78.1483  224.7570 H   0  0  0  0  0  0  0  0  0  0  0  0
  141.1188   76.1878  223.5376 H   0  0  0  0  0  0  0  0  0  0  0  0
  139.5218   76.6821  222.8897 H   0  0  0  0  0  0  0  0  0  0  0  0
  143.2955   73.0974  217.1938 H   0  0  0  0  0  0  0  0  0  0  0  0
  143.7204   74.1974  218.5678 H   0  0  0  0  0  0  0  0  0  0  0  0
  1  2  2  0
  2  3  1  0
  3  4  1  0
  4  5  2  0
  5  6  1  0
  6  7  2  0
  7  8  1  0
  8  9  2  0
  2 10  1  0
 10 11  1  0
 11 12  1  0
 12 13  1  0
 13 14  1  0
 14 15  1  0
 15 16  2  0
 16 17  1  0
 17 18  1  0
 18 19  1  0
 19 20  1  0
 20 21  1  0
 21 22  2  0
 22 23  1  0
 23 24  2  0
 24 25  1  0
 25 26  2  0
 26 27  1  0
 17 28  2  0
 28 29  1  0
 29 30  1  0
 30 31  1  0
 31 32  1  0
 32 33  1  0
 33 34  2  0
 34 35  1  0
 35 36  2  0
 36 37  1  0
 37 38  2  0
 38 39  1  0
 29 40  2  0
 14 41  1  0
  9  4  1  0
 41 10  1  0
 40 15  1  0
 27 18  1  0
 39 30  1  0
 26 21  1  0
 38 33  1  0
  3 42  1  0
  5 43  1  0
  6 44  1  0
  7 45  1  0
  8 46  1  0
  9 47  1  0
 10 48  1  1
 11 49  1  0
 11 50  1  0
 12 51  1  0
 12 52  1  0
 13 53  1  0
 13 54  1  0
 19 55  1  0
 19 56  1  0
 20 57  1  0
 20 58  1  0
 22 59  1  0
 23 60  1  0
 24 61  1  0
 25 62  1  0
 27 63  1  0
 27 64  1  0
 31 65  1  0
 31 66  1  0
 32 67  1  0
 32 68  1  0
 34 69  1  0
 35 70  1  0
 36 71  1  0
 37 72  1  0
 39 73  1  0
 39 74  1  0
 41 75  1  0
 41 76  1  0
M  END
>  <smiles>  (33) 
O=C(Nc1ccccc1)[C@@H]1CCCN(c2nc(N3CCc4ccccc4C3)nc(N3CCc4ccccc4C3)n2)C1

>  <score_type>  (33) 
oracle

>  <origin>  (33) 
autodockgpu

>  <m_score__min__energy>  (33) 
-9.7799999999999994

>  <m_primary>  (33) 
energy

>  <rmsd>  (33) 
9.024353875196846

>  <m_score__min__rmsd>  (33) 
9.024353875196846

>  <meeko>  (33) 
{"free_energy": -9.73, "intermolecular_energy": -11.22, "internal_energy": -1.28, "cluster_size": 3, "cluster_id": 2, "rank_in_cluster": 2}

>  <energy>  (33) 
-9.44

>  <cluster_rmsd>  (33) 
1.02

>  <cluster>  (33) 
4

$$$$

     RDKit          3D

 76 82  0  0  0  0  0  0  0  0999 V2000
  138.3450   70.5890  224.3690 O   0  0  0  0  0  0  0  0  0  0  0  0
  139.4200   71.1120  223.9260 C   0  0  0  0  0  0  0  0  0  0  0  0
  140.5720   70.9190  224.7420 N   0  0  0  0  0  0  0  0  0  0  0  0
  140.5420   70.1970  225.9670 C   0  0  0  0  0  0  0  0  0  0  0  0
  140.3670   68.8280  225.9800 C   0  0  0  0  0  0  0  0  0  0  0  0
  140.3480   68.1840  227.1970 C   0  0  0  0  0  0  0  0  0  0  0  0
  140.4980   68.8580  228.3980 C   0  0  0  0  0  0  0  0  0  0  0  0
  140.6700   70.2150  228.3520 C   0  0  0  0  0  0  0  0  0  0  0  0
  140.6920   70.8670  227.1580 C   0  0  0  0  0  0  0  0  0  0  0  0
  139.4620   71.8650  222.6490 C   0  0  2  0  0  0  0  0  0  0  0  0
  138.8540   71.0500  221.5390 C   0  0  0  0  0  0  0  0  0  0  0  0
  139.8490   70.5480  220.5440 C   0  0  0  0  0  0  0  0  0  0  0  0
  140.6590   71.6690  219.9710 C   0  0  0  0  0  0  0  0  0  0  0  0
  140.9980   72.6820  220.9260 N   0  0  0  0  0  0  0  0  0  0  0  0
  141.4560   73.9490  220.4710 C   0  0  0  0  0  0  0  0  0  0  0  0
  142.2850   73.9880  219.4130 N   0  0  0  0  0  0  0  0  0  0  0  0
  142.7680   75.1410  218.9140 C   0  0  0  0  0  0  0  0  0  0  0  0
  143.6530   75.1720  217.7830 N   0  0  0  0  0  0  0  0  0  0  0  0
  143.6600   76.3950  217.0020 C   0  0  0  0  0  0  0  0  0  0  0  0
  143.7770   75.9500  215.5460 C   0  0  0  0  0  0  0  0  0  0  0  0
  145.1200   75.2880  215.4340 C   0  0  0  0  0  0  0  0  0  0  0  0
  146.0050   75.5940  214.4230 C   0  0  0  0  0  0  0  0  0  0  0  0
  147.2290   74.9680  214.3520 C   0  0  0  0  0  0  0  0  0  0  0  0
  147.5360   74.0320  215.3190 C   0  0  0  0  0  0  0  0  0  0  0  0
  146.6460   73.7300  216.3270 C   0  0  0  0  0  0  0  0  0  0  0  0
  145.4080   74.3520  216.4150 C   0  0  0  0  0  0  0  0  0  0  0  0
  144.4510   74.0240  217.5040 C   0  0  0  0  0  0  0  0  0  0  0  0
  142.3800   76.2910  219.5270 N   0  0  0  0  0  0  0  0  0  0  0  0
  141.5540   76.3030  220.5880 C   0  0  0  0  0  0  0  0  0  0  0  0
  141.1950   77.5460  221.1740 N   0  0  0  0  0  0  0  0  0  0  0  0
  140.8770   78.6340  220.2660 C   0  0  0  0  0  0  0  0  0  0  0  0
  139.9960   79.6660  220.9810 C   0  0  0  0  0  0  0  0  0  0  0  0
  140.8510   80.1640  222.1090 C   0  0  0  0  0  0  0  0  0  0  0  0
  141.0500   81.5140  222.3230 C   0  0  0  0  0  0  0  0  0  0  0  0
  141.8550   81.8930  223.3890 C   0  0  0  0  0  0  0  0  0  0  0  0
  142.4370   80.9230  224.2110 C   0  0  0  0  0  0  0  0  0  0  0  0
  142.2170   79.5680  223.9710 C   0  0  0  0  0  0  0  0  0  0  0  0
  141.4160   79.1900  222.9100 C   0  0  0  0  0  0  0  0  0  0  0  0
  141.1440   77.7420  222.6030 C   0  0  0  0  0  0  0  0  0  0  0  0
  141.1020   75.1140  221.0450 N   0  0  0  0  0  0  0  0  0  0  0  0
  140.8570   72.3600  222.3340 C   0  0  0  0  0  0  0  0  0  0  0  0
  141.4940   71.3120  224.4590 H   0  0  0  0  0  0  0  0  0  0  0  0
  140.2458   68.2658  225.0423 H   0  0  0  0  0  0  0  0  0  0  0  0
  140.2084   67.0931  227.2163 H   0  0  0  0  0  0  0  0  0  0  0  0
  140.4795   68.3201  229.3573 H   0  0  0  0  0  0  0  0  0  0  0  0
  140.7913   70.7823  229.2866 H   0  0  0  0  0  0  0  0  0  0  0  0
  140.8334   71.9578  227.1454 H   0  0  0  0  0  0  0  0  0  0  0  0
  138.8476   72.7712  222.7550 H   0  0  0  0  0  0  0  0  0  0  0  0
  138.3424   70.1842  221.9848 H   0  0  0  0  0  0  0  0  0  0  0  0
  138.1646   71.7130  220.9957 H   0  0  0  0  0  0  0  0  0  0  0  0
  140.5242   69.8356  221.0407 H   0  0  0  0  0  0  0  0  0  0  0  0
  139.3030   70.0597  219.7234 H   0  0  0  0  0  0  0  0  0  0  0  0
  141.5909   71.2507  219.5630 H   0  0  0  0  0  0  0  0  0  0  0  0
  140.0409   72.1498  219.1985 H   0  0  0  0  0  0  0  0  0  0  0  0
  142.7269   76.9562  217.1585 H   0  0  0  0  0  0  0  0  0  0  0  0
  144.4869   77.0596  217.2928 H   0  0  0  0  0  0  0  0  0  0  0  0
  142.9760   75.2387  215.2962 H   0  0  0  0  0  0  0  0  0  0  0  0
  143.6815   76.7979  214.8518 H   0  0  0  0  0  0  0  0  0  0  0  0
  145.7312   76.3444  213.6667 H   0  0  0  0  0  0  0  0  0  0  0  0
  147.9413   75.2066  213.5485 H   0  0  0  0  0  0  0  0  0  0  0  0
  148.5080   73.5182  215.2844 H   0  0  0  0  0  0  0  0  0  0  0  0
  146.9233   72.9778  217.0802 H   0  0  0  0  0  0  0  0  0  0  0  0
  143.8035   73.1929  217.1878 H   0  0  0  0  0  0  0  0  0  0  0  0
  145.0040   73.7277  218.4075 H   0  0  0  0  0  0  0  0  0  0  0  0
  141.8081   79.1163  219.9336 H   0  0  0  0  0  0  0  0  0  0  0  0
  140.3356   78.2346  219.3958 H   0  0  0  0  0  0  0  0  0  0  0  0
  139.7294   80.4887  220.3013 H   0  0  0  0  0  0  0  0  0  0  0  0
  139.0455   79.2371  221.3313 H   0  0  0  0  0  0  0  0  0  0  0  0
  140.5849   82.2661  221.6688 H   0  0  0  0  0  0  0  0  0  0  0  0
  142.0355   82.9598  223.5875 H   0  0  0  0  0  0  0  0  0  0  0  0
  143.0733   81.2318  225.0535 H   0  0  0  0  0  0  0  0  0  0  0  0
  142.6761   78.8071  224.6193 H   0  0  0  0  0  0  0  0  0  0  0  0
  141.9046   77.1130  223.0887 H   0  0  0  0  0  0  0  0  0  0  0  0
  140.1493   77.4630  222.9807 H   0  0  0  0  0  0  0  0  0  0  0  0
  141.5829   71.5763  222.5966 H   0  0  0  0  0  0  0  0  0  0  0  0
  141.0410   73.2734  222.9187 H   0  0  0  0  0  0  0  0  0  0  0  0
  1  2  2  0
  2  3  1  0
  3  4  1  0
  4  5  2  0
  5  6  1  0
  6  7  2  0
  7  8  1  0
  8  9  2  0
  2 10  1  0
 10 11  1  0
 11 12  1  0
 12 13  1  0
 13 14  1  0
 14 15  1  0
 15 16  2  0
 16 17  1  0
 17 18  1  0
 18 19  1  0
 19 20  1  0
 20 21  1  0
 21 22  2  0
 22 23  1  0
 23 24  2  0
 24 25  1  0
 25 26  2  0
 26 27  1  0
 17 28  2  0
 28 29  1  0
 29 30  1  0
 30 31  1  0
 31 32  1  0
 32 33  1  0
 33 34  2  0
 34 35  1  0
 35 36  2  0
 36 37  1  0
 37 38  2  0
 38 39  1  0
 29 40  2  0
 14 41  1  0
  9  4  1  0
 41 10  1  0
 40 15  1  0
 27 18  1  0
 39 30  1  0
 26 21  1  0
 38 33  1  0
  3 42  1  0
  5 43  1  0
  6 44  1  0
  7 45  1  0
  8 46  1  0
  9 47  1  0
 10 48  1  1
 11 49  1  0
 11 50  1  0
 12 51  1  0
 12 52  1  0
 13 53  1  0
 13 54  1  0
 19 55  1  0
 19 56  1  0
 20 57  1  0
 20 58  1  0
 22 59  1  0
 23 60  1  0
 24 61  1  0
 25 62  1  0
 27 63  1  0
 27 64  1  0
 31 65  1  0
 31 66  1  0
 32 67  1  0
 32 68  1  0
 34 69  1  0
 35 70  1  0
 36 71  1  0
 37 72  1  0
 39 73  1  0
 39 74  1  0
 41 75  1  0
 41 76  1  0
M  END
>  <smiles>  (34) 
O=C(Nc1ccccc1)[C@@H]1CCCN(c2nc(N3CCc4ccccc4C3)nc(N3CCc4ccccc4C3)n2)C1

>  <score_type>  (34) 
oracle

>  <origin>  (34) 
autodockgpu

>  <m_score__min__energy>  (34) 
-9.7799999999999994

>  <m_primary>  (34) 
energy

>  <rmsd>  (34) 
9.942474609929999

>  <m_score__min__rmsd>  (34) 
9.942474609929999

>  <meeko>  (34) 
{"free_energy": -9.61, "intermolecular_energy": -11.1, "internal_energy": -1.29, "cluster_size": 15, "cluster_id": 1, "rank_in_cluster": 9}

>  <energy>  (34) 
-9.42

>  <cluster_rmsd>  (34) 
1.04

>  <cluster>  (34) 
4

$$$$

     RDKit          3D

 76 82  0  0  0  0  0  0  0  0999 V2000
  135.6410   68.8890  224.1660 O   0  0  0  0  0  0  0  0  0  0  0  0
  136.3170   69.9690  224.1570 C   0  0  0  0  0  0  0  0  0  0  0  0
  135.6210   71.1250  224.6160 N   0  0  0  0  0  0  0  0  0  0  0  0
  134.2690   71.0930  225.0560 C   0  0  0  0  0  0  0  0  0  0  0  0
  133.2530   70.7180  224.2000 C   0  0  0  0  0  0  0  0  0  0  0  0
  131.9640   70.7050  224.6830 C   0  0  0  0  0  0  0  0  0  0  0  0
  131.6560   71.0530  225.9880 C   0  0  0  0  0  0  0  0  0  0  0  0
  132.6850   71.4190  226.8130 C   0  0  0  0  0  0  0  0  0  0  0  0
  133.9650   71.4370  226.3510 C   0  0  0  0  0  0  0  0  0  0  0  0
  137.7280   70.0140  223.7030 C   0  0  2  0  0  0  0  0  0  0  0  0
  138.5650   69.0440  224.4950 C   0  0  0  0  0  0  0  0  0  0  0  0
  139.5120   69.7020  225.4440 C   0  0  0  0  0  0  0  0  0  0  0  0
  140.3950   70.6830  224.7400 C   0  0  0  0  0  0  0  0  0  0  0  0
  139.7280   71.4260  223.7130 N   0  0  0  0  0  0  0  0  0  0  0  0
  140.4960   72.1310  222.7450 C   0  0  0  0  0  0  0  0  0  0  0  0
  141.3860   71.4420  222.0090 N   0  0  0  0  0  0  0  0  0  0  0  0
  142.1550   72.0250  221.0710 C   0  0  0  0  0  0  0  0  0  0  0  0
  143.1030   71.2810  220.2900 N   0  0  0  0  0  0  0  0  0  0  0  0
  144.4130   71.8800  220.1210 C   0  0  0  0  0  0  0  0  0  0  0  0
  144.8200   71.5770  218.6800 C   0  0  0  0  0  0  0  0  0  0  0  0
  144.9500   70.0830  218.6060 C   0  0  0  0  0  0  0  0  0  0  0  0
  146.0510   69.4710  218.0460 C   0  0  0  0  0  0  0  0  0  0  0  0
  146.1380   68.0980  217.9950 C   0  0  0  0  0  0  0  0  0  0  0  0
  145.0940   67.3630  218.5200 C   0  0  0  0  0  0  0  0  0  0  0  0
  143.9960   67.9800  219.0780 C   0  0  0  0  0  0  0  0  0  0  0  0
  143.8920   69.3640  219.1370 C   0  0  0  0  0  0  0  0  0  0  0  0
  142.7060   70.0260  219.7400 C   0  0  0  0  0  0  0  0  0  0  0  0
  141.9970   73.3630  220.8860 N   0  0  0  0  0  0  0  0  0  0  0  0
  141.1210   74.0940  221.5960 C   0  0  0  0  0  0  0  0  0  0  0  0
  141.0150   75.4880  221.3440 N   0  0  0  0  0  0  0  0  0  0  0  0
  141.6350   75.9850  220.1300 C   0  0  0  0  0  0  0  0  0  0  0  0
  140.9790   77.3090  219.7160 C   0  0  0  0  0  0  0  0  0  0  0  0
  141.2620   78.2360  220.8610 C   0  0  0  0  0  0  0  0  0  0  0  0
  141.8180   79.4850  220.6590 C   0  0  0  0  0  0  0  0  0  0  0  0
  142.0490   80.2830  221.7720 C   0  0  0  0  0  0  0  0  0  0  0  0
  141.7210   79.8190  223.0500 C   0  0  0  0  0  0  0  0  0  0  0  0
  141.1610   78.5550  223.2220 C   0  0  0  0  0  0  0  0  0  0  0  0
  140.9310   77.7600  222.1160 C   0  0  0  0  0  0  0  0  0  0  0  0
  140.3290   76.3870  222.2410 C   0  0  0  0  0  0  0  0  0  0  0  0
  140.3770   73.4530  222.5260 N   0  0  0  0  0  0  0  0  0  0  0  0
  138.2770   71.4240  223.7090 C   0  0  0  0  0  0  0  0  0  0  0  0
  136.0950   72.0530  224.6440 H   0  0  0  0  0  0  0  0  0  0  0  0
  133.4679   70.4367  223.1585 H   0  0  0  0  0  0  0  0  0  0  0  0
  131.1483   70.4073  224.0077 H   0  0  0  0  0  0  0  0  0  0  0  0
  130.6173   71.0357  226.3498 H   0  0  0  0  0  0  0  0  0  0  0  0
  132.4761   71.7003  227.8557 H   0  0  0  0  0  0  0  0  0  0  0  0
  134.7765   71.7344  227.0314 H   0  0  0  0  0  0  0  0  0  0  0  0
  137.7694   69.6904  222.6525 H   0  0  0  0  0  0  0  0  0  0  0  0
  137.8906   68.3944  225.0722 H   0  0  0  0  0  0  0  0  0  0  0  0
  139.1741   68.4812  223.7723 H   0  0  0  0  0  0  0  0  0  0  0  0
  138.9348   70.2303  226.2171 H   0  0  0  0  0  0  0  0  0  0  0  0
  140.1471   68.9250  225.8945 H   0  0  0  0  0  0  0  0  0  0  0  0
  140.7868   71.3930  225.4833 H   0  0  0  0  0  0  0  0  0  0  0  0
  141.1922   70.1039  224.2510 H   0  0  0  0  0  0  0  0  0  0  0  0
  144.3626   72.9665  220.2855 H   0  0  0  0  0  0  0  0  0  0  0  0
  145.1402   71.4791  220.8424 H   0  0  0  0  0  0  0  0  0  0  0  0
  144.0488   71.9310  217.9801 H   0  0  0  0  0  0  0  0  0  0  0  0
  145.7577   72.0825  218.4057 H   0  0  0  0  0  0  0  0  0  0  0  0
  146.8668   70.0848  217.6365 H   0  0  0  0  0  0  0  0  0  0  0  0
  147.0128   67.6017  217.5495 H   0  0  0  0  0  0  0  0  0  0  0  0
  145.1397   66.2643  218.4922 H   0  0  0  0  0  0  0  0  0  0  0  0
  143.1826   67.3623  219.4864 H   0  0  0  0  0  0  0  0  0  0  0  0
  141.9411   70.1880  218.9662 H   0  0  0  0  0  0  0  0  0  0  0  0
  142.2883   69.3885  220.5332 H   0  0  0  0  0  0  0  0  0  0  0  0
  142.7079   76.1492  220.3087 H   0  0  0  0  0  0  0  0  0  0  0  0
  141.5020   75.2466  219.3256 H   0  0  0  0  0  0  0  0  0  0  0  0
  141.4251   77.6909  218.7859 H   0  0  0  0  0  0  0  0  0  0  0  0
  139.9023   77.2012  219.5184 H   0  0  0  0  0  0  0  0  0  0  0  0
  142.0699   79.8364  219.6475 H   0  0  0  0  0  0  0  0  0  0  0  0
  142.4911   81.2826  221.6481 H   0  0  0  0  0  0  0  0  0  0  0  0
  141.9067   80.4573  223.9264 H   0  0  0  0  0  0  0  0  0  0  0  0
  140.9045   78.1936  224.2288 H   0  0  0  0  0  0  0  0  0  0  0  0
  140.4381   76.0296  223.2756 H   0  0  0  0  0  0  0  0  0  0  0  0
  139.2605   76.4255  221.9823 H   0  0  0  0  0  0  0  0  0  0  0  0
  137.9157   71.9451  224.6078 H   0  0  0  0  0  0  0  0  0  0  0  0
  137.9321   71.9342  222.7975 H   0  0  0  0  0  0  0  0  0  0  0  0
  1  2  2  0
  2  3  1  0
  3  4  1  0
  4  5  2  0
  5  6  1  0
  6  7  2  0
  7  8  1  0
  8  9  2  0
  2 10  1  0
 10 11  1  0
 11 12  1  0
 12 13  1  0
 13 14  1  0
 14 15  1  0
 15 16  2  0
 16 17  1  0
 17 18  1  0
 18 19  1  0
 19 20  1  0
 20 21  1  0
 21 22  2  0
 22 23  1  0
 23 24  2  0
 24 25  1  0
 25 26  2  0
 26 27  1  0
 17 28  2  0
 28 29  1  0
 29 30  1  0
 30 31  1  0
 31 32  1  0
 32 33  1  0
 33 34  2  0
 34 35  1  0
 35 36  2  0
 36 37  1  0
 37 38  2  0
 38 39  1  0
 29 40  2  0
 14 41  1  0
  9  4  1  0
 41 10  1  0
 40 15  1  0
 27 18  1  0
 39 30  1  0
 26 21  1  0
 38 33  1  0
  3 42  1  0
  5 43  1  0
  6 44  1  0
  7 45  1  0
  8 46  1  0
  9 47  1  0
 10 48  1  6
 11 49  1  0
 11 50  1  0
 12 51  1  0
 12 52  1  0
 13 53  1  0
 13 54  1  0
 19 55  1  0
 19 56  1  0
 20 57  1  0
 20 58  1  0
 22 59  1  0
 23 60  1  0
 24 61  1  0
 25 62  1  0
 27 63  1  0
 27 64  1  0
 31 65  1  0
 31 66  1  0
 32 67  1  0
 32 68  1  0
 34 69  1  0
 35 70  1  0
 36 71  1  0
 37 72  1  0
 39 73  1  0
 39 74  1  0
 41 75  1  0
 41 76  1  0
M  END
>  <smiles>  (35) 
O=C(Nc1ccccc1)[C@@H]1CCCN(c2nc(N3CCc4ccccc4C3)nc(N3CCc4ccccc4C3)n2)C1

>  <score_type>  (35) 
oracle

>  <origin>  (35) 
autodockgpu

>  <m_score__min__energy>  (35) 
-9.7799999999999994

>  <m_primary>  (35) 
energy

>  <rmsd>  (35) 
11.122558017936617

>  <m_score__min__rmsd>  (35) 
11.122558017936617

>  <meeko>  (35) 
{"free_energy": -9.42, "intermolecular_energy": -10.92, "internal_energy": -1.29, "cluster_size": 19, "cluster_id": 4, "rank_in_cluster": 3}

>  <energy>  (35) 
-9.42

>  <cluster_rmsd>  (35) 
0.23

>  <cluster>  (35) 
4

$$$$

     RDKit          3D

 76 82  0  0  0  0  0  0  0  0999 V2000
  135.5730   68.8960  224.1860 O   0  0  0  0  0  0  0  0  0  0  0  0
  136.2560   69.9710  224.1490 C   0  0  0  0  0  0  0  0  0  0  0  0
  135.5750   71.1400  224.5980 N   0  0  0  0  0  0  0  0  0  0  0  0
  134.2290   71.1250  225.0570 C   0  0  0  0  0  0  0  0  0  0  0  0
  133.1980   70.7460  224.2210 C   0  0  0  0  0  0  0  0  0  0  0  0
  131.9160   70.7510  224.7220 C   0  0  0  0  0  0  0  0  0  0  0  0
  131.6290   71.1200  226.0260 C   0  0  0  0  0  0  0  0  0  0  0  0
  132.6720   71.4900  226.8300 C   0  0  0  0  0  0  0  0  0  0  0  0
  133.9460   71.4900  226.3510 C   0  0  0  0  0  0  0  0  0  0  0  0
  137.6600   69.9970  223.6740 C   0  0  2  0  0  0  0  0  0  0  0  0
  138.4880   68.9890  224.4280 C   0  0  0  0  0  0  0  0  0  0  0  0
  139.4630   69.6000  225.3790 C   0  0  0  0  0  0  0  0  0  0  0  0
  140.3570   70.5810  224.6880 C   0  0  0  0  0  0  0  0  0  0  0  0
  139.6920   71.3650  223.6910 N   0  0  0  0  0  0  0  0  0  0  0  0
  140.4600   72.0790  222.7310 C   0  0  0  0  0  0  0  0  0  0  0  0
  141.3520   71.3970  221.9910 N   0  0  0  0  0  0  0  0  0  0  0  0
  142.1220   71.9900  221.0590 C   0  0  0  0  0  0  0  0  0  0  0  0
  143.0730   71.2530  220.2730 N   0  0  0  0  0  0  0  0  0  0  0  0
  144.3760   71.8640  220.0960 C   0  0  0  0  0  0  0  0  0  0  0  0
  144.7770   71.5620  218.6530 C   0  0  0  0  0  0  0  0  0  0  0  0
  144.9210   70.0700  218.5800 C   0  0  0  0  0  0  0  0  0  0  0  0
  146.0240   69.4680  218.0150 C   0  0  0  0  0  0  0  0  0  0  0  0
  146.1230   68.0950  217.9650 C   0  0  0  0  0  0  0  0  0  0  0  0
  145.0890   67.3510  218.4970 C   0  0  0  0  0  0  0  0  0  0  0  0
  143.9890   67.9590  219.0600 C   0  0  0  0  0  0  0  0  0  0  0  0
  143.8720   69.3420  219.1190 C   0  0  0  0  0  0  0  0  0  0  0  0
  142.6840   69.9940  219.7280 C   0  0  0  0  0  0  0  0  0  0  0  0
  141.9630   73.3280  220.8850 N   0  0  0  0  0  0  0  0  0  0  0  0
  141.0850   74.0530  221.6000 C   0  0  0  0  0  0  0  0  0  0  0  0
  140.9780   75.4490  221.3600 N   0  0  0  0  0  0  0  0  0  0  0  0
  141.5490   75.9480  220.1220 C   0  0  0  0  0  0  0  0  0  0  0  0
  140.8850   77.2790  219.7430 C   0  0  0  0  0  0  0  0  0  0  0  0
  141.2230   78.1980  220.8800 C   0  0  0  0  0  0  0  0  0  0  0  0
  141.7790   79.4430  220.6610 C   0  0  0  0  0  0  0  0  0  0  0  0
  142.0620   80.2340  221.7670 C   0  0  0  0  0  0  0  0  0  0  0  0
  141.7870   79.7660  223.0550 C   0  0  0  0  0  0  0  0  0  0  0  0
  141.2260   78.5050  223.2450 C   0  0  0  0  0  0  0  0  0  0  0  0
  140.9430   77.7170  222.1450 C   0  0  0  0  0  0  0  0  0  0  0  0
  140.3380   76.3470  222.2900 C   0  0  0  0  0  0  0  0  0  0  0  0
  140.3400   73.4030  222.5230 N   0  0  0  0  0  0  0  0  0  0  0  0
  138.2400   71.3950  223.7100 C   0  0  0  0  0  0  0  0  0  0  0  0
  136.0560   72.0640  224.6030 H   0  0  0  0  0  0  0  0  0  0  0  0
  133.3959   70.4476  223.1809 H   0  0  0  0  0  0  0  0  0  0  0  0
  131.0885   70.4508  224.0623 H   0  0  0  0  0  0  0  0  0  0  0  0
  130.5956   71.1156  226.4028 H   0  0  0  0  0  0  0  0  0  0  0  0
  132.4798   71.7896  227.8708 H   0  0  0  0  0  0  0  0  0  0  0  0
  134.7693   71.7896  227.0162 H   0  0  0  0  0  0  0  0  0  0  0  0
  137.6781   69.7000  222.6150 H   0  0  0  0  0  0  0  0  0  0  0  0
  137.8082   68.3390  224.9984 H   0  0  0  0  0  0  0  0  0  0  0  0
  139.0743   68.4335  223.6812 H   0  0  0  0  0  0  0  0  0  0  0  0
  138.9093   70.1193  226.1751 H   0  0  0  0  0  0  0  0  0  0  0  0
  140.0877   68.7974  225.7981 H   0  0  0  0  0  0  0  0  0  0  0  0
  140.7743   71.2625  225.4440 H   0  0  0  0  0  0  0  0  0  0  0  0
  141.1345   69.9984  224.1721 H   0  0  0  0  0  0  0  0  0  0  0  0
  144.3164   72.9502  220.2589 H   0  0  0  0  0  0  0  0  0  0  0  0
  145.1112   71.4717  220.8140 H   0  0  0  0  0  0  0  0  0  0  0  0
  143.9980   71.9074  217.9574 H   0  0  0  0  0  0  0  0  0  0  0  0
  145.7083   72.0758  218.3725 H   0  0  0  0  0  0  0  0  0  0  0  0
  146.8320   70.0887  217.6005 H   0  0  0  0  0  0  0  0  0  0  0  0
  146.9995   67.6062  217.5147 H   0  0  0  0  0  0  0  0  0  0  0  0
  145.1447   66.2527  218.4707 H   0  0  0  0  0  0  0  0  0  0  0  0
  143.1833   67.3343  219.4731 H   0  0  0  0  0  0  0  0  0  0  0  0
  141.9129   70.1477  218.9587 H   0  0  0  0  0  0  0  0  0  0  0  0
  142.2769   69.3542  220.5248 H   0  0  0  0  0  0  0  0  0  0  0  0
  142.6298   76.1038  220.2549 H   0  0  0  0  0  0  0  0  0  0  0  0
  141.3763   75.2146  219.3206 H   0  0  0  0  0  0  0  0  0  0  0  0
  141.2937   77.6630  218.7967 H   0  0  0  0  0  0  0  0  0  0  0  0
  139.8001   77.1795  219.5909 H   0  0  0  0  0  0  0  0  0  0  0  0
  141.9913   79.7975  219.6415 H   0  0  0  0  0  0  0  0  0  0  0  0
  142.5039   81.2318  221.6289 H   0  0  0  0  0  0  0  0  0  0  0  0
  142.0154   80.3984  223.9256 H   0  0  0  0  0  0  0  0  0  0  0  0
  141.0104   78.1401  224.2601 H   0  0  0  0  0  0  0  0  0  0  0  0
  140.4900   75.9837  223.3171 H   0  0  0  0  0  0  0  0  0  0  0  0
  139.2595   76.3933  222.0788 H   0  0  0  0  0  0  0  0  0  0  0  0
  137.9041   71.8987  224.6284 H   0  0  0  0  0  0  0  0  0  0  0  0
  137.8924   71.9380  222.8187 H   0  0  0  0  0  0  0  0  0  0  0  0
  1  2  2  0
  2  3  1  0
  3  4  1  0
  4  5  2  0
  5  6  1  0
  6  7  2  0
  7  8  1  0
  8  9  2  0
  2 10  1  0
 10 11  1  0
 11 12  1  0
 12 13  1  0
 13 14  1  0
 14 15  1  0
 15 16  2  0
 16 17  1  0
 17 18  1  0
 18 19  1  0
 19 20  1  0
 20 21  1  0
 21 22  2  0
 22 23  1  0
 23 24  2  0
 24 25  1  0
 25 26  2  0
 26 27  1  0
 17 28  2  0
 28 29  1  0
 29 30  1  0
 30 31  1  0
 31 32  1  0
 32 33  1  0
 33 34  2  0
 34 35  1  0
 35 36  2  0
 36 37  1  0
 37 38  2  0
 38 39  1  0
 29 40  2  0
 14 41  1  0
  9  4  1  0
 41 10  1  0
 40 15  1  0
 27 18  1  0
 39 30  1  0
 26 21  1  0
 38 33  1  0
  3 42  1  0
  5 43  1  0
  6 44  1  0
  7 45  1  0
  8 46  1  0
  9 47  1  0
 10 48  1  6
 11 49  1  0
 11 50  1  0
 12 51  1  0
 12 52  1  0
 13 53  1  0
 13 54  1  0
 19 55  1  0
 19 56  1  0
 20 57  1  0
 20 58  1  0
 22 59  1  0
 23 60  1  0
 24 61  1  0
 25 62  1  0
 27 63  1  0
 27 64  1  0
 31 65  1  0
 31 66  1  0
 32 67  1  0
 32 68  1  0
 34 69  1  0
 35 70  1  0
 36 71  1  0
 37 72  1  0
 39 73  1  0
 39 74  1  0
 41 75  1  0
 41 76  1  0
M  END
>  <smiles>  (36) 
O=C(Nc1ccccc1)[C@@H]1CCCN(c2nc(N3CCc4ccccc4C3)nc(N3CCc4ccccc4C3)n2)C1

>  <score_type>  (36) 
oracle

>  <origin>  (36) 
autodockgpu

>  <m_score__min__energy>  (36) 
-9.7799999999999994

>  <m_primary>  (36) 
energy

>  <rmsd>  (36) 
11.123748153605

>  <m_score__min__rmsd>  (36) 
11.123748153605

>  <meeko>  (36) 
{"free_energy": -9.44, "intermolecular_energy": -10.93, "internal_energy": -1.29, "cluster_size": 19, "cluster_id": 4, "rank_in_cluster": 2}

>  <energy>  (36) 
-9.41

>  <cluster_rmsd>  (36) 
0.22

>  <cluster>  (36) 
4

$$$$

     RDKit          3D

 76 82  0  0  0  0  0  0  0  0999 V2000
  135.8780   68.9090  222.9410 O   0  0  0  0  0  0  0  0  0  0  0  0
  136.6370   69.3940  223.8420 C   0  0  0  0  0  0  0  0  0  0  0  0
  136.0100   69.6430  225.0970 N   0  0  0  0  0  0  0  0  0  0  0  0
  134.6350   69.3740  225.3440 C   0  0  0  0  0  0  0  0  0  0  0  0
  133.7190   70.4010  225.4450 C   0  0  0  0  0  0  0  0  0  0  0  0
  132.4020   70.0800  225.6830 C   0  0  0  0  0  0  0  0  0  0  0  0
  131.9690   68.7710  225.8240 C   0  0  0  0  0  0  0  0  0  0  0  0
  132.9020   67.7750  225.7180 C   0  0  0  0  0  0  0  0  0  0  0  0
  134.2080   68.0760  225.4820 C   0  0  0  0  0  0  0  0  0  0  0  0
  138.0720   69.6760  223.5960 C   0  0  2  0  0  0  0  0  0  0  0  0
  138.9240   69.0130  224.6470 C   0  0  0  0  0  0  0  0  0  0  0  0
  139.5510   69.9700  225.6070 C   0  0  0  0  0  0  0  0  0  0  0  0
  140.3450   71.0180  224.8910 C   0  0  0  0  0  0  0  0  0  0  0  0
  139.7410   71.4670  223.6720 N   0  0  0  0  0  0  0  0  0  0  0  0
  140.5200   72.1890  222.7270 C   0  0  0  0  0  0  0  0  0  0  0  0
  141.4330   71.5160  222.0040 N   0  0  0  0  0  0  0  0  0  0  0  0
  142.2140   72.1160  221.0860 C   0  0  0  0  0  0  0  0  0  0  0  0
  143.1870   71.3890  220.3190 N   0  0  0  0  0  0  0  0  0  0  0  0
  144.4820   72.0200  220.1530 C   0  0  0  0  0  0  0  0  0  0  0  0
  144.9070   71.7140  218.7190 C   0  0  0  0  0  0  0  0  0  0  0  0
  145.0760   70.2240  218.6600 C   0  0  0  0  0  0  0  0  0  0  0  0
  146.1960   69.6350  218.1130 C   0  0  0  0  0  0  0  0  0  0  0  0
  146.3190   68.2640  218.0770 C   0  0  0  0  0  0  0  0  0  0  0  0
  145.2910   67.5070  218.6010 C   0  0  0  0  0  0  0  0  0  0  0  0
  144.1740   68.1010  219.1460 C   0  0  0  0  0  0  0  0  0  0  0  0
  144.0330   69.4820  219.1910 C   0  0  0  0  0  0  0  0  0  0  0  0
  142.8270   70.1190  219.7800 C   0  0  0  0  0  0  0  0  0  0  0  0
  142.0460   73.4530  220.9090 N   0  0  0  0  0  0  0  0  0  0  0  0
  141.1470   74.1690  221.6080 C   0  0  0  0  0  0  0  0  0  0  0  0
  141.0300   75.5630  221.3650 N   0  0  0  0  0  0  0  0  0  0  0  0
  141.6110   76.0670  220.1340 C   0  0  0  0  0  0  0  0  0  0  0  0
  140.9390   77.3910  219.7460 C   0  0  0  0  0  0  0  0  0  0  0  0
  141.2570   78.3140  220.8860 C   0  0  0  0  0  0  0  0  0  0  0  0
  141.8040   79.5640  220.6720 C   0  0  0  0  0  0  0  0  0  0  0  0
  142.0680   80.3580  221.7800 C   0  0  0  0  0  0  0  0  0  0  0  0
  141.7820   79.8880  223.0660 C   0  0  0  0  0  0  0  0  0  0  0  0
  141.2300   78.6230  223.2510 C   0  0  0  0  0  0  0  0  0  0  0  0
  140.9660   77.8320  222.1480 C   0  0  0  0  0  0  0  0  0  0  0  0
  140.3710   76.4570  222.2870 C   0  0  0  0  0  0  0  0  0  0  0  0
  140.3910   73.5120  222.5160 N   0  0  0  0  0  0  0  0  0  0  0  0
  138.3380   71.1600  223.4570 C   0  0  0  0  0  0  0  0  0  0  0  0
  136.5540   70.0390  225.8920 H   0  0  0  0  0  0  0  0  0  0  0  0
  134.0334   71.4497  225.3380 H   0  0  0  0  0  0  0  0  0  0  0  0
  131.6654   70.8929  225.7644 H   0  0  0  0  0  0  0  0  0  0  0  0
  130.9106   68.5401  226.0148 H   0  0  0  0  0  0  0  0  0  0  0  0
  132.5940   66.7243  225.8243 H   0  0  0  0  0  0  0  0  0  0  0  0
  134.9401   67.2591  225.3997 H   0  0  0  0  0  0  0  0  0  0  0  0
  138.3561   69.2371  222.6282 H   0  0  0  0  0  0  0  0  0  0  0  0
  138.2922   68.3151  225.2160 H   0  0  0  0  0  0  0  0  0  0  0  0
  139.7446   68.5043  224.1199 H   0  0  0  0  0  0  0  0  0  0  0  0
  138.7594   70.4589  226.1938 H   0  0  0  0  0  0  0  0  0  0  0  0
  140.2313   69.4074  226.2632 H   0  0  0  0  0  0  0  0  0  0  0  0
  140.4608   71.8833  225.5602 H   0  0  0  0  0  0  0  0  0  0  0  0
  141.3095   70.5623  224.6225 H   0  0  0  0  0  0  0  0  0  0  0  0
  144.4023   73.1063  220.3063 H   0  0  0  0  0  0  0  0  0  0  0  0
  145.2141   71.6450  220.8833 H   0  0  0  0  0  0  0  0  0  0  0  0
  144.1321   72.0413  218.0102 H   0  0  0  0  0  0  0  0  0  0  0  0
  145.8335   72.2408  218.4468 H   0  0  0  0  0  0  0  0  0  0  0  0
  146.9981   70.2655  217.7019 H   0  0  0  0  0  0  0  0  0  0  0  0
  147.2101   67.7864  217.6435 H   0  0  0  0  0  0  0  0  0  0  0  0
  145.3649   66.4096  218.5832 H   0  0  0  0  0  0  0  0  0  0  0  0
  143.3744   67.4662  219.5555 H   0  0  0  0  0  0  0  0  0  0  0  0
  142.0629   70.2529  219.0001 H   0  0  0  0  0  0  0  0  0  0  0  0
  142.4217   69.4790  220.5776 H   0  0  0  0  0  0  0  0  0  0  0  0
  142.6885   76.2334  220.2801 H   0  0  0  0  0  0  0  0  0  0  0  0
  141.4551   75.3315  219.3310 H   0  0  0  0  0  0  0  0  0  0  0  0
  141.3542   77.7777  218.8036 H   0  0  0  0  0  0  0  0  0  0  0  0
  139.8568   77.2817  219.5820 H   0  0  0  0  0  0  0  0  0  0  0  0
  142.0238   79.9197  219.6546 H   0  0  0  0  0  0  0  0  0  0  0  0
  142.5032   81.3593  221.6461 H   0  0  0  0  0  0  0  0  0  0  0  0
  141.9949   80.5230  223.9386 H   0  0  0  0  0  0  0  0  0  0  0  0
  141.0063   78.2569  224.2639 H   0  0  0  0  0  0  0  0  0  0  0  0
  140.5138   76.0959  223.3162 H   0  0  0  0  0  0  0  0  0  0  0  0
  139.2947   76.4940  222.0628 H   0  0  0  0  0  0  0  0  0  0  0  0
  137.7345   71.7032  224.1991 H   0  0  0  0  0  0  0  0  0  0  0  0
  138.0680   71.4670  222.4358 H   0  0  0  0  0  0  0  0  0  0  0  0
  1  2  2  0
  2  3  1  0
  3  4  1  0
  4  5  2  0
  5  6  1  0
  6  7  2  0
  7  8  1  0
  8  9  2  0
  2 10  1  0
 10 11  1  0
 11 12  1  0
 12 13  1  0
 13 14  1  0
 14 15  1  0
 15 16  2  0
 16 17  1  0
 17 18  1  0
 18 19  1  0
 19 20  1  0
 20 21  1  0
 21 22  2  0
 22 23  1  0
 23 24  2  0
 24 25  1  0
 25 26  2  0
 26 27  1  0
 17 28  2  0
 28 29  1  0
 29 30  1  0
 30 31  1  0
 31 32  1  0
 32 33  1  0
 33 34  2  0
 34 35  1  0
 35 36  2  0
 36 37  1  0
 37 38  2  0
 38 39  1  0
 29 40  2  0
 14 41  1  0
  9  4  1  0
 41 10  1  0
 40 15  1  0
 27 18  1  0
 39 30  1  0
 26 21  1  0
 38 33  1  0
  3 42  1  0
  5 43  1  0
  6 44  1  0
  7 45  1  0
  8 46  1  0
  9 47  1  0
 10 48  1  6
 11 49  1  0
 11 50  1  0
 12 51  1  0
 12 52  1  0
 13 53  1  0
 13 54  1  0
 19 55  1  0
 19 56  1  0
 20 57  1  0
 20 58  1  0
 22 59  1  0
 23 60  1  0
 24 61  1  0
 25 62  1  0
 27 63  1  0
 27 64  1  0
 31 65  1  0
 31 66  1  0
 32 67  1  0
 32 68  1  0
 34 69  1  0
 35 70  1  0
 36 71  1  0
 37 72  1  0
 39 73  1  0
 39 74  1  0
 41 75  1  0
 41 76  1  0
M  END
>  <smiles>  (37) 
O=C(Nc1ccccc1)[C@@H]1CCCN(c2nc(N3CCc4ccccc4C3)nc(N3CCc4ccccc4C3)n2)C1

>  <score_type>  (37) 
oracle

>  <origin>  (37) 
autodockgpu

>  <m_score__min__energy>  (37) 
-9.7799999999999994

>  <m_primary>  (37) 
energy

>  <rmsd>  (37) 
11.842605887480572

>  <m_score__min__rmsd>  (37) 
11.842605887480572

>  <meeko>  (37) 
{"free_energy": -9.39, "intermolecular_energy": -10.89, "internal_energy": -1.35, "cluster_size": 19, "cluster_id": 4, "rank_in_cluster": 14}

>  <energy>  (37) 
-9.41

>  <cluster_rmsd>  (37) 
1.62

>  <cluster>  (37) 
4

$$$$

     RDKit          3D

 76 82  0  0  0  0  0  0  0  0999 V2000
  135.9120   68.8940  222.9580 O   0  0  0  0  0  0  0  0  0  0  0  0
  136.6650   69.3780  223.8650 C   0  0  0  0  0  0  0  0  0  0  0  0
  136.0320   69.6120  225.1200 N   0  0  0  0  0  0  0  0  0  0  0  0
  134.6580   69.3310  225.3600 C   0  0  0  0  0  0  0  0  0  0  0  0
  134.1950   68.0310  225.3950 C   0  0  0  0  0  0  0  0  0  0  0  0
  132.8550   67.8220  225.6330 C   0  0  0  0  0  0  0  0  0  0  0  0
  131.9650   68.8630  225.8370 C   0  0  0  0  0  0  0  0  0  0  0  0
  132.4550   70.1400  225.7970 C   0  0  0  0  0  0  0  0  0  0  0  0
  133.7770   70.3650  225.5640 C   0  0  0  0  0  0  0  0  0  0  0  0
  138.0980   69.6730  223.6260 C   0  0  2  0  0  0  0  0  0  0  0  0
  138.9490   69.0420  224.6960 C   0  0  0  0  0  0  0  0  0  0  0  0
  139.5560   70.0260  225.6420 C   0  0  0  0  0  0  0  0  0  0  0  0
  140.3430   71.0680  224.9120 C   0  0  0  0  0  0  0  0  0  0  0  0
  139.7440   71.4850  223.6800 N   0  0  0  0  0  0  0  0  0  0  0  0
  140.5230   72.1980  222.7260 C   0  0  0  0  0  0  0  0  0  0  0  0
  141.4320   71.5160  222.0060 N   0  0  0  0  0  0  0  0  0  0  0  0
  142.2120   72.1070  221.0820 C   0  0  0  0  0  0  0  0  0  0  0  0
  143.1800   71.3710  220.3180 N   0  0  0  0  0  0  0  0  0  0  0  0
  144.4820   71.9910  220.1560 C   0  0  0  0  0  0  0  0  0  0  0  0
  144.9080   71.6800  218.7220 C   0  0  0  0  0  0  0  0  0  0  0  0
  145.0640   70.1890  218.6640 C   0  0  0  0  0  0  0  0  0  0  0  0
  146.1800   69.5900  218.1200 C   0  0  0  0  0  0  0  0  0  0  0  0
  146.2910   68.2180  218.0840 C   0  0  0  0  0  0  0  0  0  0  0  0
  145.2540   67.4700  218.6050 C   0  0  0  0  0  0  0  0  0  0  0  0
  144.1400   68.0750  219.1460 C   0  0  0  0  0  0  0  0  0  0  0  0
  144.0120   69.4570  219.1910 C   0  0  0  0  0  0  0  0  0  0  0  0
  142.8100   70.1050  219.7760 C   0  0  0  0  0  0  0  0  0  0  0  0
  142.0470   73.4430  220.8950 N   0  0  0  0  0  0  0  0  0  0  0  0
  141.1520   74.1670  221.5900 C   0  0  0  0  0  0  0  0  0  0  0  0
  141.0390   75.5600  221.3370 N   0  0  0  0  0  0  0  0  0  0  0  0
  141.6640   76.0610  220.1270 C   0  0  0  0  0  0  0  0  0  0  0  0
  141.0030   77.3810  219.7080 C   0  0  0  0  0  0  0  0  0  0  0  0
  141.2720   78.3100  220.8560 C   0  0  0  0  0  0  0  0  0  0  0  0
  141.8210   79.5610  220.6580 C   0  0  0  0  0  0  0  0  0  0  0  0
  142.0390   80.3610  221.7720 C   0  0  0  0  0  0  0  0  0  0  0  0
  141.7050   79.8950  223.0480 C   0  0  0  0  0  0  0  0  0  0  0  0
  141.1520   78.6280  223.2160 C   0  0  0  0  0  0  0  0  0  0  0  0
  140.9350   77.8310  222.1080 C   0  0  0  0  0  0  0  0  0  0  0  0
  140.3410   76.4540  222.2300 C   0  0  0  0  0  0  0  0  0  0  0  0
  140.3970   73.5190  222.5060 N   0  0  0  0  0  0  0  0  0  0  0  0
  138.3470   71.1560  223.4590 C   0  0  0  0  0  0  0  0  0  0  0  0
  136.5700   70.0060  225.9200 H   0  0  0  0  0  0  0  0  0  0  0  0
  134.8788   67.1840  225.2369 H   0  0  0  0  0  0  0  0  0  0  0  0
  132.4773   66.7893  225.6622 H   0  0  0  0  0  0  0  0  0  0  0  0
  130.8986   68.6697  226.0251 H   0  0  0  0  0  0  0  0  0  0  0  0
  131.7757   70.9908  225.9543 H   0  0  0  0  0  0  0  0  0  0  0  0
  134.1489   71.3999  225.5384 H   0  0  0  0  0  0  0  0  0  0  0  0
  138.3956   69.2182  222.6697 H   0  0  0  0  0  0  0  0  0  0  0  0
  138.3214   68.3474  225.2736 H   0  0  0  0  0  0  0  0  0  0  0  0
  139.7803   68.5334  224.1858 H   0  0  0  0  0  0  0  0  0  0  0  0
  138.7535   70.5170  226.2119 H   0  0  0  0  0  0  0  0  0  0  0  0
  140.2371   69.4852  226.3156 H   0  0  0  0  0  0  0  0  0  0  0  0
  140.4431   71.9479  225.5646 H   0  0  0  0  0  0  0  0  0  0  0  0
  141.3150   70.6186  224.6605 H   0  0  0  0  0  0  0  0  0  0  0  0
  144.4116   73.0781  220.3087 H   0  0  0  0  0  0  0  0  0  0  0  0
  145.2087   71.6103  220.8888 H   0  0  0  0  0  0  0  0  0  0  0  0
  144.1377   72.0138  218.0113 H   0  0  0  0  0  0  0  0  0  0  0  0
  145.8398   72.1984  218.4518 H   0  0  0  0  0  0  0  0  0  0  0  0
  146.9888   70.2134  217.7111 H   0  0  0  0  0  0  0  0  0  0  0  0
  147.1791   67.7325  217.6532 H   0  0  0  0  0  0  0  0  0  0  0  0
  145.3180   66.3720  218.5880 H   0  0  0  0  0  0  0  0  0  0  0  0
  143.3327   67.4478  219.5520 H   0  0  0  0  0  0  0  0  0  0  0  0
  142.0503   70.2472  218.9932 H   0  0  0  0  0  0  0  0  0  0  0  0
  142.3955   69.4681  220.5713 H   0  0  0  0  0  0  0  0  0  0  0  0
  142.7347   76.2317  220.3129 H   0  0  0  0  0  0  0  0  0  0  0  0
  141.5406   75.3217  219.3219 H   0  0  0  0  0  0  0  0  0  0  0  0
  141.4537   77.7657  218.7813 H   0  0  0  0  0  0  0  0  0  0  0  0
  139.9285   77.2667  219.5021 H   0  0  0  0  0  0  0  0  0  0  0  0
  142.0780   79.9136  219.6482 H   0  0  0  0  0  0  0  0  0  0  0  0
  142.4753   81.3635  221.6508 H   0  0  0  0  0  0  0  0  0  0  0  0
  141.8806   80.5344  223.9257 H   0  0  0  0  0  0  0  0  0  0  0  0
  140.8904   78.2651  224.2209 H   0  0  0  0  0  0  0  0  0  0  0  0
  140.4462   76.0974  223.2653 H   0  0  0  0  0  0  0  0  0  0  0  0
  139.2738   76.4850  221.9654 H   0  0  0  0  0  0  0  0  0  0  0  0
  137.7302   71.7068  224.1844 H   0  0  0  0  0  0  0  0  0  0  0  0
  138.0826   71.4385  222.4293 H   0  0  0  0  0  0  0  0  0  0  0  0
  1  2  2  0
  2  3  1  0
  3  4  1  0
  4  5  2  0
  5  6  1  0
  6  7  2  0
  7  8  1  0
  8  9  2  0
  2 10  1  0
 10 11  1  0
 11 12  1  0
 12 13  1  0
 13 14  1  0
 14 15  1  0
 15 16  2  0
 16 17  1  0
 17 18  1  0
 18 19  1  0
 19 20  1  0
 20 21  1  0
 21 22  2  0
 22 23  1  0
 23 24  2  0
 24 25  1  0
 25 26  2  0
 26 27  1  0
 17 28  2  0
 28 29  1  0
 29 30  1  0
 30 31  1  0
 31 32  1  0
 32 33  1  0
 33 34  2  0
 34 35  1  0
 35 36  2  0
 36 37  1  0
 37 38  2  0
 38 39  1  0
 29 40  2  0
 14 41  1  0
  9  4  1  0
 41 10  1  0
 40 15  1  0
 27 18  1  0
 39 30  1  0
 26 21  1  0
 38 33  1  0
  3 42  1  0
  5 43  1  0
  6 44  1  0
  7 45  1  0
  8 46  1  0
  9 47  1  0
 10 48  1  6
 11 49  1  0
 11 50  1  0
 12 51  1  0
 12 52  1  0
 13 53  1  0
 13 54  1  0
 19 55  1  0
 19 56  1  0
 20 57  1  0
 20 58  1  0
 22 59  1  0
 23 60  1  0
 24 61  1  0
 25 62  1  0
 27 63  1  0
 27 64  1  0
 31 65  1  0
 31 66  1  0
 32 67  1  0
 32 68  1  0
 34 69  1  0
 35 70  1  0
 36 71  1  0
 37 72  1  0
 39 73  1  0
 39 74  1  0
 41 75  1  0
 41 76  1  0
M  END
>  <smiles>  (38) 
O=C(Nc1ccccc1)[C@@H]1CCCN(c2nc(N3CCc4ccccc4C3)nc(N3CCc4ccccc4C3)n2)C1

>  <score_type>  (38) 
oracle

>  <origin>  (38) 
autodockgpu

>  <m_score__min__energy>  (38) 
-9.7799999999999994

>  <m_primary>  (38) 
energy

>  <rmsd>  (38) 
11.903256337349575

>  <m_score__min__rmsd>  (38) 
11.903256337349575

>  <meeko>  (38) 
{"free_energy": -9.4, "intermolecular_energy": -10.89, "internal_energy": -1.35, "cluster_size": 19, "cluster_id": 4, "rank_in_cluster": 11}

>  <energy>  (38) 
-9.4

>  <cluster_rmsd>  (38) 
1.54

>  <cluster>  (38) 
4

$$$$

     RDKit          3D

 76 82  0  0  0  0  0  0  0  0999 V2000
  135.7890   69.0700  222.9560 O   0  0  0  0  0  0  0  0  0  0  0  0
  136.5840   69.4720  223.8670 C   0  0  0  0  0  0  0  0  0  0  0  0
  135.9940   69.6560  225.1510 N   0  0  0  0  0  0  0  0  0  0  0  0
  134.6180   69.4130  225.4150 C   0  0  0  0  0  0  0  0  0  0  0  0
  133.7530   70.4540  225.6880 C   0  0  0  0  0  0  0  0  0  0  0  0
  132.4320   70.1570  225.9330 C   0  0  0  0  0  0  0  0  0  0  0  0
  131.9450   68.8600  225.9170 C   0  0  0  0  0  0  0  0  0  0  0  0
  132.8270   67.8500  225.6420 C   0  0  0  0  0  0  0  0  0  0  0  0
  134.1370   68.1260  225.3960 C   0  0  0  0  0  0  0  0  0  0  0  0
  138.0210   69.7260  223.6040 C   0  0  2  0  0  0  0  0  0  0  0  0
  138.8730   69.0370  224.6370 C   0  0  0  0  0  0  0  0  0  0  0  0
  139.5330   69.9730  225.5960 C   0  0  0  0  0  0  0  0  0  0  0  0
  140.3380   71.0100  224.8770 C   0  0  0  0  0  0  0  0  0  0  0  0
  139.7270   71.4810  223.6710 N   0  0  0  0  0  0  0  0  0  0  0  0
  140.5080   72.1950  222.7200 C   0  0  0  0  0  0  0  0  0  0  0  0
  141.4170   71.5140  222.0000 N   0  0  0  0  0  0  0  0  0  0  0  0
  142.2000   72.1050  221.0780 C   0  0  0  0  0  0  0  0  0  0  0  0
  143.1680   71.3690  220.3140 N   0  0  0  0  0  0  0  0  0  0  0  0
  144.4700   71.9890  220.1530 C   0  0  0  0  0  0  0  0  0  0  0  0
  144.8970   71.6790  218.7200 C   0  0  0  0  0  0  0  0  0  0  0  0
  145.0520   70.1880  218.6600 C   0  0  0  0  0  0  0  0  0  0  0  0
  146.1690   69.5890  218.1170 C   0  0  0  0  0  0  0  0  0  0  0  0
  146.2790   68.2170  218.0790 C   0  0  0  0  0  0  0  0  0  0  0  0
  145.2410   67.4690  218.5990 C   0  0  0  0  0  0  0  0  0  0  0  0
  144.1280   68.0730  219.1400 C   0  0  0  0  0  0  0  0  0  0  0  0
  144.0000   69.4550  219.1860 C   0  0  0  0  0  0  0  0  0  0  0  0
  142.7980   70.1030  219.7710 C   0  0  0  0  0  0  0  0  0  0  0  0
  142.0370   73.4420  220.8940 N   0  0  0  0  0  0  0  0  0  0  0  0
  141.1420   74.1650  221.5890 C   0  0  0  0  0  0  0  0  0  0  0  0
  141.0310   75.5590  221.3390 N   0  0  0  0  0  0  0  0  0  0  0  0
  141.6540   76.0610  220.1270 C   0  0  0  0  0  0  0  0  0  0  0  0
  140.9940   77.3830  219.7130 C   0  0  0  0  0  0  0  0  0  0  0  0
  141.2690   78.3090  220.8610 C   0  0  0  0  0  0  0  0  0  0  0  0
  141.8210   79.5600  220.6630 C   0  0  0  0  0  0  0  0  0  0  0  0
  142.0440   80.3570  221.7780 C   0  0  0  0  0  0  0  0  0  0  0  0
  141.7130   79.8900  223.0540 C   0  0  0  0  0  0  0  0  0  0  0  0
  141.1580   78.6240  223.2220 C   0  0  0  0  0  0  0  0  0  0  0  0
  140.9350   77.8290  222.1130 C   0  0  0  0  0  0  0  0  0  0  0  0
  140.3380   76.4530  222.2350 C   0  0  0  0  0  0  0  0  0  0  0  0
  140.3850   73.5170  222.5020 N   0  0  0  0  0  0  0  0  0  0  0  0
  138.3160   71.2050  223.4720 C   0  0  0  0  0  0  0  0  0  0  0  0
  136.5690   69.9830  225.9560 H   0  0  0  0  0  0  0  0  0  0  0  0
  134.1107   71.4940  225.7091 H   0  0  0  0  0  0  0  0  0  0  0  0
  131.7360   70.9808  226.1498 H   0  0  0  0  0  0  0  0  0  0  0  0
  130.8845   68.6489  226.1187 H   0  0  0  0  0  0  0  0  0  0  0  0
  132.4747   66.8082  225.6196 H   0  0  0  0  0  0  0  0  0  0  0  0
  134.8276   67.2984  225.1766 H   0  0  0  0  0  0  0  0  0  0  0  0
  138.2828   69.2888  222.6292 H   0  0  0  0  0  0  0  0  0  0  0  0
  138.2348   68.3475  225.2090 H   0  0  0  0  0  0  0  0  0  0  0  0
  139.6755   68.5158  224.0944 H   0  0  0  0  0  0  0  0  0  0  0  0
  138.7600   70.4732  226.1979 H   0  0  0  0  0  0  0  0  0  0  0  0
  140.2105   69.3913  226.2383 H   0  0  0  0  0  0  0  0  0  0  0  0
  140.4810   71.8673  225.5513 H   0  0  0  0  0  0  0  0  0  0  0  0
  141.2889   70.5366  224.5911 H   0  0  0  0  0  0  0  0  0  0  0  0
  144.3994   73.0760  220.3062 H   0  0  0  0  0  0  0  0  0  0  0  0
  145.1962   71.6078  220.8860 H   0  0  0  0  0  0  0  0  0  0  0  0
  144.1276   72.0142  218.0089 H   0  0  0  0  0  0  0  0  0  0  0  0
  145.8297   72.1968  218.4517 H   0  0  0  0  0  0  0  0  0  0  0  0
  146.9791   70.2125  217.7108 H   0  0  0  0  0  0  0  0  0  0  0  0
  147.1667   67.7314  217.6475 H   0  0  0  0  0  0  0  0  0  0  0  0
  145.3045   66.3710  218.5807 H   0  0  0  0  0  0  0  0  0  0  0  0
  143.3207   67.4455  219.5456 H   0  0  0  0  0  0  0  0  0  0  0  0
  142.0386   70.2457  218.9881 H   0  0  0  0  0  0  0  0  0  0  0  0
  142.3833   69.4657  220.5659 H   0  0  0  0  0  0  0  0  0  0  0  0
  142.7256   76.2293  220.3098 H   0  0  0  0  0  0  0  0  0  0  0  0
  141.5271   75.3234  219.3209 H   0  0  0  0  0  0  0  0  0  0  0  0
  141.4419   77.7686  218.7852 H   0  0  0  0  0  0  0  0  0  0  0  0
  139.9185   77.2711  219.5111 H   0  0  0  0  0  0  0  0  0  0  0  0
  142.0760   79.9138  219.6531 H   0  0  0  0  0  0  0  0  0  0  0  0
  142.4823   81.3587  221.6573 H   0  0  0  0  0  0  0  0  0  0  0  0
  141.8925   80.5279  223.9320 H   0  0  0  0  0  0  0  0  0  0  0  0
  140.8995   78.2599  224.2273 H   0  0  0  0  0  0  0  0  0  0  0  0
  140.4454   76.0948  223.2695 H   0  0  0  0  0  0  0  0  0  0  0  0
  139.2700   76.4868  221.9737 H   0  0  0  0  0  0  0  0  0  0  0  0
  137.7335   71.7553  224.2256 H   0  0  0  0  0  0  0  0  0  0  0  0
  138.0394   71.5250  222.4566 H   0  0  0  0  0  0  0  0  0  0  0  0
  1  2  2  0
  2  3  1  0
  3  4  1  0
  4  5  2  0
  5  6  1  0
  6  7  2  0
  7  8  1  0
  8  9  2  0
  2 10  1  0
 10 11  1  0
 11 12  1  0
 12 13  1  0
 13 14  1  0
 14 15  1  0
 15 16  2  0
 16 17  1  0
 17 18  1  0
 18 19  1  0
 19 20  1  0
 20 21  1  0
 21 22  2  0
 22 23  1  0
 23 24  2  0
 24 25  1  0
 25 26  2  0
 26 27  1  0
 17 28  2  0
 28 29  1  0
 29 30  1  0
 30 31  1  0
 31 32  1  0
 32 33  1  0
 33 34  2  0
 34 35  1  0
 35 36  2  0
 36 37  1  0
 37 38  2  0
 38 39  1  0
 29 40  2  0
 14 41  1  0
  9  4  1  0
 41 10  1  0
 40 15  1  0
 27 18  1  0
 39 30  1  0
 26 21  1  0
 38 33  1  0
  3 42  1  0
  5 43  1  0
  6 44  1  0
  7 45  1  0
  8 46  1  0
  9 47  1  0
 10 48  1  6
 11 49  1  0
 11 50  1  0
 12 51  1  0
 12 52  1  0
 13 53  1  0
 13 54  1  0
 19 55  1  0
 19 56  1  0
 20 57  1  0
 20 58  1  0
 22 59  1  0
 23 60  1  0
 24 61  1  0
 25 62  1  0
 27 63  1  0
 27 64  1  0
 31 65  1  0
 31 66  1  0
 32 67  1  0
 32 68  1  0
 34 69  1  0
 35 70  1  0
 36 71  1  0
 37 72  1  0
 39 73  1  0
 39 74  1  0
 41 75  1  0
 41 76  1  0
M  END
>  <smiles>  (39) 
O=C(Nc1ccccc1)[C@@H]1CCCN(c2nc(N3CCc4ccccc4C3)nc(N3CCc4ccccc4C3)n2)C1

>  <score_type>  (39) 
oracle

>  <origin>  (39) 
autodockgpu

>  <m_score__min__energy>  (39) 
-9.7799999999999994

>  <m_primary>  (39) 
energy

>  <rmsd>  (39) 
11.82670577011913

>  <m_score__min__rmsd>  (39) 
11.82670577011913

>  <meeko>  (39) 
{"free_energy": -9.4, "intermolecular_energy": -10.9, "internal_energy": -1.35, "cluster_size": 19, "cluster_id": 4, "rank_in_cluster": 7}

>  <energy>  (39) 
-9.4

>  <cluster_rmsd>  (39) 
0.14

>  <cluster>  (39) 
4

$$$$

     RDKit          3D

 76 82  0  0  0  0  0  0  0  0999 V2000
  139.7220   79.3720  224.2600 O   0  0  0  0  0  0  0  0  0  0  0  0
  139.1590   78.9110  223.2130 C   0  0  0  0  0  0  0  0  0  0  0  0
  137.8240   79.3590  222.9940 N   0  0  0  0  0  0  0  0  0  0  0  0
  137.1520   80.2560  223.8700 C   0  0  0  0  0  0  0  0  0  0  0  0
  137.7810   81.3890  224.3440 C   0  0  0  0  0  0  0  0  0  0  0  0
  137.0800   82.2200  225.1880 C   0  0  0  0  0  0  0  0  0  0  0  0
  135.7750   81.9590  225.5740 C   0  0  0  0  0  0  0  0  0  0  0  0
  135.1790   80.8280  225.0870 C   0  0  0  0  0  0  0  0  0  0  0  0
  135.8580   79.9960  224.2510 C   0  0  0  0  0  0  0  0  0  0  0  0
  139.8500   77.9770  222.2930 C   0  0  2  0  0  0  0  0  0  0  0  0
  139.7190   78.4510  220.8690 C   0  0  0  0  0  0  0  0  0  0  0  0
  138.8150   77.6070  220.0330 C   0  0  0  0  0  0  0  0  0  0  0  0
  139.2340   76.1710  220.0560 C   0  0  0  0  0  0  0  0  0  0  0  0
  139.7020   75.7280  221.3360 N   0  0  0  0  0  0  0  0  0  0  0  0
  140.4430   74.5170  221.4320 C   0  0  0  0  0  0  0  0  0  0  0  0
  140.0760   73.6150  222.3590 N   0  0  0  0  0  0  0  0  0  0  0  0
  140.7180   72.4430  222.5210 C   0  0  0  0  0  0  0  0  0  0  0  0
  140.3200   71.4860  223.5160 N   0  0  0  0  0  0  0  0  0  0  0  0
  139.5760   70.3340  223.0430 C   0  0  0  0  0  0  0  0  0  0  0  0
  138.5130   70.0670  224.1070 C   0  0  0  0  0  0  0  0  0  0  0  0
  139.2710   69.6870  225.3450 C   0  0  0  0  0  0  0  0  0  0  0  0
  138.9430   68.5760  226.0920 C   0  0  0  0  0  0  0  0  0  0  0  0
  139.6610   68.2560  227.2220 C   0  0  0  0  0  0  0  0  0  0  0  0
  140.7110   69.0780  227.5780 C   0  0  0  0  0  0  0  0  0  0  0  0
  141.0340   70.1870  226.8270 C   0  0  0  0  0  0  0  0  0  0  0  0
  140.3210   70.5250  225.6850 C   0  0  0  0  0  0  0  0  0  0  0  0
  140.6730   71.7220  224.8770 C   0  0  0  0  0  0  0  0  0  0  0  0
  141.7700   72.1950  221.6970 N   0  0  0  0  0  0  0  0  0  0  0  0
  142.1740   73.0640  220.7550 C   0  0  0  0  0  0  0  0  0  0  0  0
  143.2830   72.7320  219.9330 N   0  0  0  0  0  0  0  0  0  0  0  0
  143.2640   73.2310  218.5700 C   0  0  0  0  0  0  0  0  0  0  0  0
  144.6950   73.2950  218.0200 C   0  0  0  0  0  0  0  0  0  0  0  0
  145.1640   71.8690  218.0440 C   0  0  0  0  0  0  0  0  0  0  0  0
  145.7190   71.2720  216.9290 C   0  0  0  0  0  0  0  0  0  0  0  0
  146.1290   69.9500  217.0340 C   0  0  0  0  0  0  0  0  0  0  0  0
  145.9750   69.2600  218.2410 C   0  0  0  0  0  0  0  0  0  0  0  0
  145.4110   69.8880  219.3490 C   0  0  0  0  0  0  0  0  0  0  0  0
  145.0030   71.2050  219.2460 C   0  0  0  0  0  0  0  0  0  0  0  0
  144.3870   71.9340  220.4090 C   0  0  0  0  0  0  0  0  0  0  0  0
  141.4910   74.2260  220.6400 N   0  0  0  0  0  0  0  0  0  0  0  0
  139.3920   76.5480  222.4930 C   0  0  0  0  0  0  0  0  0  0  0  0
  137.2850   79.0330  222.1640 H   0  0  0  0  0  0  0  0  0  0  0  0
  138.8164   81.6221  224.0547 H   0  0  0  0  0  0  0  0  0  0  0  0
  137.5742   83.1253  225.5705 H   0  0  0  0  0  0  0  0  0  0  0  0
  135.2359   82.6390  226.2499 H   0  0  0  0  0  0  0  0  0  0  0  0
  134.1440   80.5895  225.3731 H   0  0  0  0  0  0  0  0  0  0  0  0
  135.3582   79.0928  223.8709 H   0  0  0  0  0  0  0  0  0  0  0  0
  140.9232   77.9758  222.5342 H   0  0  0  0  0  0  0  0  0  0  0  0
  139.3230   79.4772  220.8803 H   0  0  0  0  0  0  0  0  0  0  0  0
  140.7206   78.3907  220.4182 H   0  0  0  0  0  0  0  0  0  0  0  0
  137.7893   77.6869  220.4222 H   0  0  0  0  0  0  0  0  0  0  0  0
  138.8673   77.9666  218.9948 H   0  0  0  0  0  0  0  0  0  0  0  0
  138.3707   75.5527  219.7688 H   0  0  0  0  0  0  0  0  0  0  0  0
  140.0746   76.0701  219.3538 H   0  0  0  0  0  0  0  0  0  0  0  0
  139.1032   70.5535  222.0743 H   0  0  0  0  0  0  0  0  0  0  0  0
  140.2288   69.4617  222.8917 H   0  0  0  0  0  0  0  0  0  0  0  0
  137.9128   70.9713  224.2861 H   0  0  0  0  0  0  0  0  0  0  0  0
  137.8152   69.2753  223.7968 H   0  0  0  0  0  0  0  0  0  0  0  0
  138.1006   67.9399  225.7826 H   0  0  0  0  0  0  0  0  0  0  0  0
  139.4054   67.3712  227.8235 H   0  0  0  0  0  0  0  0  0  0  0  0
  141.3001   68.8437  228.4769 H   0  0  0  0  0  0  0  0  0  0  0  0
  141.8774   70.8200  227.1400 H   0  0  0  0  0  0  0  0  0  0  0  0
  140.1221   72.5962  225.2542 H   0  0  0  0  0  0  0  0  0  0  0  0
  141.7533   71.9151  224.9517 H   0  0  0  0  0  0  0  0  0  0  0  0
  142.6615   72.5574  217.9429 H   0  0  0  0  0  0  0  0  0  0  0  0
  142.8250   74.2396  218.5585 H   0  0  0  0  0  0  0  0  0  0  0  0
  144.7009   73.6902  216.9935 H   0  0  0  0  0  0  0  0  0  0  0  0
  145.3428   73.9611  218.6087 H   0  0  0  0  0  0  0  0  0  0  0  0
  145.8327   71.8274  215.9863 H   0  0  0  0  0  0  0  0  0  0  0  0
  146.5761   69.4437  216.1658 H   0  0  0  0  0  0  0  0  0  0  0  0
  146.3021   68.2124  218.3158 H   0  0  0  0  0  0  0  0  0  0  0  0
  145.2914   69.3417  220.2962 H   0  0  0  0  0  0  0  0  0  0  0  0
  144.0235   71.2063  221.1495 H   0  0  0  0  0  0  0  0  0  0  0  0
  145.1390   72.5841  220.8800 H   0  0  0  0  0  0  0  0  0  0  0  0
  138.3043   76.5399  222.6568 H   0  0  0  0  0  0  0  0  0  0  0  0
  139.9199   76.1329  223.3642 H   0  0  0  0  0  0  0  0  0  0  0  0
  1  2  2  0
  2  3  1  0
  3  4  1  0
  4  5  2  0
  5  6  1  0
  6  7  2  0
  7  8  1  0
  8  9  2  0
  2 10  1  0
 10 11  1  0
 11 12  1  0
 12 13  1  0
 13 14  1  0
 14 15  1  0
 15 16  2  0
 16 17  1  0
 17 18  1  0
 18 19  1  0
 19 20  1  0
 20 21  1  0
 21 22  2  0
 22 23  1  0
 23 24  2  0
 24 25  1  0
 25 26  2  0
 26 27  1  0
 17 28  2  0
 28 29  1  0
 29 30  1  0
 30 31  1  0
 31 32  1  0
 32 33  1  0
 33 34  2  0
 34 35  1  0
 35 36  2  0
 36 37  1  0
 37 38  2  0
 38 39  1  0
 29 40  2  0
 14 41  1  0
  9  4  1  0
 41 10  1  0
 40 15  1  0
 27 18  1  0
 39 30  1  0
 26 21  1  0
 38 33  1  0
  3 42  1  0
  5 43  1  0
  6 44  1  0
  7 45  1  0
  8 46  1  0
  9 47  1  0
 10 48  1  1
 11 49  1  0
 11 50  1  0
 12 51  1  0
 12 52  1  0
 13 53  1  0
 13 54  1  0
 19 55  1  0
 19 56  1  0
 20 57  1  0
 20 58  1  0
 22 59  1  0
 23 60  1  0
 24 61  1  0
 25 62  1  0
 27 63  1  0
 27 64  1  0
 31 65  1  0
 31 66  1  0
 32 67  1  0
 32 68  1  0
 34 69  1  0
 35 70  1  0
 36 71  1  0
 37 72  1  0
 39 73  1  0
 39 74  1  0
 41 75  1  0
 41 76  1  0
M  END
>  <smiles>  (40) 
O=C(Nc1ccccc1)[C@@H]1CCCN(c2nc(N3CCc4ccccc4C3)nc(N3CCc4ccccc4C3)n2)C1

>  <score_type>  (40) 
oracle

>  <origin>  (40) 
autodockgpu

>  <m_score__min__energy>  (40) 
-9.7799999999999994

>  <m_primary>  (40) 
energy

>  <rmsd>  (40) 
4.534850955107459

>  <m_score__min__rmsd>  (40) 
4.534850955107459

>  <meeko>  (40) 
{"free_energy": -9.34, "intermolecular_energy": -10.83, "internal_energy": -1.26, "cluster_size": 13, "cluster_id": 3, "rank_in_cluster": 8}

>  <energy>  (40) 
-9.4

>  <cluster_rmsd>  (40) 
1.63

>  <cluster>  (40) 
4

$$$$

     RDKit          3D

 76 82  0  0  0  0  0  0  0  0999 V2000
  140.2230   79.6010  223.9210 O   0  0  0  0  0  0  0  0  0  0  0  0
  139.5270   79.2050  222.9300 C   0  0  0  0  0  0  0  0  0  0  0  0
  138.2560   79.8340  222.7880 N   0  0  0  0  0  0  0  0  0  0  0  0
  137.7820   80.8340  223.6810 C   0  0  0  0  0  0  0  0  0  0  0  0
  137.7440   80.6100  225.0420 C   0  0  0  0  0  0  0  0  0  0  0  0
  137.2760   81.6170  225.8570 C   0  0  0  0  0  0  0  0  0  0  0  0
  136.8470   82.8370  225.3590 C   0  0  0  0  0  0  0  0  0  0  0  0
  136.8980   83.0280  224.0050 C   0  0  0  0  0  0  0  0  0  0  0  0
  137.3590   82.0440  223.1860 C   0  0  0  0  0  0  0  0  0  0  0  0
  140.0120   78.1630  221.9920 C   0  0  2  0  0  0  0  0  0  0  0  0
  139.5920   78.4900  220.5830 C   0  0  0  0  0  0  0  0  0  0  0  0
  138.5330   77.5860  220.0440 C   0  0  0  0  0  0  0  0  0  0  0  0
  138.9460   76.1500  220.1350 C   0  0  0  0  0  0  0  0  0  0  0  0
  139.6660   75.8310  221.3310 N   0  0  0  0  0  0  0  0  0  0  0  0
  140.4080   74.6190  221.4020 C   0  0  0  0  0  0  0  0  0  0  0  0
  140.0420   73.6980  222.3110 N   0  0  0  0  0  0  0  0  0  0  0  0
  140.6850   72.5230  222.4480 C   0  0  0  0  0  0  0  0  0  0  0  0
  140.2880   71.5450  223.4220 N   0  0  0  0  0  0  0  0  0  0  0  0
  139.4790   70.4420  222.9380 C   0  0  0  0  0  0  0  0  0  0  0  0
  138.4490   70.1770  224.0330 C   0  0  0  0  0  0  0  0  0  0  0  0
  139.2390   69.7200  225.2250 C   0  0  0  0  0  0  0  0  0  0  0  0
  138.8950   68.5950  225.9430 C   0  0  0  0  0  0  0  0  0  0  0  0
  139.6430   68.2040  227.0310 C   0  0  0  0  0  0  0  0  0  0  0  0
  140.7380   68.9710  227.3740 C   0  0  0  0  0  0  0  0  0  0  0  0
  141.0770   70.0940  226.6520 C   0  0  0  0  0  0  0  0  0  0  0  0
  140.3340   70.5030  225.5530 C   0  0  0  0  0  0  0  0  0  0  0  0
  140.7020   71.7150  224.7760 C   0  0  0  0  0  0  0  0  0  0  0  0
  141.7380   72.2940  221.6200 N   0  0  0  0  0  0  0  0  0  0  0  0
  142.1410   73.1840  220.6960 C   0  0  0  0  0  0  0  0  0  0  0  0
  143.2510   72.8700  219.8680 N   0  0  0  0  0  0  0  0  0  0  0  0
  143.2120   73.3600  218.5020 C   0  0  0  0  0  0  0  0  0  0  0  0
  144.6370   73.4500  217.9410 C   0  0  0  0  0  0  0  0  0  0  0  0
  145.1360   72.0350  217.9710 C   0  0  0  0  0  0  0  0  0  0  0  0
  145.6970   71.4440  216.8560 C   0  0  0  0  0  0  0  0  0  0  0  0
  146.1350   70.1310  216.9660 C   0  0  0  0  0  0  0  0  0  0  0  0
  146.0040   69.4450  218.1780 C   0  0  0  0  0  0  0  0  0  0  0  0
  145.4350   70.0680  219.2860 C   0  0  0  0  0  0  0  0  0  0  0  0
  144.9990   71.3750  219.1780 C   0  0  0  0  0  0  0  0  0  0  0  0
  144.3760   72.0990  220.3410 C   0  0  0  0  0  0  0  0  0  0  0  0
  141.4570   74.3460  220.6050 N   0  0  0  0  0  0  0  0  0  0  0  0
  139.6030   76.7740  222.4330 C   0  0  0  0  0  0  0  0  0  0  0  0
  137.6200   79.5720  222.0070 H   0  0  0  0  0  0  0  0  0  0  0  0
  138.0790   79.6516  225.4654 H   0  0  0  0  0  0  0  0  0  0  0  0
  137.2415   81.4465  226.9432 H   0  0  0  0  0  0  0  0  0  0  0  0
  136.4775   83.6262  226.0303 H   0  0  0  0  0  0  0  0  0  0  0  0
  136.5639   83.9840  223.5755 H   0  0  0  0  0  0  0  0  0  0  0  0
  137.3939   82.2216  222.1010 H   0  0  0  0  0  0  0  0  0  0  0  0
  141.1119   78.1607  222.0069 H   0  0  0  0  0  0  0  0  0  0  0  0
  139.2093   79.5211  220.5658 H   0  0  0  0  0  0  0  0  0  0  0  0
  140.4792   78.3591  219.9460 H   0  0  0  0  0  0  0  0  0  0  0  0
  137.6093   77.7306  220.6236 H   0  0  0  0  0  0  0  0  0  0  0  0
  138.3706   77.8342  218.9848 H   0  0  0  0  0  0  0  0  0  0  0  0
  138.0411   75.5257  220.0979 H   0  0  0  0  0  0  0  0  0  0  0  0
  139.6248   75.9575  219.2911 H   0  0  0  0  0  0  0  0  0  0  0  0
  138.9781   70.7168  221.9980 H   0  0  0  0  0  0  0  0  0  0  0  0
  140.0891   69.5509  222.7288 H   0  0  0  0  0  0  0  0  0  0  0  0
  137.8940   71.0968  224.2694 H   0  0  0  0  0  0  0  0  0  0  0  0
  137.7076   69.4260  223.7226 H   0  0  0  0  0  0  0  0  0  0  0  0
  138.0160   68.0048  225.6446 H   0  0  0  0  0  0  0  0  0  0  0  0
  139.3759   67.3073  227.6094 H   0  0  0  0  0  0  0  0  0  0  0  0
  141.3512   68.6802  228.2397 H   0  0  0  0  0  0  0  0  0  0  0  0
  141.9573   70.6806  226.9534 H   0  0  0  0  0  0  0  0  0  0  0  0
  140.2012   72.5947  225.2066 H   0  0  0  0  0  0  0  0  0  0  0  0
  141.7913   71.8632  224.8145 H   0  0  0  0  0  0  0  0  0  0  0  0
  142.6190   72.6703  217.8835 H   0  0  0  0  0  0  0  0  0  0  0  0
  142.7524   74.3593  218.4877 H   0  0  0  0  0  0  0  0  0  0  0  0
  144.6270   73.8382  216.9118 H   0  0  0  0  0  0  0  0  0  0  0  0
  145.2749   74.1335  218.5205 H   0  0  0  0  0  0  0  0  0  0  0  0
  145.7939   71.9965  215.9098 H   0  0  0  0  0  0  0  0  0  0  0  0
  146.5863   69.6288  216.0976 H   0  0  0  0  0  0  0  0  0  0  0  0
  146.3533   68.4049  218.2566 H   0  0  0  0  0  0  0  0  0  0  0  0
  145.3336   69.5253  220.2374 H   0  0  0  0  0  0  0  0  0  0  0  0
  144.0340   71.3689  221.0893 H   0  0  0  0  0  0  0  0  0  0  0  0
  145.1174   72.7685  220.8016 H   0  0  0  0  0  0  0  0  0  0  0  0
  138.5726   76.8087  222.8165 H   0  0  0  0  0  0  0  0  0  0  0  0
  140.2988   76.4395  223.2166 H   0  0  0  0  0  0  0  0  0  0  0  0
  1  2  2  0
  2  3  1  0
  3  4  1  0
  4  5  2  0
  5  6  1  0
  6  7  2  0
  7  8  1  0
  8  9  2  0
  2 10  1  0
 10 11  1  0
 11 12  1  0
 12 13  1  0
 13 14  1  0
 14 15  1  0
 15 16  2  0
 16 17  1  0
 17 18  1  0
 18 19  1  0
 19 20  1  0
 20 21  1  0
 21 22  2  0
 22 23  1  0
 23 24  2  0
 24 25  1  0
 25 26  2  0
 26 27  1  0
 17 28  2  0
 28 29  1  0
 29 30  1  0
 30 31  1  0
 31 32  1  0
 32 33  1  0
 33 34  2  0
 34 35  1  0
 35 36  2  0
 36 37  1  0
 37 38  2  0
 38 39  1  0
 29 40  2  0
 14 41  1  0
  9  4  1  0
 41 10  1  0
 40 15  1  0
 27 18  1  0
 39 30  1  0
 26 21  1  0
 38 33  1  0
  3 42  1  0
  5 43  1  0
  6 44  1  0
  7 45  1  0
  8 46  1  0
  9 47  1  0
 10 48  1  6
 11 49  1  0
 11 50  1  0
 12 51  1  0
 12 52  1  0
 13 53  1  0
 13 54  1  0
 19 55  1  0
 19 56  1  0
 20 57  1  0
 20 58  1  0
 22 59  1  0
 23 60  1  0
 24 61  1  0
 25 62  1  0
 27 63  1  0
 27 64  1  0
 31 65  1  0
 31 66  1  0
 32 67  1  0
 32 68  1  0
 34 69  1  0
 35 70  1  0
 36 71  1  0
 37 72  1  0
 39 73  1  0
 39 74  1  0
 41 75  1  0
 41 76  1  0
M  END
>  <smiles>  (41) 
O=C(Nc1ccccc1)[C@@H]1CCCN(c2nc(N3CCc4ccccc4C3)nc(N3CCc4ccccc4C3)n2)C1

>  <score_type>  (41) 
oracle

>  <origin>  (41) 
autodockgpu

>  <m_score__min__energy>  (41) 
-9.7799999999999994

>  <m_primary>  (41) 
energy

>  <rmsd>  (41) 
4.1492304928203145

>  <m_score__min__rmsd>  (41) 
4.1492304928203145

>  <meeko>  (41) 
{"free_energy": -9.45, "intermolecular_energy": -10.94, "internal_energy": -1.29, "cluster_size": 13, "cluster_id": 3, "rank_in_cluster": 5}

>  <energy>  (41) 
-9.4

>  <cluster_rmsd>  (41) 
1.55

>  <cluster>  (41) 
4

$$$$

     RDKit          3D

 76 82  0  0  0  0  0  0  0  0999 V2000
  138.5620   69.8780  224.7110 O   0  0  0  0  0  0  0  0  0  0  0  0
  139.4510   70.7440  224.4190 C   0  0  0  0  0  0  0  0  0  0  0  0
  140.6040   70.7380  225.2570 N   0  0  0  0  0  0  0  0  0  0  0  0
  140.7670   69.8360  226.3460 C   0  0  0  0  0  0  0  0  0  0  0  0
  140.8050   68.4730  226.1390 C   0  0  0  0  0  0  0  0  0  0  0  0
  140.9660   67.6510  227.2310 C   0  0  0  0  0  0  0  0  0  0  0  0
  141.0900   68.1430  228.5200 C   0  0  0  0  0  0  0  0  0  0  0  0
  141.0490   69.5000  228.6930 C   0  0  0  0  0  0  0  0  0  0  0  0
  140.8910   70.3270  227.6230 C   0  0  0  0  0  0  0  0  0  0  0  0
  139.2920   71.6870  223.2860 C   0  0  2  0  0  0  0  0  0  0  0  0
  138.2890   71.1540  222.2970 C   0  0  0  0  0  0  0  0  0  0  0  0
  138.8940   70.6990  221.0100 C   0  0  0  0  0  0  0  0  0  0  0  0
  139.7080   71.7840  220.3780 C   0  0  0  0  0  0  0  0  0  0  0  0
  140.4500   72.5710  221.3180 N   0  0  0  0  0  0  0  0  0  0  0  0
  140.9850   73.8250  220.9150 C   0  0  0  0  0  0  0  0  0  0  0  0
  141.8330   73.8540  219.8710 N   0  0  0  0  0  0  0  0  0  0  0  0
  142.3870   74.9950  219.4200 C   0  0  0  0  0  0  0  0  0  0  0  0
  143.2920   75.0150  218.3050 N   0  0  0  0  0  0  0  0  0  0  0  0
  143.3930   76.2660  217.5780 C   0  0  0  0  0  0  0  0  0  0  0  0
  143.5060   75.8760  216.1050 C   0  0  0  0  0  0  0  0  0  0  0  0
  144.8040   75.1320  215.9850 C   0  0  0  0  0  0  0  0  0  0  0  0
  145.7250   75.4200  215.0010 C   0  0  0  0  0  0  0  0  0  0  0  0
  146.9070   74.7180  214.9210 C   0  0  0  0  0  0  0  0  0  0  0  0
  147.1340   73.7240  215.8520 C   0  0  0  0  0  0  0  0  0  0  0  0
  146.2100   73.4400  216.8330 C   0  0  0  0  0  0  0  0  0  0  0  0
  145.0130   74.1380  216.9280 C   0  0  0  0  0  0  0  0  0  0  0  0
  144.0190   73.8290  217.9880 C   0  0  0  0  0  0  0  0  0  0  0  0
  142.0530   76.1420  220.0670 N   0  0  0  0  0  0  0  0  0  0  0  0
  141.2100   76.1650  221.1150 C   0  0  0  0  0  0  0  0  0  0  0  0
  140.9110   77.4050  221.7380 N   0  0  0  0  0  0  0  0  0  0  0  0
  140.1260   78.3550  220.9700 C   0  0  0  0  0  0  0  0  0  0  0  0
  139.4250   79.3360  221.9180 C   0  0  0  0  0  0  0  0  0  0  0  0
  140.5500   80.0390  222.6200 C   0  0  0  0  0  0  0  0  0  0  0  0
  140.6110   81.4180  222.6850 C   0  0  0  0  0  0  0  0  0  0  0  0
  141.6840   81.9920  223.3530 C   0  0  0  0  0  0  0  0  0  0  0  0
  142.6630   81.1810  223.9380 C   0  0  0  0  0  0  0  0  0  0  0  0
  142.5740   79.7940  223.8570 C   0  0  0  0  0  0  0  0  0  0  0  0
  141.5060   79.2210  223.1910 C   0  0  0  0  0  0  0  0  0  0  0  0
  141.3580   77.7290  223.0720 C   0  0  0  0  0  0  0  0  0  0  0  0
  140.6860   74.9880  221.5230 N   0  0  0  0  0  0  0  0  0  0  0  0
  140.6230   72.0410  222.6580 C   0  0  0  0  0  0  0  0  0  0  0  0
  141.3820   71.4110  225.0930 H   0  0  0  0  0  0  0  0  0  0  0  0
  140.7090   68.0535  225.1267 H   0  0  0  0  0  0  0  0  0  0  0  0
  140.9974   66.5627  227.0744 H   0  0  0  0  0  0  0  0  0  0  0  0
  141.2173   67.4650  229.3768 H   0  0  0  0  0  0  0  0  0  0  0  0
  141.1443   69.9253  229.7030 H   0  0  0  0  0  0  0  0  0  0  0  0
  140.8620   71.4146  227.7850 H   0  0  0  0  0  0  0  0  0  0  0  0
  138.8899   72.6355  223.6716 H   0  0  0  0  0  0  0  0  0  0  0  0
  137.7689   70.3005  222.7565 H   0  0  0  0  0  0  0  0  0  0  0  0
  137.6069   71.9824  222.0549 H   0  0  0  0  0  0  0  0  0  0  0  0
  139.5425   69.8323  221.2056 H   0  0  0  0  0  0  0  0  0  0  0  0
  138.0806   70.4289  220.3205 H   0  0  0  0  0  0  0  0  0  0  0  0
  140.4175   71.3215  219.6761 H   0  0  0  0  0  0  0  0  0  0  0  0
  139.0030   72.4633  219.8765 H   0  0  0  0  0  0  0  0  0  0  0  0
  142.4963   76.8808  217.7449 H   0  0  0  0  0  0  0  0  0  0  0  0
  144.2567   76.8612  217.9093 H   0  0  0  0  0  0  0  0  0  0  0  0
  142.6646   75.2306  215.8127 H   0  0  0  0  0  0  0  0  0  0  0  0
  143.4784   76.7568  215.4466 H   0  0  0  0  0  0  0  0  0  0  0  0
  145.5141   76.2175  214.2733 H   0  0  0  0  0  0  0  0  0  0  0  0
  147.6477   74.9423  214.1393 H   0  0  0  0  0  0  0  0  0  0  0  0
  148.0703   73.1482  215.8094 H   0  0  0  0  0  0  0  0  0  0  0  0
  146.4251   72.6415  217.5584 H   0  0  0  0  0  0  0  0  0  0  0  0
  143.3242   73.0561  217.6277 H   0  0  0  0  0  0  0  0  0  0  0  0
  144.5366   73.4600  218.8858 H   0  0  0  0  0  0  0  0  0  0  0  0
  140.7888   78.9128  220.2920 H   0  0  0  0  0  0  0  0  0  0  0  0
  139.3693   77.8119  220.3848 H   0  0  0  0  0  0  0  0  0  0  0  0
  138.8099   80.0519  221.3531 H   0  0  0  0  0  0  0  0  0  0  0  0
  138.7429   78.8306  222.6175 H   0  0  0  0  0  0  0  0  0  0  0  0
  139.8328   82.0420  222.2214 H   0  0  0  0  0  0  0  0  0  0  0  0
  141.7649   83.0868  223.4226 H   0  0  0  0  0  0  0  0  0  0  0  0
  143.5099   81.6433  224.4663 H   0  0  0  0  0  0  0  0  0  0  0  0
  143.3456   79.1601  224.3182 H   0  0  0  0  0  0  0  0  0  0  0  0
  142.3276   77.2460  223.2634 H   0  0  0  0  0  0  0  0  0  0  0  0
  140.6234   77.3690  223.8074 H   0  0  0  0  0  0  0  0  0  0  0  0
  141.2472   71.1367  222.6077 H   0  0  0  0  0  0  0  0  0  0  0  0
  141.1044   72.8125  223.2768 H   0  0  0  0  0  0  0  0  0  0  0  0
  1  2  2  0
  2  3  1  0
  3  4  1  0
  4  5  2  0
  5  6  1  0
  6  7  2  0
  7  8  1  0
  8  9  2  0
  2 10  1  0
 10 11  1  0
 11 12  1  0
 12 13  1  0
 13 14  1  0
 14 15  1  0
 15 16  2  0
 16 17  1  0
 17 18  1  0
 18 19  1  0
 19 20  1  0
 20 21  1  0
 21 22  2  0
 22 23  1  0
 23 24  2  0
 24 25  1  0
 25 26  2  0
 26 27  1  0
 17 28  2  0
 28 29  1  0
 29 30  1  0
 30 31  1  0
 31 32  1  0
 32 33  1  0
 33 34  2  0
 34 35  1  0
 35 36  2  0
 36 37  1  0
 37 38  2  0
 38 39  1  0
 29 40  2  0
 14 41  1  0
  9  4  1  0
 41 10  1  0
 40 15  1  0
 27 18  1  0
 39 30  1  0
 26 21  1  0
 38 33  1  0
  3 42  1  0
  5 43  1  0
  6 44  1  0
  7 45  1  0
  8 46  1  0
  9 47  1  0
 10 48  1  1
 11 49  1  0
 11 50  1  0
 12 51  1  0
 12 52  1  0
 13 53  1  0
 13 54  1  0
 19 55  1  0
 19 56  1  0
 20 57  1  0
 20 58  1  0
 22 59  1  0
 23 60  1  0
 24 61  1  0
 25 62  1  0
 27 63  1  0
 27 64  1  0
 31 65  1  0
 31 66  1  0
 32 67  1  0
 32 68  1  0
 34 69  1  0
 35 70  1  0
 36 71  1  0
 37 72  1  0
 39 73  1  0
 39 74  1  0
 41 75  1  0
 41 76  1  0
M  END
>  <smiles>  (42) 
O=C(Nc1ccccc1)[C@@H]1CCCN(c2nc(N3CCc4ccccc4C3)nc(N3CCc4ccccc4C3)n2)C1

>  <score_type>  (42) 
oracle

>  <origin>  (42) 
autodockgpu

>  <m_score__min__energy>  (42) 
-9.7799999999999994

>  <m_primary>  (42) 
energy

>  <rmsd>  (42) 
10.381742067742005

>  <m_score__min__rmsd>  (42) 
10.381742067742005

>  <meeko>  (42) 
{"free_energy": -9.65, "intermolecular_energy": -11.14, "internal_energy": -1.26, "cluster_size": 15, "cluster_id": 1, "rank_in_cluster": 6}

>  <energy>  (42) 
-9.4

>  <cluster_rmsd>  (42) 
1.57

>  <cluster>  (42) 
4

$$$$

     RDKit          3D

 76 82  0  0  0  0  0  0  0  0999 V2000
  135.8680   68.9780  222.9670 O   0  0  0  0  0  0  0  0  0  0  0  0
  136.6400   69.4280  223.8760 C   0  0  0  0  0  0  0  0  0  0  0  0
  136.0250   69.6440  225.1430 N   0  0  0  0  0  0  0  0  0  0  0  0
  134.6490   69.3810  225.3930 C   0  0  0  0  0  0  0  0  0  0  0  0
  134.1740   68.0870  225.4560 C   0  0  0  0  0  0  0  0  0  0  0  0
  132.8330   67.8950  225.7020 C   0  0  0  0  0  0  0  0  0  0  0  0
  131.9530   68.9480  225.8870 C   0  0  0  0  0  0  0  0  0  0  0  0
  132.4550   70.2200  225.8190 C   0  0  0  0  0  0  0  0  0  0  0  0
  133.7780   70.4270  225.5770 C   0  0  0  0  0  0  0  0  0  0  0  0
  138.0750   69.7040  223.6270 C   0  0  2  0  0  0  0  0  0  0  0  0
  138.9250   69.0560  224.6880 C   0  0  0  0  0  0  0  0  0  0  0  0
  139.5530   70.0270  225.6330 C   0  0  0  0  0  0  0  0  0  0  0  0
  140.3490   71.0620  224.9020 C   0  0  0  0  0  0  0  0  0  0  0  0
  139.7460   71.4930  223.6760 N   0  0  0  0  0  0  0  0  0  0  0  0
  140.5280   72.1990  222.7200 C   0  0  0  0  0  0  0  0  0  0  0  0
  141.4400   71.5140  222.0090 N   0  0  0  0  0  0  0  0  0  0  0  0
  142.2230   72.0990  221.0830 C   0  0  0  0  0  0  0  0  0  0  0  0
  143.1960   71.3580  220.3280 N   0  0  0  0  0  0  0  0  0  0  0  0
  144.4950   71.9810  220.1610 C   0  0  0  0  0  0  0  0  0  0  0  0
  144.9240   71.6570  218.7320 C   0  0  0  0  0  0  0  0  0  0  0  0
  145.0870   70.1650  218.6900 C   0  0  0  0  0  0  0  0  0  0  0  0
  146.2060   69.5650  218.1560 C   0  0  0  0  0  0  0  0  0  0  0  0
  146.3220   68.1930  218.1350 C   0  0  0  0  0  0  0  0  0  0  0  0
  145.2880   67.4470  218.6630 C   0  0  0  0  0  0  0  0  0  0  0  0
  144.1710   68.0530  219.1960 C   0  0  0  0  0  0  0  0  0  0  0  0
  144.0370   69.4350  219.2250 C   0  0  0  0  0  0  0  0  0  0  0  0
  142.8310   70.0840  219.8010 C   0  0  0  0  0  0  0  0  0  0  0  0
  142.0560   73.4330  220.8850 N   0  0  0  0  0  0  0  0  0  0  0  0
  141.1570   74.1600  221.5710 C   0  0  0  0  0  0  0  0  0  0  0  0
  141.0430   75.5510  221.3060 N   0  0  0  0  0  0  0  0  0  0  0  0
  141.6700   76.0430  220.0930 C   0  0  0  0  0  0  0  0  0  0  0  0
  141.0080   77.3580  219.6620 C   0  0  0  0  0  0  0  0  0  0  0  0
  141.2730   78.2970  220.8030 C   0  0  0  0  0  0  0  0  0  0  0  0
  141.8210   79.5480  220.5950 C   0  0  0  0  0  0  0  0  0  0  0  0
  142.0360   80.3570  221.7030 C   0  0  0  0  0  0  0  0  0  0  0  0
  141.7000   79.9010  222.9820 C   0  0  0  0  0  0  0  0  0  0  0  0
  141.1480   78.6350  223.1600 C   0  0  0  0  0  0  0  0  0  0  0  0
  140.9340   77.8280  222.0580 C   0  0  0  0  0  0  0  0  0  0  0  0
  140.3420   76.4520  222.1900 C   0  0  0  0  0  0  0  0  0  0  0  0
  140.4000   73.5190  222.4890 N   0  0  0  0  0  0  0  0  0  0  0  0
  138.3430   71.1850  223.4650 C   0  0  0  0  0  0  0  0  0  0  0  0
  136.5790   70.0110  225.9450 H   0  0  0  0  0  0  0  0  0  0  0  0
  134.8495   67.2307  225.3133 H   0  0  0  0  0  0  0  0  0  0  0  0
  132.4462   66.8665  225.7535 H   0  0  0  0  0  0  0  0  0  0  0  0
  130.8855   68.7684  226.0822 H   0  0  0  0  0  0  0  0  0  0  0  0
  131.7844   71.0803  225.9609 H   0  0  0  0  0  0  0  0  0  0  0  0
  134.1594   71.4576  225.5275 H   0  0  0  0  0  0  0  0  0  0  0  0
  138.3594   69.2498  222.6664 H   0  0  0  0  0  0  0  0  0  0  0  0
  138.2918   68.3681  225.2675 H   0  0  0  0  0  0  0  0  0  0  0  0
  139.7449   68.5375  224.1694 H   0  0  0  0  0  0  0  0  0  0  0  0
  138.7618   70.5264  226.2115 H   0  0  0  0  0  0  0  0  0  0  0  0
  140.2321   69.4735  226.2982 H   0  0  0  0  0  0  0  0  0  0  0  0
  140.4660   71.9373  225.5579 H   0  0  0  0  0  0  0  0  0  0  0  0
  141.3130   70.6009  224.6412 H   0  0  0  0  0  0  0  0  0  0  0  0
  144.4201   73.0693  220.3022 H   0  0  0  0  0  0  0  0  0  0  0  0
  145.2223   71.6108  220.8986 H   0  0  0  0  0  0  0  0  0  0  0  0
  144.1531   71.9797  218.0168 H   0  0  0  0  0  0  0  0  0  0  0  0
  145.8538   72.1767  218.4575 H   0  0  0  0  0  0  0  0  0  0  0  0
  147.0137   70.1870  217.7429 H   0  0  0  0  0  0  0  0  0  0  0  0
  147.2122   67.7062  217.7101 H   0  0  0  0  0  0  0  0  0  0  0  0
  145.3566   66.3492  218.6583 H   0  0  0  0  0  0  0  0  0  0  0  0
  143.3661   67.4270  219.6085 H   0  0  0  0  0  0  0  0  0  0  0  0
  142.0715   70.2136  219.0159 H   0  0  0  0  0  0  0  0  0  0  0  0
  142.4177   69.4547  220.6030 H   0  0  0  0  0  0  0  0  0  0  0  0
  142.7400   76.2169  220.2798 H   0  0  0  0  0  0  0  0  0  0  0  0
  141.5496   75.2969  219.2937 H   0  0  0  0  0  0  0  0  0  0  0  0
  141.4601   77.7359  218.7331 H   0  0  0  0  0  0  0  0  0  0  0  0
  139.9341   77.2402  219.4549 H   0  0  0  0  0  0  0  0  0  0  0  0
  142.0791   79.8927  219.5828 H   0  0  0  0  0  0  0  0  0  0  0  0
  142.4716   81.3589  221.5746 H   0  0  0  0  0  0  0  0  0  0  0  0
  141.8733   80.5480  223.8546 H   0  0  0  0  0  0  0  0  0  0  0  0
  140.8848   78.2805  224.1675 H   0  0  0  0  0  0  0  0  0  0  0  0
  140.4454   76.1043  223.2285 H   0  0  0  0  0  0  0  0  0  0  0  0
  139.2754   76.4795  221.9225 H   0  0  0  0  0  0  0  0  0  0  0  0
  137.7399   71.7406  224.1982 H   0  0  0  0  0  0  0  0  0  0  0  0
  138.0739   71.4765  222.4390 H   0  0  0  0  0  0  0  0  0  0  0  0
  1  2  2  0
  2  3  1  0
  3  4  1  0
  4  5  2  0
  5  6  1  0
  6  7  2  0
  7  8  1  0
  8  9  2  0
  2 10  1  0
 10 11  1  0
 11 12  1  0
 12 13  1  0
 13 14  1  0
 14 15  1  0
 15 16  2  0
 16 17  1  0
 17 18  1  0
 18 19  1  0
 19 20  1  0
 20 21  1  0
 21 22  2  0
 22 23  1  0
 23 24  2  0
 24 25  1  0
 25 26  2  0
 26 27  1  0
 17 28  2  0
 28 29  1  0
 29 30  1  0
 30 31  1  0
 31 32  1  0
 32 33  1  0
 33 34  2  0
 34 35  1  0
 35 36  2  0
 36 37  1  0
 37 38  2  0
 38 39  1  0
 29 40  2  0
 14 41  1  0
  9  4  1  0
 41 10  1  0
 40 15  1  0
 27 18  1  0
 39 30  1  0
 26 21  1  0
 38 33  1  0
  3 42  1  0
  5 43  1  0
  6 44  1  0
  7 45  1  0
  8 46  1  0
  9 47  1  0
 10 48  1  6
 11 49  1  0
 11 50  1  0
 12 51  1  0
 12 52  1  0
 13 53  1  0
 13 54  1  0
 19 55  1  0
 19 56  1  0
 20 57  1  0
 20 58  1  0
 22 59  1  0
 23 60  1  0
 24 61  1  0
 25 62  1  0
 27 63  1  0
 27 64  1  0
 31 65  1  0
 31 66  1  0
 32 67  1  0
 32 68  1  0
 34 69  1  0
 35 70  1  0
 36 71  1  0
 37 72  1  0
 39 73  1  0
 39 74  1  0
 41 75  1  0
 41 76  1  0
M  END
>  <smiles>  (43) 
O=C(Nc1ccccc1)[C@@H]1CCCN(c2nc(N3CCc4ccccc4C3)nc(N3CCc4ccccc4C3)n2)C1

>  <score_type>  (43) 
oracle

>  <origin>  (43) 
autodockgpu

>  <m_score__min__energy>  (43) 
-9.7799999999999994

>  <m_primary>  (43) 
energy

>  <rmsd>  (43) 
11.877617668350554

>  <m_score__min__rmsd>  (43) 
11.877617668350554

>  <meeko>  (43) 
{"free_energy": -9.4, "intermolecular_energy": -10.89, "internal_energy": -1.35, "cluster_size": 19, "cluster_id": 4, "rank_in_cluster": 10}

>  <energy>  (43) 
-9.4

>  <cluster_rmsd>  (43) 
1.64

>  <cluster>  (43) 
4

$$$$

     RDKit          3D

 76 82  0  0  0  0  0  0  0  0999 V2000
  138.1190   69.8690  224.9150 O   0  0  0  0  0  0  0  0  0  0  0  0
  139.1160   70.5540  224.5130 C   0  0  0  0  0  0  0  0  0  0  0  0
  140.2870   70.4560  225.3200 N   0  0  0  0  0  0  0  0  0  0  0  0
  140.3550   69.6560  226.4940 C   0  0  0  0  0  0  0  0  0  0  0  0
  141.1200   68.5080  226.5270 C   0  0  0  0  0  0  0  0  0  0  0  0
  141.1480   67.7760  227.6930 C   0  0  0  0  0  0  0  0  0  0  0  0
  140.4390   68.1490  228.8230 C   0  0  0  0  0  0  0  0  0  0  0  0
  139.6900   69.2920  228.7580 C   0  0  0  0  0  0  0  0  0  0  0  0
  139.6520   70.0290  227.6140 C   0  0  0  0  0  0  0  0  0  0  0  0
  139.0570   71.3900  223.2900 C   0  0  2  0  0  0  0  0  0  0  0  0
  138.2860   70.6810  222.2070 C   0  0  0  0  0  0  0  0  0  0  0  0
  139.1360   70.2030  221.0760 C   0  0  0  0  0  0  0  0  0  0  0  0
  139.9350   71.3220  220.4850 C   0  0  0  0  0  0  0  0  0  0  0  0
  140.4330   72.2510  221.4560 N   0  0  0  0  0  0  0  0  0  0  0  0
  140.9040   73.5240  221.0320 C   0  0  0  0  0  0  0  0  0  0  0  0
  141.6980   73.5840  219.9490 N   0  0  0  0  0  0  0  0  0  0  0  0
  142.1900   74.7440  219.4760 C   0  0  0  0  0  0  0  0  0  0  0  0
  143.0380   74.7980  218.3170 N   0  0  0  0  0  0  0  0  0  0  0  0
  143.4860   73.5250  217.7850 C   0  0  0  0  0  0  0  0  0  0  0  0
  144.9350   73.7470  217.3560 C   0  0  0  0  0  0  0  0  0  0  0  0
  144.8750   74.7510  216.2420 C   0  0  0  0  0  0  0  0  0  0  0  0
  145.5450   74.5660  215.0520 C   0  0  0  0  0  0  0  0  0  0  0  0
  145.4670   75.5070  214.0510 C   0  0  0  0  0  0  0  0  0  0  0  0
  144.7010   76.6330  214.2780 C   0  0  0  0  0  0  0  0  0  0  0  0
  144.0330   76.8130  215.4700 C   0  0  0  0  0  0  0  0  0  0  0  0
  144.1010   75.8740  216.4900 C   0  0  0  0  0  0  0  0  0  0  0  0
  143.3790   76.0720  217.7740 C   0  0  0  0  0  0  0  0  0  0  0  0
  141.8500   75.8780  220.1430 N   0  0  0  0  0  0  0  0  0  0  0  0
  141.0590   75.8690  221.2300 C   0  0  0  0  0  0  0  0  0  0  0  0
  140.7490   77.0970  221.8730 N   0  0  0  0  0  0  0  0  0  0  0  0
  139.7270   77.9220  221.2550 C   0  0  0  0  0  0  0  0  0  0  0  0
  139.1170   78.8650  222.3010 C   0  0  0  0  0  0  0  0  0  0  0  0
  140.2700   79.7140  222.7500 C   0  0  0  0  0  0  0  0  0  0  0  0
  140.1870   81.0930  222.7700 C   0  0  0  0  0  0  0  0  0  0  0  0
  141.2980   81.8070  223.1990 C   0  0  0  0  0  0  0  0  0  0  0  0
  142.4570   81.1320  223.5950 C   0  0  0  0  0  0  0  0  0  0  0  0
  142.5120   79.7410  223.5640 C   0  0  0  0  0  0  0  0  0  0  0  0
  141.4060   79.0290  223.1380 C   0  0  0  0  0  0  0  0  0  0  0  0
  141.4080   77.5250  223.0830 C   0  0  0  0  0  0  0  0  0  0  0  0
  140.5960   74.6740  221.6590 N   0  0  0  0  0  0  0  0  0  0  0  0
  140.4320   71.8410  222.8490 C   0  0  0  0  0  0  0  0  0  0  0  0
  141.1500   70.9820  225.0670 H   0  0  0  0  0  0  0  0  0  0  0  0
  141.6926   68.1860  225.6447 H   0  0  0  0  0  0  0  0  0  0  0  0
  141.7565   66.8603  227.7284 H   0  0  0  0  0  0  0  0  0  0  0  0
  140.4769   67.5461  229.7423 H   0  0  0  0  0  0  0  0  0  0  0  0
  139.1142   69.6180  229.6367 H   0  0  0  0  0  0  0  0  0  0  0  0
  139.0438   70.9452  227.5856 H   0  0  0  0  0  0  0  0  0  0  0  0
  138.5083   72.3145  223.5228 H   0  0  0  0  0  0  0  0  0  0  0  0
  137.7814   69.8113  222.6532 H   0  0  0  0  0  0  0  0  0  0  0  0
  137.5769   71.4105  221.7887 H   0  0  0  0  0  0  0  0  0  0  0  0
  139.8237   69.4288  221.4470 H   0  0  0  0  0  0  0  0  0  0  0  0
  138.4772   69.7965  220.2945 H   0  0  0  0  0  0  0  0  0  0  0  0
  140.7915   70.8902  219.9465 H   0  0  0  0  0  0  0  0  0  0  0  0
  139.2604   71.8824  219.8210 H   0  0  0  0  0  0  0  0  0  0  0  0
  143.4296   72.7444  218.5580 H   0  0  0  0  0  0  0  0  0  0  0  0
  142.8591   73.1913  216.9450 H   0  0  0  0  0  0  0  0  0  0  0  0
  145.5284   74.1391  218.1951 H   0  0  0  0  0  0  0  0  0  0  0  0
  145.4133   72.8099  217.0350 H   0  0  0  0  0  0  0  0  0  0  0  0
  146.1474   73.6581  214.9010 H   0  0  0  0  0  0  0  0  0  0  0  0
  145.9990   75.3663  213.0985 H   0  0  0  0  0  0  0  0  0  0  0  0
  144.6225   77.4001  213.4935 H   0  0  0  0  0  0  0  0  0  0  0  0
  143.4317   77.7224  215.6165 H   0  0  0  0  0  0  0  0  0  0  0  0
  144.0254   76.6130  218.4808 H   0  0  0  0  0  0  0  0  0  0  0  0
  142.4646   76.6580  217.5993 H   0  0  0  0  0  0  0  0  0  0  0  0
  140.1772   78.5162  220.4461 H   0  0  0  0  0  0  0  0  0  0  0  0
  138.9374   77.2753  220.8447 H   0  0  0  0  0  0  0  0  0  0  0  0
  138.3271   79.4856  221.8529 H   0  0  0  0  0  0  0  0  0  0  0  0
  138.6453   78.3218  223.1331 H   0  0  0  0  0  0  0  0  0  0  0  0
  139.2683   81.6098  222.4555 H   0  0  0  0  0  0  0  0  0  0  0  0
  141.2664   82.9062  223.2274 H   0  0  0  0  0  0  0  0  0  0  0  0
  143.3328   81.7049  223.9339 H   0  0  0  0  0  0  0  0  0  0  0  0
  143.4260   79.2140  223.8752 H   0  0  0  0  0  0  0  0  0  0  0  0
  142.4448   77.1574  223.0878 H   0  0  0  0  0  0  0  0  0  0  0  0
  140.8770   77.1210  223.9575 H   0  0  0  0  0  0  0  0  0  0  0  0
  141.1401   71.0091  222.9779 H   0  0  0  0  0  0  0  0  0  0  0  0
  140.7276   72.7036  223.4643 H   0  0  0  0  0  0  0  0  0  0  0  0
  1  2  2  0
  2  3  1  0
  3  4  1  0
  4  5  2  0
  5  6  1  0
  6  7  2  0
  7  8  1  0
  8  9  2  0
  2 10  1  0
 10 11  1  0
 11 12  1  0
 12 13  1  0
 13 14  1  0
 14 15  1  0
 15 16  2  0
 16 17  1  0
 17 18  1  0
 18 19  1  0
 19 20  1  0
 20 21  1  0
 21 22  2  0
 22 23  1  0
 23 24  2  0
 24 25  1  0
 25 26  2  0
 26 27  1  0
 17 28  2  0
 28 29  1  0
 29 30  1  0
 30 31  1  0
 31 32  1  0
 32 33  1  0
 33 34  2  0
 34 35  1  0
 35 36  2  0
 36 37  1  0
 37 38  2  0
 38 39  1  0
 29 40  2  0
 14 41  1  0
  9  4  1  0
 41 10  1  0
 40 15  1  0
 27 18  1  0
 39 30  1  0
 26 21  1  0
 38 33  1  0
  3 42  1  0
  5 43  1  0
  6 44  1  0
  7 45  1  0
  8 46  1  0
  9 47  1  0
 10 48  1  1
 11 49  1  0
 11 50  1  0
 12 51  1  0
 12 52  1  0
 13 53  1  0
 13 54  1  0
 19 55  1  0
 19 56  1  0
 20 57  1  0
 20 58  1  0
 22 59  1  0
 23 60  1  0
 24 61  1  0
 25 62  1  0
 27 63  1  0
 27 64  1  0
 31 65  1  0
 31 66  1  0
 32 67  1  0
 32 68  1  0
 34 69  1  0
 35 70  1  0
 36 71  1  0
 37 72  1  0
 39 73  1  0
 39 74  1  0
 41 75  1  0
 41 76  1  0
M  END
>  <smiles>  (44) 
O=C(Nc1ccccc1)[C@@H]1CCCN(c2nc(N3CCc4ccccc4C3)nc(N3CCc4ccccc4C3)n2)C1

>  <score_type>  (44) 
oracle

>  <origin>  (44) 
autodockgpu

>  <m_score__min__energy>  (44) 
-9.7799999999999994

>  <m_primary>  (44) 
energy

>  <rmsd>  (44) 
10.616302173594924

>  <m_score__min__rmsd>  (44) 
10.616302173594924

>  <meeko>  (44) 
{"free_energy": -9.51, "intermolecular_energy": -11.0, "internal_energy": -1.28, "cluster_size": 15, "cluster_id": 1, "rank_in_cluster": 12}

>  <energy>  (44) 
-9.4

>  <cluster_rmsd>  (44) 
1.65

>  <cluster>  (44) 
4

$$$$

     RDKit          3D

 76 82  0  0  0  0  0  0  0  0999 V2000
  135.5950   68.8960  224.2200 O   0  0  0  0  0  0  0  0  0  0  0  0
  136.2770   69.9720  224.1810 C   0  0  0  0  0  0  0  0  0  0  0  0
  135.5970   71.1400  224.6360 N   0  0  0  0  0  0  0  0  0  0  0  0
  134.2540   71.1230  225.1020 C   0  0  0  0  0  0  0  0  0  0  0  0
  133.9510   71.4540  226.4070 C   0  0  0  0  0  0  0  0  0  0  0  0
  132.6330   71.4210  226.8000 C   0  0  0  0  0  0  0  0  0  0  0  0
  131.6080   71.0700  225.9370 C   0  0  0  0  0  0  0  0  0  0  0  0
  131.9400   70.7480  224.6490 C   0  0  0  0  0  0  0  0  0  0  0  0
  133.2380   70.7760  224.2430 C   0  0  0  0  0  0  0  0  0  0  0  0
  137.6780   70.0010  223.6990 C   0  0  2  0  0  0  0  0  0  0  0  0
  138.5110   68.9910  224.4440 C   0  0  0  0  0  0  0  0  0  0  0  0
  139.4910   69.6000  225.3920 C   0  0  0  0  0  0  0  0  0  0  0  0
  140.3810   70.5830  224.6980 C   0  0  0  0  0  0  0  0  0  0  0  0
  139.7090   71.3700  223.7080 N   0  0  0  0  0  0  0  0  0  0  0  0
  140.4720   72.0870  222.7450 C   0  0  0  0  0  0  0  0  0  0  0  0
  141.3670   71.4090  222.0040 N   0  0  0  0  0  0  0  0  0  0  0  0
  142.1310   72.0040  221.0700 C   0  0  0  0  0  0  0  0  0  0  0  0
  143.0840   71.2720  220.2840 N   0  0  0  0  0  0  0  0  0  0  0  0
  144.3860   71.8870  220.1090 C   0  0  0  0  0  0  0  0  0  0  0  0
  144.7900   71.5890  218.6660 C   0  0  0  0  0  0  0  0  0  0  0  0
  144.9380   70.0970  218.5900 C   0  0  0  0  0  0  0  0  0  0  0  0
  146.0430   69.4990  218.0240 C   0  0  0  0  0  0  0  0  0  0  0  0
  146.1460   68.1270  217.9720 C   0  0  0  0  0  0  0  0  0  0  0  0
  145.1140   67.3790  218.5010 C   0  0  0  0  0  0  0  0  0  0  0  0
  144.0110   67.9830  219.0650 C   0  0  0  0  0  0  0  0  0  0  0  0
  143.8900   69.3650  219.1260 C   0  0  0  0  0  0  0  0  0  0  0  0
  142.7000   70.0120  219.7350 C   0  0  0  0  0  0  0  0  0  0  0  0
  141.9640   73.3410  220.8940 N   0  0  0  0  0  0  0  0  0  0  0  0
  141.0830   74.0620  221.6100 C   0  0  0  0  0  0  0  0  0  0  0  0
  140.9680   75.4570  221.3680 N   0  0  0  0  0  0  0  0  0  0  0  0
  141.5420   75.9590  220.1330 C   0  0  0  0  0  0  0  0  0  0  0  0
  140.8700   77.2840  219.7490 C   0  0  0  0  0  0  0  0  0  0  0  0
  141.1960   78.2070  220.8870 C   0  0  0  0  0  0  0  0  0  0  0  0
  141.7440   79.4560  220.6690 C   0  0  0  0  0  0  0  0  0  0  0  0
  142.0160   80.2500  221.7750 C   0  0  0  0  0  0  0  0  0  0  0  0
  141.7360   79.7810  223.0630 C   0  0  0  0  0  0  0  0  0  0  0  0
  141.1830   78.5160  223.2510 C   0  0  0  0  0  0  0  0  0  0  0  0
  140.9120   77.7250  222.1510 C   0  0  0  0  0  0  0  0  0  0  0  0
  140.3160   76.3520  222.2930 C   0  0  0  0  0  0  0  0  0  0  0  0
  140.3440   73.4090  222.5350 N   0  0  0  0  0  0  0  0  0  0  0  0
  138.2580   71.3980  223.7340 C   0  0  0  0  0  0  0  0  0  0  0  0
  136.0770   72.0640  224.6390 H   0  0  0  0  0  0  0  0  0  0  0  0
  134.7435   71.7372  227.1153 H   0  0  0  0  0  0  0  0  0  0  0  0
  132.3838   71.6833  227.8388 H   0  0  0  0  0  0  0  0  0  0  0  0
  130.5616   71.0507  226.2758 H   0  0  0  0  0  0  0  0  0  0  0  0
  131.1513   70.4644  223.9366 H   0  0  0  0  0  0  0  0  0  0  0  0
  133.4807   70.5147  223.2024 H   0  0  0  0  0  0  0  0  0  0  0  0
  137.6894   69.7077  222.6389 H   0  0  0  0  0  0  0  0  0  0  0  0
  137.8352   68.3380  225.0157 H   0  0  0  0  0  0  0  0  0  0  0  0
  139.0935   68.4387  223.6919 H   0  0  0  0  0  0  0  0  0  0  0  0
  138.9413   70.1172  226.1922 H   0  0  0  0  0  0  0  0  0  0  0  0
  140.1179   68.7967  225.8064 H   0  0  0  0  0  0  0  0  0  0  0  0
  140.8036   71.2621  225.4532 H   0  0  0  0  0  0  0  0  0  0  0  0
  141.1551   70.0021  224.1753 H   0  0  0  0  0  0  0  0  0  0  0  0
  144.3232   72.9728  220.2738 H   0  0  0  0  0  0  0  0  0  0  0  0
  145.1214   71.4949  220.8270 H   0  0  0  0  0  0  0  0  0  0  0  0
  144.0112   71.9339  217.9699 H   0  0  0  0  0  0  0  0  0  0  0  0
  145.7204   72.1057  218.3881 H   0  0  0  0  0  0  0  0  0  0  0  0
  146.8492   70.1227  217.6105 H   0  0  0  0  0  0  0  0  0  0  0  0
  147.0247   67.6416  217.5222 H   0  0  0  0  0  0  0  0  0  0  0  0
  145.1728   66.2810  218.4720 H   0  0  0  0  0  0  0  0  0  0  0  0
  143.2071   67.3552  219.4768 H   0  0  0  0  0  0  0  0  0  0  0  0
  141.9294   70.1650  218.9651 H   0  0  0  0  0  0  0  0  0  0  0  0
  142.2946   69.3691  220.5302 H   0  0  0  0  0  0  0  0  0  0  0  0
  142.6208   76.1233  220.2719 H   0  0  0  0  0  0  0  0  0  0  0  0
  141.3796   75.2234  219.3314 H   0  0  0  0  0  0  0  0  0  0  0  0
  141.2803   77.6699  218.8042 H   0  0  0  0  0  0  0  0  0  0  0  0
  139.7867   77.1763  219.5916 H   0  0  0  0  0  0  0  0  0  0  0  0
  141.9584   79.8108  219.6501 H   0  0  0  0  0  0  0  0  0  0  0  0
  142.4527   81.2503  221.6382 H   0  0  0  0  0  0  0  0  0  0  0  0
  141.9542   80.4160  223.9343 H   0  0  0  0  0  0  0  0  0  0  0  0
  140.9643   78.1506  224.2652 H   0  0  0  0  0  0  0  0  0  0  0  0
  140.4637   75.9907  223.3214 H   0  0  0  0  0  0  0  0  0  0  0  0
  139.2386   76.3909  222.0744 H   0  0  0  0  0  0  0  0  0  0  0  0
  137.9262   71.9003  224.6547 H   0  0  0  0  0  0  0  0  0  0  0  0
  137.9063   71.9412  222.8444 H   0  0  0  0  0  0  0  0  0  0  0  0
  1  2  2  0
  2  3  1  0
  3  4  1  0
  4  5  2  0
  5  6  1  0
  6  7  2  0
  7  8  1  0
  8  9  2  0
  2 10  1  0
 10 11  1  0
 11 12  1  0
 12 13  1  0
 13 14  1  0
 14 15  1  0
 15 16  2  0
 16 17  1  0
 17 18  1  0
 18 19  1  0
 19 20  1  0
 20 21  1  0
 21 22  2  0
 22 23  1  0
 23 24  2  0
 24 25  1  0
 25 26  2  0
 26 27  1  0
 17 28  2  0
 28 29  1  0
 29 30  1  0
 30 31  1  0
 31 32  1  0
 32 33  1  0
 33 34  2  0
 34 35  1  0
 35 36  2  0
 36 37  1  0
 37 38  2  0
 38 39  1  0
 29 40  2  0
 14 41  1  0
  9  4  1  0
 41 10  1  0
 40 15  1  0
 27 18  1  0
 39 30  1  0
 26 21  1  0
 38 33  1  0
  3 42  1  0
  5 43  1  0
  6 44  1  0
  7 45  1  0
  8 46  1  0
  9 47  1  0
 10 48  1  6
 11 49  1  0
 11 50  1  0
 12 51  1  0
 12 52  1  0
 13 53  1  0
 13 54  1  0
 19 55  1  0
 19 56  1  0
 20 57  1  0
 20 58  1  0
 22 59  1  0
 23 60  1  0
 24 61  1  0
 25 62  1  0
 27 63  1  0
 27 64  1  0
 31 65  1  0
 31 66  1  0
 32 67  1  0
 32 68  1  0
 34 69  1  0
 35 70  1  0
 36 71  1  0
 37 72  1  0
 39 73  1  0
 39 74  1  0
 41 75  1  0
 41 76  1  0
M  END
>  <smiles>  (45) 
O=C(Nc1ccccc1)[C@@H]1CCCN(c2nc(N3CCc4ccccc4C3)nc(N3CCc4ccccc4C3)n2)C1

>  <score_type>  (45) 
oracle

>  <origin>  (45) 
autodockgpu

>  <m_score__min__energy>  (45) 
-9.7799999999999994

>  <m_primary>  (45) 
energy

>  <rmsd>  (45) 
11.113172621840429

>  <m_score__min__rmsd>  (45) 
11.113172621840429

>  <meeko>  (45) 
{"free_energy": -9.39, "intermolecular_energy": -10.89, "internal_energy": -1.29, "cluster_size": 19, "cluster_id": 4, "rank_in_cluster": 15}

>  <energy>  (45) 
-9.39

>  <cluster_rmsd>  (45) 
1.57

>  <cluster>  (45) 
4

$$$$

     RDKit          3D

 76 82  0  0  0  0  0  0  0  0999 V2000
  140.0860   79.4240  223.8420 O   0  0  0  0  0  0  0  0  0  0  0  0
  139.3540   79.0280  222.8770 C   0  0  0  0  0  0  0  0  0  0  0  0
  138.1070   79.7030  222.7430 N   0  0  0  0  0  0  0  0  0  0  0  0
  137.6920   80.7470  223.6160 C   0  0  0  0  0  0  0  0  0  0  0  0
  137.2990   81.9730  223.1190 C   0  0  0  0  0  0  0  0  0  0  0  0
  136.9070   82.9440  224.0130 C   0  0  0  0  0  0  0  0  0  0  0  0
  136.8940   82.7330  225.3820 C   0  0  0  0  0  0  0  0  0  0  0  0
  137.2890   81.5070  225.8430 C   0  0  0  0  0  0  0  0  0  0  0  0
  137.6790   80.5360  224.9740 C   0  0  0  0  0  0  0  0  0  0  0  0
  139.7770   77.9420  221.9600 C   0  0  2  0  0  0  0  0  0  0  0  0
  139.1920   78.1560  220.5890 C   0  0  0  0  0  0  0  0  0  0  0  0
  138.1190   77.1800  220.2320 C   0  0  0  0  0  0  0  0  0  0  0  0
  138.6000   75.7690  220.3680 C   0  0  0  0  0  0  0  0  0  0  0  0
  139.4590   75.5590  221.4950 N   0  0  0  0  0  0  0  0  0  0  0  0
  140.2550   74.3820  221.5600 C   0  0  0  0  0  0  0  0  0  0  0  0
  139.9350   73.4430  222.4690 N   0  0  0  0  0  0  0  0  0  0  0  0
  140.6310   72.2990  222.6020 C   0  0  0  0  0  0  0  0  0  0  0  0
  140.2820   71.3020  223.5760 N   0  0  0  0  0  0  0  0  0  0  0  0
  139.5680   70.1400  223.0840 C   0  0  0  0  0  0  0  0  0  0  0  0
  138.5330   69.8090  224.1580 C   0  0  0  0  0  0  0  0  0  0  0  0
  139.3250   69.4200  225.3720 C   0  0  0  0  0  0  0  0  0  0  0  0
  139.0470   68.2800  226.0940 C   0  0  0  0  0  0  0  0  0  0  0  0
  139.7950   67.9530  227.2030 C   0  0  0  0  0  0  0  0  0  0  0  0
  140.8230   68.8000  227.5630 C   0  0  0  0  0  0  0  0  0  0  0  0
  141.0970   69.9390  226.8380 C   0  0  0  0  0  0  0  0  0  0  0  0
  140.3530   70.2840  225.7170 C   0  0  0  0  0  0  0  0  0  0  0  0
  140.6510   71.5130  224.9380 C   0  0  0  0  0  0  0  0  0  0  0  0
  141.6890   72.1170  221.7690 N   0  0  0  0  0  0  0  0  0  0  0  0
  142.0480   73.0260  220.8450 C   0  0  0  0  0  0  0  0  0  0  0  0
  143.1670   72.7630  220.0110 N   0  0  0  0  0  0  0  0  0  0  0  0
  143.1370   73.3270  218.6730 C   0  0  0  0  0  0  0  0  0  0  0  0
  144.5670   73.4550  218.1310 C   0  0  0  0  0  0  0  0  0  0  0  0
  145.0740   72.0430  218.0890 C   0  0  0  0  0  0  0  0  0  0  0  0
  145.6470   71.5160  216.9480 C   0  0  0  0  0  0  0  0  0  0  0  0
  146.0920   70.2010  216.9900 C   0  0  0  0  0  0  0  0  0  0  0  0
  145.9540   69.4500  218.1620 C   0  0  0  0  0  0  0  0  0  0  0  0
  145.3710   70.0090  219.2970 C   0  0  0  0  0  0  0  0  0  0  0  0
  144.9290   71.3170  219.2560 C   0  0  0  0  0  0  0  0  0  0  0  0
  144.2920   71.9730  220.4510 C   0  0  0  0  0  0  0  0  0  0  0  0
  141.3120   74.1570  220.7580 N   0  0  0  0  0  0  0  0  0  0  0  0
  139.4770   76.5730  222.5330 C   0  0  0  0  0  0  0  0  0  0  0  0
  137.4430   79.4460  221.9820 H   0  0  0  0  0  0  0  0  0  0  0  0
  137.2989   82.1694  222.0367 H   0  0  0  0  0  0  0  0  0  0  0  0
  136.5923   83.9242  223.6255 H   0  0  0  0  0  0  0  0  0  0  0  0
  136.5764   83.5253  226.0758 H   0  0  0  0  0  0  0  0  0  0  0  0
  137.2912   81.3050  226.9243 H   0  0  0  0  0  0  0  0  0  0  0  0
  137.9917   79.5577  225.3679 H   0  0  0  0  0  0  0  0  0  0  0  0
  140.8710   77.9793  221.8516 H   0  0  0  0  0  0  0  0  0  0  0  0
  138.7665   79.1695  220.5479 H   0  0  0  0  0  0  0  0  0  0  0  0
  140.0088   78.0125  219.8663 H   0  0  0  0  0  0  0  0  0  0  0  0
  137.2595   77.3317  220.9015 H   0  0  0  0  0  0  0  0  0  0  0  0
  137.8306   77.3490  219.1840 H   0  0  0  0  0  0  0  0  0  0  0  0
  137.7239   75.1120  220.4721 H   0  0  0  0  0  0  0  0  0  0  0  0
  139.1901   75.5426  219.4677 H   0  0  0  0  0  0  0  0  0  0  0  0
  139.0712   70.3700  222.1299 H   0  0  0  0  0  0  0  0  0  0  0  0
  140.2461   69.2942  222.8976 H   0  0  0  0  0  0  0  0  0  0  0  0
  137.9072   70.6878  224.3726 H   0  0  0  0  0  0  0  0  0  0  0  0
  137.8556   69.0037  223.8375 H   0  0  0  0  0  0  0  0  0  0  0  0
  138.2201   67.6252  225.7818 H   0  0  0  0  0  0  0  0  0  0  0  0
  139.5795   67.0443  227.7842 H   0  0  0  0  0  0  0  0  0  0  0  0
  141.4351   68.5614  228.4453 H   0  0  0  0  0  0  0  0  0  0  0  0
  141.9247   70.5907  227.1545 H   0  0  0  0  0  0  0  0  0  0  0  0
  140.0781   72.3575  225.3485 H   0  0  0  0  0  0  0  0  0  0  0  0
  141.7254   71.7405  225.0004 H   0  0  0  0  0  0  0  0  0  0  0  0
  142.5535   72.6690  218.0123 H   0  0  0  0  0  0  0  0  0  0  0  0
  142.6715   74.3230  218.7089 H   0  0  0  0  0  0  0  0  0  0  0  0
  144.5642   73.8984  217.1243 H   0  0  0  0  0  0  0  0  0  0  0  0
  145.1956   74.1095  218.7526 H   0  0  0  0  0  0  0  0  0  0  0  0
  145.7478   72.1195  216.0339 H   0  0  0  0  0  0  0  0  0  0  0  0
  146.5539   69.7492  216.0998 H   0  0  0  0  0  0  0  0  0  0  0  0
  146.3089   68.4091  218.1876 H   0  0  0  0  0  0  0  0  0  0  0  0
  145.2637   69.4148  220.2165 H   0  0  0  0  0  0  0  0  0  0  0  0
  143.9475   71.2013  221.1551 H   0  0  0  0  0  0  0  0  0  0  0  0
  145.0257   72.6200  220.9541 H   0  0  0  0  0  0  0  0  0  0  0  0
  138.4940   76.5985  223.0260 H   0  0  0  0  0  0  0  0  0  0  0  0
  140.2676   76.3177  223.2539 H   0  0  0  0  0  0  0  0  0  0  0  0
  1  2  2  0
  2  3  1  0
  3  4  1  0
  4  5  2  0
  5  6  1  0
  6  7  2  0
  7  8  1  0
  8  9  2  0
  2 10  1  0
 10 11  1  0
 11 12  1  0
 12 13  1  0
 13 14  1  0
 14 15  1  0
 15 16  2  0
 16 17  1  0
 17 18  1  0
 18 19  1  0
 19 20  1  0
 20 21  1  0
 21 22  2  0
 22 23  1  0
 23 24  2  0
 24 25  1  0
 25 26  2  0
 26 27  1  0
 17 28  2  0
 28 29  1  0
 29 30  1  0
 30 31  1  0
 31 32  1  0
 32 33  1  0
 33 34  2  0
 34 35  1  0
 35 36  2  0
 36 37  1  0
 37 38  2  0
 38 39  1  0
 29 40  2  0
 14 41  1  0
  9  4  1  0
 41 10  1  0
 40 15  1  0
 27 18  1  0
 39 30  1  0
 26 21  1  0
 38 33  1  0
  3 42  1  0
  5 43  1  0
  6 44  1  0
  7 45  1  0
  8 46  1  0
  9 47  1  0
 10 48  1  6
 11 49  1  0
 11 50  1  0
 12 51  1  0
 12 52  1  0
 13 53  1  0
 13 54  1  0
 19 55  1  0
 19 56  1  0
 20 57  1  0
 20 58  1  0
 22 59  1  0
 23 60  1  0
 24 61  1  0
 25 62  1  0
 27 63  1  0
 27 64  1  0
 31 65  1  0
 31 66  1  0
 32 67  1  0
 32 68  1  0
 34 69  1  0
 35 70  1  0
 36 71  1  0
 37 72  1  0
 39 73  1  0
 39 74  1  0
 41 75  1  0
 41 76  1  0
M  END
>  <smiles>  (46) 
O=C(Nc1ccccc1)[C@@H]1CCCN(c2nc(N3CCc4ccccc4C3)nc(N3CCc4ccccc4C3)n2)C1

>  <score_type>  (46) 
oracle

>  <origin>  (46) 
autodockgpu

>  <m_score__min__energy>  (46) 
-9.7799999999999994

>  <m_primary>  (46) 
energy

>  <rmsd>  (46) 
4.102260816803002

>  <m_score__min__rmsd>  (46) 
4.102260816803002

>  <meeko>  (46) 
{"free_energy": -9.52, "intermolecular_energy": -11.01, "internal_energy": -1.28, "cluster_size": 13, "cluster_id": 3, "rank_in_cluster": 3}

>  <energy>  (46) 
-9.39

>  <cluster_rmsd>  (46) 
1.03

>  <cluster>  (46) 
4

$$$$

     RDKit          3D

 76 82  0  0  0  0  0  0  0  0999 V2000
  138.5390   69.6470  224.4310 O   0  0  0  0  0  0  0  0  0  0  0  0
  139.3200   70.6440  224.2910 C   0  0  0  0  0  0  0  0  0  0  0  0
  140.2950   70.8020  225.3180 N   0  0  0  0  0  0  0  0  0  0  0  0
  140.4030   69.9190  226.4280 C   0  0  0  0  0  0  0  0  0  0  0  0
  139.9570   70.2930  227.6790 C   0  0  0  0  0  0  0  0  0  0  0  0
  140.0870   69.3950  228.7140 C   0  0  0  0  0  0  0  0  0  0  0  0
  140.6460   68.1390  228.5430 C   0  0  0  0  0  0  0  0  0  0  0  0
  141.0780   67.7970  227.2900 C   0  0  0  0  0  0  0  0  0  0  0  0
  140.9560   68.6730  226.2560 C   0  0  0  0  0  0  0  0  0  0  0  0
  139.2180   71.5700  223.1370 C   0  0  2  0  0  0  0  0  0  0  0  0
  138.3020   70.9990  222.0860 C   0  0  0  0  0  0  0  0  0  0  0  0
  139.0100   70.5480  220.8510 C   0  0  0  0  0  0  0  0  0  0  0  0
  139.8380   71.6480  220.2650 C   0  0  0  0  0  0  0  0  0  0  0  0
  140.4890   72.4650  221.2450 N   0  0  0  0  0  0  0  0  0  0  0  0
  141.0180   73.7290  220.8660 C   0  0  0  0  0  0  0  0  0  0  0  0
  141.8720   73.7800  219.8290 N   0  0  0  0  0  0  0  0  0  0  0  0
  142.4210   74.9320  219.3990 C   0  0  0  0  0  0  0  0  0  0  0  0
  143.3330   74.9760  218.2900 N   0  0  0  0  0  0  0  0  0  0  0  0
  143.4720   76.2540  217.6180 C   0  0  0  0  0  0  0  0  0  0  0  0
  143.5840   75.9240  216.1310 C   0  0  0  0  0  0  0  0  0  0  0  0
  144.8620   75.1520  215.9850 C   0  0  0  0  0  0  0  0  0  0  0  0
  145.7960   75.4580  215.0190 C   0  0  0  0  0  0  0  0  0  0  0  0
  146.9600   74.7300  214.9150 C   0  0  0  0  0  0  0  0  0  0  0  0
  147.1560   73.6910  215.8030 C   0  0  0  0  0  0  0  0  0  0  0  0
  146.2180   73.3900  216.7660 C   0  0  0  0  0  0  0  0  0  0  0  0
  145.0400   74.1140  216.8860 C   0  0  0  0  0  0  0  0  0  0  0  0
  144.0310   73.7860  217.9270 C   0  0  0  0  0  0  0  0  0  0  0  0
  142.0750   76.0670  220.0620 N   0  0  0  0  0  0  0  0  0  0  0  0
  141.2260   76.0670  221.1040 C   0  0  0  0  0  0  0  0  0  0  0  0
  140.9140   77.2950  221.7450 N   0  0  0  0  0  0  0  0  0  0  0  0
  140.0750   78.2250  221.0120 C   0  0  0  0  0  0  0  0  0  0  0  0
  139.3800   79.1820  221.9900 C   0  0  0  0  0  0  0  0  0  0  0  0
  140.5090   79.9130  222.6560 C   0  0  0  0  0  0  0  0  0  0  0  0
  140.5330   81.2930  222.7260 C   0  0  0  0  0  0  0  0  0  0  0  0
  141.6130   81.8940  223.3590 C   0  0  0  0  0  0  0  0  0  0  0  0
  142.6350   81.1090  223.9030 C   0  0  0  0  0  0  0  0  0  0  0  0
  142.5830   79.7200  223.8170 C   0  0  0  0  0  0  0  0  0  0  0  0
  141.5090   79.1200  223.1870 C   0  0  0  0  0  0  0  0  0  0  0  0
  141.3990   77.6250  223.0640 C   0  0  0  0  0  0  0  0  0  0  0  0
  140.7070   74.8800  221.4910 N   0  0  0  0  0  0  0  0  0  0  0  0
  140.5800   71.9540  222.6010 C   0  0  0  0  0  0  0  0  0  0  0  0
  140.9760   71.5900  225.2860 H   0  0  0  0  0  0  0  0  0  0  0  0
  139.5089   71.2838  227.8450 H   0  0  0  0  0  0  0  0  0  0  0  0
  139.7338   69.6855  229.7144 H   0  0  0  0  0  0  0  0  0  0  0  0
  140.7396   67.4394  229.3867 H   0  0  0  0  0  0  0  0  0  0  0  0
  141.5267   66.8075  227.1178 H   0  0  0  0  0  0  0  0  0  0  0  0
  141.3089   68.3762  225.2573 H   0  0  0  0  0  0  0  0  0  0  0  0
  138.7648   72.5115  223.4808 H   0  0  0  0  0  0  0  0  0  0  0  0
  137.7738   70.1361  222.5178 H   0  0  0  0  0  0  0  0  0  0  0  0
  137.6161   71.8050  221.7862 H   0  0  0  0  0  0  0  0  0  0  0  0
  139.6658   69.7016  221.1031 H   0  0  0  0  0  0  0  0  0  0  0  0
  138.2555   70.2489  220.1085 H   0  0  0  0  0  0  0  0  0  0  0  0
  140.6082   71.1976  219.6217 H   0  0  0  0  0  0  0  0  0  0  0  0
  139.1530   72.3022  219.7057 H   0  0  0  0  0  0  0  0  0  0  0  0
  142.5909   76.8850  217.8063 H   0  0  0  0  0  0  0  0  0  0  0  0
  144.3489   76.8114  217.9792 H   0  0  0  0  0  0  0  0  0  0  0  0
  142.7277   75.3141  215.8073 H   0  0  0  0  0  0  0  0  0  0  0  0
  143.5839   76.8326  215.5110 H   0  0  0  0  0  0  0  0  0  0  0  0
  145.6100   76.2910  214.3251 H   0  0  0  0  0  0  0  0  0  0  0  0
  147.7111   74.9689  214.1477 H   0  0  0  0  0  0  0  0  0  0  0  0
  148.0772   73.0932  215.7404 H   0  0  0  0  0  0  0  0  0  0  0  0
  146.4073   72.5552  217.4569 H   0  0  0  0  0  0  0  0  0  0  0  0
  143.3189   73.0474  217.5304 H   0  0  0  0  0  0  0  0  0  0  0  0
  144.5329   73.3658  218.8110 H   0  0  0  0  0  0  0  0  0  0  0  0
  140.6965   78.8047  220.3136 H   0  0  0  0  0  0  0  0  0  0  0  0
  139.3134   77.6625  220.4520 H   0  0  0  0  0  0  0  0  0  0  0  0
  138.7256   79.8830  221.4511 H   0  0  0  0  0  0  0  0  0  0  0  0
  138.7371   78.6545  222.7100 H   0  0  0  0  0  0  0  0  0  0  0  0
  139.7215   81.8968  222.2936 H   0  0  0  0  0  0  0  0  0  0  0  0
  141.6650   82.9903  223.4328 H   0  0  0  0  0  0  0  0  0  0  0  0
  143.4870   81.5929  224.4030 H   0  0  0  0  0  0  0  0  0  0  0  0
  143.3887   79.1064  224.2463 H   0  0  0  0  0  0  0  0  0  0  0  0
  142.3881   77.1688  223.2178 H   0  0  0  0  0  0  0  0  0  0  0  0
  140.7015   77.2406  223.8227 H   0  0  0  0  0  0  0  0  0  0  0  0
  141.2303   71.0668  222.6066 H   0  0  0  0  0  0  0  0  0  0  0  0
  140.9950   72.7451  223.2428 H   0  0  0  0  0  0  0  0  0  0  0  0
  1  2  2  0
  2  3  1  0
  3  4  1  0
  4  5  2  0
  5  6  1  0
  6  7  2  0
  7  8  1  0
  8  9  2  0
  2 10  1  0
 10 11  1  0
 11 12  1  0
 12 13  1  0
 13 14  1  0
 14 15  1  0
 15 16  2  0
 16 17  1  0
 17 18  1  0
 18 19  1  0
 19 20  1  0
 20 21  1  0
 21 22  2  0
 22 23  1  0
 23 24  2  0
 24 25  1  0
 25 26  2  0
 26 27  1  0
 17 28  2  0
 28 29  1  0
 29 30  1  0
 30 31  1  0
 31 32  1  0
 32 33  1  0
 33 34  2  0
 34 35  1  0
 35 36  2  0
 36 37  1  0
 37 38  2  0
 38 39  1  0
 29 40  2  0
 14 41  1  0
  9  4  1  0
 41 10  1  0
 40 15  1  0
 27 18  1  0
 39 30  1  0
 26 21  1  0
 38 33  1  0
  3 42  1  0
  5 43  1  0
  6 44  1  0
  7 45  1  0
  8 46  1  0
  9 47  1  0
 10 48  1  1
 11 49  1  0
 11 50  1  0
 12 51  1  0
 12 52  1  0
 13 53  1  0
 13 54  1  0
 19 55  1  0
 19 56  1  0
 20 57  1  0
 20 58  1  0
 22 59  1  0
 23 60  1  0
 24 61  1  0
 25 62  1  0
 27 63  1  0
 27 64  1  0
 31 65  1  0
 31 66  1  0
 32 67  1  0
 32 68  1  0
 34 69  1  0
 35 70  1  0
 36 71  1  0
 37 72  1  0
 39 73  1  0
 39 74  1  0
 41 75  1  0
 41 76  1  0
M  END
>  <smiles>  (47) 
O=C(Nc1ccccc1)[C@@H]1CCCN(c2nc(N3CCc4ccccc4C3)nc(N3CCc4ccccc4C3)n2)C1

>  <score_type>  (47) 
oracle

>  <origin>  (47) 
autodockgpu

>  <m_score__min__energy>  (47) 
-9.7799999999999994

>  <m_primary>  (47) 
energy

>  <rmsd>  (47) 
10.296691626258994

>  <m_score__min__rmsd>  (47) 
10.296691626258994

>  <meeko>  (47) 
{"free_energy": -9.74, "intermolecular_energy": -11.23, "internal_energy": -1.28, "cluster_size": 15, "cluster_id": 1, "rank_in_cluster": 3}

>  <energy>  (47) 
-9.37

>  <cluster_rmsd>  (47) 
1.49

>  <cluster>  (47) 
4

$$$$

     RDKit          3D

 76 82  0  0  0  0  0  0  0  0999 V2000
  138.8290   69.6700  224.3710 O   0  0  0  0  0  0  0  0  0  0  0  0
  139.5410   70.7230  224.2840 C   0  0  0  0  0  0  0  0  0  0  0  0
  140.5210   70.8820  225.3060 N   0  0  0  0  0  0  0  0  0  0  0  0
  140.7050   69.9410  226.3570 C   0  0  0  0  0  0  0  0  0  0  0  0
  140.8600   68.5970  226.0870 C   0  0  0  0  0  0  0  0  0  0  0  0
  141.0350   67.7340  227.1450 C   0  0  0  0  0  0  0  0  0  0  0  0
  141.0620   68.1680  228.4610 C   0  0  0  0  0  0  0  0  0  0  0  0
  140.9060   69.5070  228.6960 C   0  0  0  0  0  0  0  0  0  0  0  0
  140.7320   70.3730  227.6610 C   0  0  0  0  0  0  0  0  0  0  0  0
  139.3590   71.7100  223.1920 C   0  0  2  0  0  0  0  0  0  0  0  0
  138.2900   71.2450  222.2380 C   0  0  0  0  0  0  0  0  0  0  0  0
  138.8150   70.8150  220.9070 C   0  0  0  0  0  0  0  0  0  0  0  0
  139.6340   71.8950  220.2710 C   0  0  0  0  0  0  0  0  0  0  0  0
  140.4470   72.6230  221.1970 N   0  0  0  0  0  0  0  0  0  0  0  0
  141.0050   73.8730  220.8100 C   0  0  0  0  0  0  0  0  0  0  0  0
  141.8640   73.8970  219.7750 N   0  0  0  0  0  0  0  0  0  0  0  0
  142.4390   75.0330  219.3390 C   0  0  0  0  0  0  0  0  0  0  0  0
  143.3550   75.0480  218.2320 N   0  0  0  0  0  0  0  0  0  0  0  0
  143.5070   76.3120  217.5370 C   0  0  0  0  0  0  0  0  0  0  0  0
  143.6210   75.9540  216.0560 C   0  0  0  0  0  0  0  0  0  0  0  0
  144.8940   75.1680  215.9300 C   0  0  0  0  0  0  0  0  0  0  0  0
  145.8340   75.4480  214.9620 C   0  0  0  0  0  0  0  0  0  0  0  0
  146.9920   74.7070  214.8760 C   0  0  0  0  0  0  0  0  0  0  0  0
  147.1750   73.6840  215.7840 C   0  0  0  0  0  0  0  0  0  0  0  0
  146.2310   73.4090  216.7490 C   0  0  0  0  0  0  0  0  0  0  0  0
  145.0590   74.1450  216.8510 C   0  0  0  0  0  0  0  0  0  0  0  0
  144.0440   73.8460  217.8930 C   0  0  0  0  0  0  0  0  0  0  0  0
  142.1150   76.1800  219.9910 N   0  0  0  0  0  0  0  0  0  0  0  0
  141.2630   76.2070  221.0300 C   0  0  0  0  0  0  0  0  0  0  0  0
  140.9750   77.4470  221.6600 N   0  0  0  0  0  0  0  0  0  0  0  0
  140.2320   78.4230  220.8840 C   0  0  0  0  0  0  0  0  0  0  0  0
  139.5290   79.4100  221.8250 C   0  0  0  0  0  0  0  0  0  0  0  0
  140.6500   80.0790  222.5640 C   0  0  0  0  0  0  0  0  0  0  0  0
  140.7410   81.4550  222.6460 C   0  0  0  0  0  0  0  0  0  0  0  0
  141.8090   81.9960  223.3490 C   0  0  0  0  0  0  0  0  0  0  0  0
  142.7540   81.1570  223.9490 C   0  0  0  0  0  0  0  0  0  0  0  0
  142.6360   79.7730  223.8490 C   0  0  0  0  0  0  0  0  0  0  0  0
  141.5730   79.2330  223.1500 C   0  0  0  0  0  0  0  0  0  0  0  0
  141.3950   77.7460  223.0090 C   0  0  0  0  0  0  0  0  0  0  0  0
  140.7170   75.0350  221.4240 N   0  0  0  0  0  0  0  0  0  0  0  0
  140.6680   72.0420  222.5090 C   0  0  0  0  0  0  0  0  0  0  0  0
  141.1480   71.7130  225.3140 H   0  0  0  0  0  0  0  0  0  0  0  0
  140.8441   68.2244  225.0522 H   0  0  0  0  0  0  0  0  0  0  0  0
  141.1579   66.6606  226.9385 H   0  0  0  0  0  0  0  0  0  0  0  0
  141.2042   67.4589  229.2898 H   0  0  0  0  0  0  0  0  0  0  0  0
  140.9214   69.8859  229.7286 H   0  0  0  0  0  0  0  0  0  0  0  0
  140.6099   71.4454  227.8735 H   0  0  0  0  0  0  0  0  0  0  0  0
  139.0101   72.6572  223.6292 H   0  0  0  0  0  0  0  0  0  0  0  0
  137.7640   70.3937  222.6948 H   0  0  0  0  0  0  0  0  0  0  0  0
  137.6257   72.1032  222.0583 H   0  0  0  0  0  0  0  0  0  0  0  0
  139.4422   69.9213  221.0408 H   0  0  0  0  0  0  0  0  0  0  0  0
  137.9600   70.5954  220.2508 H   0  0  0  0  0  0  0  0  0  0  0  0
  140.2918   71.4345  219.5191 H   0  0  0  0  0  0  0  0  0  0  0  0
  138.9289   72.6141  219.8287 H   0  0  0  0  0  0  0  0  0  0  0  0
  142.6307   76.9538  217.7108 H   0  0  0  0  0  0  0  0  0  0  0  0
  144.3876   76.8683  217.8908 H   0  0  0  0  0  0  0  0  0  0  0  0
  142.7607   75.3456  215.7403 H   0  0  0  0  0  0  0  0  0  0  0  0
  143.6304   76.8507  215.4190 H   0  0  0  0  0  0  0  0  0  0  0  0
  145.6582   76.2698  214.2523 H   0  0  0  0  0  0  0  0  0  0  0  0
  147.7479   74.9241  214.1069 H   0  0  0  0  0  0  0  0  0  0  0  0
  148.0912   73.0771  215.7364 H   0  0  0  0  0  0  0  0  0  0  0  0
  146.4107   72.5857  217.4561 H   0  0  0  0  0  0  0  0  0  0  0  0
  143.3268   73.1066  217.5072 H   0  0  0  0  0  0  0  0  0  0  0  0
  144.5393   73.4382  218.7865 H   0  0  0  0  0  0  0  0  0  0  0  0
  140.9245   78.9727  220.2296 H   0  0  0  0  0  0  0  0  0  0  0  0
  139.4782   77.9037  220.2739 H   0  0  0  0  0  0  0  0  0  0  0  0
  138.9455   80.1461  221.2525 H   0  0  0  0  0  0  0  0  0  0  0  0
  138.8176   78.9127  222.5007 H   0  0  0  0  0  0  0  0  0  0  0  0
  139.9903   82.1022  222.1689 H   0  0  0  0  0  0  0  0  0  0  0  0
  141.9124   83.0878  223.4345 H   0  0  0  0  0  0  0  0  0  0  0  0
  143.5971   81.5940  224.5043 H   0  0  0  0  0  0  0  0  0  0  0  0
  143.3813   79.1163  224.3215 H   0  0  0  0  0  0  0  0  0  0  0  0
  142.3484   77.2392  223.2190 H   0  0  0  0  0  0  0  0  0  0  0  0
  140.6339   77.3943  223.7210 H   0  0  0  0  0  0  0  0  0  0  0  0
  141.2578   71.1202  222.3977 H   0  0  0  0  0  0  0  0  0  0  0  0
  141.2053   72.7761  223.1273 H   0  0  0  0  0  0  0  0  0  0  0  0
  1  2  2  0
  2  3  1  0
  3  4  1  0
  4  5  2  0
  5  6  1  0
  6  7  2  0
  7  8  1  0
  8  9  2  0
  2 10  1  0
 10 11  1  0
 11 12  1  0
 12 13  1  0
 13 14  1  0
 14 15  1  0
 15 16  2  0
 16 17  1  0
 17 18  1  0
 18 19  1  0
 19 20  1  0
 20 21  1  0
 21 22  2  0
 22 23  1  0
 23 24  2  0
 24 25  1  0
 25 26  2  0
 26 27  1  0
 17 28  2  0
 28 29  1  0
 29 30  1  0
 30 31  1  0
 31 32  1  0
 32 33  1  0
 33 34  2  0
 34 35  1  0
 35 36  2  0
 36 37  1  0
 37 38  2  0
 38 39  1  0
 29 40  2  0
 14 41  1  0
  9  4  1  0
 41 10  1  0
 40 15  1  0
 27 18  1  0
 39 30  1  0
 26 21  1  0
 38 33  1  0
  3 42  1  0
  5 43  1  0
  6 44  1  0
  7 45  1  0
  8 46  1  0
  9 47  1  0
 10 48  1  1
 11 49  1  0
 11 50  1  0
 12 51  1  0
 12 52  1  0
 13 53  1  0
 13 54  1  0
 19 55  1  0
 19 56  1  0
 20 57  1  0
 20 58  1  0
 22 59  1  0
 23 60  1  0
 24 61  1  0
 25 62  1  0
 27 63  1  0
 27 64  1  0
 31 65  1  0
 31 66  1  0
 32 67  1  0
 32 68  1  0
 34 69  1  0
 35 70  1  0
 36 71  1  0
 37 72  1  0
 39 73  1  0
 39 74  1  0
 41 75  1  0
 41 76  1  0
M  END
>  <smiles>  (48) 
O=C(Nc1ccccc1)[C@@H]1CCCN(c2nc(N3CCc4ccccc4C3)nc(N3CCc4ccccc4C3)n2)C1

>  <score_type>  (48) 
oracle

>  <origin>  (48) 
autodockgpu

>  <m_score__min__energy>  (48) 
-9.7799999999999994

>  <m_primary>  (48) 
energy

>  <rmsd>  (48) 
10.315191249437177

>  <m_score__min__rmsd>  (48) 
10.315191249437177

>  <meeko>  (48) 
{"free_energy": -9.61, "intermolecular_energy": -11.1, "internal_energy": -1.22, "cluster_size": 15, "cluster_id": 1, "rank_in_cluster": 8}

>  <energy>  (48) 
-9.37

>  <cluster_rmsd>  (48) 
0.59

>  <cluster>  (48) 
4

$$$$

     RDKit          3D

 76 82  0  0  0  0  0  0  0  0999 V2000
  138.3180   69.9400  224.7530 O   0  0  0  0  0  0  0  0  0  0  0  0
  139.3050   70.6600  224.3900 C   0  0  0  0  0  0  0  0  0  0  0  0
  140.4530   70.5860  225.2320 N   0  0  0  0  0  0  0  0  0  0  0  0
  140.5100   69.7720  226.3970 C   0  0  0  0  0  0  0  0  0  0  0  0
  141.1000   68.5250  226.3630 C   0  0  0  0  0  0  0  0  0  0  0  0
  141.1260   67.7840  227.5230 C   0  0  0  0  0  0  0  0  0  0  0  0
  140.5840   68.2440  228.7120 C   0  0  0  0  0  0  0  0  0  0  0  0
  140.0060   69.4840  228.7130 C   0  0  0  0  0  0  0  0  0  0  0  0
  139.9730   70.2310  227.5750 C   0  0  0  0  0  0  0  0  0  0  0  0
  139.2570   71.5110  223.1770 C   0  0  2  0  0  0  0  0  0  0  0  0
  138.4930   70.8180  222.0800 C   0  0  0  0  0  0  0  0  0  0  0  0
  139.3500   70.3520  220.9500 C   0  0  0  0  0  0  0  0  0  0  0  0
  140.1570   71.4750  220.3790 C   0  0  0  0  0  0  0  0  0  0  0  0
  140.6500   72.3900  221.3650 N   0  0  0  0  0  0  0  0  0  0  0  0
  141.1280   73.6670  220.9600 C   0  0  0  0  0  0  0  0  0  0  0  0
  141.9520   73.7350  219.8990 N   0  0  0  0  0  0  0  0  0  0  0  0
  142.4520   74.8990  219.4450 C   0  0  0  0  0  0  0  0  0  0  0  0
  143.3320   74.9610  218.3110 N   0  0  0  0  0  0  0  0  0  0  0  0
  143.4090   76.2360  217.6230 C   0  0  0  0  0  0  0  0  0  0  0  0
  143.4910   75.8940  216.1360 C   0  0  0  0  0  0  0  0  0  0  0  0
  144.7900   75.1630  215.9630 C   0  0  0  0  0  0  0  0  0  0  0  0
  145.6870   75.4900  214.9690 C   0  0  0  0  0  0  0  0  0  0  0  0
  146.8710   74.7990  214.8400 C   0  0  0  0  0  0  0  0  0  0  0  0
  147.1260   73.7770  215.7330 C   0  0  0  0  0  0  0  0  0  0  0  0
  146.2260   73.4550  216.7240 C   0  0  0  0  0  0  0  0  0  0  0  0
  145.0270   74.1410  216.8690 C   0  0  0  0  0  0  0  0  0  0  0  0
  144.0590   73.7910  217.9400 C   0  0  0  0  0  0  0  0  0  0  0  0
  142.0890   76.0290  220.1080 N   0  0  0  0  0  0  0  0  0  0  0  0
  141.2690   76.0120  221.1730 C   0  0  0  0  0  0  0  0  0  0  0  0
  140.9360   77.2360  221.8120 N   0  0  0  0  0  0  0  0  0  0  0  0
  140.0550   78.1360  221.0910 C   0  0  0  0  0  0  0  0  0  0  0  0
  139.3550   79.0800  222.0770 C   0  0  0  0  0  0  0  0  0  0  0  0
  140.4770   79.8490  222.7130 C   0  0  0  0  0  0  0  0  0  0  0  0
  140.4640   81.2290  222.7730 C   0  0  0  0  0  0  0  0  0  0  0  0
  141.5390   81.8650  223.3780 C   0  0  0  0  0  0  0  0  0  0  0  0
  142.5950   81.1140  223.9050 C   0  0  0  0  0  0  0  0  0  0  0  0
  142.5800   79.7230  223.8300 C   0  0  0  0  0  0  0  0  0  0  0  0
  141.5100   79.0880  223.2280 C   0  0  0  0  0  0  0  0  0  0  0  0
  141.4410   77.5890  223.1180 C   0  0  0  0  0  0  0  0  0  0  0  0
  140.7980   74.8130  221.5840 N   0  0  0  0  0  0  0  0  0  0  0  0
  140.6380   71.9630  222.7520 C   0  0  0  0  0  0  0  0  0  0  0  0
  141.3070   71.1410  225.0130 H   0  0  0  0  0  0  0  0  0  0  0  0
  141.5382   68.1332  225.4332 H   0  0  0  0  0  0  0  0  0  0  0  0
  141.5949   66.7891  227.5050 H   0  0  0  0  0  0  0  0  0  0  0  0
  140.6173   67.6322  229.6256 H   0  0  0  0  0  0  0  0  0  0  0  0
  139.5649   69.8803  229.6395 H   0  0  0  0  0  0  0  0  0  0  0  0
  139.5050   71.2262  227.5997 H   0  0  0  0  0  0  0  0  0  0  0  0
  138.7086   72.4339  223.4167 H   0  0  0  0  0  0  0  0  0  0  0  0
  137.9827   69.9442  222.5114 H   0  0  0  0  0  0  0  0  0  0  0  0
  137.7891   71.5546  221.6654 H   0  0  0  0  0  0  0  0  0  0  0  0
  140.0324   69.5710  221.3166 H   0  0  0  0  0  0  0  0  0  0  0  0
  138.6957   69.9579  220.1584 H   0  0  0  0  0  0  0  0  0  0  0  0
  141.0164   71.0470  219.8421 H   0  0  0  0  0  0  0  0  0  0  0  0
  139.4896   72.0456  219.7164 H   0  0  0  0  0  0  0  0  0  0  0  0
  142.5126   76.8390  217.8298 H   0  0  0  0  0  0  0  0  0  0  0  0
  144.2761   76.8263  217.9541 H   0  0  0  0  0  0  0  0  0  0  0  0
  142.6470   75.2527  215.8421 H   0  0  0  0  0  0  0  0  0  0  0  0
  143.4433   76.7952  215.5071 H   0  0  0  0  0  0  0  0  0  0  0  0
  145.4551   76.3097  214.2730 H   0  0  0  0  0  0  0  0  0  0  0  0
  147.5921   75.0535  214.0493 H   0  0  0  0  0  0  0  0  0  0  0  0
  148.0650   73.2100  215.6511 H   0  0  0  0  0  0  0  0  0  0  0  0
  146.4622   72.6346  217.4177 H   0  0  0  0  0  0  0  0  0  0  0  0
  143.3612   73.0252  217.5703 H   0  0  0  0  0  0  0  0  0  0  0  0
  144.5987   73.3968  218.8137 H   0  0  0  0  0  0  0  0  0  0  0  0
  140.6442   78.7277  220.3749 H   0  0  0  0  0  0  0  0  0  0  0  0
  139.2977   77.5479  220.5520 H   0  0  0  0  0  0  0  0  0  0  0  0
  138.6689   79.7576  221.5477 H   0  0  0  0  0  0  0  0  0  0  0  0
  138.7440   78.5397  222.8150 H   0  0  0  0  0  0  0  0  0  0  0  0
  139.6268   81.8064  222.3539 H   0  0  0  0  0  0  0  0  0  0  0  0
  141.5607   82.9628  223.4433 H   0  0  0  0  0  0  0  0  0  0  0  0
  143.4437   81.6257  224.3823 H   0  0  0  0  0  0  0  0  0  0  0  0
  143.4118   79.1356  224.2459 H   0  0  0  0  0  0  0  0  0  0  0  0
  142.4461   77.1627  223.2523 H   0  0  0  0  0  0  0  0  0  0  0  0
  140.7727   77.1898  223.8951 H   0  0  0  0  0  0  0  0  0  0  0  0
  141.3423   71.1271  222.8756 H   0  0  0  0  0  0  0  0  0  0  0  0
  140.9324   72.8165  223.3804 H   0  0  0  0  0  0  0  0  0  0  0  0
  1  2  2  0
  2  3  1  0
  3  4  1  0
  4  5  2  0
  5  6  1  0
  6  7  2  0
  7  8  1  0
  8  9  2  0
  2 10  1  0
 10 11  1  0
 11 12  1  0
 12 13  1  0
 13 14  1  0
 14 15  1  0
 15 16  2  0
 16 17  1  0
 17 18  1  0
 18 19  1  0
 19 20  1  0
 20 21  1  0
 21 22  2  0
 22 23  1  0
 23 24  2  0
 24 25  1  0
 25 26  2  0
 26 27  1  0
 17 28  2  0
 28 29  1  0
 29 30  1  0
 30 31  1  0
 31 32  1  0
 32 33  1  0
 33 34  2  0
 34 35  1  0
 35 36  2  0
 36 37  1  0
 37 38  2  0
 38 39  1  0
 29 40  2  0
 14 41  1  0
  9  4  1  0
 41 10  1  0
 40 15  1  0
 27 18  1  0
 39 30  1  0
 26 21  1  0
 38 33  1  0
  3 42  1  0
  5 43  1  0
  6 44  1  0
  7 45  1  0
  8 46  1  0
  9 47  1  0
 10 48  1  1
 11 49  1  0
 11 50  1  0
 12 51  1  0
 12 52  1  0
 13 53  1  0
 13 54  1  0
 19 55  1  0
 19 56  1  0
 20 57  1  0
 20 58  1  0
 22 59  1  0
 23 60  1  0
 24 61  1  0
 25 62  1  0
 27 63  1  0
 27 64  1  0
 31 65  1  0
 31 66  1  0
 32 67  1  0
 32 68  1  0
 34 69  1  0
 35 70  1  0
 36 71  1  0
 37 72  1  0
 39 73  1  0
 39 74  1  0
 41 75  1  0
 41 76  1  0
M  END
>  <smiles>  (49) 
O=C(Nc1ccccc1)[C@@H]1CCCN(c2nc(N3CCc4ccccc4C3)nc(N3CCc4ccccc4C3)n2)C1

>  <score_type>  (49) 
oracle

>  <origin>  (49) 
autodockgpu

>  <m_score__min__energy>  (49) 
-9.7799999999999994

>  <m_primary>  (49) 
energy

>  <rmsd>  (49) 
10.471341856843212

>  <m_score__min__rmsd>  (49) 
10.471341856843212

>  <meeko>  (49) 
{"free_energy": -9.78, "intermolecular_energy": -11.27, "internal_energy": -1.29, "cluster_size": 15, "cluster_id": 1, "rank_in_cluster": 1}

>  <energy>  (49) 
-9.34

>  <cluster_rmsd>  (49) 
0.77

>  <cluster>  (49) 
4

$$$$

     RDKit          3D

 76 82  0  0  0  0  0  0  0  0999 V2000
  135.4960   69.6970  222.8950 O   0  0  0  0  0  0  0  0  0  0  0  0
  136.3880   69.7430  223.8040 C   0  0  0  0  0  0  0  0  0  0  0  0
  135.9010   69.6320  225.1390 N   0  0  0  0  0  0  0  0  0  0  0  0
  134.5220   69.4790  225.4520 C   0  0  0  0  0  0  0  0  0  0  0  0
  133.7510   70.5670  225.8080 C   0  0  0  0  0  0  0  0  0  0  0  0
  132.4220   70.3570  226.0980 C   0  0  0  0  0  0  0  0  0  0  0  0
  131.8380   69.1020  226.0450 C   0  0  0  0  0  0  0  0  0  0  0  0
  132.6290   68.0440  225.6890 C   0  0  0  0  0  0  0  0  0  0  0  0
  133.9450   68.2340  225.3980 C   0  0  0  0  0  0  0  0  0  0  0  0
  137.8280   69.9000  223.4900 C   0  0  2  0  0  0  0  0  0  0  0  0
  138.6630   69.0690  224.4270 C   0  0  0  0  0  0  0  0  0  0  0  0
  139.4400   69.8730  225.4170 C   0  0  0  0  0  0  0  0  0  0  0  0
  140.2980   70.8930  224.7360 C   0  0  0  0  0  0  0  0  0  0  0  0
  139.6770   71.5020  223.5980 N   0  0  0  0  0  0  0  0  0  0  0  0
  140.4740   72.2200  222.6640 C   0  0  0  0  0  0  0  0  0  0  0  0
  141.3930   71.5420  221.9540 N   0  0  0  0  0  0  0  0  0  0  0  0
  142.1910   72.1390  221.0480 C   0  0  0  0  0  0  0  0  0  0  0  0
  143.1700   71.4060  220.2940 N   0  0  0  0  0  0  0  0  0  0  0  0
  144.4580   72.0490  220.1120 C   0  0  0  0  0  0  0  0  0  0  0  0
  144.8830   71.7160  218.6830 C   0  0  0  0  0  0  0  0  0  0  0  0
  145.0690   70.2270  218.6560 C   0  0  0  0  0  0  0  0  0  0  0  0
  146.1950   69.6400  218.1190 C   0  0  0  0  0  0  0  0  0  0  0  0
  146.3340   68.2700  218.1120 C   0  0  0  0  0  0  0  0  0  0  0  0
  145.3150   67.5130  218.6550 C   0  0  0  0  0  0  0  0  0  0  0  0
  144.1920   68.1060  219.1900 C   0  0  0  0  0  0  0  0  0  0  0  0
  144.0360   69.4850  219.2050 C   0  0  0  0  0  0  0  0  0  0  0  0
  142.8230   70.1210  219.7830 C   0  0  0  0  0  0  0  0  0  0  0  0
  142.0320   73.4760  220.8690 N   0  0  0  0  0  0  0  0  0  0  0  0
  141.1270   74.1970  221.5550 C   0  0  0  0  0  0  0  0  0  0  0  0
  141.0220   75.5920  221.3120 N   0  0  0  0  0  0  0  0  0  0  0  0
  141.6380   76.0960  220.0970 C   0  0  0  0  0  0  0  0  0  0  0  0
  140.9810   77.4230  219.6940 C   0  0  0  0  0  0  0  0  0  0  0  0
  141.2710   78.3430  220.8440 C   0  0  0  0  0  0  0  0  0  0  0  0
  141.8270   79.5920  220.6470 C   0  0  0  0  0  0  0  0  0  0  0  0
  142.0640   80.3830  221.7630 C   0  0  0  0  0  0  0  0  0  0  0  0
  141.7410   79.9120  223.0400 C   0  0  0  0  0  0  0  0  0  0  0  0
  141.1800   78.6480  223.2070 C   0  0  0  0  0  0  0  0  0  0  0  0
  140.9440   77.8600  222.0970 C   0  0  0  0  0  0  0  0  0  0  0  0
  140.3410   76.4860  222.2170 C   0  0  0  0  0  0  0  0  0  0  0  0
  140.3550   73.5440  222.4520 N   0  0  0  0  0  0  0  0  0  0  0  0
  138.2410   71.3560  223.4510 C   0  0  0  0  0  0  0  0  0  0  0  0
  136.5590   69.6600  225.9470 H   0  0  0  0  0  0  0  0  0  0  0  0
  134.1872   71.5755  225.8586 H   0  0  0  0  0  0  0  0  0  0  0  0
  131.8000   71.2184  226.3827 H   0  0  0  0  0  0  0  0  0  0  0  0
  130.7730   68.9607  226.2814 H   0  0  0  0  0  0  0  0  0  0  0  0
  132.1986   67.0330  225.6376 H   0  0  0  0  0  0  0  0  0  0  0  0
  134.5616   67.3689  225.1125 H   0  0  0  0  0  0  0  0  0  0  0  0
  138.0089   69.5185  222.4743 H   0  0  0  0  0  0  0  0  0  0  0  0
  137.9946   68.3916  224.9787 H   0  0  0  0  0  0  0  0  0  0  0  0
  139.3948   68.5280  223.8092 H   0  0  0  0  0  0  0  0  0  0  0  0
  138.7385   70.3870  226.0906 H   0  0  0  0  0  0  0  0  0  0  0  0
  140.0931   69.1913  225.9816 H   0  0  0  0  0  0  0  0  0  0  0  0
  140.5416   71.6824  225.4623 H   0  0  0  0  0  0  0  0  0  0  0  0
  141.1926   70.3675  224.3706 H   0  0  0  0  0  0  0  0  0  0  0  0
  144.3659   73.1374  220.2418 H   0  0  0  0  0  0  0  0  0  0  0  0
  145.1961   71.6994  220.8489 H   0  0  0  0  0  0  0  0  0  0  0  0
  144.1025   72.0188  217.9695 H   0  0  0  0  0  0  0  0  0  0  0  0
  145.8028   72.2472  218.3968 H   0  0  0  0  0  0  0  0  0  0  0  0
  146.9887   70.2711  217.6927 H   0  0  0  0  0  0  0  0  0  0  0  0
  147.2295   67.7933  217.6868 H   0  0  0  0  0  0  0  0  0  0  0  0
  145.4011   66.4164  218.6607 H   0  0  0  0  0  0  0  0  0  0  0  0
  143.4005   67.4714  219.6152 H   0  0  0  0  0  0  0  0  0  0  0  0
  142.0561   70.2297  219.0019 H   0  0  0  0  0  0  0  0  0  0  0  0
  142.4260   69.4937  220.5947 H   0  0  0  0  0  0  0  0  0  0  0  0
  142.7118   76.2583  220.2720 H   0  0  0  0  0  0  0  0  0  0  0  0
  141.5013   75.3624  219.2888 H   0  0  0  0  0  0  0  0  0  0  0  0
  141.4227   77.8102  218.7639 H   0  0  0  0  0  0  0  0  0  0  0  0
  139.9032   77.3174  219.5009 H   0  0  0  0  0  0  0  0  0  0  0  0
  142.0745   79.9491  219.6364 H   0  0  0  0  0  0  0  0  0  0  0  0
  142.5069   81.3827  221.6428 H   0  0  0  0  0  0  0  0  0  0  0  0
  141.9316   80.5449  223.9193 H   0  0  0  0  0  0  0  0  0  0  0  0
  140.9274   78.2809  224.2127 H   0  0  0  0  0  0  0  0  0  0  0  0
  140.4545   76.1226  223.2490 H   0  0  0  0  0  0  0  0  0  0  0  0
  139.2714   76.5268  221.9635 H   0  0  0  0  0  0  0  0  0  0  0  0
  137.7408   71.8922  224.2709 H   0  0  0  0  0  0  0  0  0  0  0  0
  137.9481   71.7734  222.4763 H   0  0  0  0  0  0  0  0  0  0  0  0
  1  2  2  0
  2  3  1  0
  3  4  1  0
  4  5  2  0
  5  6  1  0
  6  7  2  0
  7  8  1  0
  8  9  2  0
  2 10  1  0
 10 11  1  0
 11 12  1  0
 12 13  1  0
 13 14  1  0
 14 15  1  0
 15 16  2  0
 16 17  1  0
 17 18  1  0
 18 19  1  0
 19 20  1  0
 20 21  1  0
 21 22  2  0
 22 23  1  0
 23 24  2  0
 24 25  1  0
 25 26  2  0
 26 27  1  0
 17 28  2  0
 28 29  1  0
 29 30  1  0
 30 31  1  0
 31 32  1  0
 32 33  1  0
 33 34  2  0
 34 35  1  0
 35 36  2  0
 36 37  1  0
 37 38  2  0
 38 39  1  0
 29 40  2  0
 14 41  1  0
  9  4  1  0
 41 10  1  0
 40 15  1  0
 27 18  1  0
 39 30  1  0
 26 21  1  0
 38 33  1  0
  3 42  1  0
  5 43  1  0
  6 44  1  0
  7 45  1  0
  8 46  1  0
  9 47  1  0
 10 48  1  6
 11 49  1  0
 11 50  1  0
 12 51  1  0
 12 52  1  0
 13 53  1  0
 13 54  1  0
 19 55  1  0
 19 56  1  0
 20 57  1  0
 20 58  1  0
 22 59  1  0
 23 60  1  0
 24 61  1  0
 25 62  1  0
 27 63  1  0
 27 64  1  0
 31 65  1  0
 31 66  1  0
 32 67  1  0
 32 68  1  0
 34 69  1  0
 35 70  1  0
 36 71  1  0
 37 72  1  0
 39 73  1  0
 39 74  1  0
 41 75  1  0
 41 76  1  0
M  END
>  <smiles>  (50) 
O=C(Nc1ccccc1)[C@@H]1CCCN(c2nc(N3CCc4ccccc4C3)nc(N3CCc4ccccc4C3)n2)C1

>  <score_type>  (50) 
oracle

>  <origin>  (50) 
autodockgpu

>  <m_score__min__energy>  (50) 
-9.7799999999999994

>  <m_primary>  (50) 
energy

>  <rmsd>  (50) 
11.760873342346413

>  <m_score__min__rmsd>  (50) 
11.760873342346413

>  <meeko>  (50) 
{"free_energy": -9.37, "intermolecular_energy": -10.86, "internal_energy": -1.36, "cluster_size": 19, "cluster_id": 4, "rank_in_cluster": 16}

>  <energy>  (50) 
-9.25

>  <cluster_rmsd>  (50) 
0.97

>  <cluster>  (50) 
4

$$$$
