@<TRIPOS>MOLECULE
*****
 69 74 0 0 0
SMALL
GASTEIGER

@<TRIPOS>ATOM
      1 O         140.9550   82.5850  221.4980 O.3     1  UNL1       -0.5067
      2 C         141.1760   81.4680  222.2920 C.ar    1  UNL1        0.1175
      3 C         142.0720   81.6090  223.3500 C.ar    1  UNL1       -0.0201
      4 C         142.3230   80.5280  224.1670 C.ar    1  UNL1       -0.0576
      5 C         141.7170   79.3010  223.9750 C.ar    1  UNL1       -0.0508
      6 C         140.8380   79.2050  222.9160 C.ar    1  UNL1        0.0228
      7 C         140.1730   77.9290  222.6720 C.ar    1  UNL1        0.1669
      8 N         138.8530   77.7870  222.9130 N.ar    1  UNL1       -0.1945
      9 C         138.2120   76.6230  222.6980 C.ar    1  UNL1        0.2227
     10 N         136.8420   76.4160  222.9300 N.pl3   1  UNL1       -0.2994
     11 C         135.9160   77.4920  223.2180 C.3     1  UNL1        0.0163
     12 C         134.7010   76.9950  223.9730 C.3     1  UNL1       -0.0214
     13 C         135.0540   75.8870  224.9310 C.3     1  UNL1        0.0133
     14 N         133.8480   75.4290  225.5690 N.3     1  UNL1       -0.2993
     15 C         133.5880   76.0850  226.8370 C.3     1  UNL1       -0.0008
     16 C         132.1300   75.7350  227.1630 C.3     1  UNL1       -0.0402
     17 C         132.0110   74.2400  227.3240 C.3     1  UNL1       -0.0507
     18 C         132.5870   73.4930  226.1560 C.3     1  UNL1       -0.0402
     19 C         133.9760   74.0180  225.8800 C.3     1  UNL1       -0.0008
     20 C         135.8110   74.7580  224.2970 C.3     1  UNL1       -0.0214
     21 C         136.2750   75.0680  222.8890 C.3     1  UNL1        0.0163
     22 N         138.9360   75.5830  222.2280 N.ar    1  UNL1       -0.1808
     23 C         140.2520   75.6690  221.9710 C.ar    1  UNL1        0.2230
     24 N         140.9740   74.5500  221.4760 N.pl3   1  UNL1       -0.2949
     25 C         140.4620   73.2290  221.7840 C.3     1  UNL1        0.0192
     26 C         140.7650   72.3430  220.5940 C.3     1  UNL1       -0.0115
     27 C         142.2430   72.3190  220.4310 C.ar    1  UNL1       -0.0412
     28 C         142.9530   71.1440  220.2270 C.ar    1  UNL1       -0.0582
     29 C         144.3240   71.2110  220.0870 C.ar    1  UNL1       -0.0615
     30 C         145.0140   72.4150  220.1420 C.ar    1  UNL1       -0.0614
     31 C         144.3120   73.5800  220.3440 C.ar    1  UNL1       -0.0568
     32 C         142.9270   73.5150  220.4870 C.ar    1  UNL1       -0.0269
     33 C         142.1650   74.7670  220.7040 C.3     1  UNL1        0.0402
     34 N         140.8400   76.8590  222.2040 N.ar    1  UNL1       -0.1945
     35 C         140.5530   80.2590  222.0700 C.ar    1  UNL1       -0.0095
     36 H         140.0350   82.9850  221.3330 H       1  UNL1        0.2921
     37 H         142.5729   82.5715  223.5308 H       1  UNL1        0.0654
     38 H         143.0304   80.6459  225.0011 H       1  UNL1        0.0619
     39 H         141.9249   78.4444  224.6331 H       1  UNL1        0.0625
     40 H         136.4289   78.2509  223.8271 H       1  UNL1        0.0465
     41 H         135.5765   77.9186  222.2626 H       1  UNL1        0.0465
     42 H         134.2671   77.8317  224.5402 H       1  UNL1        0.0295
     43 H         133.9814   76.5990  223.2414 H       1  UNL1        0.0295
     44 H         135.7463   76.2963  225.6815 H       1  UNL1        0.0463
     45 H         134.2627   75.7029  227.6173 H       1  UNL1        0.0427
     46 H         133.7546   77.1711  226.7863 H       1  UNL1        0.0427
     47 H         131.8310   76.2321  228.0976 H       1  UNL1        0.0278
     48 H         131.4738   76.0757  226.3486 H       1  UNL1        0.0278
     49 H         132.5475   73.9387  228.2358 H       1  UNL1        0.0266
     50 H         130.9410   73.9926  227.3868 H       1  UNL1        0.0266
     51 H         132.6375   72.4198  226.3920 H       1  UNL1        0.0278
     52 H         131.9505   73.6357  225.2703 H       1  UNL1        0.0278
     53 H         134.6126   73.8839  226.7670 H       1  UNL1        0.0427
     54 H         134.4395   73.4745  225.0434 H       1  UNL1        0.0427
     55 H         136.6936   74.5378  224.9155 H       1  UNL1        0.0295
     56 H         135.1262   73.8995  224.2342 H       1  UNL1        0.0295
     57 H         137.0391   74.3431  222.5717 H       1  UNL1        0.0465
     58 H         135.4434   75.0061  222.1717 H       1  UNL1        0.0465
     59 H         140.9560   72.8336  222.6838 H       1  UNL1        0.0468
     60 H         139.3800   73.2651  221.9787 H       1  UNL1        0.0468
     61 H         140.3890   71.3254  220.7759 H       1  UNL1        0.0328
     62 H         140.2774   72.7272  219.6859 H       1  UNL1        0.0328
     63 H         142.4319   70.1765  220.1778 H       1  UNL1        0.0620
     64 H         144.8887   70.2807  219.9267 H       1  UNL1        0.0618
     65 H         146.1076   72.4364  220.0255 H       1  UNL1        0.0618
     66 H         144.8345   74.5468  220.3919 H       1  UNL1        0.0621
     67 H         142.8066   75.4844  221.2366 H       1  UNL1        0.0514
     68 H         141.8635   75.1538  219.7194 H       1  UNL1        0.0514
     69 H         139.8445   80.1361  221.2376 H       1  UNL1        0.0661
@<TRIPOS>BOND
     1     1     2    1
     2     2     3   ar
     3     3     4   ar
     4     4     5   ar
     5     5     6   ar
     6     6     7    1
     7     7     8   ar
     8     8     9   ar
     9     9    10    1
    10    10    11    1
    11    11    12    1
    12    12    13    1
    13    13    14    1
    14    14    15    1
    15    15    16    1
    16    16    17    1
    17    17    18    1
    18    18    19    1
    19    13    20    1
    20    20    21    1
    21     9    22   ar
    22    22    23   ar
    23    23    24    1
    24    24    25    1
    25    25    26    1
    26    26    27    1
    27    27    28   ar
    28    28    29   ar
    29    29    30   ar
    30    30    31   ar
    31    31    32   ar
    32    32    33    1
    33    23    34   ar
    34     6    35   ar
    35    35     2   ar
    36    34     7   ar
    37    21    10    1
    38    33    24    1
    39    19    14    1
    40    32    27   ar
    41     1    36    1
    42     3    37    1
    43     4    38    1
    44     5    39    1
    45    11    40    1
    46    11    41    1
    47    12    42    1
    48    12    43    1
    49    13    44    1
    50    15    45    1
    51    15    46    1
    52    16    47    1
    53    16    48    1
    54    17    49    1
    55    17    50    1
    56    18    51    1
    57    18    52    1
    58    19    53    1
    59    19    54    1
    60    20    55    1
    61    20    56    1
    62    21    57    1
    63    21    58    1
    64    25    59    1
    65    25    60    1
    66    26    61    1
    67    26    62    1
    68    28    63    1
    69    29    64    1
    70    30    65    1
    71    31    66    1
    72    33    67    1
    73    33    68    1
    74    35    69    1
