@<TRIPOS>MOLECULE
*****
 61 64 0 0 0
SMALL
GASTEIGER

@<TRIPOS>ATOM
      1 C         142.5630   80.0340  222.3690 C.3     1  UNL1       -0.0425
      2 C         141.4950   79.0900  222.9280 C.3     1  UNL1        0.0456
      3 N         141.4680   77.9180  222.0750 N.am    1  UNL1       -0.3072
      4 C         141.0320   78.0480  220.7270 C.2     1  UNL1        0.2340
      5 O         140.6590   79.1440  220.2270 O.2     1  UNL1       -0.2738
      6 C         141.0200   76.8340  219.8920 C.3     1  UNL1        0.1022
      7 C         141.8800   76.8980  218.6740 C.3     1  UNL1       -0.0257
      8 C         143.3180   76.6870  219.1180 C.3     1  UNL1       -0.0495
      9 C         143.4290   75.2620  219.5500 C.3     1  UNL1       -0.0371
     10 C         142.4660   74.8560  220.6090 C.3     1  UNL1        0.0155
     11 N         141.2620   75.6350  220.6670 N.am    1  UNL1       -0.2886
     12 C         140.2240   75.2120  221.5430 C.2     1  UNL1        0.2334
     13 O         139.9740   75.7760  222.6390 O.2     1  UNL1       -0.2739
     14 C         139.3460   74.0430  221.2010 C.3     1  UNL1        0.0887
     15 N         139.1800   73.1870  222.3510 N.am    1  UNL1       -0.3015
     16 C         140.2310   72.2820  222.6560 C.2     1  UNL1        0.2628
     17 O         141.2340   72.3090  221.8810 O.2     1  UNL1       -0.2685
     18 C         140.1580   71.3750  223.7990 C.ar    1  UNL1        0.1260
     19 C         139.5680   70.1450  223.6100 C.ar    1  UNL1       -0.0306
     20 C         139.4520   69.2260  224.6180 C.ar    1  UNL1       -0.0503
     21 C         139.9620   69.5950  225.8600 C.ar    1  UNL1        0.0031
     22 C         139.8610   68.6950  226.8970 C.ar    1  UNL1       -0.0173
     23 C         140.3720   69.0740  228.1230 C.ar    1  UNL1        0.1241
     24 F         140.2620   68.1680  229.1390 F       1  UNL1       -0.2055
     25 C         140.9610   70.3010  228.3200 C.ar    1  UNL1       -0.0244
     26 C         141.0710   71.2190  227.2850 C.ar    1  UNL1       -0.0330
     27 C         140.5580   70.8330  226.0630 C.ar    1  UNL1        0.0720
     28 N         140.6340   71.6840  225.0160 N.ar    1  UNL1       -0.2421
     29 C         140.1750   79.7540  223.0160 C.ar    1  UNL1       -0.0275
     30 C         139.0310   79.0780  223.4530 C.ar    1  UNL1       -0.0568
     31 C         137.8180   79.7710  223.5100 C.ar    1  UNL1       -0.0614
     32 C         137.7560   81.1060  223.1400 C.ar    1  UNL1       -0.0617
     33 C         138.8970   81.7830  222.7040 C.ar    1  UNL1       -0.0614
     34 C         140.1070   81.0830  222.6490 C.ar    1  UNL1       -0.0568
     35 H         143.1025   80.5108  223.2006 H       1  UNL1        0.0251
     36 H         143.2717   79.4617  221.7524 H       1  UNL1        0.0251
     37 H         142.0821   80.8076  221.7524 H       1  UNL1        0.0251
     38 H         141.7404   78.7940  223.9586 H       1  UNL1        0.0545
     39 H         141.7710   76.9730  222.4490 H       1  UNL1        0.1493
     40 H         139.9930   76.7810  219.5015 H       1  UNL1        0.0597
     41 H         141.5864   76.1097  217.9652 H       1  UNL1        0.0288
     42 H         141.7685   77.8703  218.1719 H       1  UNL1        0.0288
     43 H         144.0056   76.8845  218.2824 H       1  UNL1        0.0266
     44 H         143.5833   77.3708  219.9378 H       1  UNL1        0.0266
     45 H         143.2603   74.6233  218.6705 H       1  UNL1        0.0280
     46 H         144.4336   75.1462  219.9830 H       1  UNL1        0.0280
     47 H         142.1854   73.8074  220.4308 H       1  UNL1        0.0465
     48 H         142.9803   75.0144  221.5684 H       1  UNL1        0.0465
     49 H         138.3612   74.4113  220.8778 H       1  UNL1        0.0558
     50 H         139.8174   73.4666  220.3914 H       1  UNL1        0.0558
     51 H         138.3300   73.2000  222.9660 H       1  UNL1        0.1496
     52 H         139.1761   69.8921  222.6138 H       1  UNL1        0.0641
     53 H         138.9799   68.2459  224.4551 H       1  UNL1        0.0625
     54 H         139.3909   67.7108  226.7545 H       1  UNL1        0.0653
     55 H         141.3517   70.5593  229.3153 H       1  UNL1        0.0647
     56 H         141.5421   72.2023  227.4307 H       1  UNL1        0.0640
     57 H         139.0848   78.0193  223.7468 H       1  UNL1        0.0621
     58 H         136.9082   79.2546  223.8501 H       1  UNL1        0.0618
     59 H         136.7951   81.6390  223.1906 H       1  UNL1        0.0618
     60 H         138.8455   82.8419  222.4107 H       1  UNL1        0.0618
     61 H         141.0169   81.5988  222.3085 H       1  UNL1        0.0621
@<TRIPOS>BOND
     1     1     2    1
     2     2     3    1
     3     3     4   am
     4     4     5    2
     5     4     6    1
     6     6     7    1
     7     7     8    1
     8     8     9    1
     9     9    10    1
    10    10    11    1
    11    11    12   am
    12    12    13    2
    13    12    14    1
    14    14    15    1
    15    15    16   am
    16    16    17    2
    17    16    18    1
    18    18    19   ar
    19    19    20   ar
    20    20    21   ar
    21    21    22   ar
    22    22    23   ar
    23    23    24    1
    24    23    25   ar
    25    25    26   ar
    26    26    27   ar
    27    27    28   ar
    28     2    29    1
    29    29    30   ar
    30    30    31   ar
    31    31    32   ar
    32    32    33   ar
    33    33    34   ar
    34    11     6    1
    35    28    18   ar
    36    34    29   ar
    37    27    21   ar
    38     1    35    1
    39     1    36    1
    40     1    37    1
    41     2    38    1
    42     3    39    1
    43     6    40    1
    44     7    41    1
    45     7    42    1
    46     8    43    1
    47     8    44    1
    48     9    45    1
    49     9    46    1
    50    10    47    1
    51    10    48    1
    52    14    49    1
    53    14    50    1
    54    15    51    1
    55    19    52    1
    56    20    53    1
    57    22    54    1
    58    25    55    1
    59    26    56    1
    60    30    57    1
    61    31    58    1
    62    32    59    1
    63    33    60    1
    64    34    61    1
