
     RDKit          3D

 44 47  0  0  0  0  0  0  0  0999 V2000
  139.1490   76.7210  222.6940 C   0  0  0  0  0  0  0  0  0  0  0  0
  140.3080   77.3900  221.9050 C   0  0  2  0  0  0  0  0  0  0  0  0
  141.3800   76.4340  221.6940 N   0  0  0  0  0  0  0  0  0  0  0  0
  141.4320   75.6080  220.5590 C   0  0  0  0  0  0  0  0  0  0  0  0
  140.4560   75.7390  219.7150 O   0  0  0  0  0  0  0  0  0  0  0  0
  142.4350   74.6390  220.2180 C   0  0  0  0  0  0  0  0  0  0  0  0
  142.2340   73.2750  220.2560 C   0  0  0  0  0  0  0  0  0  0  0  0
  143.2120   72.3710  219.9270 C   0  0  0  0  0  0  0  0  0  0  0  0
  143.7100   75.0560  219.8180 C   0  0  0  0  0  0  0  0  0  0  0  0
  141.9350   70.5470  220.3320 O   0  0  0  0  0  0  0  0  0  0  0  0
  144.0840   70.1550  219.6670 N   0  0  0  0  0  0  0  0  0  0  0  0
  143.9460   68.8200  219.7440 C   0  0  0  0  0  0  0  0  0  0  0  0
  144.9780   67.9590  219.4490 C   0  0  0  0  0  0  0  0  0  0  0  0
  146.2090   68.4300  219.0580 C   0  0  0  0  0  0  0  0  0  0  0  0
  146.3580   69.8040  218.9780 C   0  0  0  0  0  0  0  0  0  0  0  0
  145.2910   70.6380  219.2860 C   0  0  0  0  0  0  0  0  0  0  0  0
  145.4720   71.9950  219.2200 N   0  0  0  0  0  0  0  0  0  0  0  0
  144.4670   72.8320  219.5310 C   0  0  0  0  0  0  0  0  0  0  0  0
  144.6790   74.1600  219.4880 N   0  0  0  0  0  0  0  0  0  0  0  0
  143.0480   70.9950  219.9840 C   0  0  0  0  0  0  0  0  0  0  0  0
  144.0730   76.2870  219.7530 N   0  0  0  0  0  0  0  0  0  0  0  0
  140.6640   78.6350  222.5440 C   0  0  0  0  0  0  0  0  0  0  0  0
  142.0040   79.0340  222.5500 C   0  0  0  0  0  0  0  0  0  0  0  0
  142.4160   80.1780  223.1690 C   0  0  0  0  0  0  0  0  0  0  0  0
  141.5440   81.0430  223.8430 C   0  0  0  0  0  0  0  0  0  0  0  0
  140.2010   80.6410  223.8340 C   0  0  0  0  0  0  0  0  0  0  0  0
  139.7940   79.4810  223.2040 C   0  0  0  0  0  0  0  0  0  0  0  0
  139.3316   76.8264  223.7736 H   0  0  0  0  0  0  0  0  0  0  0  0
  138.1984   77.2093  222.4335 H   0  0  0  0  0  0  0  0  0  0  0  0
  139.0964   75.6536  222.4335 H   0  0  0  0  0  0  0  0  0  0  0  0
  140.0059   77.6770  220.8870 H   0  0  0  0  0  0  0  0  0  0  0  0
  142.1570   76.3390  222.4050 H   0  0  0  0  0  0  0  0  0  0  0  0
  141.2480   72.8961  220.5630 H   0  0  0  0  0  0  0  0  0  0  0  0
  142.9764   68.4023  220.0529 H   0  0  0  0  0  0  0  0  0  0  0  0
  144.8151   66.8740  219.5275 H   0  0  0  0  0  0  0  0  0  0  0  0
  147.0374   67.7466  218.8197 H   0  0  0  0  0  0  0  0  0  0  0  0
  147.3220   70.2354  218.6703 H   0  0  0  0  0  0  0  0  0  0  0  0
  145.6320   74.5120  219.1800 H   0  0  0  0  0  0  0  0  0  0  0  0
  143.7420   77.0030  220.3980 H   0  0  0  0  0  0  0  0  0  0  0  0
  142.7493   78.4061  222.0398 H   0  0  0  0  0  0  0  0  0  0  0  0
  143.4854   80.4337  223.1373 H   0  0  0  0  0  0  0  0  0  0  0  0
  141.8856   81.9634  224.3392 H   0  0  0  0  0  0  0  0  0  0  0  0
  139.4516   81.2657  224.3420 H   0  0  0  0  0  0  0  0  0  0  0  0
  138.7261   79.2184  223.2291 H   0  0  0  0  0  0  0  0  0  0  0  0
  1  2  1  0
  2  3  1  0
  3  4  1  0
  4  5  2  0
  4  6  1  0
  6  7  2  0
  7  8  1  0
  8  9  1  0
  9 10  2  0
  9 11  1  0
 11 12  1  0
 12 13  2  0
 13 14  1  0
 14 15  2  0
 15 16  1  0
 16 17  2  0
 17 18  1  0
 18 19  1  0
 19 20  1  0
 20 21  2  3
  2 22  1  0
 22 23  2  0
 23 24  1  0
 24 25  2  0
 25 26  1  0
 26 27  2  0
 20  6  1  0
 27 22  1  0
 18  8  2  0
 16 11  1  0
  1 28  1  0
  1 29  1  0
  1 30  1  0
  2 31  1  6
  3 32  1  0
  7 33  1  0
 12 34  1  0
 13 35  1  0
 14 36  1  0
 15 37  1  0
 19 38  1  0
 21 39  1  0
 23 40  1  0
 24 41  1  0
 25 42  1  0
 26 43  1  0
 27 44  1  0
M  END
>  <smiles>  (1) 
C[C@H](NC(=O)c1cc2c(=O)n3ccccc3nc2[nH]c1=N)c1ccccc1

>  <score_type>  (1) 
oracle

>  <origin>  (1) 
autodockgpu

>  <m_score__min__energy>  (1) 
-8.0500000000000007

>  <m_primary>  (1) 
energy

>  <rmsd>  (1) 
4.965978003655896

>  <m_score__min__rmsd>  (1) 
4.965978003655896

>  <meeko>  (1) 
{"free_energy": -8.04, "intermolecular_energy": -9.23, "internal_energy": -0.36, "cluster_size": 41, "cluster_id": 1, "rank_in_cluster": 2}

>  <energy>  (1) 
-8.05

>  <cluster_rmsd>  (1) 
0.0

>  <cluster>  (1) 
1

$$$$

     RDKit          3D

 44 47  0  0  0  0  0  0  0  0999 V2000
  138.5450   76.3700  222.7280 C   0  0  0  0  0  0  0  0  0  0  0  0
  139.7890   76.8710  221.9440 C   0  0  2  0  0  0  0  0  0  0  0  0
  140.7060   75.7690  221.7150 N   0  0  0  0  0  0  0  0  0  0  0  0
  141.6220   75.7670  220.6500 C   0  0  0  0  0  0  0  0  0  0  0  0
  141.5910   76.8050  219.8720 O   0  0  0  0  0  0  0  0  0  0  0  0
  142.5900   74.7600  220.3200 C   0  0  0  0  0  0  0  0  0  0  0  0
  142.3090   73.4110  220.2610 C   0  0  0  0  0  0  0  0  0  0  0  0
  143.2550   72.4690  219.9450 C   0  0  0  0  0  0  0  0  0  0  0  0
  143.9120   75.1200  220.0350 C   0  0  0  0  0  0  0  0  0  0  0  0
  141.8500   70.7060  220.1480 O   0  0  0  0  0  0  0  0  0  0  0  0
  144.0150   70.2210  219.6100 N   0  0  0  0  0  0  0  0  0  0  0  0
  143.7960   68.8960  219.5960 C   0  0  0  0  0  0  0  0  0  0  0  0
  144.7960   67.9900  219.3210 C   0  0  0  0  0  0  0  0  0  0  0  0
  146.0770   68.4070  219.0460 C   0  0  0  0  0  0  0  0  0  0  0  0
  146.3100   69.7710  219.0610 C   0  0  0  0  0  0  0  0  0  0  0  0
  145.2720   70.6500  219.3440 C   0  0  0  0  0  0  0  0  0  0  0  0
  145.5350   71.9950  219.3750 N   0  0  0  0  0  0  0  0  0  0  0  0
  144.5600   72.8730  219.6660 C   0  0  0  0  0  0  0  0  0  0  0  0
  144.8500   74.1860  219.7190 N   0  0  0  0  0  0  0  0  0  0  0  0
  143.0080   71.1040  219.9060 C   0  0  0  0  0  0  0  0  0  0  0  0
  144.3490   76.3280  220.0720 N   0  0  0  0  0  0  0  0  0  0  0  0
  140.3280   78.0390  222.5980 C   0  0  0  0  0  0  0  0  0  0  0  0
  139.4570   79.0630  222.9820 C   0  0  0  0  0  0  0  0  0  0  0  0
  139.9020   80.2110  223.5700 C   0  0  0  0  0  0  0  0  0  0  0  0
  141.2540   80.4620  223.8370 C   0  0  0  0  0  0  0  0  0  0  0  0
  142.1260   79.4330  223.4520 C   0  0  0  0  0  0  0  0  0  0  0  0
  141.6640   78.2750  222.8590 C   0  0  0  0  0  0  0  0  0  0  0  0
  138.7369   76.4473  223.8084 H   0  0  0  0  0  0  0  0  0  0  0  0
  137.6731   76.9871  222.4654 H   0  0  0  0  0  0  0  0  0  0  0  0
  138.3441   75.3209  222.4654 H   0  0  0  0  0  0  0  0  0  0  0  0
  139.5305   77.2153  220.9318 H   0  0  0  0  0  0  0  0  0  0  0  0
  140.7010   74.9290  222.3580 H   0  0  0  0  0  0  0  0  0  0  0  0
  141.2835   73.0764  220.4763 H   0  0  0  0  0  0  0  0  0  0  0  0
  142.7842   68.5220  219.8113 H   0  0  0  0  0  0  0  0  0  0  0  0
  144.5660   66.9143  219.3214 H   0  0  0  0  0  0  0  0  0  0  0  0
  146.8802   67.6889  218.8241 H   0  0  0  0  0  0  0  0  0  0  0  0
  147.3171   70.1593  218.8489 H   0  0  0  0  0  0  0  0  0  0  0  0
  145.8410   74.4950  219.5000 H   0  0  0  0  0  0  0  0  0  0  0  0
  143.7390   77.1430  220.1080 H   0  0  0  0  0  0  0  0  0  0  0  0
  138.3785   78.9392  222.8044 H   0  0  0  0  0  0  0  0  0  0  0  0
  139.1629   80.9768  223.8480 H   0  0  0  0  0  0  0  0  0  0  0  0
  141.6037   81.3913  224.3105 H   0  0  0  0  0  0  0  0  0  0  0  0
  143.2055   79.5517  223.6270 H   0  0  0  0  0  0  0  0  0  0  0  0
  142.3956   77.5022  222.5806 H   0  0  0  0  0  0  0  0  0  0  0  0
  1  2  1  0
  2  3  1  0
  3  4  1  0
  4  5  2  0
  4  6  1  0
  6  7  2  0
  7  8  1  0
  8  9  1  0
  9 10  2  0
  9 11  1  0
 11 12  1  0
 12 13  2  0
 13 14  1  0
 14 15  2  0
 15 16  1  0
 16 17  2  0
 17 18  1  0
 18 19  1  0
 19 20  1  0
 20 21  2  3
  2 22  1  0
 22 23  2  0
 23 24  1  0
 24 25  2  0
 25 26  1  0
 26 27  2  0
 20  6  1  0
 27 22  1  0
 18  8  2  0
 16 11  1  0
  1 28  1  0
  1 29  1  0
  1 30  1  0
  2 31  1  6
  3 32  1  0
  7 33  1  0
 12 34  1  0
 13 35  1  0
 14 36  1  0
 15 37  1  0
 19 38  1  0
 21 39  1  0
 23 40  1  0
 24 41  1  0
 25 42  1  0
 26 43  1  0
 27 44  1  0
M  END
>  <smiles>  (2) 
C[C@H](NC(=O)c1cc2c(=O)n3ccccc3nc2[nH]c1=N)c1ccccc1

>  <score_type>  (2) 
oracle

>  <origin>  (2) 
autodockgpu

>  <m_score__min__energy>  (2) 
-8.0500000000000007

>  <m_primary>  (2) 
energy

>  <rmsd>  (2) 
4.999707121683654

>  <m_score__min__rmsd>  (2) 
4.999707121683654

>  <meeko>  (2) 
{"free_energy": -7.33, "intermolecular_energy": -8.53, "internal_energy": -0.99, "cluster_size": 41, "cluster_id": 1, "rank_in_cluster": 34}

>  <energy>  (2) 
-8.04

>  <cluster_rmsd>  (2) 
0.47

>  <cluster>  (2) 
1

$$$$

     RDKit          3D

 44 47  0  0  0  0  0  0  0  0999 V2000
  139.6510   77.0100  222.5020 C   0  0  0  0  0  0  0  0  0  0  0  0
  140.6280   77.7590  221.5540 C   0  0  2  0  0  0  0  0  0  0  0  0
  141.7180   76.8810  221.1710 N   0  0  0  0  0  0  0  0  0  0  0  0
  141.5010   75.5560  220.7570 C   0  0  0  0  0  0  0  0  0  0  0  0
  140.2660   75.1580  220.7500 O   0  0  0  0  0  0  0  0  0  0  0  0
  142.4770   74.5910  220.3370 C   0  0  0  0  0  0  0  0  0  0  0  0
  142.2820   73.2270  220.3840 C   0  0  0  0  0  0  0  0  0  0  0  0
  143.2340   72.3260  219.9770 C   0  0  0  0  0  0  0  0  0  0  0  0
  143.7170   75.0130  219.8440 C   0  0  0  0  0  0  0  0  0  0  0  0
  141.9940   70.4970  220.4690 O   0  0  0  0  0  0  0  0  0  0  0  0
  144.0880   70.1130  219.6420 N   0  0  0  0  0  0  0  0  0  0  0  0
  143.9580   68.7780  219.7230 C   0  0  0  0  0  0  0  0  0  0  0  0
  144.9660   67.9190  219.3470 C   0  0  0  0  0  0  0  0  0  0  0  0
  146.1640   68.3950  218.8670 C   0  0  0  0  0  0  0  0  0  0  0  0
  146.3040   69.7700  218.7820 C   0  0  0  0  0  0  0  0  0  0  0  0
  145.2610   70.6000  219.1740 C   0  0  0  0  0  0  0  0  0  0  0  0
  145.4350   71.9580  219.1010 N   0  0  0  0  0  0  0  0  0  0  0  0
  144.4550   72.7920  219.4910 C   0  0  0  0  0  0  0  0  0  0  0  0
  144.6610   74.1200  219.4380 N   0  0  0  0  0  0  0  0  0  0  0  0
  143.0760   70.9500  220.0400 C   0  0  0  0  0  0  0  0  0  0  0  0
  144.0730   76.2450  219.7580 N   0  0  0  0  0  0  0  0  0  0  0  0
  140.9910   79.0250  222.1460 C   0  0  0  0  0  0  0  0  0  0  0  0
  142.0210   79.0600  223.0920 C   0  0  0  0  0  0  0  0  0  0  0  0
  142.3890   80.2140  223.7190 C   0  0  0  0  0  0  0  0  0  0  0  0
  141.7760   81.4500  223.4740 C   0  0  0  0  0  0  0  0  0  0  0  0
  140.7450   81.4120  222.5240 C   0  0  0  0  0  0  0  0  0  0  0  0
  140.3810   80.2390  221.8950 C   0  0  0  0  0  0  0  0  0  0  0  0
  139.9226   77.2182  223.5474 H   0  0  0  0  0  0  0  0  0  0  0  0
  138.6229   77.3535  222.3149 H   0  0  0  0  0  0  0  0  0  0  0  0
  139.7158   75.9280  222.3149 H   0  0  0  0  0  0  0  0  0  0  0  0
  140.1551   78.0252  220.5972 H   0  0  0  0  0  0  0  0  0  0  0  0
  142.7170   77.2280  221.1990 H   0  0  0  0  0  0  0  0  0  0  0  0
  141.3230   72.8447  220.7637 H   0  0  0  0  0  0  0  0  0  0  0  0
  143.0149   68.3576  220.1023 H   0  0  0  0  0  0  0  0  0  0  0  0
  144.8107   66.8333  219.4319 H   0  0  0  0  0  0  0  0  0  0  0  0
  146.9737   67.7146  218.5646 H   0  0  0  0  0  0  0  0  0  0  0  0
  147.2409   70.2051  218.4041 H   0  0  0  0  0  0  0  0  0  0  0  0
  145.5870   74.4750  219.0610 H   0  0  0  0  0  0  0  0  0  0  0  0
  144.2660   76.8300  220.5700 H   0  0  0  0  0  0  0  0  0  0  0  0
  142.5506   78.1278  223.3378 H   0  0  0  0  0  0  0  0  0  0  0  0
  143.2072   80.1724  224.4530 H   0  0  0  0  0  0  0  0  0  0  0  0
  142.0790   82.3755  223.9856 H   0  0  0  0  0  0  0  0  0  0  0  0
  140.2126   82.3415  222.2738 H   0  0  0  0  0  0  0  0  0  0  0  0
  139.5653   80.2721  221.1577 H   0  0  0  0  0  0  0  0  0  0  0  0
  1  2  1  0
  2  3  1  0
  3  4  1  0
  4  5  2  0
  4  6  1  0
  6  7  2  0
  7  8  1  0
  8  9  1  0
  9 10  2  0
  9 11  1  0
 11 12  1  0
 12 13  2  0
 13 14  1  0
 14 15  2  0
 15 16  1  0
 16 17  2  0
 17 18  1  0
 18 19  1  0
 19 20  1  0
 20 21  2  3
  2 22  1  0
 22 23  2  0
 23 24  1  0
 24 25  2  0
 25 26  1  0
 26 27  2  0
 20  6  1  0
 27 22  1  0
 18  8  2  0
 16 11  1  0
  1 28  1  0
  1 29  1  0
  1 30  1  0
  2 31  1  6
  3 32  1  0
  7 33  1  0
 12 34  1  0
 13 35  1  0
 14 36  1  0
 15 37  1  0
 19 38  1  0
 21 39  1  0
 23 40  1  0
 24 41  1  0
 25 42  1  0
 26 43  1  0
 27 44  1  0
M  END
>  <smiles>  (3) 
C[C@H](NC(=O)c1cc2c(=O)n3ccccc3nc2[nH]c1=N)c1ccccc1

>  <score_type>  (3) 
oracle

>  <origin>  (3) 
autodockgpu

>  <m_score__min__energy>  (3) 
-8.0500000000000007

>  <m_primary>  (3) 
energy

>  <rmsd>  (3) 
4.702102550959289

>  <m_score__min__rmsd>  (3) 
4.702102550959289

>  <meeko>  (3) 
{"free_energy": -7.92, "intermolecular_energy": -9.12, "internal_energy": -0.59, "cluster_size": 41, "cluster_id": 1, "rank_in_cluster": 9}

>  <energy>  (3) 
-8.02

>  <cluster_rmsd>  (3) 
0.07

>  <cluster>  (3) 
1

$$$$

     RDKit          3D

 44 47  0  0  0  0  0  0  0  0999 V2000
  140.0650   78.7620  219.9010 C   0  0  0  0  0  0  0  0  0  0  0  0
  141.4160   78.2510  220.4730 C   0  0  2  0  0  0  0  0  0  0  0  0
  141.4250   76.8000  220.4990 N   0  0  0  0  0  0  0  0  0  0  0  0
  142.5440   76.0510  220.0990 C   0  0  0  0  0  0  0  0  0  0  0  0
  143.5690   76.7340  219.6920 O   0  0  0  0  0  0  0  0  0  0  0  0
  142.6950   74.6230  220.0920 C   0  0  0  0  0  0  0  0  0  0  0  0
  143.8630   73.9730  219.7540 C   0  0  0  0  0  0  0  0  0  0  0  0
  143.9790   72.6060  219.7540 C   0  0  0  0  0  0  0  0  0  0  0  0
  141.6180   73.7990  220.4400 C   0  0  0  0  0  0  0  0  0  0  0  0
  146.1360   72.5940  219.0690 O   0  0  0  0  0  0  0  0  0  0  0  0
  145.1600   70.5540  219.3870 N   0  0  0  0  0  0  0  0  0  0  0  0
  146.2620   69.8820  219.0120 C   0  0  0  0  0  0  0  0  0  0  0  0
  146.3070   68.5070  218.9830 C   0  0  0  0  0  0  0  0  0  0  0  0
  145.2150   67.7510  219.3390 C   0  0  0  0  0  0  0  0  0  0  0  0
  144.0760   68.4370  219.7250 C   0  0  0  0  0  0  0  0  0  0  0  0
  144.0740   69.8260  219.7390 C   0  0  0  0  0  0  0  0  0  0  0  0
  142.9250   70.4810  220.1040 N   0  0  0  0  0  0  0  0  0  0  0  0
  142.8800   71.8250  220.1100 C   0  0  0  0  0  0  0  0  0  0  0  0
  141.7330   72.4440  220.4430 N   0  0  0  0  0  0  0  0  0  0  0  0
  145.1320   71.9260  219.3910 C   0  0  0  0  0  0  0  0  0  0  0  0
  140.4530   74.2390  220.7540 N   0  0  0  0  0  0  0  0  0  0  0  0
  141.6930   78.9250  221.7190 C   0  0  0  0  0  0  0  0  0  0  0  0
  142.2540   80.2050  221.6860 C   0  0  0  0  0  0  0  0  0  0  0  0
  142.5770   80.8840  222.8250 C   0  0  0  0  0  0  0  0  0  0  0  0
  142.3770   80.3640  224.1100 C   0  0  0  0  0  0  0  0  0  0  0  0
  141.8130   79.0800  224.1400 C   0  0  0  0  0  0  0  0  0  0  0  0
  141.4890   78.4030  222.9820 C   0  0  0  0  0  0  0  0  0  0  0  0
  139.3890   79.0177  220.7302 H   0  0  0  0  0  0  0  0  0  0  0  0
  140.2425   79.6551  219.2839 H   0  0  0  0  0  0  0  0  0  0  0  0
  139.6070   77.9750  219.2839 H   0  0  0  0  0  0  0  0  0  0  0  0
  142.2658   78.5091  219.8239 H   0  0  0  0  0  0  0  0  0  0  0  0
  140.5700   76.2670  220.8240 H   0  0  0  0  0  0  0  0  0  0  0  0
  144.7389   74.5760  219.4724 H   0  0  0  0  0  0  0  0  0  0  0  0
  147.1573   70.4498  218.7186 H   0  0  0  0  0  0  0  0  0  0  0  0
  147.2333   68.0035  218.6694 H   0  0  0  0  0  0  0  0  0  0  0  0
  145.2450   66.6516  219.3181 H   0  0  0  0  0  0  0  0  0  0  0  0
  143.1732   67.8824  220.0204 H   0  0  0  0  0  0  0  0  0  0  0  0
  140.8990   71.8500  220.7210 H   0  0  0  0  0  0  0  0  0  0  0  0
  140.1600   74.4160  221.7140 H   0  0  0  0  0  0  0  0  0  0  0  0
  142.4410   80.6798  220.7115 H   0  0  0  0  0  0  0  0  0  0  0  0
  143.0156   81.8882  222.7291 H   0  0  0  0  0  0  0  0  0  0  0  0
  142.6411   80.9182  225.0228 H   0  0  0  0  0  0  0  0  0  0  0  0
  141.6241   78.6004  225.1117 H   0  0  0  0  0  0  0  0  0  0  0  0
  141.0470   77.3994  223.0685 H   0  0  0  0  0  0  0  0  0  0  0  0
  1  2  1  0
  2  3  1  0
  3  4  1  0
  4  5  2  0
  4  6  1  0
  6  7  2  0
  7  8  1  0
  8  9  1  0
  9 10  2  0
  9 11  1  0
 11 12  1  0
 12 13  2  0
 13 14  1  0
 14 15  2  0
 15 16  1  0
 16 17  2  0
 17 18  1  0
 18 19  1  0
 19 20  1  0
 20 21  2  3
  2 22  1  0
 22 23  2  0
 23 24  1  0
 24 25  2  0
 25 26  1  0
 26 27  2  0
 20  6  1  0
 27 22  1  0
 18  8  2  0
 16 11  1  0
  1 28  1  0
  1 29  1  0
  1 30  1  0
  2 31  1  6
  3 32  1  0
  7 33  1  0
 12 34  1  0
 13 35  1  0
 14 36  1  0
 15 37  1  0
 19 38  1  0
 21 39  1  0
 23 40  1  0
 24 41  1  0
 25 42  1  0
 26 43  1  0
 27 44  1  0
M  END
>  <smiles>  (4) 
C[C@H](NC(=O)c1cc2c(=O)n3ccccc3nc2[nH]c1=N)c1ccccc1

>  <score_type>  (4) 
oracle

>  <origin>  (4) 
autodockgpu

>  <m_score__min__energy>  (4) 
-8.0500000000000007

>  <m_primary>  (4) 
energy

>  <rmsd>  (4) 
4.827318875718249

>  <m_score__min__rmsd>  (4) 
4.827318875718249

>  <meeko>  (4) 
{"free_energy": -7.05, "intermolecular_energy": -8.24, "internal_energy": -0.92, "cluster_size": 9, "cluster_id": 2, "rank_in_cluster": 9}

>  <energy>  (4) 
-7.97

>  <cluster_rmsd>  (4) 
0.1

>  <cluster>  (4) 
1

$$$$

     RDKit          3D

 44 47  0  0  0  0  0  0  0  0999 V2000
  139.1650   76.7990  222.7010 C   0  0  0  0  0  0  0  0  0  0  0  0
  140.4030   77.3790  221.9630 C   0  0  2  0  0  0  0  0  0  0  0  0
  141.4100   76.3470  221.7990 N   0  0  0  0  0  0  0  0  0  0  0  0
  141.6550   75.7300  220.5610 C   0  0  0  0  0  0  0  0  0  0  0  0
  140.9170   76.1290  219.5720 O   0  0  0  0  0  0  0  0  0  0  0  0
  142.6250   74.7170  220.2570 C   0  0  0  0  0  0  0  0  0  0  0  0
  142.3340   73.3710  220.1770 C   0  0  0  0  0  0  0  0  0  0  0  0
  143.2820   72.4230  219.8850 C   0  0  0  0  0  0  0  0  0  0  0  0
  143.9590   75.0670  220.0200 C   0  0  0  0  0  0  0  0  0  0  0  0
  141.8550   70.6710  220.0260 O   0  0  0  0  0  0  0  0  0  0  0  0
  144.0330   70.1710  219.5590 N   0  0  0  0  0  0  0  0  0  0  0  0
  143.8030   68.8480  219.5250 C   0  0  0  0  0  0  0  0  0  0  0  0
  144.8030   67.9350  219.2770 C   0  0  0  0  0  0  0  0  0  0  0  0
  146.0970   68.3420  219.0500 C   0  0  0  0  0  0  0  0  0  0  0  0
  146.3410   69.7040  219.0840 C   0  0  0  0  0  0  0  0  0  0  0  0
  145.3020   70.5900  219.3390 C   0  0  0  0  0  0  0  0  0  0  0  0
  145.5760   71.9330  219.3900 N   0  0  0  0  0  0  0  0  0  0  0  0
  144.5990   72.8180  219.6550 C   0  0  0  0  0  0  0  0  0  0  0  0
  144.8990   74.1270  219.7280 N   0  0  0  0  0  0  0  0  0  0  0  0
  143.0250   71.0610  219.8270 C   0  0  0  0  0  0  0  0  0  0  0  0
  144.4050   76.2700  220.0810 N   0  0  0  0  0  0  0  0  0  0  0  0
  140.8210   78.5970  222.6150 C   0  0  0  0  0  0  0  0  0  0  0  0
  139.8460   79.4820  223.0860 C   0  0  0  0  0  0  0  0  0  0  0  0
  140.1700   80.6680  223.6770 C   0  0  0  0  0  0  0  0  0  0  0  0
  141.4900   81.0990  223.8620 C   0  0  0  0  0  0  0  0  0  0  0  0
  142.4660   80.2090  223.3900 C   0  0  0  0  0  0  0  0  0  0  0  0
  142.1270   79.0100  222.7940 C   0  0  0  0  0  0  0  0  0  0  0  0
  139.3189   76.8711  223.7878 H   0  0  0  0  0  0  0  0  0  0  0  0
  138.2687   77.3709  222.4189 H   0  0  0  0  0  0  0  0  0  0  0  0
  139.0308   75.7443  222.4189 H   0  0  0  0  0  0  0  0  0  0  0  0
  140.1667   77.6836  220.9328 H   0  0  0  0  0  0  0  0  0  0  0  0
  141.9890   76.0320  222.6270 H   0  0  0  0  0  0  0  0  0  0  0  0
  141.2989   73.0440  220.3547 H   0  0  0  0  0  0  0  0  0  0  0  0
  142.7809   68.4817  219.7013 H   0  0  0  0  0  0  0  0  0  0  0  0
  144.5630   66.8616  219.2601 H   0  0  0  0  0  0  0  0  0  0  0  0
  146.9011   67.6183  218.8506 H   0  0  0  0  0  0  0  0  0  0  0  0
  147.3580   70.0849  218.9090 H   0  0  0  0  0  0  0  0  0  0  0  0
  145.9000   74.4290  219.5450 H   0  0  0  0  0  0  0  0  0  0  0  0
  143.8020   77.0890  220.1450 H   0  0  0  0  0  0  0  0  0  0  0  0
  138.7849   79.2134  222.9765 H   0  0  0  0  0  0  0  0  0  0  0  0
  139.3542   81.3183  224.0257 H   0  0  0  0  0  0  0  0  0  0  0  0
  141.7409   82.0580  224.3389 H   0  0  0  0  0  0  0  0  0  0  0  0
  143.5285   80.4727  223.4972 H   0  0  0  0  0  0  0  0  0  0  0  0
  142.9364   78.3520  222.4449 H   0  0  0  0  0  0  0  0  0  0  0  0
  1  2  1  0
  2  3  1  0
  3  4  1  0
  4  5  2  0
  4  6  1  0
  6  7  2  0
  7  8  1  0
  8  9  1  0
  9 10  2  0
  9 11  1  0
 11 12  1  0
 12 13  2  0
 13 14  1  0
 14 15  2  0
 15 16  1  0
 16 17  2  0
 17 18  1  0
 18 19  1  0
 19 20  1  0
 20 21  2  3
  2 22  1  0
 22 23  2  0
 23 24  1  0
 24 25  2  0
 25 26  1  0
 26 27  2  0
 20  6  1  0
 27 22  1  0
 18  8  2  0
 16 11  1  0
  1 28  1  0
  1 29  1  0
  1 30  1  0
  2 31  1  6
  3 32  1  0
  7 33  1  0
 12 34  1  0
 13 35  1  0
 14 36  1  0
 15 37  1  0
 19 38  1  0
 21 39  1  0
 23 40  1  0
 24 41  1  0
 25 42  1  0
 26 43  1  0
 27 44  1  0
M  END
>  <smiles>  (5) 
C[C@H](NC(=O)c1cc2c(=O)n3ccccc3nc2[nH]c1=N)c1ccccc1

>  <score_type>  (5) 
oracle

>  <origin>  (5) 
autodockgpu

>  <m_score__min__energy>  (5) 
-8.0500000000000007

>  <m_primary>  (5) 
energy

>  <rmsd>  (5) 
4.779768126855012

>  <m_score__min__rmsd>  (5) 
4.779768126855012

>  <meeko>  (5) 
{"free_energy": -7.91, "intermolecular_energy": -9.1, "internal_energy": -0.38, "cluster_size": 41, "cluster_id": 1, "rank_in_cluster": 14}

>  <energy>  (5) 
-7.97

>  <cluster_rmsd>  (5) 
0.09

>  <cluster>  (5) 
1

$$$$

     RDKit          3D

 44 47  0  0  0  0  0  0  0  0999 V2000
  139.5610   76.8890  222.3970 C   0  0  0  0  0  0  0  0  0  0  0  0
  140.5790   77.6750  221.5250 C   0  0  2  0  0  0  0  0  0  0  0  0
  141.6860   76.8100  221.1570 N   0  0  0  0  0  0  0  0  0  0  0  0
  141.4900   75.4890  220.7230 C   0  0  0  0  0  0  0  0  0  0  0  0
  140.2600   75.0800  220.6830 O   0  0  0  0  0  0  0  0  0  0  0  0
  142.4850   74.5380  220.3140 C   0  0  0  0  0  0  0  0  0  0  0  0
  142.3080   73.1700  220.3610 C   0  0  0  0  0  0  0  0  0  0  0  0
  143.2780   72.2830  219.9650 C   0  0  0  0  0  0  0  0  0  0  0  0
  143.7240   74.9760  219.8330 C   0  0  0  0  0  0  0  0  0  0  0  0
  142.0590   70.4370  220.4450 O   0  0  0  0  0  0  0  0  0  0  0  0
  144.1660   70.0820  219.6410 N   0  0  0  0  0  0  0  0  0  0  0  0
  144.0550   68.7450  219.7220 C   0  0  0  0  0  0  0  0  0  0  0  0
  145.0800   67.9010  219.3580 C   0  0  0  0  0  0  0  0  0  0  0  0
  146.2750   68.3940  218.8900 C   0  0  0  0  0  0  0  0  0  0  0  0
  146.3960   69.7700  218.8050 C   0  0  0  0  0  0  0  0  0  0  0  0
  145.3380   70.5850  219.1850 C   0  0  0  0  0  0  0  0  0  0  0  0
  145.4920   71.9460  219.1120 N   0  0  0  0  0  0  0  0  0  0  0  0
  144.4970   72.7660  219.4900 C   0  0  0  0  0  0  0  0  0  0  0  0
  144.6840   74.0970  219.4390 N   0  0  0  0  0  0  0  0  0  0  0  0
  143.1390   70.9050  220.0280 C   0  0  0  0  0  0  0  0  0  0  0  0
  144.0620   76.2130  219.7500 N   0  0  0  0  0  0  0  0  0  0  0  0
  140.9150   78.9150  222.1830 C   0  0  0  0  0  0  0  0  0  0  0  0
  139.9180   79.6010  222.8840 C   0  0  0  0  0  0  0  0  0  0  0  0
  140.1550   80.7970  223.4960 C   0  0  0  0  0  0  0  0  0  0  0  0
  141.4030   81.4340  223.4770 C   0  0  0  0  0  0  0  0  0  0  0  0
  142.4010   80.7430  222.7750 C   0  0  0  0  0  0  0  0  0  0  0  0
  142.1500   79.5330  222.1600 C   0  0  0  0  0  0  0  0  0  0  0  0
  139.7815   77.0592  223.4612 H   0  0  0  0  0  0  0  0  0  0  0  0
  138.5416   77.2366  222.1736 H   0  0  0  0  0  0  0  0  0  0  0  0
  139.6393   75.8148  222.1736 H   0  0  0  0  0  0  0  0  0  0  0  0
  140.1494   77.9814  220.5598 H   0  0  0  0  0  0  0  0  0  0  0  0
  142.6800   77.1660  221.2110 H   0  0  0  0  0  0  0  0  0  0  0  0
  141.3506   72.7743  220.7309 H   0  0  0  0  0  0  0  0  0  0  0  0
  143.1142   68.3108  220.0913 H   0  0  0  0  0  0  0  0  0  0  0  0
  144.9404   66.8132  219.4431 H   0  0  0  0  0  0  0  0  0  0  0  0
  147.0975   67.7252  218.5965 H   0  0  0  0  0  0  0  0  0  0  0  0
  147.3305   70.2181  218.4363 H   0  0  0  0  0  0  0  0  0  0  0  0
  145.6090   74.4650  219.0700 H   0  0  0  0  0  0  0  0  0  0  0  0
  144.3700   76.7650  220.5490 H   0  0  0  0  0  0  0  0  0  0  0  0
  138.9110   79.1624  222.9438 H   0  0  0  0  0  0  0  0  0  0  0  0
  139.3264   81.2849  224.0302 H   0  0  0  0  0  0  0  0  0  0  0  0
  141.5852   82.3988  223.9730 H   0  0  0  0  0  0  0  0  0  0  0  0
  143.4101   81.1764  222.7128 H   0  0  0  0  0  0  0  0  0  0  0  0
  142.9736   79.0368  221.6256 H   0  0  0  0  0  0  0  0  0  0  0  0
  1  2  1  0
  2  3  1  0
  3  4  1  0
  4  5  2  0
  4  6  1  0
  6  7  2  0
  7  8  1  0
  8  9  1  0
  9 10  2  0
  9 11  1  0
 11 12  1  0
 12 13  2  0
 13 14  1  0
 14 15  2  0
 15 16  1  0
 16 17  2  0
 17 18  1  0
 18 19  1  0
 19 20  1  0
 20 21  2  3
  2 22  1  0
 22 23  2  0
 23 24  1  0
 24 25  2  0
 25 26  1  0
 26 27  2  0
 20  6  1  0
 27 22  1  0
 18  8  2  0
 16 11  1  0
  1 28  1  0
  1 29  1  0
  1 30  1  0
  2 31  1  6
  3 32  1  0
  7 33  1  0
 12 34  1  0
 13 35  1  0
 14 36  1  0
 15 37  1  0
 19 38  1  0
 21 39  1  0
 23 40  1  0
 24 41  1  0
 25 42  1  0
 26 43  1  0
 27 44  1  0
M  END
>  <smiles>  (6) 
C[C@H](NC(=O)c1cc2c(=O)n3ccccc3nc2[nH]c1=N)c1ccccc1

>  <score_type>  (6) 
oracle

>  <origin>  (6) 
autodockgpu

>  <m_score__min__energy>  (6) 
-8.0500000000000007

>  <m_primary>  (6) 
energy

>  <rmsd>  (6) 
4.628894696448423

>  <m_score__min__rmsd>  (6) 
4.628894696448423

>  <meeko>  (6) 
{"free_energy": -7.87, "intermolecular_energy": -9.07, "internal_energy": -0.54, "cluster_size": 41, "cluster_id": 1, "rank_in_cluster": 18}

>  <energy>  (6) 
-7.96

>  <cluster_rmsd>  (6) 
0.2

>  <cluster>  (6) 
1

$$$$

     RDKit          3D

 44 47  0  0  0  0  0  0  0  0999 V2000
  139.5080   76.9050  222.3800 C   0  0  0  0  0  0  0  0  0  0  0  0
  140.5370   77.6970  221.5270 C   0  0  2  0  0  0  0  0  0  0  0  0
  141.6510   76.8370  221.1720 N   0  0  0  0  0  0  0  0  0  0  0  0
  141.4680   75.5080  220.7570 C   0  0  0  0  0  0  0  0  0  0  0  0
  140.2410   75.0880  220.7220 O   0  0  0  0  0  0  0  0  0  0  0  0
  142.4710   74.5600  220.3620 C   0  0  0  0  0  0  0  0  0  0  0  0
  142.2900   73.1920  220.3850 C   0  0  0  0  0  0  0  0  0  0  0  0
  143.2680   72.3080  220.0040 C   0  0  0  0  0  0  0  0  0  0  0  0
  143.7240   75.0020  219.9220 C   0  0  0  0  0  0  0  0  0  0  0  0
  142.0320   70.4590  220.4250 O   0  0  0  0  0  0  0  0  0  0  0  0
  144.1600   70.1090  219.6730 N   0  0  0  0  0  0  0  0  0  0  0  0
  144.0430   68.7720  219.7330 C   0  0  0  0  0  0  0  0  0  0  0  0
  145.0750   67.9300  219.3850 C   0  0  0  0  0  0  0  0  0  0  0  0
  146.2840   68.4260  218.9560 C   0  0  0  0  0  0  0  0  0  0  0  0
  146.4110   69.8030  218.8940 C   0  0  0  0  0  0  0  0  0  0  0  0
  145.3440   70.6160  219.2560 C   0  0  0  0  0  0  0  0  0  0  0  0
  145.5040   71.9770  219.2070 N   0  0  0  0  0  0  0  0  0  0  0  0
  144.5000   72.7940  219.5690 C   0  0  0  0  0  0  0  0  0  0  0  0
  144.6920   74.1250  219.5410 N   0  0  0  0  0  0  0  0  0  0  0  0
  143.1240   70.9290  220.0440 C   0  0  0  0  0  0  0  0  0  0  0  0
  144.0670   76.2380  219.8650 N   0  0  0  0  0  0  0  0  0  0  0  0
  140.8590   78.9350  222.1960 C   0  0  0  0  0  0  0  0  0  0  0  0
  142.1890   79.3690  222.2150 C   0  0  0  0  0  0  0  0  0  0  0  0
  142.5690   80.5080  222.8610 C   0  0  0  0  0  0  0  0  0  0  0  0
  141.6740   81.3340  223.5530 C   0  0  0  0  0  0  0  0  0  0  0  0
  140.3410   80.8970  223.5320 C   0  0  0  0  0  0  0  0  0  0  0  0
  139.9660   79.7430  222.8740 C   0  0  0  0  0  0  0  0  0  0  0  0
  139.7164   77.0654  223.4481 H   0  0  0  0  0  0  0  0  0  0  0  0
  138.4917   77.2562  222.1479 H   0  0  0  0  0  0  0  0  0  0  0  0
  139.5873   75.8327  222.1479 H   0  0  0  0  0  0  0  0  0  0  0  0
  140.1221   78.0063  220.5563 H   0  0  0  0  0  0  0  0  0  0  0  0
  142.6430   77.2020  221.2220 H   0  0  0  0  0  0  0  0  0  0  0  0
  141.3218   72.7938  220.7227 H   0  0  0  0  0  0  0  0  0  0  0  0
  143.0915   68.3358  220.0713 H   0  0  0  0  0  0  0  0  0  0  0  0
  144.9302   66.8416  219.4512 H   0  0  0  0  0  0  0  0  0  0  0  0
  147.1122   67.7589  218.6750 H   0  0  0  0  0  0  0  0  0  0  0  0
  147.3566   70.2536  218.5582 H   0  0  0  0  0  0  0  0  0  0  0  0
  145.6280   74.4950  219.2030 H   0  0  0  0  0  0  0  0  0  0  0  0
  144.1680   76.8300  220.6880 H   0  0  0  0  0  0  0  0  0  0  0  0
  142.9517   78.7728  221.6926 H   0  0  0  0  0  0  0  0  0  0  0  0
  143.6313   80.7924  222.8376 H   0  0  0  0  0  0  0  0  0  0  0  0
  141.9907   82.2512  224.0710 H   0  0  0  0  0  0  0  0  0  0  0  0
  139.5748   81.4894  224.0535 H   0  0  0  0  0  0  0  0  0  0  0  0
  138.9052   79.4525  222.8900 H   0  0  0  0  0  0  0  0  0  0  0  0
  1  2  1  0
  2  3  1  0
  3  4  1  0
  4  5  2  0
  4  6  1  0
  6  7  2  0
  7  8  1  0
  8  9  1  0
  9 10  2  0
  9 11  1  0
 11 12  1  0
 12 13  2  0
 13 14  1  0
 14 15  2  0
 15 16  1  0
 16 17  2  0
 17 18  1  0
 18 19  1  0
 19 20  1  0
 20 21  2  3
  2 22  1  0
 22 23  2  0
 23 24  1  0
 24 25  2  0
 25 26  1  0
 26 27  2  0
 20  6  1  0
 27 22  1  0
 18  8  2  0
 16 11  1  0
  1 28  1  0
  1 29  1  0
  1 30  1  0
  2 31  1  6
  3 32  1  0
  7 33  1  0
 12 34  1  0
 13 35  1  0
 14 36  1  0
 15 37  1  0
 19 38  1  0
 21 39  1  0
 23 40  1  0
 24 41  1  0
 25 42  1  0
 26 43  1  0
 27 44  1  0
M  END
>  <smiles>  (7) 
C[C@H](NC(=O)c1cc2c(=O)n3ccccc3nc2[nH]c1=N)c1ccccc1

>  <score_type>  (7) 
oracle

>  <origin>  (7) 
autodockgpu

>  <m_score__min__energy>  (7) 
-8.0500000000000007

>  <m_primary>  (7) 
energy

>  <rmsd>  (7) 
4.875579673056445

>  <m_score__min__rmsd>  (7) 
4.875579673056445

>  <meeko>  (7) 
{"free_energy": -8.02, "intermolecular_energy": -9.21, "internal_energy": -0.53, "cluster_size": 41, "cluster_id": 1, "rank_in_cluster": 3}

>  <energy>  (7) 
-7.95

>  <cluster_rmsd>  (7) 
0.11

>  <cluster>  (7) 
1

$$$$

     RDKit          3D

 44 47  0  0  0  0  0  0  0  0999 V2000
  139.3720   76.6980  222.3550 C   0  0  0  0  0  0  0  0  0  0  0  0
  140.4570   77.4890  221.5720 C   0  0  2  0  0  0  0  0  0  0  0  0
  141.5860   76.6250  221.2820 N   0  0  0  0  0  0  0  0  0  0  0  0
  141.4290   75.3600  220.6920 C   0  0  0  0  0  0  0  0  0  0  0  0
  140.2100   75.0020  220.4330 O   0  0  0  0  0  0  0  0  0  0  0  0
  142.4530   74.4180  220.3370 C   0  0  0  0  0  0  0  0  0  0  0  0
  142.2550   73.0550  220.2710 C   0  0  0  0  0  0  0  0  0  0  0  0
  143.2530   72.1760  219.9310 C   0  0  0  0  0  0  0  0  0  0  0  0
  143.7440   74.8620  220.0330 C   0  0  0  0  0  0  0  0  0  0  0  0
  141.9640   70.3270  220.1430 O   0  0  0  0  0  0  0  0  0  0  0  0
  144.1460   69.9830  219.5640 N   0  0  0  0  0  0  0  0  0  0  0  0
  144.0100   68.6470  219.5420 C   0  0  0  0  0  0  0  0  0  0  0  0
  145.0590   67.8080  219.2420 C   0  0  0  0  0  0  0  0  0  0  0  0
  146.3070   68.3060  218.9480 C   0  0  0  0  0  0  0  0  0  0  0  0
  146.4540   69.6820  218.9710 C   0  0  0  0  0  0  0  0  0  0  0  0
  145.3680   70.4920  219.2800 C   0  0  0  0  0  0  0  0  0  0  0  0
  145.5470   71.8510  219.3180 N   0  0  0  0  0  0  0  0  0  0  0  0
  144.5240   72.6640  219.6330 C   0  0  0  0  0  0  0  0  0  0  0  0
  144.7330   73.9920  219.6930 N   0  0  0  0  0  0  0  0  0  0  0  0
  143.0910   70.7990  219.8850 C   0  0  0  0  0  0  0  0  0  0  0  0
  144.1050   76.0950  220.0720 N   0  0  0  0  0  0  0  0  0  0  0  0
  140.7430   78.7220  222.2660 C   0  0  0  0  0  0  0  0  0  0  0  0
  139.6890   79.4260  222.8580 C   0  0  0  0  0  0  0  0  0  0  0  0
  139.8820   80.6170  223.4950 C   0  0  0  0  0  0  0  0  0  0  0  0
  141.1360   81.2310  223.6120 C   0  0  0  0  0  0  0  0  0  0  0  0
  142.1900   80.5220  223.0180 C   0  0  0  0  0  0  0  0  0  0  0  0
  141.9840   79.3170  222.3770 C   0  0  0  0  0  0  0  0  0  0  0  0
  139.5382   76.8192  223.4356 H   0  0  0  0  0  0  0  0  0  0  0  0
  138.3759   77.0833  222.0918 H   0  0  0  0  0  0  0  0  0  0  0  0
  139.4341   75.6318  222.0918 H   0  0  0  0  0  0  0  0  0  0  0  0
  140.1050   77.8056  220.5791 H   0  0  0  0  0  0  0  0  0  0  0  0
  142.5700   76.9370  221.5170 H   0  0  0  0  0  0  0  0  0  0  0  0
  141.2561   72.6556  220.5003 H   0  0  0  0  0  0  0  0  0  0  0  0
  143.0275   68.2087  219.7714 H   0  0  0  0  0  0  0  0  0  0  0  0
  144.8965   66.7201  219.2373 H   0  0  0  0  0  0  0  0  0  0  0  0
  147.1493   67.6413  218.7058 H   0  0  0  0  0  0  0  0  0  0  0  0
  147.4307   70.1345  218.7446 H   0  0  0  0  0  0  0  0  0  0  0  0
  145.6990   74.3640  219.4590 H   0  0  0  0  0  0  0  0  0  0  0  0
  143.5350   76.8330  220.4820 H   0  0  0  0  0  0  0  0  0  0  0  0
  138.6734   79.0064  222.8084 H   0  0  0  0  0  0  0  0  0  0  0  0
  139.0101   81.1200  223.9386 H   0  0  0  0  0  0  0  0  0  0  0  0
  141.2819   82.1914  224.1280 H   0  0  0  0  0  0  0  0  0  0  0  0
  143.2077   80.9370  223.0641 H   0  0  0  0  0  0  0  0  0  0  0  0
  142.8509   78.8058  221.9329 H   0  0  0  0  0  0  0  0  0  0  0  0
  1  2  1  0
  2  3  1  0
  3  4  1  0
  4  5  2  0
  4  6  1  0
  6  7  2  0
  7  8  1  0
  8  9  1  0
  9 10  2  0
  9 11  1  0
 11 12  1  0
 12 13  2  0
 13 14  1  0
 14 15  2  0
 15 16  1  0
 16 17  2  0
 17 18  1  0
 18 19  1  0
 19 20  1  0
 20 21  2  3
  2 22  1  0
 22 23  2  0
 23 24  1  0
 24 25  2  0
 25 26  1  0
 26 27  2  0
 20  6  1  0
 27 22  1  0
 18  8  2  0
 16 11  1  0
  1 28  1  0
  1 29  1  0
  1 30  1  0
  2 31  1  6
  3 32  1  0
  7 33  1  0
 12 34  1  0
 13 35  1  0
 14 36  1  0
 15 37  1  0
 19 38  1  0
 21 39  1  0
 23 40  1  0
 24 41  1  0
 25 42  1  0
 26 43  1  0
 27 44  1  0
M  END
>  <smiles>  (8) 
C[C@H](NC(=O)c1cc2c(=O)n3ccccc3nc2[nH]c1=N)c1ccccc1

>  <score_type>  (8) 
oracle

>  <origin>  (8) 
autodockgpu

>  <m_score__min__energy>  (8) 
-8.0500000000000007

>  <m_primary>  (8) 
energy

>  <rmsd>  (8) 
4.726983054872992

>  <m_score__min__rmsd>  (8) 
4.726983054872992

>  <meeko>  (8) 
{"free_energy": -7.74, "intermolecular_energy": -8.94, "internal_energy": -0.58, "cluster_size": 41, "cluster_id": 1, "rank_in_cluster": 24}

>  <energy>  (8) 
-7.94

>  <cluster_rmsd>  (8) 
0.27

>  <cluster>  (8) 
1

$$$$

     RDKit          3D

 44 47  0  0  0  0  0  0  0  0999 V2000
  138.4900   76.2940  222.7100 C   0  0  0  0  0  0  0  0  0  0  0  0
  139.7130   76.7800  221.8840 C   0  0  2  0  0  0  0  0  0  0  0  0
  140.6100   75.6680  221.6260 N   0  0  0  0  0  0  0  0  0  0  0  0
  141.6590   75.7540  220.6960 C   0  0  0  0  0  0  0  0  0  0  0  0
  141.7720   76.8840  220.0700 O   0  0  0  0  0  0  0  0  0  0  0  0
  142.6240   74.7460  220.3580 C   0  0  0  0  0  0  0  0  0  0  0  0
  142.3430   73.3960  220.3100 C   0  0  0  0  0  0  0  0  0  0  0  0
  143.2850   72.4540  219.9860 C   0  0  0  0  0  0  0  0  0  0  0  0
  143.9410   75.1060  220.0540 C   0  0  0  0  0  0  0  0  0  0  0  0
  141.8840   70.6910  220.2160 O   0  0  0  0  0  0  0  0  0  0  0  0
  144.0430   70.2050  219.6520 N   0  0  0  0  0  0  0  0  0  0  0  0
  143.8240   68.8790  219.6470 C   0  0  0  0  0  0  0  0  0  0  0  0
  144.8210   67.9730  219.3630 C   0  0  0  0  0  0  0  0  0  0  0  0
  146.0980   68.3890  219.0690 C   0  0  0  0  0  0  0  0  0  0  0  0
  146.3300   69.7540  219.0740 C   0  0  0  0  0  0  0  0  0  0  0  0
  145.2950   70.6330  219.3670 C   0  0  0  0  0  0  0  0  0  0  0  0
  145.5580   71.9790  219.3870 N   0  0  0  0  0  0  0  0  0  0  0  0
  144.5860   72.8580  219.6870 C   0  0  0  0  0  0  0  0  0  0  0  0
  144.8760   74.1710  219.7300 N   0  0  0  0  0  0  0  0  0  0  0  0
  143.0390   71.0890  219.9570 C   0  0  0  0  0  0  0  0  0  0  0  0
  144.3780   76.3140  220.0790 N   0  0  0  0  0  0  0  0  0  0  0  0
  140.2860   77.9430  222.5200 C   0  0  0  0  0  0  0  0  0  0  0  0
  139.6560   79.1810  222.3610 C   0  0  0  0  0  0  0  0  0  0  0  0
  140.1640   80.3260  222.9010 C   0  0  0  0  0  0  0  0  0  0  0  0
  141.3450   80.3630  223.6520 C   0  0  0  0  0  0  0  0  0  0  0  0
  141.9750   79.1190  223.8100 C   0  0  0  0  0  0  0  0  0  0  0  0
  141.4520   77.9660  223.2610 C   0  0  0  0  0  0  0  0  0  0  0  0
  138.7138   76.3829  223.7833 H   0  0  0  0  0  0  0  0  0  0  0  0
  137.6135   76.9122  222.4657 H   0  0  0  0  0  0  0  0  0  0  0  0
  138.2769   75.2428  222.4657 H   0  0  0  0  0  0  0  0  0  0  0  0
  139.4254   77.1255  220.8801 H   0  0  0  0  0  0  0  0  0  0  0  0
  140.4860   74.7530  222.1420 H   0  0  0  0  0  0  0  0  0  0  0  0
  141.3209   73.0617  220.5413 H   0  0  0  0  0  0  0  0  0  0  0  0
  142.8154   68.5054  219.8773 H   0  0  0  0  0  0  0  0  0  0  0  0
  144.5918   66.8972  219.3715 H   0  0  0  0  0  0  0  0  0  0  0  0
  146.8987   67.6703  218.8403 H   0  0  0  0  0  0  0  0  0  0  0  0
  147.3336   70.1423  218.8460 H   0  0  0  0  0  0  0  0  0  0  0  0
  145.8640   74.4800  219.4960 H   0  0  0  0  0  0  0  0  0  0  0  0
  143.7760   77.1240  220.2220 H   0  0  0  0  0  0  0  0  0  0  0  0
  138.7218   79.2333  221.7825 H   0  0  0  0  0  0  0  0  0  0  0  0
  139.6185   81.2673  222.7383 H   0  0  0  0  0  0  0  0  0  0  0  0
  141.7465   81.2919  224.0832 H   0  0  0  0  0  0  0  0  0  0  0  0
  142.9101   79.0615  224.3865 H   0  0  0  0  0  0  0  0  0  0  0  0
  141.9893   77.0196  223.4210 H   0  0  0  0  0  0  0  0  0  0  0  0
  1  2  1  0
  2  3  1  0
  3  4  1  0
  4  5  2  0
  4  6  1  0
  6  7  2  0
  7  8  1  0
  8  9  1  0
  9 10  2  0
  9 11  1  0
 11 12  1  0
 12 13  2  0
 13 14  1  0
 14 15  2  0
 15 16  1  0
 16 17  2  0
 17 18  1  0
 18 19  1  0
 19 20  1  0
 20 21  2  3
  2 22  1  0
 22 23  2  0
 23 24  1  0
 24 25  2  0
 25 26  1  0
 26 27  2  0
 20  6  1  0
 27 22  1  0
 18  8  2  0
 16 11  1  0
  1 28  1  0
  1 29  1  0
  1 30  1  0
  2 31  1  6
  3 32  1  0
  7 33  1  0
 12 34  1  0
 13 35  1  0
 14 36  1  0
 15 37  1  0
 19 38  1  0
 21 39  1  0
 23 40  1  0
 24 41  1  0
 25 42  1  0
 26 43  1  0
 27 44  1  0
M  END
>  <smiles>  (9) 
C[C@H](NC(=O)c1cc2c(=O)n3ccccc3nc2[nH]c1=N)c1ccccc1

>  <score_type>  (9) 
oracle

>  <origin>  (9) 
autodockgpu

>  <m_score__min__energy>  (9) 
-8.0500000000000007

>  <m_primary>  (9) 
energy

>  <rmsd>  (9) 
5.109149338644006

>  <m_score__min__rmsd>  (9) 
5.109149338644006

>  <meeko>  (9) 
{"free_energy": -7.29, "intermolecular_energy": -8.48, "internal_energy": -0.99, "cluster_size": 41, "cluster_id": 1, "rank_in_cluster": 40}

>  <energy>  (9) 
-7.92

>  <cluster_rmsd>  (9) 
0.37

>  <cluster>  (9) 
1

$$$$

     RDKit          3D

 44 47  0  0  0  0  0  0  0  0999 V2000
  139.6040   76.7620  222.3880 C   0  0  0  0  0  0  0  0  0  0  0  0
  140.5950   77.5080  221.4520 C   0  0  2  0  0  0  0  0  0  0  0  0
  141.6940   76.6300  221.0940 N   0  0  0  0  0  0  0  0  0  0  0  0
  141.4860   75.3080  220.6670 C   0  0  0  0  0  0  0  0  0  0  0  0
  140.2510   74.9120  220.6240 O   0  0  0  0  0  0  0  0  0  0  0  0
  142.4720   74.3440  220.2670 C   0  0  0  0  0  0  0  0  0  0  0  0
  142.2770   72.9790  220.3130 C   0  0  0  0  0  0  0  0  0  0  0  0
  143.2380   72.0790  219.9260 C   0  0  0  0  0  0  0  0  0  0  0  0
  143.7210   74.7660  219.7980 C   0  0  0  0  0  0  0  0  0  0  0  0
  141.9910   70.2500  220.3960 O   0  0  0  0  0  0  0  0  0  0  0  0
  144.1010   69.8660  219.6110 N   0  0  0  0  0  0  0  0  0  0  0  0
  143.9720   68.5310  219.6910 C   0  0  0  0  0  0  0  0  0  0  0  0
  144.9880   67.6740  219.3370 C   0  0  0  0  0  0  0  0  0  0  0  0
  146.1940   68.1500  218.8800 C   0  0  0  0  0  0  0  0  0  0  0  0
  146.3350   69.5250  218.7960 C   0  0  0  0  0  0  0  0  0  0  0  0
  145.2830   70.3540  219.1660 C   0  0  0  0  0  0  0  0  0  0  0  0
  145.4560   71.7130  219.0940 N   0  0  0  0  0  0  0  0  0  0  0  0
  144.4680   72.5460  219.4630 C   0  0  0  0  0  0  0  0  0  0  0  0
  144.6730   73.8740  219.4130 N   0  0  0  0  0  0  0  0  0  0  0  0
  143.0810   70.7030  219.9880 C   0  0  0  0  0  0  0  0  0  0  0  0
  144.0760   75.9980  219.7180 N   0  0  0  0  0  0  0  0  0  0  0  0
  140.9450   78.7790  222.0420 C   0  0  0  0  0  0  0  0  0  0  0  0
  141.7470   78.7960  223.1870 C   0  0  0  0  0  0  0  0  0  0  0  0
  142.0840   79.9570  223.8190 C   0  0  0  0  0  0  0  0  0  0  0  0
  141.6610   81.2190  223.3810 C   0  0  0  0  0  0  0  0  0  0  0  0
  140.8580   81.1990  222.2320 C   0  0  0  0  0  0  0  0  0  0  0  0
  140.5240   80.0180  221.6000 C   0  0  0  0  0  0  0  0  0  0  0  0
  139.8693   76.9617  223.4367 H   0  0  0  0  0  0  0  0  0  0  0  0
  138.5805   77.1157  222.1949 H   0  0  0  0  0  0  0  0  0  0  0  0
  139.6608   75.6806  222.1949 H   0  0  0  0  0  0  0  0  0  0  0  0
  140.1376   77.7672  220.4857 H   0  0  0  0  0  0  0  0  0  0  0  0
  142.6920   76.9750  221.1500 H   0  0  0  0  0  0  0  0  0  0  0  0
  141.3113   72.5962  220.6748 H   0  0  0  0  0  0  0  0  0  0  0  0
  143.0222   68.1093  220.0516 H   0  0  0  0  0  0  0  0  0  0  0  0
  144.8327   66.5883  219.4211 H   0  0  0  0  0  0  0  0  0  0  0  0
  147.0097   67.4697  218.5941 H   0  0  0  0  0  0  0  0  0  0  0  0
  147.2790   69.9606  218.4367 H   0  0  0  0  0  0  0  0  0  0  0  0
  145.6060   74.2300  219.0530 H   0  0  0  0  0  0  0  0  0  0  0  0
  144.4690   76.4140  218.8750 H   0  0  0  0  0  0  0  0  0  0  0  0
  142.1182   77.8427  223.5912 H   0  0  0  0  0  0  0  0  0  0  0  0
  142.7185   79.8997  224.7158 H   0  0  0  0  0  0  0  0  0  0  0  0
  141.9368   82.1504  223.8971 H   0  0  0  0  0  0  0  0  0  0  0  0
  140.4842   82.1494  221.8233 H   0  0  0  0  0  0  0  0  0  0  0  0
  139.8920   80.0660  220.7010 H   0  0  0  0  0  0  0  0  0  0  0  0
  1  2  1  0
  2  3  1  0
  3  4  1  0
  4  5  2  0
  4  6  1  0
  6  7  2  0
  7  8  1  0
  8  9  1  0
  9 10  2  0
  9 11  1  0
 11 12  1  0
 12 13  2  0
 13 14  1  0
 14 15  2  0
 15 16  1  0
 16 17  2  0
 17 18  1  0
 18 19  1  0
 19 20  1  0
 20 21  2  3
  2 22  1  0
 22 23  2  0
 23 24  1  0
 24 25  2  0
 25 26  1  0
 26 27  2  0
 20  6  1  0
 27 22  1  0
 18  8  2  0
 16 11  1  0
  1 28  1  0
  1 29  1  0
  1 30  1  0
  2 31  1  6
  3 32  1  0
  7 33  1  0
 12 34  1  0
 13 35  1  0
 14 36  1  0
 15 37  1  0
 19 38  1  0
 21 39  1  0
 23 40  1  0
 24 41  1  0
 25 42  1  0
 26 43  1  0
 27 44  1  0
M  END
>  <smiles>  (10) 
C[C@H](NC(=O)c1cc2c(=O)n3ccccc3nc2[nH]c1=N)c1ccccc1

>  <score_type>  (10) 
oracle

>  <origin>  (10) 
autodockgpu

>  <m_score__min__energy>  (10) 
-8.0500000000000007

>  <m_primary>  (10) 
energy

>  <rmsd>  (10) 
4.783374255005111

>  <m_score__min__rmsd>  (10) 
4.783374255005111

>  <meeko>  (10) 
{"free_energy": -7.63, "intermolecular_energy": -8.82, "internal_energy": -0.62, "cluster_size": 41, "cluster_id": 1, "rank_in_cluster": 30}

>  <energy>  (10) 
-7.92

>  <cluster_rmsd>  (10) 
0.44

>  <cluster>  (10) 
1

$$$$

     RDKit          3D

 44 47  0  0  0  0  0  0  0  0999 V2000
  139.7400   77.1300  222.4580 C   0  0  0  0  0  0  0  0  0  0  0  0
  140.7370   77.8370  221.4980 C   0  0  2  0  0  0  0  0  0  0  0  0
  141.8250   76.9370  221.1650 N   0  0  0  0  0  0  0  0  0  0  0  0
  141.6020   75.6080  220.7680 C   0  0  0  0  0  0  0  0  0  0  0  0
  140.3630   75.2270  220.7300 O   0  0  0  0  0  0  0  0  0  0  0  0
  142.5770   74.6220  220.3950 C   0  0  0  0  0  0  0  0  0  0  0  0
  142.3370   73.2640  220.3910 C   0  0  0  0  0  0  0  0  0  0  0  0
  143.2890   72.3430  220.0320 C   0  0  0  0  0  0  0  0  0  0  0  0
  143.8630   75.0150  220.0070 C   0  0  0  0  0  0  0  0  0  0  0  0
  141.9600   70.5440  220.3810 O   0  0  0  0  0  0  0  0  0  0  0  0
  144.0970   70.1120  219.7010 N   0  0  0  0  0  0  0  0  0  0  0  0
  143.9200   68.7800  219.7360 C   0  0  0  0  0  0  0  0  0  0  0  0
  144.9270   67.8990  219.4130 C   0  0  0  0  0  0  0  0  0  0  0  0
  146.1710   68.3470  219.0360 C   0  0  0  0  0  0  0  0  0  0  0  0
  146.3590   69.7180  218.9990 C   0  0  0  0  0  0  0  0  0  0  0  0
  145.3160   70.5720  219.3340 C   0  0  0  0  0  0  0  0  0  0  0  0
  145.5360   71.9250  219.3110 N   0  0  0  0  0  0  0  0  0  0  0  0
  144.5560   72.7800  219.6490 C   0  0  0  0  0  0  0  0  0  0  0  0
  144.8060   74.1020  219.6480 N   0  0  0  0  0  0  0  0  0  0  0  0
  143.0840   70.9710  220.0460 C   0  0  0  0  0  0  0  0  0  0  0  0
  144.2610   76.2360  219.9800 N   0  0  0  0  0  0  0  0  0  0  0  0
  141.1010   79.1210  222.0490 C   0  0  0  0  0  0  0  0  0  0  0  0
  141.8500   79.1640  223.2290 C   0  0  0  0  0  0  0  0  0  0  0  0
  142.1950   80.3410  223.8250 C   0  0  0  0  0  0  0  0  0  0  0  0
  141.8360   81.5950  223.3140 C   0  0  0  0  0  0  0  0  0  0  0  0
  141.0850   81.5490  222.1300 C   0  0  0  0  0  0  0  0  0  0  0  0
  140.7420   80.3520  221.5340 C   0  0  0  0  0  0  0  0  0  0  0  0
  140.0273   77.3338  223.5001 H   0  0  0  0  0  0  0  0  0  0  0  0
  138.7240   77.5106  222.2767 H   0  0  0  0  0  0  0  0  0  0  0  0
  139.7630   76.0453  222.2767 H   0  0  0  0  0  0  0  0  0  0  0  0
  140.2812   78.0721  220.5249 H   0  0  0  0  0  0  0  0  0  0  0  0
  142.8280   77.2700  221.2170 H   0  0  0  0  0  0  0  0  0  0  0  0
  141.3409   72.9040  220.6880 H   0  0  0  0  0  0  0  0  0  0  0  0
  142.9386   68.3811  220.0323 H   0  0  0  0  0  0  0  0  0  0  0  0
  144.7330   66.8171  219.4573 H   0  0  0  0  0  0  0  0  0  0  0  0
  146.9797   67.6482  218.7758 H   0  0  0  0  0  0  0  0  0  0  0  0
  147.3348   70.1313  218.7041 H   0  0  0  0  0  0  0  0  0  0  0  0
  145.7680   74.4360  219.3490 H   0  0  0  0  0  0  0  0  0  0  0  0
  144.4240   76.7910  220.8190 H   0  0  0  0  0  0  0  0  0  0  0  0
  142.1710   78.2187  223.6910 H   0  0  0  0  0  0  0  0  0  0  0  0
  142.7844   80.3039  224.7530 H   0  0  0  0  0  0  0  0  0  0  0  0
  142.1200   82.5392  223.8016 H   0  0  0  0  0  0  0  0  0  0  0  0
  140.7610   82.4914  221.6643 H   0  0  0  0  0  0  0  0  0  0  0  0
  140.1546   80.3794  220.6044 H   0  0  0  0  0  0  0  0  0  0  0  0
  1  2  1  0
  2  3  1  0
  3  4  1  0
  4  5  2  0
  4  6  1  0
  6  7  2  0
  7  8  1  0
  8  9  1  0
  9 10  2  0
  9 11  1  0
 11 12  1  0
 12 13  2  0
 13 14  1  0
 14 15  2  0
 15 16  1  0
 16 17  2  0
 17 18  1  0
 18 19  1  0
 19 20  1  0
 20 21  2  3
  2 22  1  0
 22 23  2  0
 23 24  1  0
 24 25  2  0
 25 26  1  0
 26 27  2  0
 20  6  1  0
 27 22  1  0
 18  8  2  0
 16 11  1  0
  1 28  1  0
  1 29  1  0
  1 30  1  0
  2 31  1  6
  3 32  1  0
  7 33  1  0
 12 34  1  0
 13 35  1  0
 14 36  1  0
 15 37  1  0
 19 38  1  0
 21 39  1  0
 23 40  1  0
 24 41  1  0
 25 42  1  0
 26 43  1  0
 27 44  1  0
M  END
>  <smiles>  (11) 
C[C@H](NC(=O)c1cc2c(=O)n3ccccc3nc2[nH]c1=N)c1ccccc1

>  <score_type>  (11) 
oracle

>  <origin>  (11) 
autodockgpu

>  <m_score__min__energy>  (11) 
-8.0500000000000007

>  <m_primary>  (11) 
energy

>  <rmsd>  (11) 
4.638164150362471

>  <m_score__min__rmsd>  (11) 
4.638164150362471

>  <meeko>  (11) 
{"free_energy": -7.83, "intermolecular_energy": -9.02, "internal_energy": -0.65, "cluster_size": 41, "cluster_id": 1, "rank_in_cluster": 21}

>  <energy>  (11) 
-7.91

>  <cluster_rmsd>  (11) 
0.21

>  <cluster>  (11) 
1

$$$$

     RDKit          3D

 44 47  0  0  0  0  0  0  0  0999 V2000
  139.4260   76.7350  222.4410 C   0  0  0  0  0  0  0  0  0  0  0  0
  140.4510   77.5210  221.5770 C   0  0  2  0  0  0  0  0  0  0  0  0
  141.5740   76.6660  221.2410 N   0  0  0  0  0  0  0  0  0  0  0  0
  141.4020   75.3420  220.8020 C   0  0  0  0  0  0  0  0  0  0  0  0
  140.1760   74.9240  220.7270 O   0  0  0  0  0  0  0  0  0  0  0  0
  142.4150   74.3990  220.4220 C   0  0  0  0  0  0  0  0  0  0  0  0
  142.2220   73.0340  220.3870 C   0  0  0  0  0  0  0  0  0  0  0  0
  143.2100   72.1540  220.0210 C   0  0  0  0  0  0  0  0  0  0  0  0
  143.6910   74.8440  220.0580 C   0  0  0  0  0  0  0  0  0  0  0  0
  141.9400   70.3030  220.3160 O   0  0  0  0  0  0  0  0  0  0  0  0
  144.0990   69.9590  219.6550 N   0  0  0  0  0  0  0  0  0  0  0  0
  143.9680   68.6220  219.6600 C   0  0  0  0  0  0  0  0  0  0  0  0
  145.0090   67.7830  219.3320 C   0  0  0  0  0  0  0  0  0  0  0  0
  146.2410   68.2820  218.9810 C   0  0  0  0  0  0  0  0  0  0  0  0
  146.3820   69.6590  218.9740 C   0  0  0  0  0  0  0  0  0  0  0  0
  145.3060   70.4690  219.3140 C   0  0  0  0  0  0  0  0  0  0  0  0
  145.4790   71.8290  219.3210 N   0  0  0  0  0  0  0  0  0  0  0  0
  144.4660   72.6430  219.6640 C   0  0  0  0  0  0  0  0  0  0  0  0
  144.6700   73.9720  219.6930 N   0  0  0  0  0  0  0  0  0  0  0  0
  143.0530   70.7760  220.0040 C   0  0  0  0  0  0  0  0  0  0  0  0
  144.0470   76.0790  220.0620 N   0  0  0  0  0  0  0  0  0  0  0  0
  140.7600   78.7740  222.2250 C   0  0  0  0  0  0  0  0  0  0  0  0
  142.0900   79.2030  222.2720 C   0  0  0  0  0  0  0  0  0  0  0  0
  142.4570   80.3560  222.9000 C   0  0  0  0  0  0  0  0  0  0  0  0
  141.5460   81.2020  223.5460 C   0  0  0  0  0  0  0  0  0  0  0  0
  140.2130   80.7700  223.4970 C   0  0  0  0  0  0  0  0  0  0  0  0
  139.8510   79.6020  222.8560 C   0  0  0  0  0  0  0  0  0  0  0  0
  139.6417   76.9004  223.5069 H   0  0  0  0  0  0  0  0  0  0  0  0
  138.4088   77.0868  222.2138 H   0  0  0  0  0  0  0  0  0  0  0  0
  139.5019   75.6614  222.2138 H   0  0  0  0  0  0  0  0  0  0  0  0
  140.0359   77.8085  220.5997 H   0  0  0  0  0  0  0  0  0  0  0  0
  142.5640   77.0290  221.3240 H   0  0  0  0  0  0  0  0  0  0  0  0
  141.2355   72.6337  220.6638 H   0  0  0  0  0  0  0  0  0  0  0  0
  142.9975   68.1834  219.9351 H   0  0  0  0  0  0  0  0  0  0  0  0
  144.8523   66.6944  219.3511 H   0  0  0  0  0  0  0  0  0  0  0  0
  147.0768   67.6171  218.7177 H   0  0  0  0  0  0  0  0  0  0  0  0
  147.3461   70.1118  218.6992 H   0  0  0  0  0  0  0  0  0  0  0  0
  145.6230   74.3450  219.4140 H   0  0  0  0  0  0  0  0  0  0  0  0
  144.3790   76.5690  219.2330 H   0  0  0  0  0  0  0  0  0  0  0  0
  142.8646   78.5908  221.7870 H   0  0  0  0  0  0  0  0  0  0  0  0
  143.5208   80.6359  222.8995 H   0  0  0  0  0  0  0  0  0  0  0  0
  141.8519   82.1302  224.0509 H   0  0  0  0  0  0  0  0  0  0  0  0
  139.4350   81.3778  223.9821 H   0  0  0  0  0  0  0  0  0  0  0  0
  138.7886   79.3169  222.8471 H   0  0  0  0  0  0  0  0  0  0  0  0
  1  2  1  0
  2  3  1  0
  3  4  1  0
  4  5  2  0
  4  6  1  0
  6  7  2  0
  7  8  1  0
  8  9  1  0
  9 10  2  0
  9 11  1  0
 11 12  1  0
 12 13  2  0
 13 14  1  0
 14 15  2  0
 15 16  1  0
 16 17  2  0
 17 18  1  0
 18 19  1  0
 19 20  1  0
 20 21  2  3
  2 22  1  0
 22 23  2  0
 23 24  1  0
 24 25  2  0
 25 26  1  0
 26 27  2  0
 20  6  1  0
 27 22  1  0
 18  8  2  0
 16 11  1  0
  1 28  1  0
  1 29  1  0
  1 30  1  0
  2 31  1  6
  3 32  1  0
  7 33  1  0
 12 34  1  0
 13 35  1  0
 14 36  1  0
 15 37  1  0
 19 38  1  0
 21 39  1  0
 23 40  1  0
 24 41  1  0
 25 42  1  0
 26 43  1  0
 27 44  1  0
M  END
>  <smiles>  (12) 
C[C@H](NC(=O)c1cc2c(=O)n3ccccc3nc2[nH]c1=N)c1ccccc1

>  <score_type>  (12) 
oracle

>  <origin>  (12) 
autodockgpu

>  <m_score__min__energy>  (12) 
-8.0500000000000007

>  <m_primary>  (12) 
energy

>  <rmsd>  (12) 
4.935976929672913

>  <m_score__min__rmsd>  (12) 
4.935976929672913

>  <meeko>  (12) 
{"free_energy": -7.65, "intermolecular_energy": -8.84, "internal_energy": -0.61, "cluster_size": 41, "cluster_id": 1, "rank_in_cluster": 29}

>  <energy>  (12) 
-7.91

>  <cluster_rmsd>  (12) 
0.42

>  <cluster>  (12) 
1

$$$$

     RDKit          3D

 44 47  0  0  0  0  0  0  0  0999 V2000
  139.3790   76.8750  222.3620 C   0  0  0  0  0  0  0  0  0  0  0  0
  140.4600   77.6580  221.5670 C   0  0  2  0  0  0  0  0  0  0  0  0
  141.5850   76.7900  221.2730 N   0  0  0  0  0  0  0  0  0  0  0  0
  141.4190   75.5210  220.6930 C   0  0  0  0  0  0  0  0  0  0  0  0
  140.1960   75.1650  220.4460 O   0  0  0  0  0  0  0  0  0  0  0  0
  142.4370   74.5740  220.3350 C   0  0  0  0  0  0  0  0  0  0  0  0
  142.2380   73.2100  220.2910 C   0  0  0  0  0  0  0  0  0  0  0  0
  143.2300   72.3260  219.9470 C   0  0  0  0  0  0  0  0  0  0  0  0
  143.7240   75.0140  220.0040 C   0  0  0  0  0  0  0  0  0  0  0  0
  141.9440   70.4810  220.2050 O   0  0  0  0  0  0  0  0  0  0  0  0
  144.1170   70.1280  219.5970 N   0  0  0  0  0  0  0  0  0  0  0  0
  143.9800   68.7920  219.5950 C   0  0  0  0  0  0  0  0  0  0  0  0
  145.0250   67.9480  219.2900 C   0  0  0  0  0  0  0  0  0  0  0  0
  146.2680   68.4420  218.9700 C   0  0  0  0  0  0  0  0  0  0  0  0
  146.4160   69.8180  218.9720 C   0  0  0  0  0  0  0  0  0  0  0  0
  145.3350   70.6320  219.2870 C   0  0  0  0  0  0  0  0  0  0  0  0
  145.5150   71.9920  219.3030 N   0  0  0  0  0  0  0  0  0  0  0  0
  144.4970   72.8100  219.6230 C   0  0  0  0  0  0  0  0  0  0  0  0
  144.7070   74.1380  219.6610 N   0  0  0  0  0  0  0  0  0  0  0  0
  143.0670   70.9490  219.9220 C   0  0  0  0  0  0  0  0  0  0  0  0
  144.0850   76.2470  220.0210 N   0  0  0  0  0  0  0  0  0  0  0  0
  140.7550   78.8940  222.2540 C   0  0  0  0  0  0  0  0  0  0  0  0
  142.0910   79.2640  222.4390 C   0  0  0  0  0  0  0  0  0  0  0  0
  142.4420   80.3970  223.1110 C   0  0  0  0  0  0  0  0  0  0  0  0
  141.5080   81.2790  223.6680 C   0  0  0  0  0  0  0  0  0  0  0  0
  140.1690   80.9070  223.4800 C   0  0  0  0  0  0  0  0  0  0  0  0
  139.8240   79.7580  222.7970 C   0  0  0  0  0  0  0  0  0  0  0  0
  139.5537   77.0015  223.4406 H   0  0  0  0  0  0  0  0  0  0  0  0
  138.3821   77.2619  222.1041 H   0  0  0  0  0  0  0  0  0  0  0  0
  139.4358   75.8072  222.1041 H   0  0  0  0  0  0  0  0  0  0  0  0
  140.1013   77.9697  220.5749 H   0  0  0  0  0  0  0  0  0  0  0  0
  142.5710   77.1000  221.4970 H   0  0  0  0  0  0  0  0  0  0  0  0
  141.2429   72.8141  220.5420 H   0  0  0  0  0  0  0  0  0  0  0  0
  143.0010   68.3574  219.8452 H   0  0  0  0  0  0  0  0  0  0  0  0
  144.8625   66.8601  219.3026 H   0  0  0  0  0  0  0  0  0  0  0  0
  147.1064   67.7738  218.7237 H   0  0  0  0  0  0  0  0  0  0  0  0
  147.3891   70.2671  218.7243 H   0  0  0  0  0  0  0  0  0  0  0  0
  145.6690   74.5070  219.4070 H   0  0  0  0  0  0  0  0  0  0  0  0
  143.5600   76.9780  220.4970 H   0  0  0  0  0  0  0  0  0  0  0  0
  142.8836   78.6205  222.0294 H   0  0  0  0  0  0  0  0  0  0  0  0
  143.5115   80.6297  223.2210 H   0  0  0  0  0  0  0  0  0  0  0  0
  141.8010   82.1905  224.2096 H   0  0  0  0  0  0  0  0  0  0  0  0
  139.3729   81.5475  223.8874 H   0  0  0  0  0  0  0  0  0  0  0  0
  138.7567   79.5191  222.6796 H   0  0  0  0  0  0  0  0  0  0  0  0
  1  2  1  0
  2  3  1  0
  3  4  1  0
  4  5  2  0
  4  6  1  0
  6  7  2  0
  7  8  1  0
  8  9  1  0
  9 10  2  0
  9 11  1  0
 11 12  1  0
 12 13  2  0
 13 14  1  0
 14 15  2  0
 15 16  1  0
 16 17  2  0
 17 18  1  0
 18 19  1  0
 19 20  1  0
 20 21  2  3
  2 22  1  0
 22 23  2  0
 23 24  1  0
 24 25  2  0
 25 26  1  0
 26 27  2  0
 20  6  1  0
 27 22  1  0
 18  8  2  0
 16 11  1  0
  1 28  1  0
  1 29  1  0
  1 30  1  0
  2 31  1  6
  3 32  1  0
  7 33  1  0
 12 34  1  0
 13 35  1  0
 14 36  1  0
 15 37  1  0
 19 38  1  0
 21 39  1  0
 23 40  1  0
 24 41  1  0
 25 42  1  0
 26 43  1  0
 27 44  1  0
M  END
>  <smiles>  (13) 
C[C@H](NC(=O)c1cc2c(=O)n3ccccc3nc2[nH]c1=N)c1ccccc1

>  <score_type>  (13) 
oracle

>  <origin>  (13) 
autodockgpu

>  <m_score__min__energy>  (13) 
-8.0500000000000007

>  <m_primary>  (13) 
energy

>  <rmsd>  (13) 
4.869352035560689

>  <m_score__min__rmsd>  (13) 
4.869352035560689

>  <meeko>  (13) 
{"free_energy": -7.91, "intermolecular_energy": -9.11, "internal_energy": -0.57, "cluster_size": 41, "cluster_id": 1, "rank_in_cluster": 11}

>  <energy>  (13) 
-7.91

>  <cluster_rmsd>  (13) 
0.22

>  <cluster>  (13) 
1

$$$$

     RDKit          3D

 44 47  0  0  0  0  0  0  0  0999 V2000
  139.3900   76.7340  222.3470 C   0  0  0  0  0  0  0  0  0  0  0  0
  140.4570   77.5390  221.5540 C   0  0  2  0  0  0  0  0  0  0  0  0
  141.5830   76.6830  221.2300 N   0  0  0  0  0  0  0  0  0  0  0  0
  141.4140   75.3790  220.7370 C   0  0  0  0  0  0  0  0  0  0  0  0
  140.1870   74.9780  220.5990 O   0  0  0  0  0  0  0  0  0  0  0  0
  142.4310   74.4370  220.3610 C   0  0  0  0  0  0  0  0  0  0  0  0
  142.2530   73.0700  220.3620 C   0  0  0  0  0  0  0  0  0  0  0  0
  143.2440   72.1920  220.0010 C   0  0  0  0  0  0  0  0  0  0  0  0
  143.6950   74.8870  219.9650 C   0  0  0  0  0  0  0  0  0  0  0  0
  142.0000   70.3360  220.3610 O   0  0  0  0  0  0  0  0  0  0  0  0
  144.1510   69.9990  219.6720 N   0  0  0  0  0  0  0  0  0  0  0  0
  144.0360   68.6610  219.7110 C   0  0  0  0  0  0  0  0  0  0  0  0
  145.0800   67.8260  219.3850 C   0  0  0  0  0  0  0  0  0  0  0  0
  146.3000   68.3290  219.0000 C   0  0  0  0  0  0  0  0  0  0  0  0
  146.4260   69.7070  218.9590 C   0  0  0  0  0  0  0  0  0  0  0  0
  145.3460   70.5130  219.2970 C   0  0  0  0  0  0  0  0  0  0  0  0
  145.5040   71.8750  219.2690 N   0  0  0  0  0  0  0  0  0  0  0  0
  144.4880   72.6860  219.6100 C   0  0  0  0  0  0  0  0  0  0  0  0
  144.6770   74.0180  219.6040 N   0  0  0  0  0  0  0  0  0  0  0  0
  143.1020   70.8130  220.0200 C   0  0  0  0  0  0  0  0  0  0  0  0
  144.0370   76.1260  219.9340 N   0  0  0  0  0  0  0  0  0  0  0  0
  140.7530   78.7630  222.2600 C   0  0  0  0  0  0  0  0  0  0  0  0
  139.7040   79.4780  222.8460 C   0  0  0  0  0  0  0  0  0  0  0  0
  139.9070   80.6610  223.4930 C   0  0  0  0  0  0  0  0  0  0  0  0
  141.1680   81.2560  223.6280 C   0  0  0  0  0  0  0  0  0  0  0  0
  142.2180   80.5370  223.0400 C   0  0  0  0  0  0  0  0  0  0  0  0
  142.0020   79.3400  222.3870 C   0  0  0  0  0  0  0  0  0  0  0  0
  139.5607   76.8628  223.4260 H   0  0  0  0  0  0  0  0  0  0  0  0
  138.3861   77.1017  222.0881 H   0  0  0  0  0  0  0  0  0  0  0  0
  139.4680   75.6677  222.0881 H   0  0  0  0  0  0  0  0  0  0  0  0
  140.0846   77.8679  220.5726 H   0  0  0  0  0  0  0  0  0  0  0  0
  142.5730   77.0310  221.3640 H   0  0  0  0  0  0  0  0  0  0  0  0
  141.2757   72.6661  220.6648 H   0  0  0  0  0  0  0  0  0  0  0  0
  143.0755   68.2184  220.0135 H   0  0  0  0  0  0  0  0  0  0  0  0
  144.9358   66.7366  219.4333 H   0  0  0  0  0  0  0  0  0  0  0  0
  147.1379   67.6668  218.7365 H   0  0  0  0  0  0  0  0  0  0  0  0
  147.3807   70.1636  218.6590 H   0  0  0  0  0  0  0  0  0  0  0  0
  145.6210   74.3940  219.3000 H   0  0  0  0  0  0  0  0  0  0  0  0
  144.2110   76.6800  220.7700 H   0  0  0  0  0  0  0  0  0  0  0  0
  138.6830   79.0735  222.7831 H   0  0  0  0  0  0  0  0  0  0  0  0
  139.0376   81.1735  223.9306 H   0  0  0  0  0  0  0  0  0  0  0  0
  141.3219   82.2103  224.1530 H   0  0  0  0  0  0  0  0  0  0  0  0
  143.2409   80.9371  223.1005 H   0  0  0  0  0  0  0  0  0  0  0  0
  142.8659   78.8206  221.9466 H   0  0  0  0  0  0  0  0  0  0  0  0
  1  2  1  0
  2  3  1  0
  3  4  1  0
  4  5  2  0
  4  6  1  0
  6  7  2  0
  7  8  1  0
  8  9  1  0
  9 10  2  0
  9 11  1  0
 11 12  1  0
 12 13  2  0
 13 14  1  0
 14 15  2  0
 15 16  1  0
 16 17  2  0
 17 18  1  0
 18 19  1  0
 19 20  1  0
 20 21  2  3
  2 22  1  0
 22 23  2  0
 23 24  1  0
 24 25  2  0
 25 26  1  0
 26 27  2  0
 20  6  1  0
 27 22  1  0
 18  8  2  0
 16 11  1  0
  1 28  1  0
  1 29  1  0
  1 30  1  0
  2 31  1  6
  3 32  1  0
  7 33  1  0
 12 34  1  0
 13 35  1  0
 14 36  1  0
 15 37  1  0
 19 38  1  0
 21 39  1  0
 23 40  1  0
 24 41  1  0
 25 42  1  0
 26 43  1  0
 27 44  1  0
M  END
>  <smiles>  (14) 
C[C@H](NC(=O)c1cc2c(=O)n3ccccc3nc2[nH]c1=N)c1ccccc1

>  <score_type>  (14) 
oracle

>  <origin>  (14) 
autodockgpu

>  <m_score__min__energy>  (14) 
-8.0500000000000007

>  <m_primary>  (14) 
energy

>  <rmsd>  (14) 
4.713065439864961

>  <m_score__min__rmsd>  (14) 
4.713065439864961

>  <meeko>  (14) 
{"free_energy": -7.83, "intermolecular_energy": -9.02, "internal_energy": -0.53, "cluster_size": 41, "cluster_id": 1, "rank_in_cluster": 20}

>  <energy>  (14) 
-7.91

>  <cluster_rmsd>  (14) 
0.61

>  <cluster>  (14) 
1

$$$$

     RDKit          3D

 44 47  0  0  0  0  0  0  0  0999 V2000
  138.3480   78.6860  223.0820 C   0  0  0  0  0  0  0  0  0  0  0  0
  139.6470   78.5010  222.2510 C   0  0  2  0  0  0  0  0  0  0  0  0
  140.0080   77.0960  222.2010 N   0  0  0  0  0  0  0  0  0  0  0  0
  140.9670   76.6010  221.3030 C   0  0  0  0  0  0  0  0  0  0  0  0
  141.5050   77.4740  220.5080 O   0  0  0  0  0  0  0  0  0  0  0  0
  141.4290   75.2490  221.1600 C   0  0  0  0  0  0  0  0  0  0  0  0
  142.5870   74.8960  220.4990 C   0  0  0  0  0  0  0  0  0  0  0  0
  143.0030   73.5950  220.3760 C   0  0  0  0  0  0  0  0  0  0  0  0
  140.6930   74.1920  221.7070 C   0  0  0  0  0  0  0  0  0  0  0  0
  144.8570   74.0970  219.1780 O   0  0  0  0  0  0  0  0  0  0  0  0
  144.4820   71.8820  219.5870 N   0  0  0  0  0  0  0  0  0  0  0  0
  145.5720   71.4920  218.9050 C   0  0  0  0  0  0  0  0  0  0  0  0
  145.9170   70.1670  218.7710 C   0  0  0  0  0  0  0  0  0  0  0  0
  145.1530   69.1720  219.3340 C   0  0  0  0  0  0  0  0  0  0  0  0
  144.0280   69.5670  220.0370 C   0  0  0  0  0  0  0  0  0  0  0  0
  143.7160   70.9160  220.1470 C   0  0  0  0  0  0  0  0  0  0  0  0
  142.5830   71.2790  220.8290 N   0  0  0  0  0  0  0  0  0  0  0  0
  142.2390   72.5740  220.9390 C   0  0  0  0  0  0  0  0  0  0  0  0
  141.1070   72.9020  221.5870 N   0  0  0  0  0  0  0  0  0  0  0  0
  144.1470   73.2080  219.6920 C   0  0  0  0  0  0  0  0  0  0  0  0
  139.5790   74.3420  222.3300 N   0  0  0  0  0  0  0  0  0  0  0  0
  140.6570   79.4140  222.7330 C   0  0  0  0  0  0  0  0  0  0  0  0
  141.6070   78.9520  223.6490 C   0  0  0  0  0  0  0  0  0  0  0  0
  142.5640   79.7690  224.1740 C   0  0  0  0  0  0  0  0  0  0  0  0
  142.6780   81.1260  223.8470 C   0  0  0  0  0  0  0  0  0  0  0  0
  141.7250   81.5870  222.9280 C   0  0  0  0  0  0  0  0  0  0  0  0
  140.7610   80.7510  222.4010 C   0  0  0  0  0  0  0  0  0  0  0  0
  138.5907   78.6514  224.1543 H   0  0  0  0  0  0  0  0  0  0  0  0
  137.8933   79.6580  222.8401 H   0  0  0  0  0  0  0  0  0  0  0  0
  137.6400   77.8796  222.8401 H   0  0  0  0  0  0  0  0  0  0  0  0
  139.5057   78.7752  221.1952 H   0  0  0  0  0  0  0  0  0  0  0  0
  139.5440   76.4040  222.8530 H   0  0  0  0  0  0  0  0  0  0  0  0
  143.2022   75.6908  220.0520 H   0  0  0  0  0  0  0  0  0  0  0  0
  146.2095   72.2574  218.4384 H   0  0  0  0  0  0  0  0  0  0  0  0
  146.8202   69.8987  218.2033 H   0  0  0  0  0  0  0  0  0  0  0  0
  145.4234   68.1108  219.2305 H   0  0  0  0  0  0  0  0  0  0  0  0
  143.3811   68.8126  220.5086 H   0  0  0  0  0  0  0  0  0  0  0  0
  140.5290   72.1250  222.0220 H   0  0  0  0  0  0  0  0  0  0  0  0
  139.2800   73.7410  223.0960 H   0  0  0  0  0  0  0  0  0  0  0  0
  141.5815   77.8960  223.9558 H   0  0  0  0  0  0  0  0  0  0  0  0
  143.2818   79.3413  224.8895 H   0  0  0  0  0  0  0  0  0  0  0  0
  143.4530   81.7777  224.2767 H   0  0  0  0  0  0  0  0  0  0  0  0
  141.7459   82.6424  222.6187 H   0  0  0  0  0  0  0  0  0  0  0  0
  140.0411   81.1695  221.6822 H   0  0  0  0  0  0  0  0  0  0  0  0
  1  2  1  0
  2  3  1  0
  3  4  1  0
  4  5  2  0
  4  6  1  0
  6  7  2  0
  7  8  1  0
  8  9  1  0
  9 10  2  0
  9 11  1  0
 11 12  1  0
 12 13  2  0
 13 14  1  0
 14 15  2  0
 15 16  1  0
 16 17  2  0
 17 18  1  0
 18 19  1  0
 19 20  1  0
 20 21  2  3
  2 22  1  0
 22 23  2  0
 23 24  1  0
 24 25  2  0
 25 26  1  0
 26 27  2  0
 20  6  1  0
 27 22  1  0
 18  8  2  0
 16 11  1  0
  1 28  1  0
  1 29  1  0
  1 30  1  0
  2 31  1  6
  3 32  1  0
  7 33  1  0
 12 34  1  0
 13 35  1  0
 14 36  1  0
 15 37  1  0
 19 38  1  0
 21 39  1  0
 23 40  1  0
 24 41  1  0
 25 42  1  0
 26 43  1  0
 27 44  1  0
M  END
>  <smiles>  (15) 
C[C@H](NC(=O)c1cc2c(=O)n3ccccc3nc2[nH]c1=N)c1ccccc1

>  <score_type>  (15) 
oracle

>  <origin>  (15) 
autodockgpu

>  <m_score__min__energy>  (15) 
-8.0500000000000007

>  <m_primary>  (15) 
energy

>  <rmsd>  (15) 
4.257716897829591

>  <m_score__min__rmsd>  (15) 
4.257716897829591

>  <meeko>  (15) 
{"free_energy": -7.09, "intermolecular_energy": -8.28, "internal_energy": -0.96, "cluster_size": 9, "cluster_id": 2, "rank_in_cluster": 8}

>  <energy>  (15) 
-7.9

>  <cluster_rmsd>  (15) 
0.55

>  <cluster>  (15) 
1

$$$$

     RDKit          3D

 44 47  0  0  0  0  0  0  0  0999 V2000
  139.3760   76.8460  222.4030 C   0  0  0  0  0  0  0  0  0  0  0  0
  140.4470   77.6320  221.5980 C   0  0  2  0  0  0  0  0  0  0  0  0
  141.5770   76.7700  221.3040 N   0  0  0  0  0  0  0  0  0  0  0  0
  141.4170   75.4970  220.7310 C   0  0  0  0  0  0  0  0  0  0  0  0
  140.1960   75.1310  220.4910 O   0  0  0  0  0  0  0  0  0  0  0  0
  142.4400   74.5550  220.3740 C   0  0  0  0  0  0  0  0  0  0  0  0
  142.2490   73.1890  220.3330 C   0  0  0  0  0  0  0  0  0  0  0  0
  143.2460   72.3110  219.9900 C   0  0  0  0  0  0  0  0  0  0  0  0
  143.7240   75.0010  220.0400 C   0  0  0  0  0  0  0  0  0  0  0  0
  141.9720   70.4590  220.2550 O   0  0  0  0  0  0  0  0  0  0  0  0
  144.1450   70.1170  219.6440 N   0  0  0  0  0  0  0  0  0  0  0  0
  144.0160   68.7800  219.6460 C   0  0  0  0  0  0  0  0  0  0  0  0
  145.0650   67.9420  219.3420 C   0  0  0  0  0  0  0  0  0  0  0  0
  146.3040   68.4420  219.0190 C   0  0  0  0  0  0  0  0  0  0  0  0
  146.4440   69.8190  219.0160 C   0  0  0  0  0  0  0  0  0  0  0  0
  145.3600   70.6280  219.3310 C   0  0  0  0  0  0  0  0  0  0  0  0
  145.5310   71.9880  219.3430 N   0  0  0  0  0  0  0  0  0  0  0  0
  144.5090   72.8010  219.6630 C   0  0  0  0  0  0  0  0  0  0  0  0
  144.7110   74.1310  219.6970 N   0  0  0  0  0  0  0  0  0  0  0  0
  143.0910   70.9330  219.9700 C   0  0  0  0  0  0  0  0  0  0  0  0
  144.0780   76.2360  220.0530 N   0  0  0  0  0  0  0  0  0  0  0  0
  140.7370   78.8740  222.2740 C   0  0  0  0  0  0  0  0  0  0  0  0
  142.0710   79.2390  222.4800 C   0  0  0  0  0  0  0  0  0  0  0  0
  142.4170   80.3780  223.1450 C   0  0  0  0  0  0  0  0  0  0  0  0
  141.4780   81.2730  223.6740 C   0  0  0  0  0  0  0  0  0  0  0  0
  140.1400   80.9050  223.4660 C   0  0  0  0  0  0  0  0  0  0  0  0
  139.8010   79.7500  222.7900 C   0  0  0  0  0  0  0  0  0  0  0  0
  139.5565   76.9785  223.4800 H   0  0  0  0  0  0  0  0  0  0  0  0
  138.3752   77.2255  222.1495 H   0  0  0  0  0  0  0  0  0  0  0  0
  139.4379   75.7774  222.1495 H   0  0  0  0  0  0  0  0  0  0  0  0
  140.0801   77.9350  220.6062 H   0  0  0  0  0  0  0  0  0  0  0  0
  142.5620   77.0880  221.5220 H   0  0  0  0  0  0  0  0  0  0  0  0
  141.2566   72.7875  220.5857 H   0  0  0  0  0  0  0  0  0  0  0  0
  143.0400   68.3402  219.8989 H   0  0  0  0  0  0  0  0  0  0  0  0
  144.9090   66.8532  219.3578 H   0  0  0  0  0  0  0  0  0  0  0  0
  147.1460   67.7779  218.7740 H   0  0  0  0  0  0  0  0  0  0  0  0
  147.4139   70.2726  218.7641 H   0  0  0  0  0  0  0  0  0  0  0  0
  145.6710   74.5040  219.4400 H   0  0  0  0  0  0  0  0  0  0  0  0
  143.5360   76.9700  220.5070 H   0  0  0  0  0  0  0  0  0  0  0  0
  142.8672   78.5861  222.0930 H   0  0  0  0  0  0  0  0  0  0  0  0
  143.4857   80.6052  223.2723 H   0  0  0  0  0  0  0  0  0  0  0  0
  141.7662   82.1899  224.2090 H   0  0  0  0  0  0  0  0  0  0  0  0
  139.3400   81.5540  223.8518 H   0  0  0  0  0  0  0  0  0  0  0  0
  138.7347   79.5158  222.6556 H   0  0  0  0  0  0  0  0  0  0  0  0
  1  2  1  0
  2  3  1  0
  3  4  1  0
  4  5  2  0
  4  6  1  0
  6  7  2  0
  7  8  1  0
  8  9  1  0
  9 10  2  0
  9 11  1  0
 11 12  1  0
 12 13  2  0
 13 14  1  0
 14 15  2  0
 15 16  1  0
 16 17  2  0
 17 18  1  0
 18 19  1  0
 19 20  1  0
 20 21  2  3
  2 22  1  0
 22 23  2  0
 23 24  1  0
 24 25  2  0
 25 26  1  0
 26 27  2  0
 20  6  1  0
 27 22  1  0
 18  8  2  0
 16 11  1  0
  1 28  1  0
  1 29  1  0
  1 30  1  0
  2 31  1  6
  3 32  1  0
  7 33  1  0
 12 34  1  0
 13 35  1  0
 14 36  1  0
 15 37  1  0
 19 38  1  0
 21 39  1  0
 23 40  1  0
 24 41  1  0
 25 42  1  0
 26 43  1  0
 27 44  1  0
M  END
>  <smiles>  (16) 
C[C@H](NC(=O)c1cc2c(=O)n3ccccc3nc2[nH]c1=N)c1ccccc1

>  <score_type>  (16) 
oracle

>  <origin>  (16) 
autodockgpu

>  <m_score__min__energy>  (16) 
-8.0500000000000007

>  <m_primary>  (16) 
energy

>  <rmsd>  (16) 
4.8817232901812435

>  <m_score__min__rmsd>  (16) 
4.8817232901812435

>  <meeko>  (16) 
{"free_energy": -7.9, "intermolecular_energy": -9.1, "internal_energy": -0.57, "cluster_size": 41, "cluster_id": 1, "rank_in_cluster": 16}

>  <energy>  (16) 
-7.9

>  <cluster_rmsd>  (16) 
0.21

>  <cluster>  (16) 
1

$$$$

     RDKit          3D

 44 47  0  0  0  0  0  0  0  0999 V2000
  139.6150   77.0200  222.4780 C   0  0  0  0  0  0  0  0  0  0  0  0
  140.6040   77.7700  221.5430 C   0  0  2  0  0  0  0  0  0  0  0  0
  141.6980   76.8910  221.1730 N   0  0  0  0  0  0  0  0  0  0  0  0
  141.4860   75.5620  220.7680 C   0  0  0  0  0  0  0  0  0  0  0  0
  140.2530   75.1620  220.7550 O   0  0  0  0  0  0  0  0  0  0  0  0
  142.4670   74.5960  220.3610 C   0  0  0  0  0  0  0  0  0  0  0  0
  142.2680   73.2320  220.4010 C   0  0  0  0  0  0  0  0  0  0  0  0
  143.2250   72.3310  220.0080 C   0  0  0  0  0  0  0  0  0  0  0  0
  143.7160   75.0160  219.8890 C   0  0  0  0  0  0  0  0  0  0  0  0
  141.9720   70.5030  220.4730 O   0  0  0  0  0  0  0  0  0  0  0  0
  144.0780   70.1160  219.6800 N   0  0  0  0  0  0  0  0  0  0  0  0
  143.9440   68.7810  219.7550 C   0  0  0  0  0  0  0  0  0  0  0  0
  144.9570   67.9210  219.3930 C   0  0  0  0  0  0  0  0  0  0  0  0
  146.1630   68.3960  218.9350 C   0  0  0  0  0  0  0  0  0  0  0  0
  146.3080   69.7700  218.8560 C   0  0  0  0  0  0  0  0  0  0  0  0
  145.2610   70.6010  219.2330 C   0  0  0  0  0  0  0  0  0  0  0  0
  145.4390   71.9600  219.1670 N   0  0  0  0  0  0  0  0  0  0  0  0
  144.4540   72.7940  219.5420 C   0  0  0  0  0  0  0  0  0  0  0  0
  144.6640   74.1230  219.4970 N   0  0  0  0  0  0  0  0  0  0  0  0
  143.0630   70.9540  220.0640 C   0  0  0  0  0  0  0  0  0  0  0  0
  144.0760   76.2470  219.8130 N   0  0  0  0  0  0  0  0  0  0  0  0
  140.9600   79.0350  222.1390 C   0  0  0  0  0  0  0  0  0  0  0  0
  141.8580   79.0500  223.2120 C   0  0  0  0  0  0  0  0  0  0  0  0
  142.2080   80.2040  223.8470 C   0  0  0  0  0  0  0  0  0  0  0  0
  141.7070   81.4620  223.4860 C   0  0  0  0  0  0  0  0  0  0  0  0
  140.8080   81.4440  222.4090 C   0  0  0  0  0  0  0  0  0  0  0  0
  140.4610   80.2700  221.7730 C   0  0  0  0  0  0  0  0  0  0  0  0
  139.8789   77.2201  223.5270 H   0  0  0  0  0  0  0  0  0  0  0  0
  138.5903   77.3701  222.2844 H   0  0  0  0  0  0  0  0  0  0  0  0
  139.6757   75.9389  222.2844 H   0  0  0  0  0  0  0  0  0  0  0  0
  140.1430   78.0380  220.5809 H   0  0  0  0  0  0  0  0  0  0  0  0
  142.6960   77.2390  221.2050 H   0  0  0  0  0  0  0  0  0  0  0  0
  141.3019   72.8506  220.7631 H   0  0  0  0  0  0  0  0  0  0  0  0
  142.9940   68.3613  220.1174 H   0  0  0  0  0  0  0  0  0  0  0  0
  144.7983   66.8353  219.4717 H   0  0  0  0  0  0  0  0  0  0  0  0
  146.9762   67.7146  218.6444 H   0  0  0  0  0  0  0  0  0  0  0  0
  147.2521   70.2038  218.4948 H   0  0  0  0  0  0  0  0  0  0  0  0
  145.5970   74.4760  219.1360 H   0  0  0  0  0  0  0  0  0  0  0  0
  144.3580   76.8000  220.6210 H   0  0  0  0  0  0  0  0  0  0  0  0
  142.2953   78.1003  223.5538 H   0  0  0  0  0  0  0  0  0  0  0  0
  142.9189   80.1450  224.6843 H   0  0  0  0  0  0  0  0  0  0  0  0
  141.9951   82.3882  224.0048 H   0  0  0  0  0  0  0  0  0  0  0  0
  140.3683   82.3909  222.0626 H   0  0  0  0  0  0  0  0  0  0  0  0
  139.7522   80.3198  220.9333 H   0  0  0  0  0  0  0  0  0  0  0  0
  1  2  1  0
  2  3  1  0
  3  4  1  0
  4  5  2  0
  4  6  1  0
  6  7  2  0
  7  8  1  0
  8  9  1  0
  9 10  2  0
  9 11  1  0
 11 12  1  0
 12 13  2  0
 13 14  1  0
 14 15  2  0
 15 16  1  0
 16 17  2  0
 17 18  1  0
 18 19  1  0
 19 20  1  0
 20 21  2  3
  2 22  1  0
 22 23  2  0
 23 24  1  0
 24 25  2  0
 25 26  1  0
 26 27  2  0
 20  6  1  0
 27 22  1  0
 18  8  2  0
 16 11  1  0
  1 28  1  0
  1 29  1  0
  1 30  1  0
  2 31  1  6
  3 32  1  0
  7 33  1  0
 12 34  1  0
 13 35  1  0
 14 36  1  0
 15 37  1  0
 19 38  1  0
 21 39  1  0
 23 40  1  0
 24 41  1  0
 25 42  1  0
 26 43  1  0
 27 44  1  0
M  END
>  <smiles>  (17) 
C[C@H](NC(=O)c1cc2c(=O)n3ccccc3nc2[nH]c1=N)c1ccccc1

>  <score_type>  (17) 
oracle

>  <origin>  (17) 
autodockgpu

>  <m_score__min__energy>  (17) 
-8.0500000000000007

>  <m_primary>  (17) 
energy

>  <rmsd>  (17) 
4.676486264913948

>  <m_score__min__rmsd>  (17) 
4.676486264913948

>  <meeko>  (17) 
{"free_energy": -7.91, "intermolecular_energy": -9.1, "internal_energy": -0.58, "cluster_size": 41, "cluster_id": 1, "rank_in_cluster": 12}

>  <energy>  (17) 
-7.88

>  <cluster_rmsd>  (17) 
0.56

>  <cluster>  (17) 
1

$$$$

     RDKit          3D

 44 47  0  0  0  0  0  0  0  0999 V2000
  138.6580   78.7700  222.8460 C   0  0  0  0  0  0  0  0  0  0  0  0
  140.0230   78.5290  222.1440 C   0  0  2  0  0  0  0  0  0  0  0  0
  140.3240   77.1090  222.1210 N   0  0  0  0  0  0  0  0  0  0  0  0
  141.2000   76.5460  221.1780 C   0  0  0  0  0  0  0  0  0  0  0  0
  141.7160   77.3690  220.3180 O   0  0  0  0  0  0  0  0  0  0  0  0
  141.5980   75.1720  221.0530 C   0  0  0  0  0  0  0  0  0  0  0  0
  142.7360   74.7570  220.3930 C   0  0  0  0  0  0  0  0  0  0  0  0
  143.0910   73.4350  220.2870 C   0  0  0  0  0  0  0  0  0  0  0  0
  140.8160   74.1580  221.6180 C   0  0  0  0  0  0  0  0  0  0  0  0
  144.9610   73.8340  219.0760 O   0  0  0  0  0  0  0  0  0  0  0  0
  144.4860   71.6450  219.5180 N   0  0  0  0  0  0  0  0  0  0  0  0
  145.5540   71.1960  218.8390 C   0  0  0  0  0  0  0  0  0  0  0  0
  145.8370   69.8530  218.7220 C   0  0  0  0  0  0  0  0  0  0  0  0
  145.0300   68.9030  219.3020 C   0  0  0  0  0  0  0  0  0  0  0  0
  143.9270   69.3600  220.0030 C   0  0  0  0  0  0  0  0  0  0  0  0
  143.6780   70.7240  220.0950 C   0  0  0  0  0  0  0  0  0  0  0  0
  142.5660   71.1480  220.7760 N   0  0  0  0  0  0  0  0  0  0  0  0
  142.2830   72.4590  220.8670 C   0  0  0  0  0  0  0  0  0  0  0  0
  141.1700   72.8480  221.5150 N   0  0  0  0  0  0  0  0  0  0  0  0
  144.2130   72.9870  219.6060 C   0  0  0  0  0  0  0  0  0  0  0  0
  139.7130   74.3680  222.2420 N   0  0  0  0  0  0  0  0  0  0  0  0
  141.0200   79.3950  222.7280 C   0  0  0  0  0  0  0  0  0  0  0  0
  140.6030   80.4850  223.4980 C   0  0  0  0  0  0  0  0  0  0  0  0
  141.4880   81.3650  224.0470 C   0  0  0  0  0  0  0  0  0  0  0  0
  142.8760   81.2560  223.8890 C   0  0  0  0  0  0  0  0  0  0  0  0
  143.2920   80.1620  223.1170 C   0  0  0  0  0  0  0  0  0  0  0  0
  142.3870   79.2760  222.5670 C   0  0  0  0  0  0  0  0  0  0  0  0
  138.7973   78.7454  223.9369 H   0  0  0  0  0  0  0  0  0  0  0  0
  138.2613   79.7521  222.5491 H   0  0  0  0  0  0  0  0  0  0  0  0
  137.9490   77.9831  222.5491 H   0  0  0  0  0  0  0  0  0  0  0  0
  139.9986   78.8114  221.0811 H   0  0  0  0  0  0  0  0  0  0  0  0
  139.8790   76.4590  222.8260 H   0  0  0  0  0  0  0  0  0  0  0  0
  143.3855   75.5162  219.9329 H   0  0  0  0  0  0  0  0  0  0  0  0
  146.2249   71.9246  218.3605 H   0  0  0  0  0  0  0  0  0  0  0  0
  146.7241   69.5351  218.1546 H   0  0  0  0  0  0  0  0  0  0  0  0
  145.2506   67.8290  219.2132 H   0  0  0  0  0  0  0  0  0  0  0  0
  143.2476   68.6431  220.4873 H   0  0  0  0  0  0  0  0  0  0  0  0
  140.5580   72.1060  221.9630 H   0  0  0  0  0  0  0  0  0  0  0  0
  139.1960   73.6370  222.7270 H   0  0  0  0  0  0  0  0  0  0  0  0
  139.5267   80.6374  223.6662 H   0  0  0  0  0  0  0  0  0  0  0  0
  141.0932   82.2011  224.6429 H   0  0  0  0  0  0  0  0  0  0  0  0
  143.5827   81.9714  224.3349 H   0  0  0  0  0  0  0  0  0  0  0  0
  144.3672   80.0055  222.9451 H   0  0  0  0  0  0  0  0  0  0  0  0
  142.7729   78.4351  221.9721 H   0  0  0  0  0  0  0  0  0  0  0  0
  1  2  1  0
  2  3  1  0
  3  4  1  0
  4  5  2  0
  4  6  1  0
  6  7  2  0
  7  8  1  0
  8  9  1  0
  9 10  2  0
  9 11  1  0
 11 12  1  0
 12 13  2  0
 13 14  1  0
 14 15  2  0
 15 16  1  0
 16 17  2  0
 17 18  1  0
 18 19  1  0
 19 20  1  0
 20 21  2  3
  2 22  1  0
 22 23  2  0
 23 24  1  0
 24 25  2  0
 25 26  1  0
 26 27  2  0
 20  6  1  0
 27 22  1  0
 18  8  2  0
 16 11  1  0
  1 28  1  0
  1 29  1  0
  1 30  1  0
  2 31  1  6
  3 32  1  0
  7 33  1  0
 12 34  1  0
 13 35  1  0
 14 36  1  0
 15 37  1  0
 19 38  1  0
 21 39  1  0
 23 40  1  0
 24 41  1  0
 25 42  1  0
 26 43  1  0
 27 44  1  0
M  END
>  <smiles>  (18) 
C[C@H](NC(=O)c1cc2c(=O)n3ccccc3nc2[nH]c1=N)c1ccccc1

>  <score_type>  (18) 
oracle

>  <origin>  (18) 
autodockgpu

>  <m_score__min__energy>  (18) 
-8.0500000000000007

>  <m_primary>  (18) 
energy

>  <rmsd>  (18) 
4.202962014398735

>  <m_score__min__rmsd>  (18) 
4.202962014398735

>  <meeko>  (18) 
{"free_energy": -7.17, "intermolecular_energy": -8.36, "internal_energy": -0.89, "cluster_size": 9, "cluster_id": 2, "rank_in_cluster": 4}

>  <energy>  (18) 
-7.87

>  <cluster_rmsd>  (18) 
0.15

>  <cluster>  (18) 
1

$$$$

     RDKit          3D

 44 47  0  0  0  0  0  0  0  0999 V2000
  139.6040   76.9960  222.4590 C   0  0  0  0  0  0  0  0  0  0  0  0
  140.6000   77.7510  221.5350 C   0  0  2  0  0  0  0  0  0  0  0  0
  141.6960   76.8750  221.1660 N   0  0  0  0  0  0  0  0  0  0  0  0
  141.4870   75.5510  220.7450 C   0  0  0  0  0  0  0  0  0  0  0  0
  140.2530   75.1530  220.7160 O   0  0  0  0  0  0  0  0  0  0  0  0
  142.4700   74.5880  220.3370 C   0  0  0  0  0  0  0  0  0  0  0  0
  142.2750   73.2240  220.3760 C   0  0  0  0  0  0  0  0  0  0  0  0
  143.2340   72.3250  219.9820 C   0  0  0  0  0  0  0  0  0  0  0  0
  143.7180   75.0120  219.8660 C   0  0  0  0  0  0  0  0  0  0  0  0
  141.9870   70.4940  220.4470 O   0  0  0  0  0  0  0  0  0  0  0  0
  144.0940   70.1130  219.6530 N   0  0  0  0  0  0  0  0  0  0  0  0
  143.9640   68.7780  219.7270 C   0  0  0  0  0  0  0  0  0  0  0  0
  144.9790   67.9210  219.3650 C   0  0  0  0  0  0  0  0  0  0  0  0
  146.1840   68.3990  218.9060 C   0  0  0  0  0  0  0  0  0  0  0  0
  146.3250   69.7740  218.8290 C   0  0  0  0  0  0  0  0  0  0  0  0
  145.2750   70.6020  219.2060 C   0  0  0  0  0  0  0  0  0  0  0  0
  145.4490   71.9610  219.1410 N   0  0  0  0  0  0  0  0  0  0  0  0
  144.4620   72.7930  219.5170 C   0  0  0  0  0  0  0  0  0  0  0  0
  144.6690   74.1220  219.4720 N   0  0  0  0  0  0  0  0  0  0  0  0
  143.0760   70.9480  220.0380 C   0  0  0  0  0  0  0  0  0  0  0  0
  144.0740   76.2450  219.7900 N   0  0  0  0  0  0  0  0  0  0  0  0
  140.9520   79.0130  222.1430 C   0  0  0  0  0  0  0  0  0  0  0  0
  142.1540   79.1110  222.8510 C   0  0  0  0  0  0  0  0  0  0  0  0
  142.5300   80.2600  223.4820 C   0  0  0  0  0  0  0  0  0  0  0  0
  141.7560   81.4280  223.4770 C   0  0  0  0  0  0  0  0  0  0  0  0
  140.5520   81.3270  222.7650 C   0  0  0  0  0  0  0  0  0  0  0  0
  140.1810   80.1590  222.1280 C   0  0  0  0  0  0  0  0  0  0  0  0
  139.8604   77.1903  223.5109 H   0  0  0  0  0  0  0  0  0  0  0  0
  138.5808   77.3474  222.2600 H   0  0  0  0  0  0  0  0  0  0  0  0
  139.6659   75.9159  222.2600 H   0  0  0  0  0  0  0  0  0  0  0  0
  140.1461   78.0244  220.5710 H   0  0  0  0  0  0  0  0  0  0  0  0
  142.6940   77.2220  221.2110 H   0  0  0  0  0  0  0  0  0  0  0  0
  141.3100   72.8399  220.7382 H   0  0  0  0  0  0  0  0  0  0  0  0
  143.0151   68.3554  220.0889 H   0  0  0  0  0  0  0  0  0  0  0  0
  144.8233   66.8350  219.4443 H   0  0  0  0  0  0  0  0  0  0  0  0
  146.9984   67.7199  218.6135 H   0  0  0  0  0  0  0  0  0  0  0  0
  147.2683   70.2109  218.4694 H   0  0  0  0  0  0  0  0  0  0  0  0
  145.6000   74.4780  219.1110 H   0  0  0  0  0  0  0  0  0  0  0  0
  144.2990   76.8130  220.6050 H   0  0  0  0  0  0  0  0  0  0  0  0
  142.8166   78.2343  222.9004 H   0  0  0  0  0  0  0  0  0  0  0  0
  143.4885   80.2704  224.0217 H   0  0  0  0  0  0  0  0  0  0  0  0
  142.0676   82.3497  223.9901 H   0  0  0  0  0  0  0  0  0  0  0  0
  139.8858   82.2007  222.7125 H   0  0  0  0  0  0  0  0  0  0  0  0
  139.2259   80.1405  221.5827 H   0  0  0  0  0  0  0  0  0  0  0  0
  1  2  1  0
  2  3  1  0
  3  4  1  0
  4  5  2  0
  4  6  1  0
  6  7  2  0
  7  8  1  0
  8  9  1  0
  9 10  2  0
  9 11  1  0
 11 12  1  0
 12 13  2  0
 13 14  1  0
 14 15  2  0
 15 16  1  0
 16 17  2  0
 17 18  1  0
 18 19  1  0
 19 20  1  0
 20 21  2  3
  2 22  1  0
 22 23  2  0
 23 24  1  0
 24 25  2  0
 25 26  1  0
 26 27  2  0
 20  6  1  0
 27 22  1  0
 18  8  2  0
 16 11  1  0
  1 28  1  0
  1 29  1  0
  1 30  1  0
  2 31  1  6
  3 32  1  0
  7 33  1  0
 12 34  1  0
 13 35  1  0
 14 36  1  0
 15 37  1  0
 19 38  1  0
 21 39  1  0
 23 40  1  0
 24 41  1  0
 25 42  1  0
 26 43  1  0
 27 44  1  0
M  END
>  <smiles>  (19) 
C[C@H](NC(=O)c1cc2c(=O)n3ccccc3nc2[nH]c1=N)c1ccccc1

>  <score_type>  (19) 
oracle

>  <origin>  (19) 
autodockgpu

>  <m_score__min__energy>  (19) 
-8.0500000000000007

>  <m_primary>  (19) 
energy

>  <rmsd>  (19) 
4.7460867967130715

>  <m_score__min__rmsd>  (19) 
4.7460867967130715

>  <meeko>  (19) 
{"free_energy": -7.94, "intermolecular_energy": -9.13, "internal_energy": -0.6, "cluster_size": 41, "cluster_id": 1, "rank_in_cluster": 8}

>  <energy>  (19) 
-7.85

>  <cluster_rmsd>  (19) 
0.5

>  <cluster>  (19) 
1

$$$$

     RDKit          3D

 44 47  0  0  0  0  0  0  0  0999 V2000
  138.4780   76.2540  222.7500 C   0  0  0  0  0  0  0  0  0  0  0  0
  139.6970   76.7500  221.9240 C   0  0  2  0  0  0  0  0  0  0  0  0
  140.5820   75.6370  221.6300 N   0  0  0  0  0  0  0  0  0  0  0  0
  141.6840   75.7660  220.7690 C   0  0  0  0  0  0  0  0  0  0  0  0
  141.8590   76.9370  220.2400 O   0  0  0  0  0  0  0  0  0  0  0  0
  142.6440   74.7610  220.4080 C   0  0  0  0  0  0  0  0  0  0  0  0
  142.3640   73.4110  220.3600 C   0  0  0  0  0  0  0  0  0  0  0  0
  143.3010   72.4710  220.0130 C   0  0  0  0  0  0  0  0  0  0  0  0
  143.9540   75.1240  220.0770 C   0  0  0  0  0  0  0  0  0  0  0  0
  141.9080   70.7050  220.2660 O   0  0  0  0  0  0  0  0  0  0  0  0
  144.0560   70.2250  219.6550 N   0  0  0  0  0  0  0  0  0  0  0  0
  143.8390   68.8990  219.6490 C   0  0  0  0  0  0  0  0  0  0  0  0
  144.8320   67.9960  219.3410 C   0  0  0  0  0  0  0  0  0  0  0  0
  146.1020   68.4150  219.0220 C   0  0  0  0  0  0  0  0  0  0  0  0
  146.3310   69.7800  219.0280 C   0  0  0  0  0  0  0  0  0  0  0  0
  145.3010   70.6560  219.3460 C   0  0  0  0  0  0  0  0  0  0  0  0
  145.5620   72.0030  219.3660 N   0  0  0  0  0  0  0  0  0  0  0  0
  144.5950   72.8790  219.6890 C   0  0  0  0  0  0  0  0  0  0  0  0
  144.8830   74.1920  219.7310 N   0  0  0  0  0  0  0  0  0  0  0  0
  143.0570   71.1060  219.9840 C   0  0  0  0  0  0  0  0  0  0  0  0
  144.3880   76.3330  220.0970 N   0  0  0  0  0  0  0  0  0  0  0  0
  140.2870   77.8930  222.5810 C   0  0  0  0  0  0  0  0  0  0  0  0
  139.6610   79.1370  222.4670 C   0  0  0  0  0  0  0  0  0  0  0  0
  140.1830   80.2650  223.0290 C   0  0  0  0  0  0  0  0  0  0  0  0
  141.3770   80.2750  223.7620 C   0  0  0  0  0  0  0  0  0  0  0  0
  142.0020   79.0250  223.8760 C   0  0  0  0  0  0  0  0  0  0  0  0
  141.4640   77.8900  223.3040 C   0  0  0  0  0  0  0  0  0  0  0  0
  138.7010   76.3447  223.8233 H   0  0  0  0  0  0  0  0  0  0  0  0
  137.5965   76.8650  222.5057 H   0  0  0  0  0  0  0  0  0  0  0  0
  138.2735   75.2011  222.5057 H   0  0  0  0  0  0  0  0  0  0  0  0
  139.4017   77.1225  220.9320 H   0  0  0  0  0  0  0  0  0  0  0  0
  140.4080   74.6890  222.0650 H   0  0  0  0  0  0  0  0  0  0  0  0
  141.3472   73.0743  220.6104 H   0  0  0  0  0  0  0  0  0  0  0  0
  142.8359   68.5227  219.8981 H   0  0  0  0  0  0  0  0  0  0  0  0
  144.6049   66.9197  219.3504 H   0  0  0  0  0  0  0  0  0  0  0  0
  146.8990   67.6987  218.7736 H   0  0  0  0  0  0  0  0  0  0  0  0
  147.3289   70.1712  218.7809 H   0  0  0  0  0  0  0  0  0  0  0  0
  145.8650   74.5040  219.4770 H   0  0  0  0  0  0  0  0  0  0  0  0
  143.8000   77.1360  220.3150 H   0  0  0  0  0  0  0  0  0  0  0  0
  138.7174   79.2090  221.9063 H   0  0  0  0  0  0  0  0  0  0  0  0
  139.6400   81.2130  222.9005 H   0  0  0  0  0  0  0  0  0  0  0  0
  141.7907   81.1896  224.2117 H   0  0  0  0  0  0  0  0  0  0  0  0
  142.9456   78.9470  224.4359 H   0  0  0  0  0  0  0  0  0  0  0  0
  141.9984   76.9368  223.4300 H   0  0  0  0  0  0  0  0  0  0  0  0
  1  2  1  0
  2  3  1  0
  3  4  1  0
  4  5  2  0
  4  6  1  0
  6  7  2  0
  7  8  1  0
  8  9  1  0
  9 10  2  0
  9 11  1  0
 11 12  1  0
 12 13  2  0
 13 14  1  0
 14 15  2  0
 15 16  1  0
 16 17  2  0
 17 18  1  0
 18 19  1  0
 19 20  1  0
 20 21  2  3
  2 22  1  0
 22 23  2  0
 23 24  1  0
 24 25  2  0
 25 26  1  0
 26 27  2  0
 20  6  1  0
 27 22  1  0
 18  8  2  0
 16 11  1  0
  1 28  1  0
  1 29  1  0
  1 30  1  0
  2 31  1  6
  3 32  1  0
  7 33  1  0
 12 34  1  0
 13 35  1  0
 14 36  1  0
 15 37  1  0
 19 38  1  0
 21 39  1  0
 23 40  1  0
 24 41  1  0
 25 42  1  0
 26 43  1  0
 27 44  1  0
M  END
>  <smiles>  (20) 
C[C@H](NC(=O)c1cc2c(=O)n3ccccc3nc2[nH]c1=N)c1ccccc1

>  <score_type>  (20) 
oracle

>  <origin>  (20) 
autodockgpu

>  <m_score__min__energy>  (20) 
-8.0500000000000007

>  <m_primary>  (20) 
energy

>  <rmsd>  (20) 
5.1427420293436805

>  <m_score__min__rmsd>  (20) 
5.1427420293436805

>  <meeko>  (20) 
{"free_energy": -7.31, "intermolecular_energy": -8.5, "internal_energy": -0.96, "cluster_size": 41, "cluster_id": 1, "rank_in_cluster": 37}

>  <energy>  (20) 
-7.83

>  <cluster_rmsd>  (20) 
0.2

>  <cluster>  (20) 
1

$$$$

     RDKit          3D

 44 47  0  0  0  0  0  0  0  0999 V2000
  140.5220   78.5490  219.8430 C   0  0  0  0  0  0  0  0  0  0  0  0
  141.8390   78.2720  220.6200 C   0  0  2  0  0  0  0  0  0  0  0  0
  141.9930   76.8460  220.8400 N   0  0  0  0  0  0  0  0  0  0  0  0
  142.6830   76.0200  219.9380 C   0  0  0  0  0  0  0  0  0  0  0  0
  143.1660   76.6060  218.8860 O   0  0  0  0  0  0  0  0  0  0  0  0
  142.9250   74.6080  220.0400 C   0  0  0  0  0  0  0  0  0  0  0  0
  143.9350   73.9490  219.3720 C   0  0  0  0  0  0  0  0  0  0  0  0
  144.1420   72.5980  219.4870 C   0  0  0  0  0  0  0  0  0  0  0  0
  142.1110   73.8120  220.8530 C   0  0  0  0  0  0  0  0  0  0  0  0
  145.8990   72.5490  218.0600 O   0  0  0  0  0  0  0  0  0  0  0  0
  145.2570   70.5460  218.9490 N   0  0  0  0  0  0  0  0  0  0  0  0
  146.1930   69.8580  218.2740 C   0  0  0  0  0  0  0  0  0  0  0  0
  146.3250   68.4930  218.3890 C   0  0  0  0  0  0  0  0  0  0  0  0
  145.4940   67.7640  219.2070 C   0  0  0  0  0  0  0  0  0  0  0  0
  144.5260   68.4660  219.9050 C   0  0  0  0  0  0  0  0  0  0  0  0
  144.4280   69.8440  219.7580 C   0  0  0  0  0  0  0  0  0  0  0  0
  143.4460   70.5130  220.4430 N   0  0  0  0  0  0  0  0  0  0  0  0
  143.3080   71.8430  220.3100 C   0  0  0  0  0  0  0  0  0  0  0  0
  142.3170   72.4720  220.9690 N   0  0  0  0  0  0  0  0  0  0  0  0
  145.1310   71.9040  218.8050 C   0  0  0  0  0  0  0  0  0  0  0  0
  141.1100   74.2600  221.5220 N   0  0  0  0  0  0  0  0  0  0  0  0
  141.8920   79.1200  221.7870 C   0  0  0  0  0  0  0  0  0  0  0  0
  142.0750   80.4950  221.6180 C   0  0  0  0  0  0  0  0  0  0  0  0
  142.1740   81.3490  222.6770 C   0  0  0  0  0  0  0  0  0  0  0  0
  142.1010   80.9280  224.0110 C   0  0  0  0  0  0  0  0  0  0  0  0
  141.9160   79.5470  224.1780 C   0  0  0  0  0  0  0  0  0  0  0  0
  141.8170   78.6930  223.0990 C   0  0  0  0  0  0  0  0  0  0  0  0
  139.7038   78.7211  220.5578 H   0  0  0  0  0  0  0  0  0  0  0  0
  140.6498   79.4399  219.2106 H   0  0  0  0  0  0  0  0  0  0  0  0
  140.2801   77.6821  219.2106 H   0  0  0  0  0  0  0  0  0  0  0  0
  142.7309   78.5467  220.0377 H   0  0  0  0  0  0  0  0  0  0  0  0
  141.5780   76.3920  221.7010 H   0  0  0  0  0  0  0  0  0  0  0  0
  144.6027   74.5309  218.7196 H   0  0  0  0  0  0  0  0  0  0  0  0
  146.8766   70.4040  217.6072 H   0  0  0  0  0  0  0  0  0  0  0  0
  147.1091   67.9759  217.8165 H   0  0  0  0  0  0  0  0  0  0  0  0
  145.5938   66.6727  219.3024 H   0  0  0  0  0  0  0  0  0  0  0  0
  143.8353   67.9333  220.5752 H   0  0  0  0  0  0  0  0  0  0  0  0
  141.6870   71.8990  221.6020 H   0  0  0  0  0  0  0  0  0  0  0  0
  140.1400   74.0580  221.2820 H   0  0  0  0  0  0  0  0  0  0  0  0
  142.1414   80.9018  220.5981 H   0  0  0  0  0  0  0  0  0  0  0  0
  142.3182   82.4204  222.4735 H   0  0  0  0  0  0  0  0  0  0  0  0
  142.1821   81.6237  224.8592 H   0  0  0  0  0  0  0  0  0  0  0  0
  141.8482   79.1347  225.1956 H   0  0  0  0  0  0  0  0  0  0  0  0
  141.6713   77.6200  223.2926 H   0  0  0  0  0  0  0  0  0  0  0  0
  1  2  1  0
  2  3  1  0
  3  4  1  0
  4  5  2  0
  4  6  1  0
  6  7  2  0
  7  8  1  0
  8  9  1  0
  9 10  2  0
  9 11  1  0
 11 12  1  0
 12 13  2  0
 13 14  1  0
 14 15  2  0
 15 16  1  0
 16 17  2  0
 17 18  1  0
 18 19  1  0
 19 20  1  0
 20 21  2  3
  2 22  1  0
 22 23  2  0
 23 24  1  0
 24 25  2  0
 25 26  1  0
 26 27  2  0
 20  6  1  0
 27 22  1  0
 18  8  2  0
 16 11  1  0
  1 28  1  0
  1 29  1  0
  1 30  1  0
  2 31  1  6
  3 32  1  0
  7 33  1  0
 12 34  1  0
 13 35  1  0
 14 36  1  0
 15 37  1  0
 19 38  1  0
 21 39  1  0
 23 40  1  0
 24 41  1  0
 25 42  1  0
 26 43  1  0
 27 44  1  0
M  END
>  <smiles>  (21) 
C[C@H](NC(=O)c1cc2c(=O)n3ccccc3nc2[nH]c1=N)c1ccccc1

>  <score_type>  (21) 
oracle

>  <origin>  (21) 
autodockgpu

>  <m_score__min__energy>  (21) 
-8.0500000000000007

>  <m_primary>  (21) 
energy

>  <rmsd>  (21) 
4.787584187909595

>  <m_score__min__rmsd>  (21) 
4.787584187909595

>  <meeko>  (21) 
{"free_energy": -7.18, "intermolecular_energy": -8.37, "internal_energy": -0.87, "cluster_size": 9, "cluster_id": 2, "rank_in_cluster": 3}

>  <energy>  (21) 
-7.83

>  <cluster_rmsd>  (21) 
0.52

>  <cluster>  (21) 
1

$$$$

     RDKit          3D

 44 47  0  0  0  0  0  0  0  0999 V2000
  139.4450   76.7940  222.4380 C   0  0  0  0  0  0  0  0  0  0  0  0
  140.4610   77.5590  221.5450 C   0  0  2  0  0  0  0  0  0  0  0  0
  141.5860   76.6980  221.2260 N   0  0  0  0  0  0  0  0  0  0  0  0
  141.4130   75.3880  220.7500 C   0  0  0  0  0  0  0  0  0  0  0  0
  140.1860   74.9860  220.6240 O   0  0  0  0  0  0  0  0  0  0  0  0
  142.4280   74.4420  220.3820 C   0  0  0  0  0  0  0  0  0  0  0  0
  142.2310   73.0780  220.3390 C   0  0  0  0  0  0  0  0  0  0  0  0
  143.2200   72.1950  219.9850 C   0  0  0  0  0  0  0  0  0  0  0  0
  143.7110   74.8830  220.0380 C   0  0  0  0  0  0  0  0  0  0  0  0
  141.9390   70.3490  220.2550 O   0  0  0  0  0  0  0  0  0  0  0  0
  144.1060   69.9980  219.6250 N   0  0  0  0  0  0  0  0  0  0  0  0
  143.9700   68.6610  219.6240 C   0  0  0  0  0  0  0  0  0  0  0  0
  145.0120   67.8190  219.3080 C   0  0  0  0  0  0  0  0  0  0  0  0
  146.2510   68.3140  218.9760 C   0  0  0  0  0  0  0  0  0  0  0  0
  146.3980   69.6910  218.9770 C   0  0  0  0  0  0  0  0  0  0  0  0
  145.3200   70.5040  219.3030 C   0  0  0  0  0  0  0  0  0  0  0  0
  145.4980   71.8630  219.3170 N   0  0  0  0  0  0  0  0  0  0  0  0
  144.4830   72.6800  219.6480 C   0  0  0  0  0  0  0  0  0  0  0  0
  144.6920   74.0090  219.6840 N   0  0  0  0  0  0  0  0  0  0  0  0
  143.0580   70.8180  219.9620 C   0  0  0  0  0  0  0  0  0  0  0  0
  144.0720   76.1160  220.0520 N   0  0  0  0  0  0  0  0  0  0  0  0
  140.7690   78.8320  222.1530 C   0  0  0  0  0  0  0  0  0  0  0  0
  141.9730   78.9760  222.8500 C   0  0  0  0  0  0  0  0  0  0  0  0
  142.3100   80.1370  223.4810 C   0  0  0  0  0  0  0  0  0  0  0  0
  141.4900   81.2730  223.4870 C   0  0  0  0  0  0  0  0  0  0  0  0
  140.2830   81.1260  222.7870 C   0  0  0  0  0  0  0  0  0  0  0  0
  139.9530   79.9460  222.1510 C   0  0  0  0  0  0  0  0  0  0  0  0
  139.6814   76.9720  223.4975 H   0  0  0  0  0  0  0  0  0  0  0  0
  138.4270   77.1518  222.2243 H   0  0  0  0  0  0  0  0  0  0  0  0
  139.5075   75.7168  222.2243 H   0  0  0  0  0  0  0  0  0  0  0  0
  140.0380   77.8167  220.5628 H   0  0  0  0  0  0  0  0  0  0  0  0
  142.5760   77.0480  221.3500 H   0  0  0  0  0  0  0  0  0  0  0  0
  141.2389   72.6807  220.5995 H   0  0  0  0  0  0  0  0  0  0  0  0
  142.9941   68.2253  219.8842 H   0  0  0  0  0  0  0  0  0  0  0  0
  144.8506   66.7310  219.3213 H   0  0  0  0  0  0  0  0  0  0  0  0
  147.0875   67.6466  218.7212 H   0  0  0  0  0  0  0  0  0  0  0  0
  147.3683   70.1409  218.7197 H   0  0  0  0  0  0  0  0  0  0  0  0
  145.6510   74.3780  219.4210 H   0  0  0  0  0  0  0  0  0  0  0  0
  144.4490   76.5980  219.2370 H   0  0  0  0  0  0  0  0  0  0  0  0
  142.6700   78.1260  222.8905 H   0  0  0  0  0  0  0  0  0  0  0  0
  143.2727   80.1839  224.0112 H   0  0  0  0  0  0  0  0  0  0  0  0
  141.7700   82.2053  223.9994 H   0  0  0  0  0  0  0  0  0  0  0  0
  139.5818   81.9725  222.7439 H   0  0  0  0  0  0  0  0  0  0  0  0
  138.9932   79.8905  221.6165 H   0  0  0  0  0  0  0  0  0  0  0  0
  1  2  1  0
  2  3  1  0
  3  4  1  0
  4  5  2  0
  4  6  1  0
  6  7  2  0
  7  8  1  0
  8  9  1  0
  9 10  2  0
  9 11  1  0
 11 12  1  0
 12 13  2  0
 13 14  1  0
 14 15  2  0
 15 16  1  0
 16 17  2  0
 17 18  1  0
 18 19  1  0
 19 20  1  0
 20 21  2  3
  2 22  1  0
 22 23  2  0
 23 24  1  0
 24 25  2  0
 25 26  1  0
 26 27  2  0
 20  6  1  0
 27 22  1  0
 18  8  2  0
 16 11  1  0
  1 28  1  0
  1 29  1  0
  1 30  1  0
  2 31  1  6
  3 32  1  0
  7 33  1  0
 12 34  1  0
 13 35  1  0
 14 36  1  0
 15 37  1  0
 19 38  1  0
 21 39  1  0
 23 40  1  0
 24 41  1  0
 25 42  1  0
 26 43  1  0
 27 44  1  0
M  END
>  <smiles>  (22) 
C[C@H](NC(=O)c1cc2c(=O)n3ccccc3nc2[nH]c1=N)c1ccccc1

>  <score_type>  (22) 
oracle

>  <origin>  (22) 
autodockgpu

>  <m_score__min__energy>  (22) 
-8.0500000000000007

>  <m_primary>  (22) 
energy

>  <rmsd>  (22) 
4.826703206220703

>  <m_score__min__rmsd>  (22) 
4.826703206220703

>  <meeko>  (22) 
{"free_energy": -7.55, "intermolecular_energy": -8.74, "internal_energy": -0.69, "cluster_size": 41, "cluster_id": 1, "rank_in_cluster": 31}

>  <energy>  (22) 
-7.8

>  <cluster_rmsd>  (22) 
0.22

>  <cluster>  (22) 
1

$$$$

     RDKit          3D

 44 47  0  0  0  0  0  0  0  0999 V2000
  140.2010   79.0470  219.8210 C   0  0  0  0  0  0  0  0  0  0  0  0
  141.5470   78.6500  220.4880 C   0  0  2  0  0  0  0  0  0  0  0  0
  141.6010   77.2120  220.6760 N   0  0  0  0  0  0  0  0  0  0  0  0
  142.5270   76.4020  219.9970 C   0  0  0  0  0  0  0  0  0  0  0  0
  143.3250   77.0160  219.1790 O   0  0  0  0  0  0  0  0  0  0  0  0
  142.7010   74.9810  220.1010 C   0  0  0  0  0  0  0  0  0  0  0  0
  143.8060   74.3040  219.6270 C   0  0  0  0  0  0  0  0  0  0  0  0
  143.9450   72.9430  219.7390 C   0  0  0  0  0  0  0  0  0  0  0  0
  141.7180   74.1940  220.7100 C   0  0  0  0  0  0  0  0  0  0  0  0
  145.9500   72.8680  218.6900 O   0  0  0  0  0  0  0  0  0  0  0  0
  145.0840   70.8670  219.3700 N   0  0  0  0  0  0  0  0  0  0  0  0
  146.1160   70.1640  218.8750 C   0  0  0  0  0  0  0  0  0  0  0  0
  146.1810   68.7930  218.9700 C   0  0  0  0  0  0  0  0  0  0  0  0
  145.1830   68.0740  219.5840 C   0  0  0  0  0  0  0  0  0  0  0  0
  144.1160   68.7920  220.0950 C   0  0  0  0  0  0  0  0  0  0  0  0
  144.0890   70.1760  219.9760 C   0  0  0  0  0  0  0  0  0  0  0  0
  143.0100   70.8610  220.4710 N   0  0  0  0  0  0  0  0  0  0  0  0
  142.9410   72.1990  220.3550 C   0  0  0  0  0  0  0  0  0  0  0  0
  141.8570   72.8450  220.8230 N   0  0  0  0  0  0  0  0  0  0  0  0
  145.0300   72.2330  219.2470 C   0  0  0  0  0  0  0  0  0  0  0  0
  140.6170   74.6600  221.1800 N   0  0  0  0  0  0  0  0  0  0  0  0
  141.7590   79.4670  221.6600 C   0  0  0  0  0  0  0  0  0  0  0  0
  141.5210   80.8420  221.5780 C   0  0  0  0  0  0  0  0  0  0  0  0
  141.7380   81.6780  222.6340 C   0  0  0  0  0  0  0  0  0  0  0  0
  142.2100   81.2380  223.8770 C   0  0  0  0  0  0  0  0  0  0  0  0
  142.4470   79.8580  223.9560 C   0  0  0  0  0  0  0  0  0  0  0  0
  142.2240   79.0200  222.8820 C   0  0  0  0  0  0  0  0  0  0  0  0
  139.4564   79.2666  220.6003 H   0  0  0  0  0  0  0  0  0  0  0  0
  140.3510   79.9392  219.1953 H   0  0  0  0  0  0  0  0  0  0  0  0
  139.8428   78.2163  219.1953 H   0  0  0  0  0  0  0  0  0  0  0  0
  142.4101   78.8647  219.8407 H   0  0  0  0  0  0  0  0  0  0  0  0
  140.9300   76.7350  221.3400 H   0  0  0  0  0  0  0  0  0  0  0  0
  144.6078   74.8781  219.1397 H   0  0  0  0  0  0  0  0  0  0  0  0
  146.9362   70.7022  218.3773 H   0  0  0  0  0  0  0  0  0  0  0  0
  147.0470   68.2627  218.5471 H   0  0  0  0  0  0  0  0  0  0  0  0
  145.2304   66.9780  219.6654 H   0  0  0  0  0  0  0  0  0  0  0  0
  143.2891   68.2669  220.5955 H   0  0  0  0  0  0  0  0  0  0  0  0
  141.0960   72.2800  221.2990 H   0  0  0  0  0  0  0  0  0  0  0  0
  139.9570   75.2050  220.6260 H   0  0  0  0  0  0  0  0  0  0  0  0
  141.1472   81.2629  220.6329 H   0  0  0  0  0  0  0  0  0  0  0  0
  141.5321   82.7506  222.5027 H   0  0  0  0  0  0  0  0  0  0  0  0
  142.3810   81.9198  224.7231 H   0  0  0  0  0  0  0  0  0  0  0  0
  142.8205   79.4321  224.8989 H   0  0  0  0  0  0  0  0  0  0  0  0
  142.4260   77.9457  223.0047 H   0  0  0  0  0  0  0  0  0  0  0  0
  1  2  1  0
  2  3  1  0
  3  4  1  0
  4  5  2  0
  4  6  1  0
  6  7  2  0
  7  8  1  0
  8  9  1  0
  9 10  2  0
  9 11  1  0
 11 12  1  0
 12 13  2  0
 13 14  1  0
 14 15  2  0
 15 16  1  0
 16 17  2  0
 17 18  1  0
 18 19  1  0
 19 20  1  0
 20 21  2  3
  2 22  1  0
 22 23  2  0
 23 24  1  0
 24 25  2  0
 25 26  1  0
 26 27  2  0
 20  6  1  0
 27 22  1  0
 18  8  2  0
 16 11  1  0
  1 28  1  0
  1 29  1  0
  1 30  1  0
  2 31  1  6
  3 32  1  0
  7 33  1  0
 12 34  1  0
 13 35  1  0
 14 36  1  0
 15 37  1  0
 19 38  1  0
 21 39  1  0
 23 40  1  0
 24 41  1  0
 25 42  1  0
 26 43  1  0
 27 44  1  0
M  END
>  <smiles>  (23) 
C[C@H](NC(=O)c1cc2c(=O)n3ccccc3nc2[nH]c1=N)c1ccccc1

>  <score_type>  (23) 
oracle

>  <origin>  (23) 
autodockgpu

>  <m_score__min__energy>  (23) 
-8.0500000000000007

>  <m_primary>  (23) 
energy

>  <rmsd>  (23) 
4.526508120636408

>  <m_score__min__rmsd>  (23) 
4.526508120636408

>  <meeko>  (23) 
{"free_energy": -7.1, "intermolecular_energy": -8.29, "internal_energy": -0.9, "cluster_size": 9, "cluster_id": 2, "rank_in_cluster": 7}

>  <energy>  (23) 
-7.77

>  <cluster_rmsd>  (23) 
0.31

>  <cluster>  (23) 
1

$$$$

     RDKit          3D

 44 47  0  0  0  0  0  0  0  0999 V2000
  138.6660   78.7070  223.0690 C   0  0  0  0  0  0  0  0  0  0  0  0
  139.9880   78.4790  222.2830 C   0  0  2  0  0  0  0  0  0  0  0  0
  140.2930   77.0610  222.2290 N   0  0  0  0  0  0  0  0  0  0  0  0
  141.1820   76.5220  221.2840 C   0  0  0  0  0  0  0  0  0  0  0  0
  141.7050   77.3670  220.4510 O   0  0  0  0  0  0  0  0  0  0  0  0
  141.5850   75.1530  221.1310 C   0  0  0  0  0  0  0  0  0  0  0  0
  142.7400   74.7570  220.4890 C   0  0  0  0  0  0  0  0  0  0  0  0
  143.1000   73.4400  220.3550 C   0  0  0  0  0  0  0  0  0  0  0  0
  140.7900   74.1230  221.6460 C   0  0  0  0  0  0  0  0  0  0  0  0
  145.0000   73.8740  219.2040 O   0  0  0  0  0  0  0  0  0  0  0  0
  144.5160   71.6730  219.5720 N   0  0  0  0  0  0  0  0  0  0  0  0
  145.6020   71.2440  218.9080 C   0  0  0  0  0  0  0  0  0  0  0  0
  145.8900   69.9060  218.7600 C   0  0  0  0  0  0  0  0  0  0  0  0
  145.0700   68.9390  219.2930 C   0  0  0  0  0  0  0  0  0  0  0  0
  143.9480   69.3750  219.9770 C   0  0  0  0  0  0  0  0  0  0  0  0
  143.6960   70.7350  220.1010 C   0  0  0  0  0  0  0  0  0  0  0  0
  142.5660   71.1390  220.7650 N   0  0  0  0  0  0  0  0  0  0  0  0
  142.2780   72.4470  220.8860 C   0  0  0  0  0  0  0  0  0  0  0  0
  141.1480   72.8170  221.5160 N   0  0  0  0  0  0  0  0  0  0  0  0
  144.2390   73.0110  219.6900 C   0  0  0  0  0  0  0  0  0  0  0  0
  139.6710   74.3140  222.2480 N   0  0  0  0  0  0  0  0  0  0  0  0
  141.0140   79.3450  222.8140 C   0  0  0  0  0  0  0  0  0  0  0  0
  140.6370   80.4510  223.5810 C   0  0  0  0  0  0  0  0  0  0  0  0
  141.5510   81.3310  224.0800 C   0  0  0  0  0  0  0  0  0  0  0  0
  142.9310   81.2060  223.8710 C   0  0  0  0  0  0  0  0  0  0  0  0
  143.3060   80.0950  223.1020 C   0  0  0  0  0  0  0  0  0  0  0  0
  142.3730   79.2100  222.6020 C   0  0  0  0  0  0  0  0  0  0  0  0
  138.8709   78.6717  224.1492 H   0  0  0  0  0  0  0  0  0  0  0  0
  138.2486   79.6904  222.8070 H   0  0  0  0  0  0  0  0  0  0  0  0
  137.9433   77.9202  222.8070 H   0  0  0  0  0  0  0  0  0  0  0  0
  139.8989   78.7704  221.2261 H   0  0  0  0  0  0  0  0  0  0  0  0
  139.8410   76.3920  222.9130 H   0  0  0  0  0  0  0  0  0  0  0  0
  143.3998   75.5294  220.0670 H   0  0  0  0  0  0  0  0  0  0  0  0
  146.2839   71.9865  218.4679 H   0  0  0  0  0  0  0  0  0  0  0  0
  146.7914   69.6051  218.2059 H   0  0  0  0  0  0  0  0  0  0  0  0
  145.2953   67.8682  219.1810 H   0  0  0  0  0  0  0  0  0  0  0  0
  143.2565   68.6444  220.4220 H   0  0  0  0  0  0  0  0  0  0  0  0
  140.5270   72.0610  221.9270 H   0  0  0  0  0  0  0  0  0  0  0  0
  139.3620   73.7620  223.0460 H   0  0  0  0  0  0  0  0  0  0  0  0
  139.5695   80.6166  223.7885 H   0  0  0  0  0  0  0  0  0  0  0  0
  141.1873   82.1810  224.6760 H   0  0  0  0  0  0  0  0  0  0  0  0
  143.6610   81.9215  224.2773 H   0  0  0  0  0  0  0  0  0  0  0  0
  144.3722   79.9245  222.8918 H   0  0  0  0  0  0  0  0  0  0  0  0
  142.7278   78.3561  222.0062 H   0  0  0  0  0  0  0  0  0  0  0  0
  1  2  1  0
  2  3  1  0
  3  4  1  0
  4  5  2  0
  4  6  1  0
  6  7  2  0
  7  8  1  0
  8  9  1  0
  9 10  2  0
  9 11  1  0
 11 12  1  0
 12 13  2  0
 13 14  1  0
 14 15  2  0
 15 16  1  0
 16 17  2  0
 17 18  1  0
 18 19  1  0
 19 20  1  0
 20 21  2  3
  2 22  1  0
 22 23  2  0
 23 24  1  0
 24 25  2  0
 25 26  1  0
 26 27  2  0
 20  6  1  0
 27 22  1  0
 18  8  2  0
 16 11  1  0
  1 28  1  0
  1 29  1  0
  1 30  1  0
  2 31  1  6
  3 32  1  0
  7 33  1  0
 12 34  1  0
 13 35  1  0
 14 36  1  0
 15 37  1  0
 19 38  1  0
 21 39  1  0
 23 40  1  0
 24 41  1  0
 25 42  1  0
 26 43  1  0
 27 44  1  0
M  END
>  <smiles>  (24) 
C[C@H](NC(=O)c1cc2c(=O)n3ccccc3nc2[nH]c1=N)c1ccccc1

>  <score_type>  (24) 
oracle

>  <origin>  (24) 
autodockgpu

>  <m_score__min__energy>  (24) 
-8.0500000000000007

>  <m_primary>  (24) 
energy

>  <rmsd>  (24) 
4.232809693396162

>  <m_score__min__rmsd>  (24) 
4.232809693396162

>  <meeko>  (24) 
{"free_energy": -7.25, "intermolecular_energy": -8.44, "internal_energy": -0.86, "cluster_size": 9, "cluster_id": 2, "rank_in_cluster": 2}

>  <energy>  (24) 
-7.74

>  <cluster_rmsd>  (24) 
0.29

>  <cluster>  (24) 
1

$$$$

     RDKit          3D

 44 47  0  0  0  0  0  0  0  0999 V2000
  138.5920   76.3770  222.7220 C   0  0  0  0  0  0  0  0  0  0  0  0
  139.8270   76.8620  221.9130 C   0  0  2  0  0  0  0  0  0  0  0  0
  140.7390   75.7550  221.6890 N   0  0  0  0  0  0  0  0  0  0  0  0
  141.6790   75.7600  220.6450 C   0  0  0  0  0  0  0  0  0  0  0  0
  141.6760   76.8090  219.8830 O   0  0  0  0  0  0  0  0  0  0  0  0
  142.6450   74.7480  220.3230 C   0  0  0  0  0  0  0  0  0  0  0  0
  142.3580   73.4010  220.2590 C   0  0  0  0  0  0  0  0  0  0  0  0
  143.3020   72.4550  219.9510 C   0  0  0  0  0  0  0  0  0  0  0  0
  143.9710   75.1020  220.0500 C   0  0  0  0  0  0  0  0  0  0  0  0
  141.8860   70.6990  220.1380 O   0  0  0  0  0  0  0  0  0  0  0  0
  144.0540   70.2040  219.6200 N   0  0  0  0  0  0  0  0  0  0  0  0
  143.8280   68.8790  219.6010 C   0  0  0  0  0  0  0  0  0  0  0  0
  144.8260   67.9690  219.3340 C   0  0  0  0  0  0  0  0  0  0  0  0
  146.1120   68.3800  219.0720 C   0  0  0  0  0  0  0  0  0  0  0  0
  146.3510   69.7430  219.0900 C   0  0  0  0  0  0  0  0  0  0  0  0
  145.3150   70.6270  219.3660 C   0  0  0  0  0  0  0  0  0  0  0  0
  145.5850   71.9710  219.4010 N   0  0  0  0  0  0  0  0  0  0  0  0
  144.6110   72.8530  219.6840 C   0  0  0  0  0  0  0  0  0  0  0  0
  144.9080   74.1650  219.7420 N   0  0  0  0  0  0  0  0  0  0  0  0
  143.0490   71.0920  219.9080 C   0  0  0  0  0  0  0  0  0  0  0  0
  144.4140   76.3080  220.0930 N   0  0  0  0  0  0  0  0  0  0  0  0
  140.3770   78.0400  222.5420 C   0  0  0  0  0  0  0  0  0  0  0  0
  139.5220   78.8930  223.2460 C   0  0  0  0  0  0  0  0  0  0  0  0
  139.9670   80.0420  223.8310 C   0  0  0  0  0  0  0  0  0  0  0  0
  141.3020   80.4620  223.7800 C   0  0  0  0  0  0  0  0  0  0  0  0
  142.1580   79.6040  223.0740 C   0  0  0  0  0  0  0  0  0  0  0  0
  141.6970   78.4430  222.4860 C   0  0  0  0  0  0  0  0  0  0  0  0
  138.8031   76.4599  223.7984 H   0  0  0  0  0  0  0  0  0  0  0  0
  137.7210   76.9999  222.4701 H   0  0  0  0  0  0  0  0  0  0  0  0
  138.3776   75.3279  222.4701 H   0  0  0  0  0  0  0  0  0  0  0  0
  139.5558   77.1897  220.8986 H   0  0  0  0  0  0  0  0  0  0  0  0
  140.7100   74.9060  222.3190 H   0  0  0  0  0  0  0  0  0  0  0  0
  141.3287   73.0712  220.4636 H   0  0  0  0  0  0  0  0  0  0  0  0
  142.8122   68.5097  219.8055 H   0  0  0  0  0  0  0  0  0  0  0  0
  144.5907   66.8945  219.3302 H   0  0  0  0  0  0  0  0  0  0  0  0
  146.9140   67.6583  218.8579 H   0  0  0  0  0  0  0  0  0  0  0  0
  147.3615   70.1267  218.8857 H   0  0  0  0  0  0  0  0  0  0  0  0
  145.9020   74.4690  219.5320 H   0  0  0  0  0  0  0  0  0  0  0  0
  143.8080   77.1250  220.1440 H   0  0  0  0  0  0  0  0  0  0  0  0
  138.4574   78.6294  223.3308 H   0  0  0  0  0  0  0  0  0  0  0  0
  139.2415   80.6696  224.3693 H   0  0  0  0  0  0  0  0  0  0  0  0
  141.6513   81.3904  224.2555 H   0  0  0  0  0  0  0  0  0  0  0  0
  143.2236   79.8627  222.9866 H   0  0  0  0  0  0  0  0  0  0  0  0
  142.4156   77.8083  221.9468 H   0  0  0  0  0  0  0  0  0  0  0  0
  1  2  1  0
  2  3  1  0
  3  4  1  0
  4  5  2  0
  4  6  1  0
  6  7  2  0
  7  8  1  0
  8  9  1  0
  9 10  2  0
  9 11  1  0
 11 12  1  0
 12 13  2  0
 13 14  1  0
 14 15  2  0
 15 16  1  0
 16 17  2  0
 17 18  1  0
 18 19  1  0
 19 20  1  0
 20 21  2  3
  2 22  1  0
 22 23  2  0
 23 24  1  0
 24 25  2  0
 25 26  1  0
 26 27  2  0
 20  6  1  0
 27 22  1  0
 18  8  2  0
 16 11  1  0
  1 28  1  0
  1 29  1  0
  1 30  1  0
  2 31  1  6
  3 32  1  0
  7 33  1  0
 12 34  1  0
 13 35  1  0
 14 36  1  0
 15 37  1  0
 19 38  1  0
 21 39  1  0
 23 40  1  0
 24 41  1  0
 25 42  1  0
 26 43  1  0
 27 44  1  0
M  END
>  <smiles>  (25) 
C[C@H](NC(=O)c1cc2c(=O)n3ccccc3nc2[nH]c1=N)c1ccccc1

>  <score_type>  (25) 
oracle

>  <origin>  (25) 
autodockgpu

>  <m_score__min__energy>  (25) 
-8.0500000000000007

>  <m_primary>  (25) 
energy

>  <rmsd>  (25) 
4.973822418696384

>  <m_score__min__rmsd>  (25) 
4.973822418696384

>  <meeko>  (25) 
{"free_energy": -7.32, "intermolecular_energy": -8.52, "internal_energy": -0.97, "cluster_size": 41, "cluster_id": 1, "rank_in_cluster": 35}

>  <energy>  (25) 
-7.71

>  <cluster_rmsd>  (25) 
0.43

>  <cluster>  (25) 
1

$$$$

     RDKit          3D

 44 47  0  0  0  0  0  0  0  0999 V2000
  138.5190   76.3620  222.7210 C   0  0  0  0  0  0  0  0  0  0  0  0
  139.7540   76.8540  221.9150 C   0  0  2  0  0  0  0  0  0  0  0  0
  140.6630   75.7480  221.6790 N   0  0  0  0  0  0  0  0  0  0  0  0
  141.6260   75.7770  220.6570 C   0  0  0  0  0  0  0  0  0  0  0  0
  141.6470   76.8480  219.9260 O   0  0  0  0  0  0  0  0  0  0  0  0
  142.5930   74.7680  220.3260 C   0  0  0  0  0  0  0  0  0  0  0  0
  142.3110   73.4190  220.2720 C   0  0  0  0  0  0  0  0  0  0  0  0
  143.2560   72.4760  219.9550 C   0  0  0  0  0  0  0  0  0  0  0  0
  143.9140   75.1270  220.0340 C   0  0  0  0  0  0  0  0  0  0  0  0
  141.8510   70.7140  220.1690 O   0  0  0  0  0  0  0  0  0  0  0  0
  144.0150   70.2270  219.6240 N   0  0  0  0  0  0  0  0  0  0  0  0
  143.7950   68.9020  219.6140 C   0  0  0  0  0  0  0  0  0  0  0  0
  144.7930   67.9960  219.3380 C   0  0  0  0  0  0  0  0  0  0  0  0
  146.0740   68.4110  219.0560 C   0  0  0  0  0  0  0  0  0  0  0  0
  146.3070   69.7760  219.0660 C   0  0  0  0  0  0  0  0  0  0  0  0
  145.2700   70.6550  219.3510 C   0  0  0  0  0  0  0  0  0  0  0  0
  145.5340   72.0010  219.3770 N   0  0  0  0  0  0  0  0  0  0  0  0
  144.5600   72.8800  219.6690 C   0  0  0  0  0  0  0  0  0  0  0  0
  144.8510   74.1930  219.7170 N   0  0  0  0  0  0  0  0  0  0  0  0
  143.0090   71.1120  219.9210 C   0  0  0  0  0  0  0  0  0  0  0  0
  144.3510   76.3350  220.0650 N   0  0  0  0  0  0  0  0  0  0  0  0
  140.3070   78.0240  222.5560 C   0  0  0  0  0  0  0  0  0  0  0  0
  139.4390   78.9400  223.1580 C   0  0  0  0  0  0  0  0  0  0  0  0
  139.8900   80.0850  223.7470 C   0  0  0  0  0  0  0  0  0  0  0  0
  141.2440   80.4390  223.7990 C   0  0  0  0  0  0  0  0  0  0  0  0
  142.1120   79.5180  223.1950 C   0  0  0  0  0  0  0  0  0  0  0  0
  141.6450   78.3620  222.6030 C   0  0  0  0  0  0  0  0  0  0  0  0
  138.7272   76.4450  223.7979 H   0  0  0  0  0  0  0  0  0  0  0  0
  137.6456   76.9808  222.4677 H   0  0  0  0  0  0  0  0  0  0  0  0
  138.3104   75.3121  222.4677 H   0  0  0  0  0  0  0  0  0  0  0  0
  139.4823   77.1934  220.9045 H   0  0  0  0  0  0  0  0  0  0  0  0
  140.6150   74.8800  222.2820 H   0  0  0  0  0  0  0  0  0  0  0  0
  141.2862   73.0853  220.4922 H   0  0  0  0  0  0  0  0  0  0  0  0
  142.7838   68.5290  219.8337 H   0  0  0  0  0  0  0  0  0  0  0  0
  144.5625   66.9204  219.3429 H   0  0  0  0  0  0  0  0  0  0  0  0
  146.8760   67.6919  218.8329 H   0  0  0  0  0  0  0  0  0  0  0  0
  147.3130   70.1640  218.8483 H   0  0  0  0  0  0  0  0  0  0  0  0
  145.8410   74.5010  219.4920 H   0  0  0  0  0  0  0  0  0  0  0  0
  143.7540   77.1430  220.2340 H   0  0  0  0  0  0  0  0  0  0  0  0
  138.3590   78.7310  223.1567 H   0  0  0  0  0  0  0  0  0  0  0  0
  139.1541   80.7633  224.2034 H   0  0  0  0  0  0  0  0  0  0  0  0
  141.5982   81.3651  224.2753 H   0  0  0  0  0  0  0  0  0  0  0  0
  143.1929   79.7221  223.1930 H   0  0  0  0  0  0  0  0  0  0  0  0
  142.3742   77.6766  222.1464 H   0  0  0  0  0  0  0  0  0  0  0  0
  1  2  1  0
  2  3  1  0
  3  4  1  0
  4  5  2  0
  4  6  1  0
  6  7  2  0
  7  8  1  0
  8  9  1  0
  9 10  2  0
  9 11  1  0
 11 12  1  0
 12 13  2  0
 13 14  1  0
 14 15  2  0
 15 16  1  0
 16 17  2  0
 17 18  1  0
 18 19  1  0
 19 20  1  0
 20 21  2  3
  2 22  1  0
 22 23  2  0
 23 24  1  0
 24 25  2  0
 25 26  1  0
 26 27  2  0
 20  6  1  0
 27 22  1  0
 18  8  2  0
 16 11  1  0
  1 28  1  0
  1 29  1  0
  1 30  1  0
  2 31  1  6
  3 32  1  0
  7 33  1  0
 12 34  1  0
 13 35  1  0
 14 36  1  0
 15 37  1  0
 19 38  1  0
 21 39  1  0
 23 40  1  0
 24 41  1  0
 25 42  1  0
 26 43  1  0
 27 44  1  0
M  END
>  <smiles>  (26) 
C[C@H](NC(=O)c1cc2c(=O)n3ccccc3nc2[nH]c1=N)c1ccccc1

>  <score_type>  (26) 
oracle

>  <origin>  (26) 
autodockgpu

>  <m_score__min__energy>  (26) 
-8.0500000000000007

>  <m_primary>  (26) 
energy

>  <rmsd>  (26) 
4.978782191286488

>  <m_score__min__rmsd>  (26) 
4.978782191286488

>  <meeko>  (26) 
{"free_energy": -7.32, "intermolecular_energy": -8.51, "internal_energy": -0.97, "cluster_size": 41, "cluster_id": 1, "rank_in_cluster": 36}

>  <energy>  (26) 
-7.67

>  <cluster_rmsd>  (26) 
0.34

>  <cluster>  (26) 
1

$$$$

     RDKit          3D

 44 47  0  0  0  0  0  0  0  0999 V2000
  138.5860   76.3970  222.7210 C   0  0  0  0  0  0  0  0  0  0  0  0
  139.8280   76.8890  221.9270 C   0  0  2  0  0  0  0  0  0  0  0  0
  140.7400   75.7840  221.6990 N   0  0  0  0  0  0  0  0  0  0  0  0
  141.6710   75.7870  220.6470 C   0  0  0  0  0  0  0  0  0  0  0  0
  141.6590   76.8340  219.8810 O   0  0  0  0  0  0  0  0  0  0  0  0
  142.6370   74.7770  220.3190 C   0  0  0  0  0  0  0  0  0  0  0  0
  142.3490   73.4290  220.2520 C   0  0  0  0  0  0  0  0  0  0  0  0
  143.2930   72.4840  219.9390 C   0  0  0  0  0  0  0  0  0  0  0  0
  143.9630   75.1310  220.0450 C   0  0  0  0  0  0  0  0  0  0  0  0
  141.8780   70.7270  220.1240 O   0  0  0  0  0  0  0  0  0  0  0  0
  144.0450   70.2340  219.6000 N   0  0  0  0  0  0  0  0  0  0  0  0
  143.8190   68.9100  219.5770 C   0  0  0  0  0  0  0  0  0  0  0  0
  144.8160   68.0010  219.3050 C   0  0  0  0  0  0  0  0  0  0  0  0
  146.1010   68.4120  219.0410 C   0  0  0  0  0  0  0  0  0  0  0  0
  146.3410   69.7750  219.0640 C   0  0  0  0  0  0  0  0  0  0  0  0
  145.3050   70.6580  219.3440 C   0  0  0  0  0  0  0  0  0  0  0  0
  145.5750   72.0020  219.3820 N   0  0  0  0  0  0  0  0  0  0  0  0
  144.6020   72.8830  219.6710 C   0  0  0  0  0  0  0  0  0  0  0  0
  144.8980   74.1950  219.7320 N   0  0  0  0  0  0  0  0  0  0  0  0
  143.0400   71.1210  219.8920 C   0  0  0  0  0  0  0  0  0  0  0  0
  144.4050   76.3370  220.0900 N   0  0  0  0  0  0  0  0  0  0  0  0
  140.3740   78.0590  222.5730 C   0  0  0  0  0  0  0  0  0  0  0  0
  139.5020   78.9630  223.1880 C   0  0  0  0  0  0  0  0  0  0  0  0
  139.9460   80.1070  223.7820 C   0  0  0  0  0  0  0  0  0  0  0  0
  141.2970   80.4730  223.8300 C   0  0  0  0  0  0  0  0  0  0  0  0
  142.1700   79.5650  223.2140 C   0  0  0  0  0  0  0  0  0  0  0  0
  141.7100   78.4090  222.6160 C   0  0  0  0  0  0  0  0  0  0  0  0
  138.7856   76.4761  223.7998 H   0  0  0  0  0  0  0  0  0  0  0  0
  137.7159   77.0184  222.4626 H   0  0  0  0  0  0  0  0  0  0  0  0
  138.3774   75.3483  222.4626 H   0  0  0  0  0  0  0  0  0  0  0  0
  139.5655   77.2277  220.9139 H   0  0  0  0  0  0  0  0  0  0  0  0
  140.7200   74.9360  222.3320 H   0  0  0  0  0  0  0  0  0  0  0  0
  141.3202   73.0987  220.4580 H   0  0  0  0  0  0  0  0  0  0  0  0
  142.8036   68.5401  219.7823 H   0  0  0  0  0  0  0  0  0  0  0  0
  144.5804   66.9265  219.2987 H   0  0  0  0  0  0  0  0  0  0  0  0
  146.9019   67.6906  218.8215 H   0  0  0  0  0  0  0  0  0  0  0  0
  147.3515   70.1592  218.8607 H   0  0  0  0  0  0  0  0  0  0  0  0
  145.8920   74.5000  219.5200 H   0  0  0  0  0  0  0  0  0  0  0  0
  143.7990   77.1550  220.1290 H   0  0  0  0  0  0  0  0  0  0  0  0
  138.4240   78.7441  223.1926 H   0  0  0  0  0  0  0  0  0  0  0  0
  139.2064   80.7757  224.2466 H   0  0  0  0  0  0  0  0  0  0  0  0
  141.6452   81.3983  224.3122 H   0  0  0  0  0  0  0  0  0  0  0  0
  143.2489   79.7793  223.2071 H   0  0  0  0  0  0  0  0  0  0  0  0
  142.4429   77.7333  222.1509 H   0  0  0  0  0  0  0  0  0  0  0  0
  1  2  1  0
  2  3  1  0
  3  4  1  0
  4  5  2  0
  4  6  1  0
  6  7  2  0
  7  8  1  0
  8  9  1  0
  9 10  2  0
  9 11  1  0
 11 12  1  0
 12 13  2  0
 13 14  1  0
 14 15  2  0
 15 16  1  0
 16 17  2  0
 17 18  1  0
 18 19  1  0
 19 20  1  0
 20 21  2  3
  2 22  1  0
 22 23  2  0
 23 24  1  0
 24 25  2  0
 25 26  1  0
 26 27  2  0
 20  6  1  0
 27 22  1  0
 18  8  2  0
 16 11  1  0
  1 28  1  0
  1 29  1  0
  1 30  1  0
  2 31  1  6
  3 32  1  0
  7 33  1  0
 12 34  1  0
 13 35  1  0
 14 36  1  0
 15 37  1  0
 19 38  1  0
 21 39  1  0
 23 40  1  0
 24 41  1  0
 25 42  1  0
 26 43  1  0
 27 44  1  0
M  END
>  <smiles>  (27) 
C[C@H](NC(=O)c1cc2c(=O)n3ccccc3nc2[nH]c1=N)c1ccccc1

>  <score_type>  (27) 
oracle

>  <origin>  (27) 
autodockgpu

>  <m_score__min__energy>  (27) 
-8.0500000000000007

>  <m_primary>  (27) 
energy

>  <rmsd>  (27) 
4.972739932738333

>  <m_score__min__rmsd>  (27) 
4.972739932738333

>  <meeko>  (27) 
{"free_energy": -7.34, "intermolecular_energy": -8.53, "internal_energy": -0.98, "cluster_size": 41, "cluster_id": 1, "rank_in_cluster": 32}

>  <energy>  (27) 
-7.66

>  <cluster_rmsd>  (27) 
0.49

>  <cluster>  (27) 
1

$$$$

     RDKit          3D

 44 47  0  0  0  0  0  0  0  0999 V2000
  139.1810   76.8580  222.6030 C   0  0  0  0  0  0  0  0  0  0  0  0
  140.4150   77.4800  221.8920 C   0  0  2  0  0  0  0  0  0  0  0  0
  141.4510   76.4760  221.7300 N   0  0  0  0  0  0  0  0  0  0  0  0
  141.5900   75.7280  220.5490 C   0  0  0  0  0  0  0  0  0  0  0  0
  140.7290   75.9790  219.6130 O   0  0  0  0  0  0  0  0  0  0  0  0
  142.5730   74.7250  220.2500 C   0  0  0  0  0  0  0  0  0  0  0  0
  142.2960   73.3760  220.1660 C   0  0  0  0  0  0  0  0  0  0  0  0
  143.2550   72.4380  219.8810 C   0  0  0  0  0  0  0  0  0  0  0  0
  143.9050   75.0880  220.0240 C   0  0  0  0  0  0  0  0  0  0  0  0
  141.8440   70.6720  220.0080 O   0  0  0  0  0  0  0  0  0  0  0  0
  144.0310   70.1940  219.5570 N   0  0  0  0  0  0  0  0  0  0  0  0
  143.8140   68.8690  219.5200 C   0  0  0  0  0  0  0  0  0  0  0  0
  144.8250   67.9670  219.2780 C   0  0  0  0  0  0  0  0  0  0  0  0
  146.1160   68.3870  219.0610 C   0  0  0  0  0  0  0  0  0  0  0  0
  146.3470   69.7510  219.0980 C   0  0  0  0  0  0  0  0  0  0  0  0
  145.2970   70.6260  219.3470 C   0  0  0  0  0  0  0  0  0  0  0  0
  145.5570   71.9720  219.4020 N   0  0  0  0  0  0  0  0  0  0  0  0
  144.5700   72.8460  219.6610 C   0  0  0  0  0  0  0  0  0  0  0  0
  144.8570   74.1590  219.7390 N   0  0  0  0  0  0  0  0  0  0  0  0
  143.0120   71.0740  219.8190 C   0  0  0  0  0  0  0  0  0  0  0  0
  144.3390   76.2960  220.0900 N   0  0  0  0  0  0  0  0  0  0  0  0
  140.7920   78.6990  222.5670 C   0  0  0  0  0  0  0  0  0  0  0  0
  139.7940   79.6120  222.9230 C   0  0  0  0  0  0  0  0  0  0  0  0
  140.0830   80.8000  223.5280 C   0  0  0  0  0  0  0  0  0  0  0  0
  141.3860   81.2050  223.8420 C   0  0  0  0  0  0  0  0  0  0  0  0
  142.3850   80.2870  223.4850 C   0  0  0  0  0  0  0  0  0  0  0  0
  142.0820   79.0860  222.8740 C   0  0  0  0  0  0  0  0  0  0  0  0
  139.3136   76.9248  223.6929 H   0  0  0  0  0  0  0  0  0  0  0  0
  138.2737   77.4065  222.3097 H   0  0  0  0  0  0  0  0  0  0  0  0
  139.0823   75.8024  222.3097 H   0  0  0  0  0  0  0  0  0  0  0  0
  140.1863   77.7930  220.8626 H   0  0  0  0  0  0  0  0  0  0  0  0
  142.1330   76.2820  222.5150 H   0  0  0  0  0  0  0  0  0  0  0  0
  141.2627   73.0387  220.3347 H   0  0  0  0  0  0  0  0  0  0  0  0
  142.7944   68.4923  219.6887 H   0  0  0  0  0  0  0  0  0  0  0  0
  144.5961   66.8913  219.2578 H   0  0  0  0  0  0  0  0  0  0  0  0
  146.9285   67.6713  218.8668 H   0  0  0  0  0  0  0  0  0  0  0  0
  147.3614   70.1421  218.9304 H   0  0  0  0  0  0  0  0  0  0  0  0
  145.8550   74.4700  219.5630 H   0  0  0  0  0  0  0  0  0  0  0  0
  143.7350   77.1000  220.2570 H   0  0  0  0  0  0  0  0  0  0  0  0
  138.7439   79.3645  222.7086 H   0  0  0  0  0  0  0  0  0  0  0  0
  139.2510   81.4733  223.7818 H   0  0  0  0  0  0  0  0  0  0  0  0
  141.6085   82.1657  224.3294 H   0  0  0  0  0  0  0  0  0  0  0  0
  143.4366   80.5300  223.6972 H   0  0  0  0  0  0  0  0  0  0  0  0
  142.9075   78.4050  222.6196 H   0  0  0  0  0  0  0  0  0  0  0  0
  1  2  1  0
  2  3  1  0
  3  4  1  0
  4  5  2  0
  4  6  1  0
  6  7  2  0
  7  8  1  0
  8  9  1  0
  9 10  2  0
  9 11  1  0
 11 12  1  0
 12 13  2  0
 13 14  1  0
 14 15  2  0
 15 16  1  0
 16 17  2  0
 17 18  1  0
 18 19  1  0
 19 20  1  0
 20 21  2  3
  2 22  1  0
 22 23  2  0
 23 24  1  0
 24 25  2  0
 25 26  1  0
 26 27  2  0
 20  6  1  0
 27 22  1  0
 18  8  2  0
 16 11  1  0
  1 28  1  0
  1 29  1  0
  1 30  1  0
  2 31  1  6
  3 32  1  0
  7 33  1  0
 12 34  1  0
 13 35  1  0
 14 36  1  0
 15 37  1  0
 19 38  1  0
 21 39  1  0
 23 40  1  0
 24 41  1  0
 25 42  1  0
 26 43  1  0
 27 44  1  0
M  END
>  <smiles>  (28) 
C[C@H](NC(=O)c1cc2c(=O)n3ccccc3nc2[nH]c1=N)c1ccccc1

>  <score_type>  (28) 
oracle

>  <origin>  (28) 
autodockgpu

>  <m_score__min__energy>  (28) 
-8.0500000000000007

>  <m_primary>  (28) 
energy

>  <rmsd>  (28) 
4.741024343527369

>  <m_score__min__rmsd>  (28) 
4.741024343527369

>  <meeko>  (28) 
{"free_energy": -7.9, "intermolecular_energy": -9.1, "internal_energy": -0.37, "cluster_size": 41, "cluster_id": 1, "rank_in_cluster": 15}

>  <energy>  (28) 
-7.65

>  <cluster_rmsd>  (28) 
0.71

>  <cluster>  (28) 
1

$$$$

     RDKit          3D

 44 47  0  0  0  0  0  0  0  0999 V2000
  138.4640   76.2760  222.7350 C   0  0  0  0  0  0  0  0  0  0  0  0
  139.6870   76.7700  221.9140 C   0  0  2  0  0  0  0  0  0  0  0  0
  140.5840   75.6620  221.6450 N   0  0  0  0  0  0  0  0  0  0  0  0
  141.6400   75.7610  220.7240 C   0  0  0  0  0  0  0  0  0  0  0  0
  141.7590   76.9010  220.1170 O   0  0  0  0  0  0  0  0  0  0  0  0
  142.6060   74.7570  220.3780 C   0  0  0  0  0  0  0  0  0  0  0  0
  142.3290   73.4070  220.3240 C   0  0  0  0  0  0  0  0  0  0  0  0
  143.2730   72.4680  219.9920 C   0  0  0  0  0  0  0  0  0  0  0  0
  143.9220   75.1220  220.0700 C   0  0  0  0  0  0  0  0  0  0  0  0
  141.8780   70.7000  220.2210 O   0  0  0  0  0  0  0  0  0  0  0  0
  144.0350   70.2230  219.6460 N   0  0  0  0  0  0  0  0  0  0  0  0
  143.8200   68.8970  219.6350 C   0  0  0  0  0  0  0  0  0  0  0  0
  144.8190   67.9950  219.3430 C   0  0  0  0  0  0  0  0  0  0  0  0
  146.0930   68.4160  219.0460 C   0  0  0  0  0  0  0  0  0  0  0  0
  146.3210   69.7810  219.0560 C   0  0  0  0  0  0  0  0  0  0  0  0
  145.2850   70.6560  219.3570 C   0  0  0  0  0  0  0  0  0  0  0  0
  145.5440   72.0030  219.3820 N   0  0  0  0  0  0  0  0  0  0  0  0
  144.5710   72.8770  219.6900 C   0  0  0  0  0  0  0  0  0  0  0  0
  144.8580   74.1910  219.7380 N   0  0  0  0  0  0  0  0  0  0  0  0
  143.0300   71.1030  219.9590 C   0  0  0  0  0  0  0  0  0  0  0  0
  144.3550   76.3310  220.0980 N   0  0  0  0  0  0  0  0  0  0  0  0
  140.2590   77.9280  222.5590 C   0  0  0  0  0  0  0  0  0  0  0  0
  139.6190   79.1640  222.4260 C   0  0  0  0  0  0  0  0  0  0  0  0
  140.1250   80.3040  222.9760 C   0  0  0  0  0  0  0  0  0  0  0  0
  141.3150   80.3380  223.7150 C   0  0  0  0  0  0  0  0  0  0  0  0
  141.9540   79.0960  223.8490 C   0  0  0  0  0  0  0  0  0  0  0  0
  141.4330   77.9480  223.2880 C   0  0  0  0  0  0  0  0  0  0  0  0
  138.6835   76.3647  223.8092 H   0  0  0  0  0  0  0  0  0  0  0  0
  137.5849   76.8896  222.4885 H   0  0  0  0  0  0  0  0  0  0  0  0
  138.2577   75.2240  222.4885 H   0  0  0  0  0  0  0  0  0  0  0  0
  139.3989   77.1243  220.9132 H   0  0  0  0  0  0  0  0  0  0  0  0
  140.4560   74.7390  222.1460 H   0  0  0  0  0  0  0  0  0  0  0  0
  141.3085   73.0688  220.5568 H   0  0  0  0  0  0  0  0  0  0  0  0
  142.8132   68.5193  219.8668 H   0  0  0  0  0  0  0  0  0  0  0  0
  144.5931   66.9185  219.3476 H   0  0  0  0  0  0  0  0  0  0  0  0
  146.8950   67.7007  218.8111 H   0  0  0  0  0  0  0  0  0  0  0  0
  147.3226   70.1730  218.8256 H   0  0  0  0  0  0  0  0  0  0  0  0
  145.8430   74.5040  219.5010 H   0  0  0  0  0  0  0  0  0  0  0  0
  143.7510   77.1390  220.2440 H   0  0  0  0  0  0  0  0  0  0  0  0
  138.6775   79.2182  221.8597 H   0  0  0  0  0  0  0  0  0  0  0  0
  139.5717   81.2438  222.8326 H   0  0  0  0  0  0  0  0  0  0  0  0
  141.7158   81.2633  224.1545 H   0  0  0  0  0  0  0  0  0  0  0  0
  142.8947   79.0359  224.4160 H   0  0  0  0  0  0  0  0  0  0  0  0
  141.9785   77.0030  223.4278 H   0  0  0  0  0  0  0  0  0  0  0  0
  1  2  1  0
  2  3  1  0
  3  4  1  0
  4  5  2  0
  4  6  1  0
  6  7  2  0
  7  8  1  0
  8  9  1  0
  9 10  2  0
  9 11  1  0
 11 12  1  0
 12 13  2  0
 13 14  1  0
 14 15  2  0
 15 16  1  0
 16 17  2  0
 17 18  1  0
 18 19  1  0
 19 20  1  0
 20 21  2  3
  2 22  1  0
 22 23  2  0
 23 24  1  0
 24 25  2  0
 25 26  1  0
 26 27  2  0
 20  6  1  0
 27 22  1  0
 18  8  2  0
 16 11  1  0
  1 28  1  0
  1 29  1  0
  1 30  1  0
  2 31  1  6
  3 32  1  0
  7 33  1  0
 12 34  1  0
 13 35  1  0
 14 36  1  0
 15 37  1  0
 19 38  1  0
 21 39  1  0
 23 40  1  0
 24 41  1  0
 25 42  1  0
 26 43  1  0
 27 44  1  0
M  END
>  <smiles>  (29) 
C[C@H](NC(=O)c1cc2c(=O)n3ccccc3nc2[nH]c1=N)c1ccccc1

>  <score_type>  (29) 
oracle

>  <origin>  (29) 
autodockgpu

>  <m_score__min__energy>  (29) 
-8.0500000000000007

>  <m_primary>  (29) 
energy

>  <rmsd>  (29) 
5.114636790052597

>  <m_score__min__rmsd>  (29) 
5.114636790052597

>  <meeko>  (29) 
{"free_energy": -7.3, "intermolecular_energy": -8.49, "internal_energy": -0.99, "cluster_size": 41, "cluster_id": 1, "rank_in_cluster": 39}

>  <energy>  (29) 
-7.65

>  <cluster_rmsd>  (29) 
0.32

>  <cluster>  (29) 
1

$$$$

     RDKit          3D

 44 47  0  0  0  0  0  0  0  0999 V2000
  140.5180   78.8010  219.7080 C   0  0  0  0  0  0  0  0  0  0  0  0
  141.8270   78.5460  220.5060 C   0  0  2  0  0  0  0  0  0  0  0  0
  141.9850   77.1250  220.7570 N   0  0  0  0  0  0  0  0  0  0  0  0
  142.6160   76.2680  219.8400 C   0  0  0  0  0  0  0  0  0  0  0  0
  143.0410   76.8210  218.7460 O   0  0  0  0  0  0  0  0  0  0  0  0
  142.8540   74.8580  219.9690 C   0  0  0  0  0  0  0  0  0  0  0  0
  143.8540   74.1820  219.3010 C   0  0  0  0  0  0  0  0  0  0  0  0
  144.0570   72.8320  219.4410 C   0  0  0  0  0  0  0  0  0  0  0  0
  142.0480   74.0820  220.8090 C   0  0  0  0  0  0  0  0  0  0  0  0
  145.7950   72.7470  217.9930 O   0  0  0  0  0  0  0  0  0  0  0  0
  145.1580   70.7650  218.9310 N   0  0  0  0  0  0  0  0  0  0  0  0
  146.0830   70.0610  218.2580 C   0  0  0  0  0  0  0  0  0  0  0  0
  146.2110   68.6970  218.3990 C   0  0  0  0  0  0  0  0  0  0  0  0
  145.3890   67.9890  219.2440 C   0  0  0  0  0  0  0  0  0  0  0  0
  144.4330   68.7090  219.9390 C   0  0  0  0  0  0  0  0  0  0  0  0
  144.3380   70.0840  219.7660 C   0  0  0  0  0  0  0  0  0  0  0  0
  143.3670   70.7700  220.4490 N   0  0  0  0  0  0  0  0  0  0  0  0
  143.2320   72.0980  220.2910 C   0  0  0  0  0  0  0  0  0  0  0  0
  142.2520   72.7440  220.9500 N   0  0  0  0  0  0  0  0  0  0  0  0
  145.0350   72.1210  218.7610 C   0  0  0  0  0  0  0  0  0  0  0  0
  141.0580   74.5470  221.4810 N   0  0  0  0  0  0  0  0  0  0  0  0
  141.8640   79.4170  221.6560 C   0  0  0  0  0  0  0  0  0  0  0  0
  141.6420   80.7860  221.4760 C   0  0  0  0  0  0  0  0  0  0  0  0
  141.6990   81.6710  222.5120 C   0  0  0  0  0  0  0  0  0  0  0  0
  141.9820   81.2920  223.8310 C   0  0  0  0  0  0  0  0  0  0  0  0
  142.2030   79.9180  224.0090 C   0  0  0  0  0  0  0  0  0  0  0  0
  142.1410   79.0310  222.9530 C   0  0  0  0  0  0  0  0  0  0  0  0
  139.6865   78.9630  220.4097 H   0  0  0  0  0  0  0  0  0  0  0  0
  140.6423   79.6918  219.0748 H   0  0  0  0  0  0  0  0  0  0  0  0
  140.2988   77.9287  219.0748 H   0  0  0  0  0  0  0  0  0  0  0  0
  142.7237   78.8136  219.9278 H   0  0  0  0  0  0  0  0  0  0  0  0
  141.6180   76.6980  221.6530 H   0  0  0  0  0  0  0  0  0  0  0  0
  144.5156   74.7481  218.6288 H   0  0  0  0  0  0  0  0  0  0  0  0
  146.7602   70.5910  217.5720 H   0  0  0  0  0  0  0  0  0  0  0  0
  146.9842   68.1646  217.8257 H   0  0  0  0  0  0  0  0  0  0  0  0
  145.4869   66.8998  219.3622 H   0  0  0  0  0  0  0  0  0  0  0  0
  143.7486   68.1926  220.6281 H   0  0  0  0  0  0  0  0  0  0  0  0
  141.6280   72.1870  221.6020 H   0  0  0  0  0  0  0  0  0  0  0  0
  140.1590   74.7840  221.0640 H   0  0  0  0  0  0  0  0  0  0  0  0
  141.4143   81.1607  220.4672 H   0  0  0  0  0  0  0  0  0  0  0  0
  141.5137   82.7347  222.3019 H   0  0  0  0  0  0  0  0  0  0  0  0
  142.0272   82.0136  224.6600 H   0  0  0  0  0  0  0  0  0  0  0  0
  142.4315   79.5378  225.0156 H   0  0  0  0  0  0  0  0  0  0  0  0
  142.3210   77.9647  223.1543 H   0  0  0  0  0  0  0  0  0  0  0  0
  1  2  1  0
  2  3  1  0
  3  4  1  0
  4  5  2  0
  4  6  1  0
  6  7  2  0
  7  8  1  0
  8  9  1  0
  9 10  2  0
  9 11  1  0
 11 12  1  0
 12 13  2  0
 13 14  1  0
 14 15  2  0
 15 16  1  0
 16 17  2  0
 17 18  1  0
 18 19  1  0
 19 20  1  0
 20 21  2  3
  2 22  1  0
 22 23  2  0
 23 24  1  0
 24 25  2  0
 25 26  1  0
 26 27  2  0
 20  6  1  0
 27 22  1  0
 18  8  2  0
 16 11  1  0
  1 28  1  0
  1 29  1  0
  1 30  1  0
  2 31  1  6
  3 32  1  0
  7 33  1  0
 12 34  1  0
 13 35  1  0
 14 36  1  0
 15 37  1  0
 19 38  1  0
 21 39  1  0
 23 40  1  0
 24 41  1  0
 25 42  1  0
 26 43  1  0
 27 44  1  0
M  END
>  <smiles>  (30) 
C[C@H](NC(=O)c1cc2c(=O)n3ccccc3nc2[nH]c1=N)c1ccccc1

>  <score_type>  (30) 
oracle

>  <origin>  (30) 
autodockgpu

>  <m_score__min__energy>  (30) 
-8.0500000000000007

>  <m_primary>  (30) 
energy

>  <rmsd>  (30) 
4.592983779877245

>  <m_score__min__rmsd>  (30) 
4.592983779877245

>  <meeko>  (30) 
{"free_energy": -7.25, "intermolecular_energy": -8.44, "internal_energy": -0.85, "cluster_size": 9, "cluster_id": 2, "rank_in_cluster": 1}

>  <energy>  (30) 
-7.63

>  <cluster_rmsd>  (30) 
0.6

>  <cluster>  (30) 
1

$$$$

     RDKit          3D

 44 47  0  0  0  0  0  0  0  0999 V2000
  139.5110   76.8570  222.3870 C   0  0  0  0  0  0  0  0  0  0  0  0
  140.5410   77.6580  221.5440 C   0  0  2  0  0  0  0  0  0  0  0  0
  141.6560   76.8030  221.1800 N   0  0  0  0  0  0  0  0  0  0  0  0
  141.4740   75.4710  220.7720 C   0  0  0  0  0  0  0  0  0  0  0  0
  140.2490   75.0450  220.7520 O   0  0  0  0  0  0  0  0  0  0  0  0
  142.4770   74.5260  220.3700 C   0  0  0  0  0  0  0  0  0  0  0  0
  142.3010   73.1580  220.3930 C   0  0  0  0  0  0  0  0  0  0  0  0
  143.2790   72.2780  220.0050 C   0  0  0  0  0  0  0  0  0  0  0  0
  143.7260   74.9720  219.9220 C   0  0  0  0  0  0  0  0  0  0  0  0
  142.0520   70.4240  220.4330 O   0  0  0  0  0  0  0  0  0  0  0  0
  144.1760   70.0810  219.6680 N   0  0  0  0  0  0  0  0  0  0  0  0
  144.0630   68.7440  219.7270 C   0  0  0  0  0  0  0  0  0  0  0  0
  145.0960   67.9050  219.3720 C   0  0  0  0  0  0  0  0  0  0  0  0
  146.3000   68.4050  218.9360 C   0  0  0  0  0  0  0  0  0  0  0  0
  146.4230   69.7820  218.8740 C   0  0  0  0  0  0  0  0  0  0  0  0
  145.3560   70.5920  219.2430 C   0  0  0  0  0  0  0  0  0  0  0  0
  145.5110   71.9530  219.1940 N   0  0  0  0  0  0  0  0  0  0  0  0
  144.5070   72.7670  219.5630 C   0  0  0  0  0  0  0  0  0  0  0  0
  144.6950   74.0990  219.5340 N   0  0  0  0  0  0  0  0  0  0  0  0
  143.1400   70.8980  220.0450 C   0  0  0  0  0  0  0  0  0  0  0  0
  144.0650   76.2100  219.8630 N   0  0  0  0  0  0  0  0  0  0  0  0
  140.8630   78.8890  222.2270 C   0  0  0  0  0  0  0  0  0  0  0  0
  142.2050   79.2560  222.3670 C   0  0  0  0  0  0  0  0  0  0  0  0
  142.5810   80.3840  223.0340 C   0  0  0  0  0  0  0  0  0  0  0  0
  141.6690   81.2640  223.6290 C   0  0  0  0  0  0  0  0  0  0  0  0
  140.3240   80.8950  223.4870 C   0  0  0  0  0  0  0  0  0  0  0  0
  139.9530   79.7510  222.8080 C   0  0  0  0  0  0  0  0  0  0  0  0
  139.7122   77.0134  223.4571 H   0  0  0  0  0  0  0  0  0  0  0  0
  138.4944   77.2042  222.1504 H   0  0  0  0  0  0  0  0  0  0  0  0
  139.5971   75.7862  222.1504 H   0  0  0  0  0  0  0  0  0  0  0  0
  140.1260   77.9771  220.5766 H   0  0  0  0  0  0  0  0  0  0  0  0
  142.6460   77.1730  221.2170 H   0  0  0  0  0  0  0  0  0  0  0  0
  141.3364   72.7562  220.7367 H   0  0  0  0  0  0  0  0  0  0  0  0
  143.1146   68.3048  220.0700 H   0  0  0  0  0  0  0  0  0  0  0  0
  144.9551   66.8161  219.4385 H   0  0  0  0  0  0  0  0  0  0  0  0
  147.1284   67.7405  218.6493 H   0  0  0  0  0  0  0  0  0  0  0  0
  147.3654   70.2353  218.5326 H   0  0  0  0  0  0  0  0  0  0  0  0
  145.6270   74.4720  219.1900 H   0  0  0  0  0  0  0  0  0  0  0  0
  144.2800   76.7720  220.6860 H   0  0  0  0  0  0  0  0  0  0  0  0
  142.9817   78.6145  221.9251 H   0  0  0  0  0  0  0  0  0  0  0  0
  143.6541   80.6141  223.1084 H   0  0  0  0  0  0  0  0  0  0  0  0
  141.9826   82.1720  224.1649 H   0  0  0  0  0  0  0  0  0  0  0  0
  139.5440   81.5331  223.9278 H   0  0  0  0  0  0  0  0  0  0  0  0
  138.8818   79.5149  222.7259 H   0  0  0  0  0  0  0  0  0  0  0  0
  1  2  1  0
  2  3  1  0
  3  4  1  0
  4  5  2  0
  4  6  1  0
  6  7  2  0
  7  8  1  0
  8  9  1  0
  9 10  2  0
  9 11  1  0
 11 12  1  0
 12 13  2  0
 13 14  1  0
 14 15  2  0
 15 16  1  0
 16 17  2  0
 17 18  1  0
 18 19  1  0
 19 20  1  0
 20 21  2  3
  2 22  1  0
 22 23  2  0
 23 24  1  0
 24 25  2  0
 25 26  1  0
 26 27  2  0
 20  6  1  0
 27 22  1  0
 18  8  2  0
 16 11  1  0
  1 28  1  0
  1 29  1  0
  1 30  1  0
  2 31  1  6
  3 32  1  0
  7 33  1  0
 12 34  1  0
 13 35  1  0
 14 36  1  0
 15 37  1  0
 19 38  1  0
 21 39  1  0
 23 40  1  0
 24 41  1  0
 25 42  1  0
 26 43  1  0
 27 44  1  0
M  END
>  <smiles>  (31) 
C[C@H](NC(=O)c1cc2c(=O)n3ccccc3nc2[nH]c1=N)c1ccccc1

>  <score_type>  (31) 
oracle

>  <origin>  (31) 
autodockgpu

>  <m_score__min__energy>  (31) 
-8.0500000000000007

>  <m_primary>  (31) 
energy

>  <rmsd>  (31) 
4.8955700512258895

>  <m_score__min__rmsd>  (31) 
4.8955700512258895

>  <meeko>  (31) 
{"free_energy": -8.05, "intermolecular_energy": -9.24, "internal_energy": -0.5, "cluster_size": 41, "cluster_id": 1, "rank_in_cluster": 1}

>  <energy>  (31) 
-7.55

>  <cluster_rmsd>  (31) 
0.39

>  <cluster>  (31) 
1

$$$$

     RDKit          3D

 44 47  0  0  0  0  0  0  0  0999 V2000
  139.4120   76.8520  222.3920 C   0  0  0  0  0  0  0  0  0  0  0  0
  140.4540   77.6480  221.5580 C   0  0  2  0  0  0  0  0  0  0  0  0
  141.5780   76.7920  221.2240 N   0  0  0  0  0  0  0  0  0  0  0  0
  141.4050   75.4860  220.7360 C   0  0  0  0  0  0  0  0  0  0  0  0
  140.1780   75.0840  220.6140 O   0  0  0  0  0  0  0  0  0  0  0  0
  142.4190   74.5460  220.3520 C   0  0  0  0  0  0  0  0  0  0  0  0
  142.2480   73.1770  220.3710 C   0  0  0  0  0  0  0  0  0  0  0  0
  143.2360   72.3000  220.0000 C   0  0  0  0  0  0  0  0  0  0  0  0
  143.6730   74.9970  219.9250 C   0  0  0  0  0  0  0  0  0  0  0  0
  142.0090   70.4420  220.4070 O   0  0  0  0  0  0  0  0  0  0  0  0
  144.1470   70.1080  219.6790 N   0  0  0  0  0  0  0  0  0  0  0  0
  144.0400   68.7700  219.7360 C   0  0  0  0  0  0  0  0  0  0  0  0
  145.0810   67.9360  219.3990 C   0  0  0  0  0  0  0  0  0  0  0  0
  146.2910   68.4400  218.9840 C   0  0  0  0  0  0  0  0  0  0  0  0
  146.4090   69.8180  218.9250 C   0  0  0  0  0  0  0  0  0  0  0  0
  145.3330   70.6230  219.2750 C   0  0  0  0  0  0  0  0  0  0  0  0
  145.4830   71.9850  219.2280 N   0  0  0  0  0  0  0  0  0  0  0  0
  144.4700   72.7950  219.5800 C   0  0  0  0  0  0  0  0  0  0  0  0
  144.6530   74.1280  219.5550 N   0  0  0  0  0  0  0  0  0  0  0  0
  143.1020   70.9200  220.0380 C   0  0  0  0  0  0  0  0  0  0  0  0
  144.0080   76.2360  219.8730 N   0  0  0  0  0  0  0  0  0  0  0  0
  140.7600   78.8870  222.2330 C   0  0  0  0  0  0  0  0  0  0  0  0
  142.0980   79.2630  222.3860 C   0  0  0  0  0  0  0  0  0  0  0  0
  142.4590   80.4010  223.0460 C   0  0  0  0  0  0  0  0  0  0  0  0
  141.5330   81.2820  223.6210 C   0  0  0  0  0  0  0  0  0  0  0  0
  140.1920   80.9030  223.4640 C   0  0  0  0  0  0  0  0  0  0  0  0
  139.8370   79.7500  222.7930 C   0  0  0  0  0  0  0  0  0  0  0  0
  139.6084   77.0021  223.4639 H   0  0  0  0  0  0  0  0  0  0  0  0
  138.3998   77.2090  222.1512 H   0  0  0  0  0  0  0  0  0  0  0  0
  139.4902   75.7815  222.1512 H   0  0  0  0  0  0  0  0  0  0  0  0
  140.0553   77.9558  220.5801 H   0  0  0  0  0  0  0  0  0  0  0  0
  142.5690   77.1420  221.3450 H   0  0  0  0  0  0  0  0  0  0  0  0
  141.2789   72.7716  220.6973 H   0  0  0  0  0  0  0  0  0  0  0  0
  143.0880   68.3264  220.0631 H   0  0  0  0  0  0  0  0  0  0  0  0
  144.9428   66.8466  219.4627 H   0  0  0  0  0  0  0  0  0  0  0  0
  147.1267   67.7788  218.7114 H   0  0  0  0  0  0  0  0  0  0  0  0
  147.3554   70.2754  218.6008 H   0  0  0  0  0  0  0  0  0  0  0  0
  145.5890   74.5050  219.2280 H   0  0  0  0  0  0  0  0  0  0  0  0
  144.2870   76.7760  220.6910 H   0  0  0  0  0  0  0  0  0  0  0  0
  142.8839   78.6213  221.9610 H   0  0  0  0  0  0  0  0  0  0  0  0
  143.5296   80.6389  223.1311 H   0  0  0  0  0  0  0  0  0  0  0  0
  141.8338   82.1969  224.1525 H   0  0  0  0  0  0  0  0  0  0  0  0
  139.4021   81.5413  223.8867 H   0  0  0  0  0  0  0  0  0  0  0  0
  138.7684   79.5064  222.6995 H   0  0  0  0  0  0  0  0  0  0  0  0
  1  2  1  0
  2  3  1  0
  3  4  1  0
  4  5  2  0
  4  6  1  0
  6  7  2  0
  7  8  1  0
  8  9  1  0
  9 10  2  0
  9 11  1  0
 11 12  1  0
 12 13  2  0
 13 14  1  0
 14 15  2  0
 15 16  1  0
 16 17  2  0
 17 18  1  0
 18 19  1  0
 19 20  1  0
 20 21  2  3
  2 22  1  0
 22 23  2  0
 23 24  1  0
 24 25  2  0
 25 26  1  0
 26 27  2  0
 20  6  1  0
 27 22  1  0
 18  8  2  0
 16 11  1  0
  1 28  1  0
  1 29  1  0
  1 30  1  0
  2 31  1  6
  3 32  1  0
  7 33  1  0
 12 34  1  0
 13 35  1  0
 14 36  1  0
 15 37  1  0
 19 38  1  0
 21 39  1  0
 23 40  1  0
 24 41  1  0
 25 42  1  0
 26 43  1  0
 27 44  1  0
M  END
>  <smiles>  (32) 
C[C@H](NC(=O)c1cc2c(=O)n3ccccc3nc2[nH]c1=N)c1ccccc1

>  <score_type>  (32) 
oracle

>  <origin>  (32) 
autodockgpu

>  <m_score__min__energy>  (32) 
-8.0500000000000007

>  <m_primary>  (32) 
energy

>  <rmsd>  (32) 
4.87488764977313

>  <m_score__min__rmsd>  (32) 
4.87488764977313

>  <meeko>  (32) 
{"free_energy": -7.97, "intermolecular_energy": -9.16, "internal_energy": -0.57, "cluster_size": 41, "cluster_id": 1, "rank_in_cluster": 5}

>  <energy>  (32) 
-7.34

>  <cluster_rmsd>  (32) 
0.96

>  <cluster>  (32) 
1

$$$$

     RDKit          3D

 44 47  0  0  0  0  0  0  0  0999 V2000
  139.3800   76.7360  222.3260 C   0  0  0  0  0  0  0  0  0  0  0  0
  140.4550   77.5310  221.5330 C   0  0  2  0  0  0  0  0  0  0  0  0
  141.5840   76.6720  221.2310 N   0  0  0  0  0  0  0  0  0  0  0  0
  141.4230   75.3920  220.6750 C   0  0  0  0  0  0  0  0  0  0  0  0
  140.2000   75.0170  220.4580 O   0  0  0  0  0  0  0  0  0  0  0  0
  142.4450   74.4510  220.3120 C   0  0  0  0  0  0  0  0  0  0  0  0
  142.2630   73.0840  220.2980 C   0  0  0  0  0  0  0  0  0  0  0  0
  143.2590   72.2070  219.9490 C   0  0  0  0  0  0  0  0  0  0  0  0
  143.7180   74.9010  219.9450 C   0  0  0  0  0  0  0  0  0  0  0  0
  142.0040   70.3510  220.2680 O   0  0  0  0  0  0  0  0  0  0  0  0
  144.1670   70.0140  219.6200 N   0  0  0  0  0  0  0  0  0  0  0  0
  144.0480   68.6760  219.6450 C   0  0  0  0  0  0  0  0  0  0  0  0
  145.0960   67.8410  219.3330 C   0  0  0  0  0  0  0  0  0  0  0  0
  146.3260   68.3440  218.9780 C   0  0  0  0  0  0  0  0  0  0  0  0
  146.4550   69.7220  218.9500 C   0  0  0  0  0  0  0  0  0  0  0  0
  145.3710   70.5280  219.2740 C   0  0  0  0  0  0  0  0  0  0  0  0
  145.5330   71.8900  219.2610 N   0  0  0  0  0  0  0  0  0  0  0  0
  144.5120   72.7000  219.5880 C   0  0  0  0  0  0  0  0  0  0  0  0
  144.7050   74.0320  219.5970 N   0  0  0  0  0  0  0  0  0  0  0  0
  143.1140   70.8280  219.9530 C   0  0  0  0  0  0  0  0  0  0  0  0
  144.0640   76.1380  219.9320 N   0  0  0  0  0  0  0  0  0  0  0  0
  140.7440   78.7650  222.2260 C   0  0  0  0  0  0  0  0  0  0  0  0
  139.6910   79.4780  222.8070 C   0  0  0  0  0  0  0  0  0  0  0  0
  139.8870   80.6680  223.4430 C   0  0  0  0  0  0  0  0  0  0  0  0
  141.1440   81.2740  223.5680 C   0  0  0  0  0  0  0  0  0  0  0  0
  142.1980   80.5560  222.9850 C   0  0  0  0  0  0  0  0  0  0  0  0
  141.9890   79.3510  222.3450 C   0  0  0  0  0  0  0  0  0  0  0  0
  139.5518   76.8631  223.4050 H   0  0  0  0  0  0  0  0  0  0  0  0
  138.3797   77.1133  222.0671 H   0  0  0  0  0  0  0  0  0  0  0  0
  139.4478   75.6691  222.0671 H   0  0  0  0  0  0  0  0  0  0  0  0
  140.0919   77.8466  220.5438 H   0  0  0  0  0  0  0  0  0  0  0  0
  142.5710   76.9980  221.4300 H   0  0  0  0  0  0  0  0  0  0  0  0
  141.2789   72.6801  220.5781 H   0  0  0  0  0  0  0  0  0  0  0  0
  143.0805   68.2334  219.9242 H   0  0  0  0  0  0  0  0  0  0  0  0
  144.9476   66.7516  219.3681 H   0  0  0  0  0  0  0  0  0  0  0  0
  147.1681   67.6820  218.7279 H   0  0  0  0  0  0  0  0  0  0  0  0
  147.4160   70.1788  218.6711 H   0  0  0  0  0  0  0  0  0  0  0  0
  145.6560   74.4080  219.3150 H   0  0  0  0  0  0  0  0  0  0  0  0
  144.0700   76.7280  220.7630 H   0  0  0  0  0  0  0  0  0  0  0  0
  138.6727   79.0661  222.7492 H   0  0  0  0  0  0  0  0  0  0  0  0
  139.0152   81.1774  223.8795 H   0  0  0  0  0  0  0  0  0  0  0  0
  141.2921   82.2352  224.0819 H   0  0  0  0  0  0  0  0  0  0  0  0
  143.2182   80.9638  223.0391 H   0  0  0  0  0  0  0  0  0  0  0  0
  142.8556   78.8326  221.9088 H   0  0  0  0  0  0  0  0  0  0  0  0
  1  2  1  0
  2  3  1  0
  3  4  1  0
  4  5  2  0
  4  6  1  0
  6  7  2  0
  7  8  1  0
  8  9  1  0
  9 10  2  0
  9 11  1  0
 11 12  1  0
 12 13  2  0
 13 14  1  0
 14 15  2  0
 15 16  1  0
 16 17  2  0
 17 18  1  0
 18 19  1  0
 19 20  1  0
 20 21  2  3
  2 22  1  0
 22 23  2  0
 23 24  1  0
 24 25  2  0
 25 26  1  0
 26 27  2  0
 20  6  1  0
 27 22  1  0
 18  8  2  0
 16 11  1  0
  1 28  1  0
  1 29  1  0
  1 30  1  0
  2 31  1  6
  3 32  1  0
  7 33  1  0
 12 34  1  0
 13 35  1  0
 14 36  1  0
 15 37  1  0
 19 38  1  0
 21 39  1  0
 23 40  1  0
 24 41  1  0
 25 42  1  0
 26 43  1  0
 27 44  1  0
M  END
>  <smiles>  (33) 
C[C@H](NC(=O)c1cc2c(=O)n3ccccc3nc2[nH]c1=N)c1ccccc1

>  <score_type>  (33) 
oracle

>  <origin>  (33) 
autodockgpu

>  <m_score__min__energy>  (33) 
-8.0500000000000007

>  <m_primary>  (33) 
energy

>  <rmsd>  (33) 
4.704669830418558

>  <m_score__min__rmsd>  (33) 
4.704669830418558

>  <meeko>  (33) 
{"free_energy": -7.8, "intermolecular_energy": -9.0, "internal_energy": -0.57, "cluster_size": 41, "cluster_id": 1, "rank_in_cluster": 22}

>  <energy>  (33) 
-7.33

>  <cluster_rmsd>  (33) 
0.95

>  <cluster>  (33) 
1

$$$$

     RDKit          3D

 44 47  0  0  0  0  0  0  0  0999 V2000
  139.4070   76.9230  222.3980 C   0  0  0  0  0  0  0  0  0  0  0  0
  140.4520   77.6700  221.5240 C   0  0  2  0  0  0  0  0  0  0  0  0
  141.5730   76.7950  221.2360 N   0  0  0  0  0  0  0  0  0  0  0  0
  141.4010   75.5170  220.6790 C   0  0  0  0  0  0  0  0  0  0  0  0
  140.1760   75.1590  220.4470 O   0  0  0  0  0  0  0  0  0  0  0  0
  142.4150   74.5620  220.3290 C   0  0  0  0  0  0  0  0  0  0  0  0
  142.2040   73.2000  220.2750 C   0  0  0  0  0  0  0  0  0  0  0  0
  143.1920   72.3100  219.9400 C   0  0  0  0  0  0  0  0  0  0  0  0
  143.7100   74.9920  220.0190 C   0  0  0  0  0  0  0  0  0  0  0  0
  141.8860   70.4750  220.1690 O   0  0  0  0  0  0  0  0  0  0  0  0
  144.0640   70.1050  219.5890 N   0  0  0  0  0  0  0  0  0  0  0  0
  143.9140   68.7700  219.5770 C   0  0  0  0  0  0  0  0  0  0  0  0
  144.9550   67.9180  219.2820 C   0  0  0  0  0  0  0  0  0  0  0  0
  146.2070   68.4020  218.9820 C   0  0  0  0  0  0  0  0  0  0  0  0
  146.3670   69.7770  218.9930 C   0  0  0  0  0  0  0  0  0  0  0  0
  145.2900   70.6000  219.2980 C   0  0  0  0  0  0  0  0  0  0  0  0
  145.4820   71.9570  219.3240 N   0  0  0  0  0  0  0  0  0  0  0  0
  144.4680   72.7830  219.6350 C   0  0  0  0  0  0  0  0  0  0  0  0
  144.6900   74.1090  219.6840 N   0  0  0  0  0  0  0  0  0  0  0  0
  143.0170   70.9340  219.9050 C   0  0  0  0  0  0  0  0  0  0  0  0
  144.0830   76.2210  220.0470 N   0  0  0  0  0  0  0  0  0  0  0  0
  140.7600   78.9430  222.1330 C   0  0  0  0  0  0  0  0  0  0  0  0
  141.6830   78.9860  223.1820 C   0  0  0  0  0  0  0  0  0  0  0  0
  141.9920   80.1470  223.8270 C   0  0  0  0  0  0  0  0  0  0  0  0
  141.4200   81.3830  223.5000 C   0  0  0  0  0  0  0  0  0  0  0  0
  140.4950   81.3370  222.4460 C   0  0  0  0  0  0  0  0  0  0  0  0
  140.1910   80.1560  221.7990 C   0  0  0  0  0  0  0  0  0  0  0  0
  139.6350   77.0860  223.4617 H   0  0  0  0  0  0  0  0  0  0  0  0
  138.4008   77.3077  222.1755 H   0  0  0  0  0  0  0  0  0  0  0  0
  139.4454   75.8464  222.1755 H   0  0  0  0  0  0  0  0  0  0  0  0
  140.0558   77.9261  220.5303 H   0  0  0  0  0  0  0  0  0  0  0  0
  142.5620   77.1080  221.4470 H   0  0  0  0  0  0  0  0  0  0  0  0
  141.2020   72.8118  220.5103 H   0  0  0  0  0  0  0  0  0  0  0  0
  142.9273   68.3434  219.8105 H   0  0  0  0  0  0  0  0  0  0  0  0
  144.7822   66.8317  219.2864 H   0  0  0  0  0  0  0  0  0  0  0  0
  147.0428   67.7275  218.7442 H   0  0  0  0  0  0  0  0  0  0  0  0
  147.3474   70.2182  218.7601 H   0  0  0  0  0  0  0  0  0  0  0  0
  145.6580   74.4700  219.4450 H   0  0  0  0  0  0  0  0  0  0  0  0
  143.9020   76.8430  220.8340 H   0  0  0  0  0  0  0  0  0  0  0  0
  142.1754   78.0542  223.4970 H   0  0  0  0  0  0  0  0  0  0  0  0
  142.7269   80.1111  224.6447 H   0  0  0  0  0  0  0  0  0  0  0  0
  141.6753   82.3143  224.0268 H   0  0  0  0  0  0  0  0  0  0  0  0
  139.9993   82.2658  222.1270 H   0  0  0  0  0  0  0  0  0  0  0  0
  139.4600   80.1826  220.9775 H   0  0  0  0  0  0  0  0  0  0  0  0
  1  2  1  0
  2  3  1  0
  3  4  1  0
  4  5  2  0
  4  6  1  0
  6  7  2  0
  7  8  1  0
  8  9  1  0
  9 10  2  0
  9 11  1  0
 11 12  1  0
 12 13  2  0
 13 14  1  0
 14 15  2  0
 15 16  1  0
 16 17  2  0
 17 18  1  0
 18 19  1  0
 19 20  1  0
 20 21  2  3
  2 22  1  0
 22 23  2  0
 23 24  1  0
 24 25  2  0
 25 26  1  0
 26 27  2  0
 20  6  1  0
 27 22  1  0
 18  8  2  0
 16 11  1  0
  1 28  1  0
  1 29  1  0
  1 30  1  0
  2 31  1  6
  3 32  1  0
  7 33  1  0
 12 34  1  0
 13 35  1  0
 14 36  1  0
 15 37  1  0
 19 38  1  0
 21 39  1  0
 23 40  1  0
 24 41  1  0
 25 42  1  0
 26 43  1  0
 27 44  1  0
M  END
>  <smiles>  (34) 
C[C@H](NC(=O)c1cc2c(=O)n3ccccc3nc2[nH]c1=N)c1ccccc1

>  <score_type>  (34) 
oracle

>  <origin>  (34) 
autodockgpu

>  <m_score__min__energy>  (34) 
-8.0500000000000007

>  <m_primary>  (34) 
energy

>  <rmsd>  (34) 
4.704322316915016

>  <m_score__min__rmsd>  (34) 
4.704322316915016

>  <meeko>  (34) 
{"free_energy": -7.71, "intermolecular_energy": -8.9, "internal_energy": -0.65, "cluster_size": 41, "cluster_id": 1, "rank_in_cluster": 25}

>  <energy>  (34) 
-7.33

>  <cluster_rmsd>  (34) 
0.96

>  <cluster>  (34) 
1

$$$$

     RDKit          3D

 44 47  0  0  0  0  0  0  0  0999 V2000
  139.7270   77.1870  222.4320 C   0  0  0  0  0  0  0  0  0  0  0  0
  140.7400   77.9020  221.4950 C   0  0  2  0  0  0  0  0  0  0  0  0
  141.8320   77.0030  221.1690 N   0  0  0  0  0  0  0  0  0  0  0  0
  141.6140   75.6720  220.7750 C   0  0  0  0  0  0  0  0  0  0  0  0
  140.3750   75.2890  220.7320 O   0  0  0  0  0  0  0  0  0  0  0  0
  142.5930   74.6880  220.4090 C   0  0  0  0  0  0  0  0  0  0  0  0
  142.3410   73.3330  220.3610 C   0  0  0  0  0  0  0  0  0  0  0  0
  143.2970   72.4130  220.0100 C   0  0  0  0  0  0  0  0  0  0  0  0
  143.8940   75.0790  220.0750 C   0  0  0  0  0  0  0  0  0  0  0  0
  141.9420   70.6180  220.2650 O   0  0  0  0  0  0  0  0  0  0  0  0
  144.0970   70.1830  219.6470 N   0  0  0  0  0  0  0  0  0  0  0  0
  143.9080   68.8530  219.6410 C   0  0  0  0  0  0  0  0  0  0  0  0
  144.9180   67.9710  219.3290 C   0  0  0  0  0  0  0  0  0  0  0  0
  146.1780   68.4180  219.0060 C   0  0  0  0  0  0  0  0  0  0  0  0
  146.3790   69.7870  219.0120 C   0  0  0  0  0  0  0  0  0  0  0  0
  145.3320   70.6410  219.3340 C   0  0  0  0  0  0  0  0  0  0  0  0
  145.5640   71.9930  219.3550 N   0  0  0  0  0  0  0  0  0  0  0  0
  144.5800   72.8480  219.6820 C   0  0  0  0  0  0  0  0  0  0  0  0
  144.8410   74.1670  219.7240 N   0  0  0  0  0  0  0  0  0  0  0  0
  143.0810   71.0430  219.9800 C   0  0  0  0  0  0  0  0  0  0  0  0
  144.3030   76.2970  220.0950 N   0  0  0  0  0  0  0  0  0  0  0  0
  141.0980   79.1790  222.0650 C   0  0  0  0  0  0  0  0  0  0  0  0
  141.8800   79.2090  223.2230 C   0  0  0  0  0  0  0  0  0  0  0  0
  142.2220   80.3780  223.8360 C   0  0  0  0  0  0  0  0  0  0  0  0
  141.8260   81.6360  223.3650 C   0  0  0  0  0  0  0  0  0  0  0  0
  141.0420   81.6040  222.2020 C   0  0  0  0  0  0  0  0  0  0  0  0
  140.7020   80.4140  221.5890 C   0  0  0  0  0  0  0  0  0  0  0  0
  139.9989   77.3789  223.4805 H   0  0  0  0  0  0  0  0  0  0  0  0
  138.7147   77.5718  222.2394 H   0  0  0  0  0  0  0  0  0  0  0  0
  139.7505   76.1043  222.2394 H   0  0  0  0  0  0  0  0  0  0  0  0
  140.2995   78.1482  220.5176 H   0  0  0  0  0  0  0  0  0  0  0  0
  142.8340   77.3390  221.2250 H   0  0  0  0  0  0  0  0  0  0  0  0
  141.3323   72.9749  220.6145 H   0  0  0  0  0  0  0  0  0  0  0  0
  142.9138   68.4557  219.8936 H   0  0  0  0  0  0  0  0  0  0  0  0
  144.7138   66.8902  219.3382 H   0  0  0  0  0  0  0  0  0  0  0  0
  146.9891   67.7189  218.7543 H   0  0  0  0  0  0  0  0  0  0  0  0
  147.3678   70.1989  218.7618 H   0  0  0  0  0  0  0  0  0  0  0  0
  145.8160   74.4990  219.4680 H   0  0  0  0  0  0  0  0  0  0  0  0
  143.6850   77.0970  219.9710 H   0  0  0  0  0  0  0  0  0  0  0  0
  142.2307   78.2594  223.6535 H   0  0  0  0  0  0  0  0  0  0  0  0
  142.8393   80.3306  224.7452 H   0  0  0  0  0  0  0  0  0  0  0  0
  142.1071   82.5738  223.8666 H   0  0  0  0  0  0  0  0  0  0  0  0
  140.6891   82.5508  221.7673 H   0  0  0  0  0  0  0  0  0  0  0  0
  140.0864   80.4513  220.6782 H   0  0  0  0  0  0  0  0  0  0  0  0
  1  2  1  0
  2  3  1  0
  3  4  1  0
  4  5  2  0
  4  6  1  0
  6  7  2  0
  7  8  1  0
  8  9  1  0
  9 10  2  0
  9 11  1  0
 11 12  1  0
 12 13  2  0
 13 14  1  0
 14 15  2  0
 15 16  1  0
 16 17  2  0
 17 18  1  0
 18 19  1  0
 19 20  1  0
 20 21  2  3
  2 22  1  0
 22 23  2  0
 23 24  1  0
 24 25  2  0
 25 26  1  0
 26 27  2  0
 20  6  1  0
 27 22  1  0
 18  8  2  0
 16 11  1  0
  1 28  1  0
  1 29  1  0
  1 30  1  0
  2 31  1  6
  3 32  1  0
  7 33  1  0
 12 34  1  0
 13 35  1  0
 14 36  1  0
 15 37  1  0
 19 38  1  0
 21 39  1  0
 23 40  1  0
 24 41  1  0
 25 42  1  0
 26 43  1  0
 27 44  1  0
M  END
>  <smiles>  (35) 
C[C@H](NC(=O)c1cc2c(=O)n3ccccc3nc2[nH]c1=N)c1ccccc1

>  <score_type>  (35) 
oracle

>  <origin>  (35) 
autodockgpu

>  <m_score__min__energy>  (35) 
-8.0500000000000007

>  <m_primary>  (35) 
energy

>  <rmsd>  (35) 
4.622494457879574

>  <m_score__min__rmsd>  (35) 
4.622494457879574

>  <meeko>  (35) 
{"free_energy": -7.88, "intermolecular_energy": -9.08, "internal_energy": -0.62, "cluster_size": 41, "cluster_id": 1, "rank_in_cluster": 17}

>  <energy>  (35) 
-7.32

>  <cluster_rmsd>  (35) 
0.96

>  <cluster>  (35) 
1

$$$$

     RDKit          3D

 44 47  0  0  0  0  0  0  0  0999 V2000
  139.3810   76.8130  222.4010 C   0  0  0  0  0  0  0  0  0  0  0  0
  140.4610   77.6090  221.6170 C   0  0  2  0  0  0  0  0  0  0  0  0
  141.5890   76.7480  221.3160 N   0  0  0  0  0  0  0  0  0  0  0  0
  141.4280   75.4780  220.7370 C   0  0  0  0  0  0  0  0  0  0  0  0
  140.2060   75.1140  220.4980 O   0  0  0  0  0  0  0  0  0  0  0  0
  142.4490   74.5370  220.3720 C   0  0  0  0  0  0  0  0  0  0  0  0
  142.2580   73.1720  220.3280 C   0  0  0  0  0  0  0  0  0  0  0  0
  143.2530   72.2950  219.9780 C   0  0  0  0  0  0  0  0  0  0  0  0
  143.7310   74.9850  220.0360 C   0  0  0  0  0  0  0  0  0  0  0  0
  141.9800   70.4420  220.2400 O   0  0  0  0  0  0  0  0  0  0  0  0
  144.1510   70.1020  219.6200 N   0  0  0  0  0  0  0  0  0  0  0  0
  144.0220   68.7650  219.6170 C   0  0  0  0  0  0  0  0  0  0  0  0
  145.0700   67.9280  219.3060 C   0  0  0  0  0  0  0  0  0  0  0  0
  146.3080   68.4290  218.9810 C   0  0  0  0  0  0  0  0  0  0  0  0
  146.4480   69.8060  218.9830 C   0  0  0  0  0  0  0  0  0  0  0  0
  145.3650   70.6140  219.3050 C   0  0  0  0  0  0  0  0  0  0  0  0
  145.5370   71.9740  219.3210 N   0  0  0  0  0  0  0  0  0  0  0  0
  144.5160   72.7860  219.6480 C   0  0  0  0  0  0  0  0  0  0  0  0
  144.7180   74.1150  219.6860 N   0  0  0  0  0  0  0  0  0  0  0  0
  143.0990   70.9160  219.9520 C   0  0  0  0  0  0  0  0  0  0  0  0
  144.0860   76.2190  220.0520 N   0  0  0  0  0  0  0  0  0  0  0  0
  140.7500   78.8380  222.3170 C   0  0  0  0  0  0  0  0  0  0  0  0
  142.0800   79.1490  222.6190 C   0  0  0  0  0  0  0  0  0  0  0  0
  142.4210   80.2730  223.3110 C   0  0  0  0  0  0  0  0  0  0  0  0
  141.4830   81.2040  223.7740 C   0  0  0  0  0  0  0  0  0  0  0  0
  140.1500   80.8910  223.4690 C   0  0  0  0  0  0  0  0  0  0  0  0
  139.8160   79.7510  222.7660 C   0  0  0  0  0  0  0  0  0  0  0  0
  139.5474   76.9356  223.4814 H   0  0  0  0  0  0  0  0  0  0  0  0
  138.3827   77.1929  222.1383 H   0  0  0  0  0  0  0  0  0  0  0  0
  139.4484   75.7470  222.1383 H   0  0  0  0  0  0  0  0  0  0  0  0
  140.1033   77.9309  220.6278 H   0  0  0  0  0  0  0  0  0  0  0  0
  142.5750   77.0650  221.5330 H   0  0  0  0  0  0  0  0  0  0  0  0
  141.2667   72.7698  220.5842 H   0  0  0  0  0  0  0  0  0  0  0  0
  143.0468   68.3242  219.8714 H   0  0  0  0  0  0  0  0  0  0  0  0
  144.9138   66.8392  219.3178 H   0  0  0  0  0  0  0  0  0  0  0  0
  147.1492   67.7658  218.7307 H   0  0  0  0  0  0  0  0  0  0  0  0
  147.4171   70.2606  218.7296 H   0  0  0  0  0  0  0  0  0  0  0  0
  145.6760   74.4900  219.4270 H   0  0  0  0  0  0  0  0  0  0  0  0
  143.5270   76.9570  220.4780 H   0  0  0  0  0  0  0  0  0  0  0  0
  142.8755   78.4653  222.2878 H   0  0  0  0  0  0  0  0  0  0  0  0
  143.4858   80.4578  223.5158 H   0  0  0  0  0  0  0  0  0  0  0  0
  141.7685   82.1080  224.3320 H   0  0  0  0  0  0  0  0  0  0  0  0
  139.3507   81.5712  223.7984 H   0  0  0  0  0  0  0  0  0  0  0  0
  138.7538   79.5603  222.5529 H   0  0  0  0  0  0  0  0  0  0  0  0
  1  2  1  0
  2  3  1  0
  3  4  1  0
  4  5  2  0
  4  6  1  0
  6  7  2  0
  7  8  1  0
  8  9  1  0
  9 10  2  0
  9 11  1  0
 11 12  1  0
 12 13  2  0
 13 14  1  0
 14 15  2  0
 15 16  1  0
 16 17  2  0
 17 18  1  0
 18 19  1  0
 19 20  1  0
 20 21  2  3
  2 22  1  0
 22 23  2  0
 23 24  1  0
 24 25  2  0
 25 26  1  0
 26 27  2  0
 20  6  1  0
 27 22  1  0
 18  8  2  0
 16 11  1  0
  1 28  1  0
  1 29  1  0
  1 30  1  0
  2 31  1  6
  3 32  1  0
  7 33  1  0
 12 34  1  0
 13 35  1  0
 14 36  1  0
 15 37  1  0
 19 38  1  0
 21 39  1  0
 23 40  1  0
 24 41  1  0
 25 42  1  0
 26 43  1  0
 27 44  1  0
M  END
>  <smiles>  (36) 
C[C@H](NC(=O)c1cc2c(=O)n3ccccc3nc2[nH]c1=N)c1ccccc1

>  <score_type>  (36) 
oracle

>  <origin>  (36) 
autodockgpu

>  <m_score__min__energy>  (36) 
-8.0500000000000007

>  <m_primary>  (36) 
energy

>  <rmsd>  (36) 
4.898850093822199

>  <m_score__min__rmsd>  (36) 
4.898850093822199

>  <meeko>  (36) 
{"free_energy": -7.91, "intermolecular_energy": -9.1, "internal_energy": -0.56, "cluster_size": 41, "cluster_id": 1, "rank_in_cluster": 13}

>  <energy>  (36) 
-7.32

>  <cluster_rmsd>  (36) 
0.97

>  <cluster>  (36) 
1

$$$$

     RDKit          3D

 44 47  0  0  0  0  0  0  0  0999 V2000
  139.6690   77.0420  222.5200 C   0  0  0  0  0  0  0  0  0  0  0  0
  140.6410   77.7880  221.5650 C   0  0  2  0  0  0  0  0  0  0  0  0
  141.7290   76.9090  221.1790 N   0  0  0  0  0  0  0  0  0  0  0  0
  141.5090   75.5860  220.7610 C   0  0  0  0  0  0  0  0  0  0  0  0
  140.2740   75.1910  220.7520 O   0  0  0  0  0  0  0  0  0  0  0  0
  142.4830   74.6200  220.3380 C   0  0  0  0  0  0  0  0  0  0  0  0
  142.2870   73.2560  220.3870 C   0  0  0  0  0  0  0  0  0  0  0  0
  143.2380   72.3550  219.9770 C   0  0  0  0  0  0  0  0  0  0  0  0
  143.7220   75.0410  219.8410 C   0  0  0  0  0  0  0  0  0  0  0  0
  141.9980   70.5270  220.4740 O   0  0  0  0  0  0  0  0  0  0  0  0
  144.0890   70.1400  219.6400 N   0  0  0  0  0  0  0  0  0  0  0  0
  143.9580   68.8050  219.7220 C   0  0  0  0  0  0  0  0  0  0  0  0
  144.9650   67.9460  219.3440 C   0  0  0  0  0  0  0  0  0  0  0  0
  146.1610   68.4210  218.8590 C   0  0  0  0  0  0  0  0  0  0  0  0
  146.3020   69.7960  218.7740 C   0  0  0  0  0  0  0  0  0  0  0  0
  145.2610   70.6260  219.1680 C   0  0  0  0  0  0  0  0  0  0  0  0
  145.4350   71.9840  219.0940 N   0  0  0  0  0  0  0  0  0  0  0  0
  144.4570   72.8190  219.4860 C   0  0  0  0  0  0  0  0  0  0  0  0
  144.6640   74.1470  219.4320 N   0  0  0  0  0  0  0  0  0  0  0  0
  143.0790   70.9780  220.0420 C   0  0  0  0  0  0  0  0  0  0  0  0
  144.0780   76.2720  219.7530 N   0  0  0  0  0  0  0  0  0  0  0  0
  141.0060   79.0560  222.1500 C   0  0  0  0  0  0  0  0  0  0  0  0
  141.8850   79.0720  223.2380 C   0  0  0  0  0  0  0  0  0  0  0  0
  142.2420   80.2300  223.8640 C   0  0  0  0  0  0  0  0  0  0  0  0
  141.7670   81.4890  223.4770 C   0  0  0  0  0  0  0  0  0  0  0  0
  140.8880   81.4710  222.3850 C   0  0  0  0  0  0  0  0  0  0  0  0
  140.5330   80.2940  221.7580 C   0  0  0  0  0  0  0  0  0  0  0  0
  139.9454   77.2541  223.5634 H   0  0  0  0  0  0  0  0  0  0  0  0
  138.6399   77.3843  222.3364 H   0  0  0  0  0  0  0  0  0  0  0  0
  139.7335   75.9593  222.3364 H   0  0  0  0  0  0  0  0  0  0  0  0
  140.1633   78.0509  220.6096 H   0  0  0  0  0  0  0  0  0  0  0  0
  142.7290   77.2530  221.2080 H   0  0  0  0  0  0  0  0  0  0  0  0
  141.3293   72.8742  220.7704 H   0  0  0  0  0  0  0  0  0  0  0  0
  143.0156   68.3852  220.1035 H   0  0  0  0  0  0  0  0  0  0  0  0
  144.8103   66.8604  219.4314 H   0  0  0  0  0  0  0  0  0  0  0  0
  146.9686   67.7399  218.5526 H   0  0  0  0  0  0  0  0  0  0  0  0
  147.2385   70.2305  218.3944 H   0  0  0  0  0  0  0  0  0  0  0  0
  145.5890   74.5010  219.0520 H   0  0  0  0  0  0  0  0  0  0  0  0
  144.2660   76.8600  220.5640 H   0  0  0  0  0  0  0  0  0  0  0  0
  142.3015   78.1205  223.6002 H   0  0  0  0  0  0  0  0  0  0  0  0
  142.9371   80.1720  224.7145 H   0  0  0  0  0  0  0  0  0  0  0  0
  142.0600   82.4176  223.9887 H   0  0  0  0  0  0  0  0  0  0  0  0
  140.4702   82.4202  222.0182 H   0  0  0  0  0  0  0  0  0  0  0  0
  139.8401   80.3436  220.9051 H   0  0  0  0  0  0  0  0  0  0  0  0
  1  2  1  0
  2  3  1  0
  3  4  1  0
  4  5  2  0
  4  6  1  0
  6  7  2  0
  7  8  1  0
  8  9  1  0
  9 10  2  0
  9 11  1  0
 11 12  1  0
 12 13  2  0
 13 14  1  0
 14 15  2  0
 15 16  1  0
 16 17  2  0
 17 18  1  0
 18 19  1  0
 19 20  1  0
 20 21  2  3
  2 22  1  0
 22 23  2  0
 23 24  1  0
 24 25  2  0
 25 26  1  0
 26 27  2  0
 20  6  1  0
 27 22  1  0
 18  8  2  0
 16 11  1  0
  1 28  1  0
  1 29  1  0
  1 30  1  0
  2 31  1  6
  3 32  1  0
  7 33  1  0
 12 34  1  0
 13 35  1  0
 14 36  1  0
 15 37  1  0
 19 38  1  0
 21 39  1  0
 23 40  1  0
 24 41  1  0
 25 42  1  0
 26 43  1  0
 27 44  1  0
M  END
>  <smiles>  (37) 
C[C@H](NC(=O)c1cc2c(=O)n3ccccc3nc2[nH]c1=N)c1ccccc1

>  <score_type>  (37) 
oracle

>  <origin>  (37) 
autodockgpu

>  <m_score__min__energy>  (37) 
-8.0500000000000007

>  <m_primary>  (37) 
energy

>  <rmsd>  (37) 
4.661592440344413

>  <m_score__min__rmsd>  (37) 
4.661592440344413

>  <meeko>  (37) 
{"free_energy": -7.92, "intermolecular_energy": -9.11, "internal_energy": -0.6, "cluster_size": 41, "cluster_id": 1, "rank_in_cluster": 10}

>  <energy>  (37) 
-7.31

>  <cluster_rmsd>  (37) 
1.05

>  <cluster>  (37) 
1

$$$$

     RDKit          3D

 44 47  0  0  0  0  0  0  0  0999 V2000
  139.5650   76.9940  222.4460 C   0  0  0  0  0  0  0  0  0  0  0  0
  140.5700   77.7590  221.5420 C   0  0  2  0  0  0  0  0  0  0  0  0
  141.6690   76.8860  221.1740 N   0  0  0  0  0  0  0  0  0  0  0  0
  141.4640   75.5600  220.7570 C   0  0  0  0  0  0  0  0  0  0  0  0
  140.2320   75.1560  220.7330 O   0  0  0  0  0  0  0  0  0  0  0  0
  142.4510   74.6000  220.3510 C   0  0  0  0  0  0  0  0  0  0  0  0
  142.2600   73.2340  220.3910 C   0  0  0  0  0  0  0  0  0  0  0  0
  143.2220   72.3390  219.9980 C   0  0  0  0  0  0  0  0  0  0  0  0
  143.6980   75.0270  219.8790 C   0  0  0  0  0  0  0  0  0  0  0  0
  141.9810   70.5040  220.4650 O   0  0  0  0  0  0  0  0  0  0  0  0
  144.0890   70.1290  219.6710 N   0  0  0  0  0  0  0  0  0  0  0  0
  143.9630   68.7930  219.7470 C   0  0  0  0  0  0  0  0  0  0  0  0
  144.9810   67.9400  219.3850 C   0  0  0  0  0  0  0  0  0  0  0  0
  146.1840   68.4210  218.9260 C   0  0  0  0  0  0  0  0  0  0  0  0
  146.3210   69.7960  218.8470 C   0  0  0  0  0  0  0  0  0  0  0  0
  145.2680   70.6210  219.2240 C   0  0  0  0  0  0  0  0  0  0  0  0
  145.4380   71.9810  219.1570 N   0  0  0  0  0  0  0  0  0  0  0  0
  144.4490   72.8100  219.5320 C   0  0  0  0  0  0  0  0  0  0  0  0
  144.6510   74.1390  219.4860 N   0  0  0  0  0  0  0  0  0  0  0  0
  143.0680   70.9610  220.0550 C   0  0  0  0  0  0  0  0  0  0  0  0
  144.0490   76.2600  219.8020 N   0  0  0  0  0  0  0  0  0  0  0  0
  140.9170   79.0130  222.1680 C   0  0  0  0  0  0  0  0  0  0  0  0
  142.2040   79.1750  222.6910 C   0  0  0  0  0  0  0  0  0  0  0  0
  142.5880   80.3170  223.3290 C   0  0  0  0  0  0  0  0  0  0  0  0
  141.7370   81.4150  223.5160 C   0  0  0  0  0  0  0  0  0  0  0  0
  140.4470   81.2500  222.9900 C   0  0  0  0  0  0  0  0  0  0  0  0
  140.0700   80.0900  222.3440 C   0  0  0  0  0  0  0  0  0  0  0  0
  139.8080   77.1790  223.5027 H   0  0  0  0  0  0  0  0  0  0  0  0
  138.5436   77.3453  222.2377 H   0  0  0  0  0  0  0  0  0  0  0  0
  139.6316   75.9160  222.2377 H   0  0  0  0  0  0  0  0  0  0  0  0
  140.1259   78.0448  220.5771 H   0  0  0  0  0  0  0  0  0  0  0  0
  142.6660   77.2370  221.2150 H   0  0  0  0  0  0  0  0  0  0  0  0
  141.2962   72.8468  220.7531 H   0  0  0  0  0  0  0  0  0  0  0  0
  143.0159   68.3675  220.1102 H   0  0  0  0  0  0  0  0  0  0  0  0
  144.8289   66.8535  219.4645 H   0  0  0  0  0  0  0  0  0  0  0  0
  147.0006   67.7440  218.6347 H   0  0  0  0  0  0  0  0  0  0  0  0
  147.2626   70.2355  218.4861 H   0  0  0  0  0  0  0  0  0  0  0  0
  145.5810   74.4980  219.1250 H   0  0  0  0  0  0  0  0  0  0  0  0
  144.2110   76.8490  220.6180 H   0  0  0  0  0  0  0  0  0  0  0  0
  142.9294   78.3550  222.5842 H   0  0  0  0  0  0  0  0  0  0  0  0
  143.6158   80.3798  223.7159 H   0  0  0  0  0  0  0  0  0  0  0  0
  142.0550   82.3321  224.0335 H   0  0  0  0  0  0  0  0  0  0  0  0
  139.7171   82.0662  223.0951 H   0  0  0  0  0  0  0  0  0  0  0  0
  139.0453   80.0197  221.9502 H   0  0  0  0  0  0  0  0  0  0  0  0
  1  2  1  0
  2  3  1  0
  3  4  1  0
  4  5  2  0
  4  6  1  0
  6  7  2  0
  7  8  1  0
  8  9  1  0
  9 10  2  0
  9 11  1  0
 11 12  1  0
 12 13  2  0
 13 14  1  0
 14 15  2  0
 15 16  1  0
 16 17  2  0
 17 18  1  0
 18 19  1  0
 19 20  1  0
 20 21  2  3
  2 22  1  0
 22 23  2  0
 23 24  1  0
 24 25  2  0
 25 26  1  0
 26 27  2  0
 20  6  1  0
 27 22  1  0
 18  8  2  0
 16 11  1  0
  1 28  1  0
  1 29  1  0
  1 30  1  0
  2 31  1  6
  3 32  1  0
  7 33  1  0
 12 34  1  0
 13 35  1  0
 14 36  1  0
 15 37  1  0
 19 38  1  0
 21 39  1  0
 23 40  1  0
 24 41  1  0
 25 42  1  0
 26 43  1  0
 27 44  1  0
M  END
>  <smiles>  (38) 
C[C@H](NC(=O)c1cc2c(=O)n3ccccc3nc2[nH]c1=N)c1ccccc1

>  <score_type>  (38) 
oracle

>  <origin>  (38) 
autodockgpu

>  <m_score__min__energy>  (38) 
-8.0500000000000007

>  <m_primary>  (38) 
energy

>  <rmsd>  (38) 
4.771227951652844

>  <m_score__min__rmsd>  (38) 
4.771227951652844

>  <meeko>  (38) 
{"free_energy": -7.96, "intermolecular_energy": -9.15, "internal_energy": -0.57, "cluster_size": 41, "cluster_id": 1, "rank_in_cluster": 6}

>  <energy>  (38) 
-7.3

>  <cluster_rmsd>  (38) 
1.04

>  <cluster>  (38) 
1

$$$$

     RDKit          3D

 44 47  0  0  0  0  0  0  0  0999 V2000
  138.2820   78.6450  222.8690 C   0  0  0  0  0  0  0  0  0  0  0  0
  139.6310   78.4530  222.1220 C   0  0  2  0  0  0  0  0  0  0  0  0
  139.9600   77.0410  222.0490 N   0  0  0  0  0  0  0  0  0  0  0  0
  141.0310   76.5600  221.2770 C   0  0  0  0  0  0  0  0  0  0  0  0
  141.7030   77.4540  220.6200 O   0  0  0  0  0  0  0  0  0  0  0  0
  141.4740   75.2030  221.1310 C   0  0  0  0  0  0  0  0  0  0  0  0
  142.6350   74.8380  220.4820 C   0  0  0  0  0  0  0  0  0  0  0  0
  143.0350   73.5310  220.3540 C   0  0  0  0  0  0  0  0  0  0  0  0
  140.7160   74.1530  221.6600 C   0  0  0  0  0  0  0  0  0  0  0  0
  144.9110   74.0150  219.1840 O   0  0  0  0  0  0  0  0  0  0  0  0
  144.4980   71.8030  219.5720 N   0  0  0  0  0  0  0  0  0  0  0  0
  145.5910   71.4020  218.9020 C   0  0  0  0  0  0  0  0  0  0  0  0
  145.9190   70.0720  218.7620 C   0  0  0  0  0  0  0  0  0  0  0  0
  145.1330   69.0850  219.3080 C   0  0  0  0  0  0  0  0  0  0  0  0
  144.0050   69.4910  219.9990 C   0  0  0  0  0  0  0  0  0  0  0  0
  143.7110   70.8440  220.1150 C   0  0  0  0  0  0  0  0  0  0  0  0
  142.5750   71.2180  220.7860 N   0  0  0  0  0  0  0  0  0  0  0  0
  142.2490   72.5170  220.9000 C   0  0  0  0  0  0  0  0  0  0  0  0
  141.1130   72.8570  221.5370 N   0  0  0  0  0  0  0  0  0  0  0  0
  144.1810   73.1330  219.6830 C   0  0  0  0  0  0  0  0  0  0  0  0
  139.5970   74.3150  222.2700 N   0  0  0  0  0  0  0  0  0  0  0  0
  140.6270   79.3220  222.7020 C   0  0  0  0  0  0  0  0  0  0  0  0
  140.6500   80.6690  222.3290 C   0  0  0  0  0  0  0  0  0  0  0  0
  141.5860   81.5380  222.8080 C   0  0  0  0  0  0  0  0  0  0  0  0
  142.5950   81.1610  223.7050 C   0  0  0  0  0  0  0  0  0  0  0  0
  142.5690   79.8090  224.0780 C   0  0  0  0  0  0  0  0  0  0  0  0
  141.6160   78.9390  223.5880 C   0  0  0  0  0  0  0  0  0  0  0  0
  138.4573   78.6201  223.9547 H   0  0  0  0  0  0  0  0  0  0  0  0
  137.8434   79.6146  222.5906 H   0  0  0  0  0  0  0  0  0  0  0  0
  137.5903   77.8362  222.5906 H   0  0  0  0  0  0  0  0  0  0  0  0
  139.5696   78.7656  221.0691 H   0  0  0  0  0  0  0  0  0  0  0  0
  139.3860   76.3320  222.5850 H   0  0  0  0  0  0  0  0  0  0  0  0
  143.2669   75.6273  220.0488 H   0  0  0  0  0  0  0  0  0  0  0  0
  146.2459   72.1615  218.4500 H   0  0  0  0  0  0  0  0  0  0  0  0
  146.8253   69.7945  218.2038 H   0  0  0  0  0  0  0  0  0  0  0  0
  145.3892   68.0207  219.2004 H   0  0  0  0  0  0  0  0  0  0  0  0
  143.3411   68.7427  220.4564 H   0  0  0  0  0  0  0  0  0  0  0  0
  140.5180   72.0860  221.9590 H   0  0  0  0  0  0  0  0  0  0  0  0
  139.3300   73.7890  223.1010 H   0  0  0  0  0  0  0  0  0  0  0  0
  139.8890   81.0401  221.6268 H   0  0  0  0  0  0  0  0  0  0  0  0
  141.5471   82.5854  222.4742 H   0  0  0  0  0  0  0  0  0  0  0  0
  143.3466   81.8683  224.0857 H   0  0  0  0  0  0  0  0  0  0  0  0
  143.3280   79.4322  224.7794 H   0  0  0  0  0  0  0  0  0  0  0  0
  141.6451   77.8903  223.9187 H   0  0  0  0  0  0  0  0  0  0  0  0
  1  2  1  0
  2  3  1  0
  3  4  1  0
  4  5  2  0
  4  6  1  0
  6  7  2  0
  7  8  1  0
  8  9  1  0
  9 10  2  0
  9 11  1  0
 11 12  1  0
 12 13  2  0
 13 14  1  0
 14 15  2  0
 15 16  1  0
 16 17  2  0
 17 18  1  0
 18 19  1  0
 19 20  1  0
 20 21  2  3
  2 22  1  0
 22 23  2  0
 23 24  1  0
 24 25  2  0
 25 26  1  0
 26 27  2  0
 20  6  1  0
 27 22  1  0
 18  8  2  0
 16 11  1  0
  1 28  1  0
  1 29  1  0
  1 30  1  0
  2 31  1  6
  3 32  1  0
  7 33  1  0
 12 34  1  0
 13 35  1  0
 14 36  1  0
 15 37  1  0
 19 38  1  0
 21 39  1  0
 23 40  1  0
 24 41  1  0
 25 42  1  0
 26 43  1  0
 27 44  1  0
M  END
>  <smiles>  (39) 
C[C@H](NC(=O)c1cc2c(=O)n3ccccc3nc2[nH]c1=N)c1ccccc1

>  <score_type>  (39) 
oracle

>  <origin>  (39) 
autodockgpu

>  <m_score__min__energy>  (39) 
-8.0500000000000007

>  <m_primary>  (39) 
energy

>  <rmsd>  (39) 
4.365315085598732

>  <m_score__min__rmsd>  (39) 
4.365315085598732

>  <meeko>  (39) 
{"free_energy": -7.1, "intermolecular_energy": -8.29, "internal_energy": -0.96, "cluster_size": 9, "cluster_id": 2, "rank_in_cluster": 6}

>  <energy>  (39) 
-7.3

>  <cluster_rmsd>  (39) 
1.04

>  <cluster>  (39) 
1

$$$$

     RDKit          3D

 44 47  0  0  0  0  0  0  0  0999 V2000
  139.4300   76.8560  222.3750 C   0  0  0  0  0  0  0  0  0  0  0  0
  140.4590   77.6200  221.4960 C   0  0  2  0  0  0  0  0  0  0  0  0
  141.5860   76.7590  221.1910 N   0  0  0  0  0  0  0  0  0  0  0  0
  141.4190   75.4580  220.6870 C   0  0  0  0  0  0  0  0  0  0  0  0
  140.1940   75.0660  220.5210 O   0  0  0  0  0  0  0  0  0  0  0  0
  142.4380   74.5130  220.3280 C   0  0  0  0  0  0  0  0  0  0  0  0
  142.2560   73.1450  220.3320 C   0  0  0  0  0  0  0  0  0  0  0  0
  143.2490   72.2640  219.9860 C   0  0  0  0  0  0  0  0  0  0  0  0
  143.7090   74.9580  219.9450 C   0  0  0  0  0  0  0  0  0  0  0  0
  141.9960   70.4120  220.3390 O   0  0  0  0  0  0  0  0  0  0  0  0
  144.1550   70.0670  219.6780 N   0  0  0  0  0  0  0  0  0  0  0  0
  144.0350   68.7290  219.7210 C   0  0  0  0  0  0  0  0  0  0  0  0
  145.0810   67.8900  219.4110 C   0  0  0  0  0  0  0  0  0  0  0  0
  146.3070   68.3880  219.0400 C   0  0  0  0  0  0  0  0  0  0  0  0
  146.4370   69.7660  218.9940 C   0  0  0  0  0  0  0  0  0  0  0  0
  145.3560   70.5760  219.3160 C   0  0  0  0  0  0  0  0  0  0  0  0
  145.5180   71.9370  219.2840 N   0  0  0  0  0  0  0  0  0  0  0  0
  144.5000   72.7520  219.6090 C   0  0  0  0  0  0  0  0  0  0  0  0
  144.6930   74.0840  219.6000 N   0  0  0  0  0  0  0  0  0  0  0  0
  143.1040   70.8850  220.0090 C   0  0  0  0  0  0  0  0  0  0  0  0
  144.0540   76.1950  219.9130 N   0  0  0  0  0  0  0  0  0  0  0  0
  140.7600   78.8920  222.1090 C   0  0  0  0  0  0  0  0  0  0  0  0
  141.8250   79.6480  221.6120 C   0  0  0  0  0  0  0  0  0  0  0  0
  142.1890   80.8400  222.1670 C   0  0  0  0  0  0  0  0  0  0  0  0
  141.5360   81.4030  223.2710 C   0  0  0  0  0  0  0  0  0  0  0  0
  140.4670   80.6430  223.7670 C   0  0  0  0  0  0  0  0  0  0  0  0
  140.1060   79.4390  223.1960 C   0  0  0  0  0  0  0  0  0  0  0  0
  139.6582   77.0254  223.4377 H   0  0  0  0  0  0  0  0  0  0  0  0
  138.4163   77.2220  222.1548 H   0  0  0  0  0  0  0  0  0  0  0  0
  139.4871   75.7798  222.1548 H   0  0  0  0  0  0  0  0  0  0  0  0
  140.0496   77.8784  220.5083 H   0  0  0  0  0  0  0  0  0  0  0  0
  142.5750   77.0990  221.3480 H   0  0  0  0  0  0  0  0  0  0  0  0
  141.2742   72.7445  220.6247 H   0  0  0  0  0  0  0  0  0  0  0  0
  143.0696   68.2904  220.0134 H   0  0  0  0  0  0  0  0  0  0  0  0
  144.9330   66.8011  219.4611 H   0  0  0  0  0  0  0  0  0  0  0  0
  147.1467   67.7225  218.7910 H   0  0  0  0  0  0  0  0  0  0  0  0
  147.3962   70.2187  218.7025 H   0  0  0  0  0  0  0  0  0  0  0  0
  145.6420   74.4560  219.3060 H   0  0  0  0  0  0  0  0  0  0  0  0
  144.1670   76.7670  220.7480 H   0  0  0  0  0  0  0  0  0  0  0  0
  142.3878   79.2700  220.7457 H   0  0  0  0  0  0  0  0  0  0  0  0
  143.0364   81.3854  221.7261 H   0  0  0  0  0  0  0  0  0  0  0  0
  141.8375   82.3640  223.7133 H   0  0  0  0  0  0  0  0  0  0  0  0
  139.9013   81.0158  224.6336 H   0  0  0  0  0  0  0  0  0  0  0  0
  139.2568   78.8888  223.6273 H   0  0  0  0  0  0  0  0  0  0  0  0
  1  2  1  0
  2  3  1  0
  3  4  1  0
  4  5  2  0
  4  6  1  0
  6  7  2  0
  7  8  1  0
  8  9  1  0
  9 10  2  0
  9 11  1  0
 11 12  1  0
 12 13  2  0
 13 14  1  0
 14 15  2  0
 15 16  1  0
 16 17  2  0
 17 18  1  0
 18 19  1  0
 19 20  1  0
 20 21  2  3
  2 22  1  0
 22 23  2  0
 23 24  1  0
 24 25  2  0
 25 26  1  0
 26 27  2  0
 20  6  1  0
 27 22  1  0
 18  8  2  0
 16 11  1  0
  1 28  1  0
  1 29  1  0
  1 30  1  0
  2 31  1  6
  3 32  1  0
  7 33  1  0
 12 34  1  0
 13 35  1  0
 14 36  1  0
 15 37  1  0
 19 38  1  0
 21 39  1  0
 23 40  1  0
 24 41  1  0
 25 42  1  0
 26 43  1  0
 27 44  1  0
M  END
>  <smiles>  (40) 
C[C@H](NC(=O)c1cc2c(=O)n3ccccc3nc2[nH]c1=N)c1ccccc1

>  <score_type>  (40) 
oracle

>  <origin>  (40) 
autodockgpu

>  <m_score__min__energy>  (40) 
-8.0500000000000007

>  <m_primary>  (40) 
energy

>  <rmsd>  (40) 
4.890961270063725

>  <m_score__min__rmsd>  (40) 
4.890961270063725

>  <meeko>  (40) 
{"free_energy": -7.77, "intermolecular_energy": -8.96, "internal_energy": -0.64, "cluster_size": 41, "cluster_id": 1, "rank_in_cluster": 23}

>  <energy>  (40) 
-7.29

>  <cluster_rmsd>  (40) 
1.02

>  <cluster>  (40) 
1

$$$$

     RDKit          3D

 44 47  0  0  0  0  0  0  0  0999 V2000
  139.3950   76.8500  222.3450 C   0  0  0  0  0  0  0  0  0  0  0  0
  140.4590   77.6370  221.5310 C   0  0  2  0  0  0  0  0  0  0  0  0
  141.5860   76.7750  221.2240 N   0  0  0  0  0  0  0  0  0  0  0  0
  141.4170   75.4810  220.7050 C   0  0  0  0  0  0  0  0  0  0  0  0
  140.1910   75.0950  220.5290 O   0  0  0  0  0  0  0  0  0  0  0  0
  142.4350   74.5360  220.3420 C   0  0  0  0  0  0  0  0  0  0  0  0
  142.2520   73.1690  220.3430 C   0  0  0  0  0  0  0  0  0  0  0  0
  143.2440   72.2870  219.9930 C   0  0  0  0  0  0  0  0  0  0  0  0
  143.7050   74.9810  219.9590 C   0  0  0  0  0  0  0  0  0  0  0  0
  141.9900   70.4350  220.3420 O   0  0  0  0  0  0  0  0  0  0  0  0
  144.1470   70.0910  219.6770 N   0  0  0  0  0  0  0  0  0  0  0  0
  144.0270   68.7530  219.7160 C   0  0  0  0  0  0  0  0  0  0  0  0
  145.0720   67.9140  219.4030 C   0  0  0  0  0  0  0  0  0  0  0  0
  146.2980   68.4120  219.0310 C   0  0  0  0  0  0  0  0  0  0  0  0
  146.4290   69.7900  218.9890 C   0  0  0  0  0  0  0  0  0  0  0  0
  145.3490   70.6000  219.3150 C   0  0  0  0  0  0  0  0  0  0  0  0
  145.5120   71.9610  219.2870 N   0  0  0  0  0  0  0  0  0  0  0  0
  144.4940   72.7760  219.6160 C   0  0  0  0  0  0  0  0  0  0  0  0
  144.6880   74.1070  219.6100 N   0  0  0  0  0  0  0  0  0  0  0  0
  143.0980   70.9080  220.0120 C   0  0  0  0  0  0  0  0  0  0  0  0
  144.0520   76.2180  219.9300 N   0  0  0  0  0  0  0  0  0  0  0  0
  140.7560   78.8780  222.2080 C   0  0  0  0  0  0  0  0  0  0  0  0
  142.0810   79.3200  222.2620 C   0  0  0  0  0  0  0  0  0  0  0  0
  142.4380   80.4610  222.9170 C   0  0  0  0  0  0  0  0  0  0  0  0
  141.5200   81.2820  223.5850 C   0  0  0  0  0  0  0  0  0  0  0  0
  140.1910   80.8370  223.5290 C   0  0  0  0  0  0  0  0  0  0  0  0
  139.8410   79.6800  222.8610 C   0  0  0  0  0  0  0  0  0  0  0  0
  139.5807   76.9874  223.4205 H   0  0  0  0  0  0  0  0  0  0  0  0
  138.3914   77.2248  222.0954 H   0  0  0  0  0  0  0  0  0  0  0  0
  139.4596   75.7806  222.0954 H   0  0  0  0  0  0  0  0  0  0  0  0
  140.0832   77.9420  220.5432 H   0  0  0  0  0  0  0  0  0  0  0  0
  142.5750   77.1110  221.3900 H   0  0  0  0  0  0  0  0  0  0  0  0
  141.2703   72.7688  220.6365 H   0  0  0  0  0  0  0  0  0  0  0  0
  143.0615   68.3139  220.0078 H   0  0  0  0  0  0  0  0  0  0  0  0
  144.9235   66.8251  219.4514 H   0  0  0  0  0  0  0  0  0  0  0  0
  147.1366   67.7465  218.7783 H   0  0  0  0  0  0  0  0  0  0  0  0
  147.3881   70.2429  218.6975 H   0  0  0  0  0  0  0  0  0  0  0  0
  145.6370   74.4800  219.3150 H   0  0  0  0  0  0  0  0  0  0  0  0
  144.1920   76.7800  220.7680 H   0  0  0  0  0  0  0  0  0  0  0  0
  142.8605   78.7282  221.7599 H   0  0  0  0  0  0  0  0  0  0  0  0
  143.4990   80.7514  222.9213 H   0  0  0  0  0  0  0  0  0  0  0  0
  141.8175   82.2012  224.1109 H   0  0  0  0  0  0  0  0  0  0  0  0
  139.4075   81.4245  224.0299 H   0  0  0  0  0  0  0  0  0  0  0  0
  138.7820   79.3829  222.8485 H   0  0  0  0  0  0  0  0  0  0  0  0
  1  2  1  0
  2  3  1  0
  3  4  1  0
  4  5  2  0
  4  6  1  0
  6  7  2  0
  7  8  1  0
  8  9  1  0
  9 10  2  0
  9 11  1  0
 11 12  1  0
 12 13  2  0
 13 14  1  0
 14 15  2  0
 15 16  1  0
 16 17  2  0
 17 18  1  0
 18 19  1  0
 19 20  1  0
 20 21  2  3
  2 22  1  0
 22 23  2  0
 23 24  1  0
 24 25  2  0
 25 26  1  0
 26 27  2  0
 20  6  1  0
 27 22  1  0
 18  8  2  0
 16 11  1  0
  1 28  1  0
  1 29  1  0
  1 30  1  0
  2 31  1  6
  3 32  1  0
  7 33  1  0
 12 34  1  0
 13 35  1  0
 14 36  1  0
 15 37  1  0
 19 38  1  0
 21 39  1  0
 23 40  1  0
 24 41  1  0
 25 42  1  0
 26 43  1  0
 27 44  1  0
M  END
>  <smiles>  (41) 
C[C@H](NC(=O)c1cc2c(=O)n3ccccc3nc2[nH]c1=N)c1ccccc1

>  <score_type>  (41) 
oracle

>  <origin>  (41) 
autodockgpu

>  <m_score__min__energy>  (41) 
-8.0500000000000007

>  <m_primary>  (41) 
energy

>  <rmsd>  (41) 
4.890421940661154

>  <m_score__min__rmsd>  (41) 
4.890421940661154

>  <meeko>  (41) 
{"free_energy": -7.95, "intermolecular_energy": -9.14, "internal_energy": -0.59, "cluster_size": 41, "cluster_id": 1, "rank_in_cluster": 7}

>  <energy>  (41) 
-7.28

>  <cluster_rmsd>  (41) 
1.03

>  <cluster>  (41) 
1

$$$$

     RDKit          3D

 44 47  0  0  0  0  0  0  0  0999 V2000
  139.4080   76.8410  222.3850 C   0  0  0  0  0  0  0  0  0  0  0  0
  140.4570   77.6360  221.5590 C   0  0  2  0  0  0  0  0  0  0  0  0
  141.5850   76.7810  221.2370 N   0  0  0  0  0  0  0  0  0  0  0  0
  141.4170   75.4740  220.7510 C   0  0  0  0  0  0  0  0  0  0  0  0
  140.1920   75.0700  220.6180 O   0  0  0  0  0  0  0  0  0  0  0  0
  142.4360   74.5340  220.3780 C   0  0  0  0  0  0  0  0  0  0  0  0
  142.2600   73.1660  220.3810 C   0  0  0  0  0  0  0  0  0  0  0  0
  143.2520   72.2890  220.0220 C   0  0  0  0  0  0  0  0  0  0  0  0
  143.7000   74.9850  219.9810 C   0  0  0  0  0  0  0  0  0  0  0  0
  142.0110   70.4310  220.3850 O   0  0  0  0  0  0  0  0  0  0  0  0
  144.1630   70.0970  219.6970 N   0  0  0  0  0  0  0  0  0  0  0  0
  144.0500   68.7580  219.7390 C   0  0  0  0  0  0  0  0  0  0  0  0
  145.0950   67.9240  219.4150 C   0  0  0  0  0  0  0  0  0  0  0  0
  146.3150   68.4280  219.0300 C   0  0  0  0  0  0  0  0  0  0  0  0
  146.4380   69.8060  218.9860 C   0  0  0  0  0  0  0  0  0  0  0  0
  145.3580   70.6110  219.3220 C   0  0  0  0  0  0  0  0  0  0  0  0
  145.5140   71.9740  219.2920 N   0  0  0  0  0  0  0  0  0  0  0  0
  144.4960   72.7830  219.6310 C   0  0  0  0  0  0  0  0  0  0  0  0
  144.6830   74.1160  219.6220 N   0  0  0  0  0  0  0  0  0  0  0  0
  143.1130   70.9090  220.0430 C   0  0  0  0  0  0  0  0  0  0  0  0
  144.0400   76.2230  219.9470 N   0  0  0  0  0  0  0  0  0  0  0  0
  140.7550   78.8780  222.2340 C   0  0  0  0  0  0  0  0  0  0  0  0
  142.0900   79.2630  222.3850 C   0  0  0  0  0  0  0  0  0  0  0  0
  142.4440   80.4030  223.0450 C   0  0  0  0  0  0  0  0  0  0  0  0
  141.5140   81.2760  223.6220 C   0  0  0  0  0  0  0  0  0  0  0  0
  140.1750   80.8880  223.4690 C   0  0  0  0  0  0  0  0  0  0  0  0
  139.8270   79.7330  222.7980 C   0  0  0  0  0  0  0  0  0  0  0  0
  139.5998   76.9864  223.4583 H   0  0  0  0  0  0  0  0  0  0  0  0
  138.3983   77.2027  222.1407 H   0  0  0  0  0  0  0  0  0  0  0  0
  139.4833   75.7711  222.1407 H   0  0  0  0  0  0  0  0  0  0  0  0
  140.0672   77.9406  220.5765 H   0  0  0  0  0  0  0  0  0  0  0  0
  142.5740   77.1320  221.3670 H   0  0  0  0  0  0  0  0  0  0  0  0
  141.2831   72.7612  220.6840 H   0  0  0  0  0  0  0  0  0  0  0  0
  143.0902   68.3146  220.0425 H   0  0  0  0  0  0  0  0  0  0  0  0
  144.9520   66.8345  219.4648 H   0  0  0  0  0  0  0  0  0  0  0  0
  147.1544   67.7667  218.7691 H   0  0  0  0  0  0  0  0  0  0  0  0
  147.3919   70.2635  218.6846 H   0  0  0  0  0  0  0  0  0  0  0  0
  145.6270   74.4930  219.3170 H   0  0  0  0  0  0  0  0  0  0  0  0
  144.1450   76.7980  220.7820 H   0  0  0  0  0  0  0  0  0  0  0  0
  142.8797   78.6270  221.9584 H   0  0  0  0  0  0  0  0  0  0  0  0
  143.5130   80.6485  223.1280 H   0  0  0  0  0  0  0  0  0  0  0  0
  141.8098   82.1929  224.1529 H   0  0  0  0  0  0  0  0  0  0  0  0
  139.3818   81.5203  223.8946 H   0  0  0  0  0  0  0  0  0  0  0  0
  138.7601   79.4810  222.7079 H   0  0  0  0  0  0  0  0  0  0  0  0
  1  2  1  0
  2  3  1  0
  3  4  1  0
  4  5  2  0
  4  6  1  0
  6  7  2  0
  7  8  1  0
  8  9  1  0
  9 10  2  0
  9 11  1  0
 11 12  1  0
 12 13  2  0
 13 14  1  0
 14 15  2  0
 15 16  1  0
 16 17  2  0
 17 18  1  0
 18 19  1  0
 19 20  1  0
 20 21  2  3
  2 22  1  0
 22 23  2  0
 23 24  1  0
 24 25  2  0
 25 26  1  0
 26 27  2  0
 20  6  1  0
 27 22  1  0
 18  8  2  0
 16 11  1  0
  1 28  1  0
  1 29  1  0
  1 30  1  0
  2 31  1  6
  3 32  1  0
  7 33  1  0
 12 34  1  0
 13 35  1  0
 14 36  1  0
 15 37  1  0
 19 38  1  0
 21 39  1  0
 23 40  1  0
 24 41  1  0
 25 42  1  0
 26 43  1  0
 27 44  1  0
M  END
>  <smiles>  (42) 
C[C@H](NC(=O)c1cc2c(=O)n3ccccc3nc2[nH]c1=N)c1ccccc1

>  <score_type>  (42) 
oracle

>  <origin>  (42) 
autodockgpu

>  <m_score__min__energy>  (42) 
-8.0500000000000007

>  <m_primary>  (42) 
energy

>  <rmsd>  (42) 
4.8873167207640416

>  <m_score__min__rmsd>  (42) 
4.8873167207640416

>  <meeko>  (42) 
{"free_energy": -7.97, "intermolecular_energy": -9.16, "internal_energy": -0.58, "cluster_size": 41, "cluster_id": 1, "rank_in_cluster": 4}

>  <energy>  (42) 
-7.25

>  <cluster_rmsd>  (42) 
0.0

>  <cluster>  (42) 
2

$$$$

     RDKit          3D

 44 47  0  0  0  0  0  0  0  0999 V2000
  138.4740   76.2830  222.7240 C   0  0  0  0  0  0  0  0  0  0  0  0
  139.6770   76.7710  221.8690 C   0  0  2  0  0  0  0  0  0  0  0  0
  140.5840   75.6670  221.6160 N   0  0  0  0  0  0  0  0  0  0  0  0
  141.6280   75.7560  220.6800 C   0  0  0  0  0  0  0  0  0  0  0  0
  141.7260   76.8820  220.0440 O   0  0  0  0  0  0  0  0  0  0  0  0
  142.6020   74.7560  220.3460 C   0  0  0  0  0  0  0  0  0  0  0  0
  142.3300   73.4050  220.2880 C   0  0  0  0  0  0  0  0  0  0  0  0
  143.2820   72.4700  219.9680 C   0  0  0  0  0  0  0  0  0  0  0  0
  143.9200   75.1250  220.0560 C   0  0  0  0  0  0  0  0  0  0  0  0
  141.8890   70.6970  220.1760 O   0  0  0  0  0  0  0  0  0  0  0  0
  144.0560   70.2270  219.6290 N   0  0  0  0  0  0  0  0  0  0  0  0
  143.8460   68.9000  219.6150 C   0  0  0  0  0  0  0  0  0  0  0  0
  144.8510   68.0020  219.3360 C   0  0  0  0  0  0  0  0  0  0  0  0
  146.1280   68.4280  219.0560 C   0  0  0  0  0  0  0  0  0  0  0  0
  146.3510   69.7940  219.0700 C   0  0  0  0  0  0  0  0  0  0  0  0
  145.3080   70.6650  219.3580 C   0  0  0  0  0  0  0  0  0  0  0  0
  145.5620   72.0120  219.3880 N   0  0  0  0  0  0  0  0  0  0  0  0
  144.5820   72.8830  219.6840 C   0  0  0  0  0  0  0  0  0  0  0  0
  144.8640   74.1980  219.7360 N   0  0  0  0  0  0  0  0  0  0  0  0
  143.0440   71.1040  219.9290 C   0  0  0  0  0  0  0  0  0  0  0  0
  144.3490   76.3360  220.0910 N   0  0  0  0  0  0  0  0  0  0  0  0
  140.2440   77.9530  222.4730 C   0  0  0  0  0  0  0  0  0  0  0  0
  141.4580   77.8470  223.1590 C   0  0  0  0  0  0  0  0  0  0  0  0
  142.0310   78.9140  223.7860 C   0  0  0  0  0  0  0  0  0  0  0  0
  141.4620   80.1940  223.7980 C   0  0  0  0  0  0  0  0  0  0  0  0
  140.2450   80.2980  223.1080 C   0  0  0  0  0  0  0  0  0  0  0  0
  139.6740   79.2110  222.4760 C   0  0  0  0  0  0  0  0  0  0  0  0
  138.7188   76.3823  223.7918 H   0  0  0  0  0  0  0  0  0  0  0  0
  137.5883   76.8929  222.4926 H   0  0  0  0  0  0  0  0  0  0  0  0
  138.2636   75.2284  222.4926 H   0  0  0  0  0  0  0  0  0  0  0  0
  139.3682   77.0948  220.8641 H   0  0  0  0  0  0  0  0  0  0  0  0
  140.4730   74.7550  222.1400 H   0  0  0  0  0  0  0  0  0  0  0  0
  141.3078   73.0630  220.5073 H   0  0  0  0  0  0  0  0  0  0  0  0
  142.8376   68.5187  219.8337 H   0  0  0  0  0  0  0  0  0  0  0  0
  144.6287   66.9247  219.3370 H   0  0  0  0  0  0  0  0  0  0  0  0
  146.9355   67.7157  218.8311 H   0  0  0  0  0  0  0  0  0  0  0  0
  147.3541   70.1898  218.8531 H   0  0  0  0  0  0  0  0  0  0  0  0
  145.8510   74.5140  219.5130 H   0  0  0  0  0  0  0  0  0  0  0  0
  143.7490   77.1370  220.2840 H   0  0  0  0  0  0  0  0  0  0  0  0
  141.9667   76.8723  223.1940 H   0  0  0  0  0  0  0  0  0  0  0  0
  142.9872   78.7620  224.3081 H   0  0  0  0  0  0  0  0  0  0  0  0
  141.9315   81.0485  224.3073 H   0  0  0  0  0  0  0  0  0  0  0  0
  139.7323   81.2705  223.0694 H   0  0  0  0  0  0  0  0  0  0  0  0
  138.7189   79.3540  221.9494 H   0  0  0  0  0  0  0  0  0  0  0  0
  1  2  1  0
  2  3  1  0
  3  4  1  0
  4  5  2  0
  4  6  1  0
  6  7  2  0
  7  8  1  0
  8  9  1  0
  9 10  2  0
  9 11  1  0
 11 12  1  0
 12 13  2  0
 13 14  1  0
 14 15  2  0
 15 16  1  0
 16 17  2  0
 17 18  1  0
 18 19  1  0
 19 20  1  0
 20 21  2  3
  2 22  1  0
 22 23  2  0
 23 24  1  0
 24 25  2  0
 25 26  1  0
 26 27  2  0
 20  6  1  0
 27 22  1  0
 18  8  2  0
 16 11  1  0
  1 28  1  0
  1 29  1  0
  1 30  1  0
  2 31  1  6
  3 32  1  0
  7 33  1  0
 12 34  1  0
 13 35  1  0
 14 36  1  0
 15 37  1  0
 19 38  1  0
 21 39  1  0
 23 40  1  0
 24 41  1  0
 25 42  1  0
 26 43  1  0
 27 44  1  0
M  END
>  <smiles>  (43) 
C[C@H](NC(=O)c1cc2c(=O)n3ccccc3nc2[nH]c1=N)c1ccccc1

>  <score_type>  (43) 
oracle

>  <origin>  (43) 
autodockgpu

>  <m_score__min__energy>  (43) 
-8.0500000000000007

>  <m_primary>  (43) 
energy

>  <rmsd>  (43) 
5.15544396871591

>  <m_score__min__rmsd>  (43) 
5.15544396871591

>  <meeko>  (43) 
{"free_energy": -7.28, "intermolecular_energy": -8.47, "internal_energy": -0.99, "cluster_size": 41, "cluster_id": 1, "rank_in_cluster": 41}

>  <energy>  (43) 
-7.25

>  <cluster_rmsd>  (43) 
1.59

>  <cluster>  (43) 
2

$$$$

     RDKit          3D

 44 47  0  0  0  0  0  0  0  0999 V2000
  139.7470   77.1180  222.5840 C   0  0  0  0  0  0  0  0  0  0  0  0
  140.7010   77.8350  221.5890 C   0  0  2  0  0  0  0  0  0  0  0  0
  141.7860   76.9460  221.2170 N   0  0  0  0  0  0  0  0  0  0  0  0
  141.5650   75.6070  220.8520 C   0  0  0  0  0  0  0  0  0  0  0  0
  140.3320   75.2070  220.8810 O   0  0  0  0  0  0  0  0  0  0  0  0
  142.5370   74.6310  220.4470 C   0  0  0  0  0  0  0  0  0  0  0  0
  142.3070   73.2710  220.4460 C   0  0  0  0  0  0  0  0  0  0  0  0
  143.2550   72.3590  220.0560 C   0  0  0  0  0  0  0  0  0  0  0  0
  143.8070   75.0350  220.0210 C   0  0  0  0  0  0  0  0  0  0  0  0
  141.9520   70.5480  220.4400 O   0  0  0  0  0  0  0  0  0  0  0  0
  144.0710   70.1350  219.6950 N   0  0  0  0  0  0  0  0  0  0  0  0
  143.9060   68.8020  219.7310 C   0  0  0  0  0  0  0  0  0  0  0  0
  144.9100   67.9290  219.3750 C   0  0  0  0  0  0  0  0  0  0  0  0
  146.1380   68.3880  218.9620 C   0  0  0  0  0  0  0  0  0  0  0  0
  146.3140   69.7610  218.9240 C   0  0  0  0  0  0  0  0  0  0  0  0
  145.2750   70.6050  219.2930 C   0  0  0  0  0  0  0  0  0  0  0  0
  145.4830   71.9600  219.2670 N   0  0  0  0  0  0  0  0  0  0  0  0
  144.5070   72.8070  219.6370 C   0  0  0  0  0  0  0  0  0  0  0  0
  144.7460   74.1310  219.6320 N   0  0  0  0  0  0  0  0  0  0  0  0
  143.0620   70.9850  220.0720 C   0  0  0  0  0  0  0  0  0  0  0  0
  144.1940   76.2590  219.9870 N   0  0  0  0  0  0  0  0  0  0  0  0
  141.0710   79.1230  222.1270 C   0  0  0  0  0  0  0  0  0  0  0  0
  141.8770   79.1740  223.2680 C   0  0  0  0  0  0  0  0  0  0  0  0
  142.2330   80.3550  223.8510 C   0  0  0  0  0  0  0  0  0  0  0  0
  141.8280   81.6040  223.3640 C   0  0  0  0  0  0  0  0  0  0  0  0
  141.0200   81.5490  222.2180 C   0  0  0  0  0  0  0  0  0  0  0  0
  140.6670   80.3490  221.6350 C   0  0  0  0  0  0  0  0  0  0  0  0
  140.0528   77.3478  223.6154 H   0  0  0  0  0  0  0  0  0  0  0  0
  138.7168   77.4673  222.4205 H   0  0  0  0  0  0  0  0  0  0  0  0
  139.7960   76.0313  222.4205 H   0  0  0  0  0  0  0  0  0  0  0  0
  140.2083   78.0652  220.6329 H   0  0  0  0  0  0  0  0  0  0  0  0
  142.7850   77.2950  221.2150 H   0  0  0  0  0  0  0  0  0  0  0  0
  141.3230   72.9024  220.7713 H   0  0  0  0  0  0  0  0  0  0  0  0
  142.9371   68.3946  220.0555 H   0  0  0  0  0  0  0  0  0  0  0  0
  144.7259   66.8455  219.4220 H   0  0  0  0  0  0  0  0  0  0  0  0
  146.9439   67.6965  218.6749 H   0  0  0  0  0  0  0  0  0  0  0  0
  147.2772   70.1832  218.6014 H   0  0  0  0  0  0  0  0  0  0  0  0
  145.6960   74.4730  219.3060 H   0  0  0  0  0  0  0  0  0  0  0  0
  144.3810   76.8120  220.8230 H   0  0  0  0  0  0  0  0  0  0  0  0
  142.2354   78.2325  223.7096 H   0  0  0  0  0  0  0  0  0  0  0  0
  142.8694   80.3246  224.7477 H   0  0  0  0  0  0  0  0  0  0  0  0
  142.1196   82.5513  223.8411 H   0  0  0  0  0  0  0  0  0  0  0  0
  140.6583   82.4875  221.7725 H   0  0  0  0  0  0  0  0  0  0  0  0
  140.0338   80.3697  220.7357 H   0  0  0  0  0  0  0  0  0  0  0  0
  1  2  1  0
  2  3  1  0
  3  4  1  0
  4  5  2  0
  4  6  1  0
  6  7  2  0
  7  8  1  0
  8  9  1  0
  9 10  2  0
  9 11  1  0
 11 12  1  0
 12 13  2  0
 13 14  1  0
 14 15  2  0
 15 16  1  0
 16 17  2  0
 17 18  1  0
 18 19  1  0
 19 20  1  0
 20 21  2  3
  2 22  1  0
 22 23  2  0
 23 24  1  0
 24 25  2  0
 25 26  1  0
 26 27  2  0
 20  6  1  0
 27 22  1  0
 18  8  2  0
 16 11  1  0
  1 28  1  0
  1 29  1  0
  1 30  1  0
  2 31  1  6
  3 32  1  0
  7 33  1  0
 12 34  1  0
 13 35  1  0
 14 36  1  0
 15 37  1  0
 19 38  1  0
 21 39  1  0
 23 40  1  0
 24 41  1  0
 25 42  1  0
 26 43  1  0
 27 44  1  0
M  END
>  <smiles>  (44) 
C[C@H](NC(=O)c1cc2c(=O)n3ccccc3nc2[nH]c1=N)c1ccccc1

>  <score_type>  (44) 
oracle

>  <origin>  (44) 
autodockgpu

>  <m_score__min__energy>  (44) 
-8.0500000000000007

>  <m_primary>  (44) 
energy

>  <rmsd>  (44) 
4.631874905389424

>  <m_score__min__rmsd>  (44) 
4.631874905389424

>  <meeko>  (44) 
{"free_energy": -7.85, "intermolecular_energy": -9.04, "internal_energy": -0.62, "cluster_size": 41, "cluster_id": 1, "rank_in_cluster": 19}

>  <energy>  (44) 
-7.18

>  <cluster_rmsd>  (44) 
0.35

>  <cluster>  (44) 
2

$$$$

     RDKit          3D

 44 47  0  0  0  0  0  0  0  0999 V2000
  138.4210   76.2880  222.7260 C   0  0  0  0  0  0  0  0  0  0  0  0
  139.6490   76.7820  221.9110 C   0  0  2  0  0  0  0  0  0  0  0  0
  140.5440   75.6720  221.6430 N   0  0  0  0  0  0  0  0  0  0  0  0
  141.6100   75.7740  220.7340 C   0  0  0  0  0  0  0  0  0  0  0  0
  141.7410   76.9180  220.1370 O   0  0  0  0  0  0  0  0  0  0  0  0
  142.5760   74.7680  220.3900 C   0  0  0  0  0  0  0  0  0  0  0  0
  142.3000   73.4180  220.3480 C   0  0  0  0  0  0  0  0  0  0  0  0
  143.2430   72.4780  220.0180 C   0  0  0  0  0  0  0  0  0  0  0  0
  143.8890   75.1320  220.0710 C   0  0  0  0  0  0  0  0  0  0  0  0
  141.8520   70.7100  220.2680 O   0  0  0  0  0  0  0  0  0  0  0  0
  144.0070   70.2310  219.6830 N   0  0  0  0  0  0  0  0  0  0  0  0
  143.7930   68.9040  219.6840 C   0  0  0  0  0  0  0  0  0  0  0  0
  144.7910   68.0010  219.3930 C   0  0  0  0  0  0  0  0  0  0  0  0
  146.0630   68.4220  219.0850 C   0  0  0  0  0  0  0  0  0  0  0  0
  146.2900   69.7880  219.0830 C   0  0  0  0  0  0  0  0  0  0  0  0
  145.2540   70.6630  219.3840 C   0  0  0  0  0  0  0  0  0  0  0  0
  145.5110   72.0110  219.3980 N   0  0  0  0  0  0  0  0  0  0  0  0
  144.5390   72.8860  219.7050 C   0  0  0  0  0  0  0  0  0  0  0  0
  144.8240   74.2010  219.7400 N   0  0  0  0  0  0  0  0  0  0  0  0
  143.0020   71.1120  219.9960 C   0  0  0  0  0  0  0  0  0  0  0  0
  144.3200   76.3430  220.0870 N   0  0  0  0  0  0  0  0  0  0  0  0
  140.2220   77.9360  222.5630 C   0  0  0  0  0  0  0  0  0  0  0  0
  139.5450   79.1580  222.4960 C   0  0  0  0  0  0  0  0  0  0  0  0
  140.0480   80.2950  223.0560 C   0  0  0  0  0  0  0  0  0  0  0  0
  141.2700   80.3390  223.7400 C   0  0  0  0  0  0  0  0  0  0  0  0
  141.9450   79.1120  223.8070 C   0  0  0  0  0  0  0  0  0  0  0  0
  141.4270   77.9660  223.2370 C   0  0  0  0  0  0  0  0  0  0  0  0
  138.6358   76.3744  223.8014 H   0  0  0  0  0  0  0  0  0  0  0  0
  137.5439   76.9033  222.4767 H   0  0  0  0  0  0  0  0  0  0  0  0
  138.2143   75.2368  222.4767 H   0  0  0  0  0  0  0  0  0  0  0  0
  139.3661   77.1408  220.9104 H   0  0  0  0  0  0  0  0  0  0  0  0
  140.4060   74.7450  222.1340 H   0  0  0  0  0  0  0  0  0  0  0  0
  141.2812   73.0805  220.5892 H   0  0  0  0  0  0  0  0  0  0  0  0
  142.7881   68.5272  219.9251 H   0  0  0  0  0  0  0  0  0  0  0  0
  144.5666   66.9242  219.4072 H   0  0  0  0  0  0  0  0  0  0  0  0
  146.8644   67.7059  218.8507 H   0  0  0  0  0  0  0  0  0  0  0  0
  147.2895   70.1798  218.8433 H   0  0  0  0  0  0  0  0  0  0  0  0
  145.8080   74.5130  219.4950 H   0  0  0  0  0  0  0  0  0  0  0  0
  143.7240   77.1480  220.2710 H   0  0  0  0  0  0  0  0  0  0  0  0
  138.5770   79.2033  221.9755 H   0  0  0  0  0  0  0  0  0  0  0  0
  139.4655   81.2238  222.9663 H   0  0  0  0  0  0  0  0  0  0  0  0
  141.6676   81.2615  224.1882 H   0  0  0  0  0  0  0  0  0  0  0  0
  142.9128   79.0609  224.3274 H   0  0  0  0  0  0  0  0  0  0  0  0
  142.0017   77.0321  223.3239 H   0  0  0  0  0  0  0  0  0  0  0  0
  1  2  1  0
  2  3  1  0
  3  4  1  0
  4  5  2  0
  4  6  1  0
  6  7  2  0
  7  8  1  0
  8  9  1  0
  9 10  2  0
  9 11  1  0
 11 12  1  0
 12 13  2  0
 13 14  1  0
 14 15  2  0
 15 16  1  0
 16 17  2  0
 17 18  1  0
 18 19  1  0
 19 20  1  0
 20 21  2  3
  2 22  1  0
 22 23  2  0
 23 24  1  0
 24 25  2  0
 25 26  1  0
 26 27  2  0
 20  6  1  0
 27 22  1  0
 18  8  2  0
 16 11  1  0
  1 28  1  0
  1 29  1  0
  1 30  1  0
  2 31  1  6
  3 32  1  0
  7 33  1  0
 12 34  1  0
 13 35  1  0
 14 36  1  0
 15 37  1  0
 19 38  1  0
 21 39  1  0
 23 40  1  0
 24 41  1  0
 25 42  1  0
 26 43  1  0
 27 44  1  0
M  END
>  <smiles>  (45) 
C[C@H](NC(=O)c1cc2c(=O)n3ccccc3nc2[nH]c1=N)c1ccccc1

>  <score_type>  (45) 
oracle

>  <origin>  (45) 
autodockgpu

>  <m_score__min__energy>  (45) 
-8.0500000000000007

>  <m_primary>  (45) 
energy

>  <rmsd>  (45) 
5.098882106838601

>  <m_score__min__rmsd>  (45) 
5.098882106838601

>  <meeko>  (45) 
{"free_energy": -7.3, "intermolecular_energy": -8.5, "internal_energy": -0.98, "cluster_size": 41, "cluster_id": 1, "rank_in_cluster": 38}

>  <energy>  (45) 
-7.17

>  <cluster_rmsd>  (45) 
1.54

>  <cluster>  (45) 
2

$$$$

     RDKit          3D

 44 47  0  0  0  0  0  0  0  0999 V2000
  139.3950   76.6580  222.3540 C   0  0  0  0  0  0  0  0  0  0  0  0
  140.4500   77.4530  221.5350 C   0  0  2  0  0  0  0  0  0  0  0  0
  141.5810   76.5990  221.2240 N   0  0  0  0  0  0  0  0  0  0  0  0
  141.4200   75.2980  220.7170 C   0  0  0  0  0  0  0  0  0  0  0  0
  140.1960   74.8990  220.5560 O   0  0  0  0  0  0  0  0  0  0  0  0
  142.4430   74.3600  220.3510 C   0  0  0  0  0  0  0  0  0  0  0  0
  142.2510   72.9950  220.2950 C   0  0  0  0  0  0  0  0  0  0  0  0
  143.2490   72.1200  219.9440 C   0  0  0  0  0  0  0  0  0  0  0  0
  143.7270   74.8100  220.0260 C   0  0  0  0  0  0  0  0  0  0  0  0
  141.9730   70.2660  220.1840 O   0  0  0  0  0  0  0  0  0  0  0  0
  144.1480   69.9300  219.5740 N   0  0  0  0  0  0  0  0  0  0  0  0
  144.0180   68.5930  219.5600 C   0  0  0  0  0  0  0  0  0  0  0  0
  145.0670   67.7580  219.2480 C   0  0  0  0  0  0  0  0  0  0  0  0
  146.3080   68.2610  218.9340 C   0  0  0  0  0  0  0  0  0  0  0  0
  146.4480   69.6390  218.9480 C   0  0  0  0  0  0  0  0  0  0  0  0
  145.3630   70.4440  219.2700 C   0  0  0  0  0  0  0  0  0  0  0  0
  145.5350   71.8040  219.2980 N   0  0  0  0  0  0  0  0  0  0  0  0
  144.5130   72.6130  219.6250 C   0  0  0  0  0  0  0  0  0  0  0  0
  144.7160   73.9430  219.6750 N   0  0  0  0  0  0  0  0  0  0  0  0
  143.0930   70.7430  219.9070 C   0  0  0  0  0  0  0  0  0  0  0  0
  144.0820   76.0440  220.0540 N   0  0  0  0  0  0  0  0  0  0  0  0
  140.7400   78.6960  222.2110 C   0  0  0  0  0  0  0  0  0  0  0  0
  142.0730   79.0960  222.3490 C   0  0  0  0  0  0  0  0  0  0  0  0
  142.4210   80.2370  223.0090 C   0  0  0  0  0  0  0  0  0  0  0  0
  141.4870   81.0990  223.5980 C   0  0  0  0  0  0  0  0  0  0  0  0
  140.1510   80.6960  223.4560 C   0  0  0  0  0  0  0  0  0  0  0  0
  139.8090   79.5390  222.7860 C   0  0  0  0  0  0  0  0  0  0  0  0
  139.5826   76.7993  223.4286 H   0  0  0  0  0  0  0  0  0  0  0  0
  138.3874   77.0233  222.1065 H   0  0  0  0  0  0  0  0  0  0  0  0
  139.4684   75.5887  222.1065 H   0  0  0  0  0  0  0  0  0  0  0  0
  140.0689   77.7557  220.5485 H   0  0  0  0  0  0  0  0  0  0  0  0
  142.5690   76.9450  221.3770 H   0  0  0  0  0  0  0  0  0  0  0  0
  141.2579   72.5913  220.5416 H   0  0  0  0  0  0  0  0  0  0  0  0
  143.0412   68.1509  219.8059 H   0  0  0  0  0  0  0  0  0  0  0  0
  144.9099   66.6693  219.2498 H   0  0  0  0  0  0  0  0  0  0  0  0
  147.1504   67.5995  218.6834 H   0  0  0  0  0  0  0  0  0  0  0  0
  147.4185   70.0957  218.7041 H   0  0  0  0  0  0  0  0  0  0  0  0
  145.6750   74.3190  219.4250 H   0  0  0  0  0  0  0  0  0  0  0  0
  144.4650   76.5360  219.2480 H   0  0  0  0  0  0  0  0  0  0  0  0
  142.8651   78.4706  221.9115 H   0  0  0  0  0  0  0  0  0  0  0  0
  143.4881   80.4935  223.0827 H   0  0  0  0  0  0  0  0  0  0  0  0
  141.7777   82.0175  224.1289 H   0  0  0  0  0  0  0  0  0  0  0  0
  139.3548   81.3186  223.8901 H   0  0  0  0  0  0  0  0  0  0  0  0
  138.7440   79.2755  222.7060 H   0  0  0  0  0  0  0  0  0  0  0  0
  1  2  1  0
  2  3  1  0
  3  4  1  0
  4  5  2  0
  4  6  1  0
  6  7  2  0
  7  8  1  0
  8  9  1  0
  9 10  2  0
  9 11  1  0
 11 12  1  0
 12 13  2  0
 13 14  1  0
 14 15  2  0
 15 16  1  0
 16 17  2  0
 17 18  1  0
 18 19  1  0
 19 20  1  0
 20 21  2  3
  2 22  1  0
 22 23  2  0
 23 24  1  0
 24 25  2  0
 25 26  1  0
 26 27  2  0
 20  6  1  0
 27 22  1  0
 18  8  2  0
 16 11  1  0
  1 28  1  0
  1 29  1  0
  1 30  1  0
  2 31  1  6
  3 32  1  0
  7 33  1  0
 12 34  1  0
 13 35  1  0
 14 36  1  0
 15 37  1  0
 19 38  1  0
 21 39  1  0
 23 40  1  0
 24 41  1  0
 25 42  1  0
 26 43  1  0
 27 44  1  0
M  END
>  <smiles>  (46) 
C[C@H](NC(=O)c1cc2c(=O)n3ccccc3nc2[nH]c1=N)c1ccccc1

>  <score_type>  (46) 
oracle

>  <origin>  (46) 
autodockgpu

>  <m_score__min__energy>  (46) 
-8.0500000000000007

>  <m_primary>  (46) 
energy

>  <rmsd>  (46) 
4.973685264347495

>  <m_score__min__rmsd>  (46) 
4.973685264347495

>  <meeko>  (46) 
{"free_energy": -7.67, "intermolecular_energy": -8.86, "internal_energy": -0.65, "cluster_size": 41, "cluster_id": 1, "rank_in_cluster": 26}

>  <energy>  (46) 
-7.12

>  <cluster_rmsd>  (46) 
1.7

>  <cluster>  (46) 
2

$$$$

     RDKit          3D

 44 47  0  0  0  0  0  0  0  0999 V2000
  138.6200   76.4040  222.7250 C   0  0  0  0  0  0  0  0  0  0  0  0
  139.8640   76.8940  221.9330 C   0  0  2  0  0  0  0  0  0  0  0  0
  140.7720   75.7860  221.7030 N   0  0  0  0  0  0  0  0  0  0  0  0
  141.7090   75.7920  220.6570 C   0  0  0  0  0  0  0  0  0  0  0  0
  141.7060   76.8430  219.8970 O   0  0  0  0  0  0  0  0  0  0  0  0
  142.6730   74.7790  220.3290 C   0  0  0  0  0  0  0  0  0  0  0  0
  142.3820   73.4320  220.2620 C   0  0  0  0  0  0  0  0  0  0  0  0
  143.3240   72.4850  219.9480 C   0  0  0  0  0  0  0  0  0  0  0  0
  143.9990   75.1310  220.0530 C   0  0  0  0  0  0  0  0  0  0  0  0
  141.9050   70.7310  220.1360 O   0  0  0  0  0  0  0  0  0  0  0  0
  144.0700   70.2330  219.6090 N   0  0  0  0  0  0  0  0  0  0  0  0
  143.8410   68.9100  219.5880 C   0  0  0  0  0  0  0  0  0  0  0  0
  144.8360   67.9980  219.3150 C   0  0  0  0  0  0  0  0  0  0  0  0
  146.1220   68.4070  219.0490 C   0  0  0  0  0  0  0  0  0  0  0  0
  146.3650   69.7700  219.0710 C   0  0  0  0  0  0  0  0  0  0  0  0
  145.3310   70.6540  219.3520 C   0  0  0  0  0  0  0  0  0  0  0  0
  145.6040   71.9980  219.3900 N   0  0  0  0  0  0  0  0  0  0  0  0
  144.6330   72.8820  219.6790 C   0  0  0  0  0  0  0  0  0  0  0  0
  144.9320   74.1920  219.7390 N   0  0  0  0  0  0  0  0  0  0  0  0
  143.0670   71.1230  219.9020 C   0  0  0  0  0  0  0  0  0  0  0  0
  144.4440   76.3360  220.0970 N   0  0  0  0  0  0  0  0  0  0  0  0
  140.4130   78.0610  222.5820 C   0  0  0  0  0  0  0  0  0  0  0  0
  139.5410   78.9870  223.1630 C   0  0  0  0  0  0  0  0  0  0  0  0
  139.9890   80.1300  223.7570 C   0  0  0  0  0  0  0  0  0  0  0  0
  141.3450   80.4720  223.8370 C   0  0  0  0  0  0  0  0  0  0  0  0
  142.2180   79.5410  223.2540 C   0  0  0  0  0  0  0  0  0  0  0  0
  141.7540   78.3870  222.6560 C   0  0  0  0  0  0  0  0  0  0  0  0
  138.8183   76.4821  223.8042 H   0  0  0  0  0  0  0  0  0  0  0  0
  137.7514   77.0272  222.4657 H   0  0  0  0  0  0  0  0  0  0  0  0
  138.4097   75.3559  222.4657 H   0  0  0  0  0  0  0  0  0  0  0  0
  139.6040   77.2363  220.9205 H   0  0  0  0  0  0  0  0  0  0  0  0
  140.7440   74.9350  222.3310 H   0  0  0  0  0  0  0  0  0  0  0  0
  141.3527   73.1038  220.4688 H   0  0  0  0  0  0  0  0  0  0  0  0
  142.8252   68.5427  219.7957 H   0  0  0  0  0  0  0  0  0  0  0  0
  144.5983   66.9240  219.3096 H   0  0  0  0  0  0  0  0  0  0  0  0
  146.9212   67.6840  218.8287 H   0  0  0  0  0  0  0  0  0  0  0  0
  147.3759   70.1524  218.8662 H   0  0  0  0  0  0  0  0  0  0  0  0
  145.9260   74.4950  219.5270 H   0  0  0  0  0  0  0  0  0  0  0  0
  143.8390   77.1550  220.1420 H   0  0  0  0  0  0  0  0  0  0  0  0
  138.4595   78.7872  223.1402 H   0  0  0  0  0  0  0  0  0  0  0  0
  139.2495   80.8168  224.1946 H   0  0  0  0  0  0  0  0  0  0  0  0
  141.6972   81.3963  224.3183 H   0  0  0  0  0  0  0  0  0  0  0  0
  143.3004   79.7360  223.2741 H   0  0  0  0  0  0  0  0  0  0  0  0
  142.4865   77.6935  222.2173 H   0  0  0  0  0  0  0  0  0  0  0  0
  1  2  1  0
  2  3  1  0
  3  4  1  0
  4  5  2  0
  4  6  1  0
  6  7  2  0
  7  8  1  0
  8  9  1  0
  9 10  2  0
  9 11  1  0
 11 12  1  0
 12 13  2  0
 13 14  1  0
 14 15  2  0
 15 16  1  0
 16 17  2  0
 17 18  1  0
 18 19  1  0
 19 20  1  0
 20 21  2  3
  2 22  1  0
 22 23  2  0
 23 24  1  0
 24 25  2  0
 25 26  1  0
 26 27  2  0
 20  6  1  0
 27 22  1  0
 18  8  2  0
 16 11  1  0
  1 28  1  0
  1 29  1  0
  1 30  1  0
  2 31  1  6
  3 32  1  0
  7 33  1  0
 12 34  1  0
 13 35  1  0
 14 36  1  0
 15 37  1  0
 19 38  1  0
 21 39  1  0
 23 40  1  0
 24 41  1  0
 25 42  1  0
 26 43  1  0
 27 44  1  0
M  END
>  <smiles>  (47) 
C[C@H](NC(=O)c1cc2c(=O)n3ccccc3nc2[nH]c1=N)c1ccccc1

>  <score_type>  (47) 
oracle

>  <origin>  (47) 
autodockgpu

>  <m_score__min__energy>  (47) 
-8.0500000000000007

>  <m_primary>  (47) 
energy

>  <rmsd>  (47) 
4.9848621526819406

>  <m_score__min__rmsd>  (47) 
4.9848621526819406

>  <meeko>  (47) 
{"free_energy": -7.33, "intermolecular_energy": -8.53, "internal_energy": -0.98, "cluster_size": 41, "cluster_id": 1, "rank_in_cluster": 33}

>  <energy>  (47) 
-7.1

>  <cluster_rmsd>  (47) 
1.62

>  <cluster>  (47) 
2

$$$$

     RDKit          3D

 44 47  0  0  0  0  0  0  0  0999 V2000
  139.1700   76.8590  221.1690 C   0  0  0  0  0  0  0  0  0  0  0  0
  140.4270   77.6510  220.7130 C   0  0  2  0  0  0  0  0  0  0  0  0
  141.4310   76.7360  220.2030 N   0  0  0  0  0  0  0  0  0  0  0  0
  141.7720   75.5500  220.8740 C   0  0  0  0  0  0  0  0  0  0  0  0
  141.1440   75.3260  221.9870 O   0  0  0  0  0  0  0  0  0  0  0  0
  142.7260   74.5540  220.4760 C   0  0  0  0  0  0  0  0  0  0  0  0
  142.4590   73.2010  220.4460 C   0  0  0  0  0  0  0  0  0  0  0  0
  143.3910   72.2690  220.0630 C   0  0  0  0  0  0  0  0  0  0  0  0
  144.0170   74.9290  220.0890 C   0  0  0  0  0  0  0  0  0  0  0  0
  142.0290   70.4900  220.3820 O   0  0  0  0  0  0  0  0  0  0  0  0
  144.1540   70.0300  219.6830 N   0  0  0  0  0  0  0  0  0  0  0  0
  143.9520   68.7010  219.6920 C   0  0  0  0  0  0  0  0  0  0  0  0
  144.9400   67.8070  219.3460 C   0  0  0  0  0  0  0  0  0  0  0  0
  146.1910   68.2390  218.9720 C   0  0  0  0  0  0  0  0  0  0  0  0
  146.4060   69.6070  218.9620 C   0  0  0  0  0  0  0  0  0  0  0  0
  145.3810   70.4730  219.3200 C   0  0  0  0  0  0  0  0  0  0  0  0
  145.6270   71.8220  219.3230 N   0  0  0  0  0  0  0  0  0  0  0  0
  144.6650   72.6890  219.6830 C   0  0  0  0  0  0  0  0  0  0  0  0
  144.9410   74.0060  219.7070 N   0  0  0  0  0  0  0  0  0  0  0  0
  143.1610   70.9020  220.0510 C   0  0  0  0  0  0  0  0  0  0  0  0
  144.4390   76.1430  220.0860 N   0  0  0  0  0  0  0  0  0  0  0  0
  140.8380   78.5440  221.7700 C   0  0  0  0  0  0  0  0  0  0  0  0
  142.1490   79.0300  221.7740 C   0  0  0  0  0  0  0  0  0  0  0  0
  142.6160   79.8450  222.7630 C   0  0  0  0  0  0  0  0  0  0  0  0
  141.8340   80.2630  223.8470 C   0  0  0  0  0  0  0  0  0  0  0  0
  140.5190   79.7750  223.8400 C   0  0  0  0  0  0  0  0  0  0  0  0
  140.0560   78.9510  222.8340 C   0  0  0  0  0  0  0  0  0  0  0  0
  139.1309   76.8344  222.2680 H   0  0  0  0  0  0  0  0  0  0  0  0
  138.2659   77.3509  220.7809 H   0  0  0  0  0  0  0  0  0  0  0  0
  139.2235   75.8311  220.7809 H   0  0  0  0  0  0  0  0  0  0  0  0
  140.2145   78.3114  219.8594 H   0  0  0  0  0  0  0  0  0  0  0  0
  141.9370   76.9500  219.2990 H   0  0  0  0  0  0  0  0  0  0  0  0
  141.4576   72.8546  220.7413 H   0  0  0  0  0  0  0  0  0  0  0  0
  142.9646   68.3151  219.9855 H   0  0  0  0  0  0  0  0  0  0  0  0
  144.7252   66.7284  219.3690 H   0  0  0  0  0  0  0  0  0  0  0  0
  146.9847   67.5301  218.6935 H   0  0  0  0  0  0  0  0  0  0  0  0
  147.3882   70.0075  218.6706 H   0  0  0  0  0  0  0  0  0  0  0  0
  145.9080   74.3270  219.4110 H   0  0  0  0  0  0  0  0  0  0  0  0
  143.9620   76.9030  220.5680 H   0  0  0  0  0  0  0  0  0  0  0  0
  142.8249   78.7462  220.9539 H   0  0  0  0  0  0  0  0  0  0  0  0
  143.6586   80.1911  222.7064 H   0  0  0  0  0  0  0  0  0  0  0  0
  142.2198   80.9208  224.6398 H   0  0  0  0  0  0  0  0  0  0  0  0
  139.8389   80.0563  224.6575 H   0  0  0  0  0  0  0  0  0  0  0  0
  139.0141   78.6014  222.8817 H   0  0  0  0  0  0  0  0  0  0  0  0
  1  2  1  0
  2  3  1  0
  3  4  1  0
  4  5  2  0
  4  6  1  0
  6  7  2  0
  7  8  1  0
  8  9  1  0
  9 10  2  0
  9 11  1  0
 11 12  1  0
 12 13  2  0
 13 14  1  0
 14 15  2  0
 15 16  1  0
 16 17  2  0
 17 18  1  0
 18 19  1  0
 19 20  1  0
 20 21  2  3
  2 22  1  0
 22 23  2  0
 23 24  1  0
 24 25  2  0
 25 26  1  0
 26 27  2  0
 20  6  1  0
 27 22  1  0
 18  8  2  0
 16 11  1  0
  1 28  1  0
  1 29  1  0
  1 30  1  0
  2 31  1  6
  3 32  1  0
  7 33  1  0
 12 34  1  0
 13 35  1  0
 14 36  1  0
 15 37  1  0
 19 38  1  0
 21 39  1  0
 23 40  1  0
 24 41  1  0
 25 42  1  0
 26 43  1  0
 27 44  1  0
M  END
>  <smiles>  (48) 
C[C@H](NC(=O)c1cc2c(=O)n3ccccc3nc2[nH]c1=N)c1ccccc1

>  <score_type>  (48) 
oracle

>  <origin>  (48) 
autodockgpu

>  <m_score__min__energy>  (48) 
-8.0500000000000007

>  <m_primary>  (48) 
energy

>  <rmsd>  (48) 
5.1756240256268775

>  <m_score__min__rmsd>  (48) 
5.1756240256268775

>  <meeko>  (48) 
{"free_energy": -7.65, "intermolecular_energy": -8.85, "internal_energy": -0.4, "cluster_size": 41, "cluster_id": 1, "rank_in_cluster": 28}

>  <energy>  (48) 
-7.1

>  <cluster_rmsd>  (48) 
0.43

>  <cluster>  (48) 
2

$$$$

     RDKit          3D

 44 47  0  0  0  0  0  0  0  0999 V2000
  139.6170   77.0240  222.4890 C   0  0  0  0  0  0  0  0  0  0  0  0
  140.5600   77.7370  221.4800 C   0  0  2  0  0  0  0  0  0  0  0  0
  141.6660   76.8630  221.1340 N   0  0  0  0  0  0  0  0  0  0  0  0
  141.4690   75.5330  220.7260 C   0  0  0  0  0  0  0  0  0  0  0  0
  140.2380   75.1270  220.6900 O   0  0  0  0  0  0  0  0  0  0  0  0
  142.4630   74.5720  220.3400 C   0  0  0  0  0  0  0  0  0  0  0  0
  142.2680   73.2070  220.3730 C   0  0  0  0  0  0  0  0  0  0  0  0
  143.2370   72.3100  220.0000 C   0  0  0  0  0  0  0  0  0  0  0  0
  143.7210   74.9980  219.8980 C   0  0  0  0  0  0  0  0  0  0  0  0
  141.9820   70.4770  220.4340 O   0  0  0  0  0  0  0  0  0  0  0  0
  144.1070   70.0990  219.6890 N   0  0  0  0  0  0  0  0  0  0  0  0
  143.9760   68.7640  219.7580 C   0  0  0  0  0  0  0  0  0  0  0  0
  145.0000   67.9080  219.4180 C   0  0  0  0  0  0  0  0  0  0  0  0
  146.2150   68.3880  218.9880 C   0  0  0  0  0  0  0  0  0  0  0  0
  146.3560   69.7630  218.9160 C   0  0  0  0  0  0  0  0  0  0  0  0
  145.2970   70.5900  219.2700 C   0  0  0  0  0  0  0  0  0  0  0  0
  145.4710   71.9490  219.2100 N   0  0  0  0  0  0  0  0  0  0  0  0
  144.4750   72.7790  219.5640 C   0  0  0  0  0  0  0  0  0  0  0  0
  144.6810   74.1080  219.5260 N   0  0  0  0  0  0  0  0  0  0  0  0
  143.0790   70.9330  220.0510 C   0  0  0  0  0  0  0  0  0  0  0  0
  144.0770   76.2300  219.8330 N   0  0  0  0  0  0  0  0  0  0  0  0
  140.9000   79.0460  221.9870 C   0  0  0  0  0  0  0  0  0  0  0  0
  140.5480   79.3760  223.2990 C   0  0  0  0  0  0  0  0  0  0  0  0
  140.8040   80.6070  223.8290 C   0  0  0  0  0  0  0  0  0  0  0  0
  141.4340   81.6340  223.1150 C   0  0  0  0  0  0  0  0  0  0  0  0
  141.7870   81.2990  221.8000 C   0  0  0  0  0  0  0  0  0  0  0  0
  141.5250   80.0510  221.2740 C   0  0  0  0  0  0  0  0  0  0  0  0
  139.9316   77.2619  223.5159 H   0  0  0  0  0  0  0  0  0  0  0  0
  138.5843   77.3692  222.3326 H   0  0  0  0  0  0  0  0  0  0  0  0
  139.6677   75.9364  222.3326 H   0  0  0  0  0  0  0  0  0  0  0  0
  140.0661   77.9325  220.5168 H   0  0  0  0  0  0  0  0  0  0  0  0
  142.6620   77.2170  221.1850 H   0  0  0  0  0  0  0  0  0  0  0  0
  141.2953   72.8215  220.7124 H   0  0  0  0  0  0  0  0  0  0  0  0
  143.0192   68.3404  220.0973 H   0  0  0  0  0  0  0  0  0  0  0  0
  144.8434   66.8217  219.4916 H   0  0  0  0  0  0  0  0  0  0  0  0
  147.0369   67.7103  218.7139 H   0  0  0  0  0  0  0  0  0  0  0  0
  147.3068   70.2013  218.5784 H   0  0  0  0  0  0  0  0  0  0  0  0
  145.6210   74.4660  219.1870 H   0  0  0  0  0  0  0  0  0  0  0  0
  144.1450   76.8380  220.6470 H   0  0  0  0  0  0  0  0  0  0  0  0
  140.0493   78.6200  223.9233 H   0  0  0  0  0  0  0  0  0  0  0  0
  140.5006   80.8024  224.8681 H   0  0  0  0  0  0  0  0  0  0  0  0
  141.6357   82.6237  223.5507 H   0  0  0  0  0  0  0  0  0  0  0  0
  142.2860   82.0512  221.1713 H   0  0  0  0  0  0  0  0  0  0  0  0
  141.8283   79.8460  220.2367 H   0  0  0  0  0  0  0  0  0  0  0  0
  1  2  1  0
  2  3  1  0
  3  4  1  0
  4  5  2  0
  4  6  1  0
  6  7  2  0
  7  8  1  0
  8  9  1  0
  9 10  2  0
  9 11  1  0
 11 12  1  0
 12 13  2  0
 13 14  1  0
 14 15  2  0
 15 16  1  0
 16 17  2  0
 17 18  1  0
 18 19  1  0
 19 20  1  0
 20 21  2  3
  2 22  1  0
 22 23  2  0
 23 24  1  0
 24 25  2  0
 25 26  1  0
 26 27  2  0
 20  6  1  0
 27 22  1  0
 18  8  2  0
 16 11  1  0
  1 28  1  0
  1 29  1  0
  1 30  1  0
  2 31  1  6
  3 32  1  0
  7 33  1  0
 12 34  1  0
 13 35  1  0
 14 36  1  0
 15 37  1  0
 19 38  1  0
 21 39  1  0
 23 40  1  0
 24 41  1  0
 25 42  1  0
 26 43  1  0
 27 44  1  0
M  END
>  <smiles>  (49) 
C[C@H](NC(=O)c1cc2c(=O)n3ccccc3nc2[nH]c1=N)c1ccccc1

>  <score_type>  (49) 
oracle

>  <origin>  (49) 
autodockgpu

>  <m_score__min__energy>  (49) 
-8.0500000000000007

>  <m_primary>  (49) 
energy

>  <rmsd>  (49) 
4.515421044654995

>  <m_score__min__rmsd>  (49) 
4.515421044654995

>  <meeko>  (49) 
{"free_energy": -7.66, "intermolecular_energy": -8.86, "internal_energy": -0.66, "cluster_size": 41, "cluster_id": 1, "rank_in_cluster": 27}

>  <energy>  (49) 
-7.09

>  <cluster_rmsd>  (49) 
1.66

>  <cluster>  (49) 
2

$$$$

     RDKit          3D

 44 47  0  0  0  0  0  0  0  0999 V2000
  138.2650   78.6690  223.0780 C   0  0  0  0  0  0  0  0  0  0  0  0
  139.5930   78.4900  222.2910 C   0  0  2  0  0  0  0  0  0  0  0  0
  139.9340   77.0810  222.2100 N   0  0  0  0  0  0  0  0  0  0  0  0
  140.9460   76.6040  221.3600 C   0  0  0  0  0  0  0  0  0  0  0  0
  141.5510   77.4980  220.6400 O   0  0  0  0  0  0  0  0  0  0  0  0
  141.3950   75.2510  221.1950 C   0  0  0  0  0  0  0  0  0  0  0  0
  142.5700   74.9010  220.5640 C   0  0  0  0  0  0  0  0  0  0  0  0
  142.9750   73.5980  220.4180 C   0  0  0  0  0  0  0  0  0  0  0  0
  140.6280   74.1890  221.6880 C   0  0  0  0  0  0  0  0  0  0  0  0
  144.8740   74.1080  219.2970 O   0  0  0  0  0  0  0  0  0  0  0  0
  144.4580   71.8880  219.6320 N   0  0  0  0  0  0  0  0  0  0  0  0
  145.5660   71.5030  218.9770 C   0  0  0  0  0  0  0  0  0  0  0  0
  145.8990   70.1770  218.8170 C   0  0  0  0  0  0  0  0  0  0  0  0
  145.1040   69.1770  219.3260 C   0  0  0  0  0  0  0  0  0  0  0  0
  143.9610   69.5670  220.0020 C   0  0  0  0  0  0  0  0  0  0  0  0
  143.6620   70.9170  220.1390 C   0  0  0  0  0  0  0  0  0  0  0  0
  142.5110   71.2760  220.7930 N   0  0  0  0  0  0  0  0  0  0  0  0
  142.1800   72.5720  220.9270 C   0  0  0  0  0  0  0  0  0  0  0  0
  141.0300   72.8970  221.5460 N   0  0  0  0  0  0  0  0  0  0  0  0
  144.1360   73.2150  219.7630 C   0  0  0  0  0  0  0  0  0  0  0  0
  139.4960   74.3360  222.2770 N   0  0  0  0  0  0  0  0  0  0  0  0
  140.5960   79.3710  222.8400 C   0  0  0  0  0  0  0  0  0  0  0  0
  140.5980   80.7160  222.4600 C   0  0  0  0  0  0  0  0  0  0  0  0
  141.5390   81.5940  222.9090 C   0  0  0  0  0  0  0  0  0  0  0  0
  142.5740   81.2310  223.7810 C   0  0  0  0  0  0  0  0  0  0  0  0
  142.5690   79.8810  224.1620 C   0  0  0  0  0  0  0  0  0  0  0  0
  141.6110   79.0010  223.7020 C   0  0  0  0  0  0  0  0  0  0  0  0
  138.4722   78.6411  224.1580 H   0  0  0  0  0  0  0  0  0  0  0  0
  137.8114   79.6364  222.8166 H   0  0  0  0  0  0  0  0  0  0  0  0
  137.5714   77.8562  222.8166 H   0  0  0  0  0  0  0  0  0  0  0  0
  139.4979   78.7998  221.2398 H   0  0  0  0  0  0  0  0  0  0  0  0
  139.4150   76.3720  222.7990 H   0  0  0  0  0  0  0  0  0  0  0  0
  143.2096   75.6999  220.1607 H   0  0  0  0  0  0  0  0  0  0  0  0
  146.2288   72.2726  218.5547 H   0  0  0  0  0  0  0  0  0  0  0  0
  146.8174   69.9126  218.2723 H   0  0  0  0  0  0  0  0  0  0  0  0
  145.3646   68.1156  219.2016 H   0  0  0  0  0  0  0  0  0  0  0  0
  143.2895   68.8085  220.4307 H   0  0  0  0  0  0  0  0  0  0  0  0
  140.4290   72.1170  221.9400 H   0  0  0  0  0  0  0  0  0  0  0  0
  139.2240   73.8120  223.1070 H   0  0  0  0  0  0  0  0  0  0  0  0
  139.8153   81.0775  221.7769 H   0  0  0  0  0  0  0  0  0  0  0  0
  141.4831   82.6390  222.5701 H   0  0  0  0  0  0  0  0  0  0  0  0
  143.3293   81.9467  224.1379 H   0  0  0  0  0  0  0  0  0  0  0  0
  143.3492   79.5144  224.8453 H   0  0  0  0  0  0  0  0  0  0  0  0
  141.6573   77.9544  224.0375 H   0  0  0  0  0  0  0  0  0  0  0  0
  1  2  1  0
  2  3  1  0
  3  4  1  0
  4  5  2  0
  4  6  1  0
  6  7  2  0
  7  8  1  0
  8  9  1  0
  9 10  2  0
  9 11  1  0
 11 12  1  0
 12 13  2  0
 13 14  1  0
 14 15  2  0
 15 16  1  0
 16 17  2  0
 17 18  1  0
 18 19  1  0
 19 20  1  0
 20 21  2  3
  2 22  1  0
 22 23  2  0
 23 24  1  0
 24 25  2  0
 25 26  1  0
 26 27  2  0
 20  6  1  0
 27 22  1  0
 18  8  2  0
 16 11  1  0
  1 28  1  0
  1 29  1  0
  1 30  1  0
  2 31  1  6
  3 32  1  0
  7 33  1  0
 12 34  1  0
 13 35  1  0
 14 36  1  0
 15 37  1  0
 19 38  1  0
 21 39  1  0
 23 40  1  0
 24 41  1  0
 25 42  1  0
 26 43  1  0
 27 44  1  0
M  END
>  <smiles>  (50) 
C[C@H](NC(=O)c1cc2c(=O)n3ccccc3nc2[nH]c1=N)c1ccccc1

>  <score_type>  (50) 
oracle

>  <origin>  (50) 
autodockgpu

>  <m_score__min__energy>  (50) 
-8.0500000000000007

>  <m_primary>  (50) 
energy

>  <rmsd>  (50) 
4.349465138400284

>  <m_score__min__rmsd>  (50) 
4.349465138400284

>  <meeko>  (50) 
{"free_energy": -7.12, "intermolecular_energy": -8.31, "internal_energy": -0.96, "cluster_size": 9, "cluster_id": 2, "rank_in_cluster": 5}

>  <energy>  (50) 
-7.05

>  <cluster_rmsd>  (50) 
0.76

>  <cluster>  (50) 
2

$$$$
