@<TRIPOS>MOLECULE
*****
 61 65 0 0 0
SMALL
GASTEIGER

@<TRIPOS>ATOM
      1 O         139.0370   71.0420  221.5580 O.2     1  UNL1       -0.2685
      2 C         139.7000   71.3760  222.5810 C.2     1  UNL1        0.2628
      3 N         140.4210   72.6390  222.5280 N.am    1  UNL1       -0.3015
      4 C         140.2950   73.3630  221.3110 C.3     1  UNL1        0.0887
      5 C         140.9490   74.6450  221.1390 C.2     1  UNL1        0.2330
      6 O         141.0590   75.3280  222.2530 O.2     1  UNL1       -0.2739
      7 N         141.4780   75.2560  219.9650 N.am    1  UNL1       -0.2957
      8 C         141.4130   74.8580  218.5940 C.3     1  UNL1        0.0151
      9 C         142.0450   75.9480  217.7730 C.3     1  UNL1       -0.0354
     10 C         142.8510   76.7350  218.7550 C.3     1  UNL1       -0.0314
     11 C         142.2430   76.5140  220.0900 C.3     1  UNL1        0.0415
     12 C         141.4350   77.6430  220.6290 C.3     1  UNL1        0.0277
     13 N         141.4290   77.7500  222.0700 N.pl3   1  UNL1       -0.3421
     14 C         140.5010   78.6590  222.6670 C.ar    1  UNL1        0.0272
     15 C         139.1540   78.3940  222.7250 C.ar    1  UNL1       -0.0402
     16 C         138.2680   79.2960  223.3110 C.ar    1  UNL1       -0.0508
     17 C         138.7070   80.4850  223.8530 C.ar    1  UNL1        0.0019
     18 C         137.7200   81.3690  224.4450 C.ar    1  UNL1        0.0890
     19 C         137.0570   82.3500  223.7570 C.ar    1  UNL1        0.0535
     20 N         136.1520   83.1440  224.3460 N.ar    1  UNL1       -0.2596
     21 C         135.8540   83.0070  225.6500 C.ar    1  UNL1        0.0457
     22 C         136.5190   82.0210  226.3470 C.ar    1  UNL1        0.0464
     23 N         137.4380   81.2160  225.7490 N.ar    1  UNL1       -0.2520
     24 C         140.0510   80.7600  223.7990 C.ar    1  UNL1       -0.0508
     25 C         140.9160   79.8650  223.2200 C.ar    1  UNL1       -0.0402
     26 C         139.7680   70.5630  223.7870 C.ar    1  UNL1        0.1260
     27 C         139.2030   69.3050  223.7260 C.ar    1  UNL1       -0.0306
     28 C         139.2610   68.5190  224.8660 C.ar    1  UNL1       -0.0503
     29 C         139.8630   68.9750  226.0300 C.ar    1  UNL1        0.0031
     30 C         139.9200   68.1870  227.1730 C.ar    1  UNL1       -0.0173
     31 C         140.5280   68.6710  228.3200 C.ar    1  UNL1        0.1241
     32 F         140.6010   67.9210  229.4600 F       1  UNL1       -0.2055
     33 C         141.0670   69.9410  228.2900 C.ar    1  UNL1       -0.0244
     34 C         141.0230   70.7480  227.1640 C.ar    1  UNL1       -0.0330
     35 C         140.4120   70.2420  226.0360 C.ar    1  UNL1        0.0720
     36 N         140.3520   71.0040  224.9160 N.ar    1  UNL1       -0.2421
     37 H         140.9370   72.8620  223.3750 H       1  UNL1        0.1496
     38 H         140.6764   72.7069  220.5147 H       1  UNL1        0.0558
     39 H         139.2278   73.6293  221.2948 H       1  UNL1        0.0558
     40 H         141.9611   73.9151  218.4509 H       1  UNL1        0.0465
     41 H         140.3686   74.6997  218.2870 H       1  UNL1        0.0465
     42 H         142.6917   75.5215  216.9920 H       1  UNL1        0.0281
     43 H         141.2988   76.5664  217.2526 H       1  UNL1        0.0281
     44 H         143.8945   76.3869  218.7527 H       1  UNL1        0.0284
     45 H         142.8516   77.8040  218.4957 H       1  UNL1        0.0284
     46 H         143.0361   76.4461  220.8492 H       1  UNL1        0.0516
     47 H         141.8391   78.5799  220.2180 H       1  UNL1        0.0479
     48 H         140.3945   77.4504  220.3284 H       1  UNL1        0.0479
     49 H         142.0500   77.2180  222.7110 H       1  UNL1        0.1461
     50 H         138.7687   77.4545  222.3020 H       1  UNL1        0.0636
     51 H         137.1954   79.0540  223.3417 H       1  UNL1        0.0625
     52 H         137.2739   82.4907  222.6878 H       1  UNL1        0.0851
     53 H         135.1113   83.6541  226.1396 H       1  UNL1        0.0845
     54 H         136.3005   81.8814  227.4160 H       1  UNL1        0.0845
     55 H         140.4358   81.7002  224.2209 H       1  UNL1        0.0625
     56 H         141.9872   80.1137  223.1924 H       1  UNL1        0.0636
     57 H         138.7240   68.9395  222.8057 H       1  UNL1        0.0641
     58 H         138.8201   67.5114  224.8476 H       1  UNL1        0.0625
     59 H         139.4820   67.1780  227.1672 H       1  UNL1        0.0653
     60 H         141.5519   70.3292  229.1978 H       1  UNL1        0.0647
     61 H         141.4604   71.7573  227.1699 H       1  UNL1        0.0640
@<TRIPOS>BOND
     1     1     2    2
     2     2     3   am
     3     3     4    1
     4     4     5    1
     5     5     6    2
     6     5     7   am
     7     7     8    1
     8     8     9    1
     9     9    10    1
    10    10    11    1
    11    11    12    1
    12    12    13    1
    13    13    14    1
    14    14    15   ar
    15    15    16   ar
    16    16    17   ar
    17    17    18    1
    18    18    19   ar
    19    19    20   ar
    20    20    21   ar
    21    21    22   ar
    22    22    23   ar
    23    17    24   ar
    24    24    25   ar
    25     2    26    1
    26    26    27   ar
    27    27    28   ar
    28    28    29   ar
    29    29    30   ar
    30    30    31   ar
    31    31    32    1
    32    31    33   ar
    33    33    34   ar
    34    34    35   ar
    35    35    36   ar
    36    11     7    1
    37    25    14   ar
    38    36    26   ar
    39    23    18   ar
    40    35    29   ar
    41     3    37    1
    42     4    38    1
    43     4    39    1
    44     8    40    1
    45     8    41    1
    46     9    42    1
    47     9    43    1
    48    10    44    1
    49    10    45    1
    50    11    46    1
    51    12    47    1
    52    12    48    1
    53    13    49    1
    54    15    50    1
    55    16    51    1
    56    19    52    1
    57    21    53    1
    58    22    54    1
    59    24    55    1
    60    25    56    1
    61    27    57    1
    62    28    58    1
    63    30    59    1
    64    33    60    1
    65    34    61    1
