
     RDKit          3D

 63 67  0  0  0  0  0  0  0  0999 V2000
  139.5400   73.1460  222.6230 O   0  0  0  0  0  0  0  0  0  0  0  0
  139.2270   71.9450  222.8300 C   0  0  0  0  0  0  0  0  0  0  0  0
  138.3930   71.1960  221.9440 N   0  0  0  0  0  0  0  0  0  0  0  0
  137.9010   71.8650  220.7740 C   0  0  0  0  0  0  0  0  0  0  0  0
  138.9990   72.4820  220.0250 C   0  0  0  0  0  0  0  0  0  0  0  0
  138.8350   73.6270  219.5310 O   0  0  0  0  0  0  0  0  0  0  0  0
  140.2330   71.8110  219.8520 N   0  0  0  0  0  0  0  0  0  0  0  0
  140.4360   70.5950  219.1040 C   0  0  0  0  0  0  0  0  0  0  0  0
  141.8580   70.1680  219.2870 C   0  0  0  0  0  0  0  0  0  0  0  0
  142.3220   70.9810  220.4750 C   0  0  0  0  0  0  0  0  0  0  0  0
  141.5330   72.2290  220.4050 C   0  0  1  0  0  0  0  0  0  0  0  0
  142.0610   73.3090  219.5420 C   0  0  0  0  0  0  0  0  0  0  0  0
  141.2400   74.4800  219.5240 N   0  0  0  0  0  0  0  0  0  0  0  0
  141.3310   75.6150  220.3330 C   0  0  0  0  0  0  0  0  0  0  0  0
  140.7640   75.7800  221.5750 C   0  0  0  0  0  0  0  0  0  0  0  0
  140.8770   76.9260  222.3280 C   0  0  0  0  0  0  0  0  0  0  0  0
  141.5930   78.0050  221.8540 C   0  0  0  0  0  0  0  0  0  0  0  0
  141.7060   79.2130  222.6570 C   0  0  0  0  0  0  0  0  0  0  0  0
  140.5400   79.8660  223.0480 C   0  0  0  0  0  0  0  0  0  0  0  0
  140.5920   81.0300  223.8210 C   0  0  0  0  0  0  0  0  0  0  0  0
  141.8320   81.5330  224.1970 C   0  0  0  0  0  0  0  0  0  0  0  0
  143.0030   80.8820  223.8070 C   0  0  0  0  0  0  0  0  0  0  0  0
  142.9520   79.7260  223.0400 C   0  0  0  0  0  0  0  0  0  0  0  0
  142.1770   77.8750  220.6120 C   0  0  0  0  0  0  0  0  0  0  0  0
  142.0570   76.7250  219.8650 C   0  0  0  0  0  0  0  0  0  0  0  0
  139.7280   71.2680  224.0200 C   0  0  0  0  0  0  0  0  0  0  0  0
  140.6620   71.8750  224.8500 C   0  0  0  0  0  0  0  0  0  0  0  0
  141.1490   71.2410  225.9850 C   0  0  0  0  0  0  0  0  0  0  0  0
  140.7180   69.9770  226.3330 C   0  0  0  0  0  0  0  0  0  0  0  0
  141.1680   69.3030  227.4500 C   0  0  0  0  0  0  0  0  0  0  0  0
  140.6620   68.0320  227.6980 C   0  0  0  0  0  0  0  0  0  0  0  0
  139.7290   67.4490  226.8520 C   0  0  0  0  0  0  0  0  0  0  0  0
  139.2690   68.1260  225.7200 C   0  0  0  0  0  0  0  0  0  0  0  0
  139.7840   69.3960  225.4850 C   0  0  0  0  0  0  0  0  0  0  0  0
  139.3290   70.0360  224.3860 N   0  0  0  0  0  0  0  0  0  0  0  0
  138.1570   70.1880  222.1600 H   0  0  0  0  0  0  0  0  0  0  0  0
  137.3907   71.1345  220.1291 H   0  0  0  0  0  0  0  0  0  0  0  0
  137.2019   72.6542  221.0878 H   0  0  0  0  0  0  0  0  0  0  0  0
  139.7605   69.8109  219.4767 H   0  0  0  0  0  0  0  0  0  0  0  0
  140.2232   70.7636  218.0380 H   0  0  0  0  0  0  0  0  0  0  0  0
  141.9205   69.0906  219.4996 H   0  0  0  0  0  0  0  0  0  0  0  0
  142.4729   70.3320  218.3898 H   0  0  0  0  0  0  0  0  0  0  0  0
  142.1195   70.4459  221.4145 H   0  0  0  0  0  0  0  0  0  0  0  0
  143.4052   71.1710  220.4525 H   0  0  0  0  0  0  0  0  0  0  0  0
  141.5240   72.6695  221.4129 H   0  0  0  0  0  0  0  0  0  0  0  0
  143.0596   73.5899  219.9080 H   0  0  0  0  0  0  0  0  0  0  0  0
  142.0872   72.9173  218.5144 H   0  0  0  0  0  0  0  0  0  0  0  0
  140.4590   74.4770  218.7980 H   0  0  0  0  0  0  0  0  0  0  0  0
  140.1840   74.9437  221.9924 H   0  0  0  0  0  0  0  0  0  0  0  0
  140.3932   76.9818  223.3143 H   0  0  0  0  0  0  0  0  0  0  0  0
  139.5637   79.4602  222.7444 H   0  0  0  0  0  0  0  0  0  0  0  0
  139.6663   81.5395  224.1267 H   0  0  0  0  0  0  0  0  0  0  0  0
  141.8905   82.4481  224.8046 H   0  0  0  0  0  0  0  0  0  0  0  0
  143.9784   81.2897  224.1110 H   0  0  0  0  0  0  0  0  0  0  0  0
  143.8795   79.2186  222.7364 H   0  0  0  0  0  0  0  0  0  0  0  0
  142.7570   78.7165  220.2052 H   0  0  0  0  0  0  0  0  0  0  0  0
  142.5406   76.6729  218.8784 H   0  0  0  0  0  0  0  0  0  0  0  0
  141.0248   72.8833  224.6017 H   0  0  0  0  0  0  0  0  0  0  0  0
  141.8895   71.7538  226.6164 H   0  0  0  0  0  0  0  0  0  0  0  0
  141.9068   69.7589  228.1256 H   0  0  0  0  0  0  0  0  0  0  0  0
  141.0081   67.4773  228.5826 H   0  0  0  0  0  0  0  0  0  0  0  0
  139.3472   66.4419  227.0755 H   0  0  0  0  0  0  0  0  0  0  0  0
  138.5300   67.6732  225.0426 H   0  0  0  0  0  0  0  0  0  0  0  0
  1  2  2  0
  2  3  1  0
  3  4  1  0
  4  5  1  0
  5  6  2  0
  5  7  1  0
  7  8  1  0
  8  9  1  0
  9 10  1  0
 10 11  1  0
 11 12  1  0
 12 13  1  0
 13 14  1  0
 14 15  2  0
 15 16  1  0
 16 17  2  0
 17 18  1  0
 18 19  2  0
 19 20  1  0
 20 21  2  0
 21 22  1  0
 22 23  2  0
 17 24  1  0
 24 25  2  0
  2 26  1  0
 26 27  2  0
 27 28  1  0
 28 29  2  0
 29 30  1  0
 30 31  2  0
 31 32  1  0
 32 33  2  0
 33 34  1  0
 34 35  2  0
 11  7  1  0
 25 14  1  0
 35 26  1  0
 23 18  1  0
 34 29  1  0
  3 36  1  0
  4 37  1  0
  4 38  1  0
  8 39  1  0
  8 40  1  0
  9 41  1  0
  9 42  1  0
 10 43  1  0
 10 44  1  0
 11 45  1  1
 12 46  1  0
 12 47  1  0
 13 48  1  0
 15 49  1  0
 16 50  1  0
 19 51  1  0
 20 52  1  0
 21 53  1  0
 22 54  1  0
 23 55  1  0
 24 56  1  0
 25 57  1  0
 27 58  1  0
 28 59  1  0
 30 60  1  0
 31 61  1  0
 32 62  1  0
 33 63  1  0
M  END
>  <smiles>  (1) 
O=C(NCC(=O)N1CCC[C@H]1CNc1ccc(-c2ccccc2)cc1)c1ccc2ccccc2n1

>  <score_type>  (1) 
oracle

>  <origin>  (1) 
autodockgpu

>  <m_score__min__energy>  (1) 
-9.8300000000000001

>  <m_primary>  (1) 
energy

>  <rmsd>  (1) 
4.276344856120724

>  <m_score__min__rmsd>  (1) 
4.276344856120724

>  <meeko>  (1) 
{"free_energy": -8.43, "intermolecular_energy": -10.82, "internal_energy": -3.09, "cluster_size": 12, "cluster_id": 3, "rank_in_cluster": 9}

>  <energy>  (1) 
-9.83

>  <cluster_rmsd>  (1) 
0.0

>  <cluster>  (1) 
1

$$$$

     RDKit          3D

 63 67  0  0  0  0  0  0  0  0999 V2000
  141.1640   71.5250  221.5020 O   0  0  0  0  0  0  0  0  0  0  0  0
  140.5190   71.9980  222.4750 C   0  0  0  0  0  0  0  0  0  0  0  0
  140.0060   73.3310  222.4910 N   0  0  0  0  0  0  0  0  0  0  0  0
  140.2510   74.1500  221.3390 C   0  0  0  0  0  0  0  0  0  0  0  0
  140.0980   75.5710  221.6670 C   0  0  0  0  0  0  0  0  0  0  0  0
  139.4760   75.8940  222.7120 O   0  0  0  0  0  0  0  0  0  0  0  0
  140.6360   76.5760  220.8290 N   0  0  0  0  0  0  0  0  0  0  0  0
  141.2160   76.3680  219.5260 C   0  0  0  0  0  0  0  0  0  0  0  0
  141.7720   77.6730  219.0500 C   0  0  0  0  0  0  0  0  0  0  0  0
  141.8220   78.5150  220.3060 C   0  0  0  0  0  0  0  0  0  0  0  0
  140.7060   78.0160  221.1360 C   0  0  1  0  0  0  0  0  0  0  0  0
  139.3680   78.5940  220.8790 C   0  0  0  0  0  0  0  0  0  0  0  0
  138.4130   78.3050  221.9040 N   0  0  0  0  0  0  0  0  0  0  0  0
  137.9120   79.1610  222.8870 C   0  0  0  0  0  0  0  0  0  0  0  0
  136.5890   79.3300  223.2240 C   0  0  0  0  0  0  0  0  0  0  0  0
  136.1460   80.1970  224.1980 C   0  0  0  0  0  0  0  0  0  0  0  0
  137.0440   80.9650  224.9080 C   0  0  0  0  0  0  0  0  0  0  0  0
  136.5660   81.8800  225.9350 C   0  0  0  0  0  0  0  0  0  0  0  0
  136.0980   81.3500  227.1340 C   0  0  0  0  0  0  0  0  0  0  0  0
  135.6280   82.1830  228.1540 C   0  0  0  0  0  0  0  0  0  0  0  0
  135.6350   83.5580  227.9560 C   0  0  0  0  0  0  0  0  0  0  0  0
  136.1030   84.0930  226.7550 C   0  0  0  0  0  0  0  0  0  0  0  0
  136.5690   83.2660  225.7420 C   0  0  0  0  0  0  0  0  0  0  0  0
  138.3790   80.8210  224.5980 C   0  0  0  0  0  0  0  0  0  0  0  0
  138.8120   79.9520  223.6220 C   0  0  0  0  0  0  0  0  0  0  0  0
  140.2710   71.1630  223.6440 C   0  0  0  0  0  0  0  0  0  0  0  0
  139.5780   69.9650  223.5350 C   0  0  0  0  0  0  0  0  0  0  0  0
  139.3340   69.1610  224.6410 C   0  0  0  0  0  0  0  0  0  0  0  0
  139.7750   69.5280  225.8970 C   0  0  0  0  0  0  0  0  0  0  0  0
  139.5610   68.7660  227.0270 C   0  0  0  0  0  0  0  0  0  0  0  0
  140.0530   69.2380  228.2390 C   0  0  0  0  0  0  0  0  0  0  0  0
  140.7430   70.4400  228.3190 C   0  0  0  0  0  0  0  0  0  0  0  0
  140.9640   71.2140  227.1780 C   0  0  0  0  0  0  0  0  0  0  0  0
  140.4650   70.7310  225.9740 C   0  0  0  0  0  0  0  0  0  0  0  0
  140.6880   71.4920  224.8810 N   0  0  0  0  0  0  0  0  0  0  0  0
  139.4690   73.6840  223.3310 H   0  0  0  0  0  0  0  0  0  0  0  0
  141.2756   73.9710  220.9808 H   0  0  0  0  0  0  0  0  0  0  0  0
  139.5209   73.8881  220.5590 H   0  0  0  0  0  0  0  0  0  0  0  0
  142.0212   75.6215  219.5914 H   0  0  0  0  0  0  0  0  0  0  0  0
  140.4531   76.0005  218.8239 H   0  0  0  0  0  0  0  0  0  0  0  0
  142.7780   77.5403  218.6254 H   0  0  0  0  0  0  0  0  0  0  0  0
  141.1688   78.1300  218.2517 H   0  0  0  0  0  0  0  0  0  0  0  0
  142.7823   78.3804  220.8254 H   0  0  0  0  0  0  0  0  0  0  0  0
  141.7325   79.5900  220.0906 H   0  0  0  0  0  0  0  0  0  0  0  0
  140.9229   78.2908  222.1788 H   0  0  0  0  0  0  0  0  0  0  0  0
  139.4708   79.6861  220.7973 H   0  0  0  0  0  0  0  0  0  0  0  0
  138.9927   78.1386  219.9507 H   0  0  0  0  0  0  0  0  0  0  0  0
  138.0430   77.3050  221.9120 H   0  0  0  0  0  0  0  0  0  0  0  0
  135.8385   78.7359  222.6820 H   0  0  0  0  0  0  0  0  0  0  0  0
  135.0697   80.2771  224.4106 H   0  0  0  0  0  0  0  0  0  0  0  0
  136.0979   80.2599  227.2813 H   0  0  0  0  0  0  0  0  0  0  0  0
  135.2586   81.7563  229.0982 H   0  0  0  0  0  0  0  0  0  0  0  0
  135.2703   84.2276  228.7488 H   0  0  0  0  0  0  0  0  0  0  0  0
  136.1026   85.1833  226.6093 H   0  0  0  0  0  0  0  0  0  0  0  0
  136.9365   83.6954  224.7983 H   0  0  0  0  0  0  0  0  0  0  0  0
  139.1214   81.4187  225.1472 H   0  0  0  0  0  0  0  0  0  0  0  0
  139.8890   79.8747  223.4121 H   0  0  0  0  0  0  0  0  0  0  0  0
  139.2130   69.6445  222.5481 H   0  0  0  0  0  0  0  0  0  0  0  0
  138.7815   68.2183  224.5145 H   0  0  0  0  0  0  0  0  0  0  0  0
  139.0165   67.8119  226.9708 H   0  0  0  0  0  0  0  0  0  0  0  0
  139.8922   68.6470  229.1527 H   0  0  0  0  0  0  0  0  0  0  0  0
  141.1200   70.7867  229.2925 H   0  0  0  0  0  0  0  0  0  0  0  0
  141.5107   72.1671  227.2299 H   0  0  0  0  0  0  0  0  0  0  0  0
  1  2  2  0
  2  3  1  0
  3  4  1  0
  4  5  1  0
  5  6  2  0
  5  7  1  0
  7  8  1  0
  8  9  1  0
  9 10  1  0
 10 11  1  0
 11 12  1  0
 12 13  1  0
 13 14  1  0
 14 15  2  0
 15 16  1  0
 16 17  2  0
 17 18  1  0
 18 19  2  0
 19 20  1  0
 20 21  2  0
 21 22  1  0
 22 23  2  0
 17 24  1  0
 24 25  2  0
  2 26  1  0
 26 27  2  0
 27 28  1  0
 28 29  2  0
 29 30  1  0
 30 31  2  0
 31 32  1  0
 32 33  2  0
 33 34  1  0
 34 35  2  0
 11  7  1  0
 25 14  1  0
 35 26  1  0
 23 18  1  0
 34 29  1  0
  3 36  1  0
  4 37  1  0
  4 38  1  0
  8 39  1  0
  8 40  1  0
  9 41  1  0
  9 42  1  0
 10 43  1  0
 10 44  1  0
 11 45  1  1
 12 46  1  0
 12 47  1  0
 13 48  1  0
 15 49  1  0
 16 50  1  0
 19 51  1  0
 20 52  1  0
 21 53  1  0
 22 54  1  0
 23 55  1  0
 24 56  1  0
 25 57  1  0
 27 58  1  0
 28 59  1  0
 30 60  1  0
 31 61  1  0
 32 62  1  0
 33 63  1  0
M  END
>  <smiles>  (2) 
O=C(NCC(=O)N1CCC[C@H]1CNc1ccc(-c2ccccc2)cc1)c1ccc2ccccc2n1

>  <score_type>  (2) 
oracle

>  <origin>  (2) 
autodockgpu

>  <m_score__min__energy>  (2) 
-9.8300000000000001

>  <m_primary>  (2) 
energy

>  <rmsd>  (2) 
3.21224679835028

>  <m_score__min__rmsd>  (2) 
3.21224679835028

>  <meeko>  (2) 
{"free_energy": -9.11, "intermolecular_energy": -11.5, "internal_energy": -2.7, "cluster_size": 5, "cluster_id": 1, "rank_in_cluster": 4}

>  <energy>  (2) 
-9.78

>  <cluster_rmsd>  (2) 
0.8

>  <cluster>  (2) 
1

$$$$

     RDKit          3D

 63 67  0  0  0  0  0  0  0  0999 V2000
  140.8570   77.0880  218.3320 O   0  0  0  0  0  0  0  0  0  0  0  0
  141.8600   77.5070  218.9660 C   0  0  0  0  0  0  0  0  0  0  0  0
  143.1650   76.9450  218.8150 N   0  0  0  0  0  0  0  0  0  0  0  0
  143.3140   75.8540  217.8950 C   0  0  0  0  0  0  0  0  0  0  0  0
  142.7000   74.6340  218.4290 C   0  0  0  0  0  0  0  0  0  0  0  0
  141.5930   74.2530  217.9670 O   0  0  0  0  0  0  0  0  0  0  0  0
  143.3320   73.8850  219.4510 N   0  0  0  0  0  0  0  0  0  0  0  0
  144.6400   74.1410  219.9990 C   0  0  0  0  0  0  0  0  0  0  0  0
  144.9660   73.0400  220.9590 C   0  0  0  0  0  0  0  0  0  0  0  0
  143.9530   71.9680  220.6240 C   0  0  0  0  0  0  0  0  0  0  0  0
  142.7700   72.7090  220.1380 C   0  0  1  0  0  0  0  0  0  0  0  0
  141.8180   73.1980  221.1590 C   0  0  0  0  0  0  0  0  0  0  0  0
  140.7990   74.0510  220.6300 N   0  0  0  0  0  0  0  0  0  0  0  0
  140.2770   75.2220  221.1820 C   0  0  0  0  0  0  0  0  0  0  0  0
  140.8260   75.9570  222.2060 C   0  0  0  0  0  0  0  0  0  0  0  0
  140.2630   77.1030  222.7210 C   0  0  0  0  0  0  0  0  0  0  0  0
  139.0760   77.5860  222.2130 C   0  0  0  0  0  0  0  0  0  0  0  0
  138.4880   78.7990  222.7640 C   0  0  0  0  0  0  0  0  0  0  0  0
  139.1140   79.4110  223.8470 C   0  0  0  0  0  0  0  0  0  0  0  0
  138.5920   80.5770  224.4140 C   0  0  0  0  0  0  0  0  0  0  0  0
  137.4310   81.1240  223.8800 C   0  0  0  0  0  0  0  0  0  0  0  0
  136.8010   80.5130  222.7940 C   0  0  0  0  0  0  0  0  0  0  0  0
  137.3190   79.3540  222.2310 C   0  0  0  0  0  0  0  0  0  0  0  0
  138.4960   76.8750  221.1840 C   0  0  0  0  0  0  0  0  0  0  0  0
  139.0670   75.7290  220.6770 C   0  0  0  0  0  0  0  0  0  0  0  0
  141.7060   78.6160  219.9000 C   0  0  0  0  0  0  0  0  0  0  0  0
  141.0260   79.7710  219.5350 C   0  0  0  0  0  0  0  0  0  0  0  0
  140.8730   80.8340  220.4140 C   0  0  0  0  0  0  0  0  0  0  0  0
  141.3950   80.7820  221.6910 C   0  0  0  0  0  0  0  0  0  0  0  0
  141.2710   81.8100  222.6030 C   0  0  0  0  0  0  0  0  0  0  0  0
  141.8390   81.6420  223.8610 C   0  0  0  0  0  0  0  0  0  0  0  0
  142.5140   80.4780  224.1990 C   0  0  0  0  0  0  0  0  0  0  0  0
  142.6420   79.4340  223.2800 C   0  0  0  0  0  0  0  0  0  0  0  0
  142.0700   79.6150  222.0260 C   0  0  0  0  0  0  0  0  0  0  0  0
  142.2030   78.5960  221.1500 N   0  0  0  0  0  0  0  0  0  0  0  0
  143.9780   77.3310  219.3690 H   0  0  0  0  0  0  0  0  0  0  0  0
  142.8277   76.1157  216.9437 H   0  0  0  0  0  0  0  0  0  0  0  0
  144.3870   75.6690  217.7388 H   0  0  0  0  0  0  0  0  0  0  0  0
  145.3852   74.1632  219.1902 H   0  0  0  0  0  0  0  0  0  0  0  0
  144.6535   75.1125  220.5147 H   0  0  0  0  0  0  0  0  0  0  0  0
  145.9917   72.6740  220.8039 H   0  0  0  0  0  0  0  0  0  0  0  0
  144.9190   73.3603  222.0103 H   0  0  0  0  0  0  0  0  0  0  0  0
  144.3404   71.2992  219.8413 H   0  0  0  0  0  0  0  0  0  0  0  0
  143.7187   71.3313  221.4899 H   0  0  0  0  0  0  0  0  0  0  0  0
  142.1747   72.0149  219.5265 H   0  0  0  0  0  0  0  0  0  0  0  0
  141.3346   72.3286  221.6284 H   0  0  0  0  0  0  0  0  0  0  0  0
  142.3963   73.7949  221.8796 H   0  0  0  0  0  0  0  0  0  0  0  0
  140.3900   73.7430  219.6940 H   0  0  0  0  0  0  0  0  0  0  0  0
  141.7741   75.6077  222.6409 H   0  0  0  0  0  0  0  0  0  0  0  0
  140.7633   77.6364  223.5427 H   0  0  0  0  0  0  0  0  0  0  0  0
  140.0324   78.9705  224.2622 H   0  0  0  0  0  0  0  0  0  0  0  0
  139.0921   81.0544  225.2695 H   0  0  0  0  0  0  0  0  0  0  0  0
  137.0071   82.0414  224.3145 H   0  0  0  0  0  0  0  0  0  0  0  0
  135.8831   80.9551  222.3793 H   0  0  0  0  0  0  0  0  0  0  0  0
  136.8164   78.8778  221.3762 H   0  0  0  0  0  0  0  0  0  0  0  0
  137.5488   77.2339  220.7551 H   0  0  0  0  0  0  0  0  0  0  0  0
  138.5637   75.1970  219.8563 H   0  0  0  0  0  0  0  0  0  0  0  0
  140.5982   79.8449  218.5243 H   0  0  0  0  0  0  0  0  0  0  0  0
  140.3274   81.7319  220.0882 H   0  0  0  0  0  0  0  0  0  0  0  0
  140.7379   82.7362  222.3422 H   0  0  0  0  0  0  0  0  0  0  0  0
  141.7513   82.4487  224.6036 H   0  0  0  0  0  0  0  0  0  0  0  0
  142.9534   80.3761  225.2023 H   0  0  0  0  0  0  0  0  0  0  0  0
  143.1738   78.5063  223.5380 H   0  0  0  0  0  0  0  0  0  0  0  0
  1  2  2  0
  2  3  1  0
  3  4  1  0
  4  5  1  0
  5  6  2  0
  5  7  1  0
  7  8  1  0
  8  9  1  0
  9 10  1  0
 10 11  1  0
 11 12  1  0
 12 13  1  0
 13 14  1  0
 14 15  2  0
 15 16  1  0
 16 17  2  0
 17 18  1  0
 18 19  2  0
 19 20  1  0
 20 21  2  0
 21 22  1  0
 22 23  2  0
 17 24  1  0
 24 25  2  0
  2 26  1  0
 26 27  2  0
 27 28  1  0
 28 29  2  0
 29 30  1  0
 30 31  2  0
 31 32  1  0
 32 33  2  0
 33 34  1  0
 34 35  2  0
 11  7  1  0
 25 14  1  0
 35 26  1  0
 23 18  1  0
 34 29  1  0
  3 36  1  0
  4 37  1  0
  4 38  1  0
  8 39  1  0
  8 40  1  0
  9 41  1  0
  9 42  1  0
 10 43  1  0
 10 44  1  0
 11 45  1  6
 12 46  1  0
 12 47  1  0
 13 48  1  0
 15 49  1  0
 16 50  1  0
 19 51  1  0
 20 52  1  0
 21 53  1  0
 22 54  1  0
 23 55  1  0
 24 56  1  0
 25 57  1  0
 27 58  1  0
 28 59  1  0
 30 60  1  0
 31 61  1  0
 32 62  1  0
 33 63  1  0
M  END
>  <smiles>  (3) 
O=C(NCC(=O)N1CCC[C@H]1CNc1ccc(-c2ccccc2)cc1)c1ccc2ccccc2n1

>  <score_type>  (3) 
oracle

>  <origin>  (3) 
autodockgpu

>  <m_score__min__energy>  (3) 
-9.8300000000000001

>  <m_primary>  (3) 
energy

>  <rmsd>  (3) 
8.072636404194958

>  <m_score__min__rmsd>  (3) 
8.072636404194958

>  <meeko>  (3) 
{"free_energy": -7.2, "intermolecular_energy": -9.59, "internal_energy": -4.96, "cluster_size": 10, "cluster_id": 7, "rank_in_cluster": 7}

>  <energy>  (3) 
-9.5

>  <cluster_rmsd>  (3) 
1.58

>  <cluster>  (3) 
1

$$$$

     RDKit          3D

 63 67  0  0  0  0  0  0  0  0999 V2000
  140.0010   71.2590  221.2780 O   0  0  0  0  0  0  0  0  0  0  0  0
  139.8420   71.8790  222.3620 C   0  0  0  0  0  0  0  0  0  0  0  0
  139.7010   73.2990  222.4310 N   0  0  0  0  0  0  0  0  0  0  0  0
  139.7470   74.0300  221.1980 C   0  0  0  0  0  0  0  0  0  0  0  0
  140.8220   75.0270  221.2230 C   0  0  0  0  0  0  0  0  0  0  0  0
  142.0040   74.6580  221.0030 O   0  0  0  0  0  0  0  0  0  0  0  0
  140.5480   76.3900  221.4900 N   0  0  0  0  0  0  0  0  0  0  0  0
  141.3340   77.5120  221.0420 C   0  0  0  0  0  0  0  0  0  0  0  0
  140.7620   78.7540  221.6520 C   0  0  0  0  0  0  0  0  0  0  0  0
  139.8750   78.2280  222.7580 C   0  0  0  0  0  0  0  0  0  0  0  0
  139.4140   76.9100  222.2740 C   0  0  1  0  0  0  0  0  0  0  0  0
  138.2200   76.8970  221.3980 C   0  0  0  0  0  0  0  0  0  0  0  0
  136.9940   76.6990  222.1060 N   0  0  0  0  0  0  0  0  0  0  0  0
  136.5480   75.5510  222.7630 C   0  0  0  0  0  0  0  0  0  0  0  0
  136.6640   74.2560  222.3130 C   0  0  0  0  0  0  0  0  0  0  0  0
  136.1980   73.1560  222.9980 C   0  0  0  0  0  0  0  0  0  0  0  0
  135.5680   73.3090  224.2150 C   0  0  0  0  0  0  0  0  0  0  0  0
  135.0770   72.1400  224.9310 C   0  0  0  0  0  0  0  0  0  0  0  0
  135.5370   70.8820  224.5490 C   0  0  0  0  0  0  0  0  0  0  0  0
  135.0980   69.7270  225.2040 C   0  0  0  0  0  0  0  0  0  0  0  0
  134.1910   69.8500  226.2500 C   0  0  0  0  0  0  0  0  0  0  0  0
  133.7280   71.1090  226.6350 C   0  0  0  0  0  0  0  0  0  0  0  0
  134.1630   72.2560  225.9850 C   0  0  0  0  0  0  0  0  0  0  0  0
  135.4340   74.5920  224.6980 C   0  0  0  0  0  0  0  0  0  0  0  0
  135.9030   75.6860  224.0050 C   0  0  0  0  0  0  0  0  0  0  0  0
  139.7960   71.1330  223.6140 C   0  0  0  0  0  0  0  0  0  0  0  0
  139.1890   69.8850  223.6820 C   0  0  0  0  0  0  0  0  0  0  0  0
  139.1360   69.1650  224.8680 C   0  0  0  0  0  0  0  0  0  0  0  0
  139.6900   69.6660  226.0290 C   0  0  0  0  0  0  0  0  0  0  0  0
  139.6660   68.9920  227.2330 C   0  0  0  0  0  0  0  0  0  0  0  0
  140.2560   69.5970  228.3360 C   0  0  0  0  0  0  0  0  0  0  0  0
  140.8560   70.8450  228.2390 C   0  0  0  0  0  0  0  0  0  0  0  0
  140.8840   71.5320  227.0240 C   0  0  0  0  0  0  0  0  0  0  0  0
  140.2890   70.9150  225.9290 C   0  0  0  0  0  0  0  0  0  0  0  0
  140.3250   71.5940  224.7620 N   0  0  0  0  0  0  0  0  0  0  0  0
  139.5690   73.7750  223.3660 H   0  0  0  0  0  0  0  0  0  0  0  0
  139.9249   73.3287  220.3695 H   0  0  0  0  0  0  0  0  0  0  0  0
  138.7874   74.5499  221.0605 H   0  0  0  0  0  0  0  0  0  0  0  0
  142.3789   77.3867  221.3620 H   0  0  0  0  0  0  0  0  0  0  0  0
  141.3094   77.5804  219.9444 H   0  0  0  0  0  0  0  0  0  0  0  0
  141.5582   79.3953  222.0580 H   0  0  0  0  0  0  0  0  0  0  0  0
  140.2182   79.3764  220.9262 H   0  0  0  0  0  0  0  0  0  0  0  0
  140.4437   78.1206  223.6934 H   0  0  0  0  0  0  0  0  0  0  0  0
  139.0378   78.9066  222.9785 H   0  0  0  0  0  0  0  0  0  0  0  0
  139.1097   76.3241  223.1538 H   0  0  0  0  0  0  0  0  0  0  0  0
  138.1652   77.8605  220.8701 H   0  0  0  0  0  0  0  0  0  0  0  0
  138.3351   76.0483  220.7077 H   0  0  0  0  0  0  0  0  0  0  0  0
  136.3410   77.5420  222.1290 H   0  0  0  0  0  0  0  0  0  0  0  0
  137.1600   74.0888  221.3455 H   0  0  0  0  0  0  0  0  0  0  0  0
  136.3290   72.1502  222.5722 H   0  0  0  0  0  0  0  0  0  0  0  0
  136.2556   70.7958  223.7206 H   0  0  0  0  0  0  0  0  0  0  0  0
  135.4648   68.7367  224.8962 H   0  0  0  0  0  0  0  0  0  0  0  0
  133.8367   68.9515  226.7764 H   0  0  0  0  0  0  0  0  0  0  0  0
  133.0096   71.1936  227.4637 H   0  0  0  0  0  0  0  0  0  0  0  0
  133.7937   73.2448  226.2947 H   0  0  0  0  0  0  0  0  0  0  0  0
  134.9372   74.7477  225.6670 H   0  0  0  0  0  0  0  0  0  0  0  0
  135.7696   76.6901  224.4338 H   0  0  0  0  0  0  0  0  0  0  0  0
  138.7394   69.4569  222.7739 H   0  0  0  0  0  0  0  0  0  0  0  0
  138.6452   68.1807  224.8827 H   0  0  0  0  0  0  0  0  0  0  0  0
  139.1926   68.0026  227.3172 H   0  0  0  0  0  0  0  0  0  0  0  0
  140.2474   69.0767  229.3052 H   0  0  0  0  0  0  0  0  0  0  0  0
  141.3149   71.2981  229.1301 H   0  0  0  0  0  0  0  0  0  0  0  0
  141.3574   72.5210  226.9364 H   0  0  0  0  0  0  0  0  0  0  0  0
  1  2  2  0
  2  3  1  0
  3  4  1  0
  4  5  1  0
  5  6  2  0
  5  7  1  0
  7  8  1  0
  8  9  1  0
  9 10  1  0
 10 11  1  0
 11 12  1  0
 12 13  1  0
 13 14  1  0
 14 15  2  0
 15 16  1  0
 16 17  2  0
 17 18  1  0
 18 19  2  0
 19 20  1  0
 20 21  2  0
 21 22  1  0
 22 23  2  0
 17 24  1  0
 24 25  2  0
  2 26  1  0
 26 27  2  0
 27 28  1  0
 28 29  2  0
 29 30  1  0
 30 31  2  0
 31 32  1  0
 32 33  2  0
 33 34  1  0
 34 35  2  0
 11  7  1  0
 25 14  1  0
 35 26  1  0
 23 18  1  0
 34 29  1  0
  3 36  1  0
  4 37  1  0
  4 38  1  0
  8 39  1  0
  8 40  1  0
  9 41  1  0
  9 42  1  0
 10 43  1  0
 10 44  1  0
 11 45  1  1
 12 46  1  0
 12 47  1  0
 13 48  1  0
 15 49  1  0
 16 50  1  0
 19 51  1  0
 20 52  1  0
 21 53  1  0
 22 54  1  0
 23 55  1  0
 24 56  1  0
 25 57  1  0
 27 58  1  0
 28 59  1  0
 30 60  1  0
 31 61  1  0
 32 62  1  0
 33 63  1  0
M  END
>  <smiles>  (4) 
O=C(NCC(=O)N1CCC[C@H]1CNc1ccc(-c2ccccc2)cc1)c1ccc2ccccc2n1

>  <score_type>  (4) 
oracle

>  <origin>  (4) 
autodockgpu

>  <m_score__min__energy>  (4) 
-9.8300000000000001

>  <m_primary>  (4) 
energy

>  <rmsd>  (4) 
5.469751388650183

>  <m_score__min__rmsd>  (4) 
5.469751388650183

>  <meeko>  (4) 
{"free_energy": -8.5, "intermolecular_energy": -10.89, "internal_energy": -2.85, "cluster_size": 5, "cluster_id": 5, "rank_in_cluster": 2}

>  <energy>  (4) 
-9.11

>  <cluster_rmsd>  (4) 
1.34

>  <cluster>  (4) 
1

$$$$

     RDKit          3D

 63 67  0  0  0  0  0  0  0  0999 V2000
  140.8950   71.9900  221.4280 O   0  0  0  0  0  0  0  0  0  0  0  0
  140.0920   72.3310  222.3360 C   0  0  0  0  0  0  0  0  0  0  0  0
  139.2710   73.4970  222.2480 N   0  0  0  0  0  0  0  0  0  0  0  0
  139.3850   74.3000  221.0650 C   0  0  0  0  0  0  0  0  0  0  0  0
  140.5710   75.1600  221.1300 C   0  0  0  0  0  0  0  0  0  0  0  0
  141.4590   74.9120  221.9870 O   0  0  0  0  0  0  0  0  0  0  0  0
  140.7280   76.2560  220.2490 N   0  0  0  0  0  0  0  0  0  0  0  0
  140.2510   77.5970  220.4760 C   0  0  0  0  0  0  0  0  0  0  0  0
  140.5190   78.4010  219.2430 C   0  0  0  0  0  0  0  0  0  0  0  0
  140.8060   77.3520  218.1920 C   0  0  0  0  0  0  0  0  0  0  0  0
  141.4050   76.2270  218.9400 C   0  0  1  0  0  0  0  0  0  0  0  0
  142.8630   76.2850  219.1870 C   0  0  0  0  0  0  0  0  0  0  0  0
  143.3260   75.2990  220.1140 N   0  0  0  0  0  0  0  0  0  0  0  0
  143.7470   73.9940  219.8530 C   0  0  0  0  0  0  0  0  0  0  0  0
  144.3140   73.5390  218.6850 C   0  0  0  0  0  0  0  0  0  0  0  0
  144.7040   72.2350  218.4740 C   0  0  0  0  0  0  0  0  0  0  0  0
  144.5390   71.2900  219.4640 C   0  0  0  0  0  0  0  0  0  0  0  0
  144.9540   69.9130  219.2320 C   0  0  0  0  0  0  0  0  0  0  0  0
  145.9030   69.6600  218.2450 C   0  0  0  0  0  0  0  0  0  0  0  0
  146.3370   68.3570  217.9820 C   0  0  0  0  0  0  0  0  0  0  0  0
  145.8060   67.3090  218.7230 C   0  0  0  0  0  0  0  0  0  0  0  0
  144.8540   67.5580  219.7130 C   0  0  0  0  0  0  0  0  0  0  0  0
  144.4230   68.8520  219.9740 C   0  0  0  0  0  0  0  0  0  0  0  0
  143.9740   71.7100  220.6490 C   0  0  0  0  0  0  0  0  0  0  0  0
  143.5860   73.0160  220.8490 C   0  0  0  0  0  0  0  0  0  0  0  0
  139.9780   71.5130  223.5370 C   0  0  0  0  0  0  0  0  0  0  0  0
  139.2840   70.3100  223.5210 C   0  0  0  0  0  0  0  0  0  0  0  0
  139.1670   69.5220  224.6580 C   0  0  0  0  0  0  0  0  0  0  0  0
  139.7400   69.9080  225.8530 C   0  0  0  0  0  0  0  0  0  0  0  0
  139.6550   69.1630  227.0110 C   0  0  0  0  0  0  0  0  0  0  0  0
  140.2730   69.6540  228.1540 C   0  0  0  0  0  0  0  0  0  0  0  0
  140.9610   70.8600  228.1420 C   0  0  0  0  0  0  0  0  0  0  0  0
  141.0510   71.6190  226.9730 C   0  0  0  0  0  0  0  0  0  0  0  0
  140.4270   71.1150  225.8370 C   0  0  0  0  0  0  0  0  0  0  0  0
  140.5250   71.8620  224.7160 N   0  0  0  0  0  0  0  0  0  0  0  0
  138.6100   73.7430  223.0360 H   0  0  0  0  0  0  0  0  0  0  0  0
  139.4656   73.6406  220.1883 H   0  0  0  0  0  0  0  0  0  0  0  0
  138.4920   74.9373  220.9848 H   0  0  0  0  0  0  0  0  0  0  0  0
  139.1705   77.5786  220.6815 H   0  0  0  0  0  0  0  0  0  0  0  0
  140.7646   78.0428  221.3406 H   0  0  0  0  0  0  0  0  0  0  0  0
  139.6405   79.0031  218.9677 H   0  0  0  0  0  0  0  0  0  0  0  0
  141.3444   79.1170  219.3698 H   0  0  0  0  0  0  0  0  0  0  0  0
  139.8769   77.0365  217.6947 H   0  0  0  0  0  0  0  0  0  0  0  0
  141.4711   77.7268  217.4001 H   0  0  0  0  0  0  0  0  0  0  0  0
  141.2716   75.3195  218.3328 H   0  0  0  0  0  0  0  0  0  0  0  0
  143.3842   76.1346  218.2300 H   0  0  0  0  0  0  0  0  0  0  0  0
  143.0765   77.2693  219.6292 H   0  0  0  0  0  0  0  0  0  0  0  0
  143.3470   75.6090  221.1350 H   0  0  0  0  0  0  0  0  0  0  0  0
  144.4652   74.2613  217.8692 H   0  0  0  0  0  0  0  0  0  0  0  0
  145.1494   71.9461  217.5106 H   0  0  0  0  0  0  0  0  0  0  0  0
  146.3172   70.4971  217.6639 H   0  0  0  0  0  0  0  0  0  0  0  0
  147.0871   68.1650  217.2006 H   0  0  0  0  0  0  0  0  0  0  0  0
  146.1372   66.2782  218.5288 H   0  0  0  0  0  0  0  0  0  0  0  0
  144.4405   66.7197  220.2930 H   0  0  0  0  0  0  0  0  0  0  0  0
  143.6723   69.0410  220.7555 H   0  0  0  0  0  0  0  0  0  0  0  0
  143.8287   70.9802  221.4591 H   0  0  0  0  0  0  0  0  0  0  0  0
  143.1387   73.3008  221.8128 H   0  0  0  0  0  0  0  0  0  0  0  0
  138.8155   69.9733  222.5844 H   0  0  0  0  0  0  0  0  0  0  0  0
  138.6091   68.5754  224.6058 H   0  0  0  0  0  0  0  0  0  0  0  0
  139.1126   68.2062  227.0287 H   0  0  0  0  0  0  0  0  0  0  0  0
  140.2162   69.0755  229.0879 H   0  0  0  0  0  0  0  0  0  0  0  0
  141.4406   71.2217  229.0635 H   0  0  0  0  0  0  0  0  0  0  0  0
  141.5931   72.5759  226.9518 H   0  0  0  0  0  0  0  0  0  0  0  0
  1  2  2  0
  2  3  1  0
  3  4  1  0
  4  5  1  0
  5  6  2  0
  5  7  1  0
  7  8  1  0
  8  9  1  0
  9 10  1  0
 10 11  1  0
 11 12  1  0
 12 13  1  0
 13 14  1  0
 14 15  2  0
 15 16  1  0
 16 17  2  0
 17 18  1  0
 18 19  2  0
 19 20  1  0
 20 21  2  0
 21 22  1  0
 22 23  2  0
 17 24  1  0
 24 25  2  0
  2 26  1  0
 26 27  2  0
 27 28  1  0
 28 29  2  0
 29 30  1  0
 30 31  2  0
 31 32  1  0
 32 33  2  0
 33 34  1  0
 34 35  2  0
 11  7  1  0
 25 14  1  0
 35 26  1  0
 23 18  1  0
 34 29  1  0
  3 36  1  0
  4 37  1  0
  4 38  1  0
  8 39  1  0
  8 40  1  0
  9 41  1  0
  9 42  1  0
 10 43  1  0
 10 44  1  0
 11 45  1  6
 12 46  1  0
 12 47  1  0
 13 48  1  0
 15 49  1  0
 16 50  1  0
 19 51  1  0
 20 52  1  0
 21 53  1  0
 22 54  1  0
 23 55  1  0
 24 56  1  0
 25 57  1  0
 27 58  1  0
 28 59  1  0
 30 60  1  0
 31 61  1  0
 32 62  1  0
 33 63  1  0
M  END
>  <smiles>  (5) 
O=C(NCC(=O)N1CCC[C@H]1CNc1ccc(-c2ccccc2)cc1)c1ccc2ccccc2n1

>  <score_type>  (5) 
oracle

>  <origin>  (5) 
autodockgpu

>  <m_score__min__energy>  (5) 
-9.8300000000000001

>  <m_primary>  (5) 
energy

>  <rmsd>  (5) 
5.747523721956392

>  <m_score__min__rmsd>  (5) 
5.747523721956392

>  <meeko>  (5) 
{"free_energy": -9.28, "intermolecular_energy": -11.67, "internal_energy": -2.72, "cluster_size": 6, "cluster_id": 2, "rank_in_cluster": 4}

>  <energy>  (5) 
-8.56

>  <cluster_rmsd>  (5) 
1.07

>  <cluster>  (5) 
1

$$$$

     RDKit          3D

 63 67  0  0  0  0  0  0  0  0999 V2000
  140.4320   72.7220  222.3820 O   0  0  0  0  0  0  0  0  0  0  0  0
  140.1220   71.5320  222.6560 C   0  0  0  0  0  0  0  0  0  0  0  0
  139.6770   70.6000  221.6690 N   0  0  0  0  0  0  0  0  0  0  0  0
  139.5850   71.0620  220.3140 C   0  0  0  0  0  0  0  0  0  0  0  0
  138.7780   72.2830  220.2330 C   0  0  0  0  0  0  0  0  0  0  0  0
  139.3260   73.3560  219.8700 O   0  0  0  0  0  0  0  0  0  0  0  0
  137.4000   72.2710  220.5560 N   0  0  0  0  0  0  0  0  0  0  0  0
  136.6530   71.1320  221.0280 C   0  0  0  0  0  0  0  0  0  0  0  0
  135.2120   71.5260  221.1220 C   0  0  0  0  0  0  0  0  0  0  0  0
  135.1420   72.8040  220.3150 C   0  0  0  0  0  0  0  0  0  0  0  0
  136.4780   73.4170  220.4680 C   0  0  1  0  0  0  0  0  0  0  0  0
  136.6960   74.2610  221.6640 C   0  0  0  0  0  0  0  0  0  0  0  0
  138.0760   74.4770  221.9680 N   0  0  0  0  0  0  0  0  0  0  0  0
  138.7250   75.6830  222.2410 C   0  0  0  0  0  0  0  0  0  0  0  0
  138.1340   76.8470  222.6760 C   0  0  0  0  0  0  0  0  0  0  0  0
  138.8200   78.0150  222.9230 C   0  0  0  0  0  0  0  0  0  0  0  0
  140.1850   78.0730  222.7380 C   0  0  0  0  0  0  0  0  0  0  0  0
  140.9030   79.3130  223.0000 C   0  0  0  0  0  0  0  0  0  0  0  0
  140.3810   80.5030  222.5000 C   0  0  0  0  0  0  0  0  0  0  0  0
  141.0300   81.7220  222.7230 C   0  0  0  0  0  0  0  0  0  0  0  0
  142.2100   81.7320  223.4560 C   0  0  0  0  0  0  0  0  0  0  0  0
  142.7360   80.5400  223.9580 C   0  0  0  0  0  0  0  0  0  0  0  0
  142.0930   79.3300  223.7370 C   0  0  0  0  0  0  0  0  0  0  0  0
  140.8120   76.9250  222.3030 C   0  0  0  0  0  0  0  0  0  0  0  0
  140.1160   75.7620  222.0580 C   0  0  0  0  0  0  0  0  0  0  0  0
  140.2170   71.0660  224.0330 C   0  0  0  0  0  0  0  0  0  0  0  0
  140.6850   71.8990  225.0410 C   0  0  0  0  0  0  0  0  0  0  0  0
  140.7810   71.4660  226.3570 C   0  0  0  0  0  0  0  0  0  0  0  0
  140.4130   70.1850  226.7130 C   0  0  0  0  0  0  0  0  0  0  0  0
  140.4890   69.7060  228.0050 C   0  0  0  0  0  0  0  0  0  0  0  0
  140.0890   68.3960  228.2430 C   0  0  0  0  0  0  0  0  0  0  0  0
  139.6250   67.5840  227.2160 C   0  0  0  0  0  0  0  0  0  0  0  0
  139.5460   68.0640  225.9070 C   0  0  0  0  0  0  0  0  0  0  0  0
  139.9500   69.3760  225.6840 C   0  0  0  0  0  0  0  0  0  0  0  0
  139.8670   69.8230  224.4120 N   0  0  0  0  0  0  0  0  0  0  0  0
  139.4290   69.6100  221.9460 H   0  0  0  0  0  0  0  0  0  0  0  0
  140.5962   71.2725  219.9355 H   0  0  0  0  0  0  0  0  0  0  0  0
  139.1035   70.2808  219.7075 H   0  0  0  0  0  0  0  0  0  0  0  0
  136.7652   70.2948  220.3234 H   0  0  0  0  0  0  0  0  0  0  0  0
  137.0257   70.8140  222.0129 H   0  0  0  0  0  0  0  0  0  0  0  0
  134.5633   70.7509  220.6880 H   0  0  0  0  0  0  0  0  0  0  0  0
  134.8699   71.6551  222.1594 H   0  0  0  0  0  0  0  0  0  0  0  0
  134.9347   72.5842  219.2573 H   0  0  0  0  0  0  0  0  0  0  0  0
  134.3365   73.4698  220.6583 H   0  0  0  0  0  0  0  0  0  0  0  0
  136.6229   74.1054  219.6224 H   0  0  0  0  0  0  0  0  0  0  0  0
  136.2208   75.2380  221.4915 H   0  0  0  0  0  0  0  0  0  0  0  0
  136.2568   73.7275  222.5198 H   0  0  0  0  0  0  0  0  0  0  0  0
  138.6810   73.5990  221.9840 H   0  0  0  0  0  0  0  0  0  0  0  0
  137.0458   76.8442  222.8364 H   0  0  0  0  0  0  0  0  0  0  0  0
  138.2763   78.9062  223.2696 H   0  0  0  0  0  0  0  0  0  0  0  0
  139.4455   80.4843  221.9217 H   0  0  0  0  0  0  0  0  0  0  0  0
  140.6124   82.6582  222.3241 H   0  0  0  0  0  0  0  0  0  0  0  0
  142.7319   82.6824  223.6416 H   0  0  0  0  0  0  0  0  0  0  0  0
  143.6717   80.5601  224.5359 H   0  0  0  0  0  0  0  0  0  0  0  0
  142.5136   78.3953  224.1363 H   0  0  0  0  0  0  0  0  0  0  0  0
  141.9008   76.9382  222.1469 H   0  0  0  0  0  0  0  0  0  0  0  0
  140.6626   74.8729  221.7104 H   0  0  0  0  0  0  0  0  0  0  0  0
  140.9870   72.9267  224.7909 H   0  0  0  0  0  0  0  0  0  0  0  0
  141.1564   72.1553  227.1277 H   0  0  0  0  0  0  0  0  0  0  0  0
  140.8558   70.3428  228.8235 H   0  0  0  0  0  0  0  0  0  0  0  0
  140.1410   67.9943  229.2657 H   0  0  0  0  0  0  0  0  0  0  0  0
  139.3163   66.5514  227.4362 H   0  0  0  0  0  0  0  0  0  0  0  0
  139.1793   67.4304  225.0860 H   0  0  0  0  0  0  0  0  0  0  0  0
  1  2  2  0
  2  3  1  0
  3  4  1  0
  4  5  1  0
  5  6  2  0
  5  7  1  0
  7  8  1  0
  8  9  1  0
  9 10  1  0
 10 11  1  0
 11 12  1  0
 12 13  1  0
 13 14  1  0
 14 15  2  0
 15 16  1  0
 16 17  2  0
 17 18  1  0
 18 19  2  0
 19 20  1  0
 20 21  2  0
 21 22  1  0
 22 23  2  0
 17 24  1  0
 24 25  2  0
  2 26  1  0
 26 27  2  0
 27 28  1  0
 28 29  2  0
 29 30  1  0
 30 31  2  0
 31 32  1  0
 32 33  2  0
 33 34  1  0
 34 35  2  0
 11  7  1  0
 25 14  1  0
 35 26  1  0
 23 18  1  0
 34 29  1  0
  3 36  1  0
  4 37  1  0
  4 38  1  0
  8 39  1  0
  8 40  1  0
  9 41  1  0
  9 42  1  0
 10 43  1  0
 10 44  1  0
 11 45  1  6
 12 46  1  0
 12 47  1  0
 13 48  1  0
 15 49  1  0
 16 50  1  0
 19 51  1  0
 20 52  1  0
 21 53  1  0
 22 54  1  0
 23 55  1  0
 24 56  1  0
 25 57  1  0
 27 58  1  0
 28 59  1  0
 30 60  1  0
 31 61  1  0
 32 62  1  0
 33 63  1  0
M  END
>  <smiles>  (6) 
O=C(NCC(=O)N1CCC[C@H]1CNc1ccc(-c2ccccc2)cc1)c1ccc2ccccc2n1

>  <score_type>  (6) 
oracle

>  <origin>  (6) 
autodockgpu

>  <m_score__min__energy>  (6) 
-9.8300000000000001

>  <m_primary>  (6) 
energy

>  <rmsd>  (6) 
4.637831086710748

>  <m_score__min__rmsd>  (6) 
4.637831086710748

>  <meeko>  (6) 
{"free_energy": -8.42, "intermolecular_energy": -10.81, "internal_energy": -3.52, "cluster_size": 12, "cluster_id": 3, "rank_in_cluster": 10}

>  <energy>  (6) 
-9.74

>  <cluster_rmsd>  (6) 
0.0

>  <cluster>  (6) 
2

$$$$

     RDKit          3D

 63 67  0  0  0  0  0  0  0  0999 V2000
  139.4170   74.7560  222.1460 O   0  0  0  0  0  0  0  0  0  0  0  0
  140.4100   75.5060  221.9550 C   0  0  0  0  0  0  0  0  0  0  0  0
  141.6070   75.0610  221.3130 N   0  0  0  0  0  0  0  0  0  0  0  0
  141.6580   73.6950  220.8790 C   0  0  0  0  0  0  0  0  0  0  0  0
  140.7240   73.4650  219.7720 C   0  0  0  0  0  0  0  0  0  0  0  0
  140.2860   74.4520  219.1260 O   0  0  0  0  0  0  0  0  0  0  0  0
  140.3120   72.1560  219.4240 N   0  0  0  0  0  0  0  0  0  0  0  0
  141.1150   70.9640  219.5230 C   0  0  0  0  0  0  0  0  0  0  0  0
  140.3370   69.8290  218.9350 C   0  0  0  0  0  0  0  0  0  0  0  0
  139.2370   70.5180  218.1590 C   0  0  0  0  0  0  0  0  0  0  0  0
  138.9900   71.7740  218.8960 C   0  0  1  0  0  0  0  0  0  0  0  0
  138.0530   71.7080  220.0400 C   0  0  0  0  0  0  0  0  0  0  0  0
  138.5520   72.3330  221.2260 N   0  0  0  0  0  0  0  0  0  0  0  0
  138.9980   71.7270  222.4020 C   0  0  0  0  0  0  0  0  0  0  0  0
  140.2310   71.8940  222.9880 C   0  0  0  0  0  0  0  0  0  0  0  0
  140.6260   71.2640  224.1470 C   0  0  0  0  0  0  0  0  0  0  0  0
  139.7690   70.4020  224.7990 C   0  0  0  0  0  0  0  0  0  0  0  0
  140.1950   69.7400  226.0230 C   0  0  0  0  0  0  0  0  0  0  0  0
  140.5440   70.5240  227.1190 C   0  0  0  0  0  0  0  0  0  0  0  0
  140.9600   69.9390  228.3190 C   0  0  0  0  0  0  0  0  0  0  0  0
  141.0210   68.5530  228.4060 C   0  0  0  0  0  0  0  0  0  0  0  0
  140.6720   67.7630  227.3090 C   0  0  0  0  0  0  0  0  0  0  0  0
  140.2600   68.3440  226.1170 C   0  0  0  0  0  0  0  0  0  0  0  0
  138.5240   70.2110  224.2400 C   0  0  0  0  0  0  0  0  0  0  0  0
  138.1380   70.8460  223.0800 C   0  0  0  0  0  0  0  0  0  0  0  0
  140.3560   76.8940  222.3980 C   0  0  0  0  0  0  0  0  0  0  0  0
  139.1420   77.5110  222.6710 C   0  0  0  0  0  0  0  0  0  0  0  0
  139.0770   78.8330  223.0930 C   0  0  0  0  0  0  0  0  0  0  0  0
  140.2230   79.5840  223.2560 C   0  0  0  0  0  0  0  0  0  0  0  0
  140.2130   80.9000  223.6730 C   0  0  0  0  0  0  0  0  0  0  0  0
  141.4320   81.5560  223.8020 C   0  0  0  0  0  0  0  0  0  0  0  0
  142.6310   80.9140  223.5220 C   0  0  0  0  0  0  0  0  0  0  0  0
  142.6470   79.5830  223.1010 C   0  0  0  0  0  0  0  0  0  0  0  0
  141.4200   78.9400  222.9760 C   0  0  0  0  0  0  0  0  0  0  0  0
  141.4540   77.6530  222.5670 N   0  0  0  0  0  0  0  0  0  0  0  0
  142.4150   75.7280  221.1740 H   0  0  0  0  0  0  0  0  0  0  0  0
  142.6792   73.4610  220.5437 H   0  0  0  0  0  0  0  0  0  0  0  0
  141.3734   73.0467  221.7209 H   0  0  0  0  0  0  0  0  0  0  0  0
  142.0542   71.0999  218.9667 H   0  0  0  0  0  0  0  0  0  0  0  0
  141.3581   70.7546  220.5752 H   0  0  0  0  0  0  0  0  0  0  0  0
  140.9684   69.2235  218.2681 H   0  0  0  0  0  0  0  0  0  0  0  0
  139.9530   69.1337  219.6960 H   0  0  0  0  0  0  0  0  0  0  0  0
  139.5621   70.7295  217.1296 H   0  0  0  0  0  0  0  0  0  0  0  0
  138.3324   69.8974  218.0783 H   0  0  0  0  0  0  0  0  0  0  0  0
  138.5133   72.4770  218.1970 H   0  0  0  0  0  0  0  0  0  0  0  0
  137.1163   72.2074  219.7515 H   0  0  0  0  0  0  0  0  0  0  0  0
  137.9047   70.6435  220.2744 H   0  0  0  0  0  0  0  0  0  0  0  0
  138.5820   73.3990  221.2000 H   0  0  0  0  0  0  0  0  0  0  0  0
  140.9461   72.5730  222.5006 H   0  0  0  0  0  0  0  0  0  0  0  0
  141.6306   71.4492  224.5551 H   0  0  0  0  0  0  0  0  0  0  0  0
  140.4918   71.6199  227.0399 H   0  0  0  0  0  0  0  0  0  0  0  0
  141.2346   70.5656  229.1804 H   0  0  0  0  0  0  0  0  0  0  0  0
  141.3455   68.0767  229.3429 H   0  0  0  0  0  0  0  0  0  0  0  0
  140.7240   66.6672  227.3900 H   0  0  0  0  0  0  0  0  0  0  0  0
  139.9878   67.7152  225.2565 H   0  0  0  0  0  0  0  0  0  0  0  0
  137.8162   69.5302  224.7356 H   0  0  0  0  0  0  0  0  0  0  0  0
  137.1326   70.6591  222.6747 H   0  0  0  0  0  0  0  0  0  0  0  0
  138.2100   76.9394  222.5502 H   0  0  0  0  0  0  0  0  0  0  0  0
  138.0972   79.2879  223.3003 H   0  0  0  0  0  0  0  0  0  0  0  0
  139.2672   81.4151  223.8969 H   0  0  0  0  0  0  0  0  0  0  0  0
  141.4470   82.6050  224.1326 H   0  0  0  0  0  0  0  0  0  0  0  0
  143.5792   81.4605  223.6332 H   0  0  0  0  0  0  0  0  0  0  0  0
  143.5909   79.0643  222.8774 H   0  0  0  0  0  0  0  0  0  0  0  0
  1  2  2  0
  2  3  1  0
  3  4  1  0
  4  5  1  0
  5  6  2  0
  5  7  1  0
  7  8  1  0
  8  9  1  0
  9 10  1  0
 10 11  1  0
 11 12  1  0
 12 13  1  0
 13 14  1  0
 14 15  2  0
 15 16  1  0
 16 17  2  0
 17 18  1  0
 18 19  2  0
 19 20  1  0
 20 21  2  0
 21 22  1  0
 22 23  2  0
 17 24  1  0
 24 25  2  0
  2 26  1  0
 26 27  2  0
 27 28  1  0
 28 29  2  0
 29 30  1  0
 30 31  2  0
 31 32  1  0
 32 33  2  0
 33 34  1  0
 34 35  2  0
 11  7  1  0
 25 14  1  0
 35 26  1  0
 23 18  1  0
 34 29  1  0
  3 36  1  0
  4 37  1  0
  4 38  1  0
  8 39  1  0
  8 40  1  0
  9 41  1  0
  9 42  1  0
 10 43  1  0
 10 44  1  0
 11 45  1  6
 12 46  1  0
 12 47  1  0
 13 48  1  0
 15 49  1  0
 16 50  1  0
 19 51  1  0
 20 52  1  0
 21 53  1  0
 22 54  1  0
 23 55  1  0
 24 56  1  0
 25 57  1  0
 27 58  1  0
 28 59  1  0
 30 60  1  0
 31 61  1  0
 32 62  1  0
 33 63  1  0
M  END
>  <smiles>  (7) 
O=C(NCC(=O)N1CCC[C@H]1CNc1ccc(-c2ccccc2)cc1)c1ccc2ccccc2n1

>  <score_type>  (7) 
oracle

>  <origin>  (7) 
autodockgpu

>  <m_score__min__energy>  (7) 
-9.8300000000000001

>  <m_primary>  (7) 
energy

>  <rmsd>  (7) 
8.711784192299593

>  <m_score__min__rmsd>  (7) 
8.711784192299593

>  <meeko>  (7) 
{"free_energy": -8.98, "intermolecular_energy": -11.36, "internal_energy": -3.22, "cluster_size": 7, "cluster_id": 4, "rank_in_cluster": 1}

>  <energy>  (7) 
-9.7

>  <cluster_rmsd>  (7) 
0.49

>  <cluster>  (7) 
2

$$$$

     RDKit          3D

 63 67  0  0  0  0  0  0  0  0999 V2000
  139.9000   74.7280  222.2260 O   0  0  0  0  0  0  0  0  0  0  0  0
  140.6750   75.6830  221.9560 C   0  0  0  0  0  0  0  0  0  0  0  0
  141.8610   75.5230  221.1770 N   0  0  0  0  0  0  0  0  0  0  0  0
  142.1640   74.2070  220.6930 C   0  0  0  0  0  0  0  0  0  0  0  0
  141.1120   73.7280  219.7920 C   0  0  0  0  0  0  0  0  0  0  0  0
  140.3380   74.5630  219.2570 O   0  0  0  0  0  0  0  0  0  0  0  0
  140.9570   72.3480  219.5180 N   0  0  0  0  0  0  0  0  0  0  0  0
  141.8890   71.3070  219.8730 C   0  0  0  0  0  0  0  0  0  0  0  0
  141.3970   70.0220  219.2840 C   0  0  0  0  0  0  0  0  0  0  0  0
  140.3690   70.4680  218.2680 C   0  0  0  0  0  0  0  0  0  0  0  0
  139.8190   71.7240  218.8200 C   0  0  1  0  0  0  0  0  0  0  0  0
  138.7090   71.6010  219.7910 C   0  0  0  0  0  0  0  0  0  0  0  0
  138.9830   72.2170  221.0530 N   0  0  0  0  0  0  0  0  0  0  0  0
  139.2750   71.6010  222.2710 C   0  0  0  0  0  0  0  0  0  0  0  0
  138.5750   70.5700  222.8540 C   0  0  0  0  0  0  0  0  0  0  0  0
  138.9020   70.0040  224.0660 C   0  0  0  0  0  0  0  0  0  0  0  0
  139.9890   70.4620  224.7790 C   0  0  0  0  0  0  0  0  0  0  0  0
  140.3260   69.8580  226.0600 C   0  0  0  0  0  0  0  0  0  0  0  0
  140.2990   68.4710  226.1700 C   0  0  0  0  0  0  0  0  0  0  0  0
  140.6140   67.8390  227.3780 C   0  0  0  0  0  0  0  0  0  0  0  0
  140.9590   68.6180  228.4750 C   0  0  0  0  0  0  0  0  0  0  0  0
  140.9870   70.0100  228.3680 C   0  0  0  0  0  0  0  0  0  0  0  0
  140.6730   70.6380  227.1700 C   0  0  0  0  0  0  0  0  0  0  0  0
  140.7150   71.4950  224.2260 C   0  0  0  0  0  0  0  0  0  0  0  0
  140.3800   72.0550  223.0130 C   0  0  0  0  0  0  0  0  0  0  0  0
  140.3650   77.0190  222.4500 C   0  0  0  0  0  0  0  0  0  0  0  0
  141.3740   77.8920  222.8350 C   0  0  0  0  0  0  0  0  0  0  0  0
  141.0920   79.1670  223.3080 C   0  0  0  0  0  0  0  0  0  0  0  0
  139.7910   79.6150  223.4130 C   0  0  0  0  0  0  0  0  0  0  0  0
  139.4570   80.8720  223.8750 C   0  0  0  0  0  0  0  0  0  0  0  0
  138.1100   81.2110  223.9370 C   0  0  0  0  0  0  0  0  0  0  0  0
  137.1220   80.3190  223.5450 C   0  0  0  0  0  0  0  0  0  0  0  0
  137.4540   79.0460  223.0760 C   0  0  0  0  0  0  0  0  0  0  0  0
  138.8040   78.7200  223.0210 C   0  0  0  0  0  0  0  0  0  0  0  0
  139.1070   77.4850  222.5640 N   0  0  0  0  0  0  0  0  0  0  0  0
  142.4820   76.3560  220.9760 H   0  0  0  0  0  0  0  0  0  0  0  0
  143.1197   74.2342  220.1490 H   0  0  0  0  0  0  0  0  0  0  0  0
  142.2310   73.5227  221.5516 H   0  0  0  0  0  0  0  0  0  0  0  0
  142.8847   71.5447  219.4703 H   0  0  0  0  0  0  0  0  0  0  0  0
  141.9652   71.2204  220.9669 H   0  0  0  0  0  0  0  0  0  0  0  0
  142.2171   69.4731  218.7981 H   0  0  0  0  0  0  0  0  0  0  0  0
  140.9835   69.3364  220.0383 H   0  0  0  0  0  0  0  0  0  0  0  0
  140.8413   70.6474  217.2909 H   0  0  0  0  0  0  0  0  0  0  0  0
  139.5901   69.7091  218.1022 H   0  0  0  0  0  0  0  0  0  0  0  0
  139.3824   72.2880  217.9826 H   0  0  0  0  0  0  0  0  0  0  0  0
  137.8149   72.0746  219.3594 H   0  0  0  0  0  0  0  0  0  0  0  0
  138.5626   70.5274  219.9803 H   0  0  0  0  0  0  0  0  0  0  0  0
  138.9570   73.2830  221.0540 H   0  0  0  0  0  0  0  0  0  0  0  0
  137.6998   70.1732  222.3187 H   0  0  0  0  0  0  0  0  0  0  0  0
  138.2920   69.1814  224.4675 H   0  0  0  0  0  0  0  0  0  0  0  0
  140.0262   67.8629  225.2949 H   0  0  0  0  0  0  0  0  0  0  0  0
  140.5888   66.7422  227.4577 H   0  0  0  0  0  0  0  0  0  0  0  0
  141.2111   68.1367  229.4315 H   0  0  0  0  0  0  0  0  0  0  0  0
  141.2612   70.6166  229.2437 H   0  0  0  0  0  0  0  0  0  0  0  0
  140.6966   71.7351  227.0938 H   0  0  0  0  0  0  0  0  0  0  0  0
  141.5884   71.8840  224.7699 H   0  0  0  0  0  0  0  0  0  0  0  0
  140.9920   72.8777  222.6148 H   0  0  0  0  0  0  0  0  0  0  0  0
  142.4221   77.5658  222.7636 H   0  0  0  0  0  0  0  0  0  0  0  0
  141.9185   79.8300  223.6035 H   0  0  0  0  0  0  0  0  0  0  0  0
  140.2346   81.5855  224.1854 H   0  0  0  0  0  0  0  0  0  0  0  0
  137.8216   82.2069  224.3044 H   0  0  0  0  0  0  0  0  0  0  0  0
  136.0651   80.6179  223.6043 H   0  0  0  0  0  0  0  0  0  0  0  0
  136.6790   78.3309  222.7631 H   0  0  0  0  0  0  0  0  0  0  0  0
  1  2  2  0
  2  3  1  0
  3  4  1  0
  4  5  1  0
  5  6  2  0
  5  7  1  0
  7  8  1  0
  8  9  1  0
  9 10  1  0
 10 11  1  0
 11 12  1  0
 12 13  1  0
 13 14  1  0
 14 15  2  0
 15 16  1  0
 16 17  2  0
 17 18  1  0
 18 19  2  0
 19 20  1  0
 20 21  2  0
 21 22  1  0
 22 23  2  0
 17 24  1  0
 24 25  2  0
  2 26  1  0
 26 27  2  0
 27 28  1  0
 28 29  2  0
 29 30  1  0
 30 31  2  0
 31 32  1  0
 32 33  2  0
 33 34  1  0
 34 35  2  0
 11  7  1  0
 25 14  1  0
 35 26  1  0
 23 18  1  0
 34 29  1  0
  3 36  1  0
  4 37  1  0
  4 38  1  0
  8 39  1  0
  8 40  1  0
  9 41  1  0
  9 42  1  0
 10 43  1  0
 10 44  1  0
 11 45  1  6
 12 46  1  0
 12 47  1  0
 13 48  1  0
 15 49  1  0
 16 50  1  0
 19 51  1  0
 20 52  1  0
 21 53  1  0
 22 54  1  0
 23 55  1  0
 24 56  1  0
 25 57  1  0
 27 58  1  0
 28 59  1  0
 30 60  1  0
 31 61  1  0
 32 62  1  0
 33 63  1  0
M  END
>  <smiles>  (8) 
O=C(NCC(=O)N1CCC[C@H]1CNc1ccc(-c2ccccc2)cc1)c1ccc2ccccc2n1

>  <score_type>  (8) 
oracle

>  <origin>  (8) 
autodockgpu

>  <m_score__min__energy>  (8) 
-9.8300000000000001

>  <m_primary>  (8) 
energy

>  <rmsd>  (8) 
9.014227432759341

>  <m_score__min__rmsd>  (8) 
9.014227432759341

>  <meeko>  (8) 
{"free_energy": -8.52, "intermolecular_energy": -10.91, "internal_energy": -3.08, "cluster_size": 7, "cluster_id": 4, "rank_in_cluster": 5}

>  <energy>  (8) 
-9.44

>  <cluster_rmsd>  (8) 
0.78

>  <cluster>  (8) 
2

$$$$

     RDKit          3D

 63 67  0  0  0  0  0  0  0  0999 V2000
  139.9170   74.2800  221.9680 O   0  0  0  0  0  0  0  0  0  0  0  0
  140.7920   75.1760  221.8410 C   0  0  0  0  0  0  0  0  0  0  0  0
  142.0810   74.9280  221.2770 N   0  0  0  0  0  0  0  0  0  0  0  0
  142.3700   73.5900  220.8470 C   0  0  0  0  0  0  0  0  0  0  0  0
  143.2010   73.5990  219.6390 C   0  0  0  0  0  0  0  0  0  0  0  0
  144.3960   73.9840  219.7210 O   0  0  0  0  0  0  0  0  0  0  0  0
  142.6790   73.1840  218.3910 N   0  0  0  0  0  0  0  0  0  0  0  0
  141.3690   72.6270  218.1660 C   0  0  0  0  0  0  0  0  0  0  0  0
  141.2790   72.2110  216.7310 C   0  0  0  0  0  0  0  0  0  0  0  0
  142.7210   72.2030  216.2750 C   0  0  0  0  0  0  0  0  0  0  0  0
  143.3790   73.2410  217.0950 C   0  0  1  0  0  0  0  0  0  0  0  0
  143.2990   74.6350  216.6040 C   0  0  0  0  0  0  0  0  0  0  0  0
  143.7300   75.6050  217.5620 N   0  0  0  0  0  0  0  0  0  0  0  0
  143.0670   76.7590  217.9840 C   0  0  0  0  0  0  0  0  0  0  0  0
  142.6080   77.7770  217.1800 C   0  0  0  0  0  0  0  0  0  0  0  0
  141.9670   78.9010  217.6490 C   0  0  0  0  0  0  0  0  0  0  0  0
  141.7480   79.0660  219.0000 C   0  0  0  0  0  0  0  0  0  0  0  0
  141.0710   80.2590  219.4870 C   0  0  0  0  0  0  0  0  0  0  0  0
  141.8220   81.2350  220.1360 C   0  0  0  0  0  0  0  0  0  0  0  0
  141.2220   82.4000  220.6230 C   0  0  0  0  0  0  0  0  0  0  0  0
  139.8550   82.5750  220.4500 C   0  0  0  0  0  0  0  0  0  0  0  0
  139.0970   81.5990  219.8000 C   0  0  0  0  0  0  0  0  0  0  0  0
  139.6930   80.4420  219.3170 C   0  0  0  0  0  0  0  0  0  0  0  0
  142.1940   78.0660  219.8370 C   0  0  0  0  0  0  0  0  0  0  0  0
  142.8350   76.9450  219.3580 C   0  0  0  0  0  0  0  0  0  0  0  0
  140.4960   76.5340  222.2790 C   0  0  0  0  0  0  0  0  0  0  0  0
  139.1850   76.9780  222.3980 C   0  0  0  0  0  0  0  0  0  0  0  0
  138.8890   78.2700  222.8140 C   0  0  0  0  0  0  0  0  0  0  0  0
  139.8930   79.1640  223.1260 C   0  0  0  0  0  0  0  0  0  0  0  0
  139.6540   80.4570  223.5440 C   0  0  0  0  0  0  0  0  0  0  0  0
  140.7470   81.2660  223.8300 C   0  0  0  0  0  0  0  0  0  0  0  0
  142.0470   80.7960  223.7030 C   0  0  0  0  0  0  0  0  0  0  0  0
  142.2960   79.4880  223.2810 C   0  0  0  0  0  0  0  0  0  0  0  0
  141.1930   78.6910  222.9980 C   0  0  0  0  0  0  0  0  0  0  0  0
  141.4520   77.4290  222.5910 N   0  0  0  0  0  0  0  0  0  0  0  0
  142.7840   75.7130  221.1900 H   0  0  0  0  0  0  0  0  0  0  0  0
  142.9056   73.0612  221.6492 H   0  0  0  0  0  0  0  0  0  0  0  0
  141.4221   73.0806  220.6189 H   0  0  0  0  0  0  0  0  0  0  0  0
  141.2187   71.7534  218.8173 H   0  0  0  0  0  0  0  0  0  0  0  0
  140.5939   73.3732  218.3951 H   0  0  0  0  0  0  0  0  0  0  0  0
  140.8319   71.2102  216.6390 H   0  0  0  0  0  0  0  0  0  0  0  0
  140.6433   72.8782  216.1304 H   0  0  0  0  0  0  0  0  0  0  0  0
  143.1790   71.2190  216.4539 H   0  0  0  0  0  0  0  0  0  0  0  0
  142.8179   72.4004  215.1972 H   0  0  0  0  0  0  0  0  0  0  0  0
  144.4564   73.0192  217.1033 H   0  0  0  0  0  0  0  0  0  0  0  0
  143.9319   74.7253  215.7089 H   0  0  0  0  0  0  0  0  0  0  0  0
  142.2399   74.8414  216.3901 H   0  0  0  0  0  0  0  0  0  0  0  0
  144.6810   75.4150  218.0060 H   0  0  0  0  0  0  0  0  0  0  0  0
  142.7631   77.6868  216.0947 H   0  0  0  0  0  0  0  0  0  0  0  0
  141.6275   79.6721  216.9418 H   0  0  0  0  0  0  0  0  0  0  0  0
  142.9041   81.0873  220.2677 H   0  0  0  0  0  0  0  0  0  0  0  0
  141.8230   83.1659  221.1351 H   0  0  0  0  0  0  0  0  0  0  0  0
  139.3675   83.4863  220.8266 H   0  0  0  0  0  0  0  0  0  0  0  0
  138.0151   81.7486  219.6691 H   0  0  0  0  0  0  0  0  0  0  0  0
  139.0894   79.6772  218.8063 H   0  0  0  0  0  0  0  0  0  0  0  0
  142.0331   78.1662  220.9206 H   0  0  0  0  0  0  0  0  0  0  0  0
  143.1738   76.1762  220.0681 H   0  0  0  0  0  0  0  0  0  0  0  0
  138.3614   76.2899  222.1570 H   0  0  0  0  0  0  0  0  0  0  0  0
  137.8383   78.5853  222.8959 H   0  0  0  0  0  0  0  0  0  0  0  0
  138.6269   80.8368  223.6480 H   0  0  0  0  0  0  0  0  0  0  0  0
  140.5786   82.3004  224.1640 H   0  0  0  0  0  0  0  0  0  0  0  0
  142.8909   81.4615  223.9375 H   0  0  0  0  0  0  0  0  0  0  0  0
  143.3218   79.1048  223.1770 H   0  0  0  0  0  0  0  0  0  0  0  0
  1  2  2  0
  2  3  1  0
  3  4  1  0
  4  5  1  0
  5  6  2  0
  5  7  1  0
  7  8  1  0
  8  9  1  0
  9 10  1  0
 10 11  1  0
 11 12  1  0
 12 13  1  0
 13 14  1  0
 14 15  2  0
 15 16  1  0
 16 17  2  0
 17 18  1  0
 18 19  2  0
 19 20  1  0
 20 21  2  0
 21 22  1  0
 22 23  2  0
 17 24  1  0
 24 25  2  0
  2 26  1  0
 26 27  2  0
 27 28  1  0
 28 29  2  0
 29 30  1  0
 30 31  2  0
 31 32  1  0
 32 33  2  0
 33 34  1  0
 34 35  2  0
 11  7  1  0
 25 14  1  0
 35 26  1  0
 23 18  1  0
 34 29  1  0
  3 36  1  0
  4 37  1  0
  4 38  1  0
  8 39  1  0
  8 40  1  0
  9 41  1  0
  9 42  1  0
 10 43  1  0
 10 44  1  0
 11 45  1  1
 12 46  1  0
 12 47  1  0
 13 48  1  0
 15 49  1  0
 16 50  1  0
 19 51  1  0
 20 52  1  0
 21 53  1  0
 22 54  1  0
 23 55  1  0
 24 56  1  0
 25 57  1  0
 27 58  1  0
 28 59  1  0
 30 60  1  0
 31 61  1  0
 32 62  1  0
 33 63  1  0
M  END
>  <smiles>  (9) 
O=C(NCC(=O)N1CCC[C@H]1CNc1ccc(-c2ccccc2)cc1)c1ccc2ccccc2n1

>  <score_type>  (9) 
oracle

>  <origin>  (9) 
autodockgpu

>  <m_score__min__energy>  (9) 
-9.8300000000000001

>  <m_primary>  (9) 
energy

>  <rmsd>  (9) 
6.780944300662952

>  <m_score__min__rmsd>  (9) 
6.780944300662952

>  <meeko>  (9) 
{"free_energy": -6.99, "intermolecular_energy": -9.38, "internal_energy": -4.54, "cluster_size": 10, "cluster_id": 7, "rank_in_cluster": 10}

>  <energy>  (9) 
-9.28

>  <cluster_rmsd>  (9) 
0.8

>  <cluster>  (9) 
2

$$$$

     RDKit          3D

 63 67  0  0  0  0  0  0  0  0999 V2000
  139.3650   74.4620  221.8540 O   0  0  0  0  0  0  0  0  0  0  0  0
  140.5160   74.9390  221.6760 C   0  0  0  0  0  0  0  0  0  0  0  0
  140.8390   76.3060  221.9360 N   0  0  0  0  0  0  0  0  0  0  0  0
  139.7880   77.1550  222.4200 C   0  0  0  0  0  0  0  0  0  0  0  0
  139.9280   78.5140  221.8880 C   0  0  0  0  0  0  0  0  0  0  0  0
  139.0970   78.9270  221.0400 O   0  0  0  0  0  0  0  0  0  0  0  0
  140.9790   79.3600  222.3150 N   0  0  0  0  0  0  0  0  0  0  0  0
  142.0890   78.9740  223.1500 C   0  0  0  0  0  0  0  0  0  0  0  0
  142.8890   80.2000  223.4580 C   0  0  0  0  0  0  0  0  0  0  0  0
  141.9590   81.3330  223.0820 C   0  0  0  0  0  0  0  0  0  0  0  0
  141.1310   80.7890  221.9860 C   0  0  1  0  0  0  0  0  0  0  0  0
  141.6870   80.8770  220.6170 C   0  0  0  0  0  0  0  0  0  0  0  0
  141.1470   79.9050  219.7160 N   0  0  0  0  0  0  0  0  0  0  0  0
  141.8060   78.8490  219.0860 C   0  0  0  0  0  0  0  0  0  0  0  0
  142.2210   77.6770  219.6760 C   0  0  0  0  0  0  0  0  0  0  0  0
  142.8770   76.6670  219.0080 C   0  0  0  0  0  0  0  0  0  0  0  0
  143.1600   76.7900  217.6650 C   0  0  0  0  0  0  0  0  0  0  0  0
  143.8560   75.7170  216.9670 C   0  0  0  0  0  0  0  0  0  0  0  0
  143.6580   74.4070  217.3920 C   0  0  0  0  0  0  0  0  0  0  0  0
  144.3010   73.3390  216.7580 C   0  0  0  0  0  0  0  0  0  0  0  0
  145.1470   73.6040  215.6880 C   0  0  0  0  0  0  0  0  0  0  0  0
  145.3480   74.9170  215.2590 C   0  0  0  0  0  0  0  0  0  0  0  0
  144.7100   75.9770  215.8890 C   0  0  0  0  0  0  0  0  0  0  0  0
  142.7600   77.9510  217.0390 C   0  0  0  0  0  0  0  0  0  0  0  0
  142.1050   78.9550  217.7160 C   0  0  0  0  0  0  0  0  0  0  0  0
  141.5810   74.0740  221.1830 C   0  0  0  0  0  0  0  0  0  0  0  0
  141.3210   72.7660  220.7970 C   0  0  0  0  0  0  0  0  0  0  0  0
  142.3270   71.9320  220.3270 C   0  0  0  0  0  0  0  0  0  0  0  0
  143.6300   72.3760  220.2270 C   0  0  0  0  0  0  0  0  0  0  0  0
  144.6660   71.5890  219.7670 C   0  0  0  0  0  0  0  0  0  0  0  0
  145.9380   72.1470  219.7110 C   0  0  0  0  0  0  0  0  0  0  0  0
  146.1700   73.4570  220.1030 C   0  0  0  0  0  0  0  0  0  0  0  0
  145.1250   74.2590  220.5690 C   0  0  0  0  0  0  0  0  0  0  0  0
  143.8590   73.6880  220.6210 C   0  0  0  0  0  0  0  0  0  0  0  0
  142.8610   74.4770  221.0740 N   0  0  0  0  0  0  0  0  0  0  0  0
  141.8210   76.6610  221.7710 H   0  0  0  0  0  0  0  0  0  0  0  0
  138.8180   76.7429  222.1051 H   0  0  0  0  0  0  0  0  0  0  0  0
  139.8481   77.1987  223.5175 H   0  0  0  0  0  0  0  0  0  0  0  0
  141.7155   78.5284  224.0838 H   0  0  0  0  0  0  0  0  0  0  0  0
  142.7144   78.2316  222.6325 H   0  0  0  0  0  0  0  0  0  0  0  0
  143.1482   80.2422  224.5262 H   0  0  0  0  0  0  0  0  0  0  0  0
  143.8460   80.2340  222.9168 H   0  0  0  0  0  0  0  0  0  0  0  0
  141.3303   81.6194  223.9380 H   0  0  0  0  0  0  0  0  0  0  0  0
  142.5060   82.2386  222.7809 H   0  0  0  0  0  0  0  0  0  0  0  0
  140.2096   81.3882  221.9416 H   0  0  0  0  0  0  0  0  0  0  0  0
  141.4713   81.8790  220.2177 H   0  0  0  0  0  0  0  0  0  0  0  0
  142.7666   80.6810  220.6940 H   0  0  0  0  0  0  0  0  0  0  0  0
  140.1070   80.0110  219.5040 H   0  0  0  0  0  0  0  0  0  0  0  0
  142.0160   77.5383  220.7478 H   0  0  0  0  0  0  0  0  0  0  0  0
  143.1766   75.7575  219.5493 H   0  0  0  0  0  0  0  0  0  0  0  0
  142.9855   74.2083  218.2395 H   0  0  0  0  0  0  0  0  0  0  0  0
  144.1397   72.3063  217.1007 H   0  0  0  0  0  0  0  0  0  0  0  0
  145.6602   72.7760  215.1771 H   0  0  0  0  0  0  0  0  0  0  0  0
  146.0204   75.1144  214.4111 H   0  0  0  0  0  0  0  0  0  0  0  0
  144.8738   77.0089  215.5450 H   0  0  0  0  0  0  0  0  0  0  0  0
  142.9703   78.0791  215.9669 H   0  0  0  0  0  0  0  0  0  0  0  0
  141.8079   79.8634  217.1713 H   0  0  0  0  0  0  0  0  0  0  0  0
  140.2929   72.3808  220.8651 H   0  0  0  0  0  0  0  0  0  0  0  0
  142.0816   70.9017  220.0298 H   0  0  0  0  0  0  0  0  0  0  0  0
  144.4903   70.5494  219.4535 H   0  0  0  0  0  0  0  0  0  0  0  0
  146.7782   71.5367  219.3482 H   0  0  0  0  0  0  0  0  0  0  0  0
  147.1882   73.8693  220.0464 H   0  0  0  0  0  0  0  0  0  0  0  0
  145.2973   75.2994  220.8818 H   0  0  0  0  0  0  0  0  0  0  0  0
  1  2  2  0
  2  3  1  0
  3  4  1  0
  4  5  1  0
  5  6  2  0
  5  7  1  0
  7  8  1  0
  8  9  1  0
  9 10  1  0
 10 11  1  0
 11 12  1  0
 12 13  1  0
 13 14  1  0
 14 15  2  0
 15 16  1  0
 16 17  2  0
 17 18  1  0
 18 19  2  0
 19 20  1  0
 20 21  2  0
 21 22  1  0
 22 23  2  0
 17 24  1  0
 24 25  2  0
  2 26  1  0
 26 27  2  0
 27 28  1  0
 28 29  2  0
 29 30  1  0
 30 31  2  0
 31 32  1  0
 32 33  2  0
 33 34  1  0
 34 35  2  0
 11  7  1  0
 25 14  1  0
 35 26  1  0
 23 18  1  0
 34 29  1  0
  3 36  1  0
  4 37  1  0
  4 38  1  0
  8 39  1  0
  8 40  1  0
  9 41  1  0
  9 42  1  0
 10 43  1  0
 10 44  1  0
 11 45  1  6
 12 46  1  0
 12 47  1  0
 13 48  1  0
 15 49  1  0
 16 50  1  0
 19 51  1  0
 20 52  1  0
 21 53  1  0
 22 54  1  0
 23 55  1  0
 24 56  1  0
 25 57  1  0
 27 58  1  0
 28 59  1  0
 30 60  1  0
 31 61  1  0
 32 62  1  0
 33 63  1  0
M  END
>  <smiles>  (10) 
O=C(NCC(=O)N1CCC[C@H]1CNc1ccc(-c2ccccc2)cc1)c1ccc2ccccc2n1

>  <score_type>  (10) 
oracle

>  <origin>  (10) 
autodockgpu

>  <m_score__min__energy>  (10) 
-9.8300000000000001

>  <m_primary>  (10) 
energy

>  <rmsd>  (10) 
6.705913052897481

>  <m_score__min__rmsd>  (10) 
6.705913052897481

>  <meeko>  (10) 
{"free_energy": -7.52, "intermolecular_energy": -9.91, "internal_energy": -4.28, "cluster_size": 3, "cluster_id": 9, "rank_in_cluster": 2}

>  <energy>  (10) 
-9.16

>  <cluster_rmsd>  (10) 
1.18

>  <cluster>  (10) 
2

$$$$

     RDKit          3D

 63 67  0  0  0  0  0  0  0  0999 V2000
  139.4080   74.4830  221.9680 O   0  0  0  0  0  0  0  0  0  0  0  0
  140.5620   74.9540  221.7930 C   0  0  0  0  0  0  0  0  0  0  0  0
  140.9020   76.3080  222.0980 N   0  0  0  0  0  0  0  0  0  0  0  0
  139.8660   77.1490  222.6250 C   0  0  0  0  0  0  0  0  0  0  0  0
  139.9620   78.5030  222.0710 C   0  0  0  0  0  0  0  0  0  0  0  0
  139.1090   78.8790  221.2260 O   0  0  0  0  0  0  0  0  0  0  0  0
  140.9930   79.3850  222.4720 N   0  0  0  0  0  0  0  0  0  0  0  0
  142.0540   79.0790  223.3980 C   0  0  0  0  0  0  0  0  0  0  0  0
  142.8430   80.3280  223.6320 C   0  0  0  0  0  0  0  0  0  0  0  0
  141.9410   81.4210  223.1020 C   0  0  0  0  0  0  0  0  0  0  0  0
  141.1690   80.7760  222.0190 C   0  0  1  0  0  0  0  0  0  0  0  0
  141.7980   80.7360  220.6800 C   0  0  0  0  0  0  0  0  0  0  0  0
  141.2560   79.7270  219.8230 N   0  0  0  0  0  0  0  0  0  0  0  0
  141.9270   78.6940  219.1670 C   0  0  0  0  0  0  0  0  0  0  0  0
  142.3160   77.4950  219.7180 C   0  0  0  0  0  0  0  0  0  0  0  0
  142.9860   76.5100  219.0270 C   0  0  0  0  0  0  0  0  0  0  0  0
  143.3120   76.6890  217.7000 C   0  0  0  0  0  0  0  0  0  0  0  0
  144.0230   75.6430  216.9780 C   0  0  0  0  0  0  0  0  0  0  0  0
  144.7790   75.9970  215.8640 C   0  0  0  0  0  0  0  0  0  0  0  0
  145.4810   75.0330  215.1340 C   0  0  0  0  0  0  0  0  0  0  0  0
  145.4150   73.7050  215.5380 C   0  0  0  0  0  0  0  0  0  0  0  0
  144.6580   73.3450  216.6540 C   0  0  0  0  0  0  0  0  0  0  0  0
  143.9600   74.3030  217.3780 C   0  0  0  0  0  0  0  0  0  0  0  0
  142.9380   77.8790  217.1140 C   0  0  0  0  0  0  0  0  0  0  0  0
  142.2680   78.8580  217.8130 C   0  0  0  0  0  0  0  0  0  0  0  0
  141.6120   74.0970  221.2570 C   0  0  0  0  0  0  0  0  0  0  0  0
  141.3280   72.8170  220.7970 C   0  0  0  0  0  0  0  0  0  0  0  0
  142.3190   71.9910  220.2860 C   0  0  0  0  0  0  0  0  0  0  0  0
  143.6310   72.4130  220.2160 C   0  0  0  0  0  0  0  0  0  0  0  0
  144.6540   71.6320  219.7170 C   0  0  0  0  0  0  0  0  0  0  0  0
  145.9370   72.1660  219.6970 C   0  0  0  0  0  0  0  0  0  0  0  0
  146.1930   73.4480  220.1640 C   0  0  0  0  0  0  0  0  0  0  0  0
  145.1630   74.2430  220.6690 C   0  0  0  0  0  0  0  0  0  0  0  0
  143.8850   73.6960  220.6840 C   0  0  0  0  0  0  0  0  0  0  0  0
  142.9000   74.4790  221.1760 N   0  0  0  0  0  0  0  0  0  0  0  0
  141.8860   76.6580  221.9340 H   0  0  0  0  0  0  0  0  0  0  0  0
  138.8867   76.7213  222.3641 H   0  0  0  0  0  0  0  0  0  0  0  0
  139.9802   77.2063  223.7176 H   0  0  0  0  0  0  0  0  0  0  0  0
  141.6284   78.7236  224.3480 H   0  0  0  0  0  0  0  0  0  0  0  0
  142.7021   78.2909  222.9871 H   0  0  0  0  0  0  0  0  0  0  0  0
  143.0449   80.4703  224.7039 H   0  0  0  0  0  0  0  0  0  0  0  0
  143.8277   80.3105  223.1421 H   0  0  0  0  0  0  0  0  0  0  0  0
  141.2694   81.7873  223.8924 H   0  0  0  0  0  0  0  0  0  0  0  0
  142.5083   82.2939  222.7467 H   0  0  0  0  0  0  0  0  0  0  0  0
  140.2536   81.3673  221.8693 H   0  0  0  0  0  0  0  0  0  0  0  0
  141.6546   81.7148  220.1989 H   0  0  0  0  0  0  0  0  0  0  0  0
  142.8609   80.4954  220.8297 H   0  0  0  0  0  0  0  0  0  0  0  0
  140.2010   79.7800  219.6710 H   0  0  0  0  0  0  0  0  0  0  0  0
  142.0771   77.3117  220.7760 H   0  0  0  0  0  0  0  0  0  0  0  0
  143.2624   75.5754  219.5370 H   0  0  0  0  0  0  0  0  0  0  0  0
  144.8248   77.0512  215.5533 H   0  0  0  0  0  0  0  0  0  0  0  0
  146.0756   75.3210  214.2545 H   0  0  0  0  0  0  0  0  0  0  0  0
  145.9619   72.9339  214.9756 H   0  0  0  0  0  0  0  0  0  0  0  0
  144.6137   72.2904  216.9637 H   0  0  0  0  0  0  0  0  0  0  0  0
  143.3644   74.0120  218.2558 H   0  0  0  0  0  0  0  0  0  0  0  0
  143.1822   78.0520  216.0555 H   0  0  0  0  0  0  0  0  0  0  0  0
  141.9929   79.7911  217.2995 H   0  0  0  0  0  0  0  0  0  0  0  0
  140.2921   72.4494  220.8389 H   0  0  0  0  0  0  0  0  0  0  0  0
  142.0546   70.9839  219.9311 H   0  0  0  0  0  0  0  0  0  0  0  0
  144.4592   70.6152  219.3455 H   0  0  0  0  0  0  0  0  0  0  0  0
  146.7665   71.5604  219.3031 H   0  0  0  0  0  0  0  0  0  0  0  0
  147.2197   73.8419  220.1357 H   0  0  0  0  0  0  0  0  0  0  0  0
  145.3546   75.2607  221.0400 H   0  0  0  0  0  0  0  0  0  0  0  0
  1  2  2  0
  2  3  1  0
  3  4  1  0
  4  5  1  0
  5  6  2  0
  5  7  1  0
  7  8  1  0
  8  9  1  0
  9 10  1  0
 10 11  1  0
 11 12  1  0
 12 13  1  0
 13 14  1  0
 14 15  2  0
 15 16  1  0
 16 17  2  0
 17 18  1  0
 18 19  2  0
 19 20  1  0
 20 21  2  0
 21 22  1  0
 22 23  2  0
 17 24  1  0
 24 25  2  0
  2 26  1  0
 26 27  2  0
 27 28  1  0
 28 29  2  0
 29 30  1  0
 30 31  2  0
 31 32  1  0
 32 33  2  0
 33 34  1  0
 34 35  2  0
 11  7  1  0
 25 14  1  0
 35 26  1  0
 23 18  1  0
 34 29  1  0
  3 36  1  0
  4 37  1  0
  4 38  1  0
  8 39  1  0
  8 40  1  0
  9 41  1  0
  9 42  1  0
 10 43  1  0
 10 44  1  0
 11 45  1  6
 12 46  1  0
 12 47  1  0
 13 48  1  0
 15 49  1  0
 16 50  1  0
 19 51  1  0
 20 52  1  0
 21 53  1  0
 22 54  1  0
 23 55  1  0
 24 56  1  0
 25 57  1  0
 27 58  1  0
 28 59  1  0
 30 60  1  0
 31 61  1  0
 32 62  1  0
 33 63  1  0
M  END
>  <smiles>  (11) 
O=C(NCC(=O)N1CCC[C@H]1CNc1ccc(-c2ccccc2)cc1)c1ccc2ccccc2n1

>  <score_type>  (11) 
oracle

>  <origin>  (11) 
autodockgpu

>  <m_score__min__energy>  (11) 
-9.8300000000000001

>  <m_primary>  (11) 
energy

>  <rmsd>  (11) 
6.792392754302355

>  <m_score__min__rmsd>  (11) 
6.792392754302355

>  <meeko>  (11) 
{"free_energy": -7.54, "intermolecular_energy": -9.92, "internal_energy": -4.29, "cluster_size": 3, "cluster_id": 9, "rank_in_cluster": 1}

>  <energy>  (11) 
-8.92

>  <cluster_rmsd>  (11) 
1.03

>  <cluster>  (11) 
2

$$$$

     RDKit          3D

 63 67  0  0  0  0  0  0  0  0999 V2000
  137.3160   71.8740  223.2150 O   0  0  0  0  0  0  0  0  0  0  0  0
  137.9020   70.7720  223.0540 C   0  0  0  0  0  0  0  0  0  0  0  0
  137.9660   70.1030  221.7930 N   0  0  0  0  0  0  0  0  0  0  0  0
  137.3260   70.7340  220.6750 C   0  0  0  0  0  0  0  0  0  0  0  0
  137.8250   72.1000  220.4910 C   0  0  0  0  0  0  0  0  0  0  0  0
  137.0070   73.0560  220.4950 O   0  0  0  0  0  0  0  0  0  0  0  0
  139.2050   72.3550  220.3090 N   0  0  0  0  0  0  0  0  0  0  0  0
  139.7890   73.1150  219.2320 C   0  0  0  0  0  0  0  0  0  0  0  0
  141.2780   73.0280  219.3550 C   0  0  0  0  0  0  0  0  0  0  0  0
  141.4880   71.8740  220.3100 C   0  0  0  0  0  0  0  0  0  0  0  0
  140.2960   71.8910  221.1840 C   0  0  1  0  0  0  0  0  0  0  0  0
  140.3400   72.7880  222.3610 C   0  0  0  0  0  0  0  0  0  0  0  0
  139.3700   73.8390  222.3150 N   0  0  0  0  0  0  0  0  0  0  0  0
  139.5860   75.2180  222.3410 C   0  0  0  0  0  0  0  0  0  0  0  0
  138.6750   76.1790  222.7130 C   0  0  0  0  0  0  0  0  0  0  0  0
  138.9370   77.5310  222.7120 C   0  0  0  0  0  0  0  0  0  0  0  0
  140.1720   78.0020  222.3220 C   0  0  0  0  0  0  0  0  0  0  0  0
  140.4400   79.4330  222.3220 C   0  0  0  0  0  0  0  0  0  0  0  0
  141.7010   79.8760  222.7100 C   0  0  0  0  0  0  0  0  0  0  0  0
  142.0110   81.2390  222.7280 C   0  0  0  0  0  0  0  0  0  0  0  0
  141.0370   82.1550  222.3510 C   0  0  0  0  0  0  0  0  0  0  0  0
  139.7700   81.7150  221.9620 C   0  0  0  0  0  0  0  0  0  0  0  0
  139.4620   80.3620  221.9440 C   0  0  0  0  0  0  0  0  0  0  0  0
  141.1110   77.0670  221.9420 C   0  0  0  0  0  0  0  0  0  0  0  0
  140.8400   75.7170  221.9460 C   0  0  0  0  0  0  0  0  0  0  0  0
  138.5510   70.1330  224.1920 C   0  0  0  0  0  0  0  0  0  0  0  0
  138.5160   68.7540  224.3550 C   0  0  0  0  0  0  0  0  0  0  0  0
  139.1300   68.1330  225.4350 C   0  0  0  0  0  0  0  0  0  0  0  0
  139.8010   68.8680  226.3910 C   0  0  0  0  0  0  0  0  0  0  0  0
  140.4270   68.3010  227.4820 C   0  0  0  0  0  0  0  0  0  0  0  0
  141.0720   69.1440  228.3790 C   0  0  0  0  0  0  0  0  0  0  0  0
  141.0920   70.5200  228.1920 C   0  0  0  0  0  0  0  0  0  0  0  0
  140.4600   71.0990  227.0890 C   0  0  0  0  0  0  0  0  0  0  0  0
  139.8180   70.2440  226.2010 C   0  0  0  0  0  0  0  0  0  0  0  0
  139.2130   70.8210  225.1410 N   0  0  0  0  0  0  0  0  0  0  0  0
  138.4710   69.1780  221.7070 H   0  0  0  0  0  0  0  0  0  0  0  0
  137.5308   70.1499  219.7657 H   0  0  0  0  0  0  0  0  0  0  0  0
  136.2438   70.7774  220.8673 H   0  0  0  0  0  0  0  0  0  0  0  0
  139.4698   72.6978  218.2655 H   0  0  0  0  0  0  0  0  0  0  0  0
  139.4630   74.1642  219.2857 H   0  0  0  0  0  0  0  0  0  0  0  0
  141.7414   72.8199  218.3793 H   0  0  0  0  0  0  0  0  0  0  0  0
  141.7335   73.9646  219.7089 H   0  0  0  0  0  0  0  0  0  0  0  0
  141.5535   70.9229  219.7612 H   0  0  0  0  0  0  0  0  0  0  0  0
  142.4241   71.9693  220.8797 H   0  0  0  0  0  0  0  0  0  0  0  0
  140.1901   70.8848  221.6157 H   0  0  0  0  0  0  0  0  0  0  0  0
  140.1589   72.1865  223.2640 H   0  0  0  0  0  0  0  0  0  0  0  0
  141.3318   73.2636  222.3681 H   0  0  0  0  0  0  0  0  0  0  0  0
  138.3550   73.5180  222.2550 H   0  0  0  0  0  0  0  0  0  0  0  0
  137.6756   75.8472  223.0309 H   0  0  0  0  0  0  0  0  0  0  0  0
  138.1556   78.2394  223.0245 H   0  0  0  0  0  0  0  0  0  0  0  0
  142.4652   79.1426  223.0070 H   0  0  0  0  0  0  0  0  0  0  0  0
  143.0102   81.5808  223.0358 H   0  0  0  0  0  0  0  0  0  0  0  0
  141.2647   83.2312  222.3589 H   0  0  0  0  0  0  0  0  0  0  0  0
  139.0068   82.4499  221.6663 H   0  0  0  0  0  0  0  0  0  0  0  0
  138.4617   80.0230  221.6365 H   0  0  0  0  0  0  0  0  0  0  0  0
  142.1072   77.4099  221.6259 H   0  0  0  0  0  0  0  0  0  0  0  0
  141.6236   75.0116  221.6325 H   0  0  0  0  0  0  0  0  0  0  0  0
  137.9892   68.1388  223.6106 H   0  0  0  0  0  0  0  0  0  0  0  0
  139.0807   67.0382  225.5298 H   0  0  0  0  0  0  0  0  0  0  0  0
  140.4159   67.2121  227.6375 H   0  0  0  0  0  0  0  0  0  0  0  0
  141.5773   68.7123  229.2555 H   0  0  0  0  0  0  0  0  0  0  0  0
  141.6110   71.1607  228.9201 H   0  0  0  0  0  0  0  0  0  0  0  0
  140.4700   72.1874  226.9297 H   0  0  0  0  0  0  0  0  0  0  0  0
  1  2  2  0
  2  3  1  0
  3  4  1  0
  4  5  1  0
  5  6  2  0
  5  7  1  0
  7  8  1  0
  8  9  1  0
  9 10  1  0
 10 11  1  0
 11 12  1  0
 12 13  1  0
 13 14  1  0
 14 15  2  0
 15 16  1  0
 16 17  2  0
 17 18  1  0
 18 19  2  0
 19 20  1  0
 20 21  2  0
 21 22  1  0
 22 23  2  0
 17 24  1  0
 24 25  2  0
  2 26  1  0
 26 27  2  0
 27 28  1  0
 28 29  2  0
 29 30  1  0
 30 31  2  0
 31 32  1  0
 32 33  2  0
 33 34  1  0
 34 35  2  0
 11  7  1  0
 25 14  1  0
 35 26  1  0
 23 18  1  0
 34 29  1  0
  3 36  1  0
  4 37  1  0
  4 38  1  0
  8 39  1  0
  8 40  1  0
  9 41  1  0
  9 42  1  0
 10 43  1  0
 10 44  1  0
 11 45  1  1
 12 46  1  0
 12 47  1  0
 13 48  1  0
 15 49  1  0
 16 50  1  0
 19 51  1  0
 20 52  1  0
 21 53  1  0
 22 54  1  0
 23 55  1  0
 24 56  1  0
 25 57  1  0
 27 58  1  0
 28 59  1  0
 30 60  1  0
 31 61  1  0
 32 62  1  0
 33 63  1  0
M  END
>  <smiles>  (12) 
O=C(NCC(=O)N1CCC[C@H]1CNc1ccc(-c2ccccc2)cc1)c1ccc2ccccc2n1

>  <score_type>  (12) 
oracle

>  <origin>  (12) 
autodockgpu

>  <m_score__min__energy>  (12) 
-9.8300000000000001

>  <m_primary>  (12) 
energy

>  <rmsd>  (12) 
3.727270371215566

>  <m_score__min__rmsd>  (12) 
3.727270371215566

>  <meeko>  (12) 
{"free_energy": -7.66, "intermolecular_energy": -10.05, "internal_energy": -3.48, "cluster_size": 12, "cluster_id": 3, "rank_in_cluster": 12}

>  <energy>  (12) 
-9.16

>  <cluster_rmsd>  (12) 
0.0

>  <cluster>  (12) 
3

$$$$

     RDKit          3D

 63 67  0  0  0  0  0  0  0  0999 V2000
  140.5410   71.0560  221.3230 O   0  0  0  0  0  0  0  0  0  0  0  0
  140.1910   71.6900  222.3520 C   0  0  0  0  0  0  0  0  0  0  0  0
  139.8640   73.0810  222.3330 N   0  0  0  0  0  0  0  0  0  0  0  0
  139.9490   73.7650  221.0740 C   0  0  0  0  0  0  0  0  0  0  0  0
  140.2080   75.1940  221.2730 C   0  0  0  0  0  0  0  0  0  0  0  0
  140.0070   75.7000  222.4080 O   0  0  0  0  0  0  0  0  0  0  0  0
  140.6770   76.0060  220.2140 N   0  0  0  0  0  0  0  0  0  0  0  0
  140.2280   77.3420  219.9110 C   0  0  0  0  0  0  0  0  0  0  0  0
  140.8890   77.7800  218.6420 C   0  0  0  0  0  0  0  0  0  0  0  0
  141.4160   76.4890  218.0550 C   0  0  0  0  0  0  0  0  0  0  0  0
  141.7050   75.6350  219.2260 C   0  0  1  0  0  0  0  0  0  0  0  0
  143.0270   75.8050  219.8700 C   0  0  0  0  0  0  0  0  0  0  0  0
  144.0600   75.0150  219.2740 N   0  0  0  0  0  0  0  0  0  0  0  0
  144.2290   73.6300  219.3250 C   0  0  0  0  0  0  0  0  0  0  0  0
  143.8250   72.7960  220.3420 C   0  0  0  0  0  0  0  0  0  0  0  0
  144.0260   71.4340  220.3470 C   0  0  0  0  0  0  0  0  0  0  0  0
  144.6660   70.8190  219.2920 C   0  0  0  0  0  0  0  0  0  0  0  0
  144.8740   69.3780  219.3070 C   0  0  0  0  0  0  0  0  0  0  0  0
  143.7610   68.5430  219.3080 C   0  0  0  0  0  0  0  0  0  0  0  0
  143.9040   67.1520  219.3220 C   0  0  0  0  0  0  0  0  0  0  0  0
  145.1830   66.6080  219.3340 C   0  0  0  0  0  0  0  0  0  0  0  0
  146.3020   67.4420  219.3320 C   0  0  0  0  0  0  0  0  0  0  0  0
  146.1600   68.8230  219.3190 C   0  0  0  0  0  0  0  0  0  0  0  0
  145.0840   71.6240  218.2550 C   0  0  0  0  0  0  0  0  0  0  0  0
  144.8800   72.9860  218.2590 C   0  0  0  0  0  0  0  0  0  0  0  0
  140.1060   70.9930  223.6290 C   0  0  0  0  0  0  0  0  0  0  0  0
  139.5380   69.7290  223.7190 C   0  0  0  0  0  0  0  0  0  0  0  0
  139.4500   69.0540  224.9300 C   0  0  0  0  0  0  0  0  0  0  0  0
  139.9260   69.6200  226.0950 C   0  0  0  0  0  0  0  0  0  0  0  0
  139.8640   68.9930  227.3220 C   0  0  0  0  0  0  0  0  0  0  0  0
  140.3770   69.6630  228.4270 C   0  0  0  0  0  0  0  0  0  0  0  0
  140.9390   70.9270  228.3090 C   0  0  0  0  0  0  0  0  0  0  0  0
  141.0060   71.5660  227.0690 C   0  0  0  0  0  0  0  0  0  0  0  0
  140.4880   70.8850  225.9730 C   0  0  0  0  0  0  0  0  0  0  0  0
  140.5600   71.5180  224.7820 N   0  0  0  0  0  0  0  0  0  0  0  0
  139.5750   73.5720  223.2240 H   0  0  0  0  0  0  0  0  0  0  0  0
  140.7673   73.3295  220.4818 H   0  0  0  0  0  0  0  0  0  0  0  0
  138.9907   73.6511  220.5461 H   0  0  0  0  0  0  0  0  0  0  0  0
  139.1355   77.3478  219.7832 H   0  0  0  0  0  0  0  0  0  0  0  0
  140.4892   78.0263  220.7317 H   0  0  0  0  0  0  0  0  0  0  0  0
  140.1637   78.2532  217.9638 H   0  0  0  0  0  0  0  0  0  0  0  0
  141.6772   78.5295  218.8059 H   0  0  0  0  0  0  0  0  0  0  0  0
  140.6594   76.0191  217.4094 H   0  0  0  0  0  0  0  0  0  0  0  0
  142.3050   76.6495  217.4273 H   0  0  0  0  0  0  0  0  0  0  0  0
  141.7053   74.5909  218.8797 H   0  0  0  0  0  0  0  0  0  0  0  0
  143.3147   76.8644  219.7992 H   0  0  0  0  0  0  0  0  0  0  0  0
  142.9239   75.4683  220.9121 H   0  0  0  0  0  0  0  0  0  0  0  0
  144.7900   75.5620  218.7230 H   0  0  0  0  0  0  0  0  0  0  0  0
  143.3098   73.2450  221.2040 H   0  0  0  0  0  0  0  0  0  0  0  0
  143.6738   70.8327  221.1981 H   0  0  0  0  0  0  0  0  0  0  0  0
  142.7532   68.9838  219.2976 H   0  0  0  0  0  0  0  0  0  0  0  0
  143.0188   66.4990  219.3235 H   0  0  0  0  0  0  0  0  0  0  0  0
  145.3137   65.5159  219.3451 H   0  0  0  0  0  0  0  0  0  0  0  0
  147.3091   66.9996  219.3408 H   0  0  0  0  0  0  0  0  0  0  0  0
  147.0469   69.4736  219.3181 H   0  0  0  0  0  0  0  0  0  0  0  0
  145.5967   71.1645  217.3971 H   0  0  0  0  0  0  0  0  0  0  0  0
  145.2353   73.5843  217.4071 H   0  0  0  0  0  0  0  0  0  0  0  0
  139.1480   69.2503  222.8086 H   0  0  0  0  0  0  0  0  0  0  0  0
  138.9941   68.0534  224.9607 H   0  0  0  0  0  0  0  0  0  0  0  0
  139.4212   67.9912  227.4234 H   0  0  0  0  0  0  0  0  0  0  0  0
  140.3367   69.1816  229.4152 H   0  0  0  0  0  0  0  0  0  0  0  0
  141.3361   71.4310  229.2025 H   0  0  0  0  0  0  0  0  0  0  0  0
  141.4502   72.5668  226.9637 H   0  0  0  0  0  0  0  0  0  0  0  0
  1  2  2  0
  2  3  1  0
  3  4  1  0
  4  5  1  0
  5  6  2  0
  5  7  1  0
  7  8  1  0
  8  9  1  0
  9 10  1  0
 10 11  1  0
 11 12  1  0
 12 13  1  0
 13 14  1  0
 14 15  2  0
 15 16  1  0
 16 17  2  0
 17 18  1  0
 18 19  2  0
 19 20  1  0
 20 21  2  0
 21 22  1  0
 22 23  2  0
 17 24  1  0
 24 25  2  0
  2 26  1  0
 26 27  2  0
 27 28  1  0
 28 29  2  0
 29 30  1  0
 30 31  2  0
 31 32  1  0
 32 33  2  0
 33 34  1  0
 34 35  2  0
 11  7  1  0
 25 14  1  0
 35 26  1  0
 23 18  1  0
 34 29  1  0
  3 36  1  0
  4 37  1  0
  4 38  1  0
  8 39  1  0
  8 40  1  0
  9 41  1  0
  9 42  1  0
 10 43  1  0
 10 44  1  0
 11 45  1  6
 12 46  1  0
 12 47  1  0
 13 48  1  0
 15 49  1  0
 16 50  1  0
 19 51  1  0
 20 52  1  0
 21 53  1  0
 22 54  1  0
 23 55  1  0
 24 56  1  0
 25 57  1  0
 27 58  1  0
 28 59  1  0
 30 60  1  0
 31 61  1  0
 32 62  1  0
 33 63  1  0
M  END
>  <smiles>  (13) 
O=C(NCC(=O)N1CCC[C@H]1CNc1ccc(-c2ccccc2)cc1)c1ccc2ccccc2n1

>  <score_type>  (13) 
oracle

>  <origin>  (13) 
autodockgpu

>  <m_score__min__energy>  (13) 
-9.8300000000000001

>  <m_primary>  (13) 
energy

>  <rmsd>  (13) 
5.888023328116051

>  <m_score__min__rmsd>  (13) 
5.888023328116051

>  <meeko>  (13) 
{"free_energy": -9.44, "intermolecular_energy": -11.82, "internal_energy": -2.52, "cluster_size": 6, "cluster_id": 2, "rank_in_cluster": 3}

>  <energy>  (13) 
-9.12

>  <cluster_rmsd>  (13) 
1.93

>  <cluster>  (13) 
3

$$$$

     RDKit          3D

 63 67  0  0  0  0  0  0  0  0999 V2000
  139.4860   70.6070  221.4720 O   0  0  0  0  0  0  0  0  0  0  0  0
  139.6380   71.1880  222.5780 C   0  0  0  0  0  0  0  0  0  0  0  0
  139.7530   72.6070  222.6990 N   0  0  0  0  0  0  0  0  0  0  0  0
  139.6920   73.3830  221.4940 C   0  0  0  0  0  0  0  0  0  0  0  0
  140.7920   74.3510  221.4400 C   0  0  0  0  0  0  0  0  0  0  0  0
  140.6850   75.4330  222.0740 O   0  0  0  0  0  0  0  0  0  0  0  0
  141.9620   74.0860  220.6900 N   0  0  0  0  0  0  0  0  0  0  0  0
  142.2750   72.8480  220.0210 C   0  0  0  0  0  0  0  0  0  0  0  0
  143.6580   72.9580  219.4610 C   0  0  0  0  0  0  0  0  0  0  0  0
  144.2370   74.1560  220.1810 C   0  0  0  0  0  0  0  0  0  0  0  0
  143.0740   75.0250  220.4580 C   0  0  1  0  0  0  0  0  0  0  0  0
  142.6600   75.9540  219.3820 C   0  0  0  0  0  0  0  0  0  0  0  0
  142.5350   77.3110  219.8160 N   0  0  0  0  0  0  0  0  0  0  0  0
  141.5380   77.8780  220.6110 C   0  0  0  0  0  0  0  0  0  0  0  0
  140.1810   77.7880  220.4060 C   0  0  0  0  0  0  0  0  0  0  0  0
  139.2370   78.3760  221.2180 C   0  0  0  0  0  0  0  0  0  0  0  0
  139.6250   79.1120  222.3170 C   0  0  0  0  0  0  0  0  0  0  0  0
  138.6200   79.7310  223.1700 C   0  0  0  0  0  0  0  0  0  0  0  0
  137.2890   79.3520  223.0150 C   0  0  0  0  0  0  0  0  0  0  0  0
  136.2840   79.9150  223.8080 C   0  0  0  0  0  0  0  0  0  0  0  0
  136.6320   80.8650  224.7600 C   0  0  0  0  0  0  0  0  0  0  0  0
  137.9650   81.2480  224.9180 C   0  0  0  0  0  0  0  0  0  0  0  0
  138.9630   80.6890  224.1310 C   0  0  0  0  0  0  0  0  0  0  0  0
  140.9780   79.2240  222.5550 C   0  0  0  0  0  0  0  0  0  0  0  0
  141.9140   78.6320  221.7360 C   0  0  0  0  0  0  0  0  0  0  0  0
  139.7010   70.3980  223.8010 C   0  0  0  0  0  0  0  0  0  0  0  0
  139.1600   69.1190  223.8560 C   0  0  0  0  0  0  0  0  0  0  0  0
  139.2110   68.3560  225.0150 C   0  0  0  0  0  0  0  0  0  0  0  0
  139.8060   68.8440  226.1610 C   0  0  0  0  0  0  0  0  0  0  0  0
  139.8840   68.1270  227.3380 C   0  0  0  0  0  0  0  0  0  0  0  0
  140.5080   68.7240  228.4280 C   0  0  0  0  0  0  0  0  0  0  0  0
  141.0400   70.0030  228.3450 C   0  0  0  0  0  0  0  0  0  0  0  0
  140.9640   70.7330  227.1570 C   0  0  0  0  0  0  0  0  0  0  0  0
  140.3370   70.1240  226.0750 C   0  0  0  0  0  0  0  0  0  0  0  0
  140.2730   70.8440  224.9340 N   0  0  0  0  0  0  0  0  0  0  0  0
  139.8800   73.0510  223.6500 H   0  0  0  0  0  0  0  0  0  0  0  0
  139.7622   72.7091  220.6275 H   0  0  0  0  0  0  0  0  0  0  0  0
  138.7390   73.9320  221.4769 H   0  0  0  0  0  0  0  0  0  0  0  0
  142.2283   72.0149  220.7378 H   0  0  0  0  0  0  0  0  0  0  0  0
  141.5517   72.6577  219.2144 H   0  0  0  0  0  0  0  0  0  0  0  0
  144.2420   72.0507  219.6750 H   0  0  0  0  0  0  0  0  0  0  0  0
  143.6693   73.0695  218.3667 H   0  0  0  0  0  0  0  0  0  0  0  0
  144.7229   73.8477  221.1184 H   0  0  0  0  0  0  0  0  0  0  0  0
  145.0067   74.6680  219.5848 H   0  0  0  0  0  0  0  0  0  0  0  0
  143.3472   75.6854  221.2942 H   0  0  0  0  0  0  0  0  0  0  0  0
  143.4106   75.9131  218.5790 H   0  0  0  0  0  0  0  0  0  0  0  0
  141.6655   75.6308  219.0407 H   0  0  0  0  0  0  0  0  0  0  0  0
  143.3070   77.9670  219.4820 H   0  0  0  0  0  0  0  0  0  0  0  0
  139.8277   77.2102  219.5392 H   0  0  0  0  0  0  0  0  0  0  0  0
  138.1677   78.2578  220.9884 H   0  0  0  0  0  0  0  0  0  0  0  0
  137.0243   78.5990  222.2580 H   0  0  0  0  0  0  0  0  0  0  0  0
  135.2348   79.6105  223.6800 H   0  0  0  0  0  0  0  0  0  0  0  0
  135.8537   81.3174  225.3921 H   0  0  0  0  0  0  0  0  0  0  0  0
  138.2279   82.0016  225.6750 H   0  0  0  0  0  0  0  0  0  0  0  0
  140.0113   80.9956  224.2613 H   0  0  0  0  0  0  0  0  0  0  0  0
  141.3205   79.8035  223.4250 H   0  0  0  0  0  0  0  0  0  0  0  0
  142.9825   78.7524  221.9682 H   0  0  0  0  0  0  0  0  0  0  0  0
  138.6795   68.7008  222.9592 H   0  0  0  0  0  0  0  0  0  0  0  0
  138.7708   67.3479  225.0200 H   0  0  0  0  0  0  0  0  0  0  0  0
  139.4647   67.1127  227.4116 H   0  0  0  0  0  0  0  0  0  0  0  0
  140.5814   68.1708  229.3759 H   0  0  0  0  0  0  0  0  0  0  0  0
  141.5273   70.4471  229.2255 H   0  0  0  0  0  0  0  0  0  0  0  0
  141.3825   71.7474  227.0801 H   0  0  0  0  0  0  0  0  0  0  0  0
  1  2  2  0
  2  3  1  0
  3  4  1  0
  4  5  1  0
  5  6  2  0
  5  7  1  0
  7  8  1  0
  8  9  1  0
  9 10  1  0
 10 11  1  0
 11 12  1  0
 12 13  1  0
 13 14  1  0
 14 15  2  0
 15 16  1  0
 16 17  2  0
 17 18  1  0
 18 19  2  0
 19 20  1  0
 20 21  2  0
 21 22  1  0
 22 23  2  0
 17 24  1  0
 24 25  2  0
  2 26  1  0
 26 27  2  0
 27 28  1  0
 28 29  2  0
 29 30  1  0
 30 31  2  0
 31 32  1  0
 32 33  2  0
 33 34  1  0
 34 35  2  0
 11  7  1  0
 25 14  1  0
 35 26  1  0
 23 18  1  0
 34 29  1  0
  3 36  1  0
  4 37  1  0
  4 38  1  0
  8 39  1  0
  8 40  1  0
  9 41  1  0
  9 42  1  0
 10 43  1  0
 10 44  1  0
 11 45  1  1
 12 46  1  0
 12 47  1  0
 13 48  1  0
 15 49  1  0
 16 50  1  0
 19 51  1  0
 20 52  1  0
 21 53  1  0
 22 54  1  0
 23 55  1  0
 24 56  1  0
 25 57  1  0
 27 58  1  0
 28 59  1  0
 30 60  1  0
 31 61  1  0
 32 62  1  0
 33 63  1  0
M  END
>  <smiles>  (14) 
O=C(NCC(=O)N1CCC[C@H]1CNc1ccc(-c2ccccc2)cc1)c1ccc2ccccc2n1

>  <score_type>  (14) 
oracle

>  <origin>  (14) 
autodockgpu

>  <m_score__min__energy>  (14) 
-9.8300000000000001

>  <m_primary>  (14) 
energy

>  <rmsd>  (14) 
2.843835311641293

>  <m_score__min__rmsd>  (14) 
2.843835311641293

>  <meeko>  (14) 
{"free_energy": -9.5, "intermolecular_energy": -11.89, "internal_energy": -2.17, "cluster_size": 5, "cluster_id": 1, "rank_in_cluster": 3}

>  <energy>  (14) 
-9.12

>  <cluster_rmsd>  (14) 
1.58

>  <cluster>  (14) 
3

$$$$

     RDKit          3D

 63 67  0  0  0  0  0  0  0  0999 V2000
  140.3860   71.2130  221.2750 O   0  0  0  0  0  0  0  0  0  0  0  0
  140.0930   71.8450  222.3240 C   0  0  0  0  0  0  0  0  0  0  0  0
  139.8030   73.2440  222.3310 N   0  0  0  0  0  0  0  0  0  0  0  0
  139.8560   73.9390  221.0770 C   0  0  0  0  0  0  0  0  0  0  0  0
  140.7020   75.1320  221.1770 C   0  0  0  0  0  0  0  0  0  0  0  0
  140.9910   75.5840  222.3150 O   0  0  0  0  0  0  0  0  0  0  0  0
  141.1950   75.7770  220.0180 N   0  0  0  0  0  0  0  0  0  0  0  0
  140.6930   75.6060  218.6770 C   0  0  0  0  0  0  0  0  0  0  0  0
  141.5790   76.3720  217.7470 C   0  0  0  0  0  0  0  0  0  0  0  0
  142.8110   76.6510  218.5800 C   0  0  0  0  0  0  0  0  0  0  0  0
  142.3110   76.7380  219.9680 C   0  0  1  0  0  0  0  0  0  0  0  0
  141.7920   78.0510  220.4130 C   0  0  0  0  0  0  0  0  0  0  0  0
  141.4830   78.1010  221.8080 N   0  0  0  0  0  0  0  0  0  0  0  0
  140.5750   78.9340  222.4650 C   0  0  0  0  0  0  0  0  0  0  0  0
  140.8790   80.0670  223.1830 C   0  0  0  0  0  0  0  0  0  0  0  0
  139.9430   80.8500  223.8210 C   0  0  0  0  0  0  0  0  0  0  0  0
  138.6050   80.5200  223.7680 C   0  0  0  0  0  0  0  0  0  0  0  0
  137.6230   81.3530  224.4470 C   0  0  0  0  0  0  0  0  0  0  0  0
  137.3450   81.0980  225.7870 C   0  0  0  0  0  0  0  0  0  0  0  0
  136.4110   81.8680  226.4870 C   0  0  0  0  0  0  0  0  0  0  0  0
  135.7570   82.9000  225.8240 C   0  0  0  0  0  0  0  0  0  0  0  0
  136.0330   83.1580  224.4800 C   0  0  0  0  0  0  0  0  0  0  0  0
  136.9600   82.3940  223.7840 C   0  0  0  0  0  0  0  0  0  0  0  0
  138.2630   79.3910  223.0560 C   0  0  0  0  0  0  0  0  0  0  0  0
  139.2070   78.6140  222.4220 C   0  0  0  0  0  0  0  0  0  0  0  0
  140.0400   71.1370  223.5970 C   0  0  0  0  0  0  0  0  0  0  0  0
  139.5150   69.8540  223.6810 C   0  0  0  0  0  0  0  0  0  0  0  0
  139.4580   69.1690  224.8870 C   0  0  0  0  0  0  0  0  0  0  0  0
  139.9230   69.7420  226.0530 C   0  0  0  0  0  0  0  0  0  0  0  0
  139.8900   69.1050  227.2770 C   0  0  0  0  0  0  0  0  0  0  0  0
  140.3880   69.7840  228.3830 C   0  0  0  0  0  0  0  0  0  0  0  0
  140.9070   71.0660  228.2700 C   0  0  0  0  0  0  0  0  0  0  0  0
  140.9440   71.7160  227.0350 C   0  0  0  0  0  0  0  0  0  0  0  0
  140.4420   71.0250  225.9370 C   0  0  0  0  0  0  0  0  0  0  0  0
  140.4850   71.6680  224.7500 N   0  0  0  0  0  0  0  0  0  0  0  0
  139.5620   73.7330  223.2370 H   0  0  0  0  0  0  0  0  0  0  0  0
  140.2691   73.2675  220.3099 H   0  0  0  0  0  0  0  0  0  0  0  0
  138.8372   74.2517  220.8045 H   0  0  0  0  0  0  0  0  0  0  0  0
  140.7039   74.5394  218.4082 H   0  0  0  0  0  0  0  0  0  0  0  0
  139.6589   75.9747  218.6077 H   0  0  0  0  0  0  0  0  0  0  0  0
  141.8316   75.7711  216.8609 H   0  0  0  0  0  0  0  0  0  0  0  0
  141.1060   77.2877  217.3627 H   0  0  0  0  0  0  0  0  0  0  0  0
  143.5403   75.8335  218.4805 H   0  0  0  0  0  0  0  0  0  0  0  0
  143.3284   77.5691  218.2648 H   0  0  0  0  0  0  0  0  0  0  0  0
  143.1623   76.5434  220.6369 H   0  0  0  0  0  0  0  0  0  0  0  0
  142.5519   78.8166  220.1974 H   0  0  0  0  0  0  0  0  0  0  0  0
  140.8532   78.2285  219.8679 H   0  0  0  0  0  0  0  0  0  0  0  0
  142.0210   77.4110  222.4180 H   0  0  0  0  0  0  0  0  0  0  0  0
  141.9353   80.3662  223.2519 H   0  0  0  0  0  0  0  0  0  0  0  0
  140.2643   81.7437  224.3760 H   0  0  0  0  0  0  0  0  0  0  0  0
  137.8677   80.2789  226.3027 H   0  0  0  0  0  0  0  0  0  0  0  0
  136.1971   81.6603  227.5458 H   0  0  0  0  0  0  0  0  0  0  0  0
  135.0196   83.5154  226.3601 H   0  0  0  0  0  0  0  0  0  0  0  0
  135.5092   83.9773  223.9658 H   0  0  0  0  0  0  0  0  0  0  0  0
  137.1713   82.6034  222.7250 H   0  0  0  0  0  0  0  0  0  0  0  0
  137.2037   79.1014  222.9920 H   0  0  0  0  0  0  0  0  0  0  0  0
  138.8823   77.7208  221.8682 H   0  0  0  0  0  0  0  0  0  0  0  0
  139.1351   69.3688  222.7698 H   0  0  0  0  0  0  0  0  0  0  0  0
  139.0356   68.1537  224.9136 H   0  0  0  0  0  0  0  0  0  0  0  0
  139.4811   68.0885  227.3745 H   0  0  0  0  0  0  0  0  0  0  0  0
  140.3703   69.2950  229.3682 H   0  0  0  0  0  0  0  0  0  0  0  0
  141.2939   71.5763  229.1644 H   0  0  0  0  0  0  0  0  0  0  0  0
  141.3530   72.7322  226.9344 H   0  0  0  0  0  0  0  0  0  0  0  0
  1  2  2  0
  2  3  1  0
  3  4  1  0
  4  5  1  0
  5  6  2  0
  5  7  1  0
  7  8  1  0
  8  9  1  0
  9 10  1  0
 10 11  1  0
 11 12  1  0
 12 13  1  0
 13 14  1  0
 14 15  2  0
 15 16  1  0
 16 17  2  0
 17 18  1  0
 18 19  2  0
 19 20  1  0
 20 21  2  0
 21 22  1  0
 22 23  2  0
 17 24  1  0
 24 25  2  0
  2 26  1  0
 26 27  2  0
 27 28  1  0
 28 29  2  0
 29 30  1  0
 30 31  2  0
 31 32  1  0
 32 33  2  0
 33 34  1  0
 34 35  2  0
 11  7  1  0
 25 14  1  0
 35 26  1  0
 23 18  1  0
 34 29  1  0
  3 36  1  0
  4 37  1  0
  4 38  1  0
  8 39  1  0
  8 40  1  0
  9 41  1  0
  9 42  1  0
 10 43  1  0
 10 44  1  0
 11 45  1  1
 12 46  1  0
 12 47  1  0
 13 48  1  0
 15 49  1  0
 16 50  1  0
 19 51  1  0
 20 52  1  0
 21 53  1  0
 22 54  1  0
 23 55  1  0
 24 56  1  0
 25 57  1  0
 27 58  1  0
 28 59  1  0
 30 60  1  0
 31 61  1  0
 32 62  1  0
 33 63  1  0
M  END
>  <smiles>  (15) 
O=C(NCC(=O)N1CCC[C@H]1CNc1ccc(-c2ccccc2)cc1)c1ccc2ccccc2n1

>  <score_type>  (15) 
oracle

>  <origin>  (15) 
autodockgpu

>  <m_score__min__energy>  (15) 
-9.8300000000000001

>  <m_primary>  (15) 
energy

>  <rmsd>  (15) 
2.285775421469655

>  <m_score__min__rmsd>  (15) 
2.285775421469655

>  <meeko>  (15) 
{"free_energy": -9.83, "intermolecular_energy": -12.22, "internal_energy": -2.59, "cluster_size": 5, "cluster_id": 1, "rank_in_cluster": 1}

>  <energy>  (15) 
-9.12

>  <cluster_rmsd>  (15) 
1.78

>  <cluster>  (15) 
3

$$$$

     RDKit          3D

 63 67  0  0  0  0  0  0  0  0999 V2000
  138.5460   75.6700  221.8330 O   0  0  0  0  0  0  0  0  0  0  0  0
  139.7450   76.0490  221.8900 C   0  0  0  0  0  0  0  0  0  0  0  0
  140.8390   75.2270  221.4800 N   0  0  0  0  0  0  0  0  0  0  0  0
  140.5340   73.9150  220.9860 C   0  0  0  0  0  0  0  0  0  0  0  0
  141.6160   72.9760  221.2950 C   0  0  0  0  0  0  0  0  0  0  0  0
  141.3880   72.0150  222.0750 O   0  0  0  0  0  0  0  0  0  0  0  0
  142.9040   73.1350  220.7320 N   0  0  0  0  0  0  0  0  0  0  0  0
  143.9940   72.1970  220.8380 C   0  0  0  0  0  0  0  0  0  0  0  0
  145.2030   72.8150  220.2090 C   0  0  0  0  0  0  0  0  0  0  0  0
  144.8370   74.2790  220.1020 C   0  0  0  0  0  0  0  0  0  0  0  0
  143.3680   74.2860  219.9380 C   0  0  1  0  0  0  0  0  0  0  0  0
  142.8460   74.1220  218.5630 C   0  0  0  0  0  0  0  0  0  0  0  0
  142.7200   75.3540  217.8480 N   0  0  0  0  0  0  0  0  0  0  0  0
  142.2600   76.5860  218.3180 C   0  0  0  0  0  0  0  0  0  0  0  0
  142.9850   77.7520  218.3950 C   0  0  0  0  0  0  0  0  0  0  0  0
  142.4850   78.9410  218.8770 C   0  0  0  0  0  0  0  0  0  0  0  0
  141.1830   79.0190  219.3230 C   0  0  0  0  0  0  0  0  0  0  0  0
  140.6630   80.2800  219.8330 C   0  0  0  0  0  0  0  0  0  0  0  0
  141.5620   81.2970  220.1400 C   0  0  0  0  0  0  0  0  0  0  0  0
  141.1170   82.5280  220.6320 C   0  0  0  0  0  0  0  0  0  0  0  0
  139.7530   82.7260  220.8120 C   0  0  0  0  0  0  0  0  0  0  0  0
  138.8480   81.7090  220.5060 C   0  0  0  0  0  0  0  0  0  0  0  0
  139.2900   80.4860  220.0180 C   0  0  0  0  0  0  0  0  0  0  0  0
  140.4250   77.8690  219.2620 C   0  0  0  0  0  0  0  0  0  0  0  0
  140.9350   76.6850  218.7780 C   0  0  0  0  0  0  0  0  0  0  0  0
  140.0520   77.3820  222.3930 C   0  0  0  0  0  0  0  0  0  0  0  0
  139.0440   78.2350  222.8250 C   0  0  0  0  0  0  0  0  0  0  0  0
  139.3230   79.5070  223.3060 C   0  0  0  0  0  0  0  0  0  0  0  0
  140.6210   79.9740  223.3710 C   0  0  0  0  0  0  0  0  0  0  0  0
  140.9520   81.2280  223.8400 C   0  0  0  0  0  0  0  0  0  0  0  0
  142.2950   81.5880  223.8590 C   0  0  0  0  0  0  0  0  0  0  0  0
  143.2820   80.7160  223.4210 C   0  0  0  0  0  0  0  0  0  0  0  0
  142.9530   79.4440  222.9460 C   0  0  0  0  0  0  0  0  0  0  0  0
  141.6060   79.0990  222.9330 C   0  0  0  0  0  0  0  0  0  0  0  0
  141.3060   77.8660  222.4700 N   0  0  0  0  0  0  0  0  0  0  0  0
  141.8300   75.5890  221.5470 H   0  0  0  0  0  0  0  0  0  0  0  0
  139.6044   73.5605  221.4551 H   0  0  0  0  0  0  0  0  0  0  0  0
  140.4163   73.9690  219.8936 H   0  0  0  0  0  0  0  0  0  0  0  0
  144.1956   71.9780  221.8970 H   0  0  0  0  0  0  0  0  0  0  0  0
  143.7381   71.2566  220.3279 H   0  0  0  0  0  0  0  0  0  0  0  0
  146.0904   72.6771  220.8442 H   0  0  0  0  0  0  0  0  0  0  0  0
  145.4576   72.3653  219.2380 H   0  0  0  0  0  0  0  0  0  0  0  0
  145.1283   74.8196  221.0146 H   0  0  0  0  0  0  0  0  0  0  0  0
  145.3519   74.7774  219.2675 H   0  0  0  0  0  0  0  0  0  0  0  0
  143.0072   75.2782  220.2469 H   0  0  0  0  0  0  0  0  0  0  0  0
  143.5314   73.4656  218.0068 H   0  0  0  0  0  0  0  0  0  0  0  0
  141.8361   73.6947  218.6501 H   0  0  0  0  0  0  0  0  0  0  0  0
  143.0160   75.3180  216.8240 H   0  0  0  0  0  0  0  0  0  0  0  0
  144.0294   77.7337  218.0501 H   0  0  0  0  0  0  0  0  0  0  0  0
  143.1278   79.8331  218.9063 H   0  0  0  0  0  0  0  0  0  0  0  0
  142.6393   81.1299  219.9934 H   0  0  0  0  0  0  0  0  0  0  0  0
  141.8345   83.3264  220.8726 H   0  0  0  0  0  0  0  0  0  0  0  0
  139.3855   83.6885  221.1973 H   0  0  0  0  0  0  0  0  0  0  0  0
  137.7711   81.8779  220.6531 H   0  0  0  0  0  0  0  0  0  0  0  0
  138.5704   79.6889  219.7797 H   0  0  0  0  0  0  0  0  0  0  0  0
  139.3820   77.8981  219.6102 H   0  0  0  0  0  0  0  0  0  0  0  0
  140.2898   75.7945  218.7506 H   0  0  0  0  0  0  0  0  0  0  0  0
  137.9990   77.8940  222.7849 H   0  0  0  0  0  0  0  0  0  0  0  0
  138.4976   80.1527  223.6404 H   0  0  0  0  0  0  0  0  0  0  0  0
  140.1752   81.9241  224.1893 H   0  0  0  0  0  0  0  0  0  0  0  0
  142.5809   82.5838  224.2286 H   0  0  0  0  0  0  0  0  0  0  0  0
  144.3358   81.0302  223.4482 H   0  0  0  0  0  0  0  0  0  0  0  0
  143.7271   78.7447  222.5969 H   0  0  0  0  0  0  0  0  0  0  0  0
  1  2  2  0
  2  3  1  0
  3  4  1  0
  4  5  1  0
  5  6  2  0
  5  7  1  0
  7  8  1  0
  8  9  1  0
  9 10  1  0
 10 11  1  0
 11 12  1  0
 12 13  1  0
 13 14  1  0
 14 15  2  0
 15 16  1  0
 16 17  2  0
 17 18  1  0
 18 19  2  0
 19 20  1  0
 20 21  2  0
 21 22  1  0
 22 23  2  0
 17 24  1  0
 24 25  2  0
  2 26  1  0
 26 27  2  0
 27 28  1  0
 28 29  2  0
 29 30  1  0
 30 31  2  0
 31 32  1  0
 32 33  2  0
 33 34  1  0
 34 35  2  0
 11  7  1  0
 25 14  1  0
 35 26  1  0
 23 18  1  0
 34 29  1  0
  3 36  1  0
  4 37  1  0
  4 38  1  0
  8 39  1  0
  8 40  1  0
  9 41  1  0
  9 42  1  0
 10 43  1  0
 10 44  1  0
 11 45  1  1
 12 46  1  0
 12 47  1  0
 13 48  1  0
 15 49  1  0
 16 50  1  0
 19 51  1  0
 20 52  1  0
 21 53  1  0
 22 54  1  0
 23 55  1  0
 24 56  1  0
 25 57  1  0
 27 58  1  0
 28 59  1  0
 30 60  1  0
 31 61  1  0
 32 62  1  0
 33 63  1  0
M  END
>  <smiles>  (16) 
O=C(NCC(=O)N1CCC[C@H]1CNc1ccc(-c2ccccc2)cc1)c1ccc2ccccc2n1

>  <score_type>  (16) 
oracle

>  <origin>  (16) 
autodockgpu

>  <m_score__min__energy>  (16) 
-9.8300000000000001

>  <m_primary>  (16) 
energy

>  <rmsd>  (16) 
7.121157166119205

>  <m_score__min__rmsd>  (16) 
7.121157166119205

>  <meeko>  (16) 
{"free_energy": -7.17, "intermolecular_energy": -9.56, "internal_energy": -4.47, "cluster_size": 10, "cluster_id": 7, "rank_in_cluster": 9}

>  <energy>  (16) 
-9.03

>  <cluster_rmsd>  (16) 
1.71

>  <cluster>  (16) 
3

$$$$

     RDKit          3D

 63 67  0  0  0  0  0  0  0  0999 V2000
  139.9980   70.9770  221.2400 O   0  0  0  0  0  0  0  0  0  0  0  0
  139.8600   71.6230  222.3120 C   0  0  0  0  0  0  0  0  0  0  0  0
  139.6540   73.0360  222.3460 N   0  0  0  0  0  0  0  0  0  0  0  0
  139.6070   73.7300  221.0910 C   0  0  0  0  0  0  0  0  0  0  0  0
  140.4190   74.9490  221.1380 C   0  0  0  0  0  0  0  0  0  0  0  0
  140.3410   75.6970  222.1470 O   0  0  0  0  0  0  0  0  0  0  0  0
  141.2830   75.2930  220.0710 N   0  0  0  0  0  0  0  0  0  0  0  0
  141.2350   74.7500  218.7370 C   0  0  0  0  0  0  0  0  0  0  0  0
  142.4020   75.2910  217.9720 C   0  0  0  0  0  0  0  0  0  0  0  0
  143.3070   75.8430  219.0510 C   0  0  0  0  0  0  0  0  0  0  0  0
  142.3890   76.2650  220.1300 C   0  0  1  0  0  0  0  0  0  0  0  0
  141.8030   77.6190  220.0200 C   0  0  0  0  0  0  0  0  0  0  0  0
  141.9420   78.4010  221.2100 N   0  0  0  0  0  0  0  0  0  0  0  0
  140.9370   78.9540  222.0060 C   0  0  0  0  0  0  0  0  0  0  0  0
  141.1150   79.8080  223.0690 C   0  0  0  0  0  0  0  0  0  0  0  0
  140.0870   80.3190  223.8290 C   0  0  0  0  0  0  0  0  0  0  0  0
  138.7800   79.9840  223.5480 C   0  0  0  0  0  0  0  0  0  0  0  0
  137.6990   80.5280  224.3570 C   0  0  0  0  0  0  0  0  0  0  0  0
  136.3990   80.0960  224.1110 C   0  0  0  0  0  0  0  0  0  0  0  0
  135.3240   80.5860  224.8600 C   0  0  0  0  0  0  0  0  0  0  0  0
  135.5700   81.5160  225.8610 C   0  0  0  0  0  0  0  0  0  0  0  0
  136.8730   81.9520  226.1110 C   0  0  0  0  0  0  0  0  0  0  0  0
  137.9400   81.4660  225.3680 C   0  0  0  0  0  0  0  0  0  0  0  0
  138.5620   79.1300  222.4880 C   0  0  0  0  0  0  0  0  0  0  0  0
  139.5980   78.6240  221.7340 C   0  0  0  0  0  0  0  0  0  0  0  0
  139.9090   70.9160  223.5860 C   0  0  0  0  0  0  0  0  0  0  0  0
  139.4470   69.6110  223.6980 C   0  0  0  0  0  0  0  0  0  0  0  0
  139.4870   68.9260  224.9060 C   0  0  0  0  0  0  0  0  0  0  0  0
  139.9890   69.5230  226.0450 C   0  0  0  0  0  0  0  0  0  0  0  0
  140.0520   68.8870  227.2680 C   0  0  0  0  0  0  0  0  0  0  0  0
  140.5790   69.5900  228.3460 C   0  0  0  0  0  0  0  0  0  0  0  0
  141.0330   70.8940  228.2050 C   0  0  0  0  0  0  0  0  0  0  0  0
  140.9730   71.5420  226.9690 C   0  0  0  0  0  0  0  0  0  0  0  0
  140.4430   70.8270  225.9010 C   0  0  0  0  0  0  0  0  0  0  0  0
  140.3920   71.4690  224.7130 N   0  0  0  0  0  0  0  0  0  0  0  0
  139.5430   73.5350  223.2720 H   0  0  0  0  0  0  0  0  0  0  0  0
  139.9928   73.0703  220.2998 H   0  0  0  0  0  0  0  0  0  0  0  0
  138.5638   74.0099  220.8825 H   0  0  0  0  0  0  0  0  0  0  0  0
  141.2934   73.6524  218.7790 H   0  0  0  0  0  0  0  0  0  0  0  0
  140.2928   75.0324  218.2445 H   0  0  0  0  0  0  0  0  0  0  0  0
  142.9056   74.4929  217.4068 H   0  0  0  0  0  0  0  0  0  0  0  0
  142.1125   76.0473  217.2276 H   0  0  0  0  0  0  0  0  0  0  0  0
  143.9989   75.0675  219.4114 H   0  0  0  0  0  0  0  0  0  0  0  0
  143.9312   76.6724  218.6870 H   0  0  0  0  0  0  0  0  0  0  0  0
  142.9701   76.2980  221.0634 H   0  0  0  0  0  0  0  0  0  0  0  0
  142.3028   78.1484  219.1955 H   0  0  0  0  0  0  0  0  0  0  0  0
  140.7251   77.4908  219.8420 H   0  0  0  0  0  0  0  0  0  0  0  0
  142.9460   78.5800  221.5210 H   0  0  0  0  0  0  0  0  0  0  0  0
  142.1430   80.1012  223.3283 H   0  0  0  0  0  0  0  0  0  0  0  0
  140.3100   80.9983  224.6650 H   0  0  0  0  0  0  0  0  0  0  0  0
  136.2142   79.3585  223.3160 H   0  0  0  0  0  0  0  0  0  0  0  0
  134.2995   80.2398  224.6590 H   0  0  0  0  0  0  0  0  0  0  0  0
  134.7357   81.9108  226.4593 H   0  0  0  0  0  0  0  0  0  0  0  0
  137.0560   82.6895  226.9064 H   0  0  0  0  0  0  0  0  0  0  0  0
  138.9635   81.8140  225.5713 H   0  0  0  0  0  0  0  0  0  0  0  0
  137.5300   78.8440  222.2367 H   0  0  0  0  0  0  0  0  0  0  0  0
  139.3718   77.9451  220.8986 H   0  0  0  0  0  0  0  0  0  0  0  0
  139.0396   69.1077  222.8088 H   0  0  0  0  0  0  0  0  0  0  0  0
  139.1131   67.8927  224.9556 H   0  0  0  0  0  0  0  0  0  0  0  0
  139.6955   67.8532  227.3869 H   0  0  0  0  0  0  0  0  0  0  0  0
  140.6372   69.1027  229.3304 H   0  0  0  0  0  0  0  0  0  0  0  0
  141.4449   71.4234  229.0768 H   0  0  0  0  0  0  0  0  0  0  0  0
  141.3303   72.5751  226.8458 H   0  0  0  0  0  0  0  0  0  0  0  0
  1  2  2  0
  2  3  1  0
  3  4  1  0
  4  5  1  0
  5  6  2  0
  5  7  1  0
  7  8  1  0
  8  9  1  0
  9 10  1  0
 10 11  1  0
 11 12  1  0
 12 13  1  0
 13 14  1  0
 14 15  2  0
 15 16  1  0
 16 17  2  0
 17 18  1  0
 18 19  2  0
 19 20  1  0
 20 21  2  0
 21 22  1  0
 22 23  2  0
 17 24  1  0
 24 25  2  0
  2 26  1  0
 26 27  2  0
 27 28  1  0
 28 29  2  0
 29 30  1  0
 30 31  2  0
 31 32  1  0
 32 33  2  0
 33 34  1  0
 34 35  2  0
 11  7  1  0
 25 14  1  0
 35 26  1  0
 23 18  1  0
 34 29  1  0
  3 36  1  0
  4 37  1  0
  4 38  1  0
  8 39  1  0
  8 40  1  0
  9 41  1  0
  9 42  1  0
 10 43  1  0
 10 44  1  0
 11 45  1  1
 12 46  1  0
 12 47  1  0
 13 48  1  0
 15 49  1  0
 16 50  1  0
 19 51  1  0
 20 52  1  0
 21 53  1  0
 22 54  1  0
 23 55  1  0
 24 56  1  0
 25 57  1  0
 27 58  1  0
 28 59  1  0
 30 60  1  0
 31 61  1  0
 32 62  1  0
 33 63  1  0
M  END
>  <smiles>  (17) 
O=C(NCC(=O)N1CCC[C@H]1CNc1ccc(-c2ccccc2)cc1)c1ccc2ccccc2n1

>  <score_type>  (17) 
oracle

>  <origin>  (17) 
autodockgpu

>  <m_score__min__energy>  (17) 
-9.8300000000000001

>  <m_primary>  (17) 
energy

>  <rmsd>  (17) 
2.3171630358570066

>  <m_score__min__rmsd>  (17) 
2.3171630358570066

>  <meeko>  (17) 
{"free_energy": -9.78, "intermolecular_energy": -12.16, "internal_energy": -2.06, "cluster_size": 5, "cluster_id": 1, "rank_in_cluster": 2}

>  <energy>  (17) 
-8.95

>  <cluster_rmsd>  (17) 
1.72

>  <cluster>  (17) 
3

$$$$

     RDKit          3D

 63 67  0  0  0  0  0  0  0  0999 V2000
  138.7480   75.5250  221.8780 O   0  0  0  0  0  0  0  0  0  0  0  0
  139.9250   75.9110  222.1010 C   0  0  0  0  0  0  0  0  0  0  0  0
  141.0640   75.0650  221.9350 N   0  0  0  0  0  0  0  0  0  0  0  0
  140.8320   73.7190  221.4950 C   0  0  0  0  0  0  0  0  0  0  0  0
  141.4900   73.4690  220.2100 C   0  0  0  0  0  0  0  0  0  0  0  0
  140.7910   73.1300  219.2200 O   0  0  0  0  0  0  0  0  0  0  0  0
  142.8920   73.6040  220.0680 N   0  0  0  0  0  0  0  0  0  0  0  0
  143.8350   72.5210  219.9350 C   0  0  0  0  0  0  0  0  0  0  0  0
  145.2140   73.1030  219.9400 C   0  0  0  0  0  0  0  0  0  0  0  0
  145.0060   74.5030  220.4710 C   0  0  0  0  0  0  0  0  0  0  0  0
  143.6430   74.8710  220.0330 C   0  0  1  0  0  0  0  0  0  0  0  0
  143.5050   75.4360  218.6720 C   0  0  0  0  0  0  0  0  0  0  0  0
  142.2170   76.0040  218.4160 N   0  0  0  0  0  0  0  0  0  0  0  0
  141.7030   77.2220  218.8630 C   0  0  0  0  0  0  0  0  0  0  0  0
  140.3980   77.4750  219.2180 C   0  0  0  0  0  0  0  0  0  0  0  0
  139.9390   78.7010  219.6450 C   0  0  0  0  0  0  0  0  0  0  0  0
  140.8010   79.7730  219.7410 C   0  0  0  0  0  0  0  0  0  0  0  0
  140.3060   81.0660  220.1920 C   0  0  0  0  0  0  0  0  0  0  0  0
  141.2260   82.0800  220.4460 C   0  0  0  0  0  0  0  0  0  0  0  0
  140.8050   83.3410  220.8810 C   0  0  0  0  0  0  0  0  0  0  0  0
  139.4470   83.5720  221.0580 C   0  0  0  0  0  0  0  0  0  0  0  0
  138.5220   82.5580  220.8050 C   0  0  0  0  0  0  0  0  0  0  0  0
  138.9390   81.3060  220.3730 C   0  0  0  0  0  0  0  0  0  0  0  0
  142.1170   79.5560  219.3940 C   0  0  0  0  0  0  0  0  0  0  0  0
  142.5660   78.3260  218.9670 C   0  0  0  0  0  0  0  0  0  0  0  0
  140.1580   77.2790  222.5480 C   0  0  0  0  0  0  0  0  0  0  0  0
  139.1010   78.1030  222.9120 C   0  0  0  0  0  0  0  0  0  0  0  0
  139.3100   79.4090  223.3380 C   0  0  0  0  0  0  0  0  0  0  0  0
  140.5830   79.9360  223.4160 C   0  0  0  0  0  0  0  0  0  0  0  0
  140.8440   81.2250  223.8330 C   0  0  0  0  0  0  0  0  0  0  0  0
  142.1690   81.6460  223.8710 C   0  0  0  0  0  0  0  0  0  0  0  0
  143.2060   80.8010  223.5020 C   0  0  0  0  0  0  0  0  0  0  0  0
  142.9470   79.4950  223.0790 C   0  0  0  0  0  0  0  0  0  0  0  0
  141.6180   79.0880  223.0460 C   0  0  0  0  0  0  0  0  0  0  0  0
  141.3860   77.8220  222.6350 N   0  0  0  0  0  0  0  0  0  0  0  0
  142.0350   75.4340  222.1340 H   0  0  0  0  0  0  0  0  0  0  0  0
  141.2306   73.0208  222.2457 H   0  0  0  0  0  0  0  0  0  0  0  0
  139.7491   73.5714  221.3703 H   0  0  0  0  0  0  0  0  0  0  0  0
  143.7219   71.8224  220.7771 H   0  0  0  0  0  0  0  0  0  0  0  0
  143.6560   71.9722  218.9986 H   0  0  0  0  0  0  0  0  0  0  0  0
  145.8808   72.5278  220.5992 H   0  0  0  0  0  0  0  0  0  0  0  0
  145.6883   73.0879  218.9476 H   0  0  0  0  0  0  0  0  0  0  0  0
  145.0777   74.5164  221.5686 H   0  0  0  0  0  0  0  0  0  0  0  0
  145.7665   75.2062  220.1007 H   0  0  0  0  0  0  0  0  0  0  0  0
  143.2903   75.6749  220.6958 H   0  0  0  0  0  0  0  0  0  0  0  0
  144.2637   76.2220  218.5431 H   0  0  0  0  0  0  0  0  0  0  0  0
  143.6384   74.6058  217.9628 H   0  0  0  0  0  0  0  0  0  0  0  0
  141.5740   75.4120  217.8040 H   0  0  0  0  0  0  0  0  0  0  0  0
  139.6768   76.6467  219.1569 H   0  0  0  0  0  0  0  0  0  0  0  0
  138.8790   78.8259  219.9110 H   0  0  0  0  0  0  0  0  0  0  0  0
  142.2993   81.8866  220.3025 H   0  0  0  0  0  0  0  0  0  0  0  0
  141.5378   84.1370  221.0797 H   0  0  0  0  0  0  0  0  0  0  0  0
  139.0990   84.5582  221.3990 H   0  0  0  0  0  0  0  0  0  0  0  0
  137.4491   82.7531  220.9496 H   0  0  0  0  0  0  0  0  0  0  0  0
  138.2037   80.5121  220.1754 H   0  0  0  0  0  0  0  0  0  0  0  0
  142.8305   80.3906  219.4601 H   0  0  0  0  0  0  0  0  0  0  0  0
  143.6264   78.2049  218.7008 H   0  0  0  0  0  0  0  0  0  0  0  0
  138.0739   77.7125  222.8619 H   0  0  0  0  0  0  0  0  0  0  0  0
  138.4477   80.0322  223.6173 H   0  0  0  0  0  0  0  0  0  0  0  0
  140.0272   81.9006  224.1271 H   0  0  0  0  0  0  0  0  0  0  0  0
  142.3997   82.6699  224.2004 H   0  0  0  0  0  0  0  0  0  0  0  0
  144.2437   81.1636  223.5430 H   0  0  0  0  0  0  0  0  0  0  0  0
  143.7611   78.8166  222.7841 H   0  0  0  0  0  0  0  0  0  0  0  0
  1  2  2  0
  2  3  1  0
  3  4  1  0
  4  5  1  0
  5  6  2  0
  5  7  1  0
  7  8  1  0
  8  9  1  0
  9 10  1  0
 10 11  1  0
 11 12  1  0
 12 13  1  0
 13 14  1  0
 14 15  2  0
 15 16  1  0
 16 17  2  0
 17 18  1  0
 18 19  2  0
 19 20  1  0
 20 21  2  0
 21 22  1  0
 22 23  2  0
 17 24  1  0
 24 25  2  0
  2 26  1  0
 26 27  2  0
 27 28  1  0
 28 29  2  0
 29 30  1  0
 30 31  2  0
 31 32  1  0
 32 33  2  0
 33 34  1  0
 34 35  2  0
 11  7  1  0
 25 14  1  0
 35 26  1  0
 23 18  1  0
 34 29  1  0
  3 36  1  0
  4 37  1  0
  4 38  1  0
  8 39  1  0
  8 40  1  0
  9 41  1  0
  9 42  1  0
 10 43  1  0
 10 44  1  0
 11 45  1  1
 12 46  1  0
 12 47  1  0
 13 48  1  0
 15 49  1  0
 16 50  1  0
 19 51  1  0
 20 52  1  0
 21 53  1  0
 22 54  1  0
 23 55  1  0
 24 56  1  0
 25 57  1  0
 27 58  1  0
 28 59  1  0
 30 60  1  0
 31 61  1  0
 32 62  1  0
 33 63  1  0
M  END
>  <smiles>  (18) 
O=C(NCC(=O)N1CCC[C@H]1CNc1ccc(-c2ccccc2)cc1)c1ccc2ccccc2n1

>  <score_type>  (18) 
oracle

>  <origin>  (18) 
autodockgpu

>  <m_score__min__energy>  (18) 
-9.8300000000000001

>  <m_primary>  (18) 
energy

>  <rmsd>  (18) 
6.949178986592724

>  <m_score__min__rmsd>  (18) 
6.949178986592724

>  <meeko>  (18) 
{"free_energy": -7.2, "intermolecular_energy": -9.58, "internal_energy": -4.81, "cluster_size": 10, "cluster_id": 7, "rank_in_cluster": 8}

>  <energy>  (18) 
-8.87

>  <cluster_rmsd>  (18) 
1.75

>  <cluster>  (18) 
3

$$$$

     RDKit          3D

 63 67  0  0  0  0  0  0  0  0999 V2000
  138.8040   75.3450  222.1170 O   0  0  0  0  0  0  0  0  0  0  0  0
  139.9750   75.8060  222.1430 C   0  0  0  0  0  0  0  0  0  0  0  0
  141.1250   75.0210  221.8210 N   0  0  0  0  0  0  0  0  0  0  0  0
  140.9120   73.6500  221.4580 C   0  0  0  0  0  0  0  0  0  0  0  0
  141.7170   73.2890  220.2870 C   0  0  0  0  0  0  0  0  0  0  0  0
  141.1340   72.9450  219.2270 O   0  0  0  0  0  0  0  0  0  0  0  0
  143.1310   73.3220  220.3340 N   0  0  0  0  0  0  0  0  0  0  0  0
  143.9920   72.2110  220.6530 C   0  0  0  0  0  0  0  0  0  0  0  0
  145.4000   72.7140  220.7130 C   0  0  0  0  0  0  0  0  0  0  0  0
  145.2350   74.2150  220.7990 C   0  0  0  0  0  0  0  0  0  0  0  0
  143.9810   74.4970  220.0700 C   0  0  1  0  0  0  0  0  0  0  0  0
  144.0790   74.6570  218.6020 C   0  0  0  0  0  0  0  0  0  0  0  0
  143.0360   75.4590  218.0420 N   0  0  0  0  0  0  0  0  0  0  0  0
  142.6990   76.7790  218.3480 C   0  0  0  0  0  0  0  0  0  0  0  0
  142.1430   77.2270  219.5240 C   0  0  0  0  0  0  0  0  0  0  0  0
  141.8200   78.5430  219.7720 C   0  0  0  0  0  0  0  0  0  0  0  0
  142.0490   79.5090  218.8160 C   0  0  0  0  0  0  0  0  0  0  0  0
  141.7040   80.8970  219.0870 C   0  0  0  0  0  0  0  0  0  0  0  0
  141.9610   81.8520  218.1060 C   0  0  0  0  0  0  0  0  0  0  0  0
  141.6480   83.1990  218.3140 C   0  0  0  0  0  0  0  0  0  0  0  0
  141.0730   83.5770  219.5210 C   0  0  0  0  0  0  0  0  0  0  0  0
  140.8140   82.6230  220.5070 C   0  0  0  0  0  0  0  0  0  0  0  0
  141.1250   81.2850  220.3010 C   0  0  0  0  0  0  0  0  0  0  0  0
  142.6070   79.0970  217.6250 C   0  0  0  0  0  0  0  0  0  0  0  0
  142.9250   77.7780  217.3860 C   0  0  0  0  0  0  0  0  0  0  0  0
  140.1890   77.2000  222.5130 C   0  0  0  0  0  0  0  0  0  0  0  0
  139.1170   78.0500  222.7490 C   0  0  0  0  0  0  0  0  0  0  0  0
  139.3070   79.3800  223.1010 C   0  0  0  0  0  0  0  0  0  0  0  0
  140.5760   79.9070  223.2290 C   0  0  0  0  0  0  0  0  0  0  0  0
  140.8200   81.2200  223.5760 C   0  0  0  0  0  0  0  0  0  0  0  0
  142.1420   81.6380  223.6740 C   0  0  0  0  0  0  0  0  0  0  0  0
  143.1950   80.7660  223.4320 C   0  0  0  0  0  0  0  0  0  0  0  0
  142.9540   79.4360  223.0810 C   0  0  0  0  0  0  0  0  0  0  0  0
  141.6270   79.0330  222.9860 C   0  0  0  0  0  0  0  0  0  0  0  0
  141.4130   77.7430  222.6450 N   0  0  0  0  0  0  0  0  0  0  0  0
  142.0900   75.4530  221.8570 H   0  0  0  0  0  0  0  0  0  0  0  0
  141.1956   73.0053  222.3029 H   0  0  0  0  0  0  0  0  0  0  0  0
  139.8491   73.5125  221.2104 H   0  0  0  0  0  0  0  0  0  0  0  0
  143.7065   71.7860  221.6266 H   0  0  0  0  0  0  0  0  0  0  0  0
  143.9006   71.4268  219.8870 H   0  0  0  0  0  0  0  0  0  0  0  0
  145.9194   72.3240  221.6008 H   0  0  0  0  0  0  0  0  0  0  0  0
  146.0051   72.3981  219.8504 H   0  0  0  0  0  0  0  0  0  0  0  0
  145.1548   74.5370  221.8478 H   0  0  0  0  0  0  0  0  0  0  0  0
  146.0943   74.7532  220.3725 H   0  0  0  0  0  0  0  0  0  0  0  0
  143.6072   75.4694  220.4231 H   0  0  0  0  0  0  0  0  0  0  0  0
  145.0445   75.1291  218.3675 H   0  0  0  0  0  0  0  0  0  0  0  0
  143.9856   73.6534  218.1615 H   0  0  0  0  0  0  0  0  0  0  0  0
  142.4440   74.9790  217.2960 H   0  0  0  0  0  0  0  0  0  0  0  0
  141.9441   76.4889  220.3150 H   0  0  0  0  0  0  0  0  0  0  0  0
  141.3768   78.8245  220.7386 H   0  0  0  0  0  0  0  0  0  0  0  0
  142.4167   81.5421  217.1540 H   0  0  0  0  0  0  0  0  0  0  0  0
  141.8537   83.9473  217.5344 H   0  0  0  0  0  0  0  0  0  0  0  0
  140.8207   84.6325  219.7006 H   0  0  0  0  0  0  0  0  0  0  0  0
  140.3582   82.9347  221.4584 H   0  0  0  0  0  0  0  0  0  0  0  0
  140.9187   80.5390  221.0827 H   0  0  0  0  0  0  0  0  0  0  0  0
  142.8044   79.8437  216.8418 H   0  0  0  0  0  0  0  0  0  0  0  0
  143.3669   77.4999  216.4178 H   0  0  0  0  0  0  0  0  0  0  0  0
  138.0925   77.6607  222.6549 H   0  0  0  0  0  0  0  0  0  0  0  0
  138.4328   80.0230  223.2805 H   0  0  0  0  0  0  0  0  0  0  0  0
  139.9911   81.9167  223.7697 H   0  0  0  0  0  0  0  0  0  0  0  0
  142.3584   82.6809  223.9489 H   0  0  0  0  0  0  0  0  0  0  0  0
  144.2306   81.1268  223.5177 H   0  0  0  0  0  0  0  0  0  0  0  0
  143.7802   78.7361  222.8876 H   0  0  0  0  0  0  0  0  0  0  0  0
  1  2  2  0
  2  3  1  0
  3  4  1  0
  4  5  1  0
  5  6  2  0
  5  7  1  0
  7  8  1  0
  8  9  1  0
  9 10  1  0
 10 11  1  0
 11 12  1  0
 12 13  1  0
 13 14  1  0
 14 15  2  0
 15 16  1  0
 16 17  2  0
 17 18  1  0
 18 19  2  0
 19 20  1  0
 20 21  2  0
 21 22  1  0
 22 23  2  0
 17 24  1  0
 24 25  2  0
  2 26  1  0
 26 27  2  0
 27 28  1  0
 28 29  2  0
 29 30  1  0
 30 31  2  0
 31 32  1  0
 32 33  2  0
 33 34  1  0
 34 35  2  0
 11  7  1  0
 25 14  1  0
 35 26  1  0
 23 18  1  0
 34 29  1  0
  3 36  1  0
  4 37  1  0
  4 38  1  0
  8 39  1  0
  8 40  1  0
  9 41  1  0
  9 42  1  0
 10 43  1  0
 10 44  1  0
 11 45  1  1
 12 46  1  0
 12 47  1  0
 13 48  1  0
 15 49  1  0
 16 50  1  0
 19 51  1  0
 20 52  1  0
 21 53  1  0
 22 54  1  0
 23 55  1  0
 24 56  1  0
 25 57  1  0
 27 58  1  0
 28 59  1  0
 30 60  1  0
 31 61  1  0
 32 62  1  0
 33 63  1  0
M  END
>  <smiles>  (19) 
O=C(NCC(=O)N1CCC[C@H]1CNc1ccc(-c2ccccc2)cc1)c1ccc2ccccc2n1

>  <score_type>  (19) 
oracle

>  <origin>  (19) 
autodockgpu

>  <m_score__min__energy>  (19) 
-9.8300000000000001

>  <m_primary>  (19) 
energy

>  <rmsd>  (19) 
7.241312505525545

>  <m_score__min__rmsd>  (19) 
7.241312505525545

>  <meeko>  (19) 
{"free_energy": -8.2, "intermolecular_energy": -10.59, "internal_energy": -3.8, "cluster_size": 10, "cluster_id": 7, "rank_in_cluster": 1}

>  <energy>  (19) 
-8.69

>  <cluster_rmsd>  (19) 
1.76

>  <cluster>  (19) 
3

$$$$

     RDKit          3D

 63 67  0  0  0  0  0  0  0  0999 V2000
  140.3950   71.8680  221.4680 O   0  0  0  0  0  0  0  0  0  0  0  0
  139.5950   72.0290  222.4260 C   0  0  0  0  0  0  0  0  0  0  0  0
  138.4540   72.8860  222.3500 N   0  0  0  0  0  0  0  0  0  0  0  0
  138.2330   73.5870  221.1180 C   0  0  0  0  0  0  0  0  0  0  0  0
  137.7420   72.6740  220.0800 C   0  0  0  0  0  0  0  0  0  0  0  0
  136.8760   71.8130  220.3830 O   0  0  0  0  0  0  0  0  0  0  0  0
  138.2260   72.7500  218.7530 N   0  0  0  0  0  0  0  0  0  0  0  0
  137.4170   72.8490  217.5630 C   0  0  0  0  0  0  0  0  0  0  0  0
  138.3240   72.7750  216.3760 C   0  0  0  0  0  0  0  0  0  0  0  0
  139.6170   72.2410  216.9510 C   0  0  0  0  0  0  0  0  0  0  0  0
  139.6410   72.7390  218.3430 C   0  0  1  0  0  0  0  0  0  0  0  0
  140.1820   74.0990  218.5600 C   0  0  0  0  0  0  0  0  0  0  0  0
  140.8120   74.2680  219.8330 N   0  0  0  0  0  0  0  0  0  0  0  0
  141.0050   75.4470  220.5540 C   0  0  0  0  0  0  0  0  0  0  0  0
  140.7130   75.6470  221.8840 C   0  0  0  0  0  0  0  0  0  0  0  0
  140.9140   76.8360  222.5470 C   0  0  0  0  0  0  0  0  0  0  0  0
  141.4380   77.9250  221.8830 C   0  0  0  0  0  0  0  0  0  0  0  0
  141.6460   79.1790  222.5920 C   0  0  0  0  0  0  0  0  0  0  0  0
  140.5640   80.0390  222.7580 C   0  0  0  0  0  0  0  0  0  0  0  0
  140.7080   81.2560  223.4320 C   0  0  0  0  0  0  0  0  0  0  0  0
  141.9550   81.6000  223.9390 C   0  0  0  0  0  0  0  0  0  0  0  0
  143.0430   80.7400  223.7750 C   0  0  0  0  0  0  0  0  0  0  0  0
  142.9000   79.5320  223.1060 C   0  0  0  0  0  0  0  0  0  0  0  0
  141.7430   77.7620  220.5490 C   0  0  0  0  0  0  0  0  0  0  0  0
  141.5370   76.5680  219.8940 C   0  0  0  0  0  0  0  0  0  0  0  0
  139.8230   71.3160  223.6770 C   0  0  0  0  0  0  0  0  0  0  0  0
  139.5340   69.9620  223.7930 C   0  0  0  0  0  0  0  0  0  0  0  0
  139.7450   69.2720  224.9790 C   0  0  0  0  0  0  0  0  0  0  0  0
  140.2530   69.9110  226.0930 C   0  0  0  0  0  0  0  0  0  0  0  0
  140.4820   69.2720  227.2940 C   0  0  0  0  0  0  0  0  0  0  0  0
  140.9960   70.0200  228.3470 C   0  0  0  0  0  0  0  0  0  0  0  0
  141.2760   71.3720  228.2030 C   0  0  0  0  0  0  0  0  0  0  0  0
  141.0460   72.0240  226.9900 C   0  0  0  0  0  0  0  0  0  0  0  0
  140.5310   71.2630  225.9460 C   0  0  0  0  0  0  0  0  0  0  0  0
  140.3150   71.9100  224.7800 N   0  0  0  0  0  0  0  0  0  0  0  0
  137.8100   72.9890  223.1820 H   0  0  0  0  0  0  0  0  0  0  0  0
  137.4884   74.3797  221.2827 H   0  0  0  0  0  0  0  0  0  0  0  0
  139.1867   74.0211  220.7834 H   0  0  0  0  0  0  0  0  0  0  0  0
  136.6953   72.0194  217.5329 H   0  0  0  0  0  0  0  0  0  0  0  0
  136.8608   73.7980  217.5586 H   0  0  0  0  0  0  0  0  0  0  0  0
  137.9203   72.0910  215.6150 H   0  0  0  0  0  0  0  0  0  0  0  0
  138.4482   73.7444  215.8712 H   0  0  0  0  0  0  0  0  0  0  0  0
  139.6253   71.1412  216.9320 H   0  0  0  0  0  0  0  0  0  0  0  0
  140.4956   72.5687  216.3759 H   0  0  0  0  0  0  0  0  0  0  0  0
  140.3172   72.0863  218.9146 H   0  0  0  0  0  0  0  0  0  0  0  0
  140.9233   74.3078  217.7746 H   0  0  0  0  0  0  0  0  0  0  0  0
  139.3302   74.7942  218.5266 H   0  0  0  0  0  0  0  0  0  0  0  0
  141.1810   73.3720  220.2790 H   0  0  0  0  0  0  0  0  0  0  0  0
  140.2929   74.8041  222.4523 H   0  0  0  0  0  0  0  0  0  0  0  0
  140.6551   76.9182  223.6129 H   0  0  0  0  0  0  0  0  0  0  0  0
  139.5809   79.7571  222.3529 H   0  0  0  0  0  0  0  0  0  0  0  0
  139.8479   81.9299  223.5587 H   0  0  0  0  0  0  0  0  0  0  0  0
  142.0858   82.5535  224.4717 H   0  0  0  0  0  0  0  0  0  0  0  0
  144.0254   81.0232  224.1809 H   0  0  0  0  0  0  0  0  0  0  0  0
  143.7617   78.8598  222.9811 H   0  0  0  0  0  0  0  0  0  0  0  0
  142.1637   78.6111  219.9904 H   0  0  0  0  0  0  0  0  0  0  0  0
  141.7953   76.4898  218.8276 H   0  0  0  0  0  0  0  0  0  0  0  0
  139.1281   69.4236  222.9239 H   0  0  0  0  0  0  0  0  0  0  0  0
  139.5039   68.2001  225.0323 H   0  0  0  0  0  0  0  0  0  0  0  0
  140.2640   68.2006  227.4150 H   0  0  0  0  0  0  0  0  0  0  0  0
  141.1847   69.5306  229.3139 H   0  0  0  0  0  0  0  0  0  0  0  0
  141.6839   71.9363  229.0546 H   0  0  0  0  0  0  0  0  0  0  0  0
  141.2631   73.0951  226.8652 H   0  0  0  0  0  0  0  0  0  0  0  0
  1  2  2  0
  2  3  1  0
  3  4  1  0
  4  5  1  0
  5  6  2  0
  5  7  1  0
  7  8  1  0
  8  9  1  0
  9 10  1  0
 10 11  1  0
 11 12  1  0
 12 13  1  0
 13 14  1  0
 14 15  2  0
 15 16  1  0
 16 17  2  0
 17 18  1  0
 18 19  2  0
 19 20  1  0
 20 21  2  0
 21 22  1  0
 22 23  2  0
 17 24  1  0
 24 25  2  0
  2 26  1  0
 26 27  2  0
 27 28  1  0
 28 29  2  0
 29 30  1  0
 30 31  2  0
 31 32  1  0
 32 33  2  0
 33 34  1  0
 34 35  2  0
 11  7  1  0
 25 14  1  0
 35 26  1  0
 23 18  1  0
 34 29  1  0
  3 36  1  0
  4 37  1  0
  4 38  1  0
  8 39  1  0
  8 40  1  0
  9 41  1  0
  9 42  1  0
 10 43  1  0
 10 44  1  0
 11 45  1  1
 12 46  1  0
 12 47  1  0
 13 48  1  0
 15 49  1  0
 16 50  1  0
 19 51  1  0
 20 52  1  0
 21 53  1  0
 22 54  1  0
 23 55  1  0
 24 56  1  0
 25 57  1  0
 27 58  1  0
 28 59  1  0
 30 60  1  0
 31 61  1  0
 32 62  1  0
 33 63  1  0
M  END
>  <smiles>  (20) 
O=C(NCC(=O)N1CCC[C@H]1CNc1ccc(-c2ccccc2)cc1)c1ccc2ccccc2n1

>  <score_type>  (20) 
oracle

>  <origin>  (20) 
autodockgpu

>  <m_score__min__energy>  (20) 
-9.8300000000000001

>  <m_primary>  (20) 
energy

>  <rmsd>  (20) 
3.4119706203109064

>  <m_score__min__rmsd>  (20) 
3.4119706203109064

>  <meeko>  (20) 
{"free_energy": -8.46, "intermolecular_energy": -10.85, "internal_energy": -2.73, "cluster_size": 1, "cluster_id": 6, "rank_in_cluster": 1}

>  <energy>  (20) 
-8.43

>  <cluster_rmsd>  (20) 
1.89

>  <cluster>  (20) 
3

$$$$

     RDKit          3D

 63 67  0  0  0  0  0  0  0  0999 V2000
  141.0800   71.9840  221.6480 O   0  0  0  0  0  0  0  0  0  0  0  0
  140.2190   72.3420  222.4940 C   0  0  0  0  0  0  0  0  0  0  0  0
  139.4110   73.5090  222.3330 N   0  0  0  0  0  0  0  0  0  0  0  0
  139.6070   74.2930  221.1480 C   0  0  0  0  0  0  0  0  0  0  0  0
  140.6900   75.2620  221.3370 C   0  0  0  0  0  0  0  0  0  0  0  0
  141.8830   74.8770  221.2210 O   0  0  0  0  0  0  0  0  0  0  0  0
  140.4140   76.6150  221.6460 N   0  0  0  0  0  0  0  0  0  0  0  0
  141.2460   77.7450  221.3120 C   0  0  0  0  0  0  0  0  0  0  0  0
  140.6450   78.9650  221.9350 C   0  0  0  0  0  0  0  0  0  0  0  0
  139.6700   78.4040  222.9450 C   0  0  0  0  0  0  0  0  0  0  0  0
  139.2310   77.1170  222.3660 C   0  0  1  0  0  0  0  0  0  0  0  0
  138.1070   77.1630  221.4040 C   0  0  0  0  0  0  0  0  0  0  0  0
  136.8240   76.9960  222.0140 N   0  0  0  0  0  0  0  0  0  0  0  0
  136.3600   75.9210  222.7740 C   0  0  0  0  0  0  0  0  0  0  0  0
  135.7930   75.9910  224.0250 C   0  0  0  0  0  0  0  0  0  0  0  0
  135.3590   74.8960  224.7380 C   0  0  0  0  0  0  0  0  0  0  0  0
  135.4790   73.6280  224.2090 C   0  0  0  0  0  0  0  0  0  0  0  0
  135.0190   72.4760  224.9710 C   0  0  0  0  0  0  0  0  0  0  0  0
  135.4720   71.2110  224.6060 C   0  0  0  0  0  0  0  0  0  0  0  0
  135.0620   70.0700  225.3030 C   0  0  0  0  0  0  0  0  0  0  0  0
  134.1900   70.2150  226.3750 C   0  0  0  0  0  0  0  0  0  0  0  0
  133.7330   71.4810  226.7440 C   0  0  0  0  0  0  0  0  0  0  0  0
  134.1390   72.6140  226.0510 C   0  0  0  0  0  0  0  0  0  0  0  0
  136.0430   73.5190  222.9570 C   0  0  0  0  0  0  0  0  0  0  0  0
  136.4740   74.6210  222.2520 C   0  0  0  0  0  0  0  0  0  0  0  0
  140.0220   71.5430  223.6980 C   0  0  0  0  0  0  0  0  0  0  0  0
  139.2530   70.3870  223.6720 C   0  0  0  0  0  0  0  0  0  0  0  0
  139.0560   69.6180  224.8110 C   0  0  0  0  0  0  0  0  0  0  0  0
  139.6220   69.9780  226.0180 C   0  0  0  0  0  0  0  0  0  0  0  0
  139.4590   69.2500  227.1790 C   0  0  0  0  0  0  0  0  0  0  0  0
  140.0770   69.7110  228.3350 C   0  0  0  0  0  0  0  0  0  0  0  0
  140.8400   70.8700  228.3320 C   0  0  0  0  0  0  0  0  0  0  0  0
  141.0100   71.6110  227.1600 C   0  0  0  0  0  0  0  0  0  0  0  0
  140.3850   71.1380  226.0120 C   0  0  0  0  0  0  0  0  0  0  0  0
  140.5590   71.8670  224.8880 N   0  0  0  0  0  0  0  0  0  0  0  0
  138.7000   73.7690  223.0710 H   0  0  0  0  0  0  0  0  0  0  0  0
  139.8627   73.6251  220.3122 H   0  0  0  0  0  0  0  0  0  0  0  0
  138.6782   74.8409  220.9307 H   0  0  0  0  0  0  0  0  0  0  0  0
  142.2620   77.5885  221.7034 H   0  0  0  0  0  0  0  0  0  0  0  0
  141.3057   77.8647  220.2202 H   0  0  0  0  0  0  0  0  0  0  0  0
  141.4161   79.5740  222.4296 H   0  0  0  0  0  0  0  0  0  0  0  0
  140.1653   79.6283  221.2002 H   0  0  0  0  0  0  0  0  0  0  0  0
  140.1643   78.2449  223.9147 H   0  0  0  0  0  0  0  0  0  0  0  0
  138.8272   79.0852  223.1335 H   0  0  0  0  0  0  0  0  0  0  0  0
  138.8541   76.4963  223.1922 H   0  0  0  0  0  0  0  0  0  0  0  0
  138.1254   78.1375  220.8940 H   0  0  0  0  0  0  0  0  0  0  0  0
  138.2445   76.3233  220.7069 H   0  0  0  0  0  0  0  0  0  0  0  0
  136.1400   77.8000  221.8620 H   0  0  0  0  0  0  0  0  0  0  0  0
  135.6791   76.9838  224.4847 H   0  0  0  0  0  0  0  0  0  0  0  0
  134.9143   75.0332  225.7347 H   0  0  0  0  0  0  0  0  0  0  0  0
  136.1630   71.1075  223.7564 H   0  0  0  0  0  0  0  0  0  0  0  0
  135.4239   69.0742  225.0074 H   0  0  0  0  0  0  0  0  0  0  0  0
  133.8585   69.3283  226.9352 H   0  0  0  0  0  0  0  0  0  0  0  0
  133.0426   71.5827  227.5943 H   0  0  0  0  0  0  0  0  0  0  0  0
  133.7734   73.6083  226.3473 H   0  0  0  0  0  0  0  0  0  0  0  0
  136.1525   72.5215  222.5065 H   0  0  0  0  0  0  0  0  0  0  0  0
  136.9185   74.4802  221.2557 H   0  0  0  0  0  0  0  0  0  0  0  0
  138.7885   70.0729  222.7257 H   0  0  0  0  0  0  0  0  0  0  0  0
  138.4400   68.7086  224.7511 H   0  0  0  0  0  0  0  0  0  0  0  0
  138.8563   68.3299  227.1890 H   0  0  0  0  0  0  0  0  0  0  0  0
  139.9590   69.1458  229.2713 H   0  0  0  0  0  0  0  0  0  0  0  0
  141.3166   71.2093  229.2635 H   0  0  0  0  0  0  0  0  0  0  0  0
  141.6134   72.5306  227.1462 H   0  0  0  0  0  0  0  0  0  0  0  0
  1  2  2  0
  2  3  1  0
  3  4  1  0
  4  5  1  0
  5  6  2  0
  5  7  1  0
  7  8  1  0
  8  9  1  0
  9 10  1  0
 10 11  1  0
 11 12  1  0
 12 13  1  0
 13 14  1  0
 14 15  2  0
 15 16  1  0
 16 17  2  0
 17 18  1  0
 18 19  2  0
 19 20  1  0
 20 21  2  0
 21 22  1  0
 22 23  2  0
 17 24  1  0
 24 25  2  0
  2 26  1  0
 26 27  2  0
 27 28  1  0
 28 29  2  0
 29 30  1  0
 30 31  2  0
 31 32  1  0
 32 33  2  0
 33 34  1  0
 34 35  2  0
 11  7  1  0
 25 14  1  0
 35 26  1  0
 23 18  1  0
 34 29  1  0
  3 36  1  0
  4 37  1  0
  4 38  1  0
  8 39  1  0
  8 40  1  0
  9 41  1  0
  9 42  1  0
 10 43  1  0
 10 44  1  0
 11 45  1  1
 12 46  1  0
 12 47  1  0
 13 48  1  0
 15 49  1  0
 16 50  1  0
 19 51  1  0
 20 52  1  0
 21 53  1  0
 22 54  1  0
 23 55  1  0
 24 56  1  0
 25 57  1  0
 27 58  1  0
 28 59  1  0
 30 60  1  0
 31 61  1  0
 32 62  1  0
 33 63  1  0
M  END
>  <smiles>  (21) 
O=C(NCC(=O)N1CCC[C@H]1CNc1ccc(-c2ccccc2)cc1)c1ccc2ccccc2n1

>  <score_type>  (21) 
oracle

>  <origin>  (21) 
autodockgpu

>  <m_score__min__energy>  (21) 
-9.8300000000000001

>  <m_primary>  (21) 
energy

>  <rmsd>  (21) 
5.499543431905406

>  <m_score__min__rmsd>  (21) 
5.499543431905406

>  <meeko>  (21) 
{"free_energy": -8.8, "intermolecular_energy": -11.18, "internal_energy": -2.67, "cluster_size": 5, "cluster_id": 5, "rank_in_cluster": 1}

>  <energy>  (21) 
-8.42

>  <cluster_rmsd>  (21) 
1.74

>  <cluster>  (21) 
3

$$$$

     RDKit          3D

 63 67  0  0  0  0  0  0  0  0999 V2000
  139.8770   74.8580  221.9280 O   0  0  0  0  0  0  0  0  0  0  0  0
  140.3880   75.8330  221.3190 C   0  0  0  0  0  0  0  0  0  0  0  0
  140.9370   75.7270  220.0040 N   0  0  0  0  0  0  0  0  0  0  0  0
  140.8940   74.4400  219.3700 C   0  0  0  0  0  0  0  0  0  0  0  0
  141.8980   73.5410  219.9460 C   0  0  0  0  0  0  0  0  0  0  0  0
  142.8230   74.0270  220.6480 O   0  0  0  0  0  0  0  0  0  0  0  0
  141.8420   72.1450  219.7250 N   0  0  0  0  0  0  0  0  0  0  0  0
  142.7090   71.1590  220.3210 C   0  0  0  0  0  0  0  0  0  0  0  0
  142.3850   69.8290  219.7180 C   0  0  0  0  0  0  0  0  0  0  0  0
  141.5770   70.1840  218.4900 C   0  0  0  0  0  0  0  0  0  0  0  0
  140.8900   71.4430  218.8450 C   0  0  1  0  0  0  0  0  0  0  0  0
  139.6080   71.3250  219.5750 C   0  0  0  0  0  0  0  0  0  0  0  0
  139.5910   72.0320  220.8190 N   0  0  0  0  0  0  0  0  0  0  0  0
  139.8010   71.5290  222.1040 C   0  0  0  0  0  0  0  0  0  0  0  0
  140.4680   72.1590  223.1280 C   0  0  0  0  0  0  0  0  0  0  0  0
  140.6560   71.6130  224.3780 C   0  0  0  0  0  0  0  0  0  0  0  0
  140.1650   70.3590  224.6710 C   0  0  0  0  0  0  0  0  0  0  0  0
  140.3700   69.7890  225.9950 C   0  0  0  0  0  0  0  0  0  0  0  0
  140.6700   70.6450  227.0510 C   0  0  0  0  0  0  0  0  0  0  0  0
  140.8750   70.1500  228.3430 C   0  0  0  0  0  0  0  0  0  0  0  0
  140.7760   68.7820  228.5620 C   0  0  0  0  0  0  0  0  0  0  0  0
  140.4770   67.9200  227.5060 C   0  0  0  0  0  0  0  0  0  0  0  0
  140.2730   68.4110  226.2240 C   0  0  0  0  0  0  0  0  0  0  0  0
  139.4910   69.6960  223.6690 C   0  0  0  0  0  0  0  0  0  0  0  0
  139.3080   70.2510  222.4220 C   0  0  0  0  0  0  0  0  0  0  0  0
  140.4310   77.1390  221.9650 C   0  0  0  0  0  0  0  0  0  0  0  0
  139.2750   77.7340  222.4550 C   0  0  0  0  0  0  0  0  0  0  0  0
  139.3020   78.9780  223.0710 C   0  0  0  0  0  0  0  0  0  0  0  0
  140.4860   79.6720  223.2210 C   0  0  0  0  0  0  0  0  0  0  0  0
  140.5670   80.9100  223.8260 C   0  0  0  0  0  0  0  0  0  0  0  0
  141.8160   81.5130  223.9190 C   0  0  0  0  0  0  0  0  0  0  0  0
  142.9550   80.8960  223.4210 C   0  0  0  0  0  0  0  0  0  0  0  0
  142.8790   79.6430  222.8090 C   0  0  0  0  0  0  0  0  0  0  0  0
  141.6240   79.0520  222.7220 C   0  0  0  0  0  0  0  0  0  0  0  0
  141.5680   77.8410  222.1260 N   0  0  0  0  0  0  0  0  0  0  0  0
  141.3560   76.5750  219.5320 H   0  0  0  0  0  0  0  0  0  0  0  0
  139.8948   74.0020  219.5109 H   0  0  0  0  0  0  0  0  0  0  0  0
  141.1091   74.5678  218.2988 H   0  0  0  0  0  0  0  0  0  0  0  0
  143.7594   71.4146  220.1175 H   0  0  0  0  0  0  0  0  0  0  0  0
  142.5600   71.1296  221.4105 H   0  0  0  0  0  0  0  0  0  0  0  0
  143.3025   69.2887  219.4420 H   0  0  0  0  0  0  0  0  0  0  0  0
  141.8440   69.1661  220.4093 H   0  0  0  0  0  0  0  0  0  0  0  0
  142.2357   70.3329  217.6217 H   0  0  0  0  0  0  0  0  0  0  0  0
  140.8704   69.3881  218.2119 H   0  0  0  0  0  0  0  0  0  0  0  0
  140.6197   71.9468  217.9053 H   0  0  0  0  0  0  0  0  0  0  0  0
  138.8061   71.7245  218.9367 H   0  0  0  0  0  0  0  0  0  0  0  0
  139.4654   70.2593  219.8072 H   0  0  0  0  0  0  0  0  0  0  0  0
  139.3890   73.0770  220.7450 H   0  0  0  0  0  0  0  0  0  0  0  0
  140.8771   73.1620  222.9367 H   0  0  0  0  0  0  0  0  0  0  0  0
  141.2009   72.1806  225.1467 H   0  0  0  0  0  0  0  0  0  0  0  0
  140.7470   71.7267  226.8666 H   0  0  0  0  0  0  0  0  0  0  0  0
  141.1108   70.8331  229.1723 H   0  0  0  0  0  0  0  0  0  0  0  0
  140.9340   68.3763  229.5722 H   0  0  0  0  0  0  0  0  0  0  0  0
  140.4021   66.8384  227.6919 H   0  0  0  0  0  0  0  0  0  0  0  0
  140.0377   67.7251  225.3968 H   0  0  0  0  0  0  0  0  0  0  0  0
  139.0868   68.6931  223.8711 H   0  0  0  0  0  0  0  0  0  0  0  0
  138.7627   69.6805  221.6557 H   0  0  0  0  0  0  0  0  0  0  0  0
  138.3151   77.2067  222.3524 H   0  0  0  0  0  0  0  0  0  0  0  0
  138.3656   79.4174  223.4453 H   0  0  0  0  0  0  0  0  0  0  0  0
  139.6687   81.4053  224.2232 H   0  0  0  0  0  0  0  0  0  0  0  0
  141.9034   82.4997  224.3973 H   0  0  0  0  0  0  0  0  0  0  0  0
  143.9289   81.3997  223.5093 H   0  0  0  0  0  0  0  0  0  0  0  0
  143.7755   79.1443  222.4121 H   0  0  0  0  0  0  0  0  0  0  0  0
  1  2  2  0
  2  3  1  0
  3  4  1  0
  4  5  1  0
  5  6  2  0
  5  7  1  0
  7  8  1  0
  8  9  1  0
  9 10  1  0
 10 11  1  0
 11 12  1  0
 12 13  1  0
 13 14  1  0
 14 15  2  0
 15 16  1  0
 16 17  2  0
 17 18  1  0
 18 19  2  0
 19 20  1  0
 20 21  2  0
 21 22  1  0
 22 23  2  0
 17 24  1  0
 24 25  2  0
  2 26  1  0
 26 27  2  0
 27 28  1  0
 28 29  2  0
 29 30  1  0
 30 31  2  0
 31 32  1  0
 32 33  2  0
 33 34  1  0
 34 35  2  0
 11  7  1  0
 25 14  1  0
 35 26  1  0
 23 18  1  0
 34 29  1  0
  3 36  1  0
  4 37  1  0
  4 38  1  0
  8 39  1  0
  8 40  1  0
  9 41  1  0
  9 42  1  0
 10 43  1  0
 10 44  1  0
 11 45  1  6
 12 46  1  0
 12 47  1  0
 13 48  1  0
 15 49  1  0
 16 50  1  0
 19 51  1  0
 20 52  1  0
 21 53  1  0
 22 54  1  0
 23 55  1  0
 24 56  1  0
 25 57  1  0
 27 58  1  0
 28 59  1  0
 30 60  1  0
 31 61  1  0
 32 62  1  0
 33 63  1  0
M  END
>  <smiles>  (22) 
O=C(NCC(=O)N1CCC[C@H]1CNc1ccc(-c2ccccc2)cc1)c1ccc2ccccc2n1

>  <score_type>  (22) 
oracle

>  <origin>  (22) 
autodockgpu

>  <m_score__min__energy>  (22) 
-9.8300000000000001

>  <m_primary>  (22) 
energy

>  <rmsd>  (22) 
8.81512434142155

>  <m_score__min__rmsd>  (22) 
8.81512434142155

>  <meeko>  (22) 
{"free_energy": -8.7, "intermolecular_energy": -11.09, "internal_energy": -3.01, "cluster_size": 7, "cluster_id": 4, "rank_in_cluster": 3}

>  <energy>  (22) 
-8.29

>  <cluster_rmsd>  (22) 
1.74

>  <cluster>  (22) 
3

$$$$

     RDKit          3D

 63 67  0  0  0  0  0  0  0  0999 V2000
  139.7190   74.8980  221.9500 O   0  0  0  0  0  0  0  0  0  0  0  0
  140.1370   75.8870  221.2920 C   0  0  0  0  0  0  0  0  0  0  0  0
  140.4960   75.8060  219.9120 N   0  0  0  0  0  0  0  0  0  0  0  0
  140.3700   74.5300  219.2680 C   0  0  0  0  0  0  0  0  0  0  0  0
  141.2480   73.5390  219.8980 C   0  0  0  0  0  0  0  0  0  0  0  0
  142.2430   73.9350  220.5580 O   0  0  0  0  0  0  0  0  0  0  0  0
  140.9920   72.1530  219.7730 N   0  0  0  0  0  0  0  0  0  0  0  0
  141.7570   71.0940  220.3830 C   0  0  0  0  0  0  0  0  0  0  0  0
  141.2210   69.7880  219.8890 C   0  0  0  0  0  0  0  0  0  0  0  0
  140.3890   70.1780  218.6880 C   0  0  0  0  0  0  0  0  0  0  0  0
  139.9000   71.5380  218.9970 C   0  0  1  0  0  0  0  0  0  0  0  0
  138.6640   71.6390  219.8050 C   0  0  0  0  0  0  0  0  0  0  0  0
  138.8680   72.2280  221.0920 N   0  0  0  0  0  0  0  0  0  0  0  0
  139.1900   71.5950  222.2930 C   0  0  0  0  0  0  0  0  0  0  0  0
  138.6060   70.4570  222.7980 C   0  0  0  0  0  0  0  0  0  0  0  0
  138.9560   69.8760  223.9970 C   0  0  0  0  0  0  0  0  0  0  0  0
  139.9480   70.4320  224.7770 C   0  0  0  0  0  0  0  0  0  0  0  0
  140.3110   69.8120  226.0430 C   0  0  0  0  0  0  0  0  0  0  0  0
  140.2900   68.4230  226.1350 C   0  0  0  0  0  0  0  0  0  0  0  0
  140.6300   67.7760  227.3280 C   0  0  0  0  0  0  0  0  0  0  0  0
  140.9920   68.5420  228.4290 C   0  0  0  0  0  0  0  0  0  0  0  0
  141.0140   69.9350  228.3400 C   0  0  0  0  0  0  0  0  0  0  0  0
  140.6760   70.5780  227.1560 C   0  0  0  0  0  0  0  0  0  0  0  0
  140.5570   71.5730  224.3020 C   0  0  0  0  0  0  0  0  0  0  0  0
  140.1990   72.1470  223.1020 C   0  0  0  0  0  0  0  0  0  0  0  0
  140.2640   77.1820  221.9490 C   0  0  0  0  0  0  0  0  0  0  0  0
  139.1530   77.8360  222.4660 C   0  0  0  0  0  0  0  0  0  0  0  0
  139.2610   79.0700  223.0930 C   0  0  0  0  0  0  0  0  0  0  0  0
  140.4840   79.6960  223.2260 C   0  0  0  0  0  0  0  0  0  0  0  0
  140.6460   80.9200  223.8410 C   0  0  0  0  0  0  0  0  0  0  0  0
  141.9290   81.4520  223.9150 C   0  0  0  0  0  0  0  0  0  0  0  0
  143.0220   80.7770  223.3900 C   0  0  0  0  0  0  0  0  0  0  0  0
  142.8640   79.5360  222.7680 C   0  0  0  0  0  0  0  0  0  0  0  0
  141.5760   79.0180  222.7000 C   0  0  0  0  0  0  0  0  0  0  0  0
  141.4420   77.8170  222.0950 N   0  0  0  0  0  0  0  0  0  0  0  0
  140.8420   76.6650  219.4010 H   0  0  0  0  0  0  0  0  0  0  0  0
  139.3272   74.1886  219.3453 H   0  0  0  0  0  0  0  0  0  0  0  0
  140.6607   74.6378  218.2126 H   0  0  0  0  0  0  0  0  0  0  0  0
  142.8166   71.1914  220.1040 H   0  0  0  0  0  0  0  0  0  0  0  0
  141.6762   71.1486  221.4787 H   0  0  0  0  0  0  0  0  0  0  0  0
  142.0388   69.1124  219.5979 H   0  0  0  0  0  0  0  0  0  0  0  0
  140.6430   69.2464  220.6523 H   0  0  0  0  0  0  0  0  0  0  0  0
  141.0036   70.1846  217.7758 H   0  0  0  0  0  0  0  0  0  0  0  0
  139.5663   69.4714  218.5040 H   0  0  0  0  0  0  0  0  0  0  0  0
  139.6384   72.0186  218.0427 H   0  0  0  0  0  0  0  0  0  0  0  0
  137.9368   72.2526  219.2530 H   0  0  0  0  0  0  0  0  0  0  0  0
  138.3037   70.6133  219.9730 H   0  0  0  0  0  0  0  0  0  0  0  0
  138.7560   73.2890  221.1290 H   0  0  0  0  0  0  0  0  0  0  0  0
  137.8094   69.9808  222.2075 H   0  0  0  0  0  0  0  0  0  0  0  0
  138.4416   68.9639  224.3339 H   0  0  0  0  0  0  0  0  0  0  0  0
  140.0020   67.8258  225.2573 H   0  0  0  0  0  0  0  0  0  0  0  0
  140.6110   66.6781  227.3932 H   0  0  0  0  0  0  0  0  0  0  0  0
  141.2623   68.0490  229.3745 H   0  0  0  0  0  0  0  0  0  0  0  0
  141.3026   70.5309  229.2184 H   0  0  0  0  0  0  0  0  0  0  0  0
  140.6950   71.6761  227.0939 H   0  0  0  0  0  0  0  0  0  0  0  0
  141.3538   72.0400  224.8995 H   0  0  0  0  0  0  0  0  0  0  0  0
  140.7150   73.0594  222.7685 H   0  0  0  0  0  0  0  0  0  0  0  0
  138.1632   77.3646  222.3765 H   0  0  0  0  0  0  0  0  0  0  0  0
  138.3578   79.5564  223.4900 H   0  0  0  0  0  0  0  0  0  0  0  0
  139.7848   81.4602  224.2611 H   0  0  0  0  0  0  0  0  0  0  0  0
  142.0804   82.4278  224.3996 H   0  0  0  0  0  0  0  0  0  0  0  0
  144.0242   81.2242  223.4644 H   0  0  0  0  0  0  0  0  0  0  0  0
  143.7233   78.9915  222.3495 H   0  0  0  0  0  0  0  0  0  0  0  0
  1  2  2  0
  2  3  1  0
  3  4  1  0
  4  5  1  0
  5  6  2  0
  5  7  1  0
  7  8  1  0
  8  9  1  0
  9 10  1  0
 10 11  1  0
 11 12  1  0
 12 13  1  0
 13 14  1  0
 14 15  2  0
 15 16  1  0
 16 17  2  0
 17 18  1  0
 18 19  2  0
 19 20  1  0
 20 21  2  0
 21 22  1  0
 22 23  2  0
 17 24  1  0
 24 25  2  0
  2 26  1  0
 26 27  2  0
 27 28  1  0
 28 29  2  0
 29 30  1  0
 30 31  2  0
 31 32  1  0
 32 33  2  0
 33 34  1  0
 34 35  2  0
 11  7  1  0
 25 14  1  0
 35 26  1  0
 23 18  1  0
 34 29  1  0
  3 36  1  0
  4 37  1  0
  4 38  1  0
  8 39  1  0
  8 40  1  0
  9 41  1  0
  9 42  1  0
 10 43  1  0
 10 44  1  0
 11 45  1  6
 12 46  1  0
 12 47  1  0
 13 48  1  0
 15 49  1  0
 16 50  1  0
 19 51  1  0
 20 52  1  0
 21 53  1  0
 22 54  1  0
 23 55  1  0
 24 56  1  0
 25 57  1  0
 27 58  1  0
 28 59  1  0
 30 60  1  0
 31 61  1  0
 32 62  1  0
 33 63  1  0
M  END
>  <smiles>  (23) 
O=C(NCC(=O)N1CCC[C@H]1CNc1ccc(-c2ccccc2)cc1)c1ccc2ccccc2n1

>  <score_type>  (23) 
oracle

>  <origin>  (23) 
autodockgpu

>  <m_score__min__energy>  (23) 
-9.8300000000000001

>  <m_primary>  (23) 
energy

>  <rmsd>  (23) 
9.00687596245522

>  <m_score__min__rmsd>  (23) 
9.00687596245522

>  <meeko>  (23) 
{"free_energy": -8.69, "intermolecular_energy": -11.08, "internal_energy": -3.01, "cluster_size": 7, "cluster_id": 4, "rank_in_cluster": 4}

>  <energy>  (23) 
-7.66

>  <cluster_rmsd>  (23) 
1.26

>  <cluster>  (23) 
3

$$$$

     RDKit          3D

 63 67  0  0  0  0  0  0  0  0999 V2000
  141.9250   76.2730  218.4710 O   0  0  0  0  0  0  0  0  0  0  0  0
  141.9660   76.4900  219.7100 C   0  0  0  0  0  0  0  0  0  0  0  0
  142.0670   75.4440  220.6790 N   0  0  0  0  0  0  0  0  0  0  0  0
  142.1220   74.0950  220.1940 C   0  0  0  0  0  0  0  0  0  0  0  0
  140.7980   73.6450  219.7540 C   0  0  0  0  0  0  0  0  0  0  0  0
  140.6590   72.4630  219.3450 O   0  0  0  0  0  0  0  0  0  0  0  0
  139.6830   74.5150  219.7850 N   0  0  0  0  0  0  0  0  0  0  0  0
  139.0250   75.0860  218.6360 C   0  0  0  0  0  0  0  0  0  0  0  0
  137.9820   76.0410  219.1230 C   0  0  0  0  0  0  0  0  0  0  0  0
  138.3560   76.2650  220.5720 C   0  0  0  0  0  0  0  0  0  0  0  0
  138.9920   74.9990  220.9930 C   0  0  1  0  0  0  0  0  0  0  0  0
  138.0940   73.9190  221.4590 C   0  0  0  0  0  0  0  0  0  0  0  0
  138.7210   72.6350  221.5080 N   0  0  0  0  0  0  0  0  0  0  0  0
  139.1400   71.9170  222.6300 C   0  0  0  0  0  0  0  0  0  0  0  0
  140.3540   72.0330  223.2650 C   0  0  0  0  0  0  0  0  0  0  0  0
  140.7220   71.2920  224.3660 C   0  0  0  0  0  0  0  0  0  0  0  0
  139.8550   70.3640  224.9030 C   0  0  0  0  0  0  0  0  0  0  0  0
  140.2530   69.5840  226.0670 C   0  0  0  0  0  0  0  0  0  0  0  0
  140.5720   70.2580  227.2430 C   0  0  0  0  0  0  0  0  0  0  0  0
  140.9600   69.5580  228.3900 C   0  0  0  0  0  0  0  0  0  0  0  0
  141.0240   68.1710  228.3420 C   0  0  0  0  0  0  0  0  0  0  0  0
  140.7050   67.4920  227.1640 C   0  0  0  0  0  0  0  0  0  0  0  0
  140.3210   68.1870  226.0250 C   0  0  0  0  0  0  0  0  0  0  0  0
  138.6280   70.2210  224.2920 C   0  0  0  0  0  0  0  0  0  0  0  0
  138.2700   70.9660  223.1910 C   0  0  0  0  0  0  0  0  0  0  0  0
  141.9100   77.8620  220.2000 C   0  0  0  0  0  0  0  0  0  0  0  0
  141.7980   78.9320  219.3210 C   0  0  0  0  0  0  0  0  0  0  0  0
  141.7440   80.2430  219.7740 C   0  0  0  0  0  0  0  0  0  0  0  0
  141.8010   80.5320  221.1220 C   0  0  0  0  0  0  0  0  0  0  0  0
  141.7520   81.8170  221.6250 C   0  0  0  0  0  0  0  0  0  0  0  0
  141.8180   81.9840  223.0030 C   0  0  0  0  0  0  0  0  0  0  0  0
  141.9290   80.8970  223.8590 C   0  0  0  0  0  0  0  0  0  0  0  0
  141.9790   79.5950  223.3560 C   0  0  0  0  0  0  0  0  0  0  0  0
  141.9130   79.4420  221.9760 C   0  0  0  0  0  0  0  0  0  0  0  0
  141.9630   78.1760  221.5070 N   0  0  0  0  0  0  0  0  0  0  0  0
  142.0990   75.6760  221.7100 H   0  0  0  0  0  0  0  0  0  0  0  0
  142.8201   74.0452  219.3454 H   0  0  0  0  0  0  0  0  0  0  0  0
  142.4633   73.4409  221.0099 H   0  0  0  0  0  0  0  0  0  0  0  0
  139.7582   75.6204  218.0141 H   0  0  0  0  0  0  0  0  0  0  0  0
  138.5619   74.2935  218.0298 H   0  0  0  0  0  0  0  0  0  0  0  0
  138.0177   76.9839  218.5576 H   0  0  0  0  0  0  0  0  0  0  0  0
  136.9587   75.6569  218.9994 H   0  0  0  0  0  0  0  0  0  0  0  0
  139.0614   77.1039  220.6658 H   0  0  0  0  0  0  0  0  0  0  0  0
  137.4848   76.5208  221.1929 H   0  0  0  0  0  0  0  0  0  0  0  0
  139.6210   75.2223  221.8674 H   0  0  0  0  0  0  0  0  0  0  0  0
  137.7405   74.1723  222.4694 H   0  0  0  0  0  0  0  0  0  0  0  0
  137.2703   73.8485  220.7333 H   0  0  0  0  0  0  0  0  0  0  0  0
  138.8870   72.1740  220.5600 H   0  0  0  0  0  0  0  0  0  0  0  0
  141.0758   72.7626  222.8692 H   0  0  0  0  0  0  0  0  0  0  0  0
  141.7130   71.4413  224.8195 H   0  0  0  0  0  0  0  0  0  0  0  0
  140.5181   71.3563  227.2703 H   0  0  0  0  0  0  0  0  0  0  0  0
  141.2105   70.0971  229.3155 H   0  0  0  0  0  0  0  0  0  0  0  0
  141.3271   67.6054  229.2354 H   0  0  0  0  0  0  0  0  0  0  0  0
  140.7586   66.3936  227.1382 H   0  0  0  0  0  0  0  0  0  0  0  0
  140.0730   67.6456  225.1001 H   0  0  0  0  0  0  0  0  0  0  0  0
  137.9130   69.4894  224.6963 H   0  0  0  0  0  0  0  0  0  0  0  0
  137.2788   70.8133  222.7392 H   0  0  0  0  0  0  0  0  0  0  0  0
  141.7510   78.7355  218.2397 H   0  0  0  0  0  0  0  0  0  0  0  0
  141.6544   81.0639  219.0473 H   0  0  0  0  0  0  0  0  0  0  0  0
  141.6632   82.6840  220.9539 H   0  0  0  0  0  0  0  0  0  0  0  0
  141.7815   82.9994  223.4245 H   0  0  0  0  0  0  0  0  0  0  0  0
  141.9781   81.0628  224.9453 H   0  0  0  0  0  0  0  0  0  0  0  0
  142.0670   78.7260  224.0247 H   0  0  0  0  0  0  0  0  0  0  0  0
  1  2  2  0
  2  3  1  0
  3  4  1  0
  4  5  1  0
  5  6  2  0
  5  7  1  0
  7  8  1  0
  8  9  1  0
  9 10  1  0
 10 11  1  0
 11 12  1  0
 12 13  1  0
 13 14  1  0
 14 15  2  0
 15 16  1  0
 16 17  2  0
 17 18  1  0
 18 19  2  0
 19 20  1  0
 20 21  2  0
 21 22  1  0
 22 23  2  0
 17 24  1  0
 24 25  2  0
  2 26  1  0
 26 27  2  0
 27 28  1  0
 28 29  2  0
 29 30  1  0
 30 31  2  0
 31 32  1  0
 32 33  2  0
 33 34  1  0
 34 35  2  0
 11  7  1  0
 25 14  1  0
 35 26  1  0
 23 18  1  0
 34 29  1  0
  3 36  1  0
  4 37  1  0
  4 38  1  0
  8 39  1  0
  8 40  1  0
  9 41  1  0
  9 42  1  0
 10 43  1  0
 10 44  1  0
 11 45  1  1
 12 46  1  0
 12 47  1  0
 13 48  1  0
 15 49  1  0
 16 50  1  0
 19 51  1  0
 20 52  1  0
 21 53  1  0
 22 54  1  0
 23 55  1  0
 24 56  1  0
 25 57  1  0
 27 58  1  0
 28 59  1  0
 30 60  1  0
 31 61  1  0
 32 62  1  0
 33 63  1  0
M  END
>  <smiles>  (24) 
O=C(NCC(=O)N1CCC[C@H]1CNc1ccc(-c2ccccc2)cc1)c1ccc2ccccc2n1

>  <score_type>  (24) 
oracle

>  <origin>  (24) 
autodockgpu

>  <m_score__min__energy>  (24) 
-9.8300000000000001

>  <m_primary>  (24) 
energy

>  <rmsd>  (24) 
8.933253986793392

>  <m_score__min__rmsd>  (24) 
8.933253986793392

>  <meeko>  (24) 
{"free_energy": -8.28, "intermolecular_energy": -10.66, "internal_energy": -3.21, "cluster_size": 7, "cluster_id": 4, "rank_in_cluster": 7}

>  <energy>  (24) 
-8.98

>  <cluster_rmsd>  (24) 
0.0

>  <cluster>  (24) 
4

$$$$

     RDKit          3D

 63 67  0  0  0  0  0  0  0  0999 V2000
  140.1350   72.8140  222.5350 O   0  0  0  0  0  0  0  0  0  0  0  0
  140.0280   71.5800  222.7570 C   0  0  0  0  0  0  0  0  0  0  0  0
  139.7500   70.6280  221.7290 N   0  0  0  0  0  0  0  0  0  0  0  0
  139.5860   71.1240  220.3930 C   0  0  0  0  0  0  0  0  0  0  0  0
  138.6940   72.2870  220.3740 C   0  0  0  0  0  0  0  0  0  0  0  0
  139.0490   73.3210  219.7510 O   0  0  0  0  0  0  0  0  0  0  0  0
  137.4460   72.2610  221.0410 N   0  0  0  0  0  0  0  0  0  0  0  0
  137.0890   71.3860  222.1300 C   0  0  0  0  0  0  0  0  0  0  0  0
  135.6430   71.6070  222.4480 C   0  0  0  0  0  0  0  0  0  0  0  0
  135.1240   72.3530  221.2390 C   0  0  0  0  0  0  0  0  0  0  0  0
  136.2860   73.1210  220.7460 C   0  0  1  0  0  0  0  0  0  0  0  0
  136.5340   74.4390  221.3720 C   0  0  0  0  0  0  0  0  0  0  0  0
  137.7500   74.4970  222.1220 N   0  0  0  0  0  0  0  0  0  0  0  0
  138.5960   75.5890  222.3170 C   0  0  0  0  0  0  0  0  0  0  0  0
  139.9490   75.6280  222.0680 C   0  0  0  0  0  0  0  0  0  0  0  0
  140.7420   76.7320  222.2860 C   0  0  0  0  0  0  0  0  0  0  0  0
  140.1960   77.8950  222.7850 C   0  0  0  0  0  0  0  0  0  0  0  0
  141.0420   79.0570  223.0140 C   0  0  0  0  0  0  0  0  0  0  0  0
  140.4760   80.1930  223.5860 C   0  0  0  0  0  0  0  0  0  0  0  0
  141.2440   81.3360  223.8280 C   0  0  0  0  0  0  0  0  0  0  0  0
  142.5910   81.3250  223.4890 C   0  0  0  0  0  0  0  0  0  0  0  0
  143.1630   80.1880  222.9160 C   0  0  0  0  0  0  0  0  0  0  0  0
  142.4010   79.0530  222.6750 C   0  0  0  0  0  0  0  0  0  0  0  0
  138.8420   77.8940  223.0460 C   0  0  0  0  0  0  0  0  0  0  0  0
  138.0570   76.7840  222.8250 C   0  0  0  0  0  0  0  0  0  0  0  0
  140.1940   71.0780  224.1160 C   0  0  0  0  0  0  0  0  0  0  0  0
  140.6910   71.8940  225.1240 C   0  0  0  0  0  0  0  0  0  0  0  0
  140.8560   71.4290  226.4220 C   0  0  0  0  0  0  0  0  0  0  0  0
  140.5290   70.1310  226.7590 C   0  0  0  0  0  0  0  0  0  0  0  0
  140.6720   69.6190  228.0320 C   0  0  0  0  0  0  0  0  0  0  0  0
  140.3090   68.2950  228.2510 C   0  0  0  0  0  0  0  0  0  0  0  0
  139.8140   67.5020  227.2250 C   0  0  0  0  0  0  0  0  0  0  0  0
  139.6660   68.0150  225.9340 C   0  0  0  0  0  0  0  0  0  0  0  0
  140.0340   69.3400  225.7290 C   0  0  0  0  0  0  0  0  0  0  0  0
  139.8850   69.8190  224.4750 N   0  0  0  0  0  0  0  0  0  0  0  0
  139.6690   69.6000  221.9630 H   0  0  0  0  0  0  0  0  0  0  0  0
  140.5684   71.4168  219.9941 H   0  0  0  0  0  0  0  0  0  0  0  0
  139.1422   70.3298  219.7747 H   0  0  0  0  0  0  0  0  0  0  0  0
  137.2503   70.3386  221.8352 H   0  0  0  0  0  0  0  0  0  0  0  0
  137.7107   71.6010  223.0116 H   0  0  0  0  0  0  0  0  0  0  0  0
  135.1175   70.6489  222.5739 H   0  0  0  0  0  0  0  0  0  0  0  0
  135.4910   72.1575  223.3881 H   0  0  0  0  0  0  0  0  0  0  0  0
  134.7699   71.6493  220.4713 H   0  0  0  0  0  0  0  0  0  0  0  0
  134.2700   73.0013  221.4845 H   0  0  0  0  0  0  0  0  0  0  0  0
  136.1000   73.3564  219.6877 H   0  0  0  0  0  0  0  0  0  0  0  0
  136.5790   75.1984  220.5774 H   0  0  0  0  0  0  0  0  0  0  0  0
  135.7105   74.6206  222.0783 H   0  0  0  0  0  0  0  0  0  0  0  0
  138.0390   73.5830  222.5890 H   0  0  0  0  0  0  0  0  0  0  0  0
  140.4265   74.7205  221.6700 H   0  0  0  0  0  0  0  0  0  0  0  0
  141.8177   76.6857  222.0606 H   0  0  0  0  0  0  0  0  0  0  0  0
  139.4085   80.1913  223.8515 H   0  0  0  0  0  0  0  0  0  0  0  0
  140.7888   82.2297  224.2797 H   0  0  0  0  0  0  0  0  0  0  0  0
  143.2094   82.2159  223.6728 H   0  0  0  0  0  0  0  0  0  0  0  0
  144.2309   80.1914  222.6521 H   0  0  0  0  0  0  0  0  0  0  0  0
  142.8591   78.1609  222.2231 H   0  0  0  0  0  0  0  0  0  0  0  0
  138.3746   78.8073  223.4427 H   0  0  0  0  0  0  0  0  0  0  0  0
  136.9817   76.8337  223.0516 H   0  0  0  0  0  0  0  0  0  0  0  0
  140.9605   72.9341  224.8884 H   0  0  0  0  0  0  0  0  0  0  0  0
  141.2533   72.1052  227.1933 H   0  0  0  0  0  0  0  0  0  0  0  0
  141.0624   70.2410  228.8510 H   0  0  0  0  0  0  0  0  0  0  0  0
  140.4163   67.8669  229.2586 H   0  0  0  0  0  0  0  0  0  0  0  0
  139.5351   66.4580  227.4307 H   0  0  0  0  0  0  0  0  0  0  0  0
  139.2744   67.3960  225.1133 H   0  0  0  0  0  0  0  0  0  0  0  0
  1  2  2  0
  2  3  1  0
  3  4  1  0
  4  5  1  0
  5  6  2  0
  5  7  1  0
  7  8  1  0
  8  9  1  0
  9 10  1  0
 10 11  1  0
 11 12  1  0
 12 13  1  0
 13 14  1  0
 14 15  2  0
 15 16  1  0
 16 17  2  0
 17 18  1  0
 18 19  2  0
 19 20  1  0
 20 21  2  0
 21 22  1  0
 22 23  2  0
 17 24  1  0
 24 25  2  0
  2 26  1  0
 26 27  2  0
 27 28  1  0
 28 29  2  0
 29 30  1  0
 30 31  2  0
 31 32  1  0
 32 33  2  0
 33 34  1  0
 34 35  2  0
 11  7  1  0
 25 14  1  0
 35 26  1  0
 23 18  1  0
 34 29  1  0
  3 36  1  0
  4 37  1  0
  4 38  1  0
  8 39  1  0
  8 40  1  0
  9 41  1  0
  9 42  1  0
 10 43  1  0
 10 44  1  0
 11 45  1  6
 12 46  1  0
 12 47  1  0
 13 48  1  0
 15 49  1  0
 16 50  1  0
 19 51  1  0
 20 52  1  0
 21 53  1  0
 22 54  1  0
 23 55  1  0
 24 56  1  0
 25 57  1  0
 27 58  1  0
 28 59  1  0
 30 60  1  0
 31 61  1  0
 32 62  1  0
 33 63  1  0
M  END
>  <smiles>  (25) 
O=C(NCC(=O)N1CCC[C@H]1CNc1ccc(-c2ccccc2)cc1)c1ccc2ccccc2n1

>  <score_type>  (25) 
oracle

>  <origin>  (25) 
autodockgpu

>  <m_score__min__energy>  (25) 
-9.8300000000000001

>  <m_primary>  (25) 
energy

>  <rmsd>  (25) 
4.890034222971405

>  <m_score__min__rmsd>  (25) 
4.890034222971405

>  <meeko>  (25) 
{"free_energy": -8.95, "intermolecular_energy": -11.34, "internal_energy": -2.85, "cluster_size": 12, "cluster_id": 3, "rank_in_cluster": 6}

>  <energy>  (25) 
-8.79

>  <cluster_rmsd>  (25) 
0.32

>  <cluster>  (25) 
4

$$$$

     RDKit          3D

 63 67  0  0  0  0  0  0  0  0999 V2000
  140.8270   76.9800  218.4170 O   0  0  0  0  0  0  0  0  0  0  0  0
  141.8350   77.4550  219.0030 C   0  0  0  0  0  0  0  0  0  0  0  0
  143.1570   76.9520  218.8060 N   0  0  0  0  0  0  0  0  0  0  0  0
  143.3190   75.8540  217.8970 C   0  0  0  0  0  0  0  0  0  0  0  0
  142.6960   74.6390  218.4300 C   0  0  0  0  0  0  0  0  0  0  0  0
  141.6020   74.2500  217.9460 O   0  0  0  0  0  0  0  0  0  0  0  0
  143.3060   73.9030  219.4740 N   0  0  0  0  0  0  0  0  0  0  0  0
  144.6150   74.1470  220.0270 C   0  0  0  0  0  0  0  0  0  0  0  0
  144.9120   73.0630  221.0150 C   0  0  0  0  0  0  0  0  0  0  0  0
  143.8830   72.0020  220.6970 C   0  0  0  0  0  0  0  0  0  0  0  0
  142.7180   72.7530  220.1830 C   0  0  1  0  0  0  0  0  0  0  0  0
  141.7670   73.2830  221.1850 C   0  0  0  0  0  0  0  0  0  0  0  0
  140.7290   74.0880  220.6190 N   0  0  0  0  0  0  0  0  0  0  0  0
  140.0880   75.1950  221.1790 C   0  0  0  0  0  0  0  0  0  0  0  0
  138.8200   75.6390  220.8850 C   0  0  0  0  0  0  0  0  0  0  0  0
  138.2370   76.7450  221.4620 C   0  0  0  0  0  0  0  0  0  0  0  0
  138.9260   77.4890  222.3960 C   0  0  0  0  0  0  0  0  0  0  0  0
  138.3020   78.6580  222.9990 C   0  0  0  0  0  0  0  0  0  0  0  0
  139.0710   79.4720  223.8260 C   0  0  0  0  0  0  0  0  0  0  0  0
  138.5220   80.6080  224.4300 C   0  0  0  0  0  0  0  0  0  0  0  0
  137.1880   80.9170  224.1940 C   0  0  0  0  0  0  0  0  0  0  0  0
  136.4130   80.1020  223.3660 C   0  0  0  0  0  0  0  0  0  0  0  0
  136.9580   78.9750  222.7660 C   0  0  0  0  0  0  0  0  0  0  0  0
  140.2000   77.0730  222.7160 C   0  0  0  0  0  0  0  0  0  0  0  0
  140.7750   75.9660  222.1340 C   0  0  0  0  0  0  0  0  0  0  0  0
  141.6670   78.5710  219.9270 C   0  0  0  0  0  0  0  0  0  0  0  0
  140.9680   79.7110  219.5520 C   0  0  0  0  0  0  0  0  0  0  0  0
  140.8020   80.7810  220.4220 C   0  0  0  0  0  0  0  0  0  0  0  0
  141.3280   80.7490  221.6970 C   0  0  0  0  0  0  0  0  0  0  0  0
  141.1920   81.7840  222.6000 C   0  0  0  0  0  0  0  0  0  0  0  0
  141.7660   81.6370  223.8570 C   0  0  0  0  0  0  0  0  0  0  0  0
  142.4590   80.4860  224.2050 C   0  0  0  0  0  0  0  0  0  0  0  0
  142.6010   79.4350  223.2960 C   0  0  0  0  0  0  0  0  0  0  0  0
  142.0220   79.5960  222.0420 C   0  0  0  0  0  0  0  0  0  0  0  0
  142.1680   78.5700  221.1760 N   0  0  0  0  0  0  0  0  0  0  0  0
  143.9730   77.3840  219.3210 H   0  0  0  0  0  0  0  0  0  0  0  0
  142.8478   76.1089  216.9363 H   0  0  0  0  0  0  0  0  0  0  0  0
  144.3942   75.6669  217.7592 H   0  0  0  0  0  0  0  0  0  0  0  0
  145.3669   74.1359  219.2241 H   0  0  0  0  0  0  0  0  0  0  0  0
  144.6432   75.1300  220.5199 H   0  0  0  0  0  0  0  0  0  0  0  0
  145.9320   72.6748  220.8776 H   0  0  0  0  0  0  0  0  0  0  0  0
  144.8615   73.4091  222.0579 H   0  0  0  0  0  0  0  0  0  0  0  0
  144.2645   71.3076  219.9340 H   0  0  0  0  0  0  0  0  0  0  0  0
  143.6299   71.3904  221.5756 H   0  0  0  0  0  0  0  0  0  0  0  0
  142.1161   72.0557  219.5818 H   0  0  0  0  0  0  0  0  0  0  0  0
  141.3027   72.4335  221.7073 H   0  0  0  0  0  0  0  0  0  0  0  0
  142.3416   73.9287  221.8654 H   0  0  0  0  0  0  0  0  0  0  0  0
  140.4090   73.7980  219.6440 H   0  0  0  0  0  0  0  0  0  0  0  0
  138.2353   75.0757  220.1429 H   0  0  0  0  0  0  0  0  0  0  0  0
  137.2156   77.0366  221.1761 H   0  0  0  0  0  0  0  0  0  0  0  0
  140.1259   79.2182  224.0072 H   0  0  0  0  0  0  0  0  0  0  0  0
  139.1366   81.2466  225.0815 H   0  0  0  0  0  0  0  0  0  0  0  0
  136.7407   81.8068  224.6611 H   0  0  0  0  0  0  0  0  0  0  0  0
  135.3578   80.3562  223.1871 H   0  0  0  0  0  0  0  0  0  0  0  0
  136.3411   78.3382  222.1149 H   0  0  0  0  0  0  0  0  0  0  0  0
  140.7756   77.6434  223.4599 H   0  0  0  0  0  0  0  0  0  0  0  0
  141.7964   75.6774  222.4227 H   0  0  0  0  0  0  0  0  0  0  0  0
  140.5356   79.7679  218.5422 H   0  0  0  0  0  0  0  0  0  0  0  0
  140.2425   81.6677  220.0892 H   0  0  0  0  0  0  0  0  0  0  0  0
  140.6445   82.6997  222.3321 H   0  0  0  0  0  0  0  0  0  0  0  0
  141.6691   82.4500  224.5916 H   0  0  0  0  0  0  0  0  0  0  0  0
  142.9016   80.4004  225.2084 H   0  0  0  0  0  0  0  0  0  0  0  0
  143.1480   78.5182  223.5611 H   0  0  0  0  0  0  0  0  0  0  0  0
  1  2  2  0
  2  3  1  0
  3  4  1  0
  4  5  1  0
  5  6  2  0
  5  7  1  0
  7  8  1  0
  8  9  1  0
  9 10  1  0
 10 11  1  0
 11 12  1  0
 12 13  1  0
 13 14  1  0
 14 15  2  0
 15 16  1  0
 16 17  2  0
 17 18  1  0
 18 19  2  0
 19 20  1  0
 20 21  2  0
 21 22  1  0
 22 23  2  0
 17 24  1  0
 24 25  2  0
  2 26  1  0
 26 27  2  0
 27 28  1  0
 28 29  2  0
 29 30  1  0
 30 31  2  0
 31 32  1  0
 32 33  2  0
 33 34  1  0
 34 35  2  0
 11  7  1  0
 25 14  1  0
 35 26  1  0
 23 18  1  0
 34 29  1  0
  3 36  1  0
  4 37  1  0
  4 38  1  0
  8 39  1  0
  8 40  1  0
  9 41  1  0
  9 42  1  0
 10 43  1  0
 10 44  1  0
 11 45  1  6
 12 46  1  0
 12 47  1  0
 13 48  1  0
 15 49  1  0
 16 50  1  0
 19 51  1  0
 20 52  1  0
 21 53  1  0
 22 54  1  0
 23 55  1  0
 24 56  1  0
 25 57  1  0
 27 58  1  0
 28 59  1  0
 30 60  1  0
 31 61  1  0
 32 62  1  0
 33 63  1  0
M  END
>  <smiles>  (26) 
O=C(NCC(=O)N1CCC[C@H]1CNc1ccc(-c2ccccc2)cc1)c1ccc2ccccc2n1

>  <score_type>  (26) 
oracle

>  <origin>  (26) 
autodockgpu

>  <m_score__min__energy>  (26) 
-9.8300000000000001

>  <m_primary>  (26) 
energy

>  <rmsd>  (26) 
8.021599289568023

>  <m_score__min__rmsd>  (26) 
8.021599289568023

>  <meeko>  (26) 
{"free_energy": -7.29, "intermolecular_energy": -9.67, "internal_energy": -4.75, "cluster_size": 10, "cluster_id": 7, "rank_in_cluster": 5}

>  <energy>  (26) 
-8.7

>  <cluster_rmsd>  (26) 
1.04

>  <cluster>  (26) 
4

$$$$

     RDKit          3D

 63 67  0  0  0  0  0  0  0  0999 V2000
  139.2630   71.4570  221.1820 O   0  0  0  0  0  0  0  0  0  0  0  0
  140.1840   71.7290  221.9950 C   0  0  0  0  0  0  0  0  0  0  0  0
  141.3530   72.4640  221.6260 N   0  0  0  0  0  0  0  0  0  0  0  0
  141.4600   72.8980  220.2630 C   0  0  0  0  0  0  0  0  0  0  0  0
  142.3750   74.0370  220.1490 C   0  0  0  0  0  0  0  0  0  0  0  0
  143.3460   74.1250  220.9460 O   0  0  0  0  0  0  0  0  0  0  0  0
  142.1830   75.0330  219.1620 N   0  0  0  0  0  0  0  0  0  0  0  0
  141.3640   74.9060  217.9820 C   0  0  0  0  0  0  0  0  0  0  0  0
  141.5450   76.1390  217.1550 C   0  0  0  0  0  0  0  0  0  0  0  0
  142.7890   76.7750  217.7340 C   0  0  0  0  0  0  0  0  0  0  0  0
  142.7840   76.3790  219.1580 C   0  0  1  0  0  0  0  0  0  0  0  0
  141.9990   77.2230  220.0870 C   0  0  0  0  0  0  0  0  0  0  0  0
  141.4970   76.5120  221.2220 N   0  0  0  0  0  0  0  0  0  0  0  0
  140.2100   76.5380  221.7610 C   0  0  0  0  0  0  0  0  0  0  0  0
  139.5710   77.6330  222.2950 C   0  0  0  0  0  0  0  0  0  0  0  0
  138.3000   77.6030  222.8240 C   0  0  0  0  0  0  0  0  0  0  0  0
  137.5810   76.4270  222.8420 C   0  0  0  0  0  0  0  0  0  0  0  0
  136.2380   76.4040  223.4050 C   0  0  0  0  0  0  0  0  0  0  0  0
  135.8380   75.2850  224.1290 C   0  0  0  0  0  0  0  0  0  0  0  0
  134.5590   75.2110  224.6910 C   0  0  0  0  0  0  0  0  0  0  0  0
  133.6860   76.2770  224.5170 C   0  0  0  0  0  0  0  0  0  0  0  0
  134.0840   77.4020  223.7910 C   0  0  0  0  0  0  0  0  0  0  0  0
  135.3530   77.4750  223.2330 C   0  0  0  0  0  0  0  0  0  0  0  0
  138.1890   75.3090  222.3150 C   0  0  0  0  0  0  0  0  0  0  0  0
  139.4610   75.3490  221.7890 C   0  0  0  0  0  0  0  0  0  0  0  0
  140.0730   71.2860  223.3800 C   0  0  0  0  0  0  0  0  0  0  0  0
  139.3000   70.1830  223.7180 C   0  0  0  0  0  0  0  0  0  0  0  0
  139.1840   69.7510  225.0330 C   0  0  0  0  0  0  0  0  0  0  0  0
  139.8380   70.4070  226.0570 C   0  0  0  0  0  0  0  0  0  0  0  0
  139.7570   70.0200  227.3790 C   0  0  0  0  0  0  0  0  0  0  0  0
  140.4600   70.7590  228.3230 C   0  0  0  0  0  0  0  0  0  0  0  0
  141.2250   71.8580  227.9560 C   0  0  0  0  0  0  0  0  0  0  0  0
  141.3110   72.2550  226.6200 C   0  0  0  0  0  0  0  0  0  0  0  0
  140.6020   71.5060  225.6870 C   0  0  0  0  0  0  0  0  0  0  0  0
  140.6970   71.9040  224.3990 N   0  0  0  0  0  0  0  0  0  0  0  0
  142.1010   72.6690  222.3450 H   0  0  0  0  0  0  0  0  0  0  0  0
  141.8395   72.0679  219.6491 H   0  0  0  0  0  0  0  0  0  0  0  0
  140.4646   73.2094  219.9133 H   0  0  0  0  0  0  0  0  0  0  0  0
  141.6748   74.0219  217.4060 H   0  0  0  0  0  0  0  0  0  0  0  0
  140.3071   74.7877  218.2630 H   0  0  0  0  0  0  0  0  0  0  0  0
  141.6913   75.8833  216.0952 H   0  0  0  0  0  0  0  0  0  0  0  0
  140.6706   76.8057  217.1840 H   0  0  0  0  0  0  0  0  0  0  0  0
  143.6897   76.3958  217.2290 H   0  0  0  0  0  0  0  0  0  0  0  0
  142.7966   77.8675  217.6055 H   0  0  0  0  0  0  0  0  0  0  0  0
  143.8172   76.4620  219.5263 H   0  0  0  0  0  0  0  0  0  0  0  0
  142.6443   78.0386  220.4452 H   0  0  0  0  0  0  0  0  0  0  0  0
  141.1275   77.5936  219.5275 H   0  0  0  0  0  0  0  0  0  0  0  0
  142.2050   75.8840  221.7140 H   0  0  0  0  0  0  0  0  0  0  0  0
  140.1090   78.5925  222.2997 H   0  0  0  0  0  0  0  0  0  0  0  0
  137.8562   78.5221  223.2343 H   0  0  0  0  0  0  0  0  0  0  0  0
  136.5376   74.4465  224.2613 H   0  0  0  0  0  0  0  0  0  0  0  0
  134.2498   74.3228  225.2615 H   0  0  0  0  0  0  0  0  0  0  0  0
  132.6769   76.2352  224.9528 H   0  0  0  0  0  0  0  0  0  0  0  0
  133.3836   78.2400  223.6599 H   0  0  0  0  0  0  0  0  0  0  0  0
  135.6596   78.3640  222.6623 H   0  0  0  0  0  0  0  0  0  0  0  0
  137.6416   74.3549  222.3143 H   0  0  0  0  0  0  0  0  0  0  0  0
  139.9018   74.4276  221.3806 H   0  0  0  0  0  0  0  0  0  0  0  0
  138.7666   69.6382  222.9251 H   0  0  0  0  0  0  0  0  0  0  0  0
  138.5619   68.8732  225.2621 H   0  0  0  0  0  0  0  0  0  0  0  0
  139.1527   69.1506  227.6774 H   0  0  0  0  0  0  0  0  0  0  0  0
  140.4093   70.4673  229.3824 H   0  0  0  0  0  0  0  0  0  0  0  0
  141.7699   72.4227  228.7269 H   0  0  0  0  0  0  0  0  0  0  0  0
  141.9143   73.1238  226.3181 H   0  0  0  0  0  0  0  0  0  0  0  0
  1  2  2  0
  2  3  1  0
  3  4  1  0
  4  5  1  0
  5  6  2  0
  5  7  1  0
  7  8  1  0
  8  9  1  0
  9 10  1  0
 10 11  1  0
 11 12  1  0
 12 13  1  0
 13 14  1  0
 14 15  2  0
 15 16  1  0
 16 17  2  0
 17 18  1  0
 18 19  2  0
 19 20  1  0
 20 21  2  0
 21 22  1  0
 22 23  2  0
 17 24  1  0
 24 25  2  0
  2 26  1  0
 26 27  2  0
 27 28  1  0
 28 29  2  0
 29 30  1  0
 30 31  2  0
 31 32  1  0
 32 33  2  0
 33 34  1  0
 34 35  2  0
 11  7  1  0
 25 14  1  0
 35 26  1  0
 23 18  1  0
 34 29  1  0
  3 36  1  0
  4 37  1  0
  4 38  1  0
  8 39  1  0
  8 40  1  0
  9 41  1  0
  9 42  1  0
 10 43  1  0
 10 44  1  0
 11 45  1  1
 12 46  1  0
 12 47  1  0
 13 48  1  0
 15 49  1  0
 16 50  1  0
 19 51  1  0
 20 52  1  0
 21 53  1  0
 22 54  1  0
 23 55  1  0
 24 56  1  0
 25 57  1  0
 27 58  1  0
 28 59  1  0
 30 60  1  0
 31 61  1  0
 32 62  1  0
 33 63  1  0
M  END
>  <smiles>  (27) 
O=C(NCC(=O)N1CCC[C@H]1CNc1ccc(-c2ccccc2)cc1)c1ccc2ccccc2n1

>  <score_type>  (27) 
oracle

>  <origin>  (27) 
autodockgpu

>  <m_score__min__energy>  (27) 
-9.8300000000000001

>  <m_primary>  (27) 
energy

>  <rmsd>  (27) 
3.608035579935864

>  <m_score__min__rmsd>  (27) 
3.608035579935864

>  <meeko>  (27) 
{"free_energy": -7.77, "intermolecular_energy": -10.16, "internal_energy": -3.41, "cluster_size": 1, "cluster_id": 8, "rank_in_cluster": 1}

>  <energy>  (27) 
-8.69

>  <cluster_rmsd>  (27) 
0.85

>  <cluster>  (27) 
4

$$$$

     RDKit          3D

 63 67  0  0  0  0  0  0  0  0999 V2000
  140.4160   71.4840  221.1060 O   0  0  0  0  0  0  0  0  0  0  0  0
  140.1210   72.1090  222.1580 C   0  0  0  0  0  0  0  0  0  0  0  0
  139.9060   73.5210  222.1880 N   0  0  0  0  0  0  0  0  0  0  0  0
  140.0390   74.2370  220.9520 C   0  0  0  0  0  0  0  0  0  0  0  0
  140.6280   75.5610  221.1770 C   0  0  0  0  0  0  0  0  0  0  0  0
  140.6680   76.0210  222.3470 O   0  0  0  0  0  0  0  0  0  0  0  0
  141.1480   76.3210  220.1030 N   0  0  0  0  0  0  0  0  0  0  0  0
  140.9090   77.7230  219.8670 C   0  0  0  0  0  0  0  0  0  0  0  0
  141.5400   78.0900  218.5610 C   0  0  0  0  0  0  0  0  0  0  0  0
  141.7980   76.7520  217.9040 C   0  0  0  0  0  0  0  0  0  0  0  0
  142.0250   75.8210  219.0300 C   0  0  1  0  0  0  0  0  0  0  0  0
  143.4000   75.7460  219.5720 C   0  0  0  0  0  0  0  0  0  0  0  0
  143.5980   74.6610  220.4820 N   0  0  0  0  0  0  0  0  0  0  0  0
  143.9320   73.3370  220.1920 C   0  0  0  0  0  0  0  0  0  0  0  0
  144.9830   72.9130  219.4120 C   0  0  0  0  0  0  0  0  0  0  0  0
  145.2640   71.5910  219.1490 C   0  0  0  0  0  0  0  0  0  0  0  0
  144.4730   70.5920  219.6750 C   0  0  0  0  0  0  0  0  0  0  0  0
  144.7770   69.1970  219.3900 C   0  0  0  0  0  0  0  0  0  0  0  0
  143.7210   68.3090  219.2050 C   0  0  0  0  0  0  0  0  0  0  0  0
  143.9570   66.9580  218.9290 C   0  0  0  0  0  0  0  0  0  0  0  0
  145.2690   66.5090  218.8400 C   0  0  0  0  0  0  0  0  0  0  0  0
  146.3310   67.3970  219.0250 C   0  0  0  0  0  0  0  0  0  0  0  0
  146.0970   68.7380  219.3000 C   0  0  0  0  0  0  0  0  0  0  0  0
  143.4100   70.9790  220.4620 C   0  0  0  0  0  0  0  0  0  0  0  0
  143.1370   72.3050  220.7190 C   0  0  0  0  0  0  0  0  0  0  0  0
  139.9880   71.3780  223.4130 C   0  0  0  0  0  0  0  0  0  0  0  0
  139.3420   70.1490  223.4600 C   0  0  0  0  0  0  0  0  0  0  0  0
  139.2070   69.4430  224.6490 C   0  0  0  0  0  0  0  0  0  0  0  0
  139.7130   69.9410  225.8330 C   0  0  0  0  0  0  0  0  0  0  0  0
  139.6060   69.2810  227.0390 C   0  0  0  0  0  0  0  0  0  0  0  0
  140.1550   69.8820  228.1660 C   0  0  0  0  0  0  0  0  0  0  0  0
  140.7940   71.1110  228.0900 C   0  0  0  0  0  0  0  0  0  0  0  0
  140.9060   71.7840  226.8710 C   0  0  0  0  0  0  0  0  0  0  0  0
  140.3520   71.1720  225.7530 C   0  0  0  0  0  0  0  0  0  0  0  0
  140.4690   71.8360  224.5830 N   0  0  0  0  0  0  0  0  0  0  0  0
  139.6600   74.0020  223.0960 H   0  0  0  0  0  0  0  0  0  0  0  0
  140.6873   73.6649  220.2720 H   0  0  0  0  0  0  0  0  0  0  0  0
  139.0398   74.3664  220.5106 H   0  0  0  0  0  0  0  0  0  0  0  0
  139.8266   77.9145  219.8248 H   0  0  0  0  0  0  0  0  0  0  0  0
  141.3404   78.3248  220.6805 H   0  0  0  0  0  0  0  0  0  0  0  0
  140.8572   78.7014  217.9527 H   0  0  0  0  0  0  0  0  0  0  0  0
  142.4533   78.6912  218.6809 H   0  0  0  0  0  0  0  0  0  0  0  0
  140.9278   76.4372  217.3093 H   0  0  0  0  0  0  0  0  0  0  0  0
  142.6521   76.7851  217.2116 H   0  0  0  0  0  0  0  0  0  0  0  0
  141.8253   74.8041  218.6612 H   0  0  0  0  0  0  0  0  0  0  0  0
  144.0992   75.6268  218.7313 H   0  0  0  0  0  0  0  0  0  0  0  0
  143.5763   76.6749  220.1342 H   0  0  0  0  0  0  0  0  0  0  0  0
  143.4710   74.9030  221.5130 H   0  0  0  0  0  0  0  0  0  0  0  0
  145.6396   73.6776  218.9711 H   0  0  0  0  0  0  0  0  0  0  0  0
  146.1247   71.3305  218.5155 H   0  0  0  0  0  0  0  0  0  0  0  0
  142.6861   68.6749  219.2769 H   0  0  0  0  0  0  0  0  0  0  0  0
  143.1173   66.2622  218.7847 H   0  0  0  0  0  0  0  0  0  0  0  0
  145.4720   65.4499  218.6230 H   0  0  0  0  0  0  0  0  0  0  0  0
  147.3653   67.0298  218.9520 H   0  0  0  0  0  0  0  0  0  0  0  0
  146.9385   69.4314  219.4454 H   0  0  0  0  0  0  0  0  0  0  0  0
  142.7599   70.2062  220.8981 H   0  0  0  0  0  0  0  0  0  0  0  0
  142.2752   72.5621  221.3525 H   0  0  0  0  0  0  0  0  0  0  0  0
  138.9274   69.7247  222.5337 H   0  0  0  0  0  0  0  0  0  0  0  0
  138.6891   68.4725  224.6469 H   0  0  0  0  0  0  0  0  0  0  0  0
  139.1005   68.3064  227.1074 H   0  0  0  0  0  0  0  0  0  0  0  0
  140.0812   69.3725  229.1381 H   0  0  0  0  0  0  0  0  0  0  0  0
  141.2174   71.5608  229.0002 H   0  0  0  0  0  0  0  0  0  0  0  0
  141.4118   72.7581  226.7990 H   0  0  0  0  0  0  0  0  0  0  0  0
  1  2  2  0
  2  3  1  0
  3  4  1  0
  4  5  1  0
  5  6  2  0
  5  7  1  0
  7  8  1  0
  8  9  1  0
  9 10  1  0
 10 11  1  0
 11 12  1  0
 12 13  1  0
 13 14  1  0
 14 15  2  0
 15 16  1  0
 16 17  2  0
 17 18  1  0
 18 19  2  0
 19 20  1  0
 20 21  2  0
 21 22  1  0
 22 23  2  0
 17 24  1  0
 24 25  2  0
  2 26  1  0
 26 27  2  0
 27 28  1  0
 28 29  2  0
 29 30  1  0
 30 31  2  0
 31 32  1  0
 32 33  2  0
 33 34  1  0
 34 35  2  0
 11  7  1  0
 25 14  1  0
 35 26  1  0
 23 18  1  0
 34 29  1  0
  3 36  1  0
  4 37  1  0
  4 38  1  0
  8 39  1  0
  8 40  1  0
  9 41  1  0
  9 42  1  0
 10 43  1  0
 10 44  1  0
 11 45  1  6
 12 46  1  0
 12 47  1  0
 13 48  1  0
 15 49  1  0
 16 50  1  0
 19 51  1  0
 20 52  1  0
 21 53  1  0
 22 54  1  0
 23 55  1  0
 24 56  1  0
 25 57  1  0
 27 58  1  0
 28 59  1  0
 30 60  1  0
 31 61  1  0
 32 62  1  0
 33 63  1  0
M  END
>  <smiles>  (28) 
O=C(NCC(=O)N1CCC[C@H]1CNc1ccc(-c2ccccc2)cc1)c1ccc2ccccc2n1

>  <score_type>  (28) 
oracle

>  <origin>  (28) 
autodockgpu

>  <m_score__min__energy>  (28) 
-9.8300000000000001

>  <m_primary>  (28) 
energy

>  <rmsd>  (28) 
5.947160957804616

>  <m_score__min__rmsd>  (28) 
5.947160957804616

>  <meeko>  (28) 
{"free_energy": -9.74, "intermolecular_energy": -12.12, "internal_energy": -2.67, "cluster_size": 6, "cluster_id": 2, "rank_in_cluster": 1}

>  <energy>  (28) 
-8.52

>  <cluster_rmsd>  (28) 
0.88

>  <cluster>  (28) 
4

$$$$

     RDKit          3D

 63 67  0  0  0  0  0  0  0  0999 V2000
  139.2280   74.2180  221.5550 O   0  0  0  0  0  0  0  0  0  0  0  0
  140.3680   74.7480  221.6120 C   0  0  0  0  0  0  0  0  0  0  0  0
  140.5820   76.0830  222.0760 N   0  0  0  0  0  0  0  0  0  0  0  0
  139.4310   76.8340  222.4860 C   0  0  0  0  0  0  0  0  0  0  0  0
  139.5380   78.2300  222.0530 C   0  0  0  0  0  0  0  0  0  0  0  0
  138.5680   78.7590  221.4500 O   0  0  0  0  0  0  0  0  0  0  0  0
  140.7080   78.9850  222.3030 N   0  0  0  0  0  0  0  0  0  0  0  0
  141.6460   78.7600  223.3750 C   0  0  0  0  0  0  0  0  0  0  0  0
  142.6610   79.8590  223.3450 C   0  0  0  0  0  0  0  0  0  0  0  0
  142.0210   80.9070  222.4610 C   0  0  0  0  0  0  0  0  0  0  0  0
  141.1810   80.1390  221.5180 C   0  0  1  0  0  0  0  0  0  0  0  0
  141.8440   79.6130  220.3040 C   0  0  0  0  0  0  0  0  0  0  0  0
  141.2120   78.4480  219.7650 N   0  0  0  0  0  0  0  0  0  0  0  0
  141.8090   77.3390  219.1630 C   0  0  0  0  0  0  0  0  0  0  0  0
  143.1560   77.1430  218.9680 C   0  0  0  0  0  0  0  0  0  0  0  0
  143.6940   76.0310  218.3580 C   0  0  0  0  0  0  0  0  0  0  0  0
  142.8730   75.0250  217.8960 C   0  0  0  0  0  0  0  0  0  0  0  0
  143.4500   73.8540  217.2510 C   0  0  0  0  0  0  0  0  0  0  0  0
  142.6080   72.8010  216.9050 C   0  0  0  0  0  0  0  0  0  0  0  0
  143.1090   71.6530  216.2830 C   0  0  0  0  0  0  0  0  0  0  0  0
  144.4700   71.5750  216.0120 C   0  0  0  0  0  0  0  0  0  0  0  0
  145.3170   72.6290  216.3580 C   0  0  0  0  0  0  0  0  0  0  0  0
  144.8200   73.7690  216.9750 C   0  0  0  0  0  0  0  0  0  0  0  0
  141.5160   75.1870  218.0750 C   0  0  0  0  0  0  0  0  0  0  0  0
  140.9880   76.3030  218.6850 C   0  0  0  0  0  0  0  0  0  0  0  0
  141.5370   73.9820  221.1940 C   0  0  0  0  0  0  0  0  0  0  0  0
  141.4180   72.6590  220.7900 C   0  0  0  0  0  0  0  0  0  0  0  0
  142.5230   71.9180  220.3910 C   0  0  0  0  0  0  0  0  0  0  0  0
  143.7860   72.4740  220.3810 C   0  0  0  0  0  0  0  0  0  0  0  0
  144.9150   71.7830  219.9930 C   0  0  0  0  0  0  0  0  0  0  0  0
  146.1350   72.4490  220.0250 C   0  0  0  0  0  0  0  0  0  0  0  0
  146.2240   73.7730  220.4330 C   0  0  0  0  0  0  0  0  0  0  0  0
  145.0850   74.4780  220.8260 C   0  0  0  0  0  0  0  0  0  0  0  0
  143.8720   73.7990  220.7900 C   0  0  0  0  0  0  0  0  0  0  0  0
  142.7800   74.4950  221.1740 N   0  0  0  0  0  0  0  0  0  0  0  0
  141.5590   76.4850  222.1070 H   0  0  0  0  0  0  0  0  0  0  0  0
  138.5308   76.3862  222.0398 H   0  0  0  0  0  0  0  0  0  0  0  0
  139.3674   76.8097  223.5839 H   0  0  0  0  0  0  0  0  0  0  0  0
  141.1178   78.7669  224.3398 H   0  0  0  0  0  0  0  0  0  0  0  0
  142.1382   77.7841  223.2512 H   0  0  0  0  0  0  0  0  0  0  0  0
  142.8424   80.2544  224.3553 H   0  0  0  0  0  0  0  0  0  0  0  0
  143.6417   79.5264  222.9740 H   0  0  0  0  0  0  0  0  0  0  0  0
  141.4044   81.5947  223.0584 H   0  0  0  0  0  0  0  0  0  0  0  0
  142.7673   81.5277  221.9436 H   0  0  0  0  0  0  0  0  0  0  0  0
  140.4120   80.8235  221.1306 H   0  0  0  0  0  0  0  0  0  0  0  0
  141.8366   80.3997  219.5352 H   0  0  0  0  0  0  0  0  0  0  0  0
  142.8641   79.3212  220.5944 H   0  0  0  0  0  0  0  0  0  0  0  0
  140.1480   78.4350  219.8370 H   0  0  0  0  0  0  0  0  0  0  0  0
  143.8470   77.9226  219.3211 H   0  0  0  0  0  0  0  0  0  0  0  0
  144.7842   75.9456  218.2391 H   0  0  0  0  0  0  0  0  0  0  0  0
  141.5324   72.8729  217.1241 H   0  0  0  0  0  0  0  0  0  0  0  0
  142.4369   70.8252  216.0127 H   0  0  0  0  0  0  0  0  0  0  0  0
  144.8810   70.6794  215.5231 H   0  0  0  0  0  0  0  0  0  0  0  0
  146.3925   72.5554  216.1389 H   0  0  0  0  0  0  0  0  0  0  0  0
  145.4944   74.5954  217.2438 H   0  0  0  0  0  0  0  0  0  0  0  0
  140.8338   74.4007  217.7197 H   0  0  0  0  0  0  0  0  0  0  0  0
  139.8973   76.3857  218.8010 H   0  0  0  0  0  0  0  0  0  0  0  0
  140.4248   72.1863  220.7858 H   0  0  0  0  0  0  0  0  0  0  0  0
  142.3893   70.8719  220.0782 H   0  0  0  0  0  0  0  0  0  0  0  0
  144.8518   70.7342  219.6673 H   0  0  0  0  0  0  0  0  0  0  0  0
  147.0480   71.9162  219.7209 H   0  0  0  0  0  0  0  0  0  0  0  0
  147.2039   74.2726  220.4468 H   0  0  0  0  0  0  0  0  0  0  0  0
  145.1446   75.5273  221.1508 H   0  0  0  0  0  0  0  0  0  0  0  0
  1  2  2  0
  2  3  1  0
  3  4  1  0
  4  5  1  0
  5  6  2  0
  5  7  1  0
  7  8  1  0
  8  9  1  0
  9 10  1  0
 10 11  1  0
 11 12  1  0
 12 13  1  0
 13 14  1  0
 14 15  2  0
 15 16  1  0
 16 17  2  0
 17 18  1  0
 18 19  2  0
 19 20  1  0
 20 21  2  0
 21 22  1  0
 22 23  2  0
 17 24  1  0
 24 25  2  0
  2 26  1  0
 26 27  2  0
 27 28  1  0
 28 29  2  0
 29 30  1  0
 30 31  2  0
 31 32  1  0
 32 33  2  0
 33 34  1  0
 34 35  2  0
 11  7  1  0
 25 14  1  0
 35 26  1  0
 23 18  1  0
 34 29  1  0
  3 36  1  0
  4 37  1  0
  4 38  1  0
  8 39  1  0
  8 40  1  0
  9 41  1  0
  9 42  1  0
 10 43  1  0
 10 44  1  0
 11 45  1  6
 12 46  1  0
 12 47  1  0
 13 48  1  0
 15 49  1  0
 16 50  1  0
 19 51  1  0
 20 52  1  0
 21 53  1  0
 22 54  1  0
 23 55  1  0
 24 56  1  0
 25 57  1  0
 27 58  1  0
 28 59  1  0
 30 60  1  0
 31 61  1  0
 32 62  1  0
 33 63  1  0
M  END
>  <smiles>  (29) 
O=C(NCC(=O)N1CCC[C@H]1CNc1ccc(-c2ccccc2)cc1)c1ccc2ccccc2n1

>  <score_type>  (29) 
oracle

>  <origin>  (29) 
autodockgpu

>  <m_score__min__energy>  (29) 
-9.8300000000000001

>  <m_primary>  (29) 
energy

>  <rmsd>  (29) 
6.783364553576181

>  <m_score__min__rmsd>  (29) 
6.783364553576181

>  <meeko>  (29) 
{"free_energy": -5.95, "intermolecular_energy": -8.33, "internal_energy": -5.17, "cluster_size": 3, "cluster_id": 9, "rank_in_cluster": 3}

>  <energy>  (29) 
-8.31

>  <cluster_rmsd>  (29) 
1.87

>  <cluster>  (29) 
4

$$$$

     RDKit          3D

 63 67  0  0  0  0  0  0  0  0999 V2000
  137.1270   71.9210  221.0130 O   0  0  0  0  0  0  0  0  0  0  0  0
  136.9820   72.5850  222.0730 C   0  0  0  0  0  0  0  0  0  0  0  0
  137.4840   73.9130  222.2310 N   0  0  0  0  0  0  0  0  0  0  0  0
  138.1810   74.4950  221.1210 C   0  0  0  0  0  0  0  0  0  0  0  0
  139.5060   74.9710  221.5280 C   0  0  0  0  0  0  0  0  0  0  0  0
  139.6580   75.4410  222.6850 O   0  0  0  0  0  0  0  0  0  0  0  0
  140.6090   74.9080  220.6430 N   0  0  0  0  0  0  0  0  0  0  0  0
  141.8260   75.6720  220.7550 C   0  0  0  0  0  0  0  0  0  0  0  0
  142.6640   75.3910  219.5470 C   0  0  0  0  0  0  0  0  0  0  0  0
  141.6920   74.7470  218.5840 C   0  0  0  0  0  0  0  0  0  0  0  0
  140.7140   74.0530  219.4470 C   0  0  1  0  0  0  0  0  0  0  0  0
  141.0680   72.6890  219.9000 C   0  0  0  0  0  0  0  0  0  0  0  0
  140.0300   72.0470  220.6470 N   0  0  0  0  0  0  0  0  0  0  0  0
  140.0740   71.5720  221.9580 C   0  0  0  0  0  0  0  0  0  0  0  0
  140.5920   72.2320  223.0490 C   0  0  0  0  0  0  0  0  0  0  0  0
  140.6180   71.7130  224.3240 C   0  0  0  0  0  0  0  0  0  0  0  0
  140.1080   70.4570  224.5760 C   0  0  0  0  0  0  0  0  0  0  0  0
  140.1410   69.9160  225.9270 C   0  0  0  0  0  0  0  0  0  0  0  0
  140.3950   70.7830  226.9860 C   0  0  0  0  0  0  0  0  0  0  0  0
  140.4380   70.3150  228.3040 C   0  0  0  0  0  0  0  0  0  0  0  0
  140.2220   68.9640  228.5450 C   0  0  0  0  0  0  0  0  0  0  0  0
  139.9670   68.0920  227.4860 C   0  0  0  0  0  0  0  0  0  0  0  0
  139.9250   68.5560  226.1770 C   0  0  0  0  0  0  0  0  0  0  0  0
  139.5800   69.7660  223.5070 C   0  0  0  0  0  0  0  0  0  0  0  0
  139.5580   70.2940  222.2350 C   0  0  0  0  0  0  0  0  0  0  0  0
  136.2740   71.9900  223.2000 C   0  0  0  0  0  0  0  0  0  0  0  0
  136.3670   70.6300  223.4670 C   0  0  0  0  0  0  0  0  0  0  0  0
  135.6960   70.0510  224.5370 C   0  0  0  0  0  0  0  0  0  0  0  0
  134.9090   70.8120  225.3780 C   0  0  0  0  0  0  0  0  0  0  0  0
  134.2230   70.2870  226.4540 C   0  0  0  0  0  0  0  0  0  0  0  0
  133.4610   71.1520  227.2300 C   0  0  0  0  0  0  0  0  0  0  0  0
  133.3860   72.5070  226.9410 C   0  0  0  0  0  0  0  0  0  0  0  0
  134.0790   73.0440  225.8530 C   0  0  0  0  0  0  0  0  0  0  0  0
  134.8360   72.1670  225.0850 C   0  0  0  0  0  0  0  0  0  0  0  0
  135.4990   72.7040  224.0370 N   0  0  0  0  0  0  0  0  0  0  0  0
  137.3380   74.4320  223.1410 H   0  0  0  0  0  0  0  0  0  0  0  0
  138.2970   73.7380  220.3314 H   0  0  0  0  0  0  0  0  0  0  0  0
  137.5985   75.3509  220.7495 H   0  0  0  0  0  0  0  0  0  0  0  0
  141.5895   76.7452  220.8033 H   0  0  0  0  0  0  0  0  0  0  0  0
  142.3693   75.3916  221.6694 H   0  0  0  0  0  0  0  0  0  0  0  0
  143.0740   76.3217  219.1279 H   0  0  0  0  0  0  0  0  0  0  0  0
  143.5333   74.7541  219.7677 H   0  0  0  0  0  0  0  0  0  0  0  0
  141.1933   75.5098  217.9680 H   0  0  0  0  0  0  0  0  0  0  0  0
  142.1917   74.0601  217.8851 H   0  0  0  0  0  0  0  0  0  0  0  0
  139.7964   73.9111  218.8572 H   0  0  0  0  0  0  0  0  0  0  0  0
  141.2902   72.0751  219.0147 H   0  0  0  0  0  0  0  0  0  0  0  0
  141.9352   72.7860  220.5697 H   0  0  0  0  0  0  0  0  0  0  0  0
  139.1090   71.9170  220.1250 H   0  0  0  0  0  0  0  0  0  0  0  0
  141.0114   73.2368  222.8926 H   0  0  0  0  0  0  0  0  0  0  0  0
  141.0481   72.3037  225.1463 H   0  0  0  0  0  0  0  0  0  0  0  0
  140.5643   71.8509  226.7839 H   0  0  0  0  0  0  0  0  0  0  0  0
  140.6396   71.0058  229.1360 H   0  0  0  0  0  0  0  0  0  0  0  0
  140.2521   68.5800  229.5753 H   0  0  0  0  0  0  0  0  0  0  0  0
  139.7972   67.0245  227.6899 H   0  0  0  0  0  0  0  0  0  0  0  0
  139.7244   67.8626  225.3470 H   0  0  0  0  0  0  0  0  0  0  0  0
  139.1633   68.7619  223.6747 H   0  0  0  0  0  0  0  0  0  0  0  0
  139.1259   69.7009  221.4155 H   0  0  0  0  0  0  0  0  0  0  0  0
  136.9868   69.9962  222.8157 H   0  0  0  0  0  0  0  0  0  0  0  0
  135.7933   68.9701  224.7167 H   0  0  0  0  0  0  0  0  0  0  0  0
  134.2778   69.2142  226.6908 H   0  0  0  0  0  0  0  0  0  0  0  0
  132.9053   70.7540  228.0919 H   0  0  0  0  0  0  0  0  0  0  0  0
  132.7744   73.1656  227.5752 H   0  0  0  0  0  0  0  0  0  0  0  0
  134.0276   74.1165  225.6141 H   0  0  0  0  0  0  0  0  0  0  0  0
  1  2  2  0
  2  3  1  0
  3  4  1  0
  4  5  1  0
  5  6  2  0
  5  7  1  0
  7  8  1  0
  8  9  1  0
  9 10  1  0
 10 11  1  0
 11 12  1  0
 12 13  1  0
 13 14  1  0
 14 15  2  0
 15 16  1  0
 16 17  2  0
 17 18  1  0
 18 19  2  0
 19 20  1  0
 20 21  2  0
 21 22  1  0
 22 23  2  0
 17 24  1  0
 24 25  2  0
  2 26  1  0
 26 27  2  0
 27 28  1  0
 28 29  2  0
 29 30  1  0
 30 31  2  0
 31 32  1  0
 32 33  2  0
 33 34  1  0
 34 35  2  0
 11  7  1  0
 25 14  1  0
 35 26  1  0
 23 18  1  0
 34 29  1  0
  3 36  1  0
  4 37  1  0
  4 38  1  0
  8 39  1  0
  8 40  1  0
  9 41  1  0
  9 42  1  0
 10 43  1  0
 10 44  1  0
 11 45  1  6
 12 46  1  0
 12 47  1  0
 13 48  1  0
 15 49  1  0
 16 50  1  0
 19 51  1  0
 20 52  1  0
 21 53  1  0
 22 54  1  0
 23 55  1  0
 24 56  1  0
 25 57  1  0
 27 58  1  0
 28 59  1  0
 30 60  1  0
 31 61  1  0
 32 62  1  0
 33 63  1  0
M  END
>  <smiles>  (30) 
O=C(NCC(=O)N1CCC[C@H]1CNc1ccc(-c2ccccc2)cc1)c1ccc2ccccc2n1

>  <score_type>  (30) 
oracle

>  <origin>  (30) 
autodockgpu

>  <m_score__min__energy>  (30) 
-9.8300000000000001

>  <m_primary>  (30) 
energy

>  <rmsd>  (30) 
6.622647197465388

>  <m_score__min__rmsd>  (30) 
6.622647197465388

>  <meeko>  (30) 
{"free_energy": -7.66, "intermolecular_energy": -10.05, "internal_energy": -4.08, "cluster_size": 5, "cluster_id": 5, "rank_in_cluster": 5}

>  <energy>  (30) 
-8.28

>  <cluster_rmsd>  (30) 
1.78

>  <cluster>  (30) 
4

$$$$

     RDKit          3D

 63 67  0  0  0  0  0  0  0  0999 V2000
  139.4150   72.2870  222.0820 O   0  0  0  0  0  0  0  0  0  0  0  0
  139.6930   71.1180  222.4590 C   0  0  0  0  0  0  0  0  0  0  0  0
  139.6690   69.9930  221.5790 N   0  0  0  0  0  0  0  0  0  0  0  0
  139.3080   70.2280  220.2110 C   0  0  0  0  0  0  0  0  0  0  0  0
  140.1500   71.2740  219.6220 C   0  0  0  0  0  0  0  0  0  0  0  0
  139.6030   72.3030  219.1470 O   0  0  0  0  0  0  0  0  0  0  0  0
  141.5580   71.1430  219.5820 N   0  0  0  0  0  0  0  0  0  0  0  0
  142.3140   70.4600  218.5620 C   0  0  0  0  0  0  0  0  0  0  0  0
  143.7520   70.4530  218.9750 C   0  0  0  0  0  0  0  0  0  0  0  0
  143.7010   70.8150  220.4430 C   0  0  0  0  0  0  0  0  0  0  0  0
  142.5080   71.6770  220.5740 C   0  0  1  0  0  0  0  0  0  0  0  0
  142.6880   73.1190  220.2920 C   0  0  0  0  0  0  0  0  0  0  0  0
  141.5550   73.9170  220.6440 N   0  0  0  0  0  0  0  0  0  0  0  0
  141.5150   75.2780  220.9520 C   0  0  0  0  0  0  0  0  0  0  0  0
  140.8610   75.8550  222.0150 C   0  0  0  0  0  0  0  0  0  0  0  0
  140.8470   77.2080  222.2690 C   0  0  0  0  0  0  0  0  0  0  0  0
  141.5130   78.0810  221.4360 C   0  0  0  0  0  0  0  0  0  0  0  0
  141.4910   79.5110  221.7120 C   0  0  0  0  0  0  0  0  0  0  0  0
  141.8120   79.9470  222.9940 C   0  0  0  0  0  0  0  0  0  0  0  0
  141.8070   81.3090  223.3130 C   0  0  0  0  0  0  0  0  0  0  0  0
  141.4750   82.2290  222.3260 C   0  0  0  0  0  0  0  0  0  0  0  0
  141.1520   81.7950  221.0390 C   0  0  0  0  0  0  0  0  0  0  0  0
  141.1570   80.4430  220.7230 C   0  0  0  0  0  0  0  0  0  0  0  0
  142.1800   77.5380  220.3590 C   0  0  0  0  0  0  0  0  0  0  0  0
  142.1890   76.1830  220.1130 C   0  0  0  0  0  0  0  0  0  0  0  0
  140.0590   70.8820  223.8500 C   0  0  0  0  0  0  0  0  0  0  0  0
  140.6110   71.8920  224.6270 C   0  0  0  0  0  0  0  0  0  0  0  0
  140.9650   71.6800  225.9530 C   0  0  0  0  0  0  0  0  0  0  0  0
  140.7800   70.4500  226.5500 C   0  0  0  0  0  0  0  0  0  0  0  0
  141.1130   70.1860  227.8630 C   0  0  0  0  0  0  0  0  0  0  0  0
  140.8790   68.9080  228.3550 C   0  0  0  0  0  0  0  0  0  0  0  0
  140.3250   67.9170  227.5560 C   0  0  0  0  0  0  0  0  0  0  0  0
  139.9850   68.1770  226.2270 C   0  0  0  0  0  0  0  0  0  0  0  0
  140.2250   69.4600  225.7480 C   0  0  0  0  0  0  0  0  0  0  0  0
  139.8900   69.6950  224.4610 N   0  0  0  0  0  0  0  0  0  0  0  0
  139.9110   69.0290  221.9420 H   0  0  0  0  0  0  0  0  0  0  0  0
  139.4366   69.2971  219.6392 H   0  0  0  0  0  0  0  0  0  0  0  0
  138.2593   70.5580  220.1751 H   0  0  0  0  0  0  0  0  0  0  0  0
  141.9510   69.4268  218.4579 H   0  0  0  0  0  0  0  0  0  0  0  0
  142.1979   70.9714  217.5951 H   0  0  0  0  0  0  0  0  0  0  0  0
  144.1974   69.4576  218.8310 H   0  0  0  0  0  0  0  0  0  0  0  0
  144.3701   71.1455  218.3847 H   0  0  0  0  0  0  0  0  0  0  0  0
  143.5972   69.9118  221.0622 H   0  0  0  0  0  0  0  0  0  0  0  0
  144.6186   71.3193  220.7800 H   0  0  0  0  0  0  0  0  0  0  0  0
  142.1934   71.6456  221.6276 H   0  0  0  0  0  0  0  0  0  0  0  0
  143.5573   73.4789  220.8619 H   0  0  0  0  0  0  0  0  0  0  0  0
  142.8288   73.2201  219.2057 H   0  0  0  0  0  0  0  0  0  0  0  0
  140.6240   73.3960  220.6730 H   0  0  0  0  0  0  0  0  0  0  0  0
  140.3152   75.1948  222.7051 H   0  0  0  0  0  0  0  0  0  0  0  0
  140.3009   77.5947  223.1421 H   0  0  0  0  0  0  0  0  0  0  0  0
  142.0734   79.2100  223.7676 H   0  0  0  0  0  0  0  0  0  0  0  0
  142.0617   81.6462  224.3286 H   0  0  0  0  0  0  0  0  0  0  0  0
  141.4667   83.3039  222.5597 H   0  0  0  0  0  0  0  0  0  0  0  0
  140.8904   82.5328  220.2662 H   0  0  0  0  0  0  0  0  0  0  0  0
  140.9013   80.1083  219.7068 H   0  0  0  0  0  0  0  0  0  0  0  0
  142.7218   78.2076  219.6748 H   0  0  0  0  0  0  0  0  0  0  0  0
  142.7365   75.7995  219.2394 H   0  0  0  0  0  0  0  0  0  0  0  0
  140.7718   72.8846  224.1811 H   0  0  0  0  0  0  0  0  0  0  0  0
  141.3995   72.5053  226.5362 H   0  0  0  0  0  0  0  0  0  0  0  0
  141.5517   70.9661  228.5025 H   0  0  0  0  0  0  0  0  0  0  0  0
  141.1379   68.6766  229.3988 H   0  0  0  0  0  0  0  0  0  0  0  0
  140.1518   66.9148  227.9750 H   0  0  0  0  0  0  0  0  0  0  0  0
  139.5455   67.3990  225.5855 H   0  0  0  0  0  0  0  0  0  0  0  0
  1  2  2  0
  2  3  1  0
  3  4  1  0
  4  5  1  0
  5  6  2  0
  5  7  1  0
  7  8  1  0
  8  9  1  0
  9 10  1  0
 10 11  1  0
 11 12  1  0
 12 13  1  0
 13 14  1  0
 14 15  2  0
 15 16  1  0
 16 17  2  0
 17 18  1  0
 18 19  2  0
 19 20  1  0
 20 21  2  0
 21 22  1  0
 22 23  2  0
 17 24  1  0
 24 25  2  0
  2 26  1  0
 26 27  2  0
 27 28  1  0
 28 29  2  0
 29 30  1  0
 30 31  2  0
 31 32  1  0
 32 33  2  0
 33 34  1  0
 34 35  2  0
 11  7  1  0
 25 14  1  0
 35 26  1  0
 23 18  1  0
 34 29  1  0
  3 36  1  0
  4 37  1  0
  4 38  1  0
  8 39  1  0
  8 40  1  0
  9 41  1  0
  9 42  1  0
 10 43  1  0
 10 44  1  0
 11 45  1  1
 12 46  1  0
 12 47  1  0
 13 48  1  0
 15 49  1  0
 16 50  1  0
 19 51  1  0
 20 52  1  0
 21 53  1  0
 22 54  1  0
 23 55  1  0
 24 56  1  0
 25 57  1  0
 27 58  1  0
 28 59  1  0
 30 60  1  0
 31 61  1  0
 32 62  1  0
 33 63  1  0
M  END
>  <smiles>  (31) 
O=C(NCC(=O)N1CCC[C@H]1CNc1ccc(-c2ccccc2)cc1)c1ccc2ccccc2n1

>  <score_type>  (31) 
oracle

>  <origin>  (31) 
autodockgpu

>  <m_score__min__energy>  (31) 
-9.8300000000000001

>  <m_primary>  (31) 
energy

>  <rmsd>  (31) 
4.670306397203683

>  <m_score__min__rmsd>  (31) 
4.670306397203683

>  <meeko>  (31) 
{"free_energy": -8.29, "intermolecular_energy": -10.68, "internal_energy": -3.58, "cluster_size": 12, "cluster_id": 3, "rank_in_cluster": 11}

>  <energy>  (31) 
-8.8

>  <cluster_rmsd>  (31) 
0.0

>  <cluster>  (31) 
5

$$$$

     RDKit          3D

 63 67  0  0  0  0  0  0  0  0999 V2000
  140.4460   72.9350  222.7210 O   0  0  0  0  0  0  0  0  0  0  0  0
  140.0150   71.7780  222.9690 C   0  0  0  0  0  0  0  0  0  0  0  0
  139.2770   71.0050  222.0210 N   0  0  0  0  0  0  0  0  0  0  0  0
  139.0260   71.5930  220.7370 C   0  0  0  0  0  0  0  0  0  0  0  0
  137.5870   71.6450  220.4590 C   0  0  0  0  0  0  0  0  0  0  0  0
  137.1720   71.3110  219.3190 O   0  0  0  0  0  0  0  0  0  0  0  0
  136.6670   72.0630  221.4490 N   0  0  0  0  0  0  0  0  0  0  0  0
  136.6820   71.6700  222.8360 C   0  0  0  0  0  0  0  0  0  0  0  0
  135.4630   72.2370  223.4940 C   0  0  0  0  0  0  0  0  0  0  0  0
  134.5810   72.6270  222.3290 C   0  0  0  0  0  0  0  0  0  0  0  0
  135.5240   72.9710  221.2440 C   0  0  1  0  0  0  0  0  0  0  0  0
  136.0500   74.3550  221.2260 C   0  0  0  0  0  0  0  0  0  0  0  0
  136.9650   74.6340  222.2890 N   0  0  0  0  0  0  0  0  0  0  0  0
  137.8660   75.6940  222.4000 C   0  0  0  0  0  0  0  0  0  0  0  0
  137.5540   77.0050  222.6760 C   0  0  0  0  0  0  0  0  0  0  0  0
  138.4830   78.0170  222.7660 C   0  0  0  0  0  0  0  0  0  0  0  0
  139.8220   77.7520  222.5750 C   0  0  0  0  0  0  0  0  0  0  0  0
  140.7980   78.8290  222.6700 C   0  0  0  0  0  0  0  0  0  0  0  0
  140.9230   79.7120  221.6020 C   0  0  0  0  0  0  0  0  0  0  0  0
  141.8430   80.7640  221.6410 C   0  0  0  0  0  0  0  0  0  0  0  0
  142.6390   80.9190  222.7700 C   0  0  0  0  0  0  0  0  0  0  0  0
  142.5170   80.0360  223.8440 C   0  0  0  0  0  0  0  0  0  0  0  0
  141.6030   78.9910  223.8040 C   0  0  0  0  0  0  0  0  0  0  0  0
  140.1730   76.4490  222.2960 C   0  0  0  0  0  0  0  0  0  0  0  0
  139.2360   75.4440  222.2080 C   0  0  0  0  0  0  0  0  0  0  0  0
  140.2710   71.1830  224.2750 C   0  0  0  0  0  0  0  0  0  0  0  0
  140.9220   71.8970  225.2720 C   0  0  0  0  0  0  0  0  0  0  0  0
  141.1730   71.3420  226.5200 C   0  0  0  0  0  0  0  0  0  0  0  0
  140.7820   70.0520  226.8160 C   0  0  0  0  0  0  0  0  0  0  0  0
  141.0060   69.4530  228.0380 C   0  0  0  0  0  0  0  0  0  0  0  0
  140.5650   68.1470  228.2200 C   0  0  0  0  0  0  0  0  0  0  0  0
  139.9160   67.4560  227.2060 C   0  0  0  0  0  0  0  0  0  0  0  0
  139.6860   68.0570  225.9660 C   0  0  0  0  0  0  0  0  0  0  0  0
  140.1330   69.3630  225.7990 C   0  0  0  0  0  0  0  0  0  0  0  0
  139.9020   69.9290  224.5940 N   0  0  0  0  0  0  0  0  0  0  0  0
  138.9350   70.0370  222.2760 H   0  0  0  0  0  0  0  0  0  0  0  0
  139.4330   72.6149  220.7228 H   0  0  0  0  0  0  0  0  0  0  0  0
  139.5114   70.9761  219.9664 H   0  0  0  0  0  0  0  0  0  0  0  0
  136.6706   70.5727  222.9126 H   0  0  0  0  0  0  0  0  0  0  0  0
  137.5906   72.0465  223.3286 H   0  0  0  0  0  0  0  0  0  0  0  0
  134.9701   71.4827  224.1249 H   0  0  0  0  0  0  0  0  0  0  0  0
  135.6902   73.0820  224.1606 H   0  0  0  0  0  0  0  0  0  0  0  0
  133.9370   71.7863  222.0314 H   0  0  0  0  0  0  0  0  0  0  0  0
  133.9088   73.4617  222.5767 H   0  0  0  0  0  0  0  0  0  0  0  0
  134.9797   72.8760  220.2928 H   0  0  0  0  0  0  0  0  0  0  0  0
  136.5683   74.5175  220.2695 H   0  0  0  0  0  0  0  0  0  0  0  0
  135.1900   75.0285  221.3558 H   0  0  0  0  0  0  0  0  0  0  0  0
  136.9510   73.9360  223.0950 H   0  0  0  0  0  0  0  0  0  0  0  0
  136.4960   77.2608  222.8347 H   0  0  0  0  0  0  0  0  0  0  0  0
  138.1549   79.0424  222.9915 H   0  0  0  0  0  0  0  0  0  0  0  0
  140.2882   79.5804  220.7133 H   0  0  0  0  0  0  0  0  0  0  0  0
  141.9354   81.4576  220.7923 H   0  0  0  0  0  0  0  0  0  0  0  0
  143.3683   81.7412  222.8172 H   0  0  0  0  0  0  0  0  0  0  0  0
  143.1520   80.1693  224.7323 H   0  0  0  0  0  0  0  0  0  0  0  0
  141.5126   78.2984  224.6538 H   0  0  0  0  0  0  0  0  0  0  0  0
  141.2339   76.2044  222.1389 H   0  0  0  0  0  0  0  0  0  0  0  0
  139.5677   74.4199  221.9818 H   0  0  0  0  0  0  0  0  0  0  0  0
  141.2470   72.9280  225.0683 H   0  0  0  0  0  0  0  0  0  0  0  0
  141.6914   71.9397  227.2842 H   0  0  0  0  0  0  0  0  0  0  0  0
  141.5196   69.9938  228.8466 H   0  0  0  0  0  0  0  0  0  0  0  0
  140.7339   67.6512  229.1873 H   0  0  0  0  0  0  0  0  0  0  0  0
  139.5790   66.4236  227.3808 H   0  0  0  0  0  0  0  0  0  0  0  0
  139.1725   67.5193  225.1553 H   0  0  0  0  0  0  0  0  0  0  0  0
  1  2  2  0
  2  3  1  0
  3  4  1  0
  4  5  1  0
  5  6  2  0
  5  7  1  0
  7  8  1  0
  8  9  1  0
  9 10  1  0
 10 11  1  0
 11 12  1  0
 12 13  1  0
 13 14  1  0
 14 15  2  0
 15 16  1  0
 16 17  2  0
 17 18  1  0
 18 19  2  0
 19 20  1  0
 20 21  2  0
 21 22  1  0
 22 23  2  0
 17 24  1  0
 24 25  2  0
  2 26  1  0
 26 27  2  0
 27 28  1  0
 28 29  2  0
 29 30  1  0
 30 31  2  0
 31 32  1  0
 32 33  2  0
 33 34  1  0
 34 35  2  0
 11  7  1  0
 25 14  1  0
 35 26  1  0
 23 18  1  0
 34 29  1  0
  3 36  1  0
  4 37  1  0
  4 38  1  0
  8 39  1  0
  8 40  1  0
  9 41  1  0
  9 42  1  0
 10 43  1  0
 10 44  1  0
 11 45  1  6
 12 46  1  0
 12 47  1  0
 13 48  1  0
 15 49  1  0
 16 50  1  0
 19 51  1  0
 20 52  1  0
 21 53  1  0
 22 54  1  0
 23 55  1  0
 24 56  1  0
 25 57  1  0
 27 58  1  0
 28 59  1  0
 30 60  1  0
 31 61  1  0
 32 62  1  0
 33 63  1  0
M  END
>  <smiles>  (32) 
O=C(NCC(=O)N1CCC[C@H]1CNc1ccc(-c2ccccc2)cc1)c1ccc2ccccc2n1

>  <score_type>  (32) 
oracle

>  <origin>  (32) 
autodockgpu

>  <m_score__min__energy>  (32) 
-9.8300000000000001

>  <m_primary>  (32) 
energy

>  <rmsd>  (32) 
5.213481467738962

>  <m_score__min__rmsd>  (32) 
5.213481467738962

>  <meeko>  (32) 
{"free_energy": -9.12, "intermolecular_energy": -11.51, "internal_energy": -2.37, "cluster_size": 12, "cluster_id": 3, "rank_in_cluster": 2}

>  <energy>  (32) 
-8.5

>  <cluster_rmsd>  (32) 
0.44

>  <cluster>  (32) 
5

$$$$

     RDKit          3D

 63 67  0  0  0  0  0  0  0  0999 V2000
  139.2740   74.9020  222.0190 O   0  0  0  0  0  0  0  0  0  0  0  0
  140.3140   75.5990  221.8880 C   0  0  0  0  0  0  0  0  0  0  0  0
  141.5080   75.1050  221.2780 N   0  0  0  0  0  0  0  0  0  0  0  0
  141.4980   73.7510  220.8040 C   0  0  0  0  0  0  0  0  0  0  0  0
  140.6620   73.6240  219.6070 C   0  0  0  0  0  0  0  0  0  0  0  0
  140.2930   74.6650  219.0050 O   0  0  0  0  0  0  0  0  0  0  0  0
  140.2670   72.3540  219.1230 N   0  0  0  0  0  0  0  0  0  0  0  0
  141.1290   71.2110  218.9480 C   0  0  0  0  0  0  0  0  0  0  0  0
  140.3340   70.1230  218.2980 C   0  0  0  0  0  0  0  0  0  0  0  0
  139.1140   70.8440  217.7700 C   0  0  0  0  0  0  0  0  0  0  0  0
  138.9070   71.9670  218.7080 C   0  0  1  0  0  0  0  0  0  0  0  0
  138.1280   71.6820  219.9340 C   0  0  0  0  0  0  0  0  0  0  0  0
  138.6640   72.2990  221.1080 N   0  0  0  0  0  0  0  0  0  0  0  0
  138.9690   71.7070  222.3350 C   0  0  0  0  0  0  0  0  0  0  0  0
  138.2100   70.7740  223.0020 C   0  0  0  0  0  0  0  0  0  0  0  0
  138.5530   70.2270  224.2190 C   0  0  0  0  0  0  0  0  0  0  0  0
  139.7190   70.6050  224.8490 C   0  0  0  0  0  0  0  0  0  0  0  0
  140.0730   70.0230  226.1350 C   0  0  0  0  0  0  0  0  0  0  0  0
  139.7180   68.7010  226.3890 C   0  0  0  0  0  0  0  0  0  0  0  0
  140.0340   68.0920  227.6070 C   0  0  0  0  0  0  0  0  0  0  0  0
  140.7130   68.8280  228.5710 C   0  0  0  0  0  0  0  0  0  0  0  0
  141.0700   70.1540  228.3200 C   0  0  0  0  0  0  0  0  0  0  0  0
  140.7560   70.7590  227.1100 C   0  0  0  0  0  0  0  0  0  0  0  0
  140.5060   71.5390  224.2090 C   0  0  0  0  0  0  0  0  0  0  0  0
  140.1540   72.0800  222.9930 C   0  0  0  0  0  0  0  0  0  0  0  0
  140.3210   76.9750  222.3710 C   0  0  0  0  0  0  0  0  0  0  0  0
  139.1370   77.6270  222.6910 C   0  0  0  0  0  0  0  0  0  0  0  0
  139.1290   78.9370  223.1520 C   0  0  0  0  0  0  0  0  0  0  0  0
  140.3050   79.6420  223.3080 C   0  0  0  0  0  0  0  0  0  0  0  0
  140.3530   80.9450  223.7620 C   0  0  0  0  0  0  0  0  0  0  0  0
  141.5980   81.5530  223.8790 C   0  0  0  0  0  0  0  0  0  0  0  0
  142.7650   80.8770  223.5510 C   0  0  0  0  0  0  0  0  0  0  0  0
  142.7230   79.5590  223.0920 C   0  0  0  0  0  0  0  0  0  0  0  0
  141.4720   78.9640  222.9800 C   0  0  0  0  0  0  0  0  0  0  0  0
  141.4490   77.6890  222.5340 N   0  0  0  0  0  0  0  0  0  0  0  0
  142.3570   75.7290  221.1890 H   0  0  0  0  0  0  0  0  0  0  0  0
  142.5265   73.4471  220.5593 H   0  0  0  0  0  0  0  0  0  0  0  0
  141.0847   73.1048  221.5925 H   0  0  0  0  0  0  0  0  0  0  0  0
  141.9821   71.4820  218.3086 H   0  0  0  0  0  0  0  0  0  0  0  0
  141.5137   70.8719  219.9211 H   0  0  0  0  0  0  0  0  0  0  0  0
  140.9011   69.6577  217.4783 H   0  0  0  0  0  0  0  0  0  0  0  0
  140.0824   69.3050  218.9891 H   0  0  0  0  0  0  0  0  0  0  0  0
  139.2948   71.2177  216.7513 H   0  0  0  0  0  0  0  0  0  0  0  0
  138.2352   70.1853  217.7089 H   0  0  0  0  0  0  0  0  0  0  0  0
  138.3136   72.7298  218.1826 H   0  0  0  0  0  0  0  0  0  0  0  0
  137.1011   72.0477  219.7867 H   0  0  0  0  0  0  0  0  0  0  0  0
  138.1651   70.5945  220.0949 H   0  0  0  0  0  0  0  0  0  0  0  0
  138.8500   73.3460  221.0270 H   0  0  0  0  0  0  0  0  0  0  0  0
  137.2705   70.4439  222.5346 H   0  0  0  0  0  0  0  0  0  0  0  0
  137.8925   69.4844  224.6905 H   0  0  0  0  0  0  0  0  0  0  0  0
  139.1807   68.1270  225.6197 H   0  0  0  0  0  0  0  0  0  0  0  0
  139.7498   67.0469  227.7995 H   0  0  0  0  0  0  0  0  0  0  0  0
  140.9698   68.3641  229.5348 H   0  0  0  0  0  0  0  0  0  0  0  0
  141.6069   70.7269  229.0904 H   0  0  0  0  0  0  0  0  0  0  0  0
  141.0407   71.8044  226.9201 H   0  0  0  0  0  0  0  0  0  0  0  0
  141.4439   71.8617  224.6847 H   0  0  0  0  0  0  0  0  0  0  0  0
  140.8165   72.8227  222.5245 H   0  0  0  0  0  0  0  0  0  0  0  0
  138.1823   77.0927  222.5765 H   0  0  0  0  0  0  0  0  0  0  0  0
  138.1712   79.4197  223.3964 H   0  0  0  0  0  0  0  0  0  0  0  0
  139.4322   81.4869  224.0238 H   0  0  0  0  0  0  0  0  0  0  0  0
  141.6593   82.5907  224.2388 H   0  0  0  0  0  0  0  0  0  0  0  0
  143.7348   81.3858  223.6539 H   0  0  0  0  0  0  0  0  0  0  0  0
  143.6420   79.0142  222.8299 H   0  0  0  0  0  0  0  0  0  0  0  0
  1  2  2  0
  2  3  1  0
  3  4  1  0
  4  5  1  0
  5  6  2  0
  5  7  1  0
  7  8  1  0
  8  9  1  0
  9 10  1  0
 10 11  1  0
 11 12  1  0
 12 13  1  0
 13 14  1  0
 14 15  2  0
 15 16  1  0
 16 17  2  0
 17 18  1  0
 18 19  2  0
 19 20  1  0
 20 21  2  0
 21 22  1  0
 22 23  2  0
 17 24  1  0
 24 25  2  0
  2 26  1  0
 26 27  2  0
 27 28  1  0
 28 29  2  0
 29 30  1  0
 30 31  2  0
 31 32  1  0
 32 33  2  0
 33 34  1  0
 34 35  2  0
 11  7  1  0
 25 14  1  0
 35 26  1  0
 23 18  1  0
 34 29  1  0
  3 36  1  0
  4 37  1  0
  4 38  1  0
  8 39  1  0
  8 40  1  0
  9 41  1  0
  9 42  1  0
 10 43  1  0
 10 44  1  0
 11 45  1  6
 12 46  1  0
 12 47  1  0
 13 48  1  0
 15 49  1  0
 16 50  1  0
 19 51  1  0
 20 52  1  0
 21 53  1  0
 22 54  1  0
 23 55  1  0
 24 56  1  0
 25 57  1  0
 27 58  1  0
 28 59  1  0
 30 60  1  0
 31 61  1  0
 32 62  1  0
 33 63  1  0
M  END
>  <smiles>  (33) 
O=C(NCC(=O)N1CCC[C@H]1CNc1ccc(-c2ccccc2)cc1)c1ccc2ccccc2n1

>  <score_type>  (33) 
oracle

>  <origin>  (33) 
autodockgpu

>  <m_score__min__energy>  (33) 
-9.8300000000000001

>  <m_primary>  (33) 
energy

>  <rmsd>  (33) 
8.846687443113005

>  <m_score__min__rmsd>  (33) 
8.846687443113005

>  <meeko>  (33) 
{"free_energy": -8.79, "intermolecular_energy": -11.17, "internal_energy": -3.1, "cluster_size": 7, "cluster_id": 4, "rank_in_cluster": 2}

>  <energy>  (33) 
-8.29

>  <cluster_rmsd>  (33) 
1.24

>  <cluster>  (33) 
5

$$$$

     RDKit          3D

 63 67  0  0  0  0  0  0  0  0999 V2000
  138.7320   75.2220  222.2790 O   0  0  0  0  0  0  0  0  0  0  0  0
  139.8890   75.7180  222.2510 C   0  0  0  0  0  0  0  0  0  0  0  0
  141.0530   74.9540  221.9290 N   0  0  0  0  0  0  0  0  0  0  0  0
  140.8710   73.5630  221.6300 C   0  0  0  0  0  0  0  0  0  0  0  0
  141.5540   73.2040  220.3830 C   0  0  0  0  0  0  0  0  0  0  0  0
  140.8830   72.7140  219.4370 O   0  0  0  0  0  0  0  0  0  0  0  0
  142.9470   73.3980  220.2310 N   0  0  0  0  0  0  0  0  0  0  0  0
  143.9580   72.3740  220.3160 C   0  0  0  0  0  0  0  0  0  0  0  0
  145.2980   73.0330  220.2220 C   0  0  0  0  0  0  0  0  0  0  0  0
  144.9930   74.4930  220.4720 C   0  0  0  0  0  0  0  0  0  0  0  0
  143.6200   74.6820  219.9600 C   0  0  1  0  0  0  0  0  0  0  0  0
  143.4760   74.9660  218.5150 C   0  0  0  0  0  0  0  0  0  0  0  0
  143.6740   76.3430  218.1800 N   0  0  0  0  0  0  0  0  0  0  0  0
  142.9360   77.4510  218.5990 C   0  0  0  0  0  0  0  0  0  0  0  0
  142.0830   77.5040  219.6770 C   0  0  0  0  0  0  0  0  0  0  0  0
  141.3690   78.6230  220.0420 C   0  0  0  0  0  0  0  0  0  0  0  0
  141.4800   79.7880  219.3140 C   0  0  0  0  0  0  0  0  0  0  0  0
  140.7200   80.9670  219.7060 C   0  0  0  0  0  0  0  0  0  0  0  0
  141.4140   82.1060  220.1040 C   0  0  0  0  0  0  0  0  0  0  0  0
  140.7330   83.2650  220.4910 C   0  0  0  0  0  0  0  0  0  0  0  0
  139.3440   83.2670  220.4720 C   0  0  0  0  0  0  0  0  0  0  0  0
  138.6440   82.1260  220.0730 C   0  0  0  0  0  0  0  0  0  0  0  0
  139.3200   80.9750  219.6900 C   0  0  0  0  0  0  0  0  0  0  0  0
  142.3260   79.7730  218.2260 C   0  0  0  0  0  0  0  0  0  0  0  0
  143.0350   78.6480  217.8680 C   0  0  0  0  0  0  0  0  0  0  0  0
  140.0710   77.1320  222.5550 C   0  0  0  0  0  0  0  0  0  0  0  0
  138.9820   77.9890  222.6540 C   0  0  0  0  0  0  0  0  0  0  0  0
  139.1420   79.3380  222.9430 C   0  0  0  0  0  0  0  0  0  0  0  0
  140.3960   79.8780  223.1430 C   0  0  0  0  0  0  0  0  0  0  0  0
  140.6090   81.2110  223.4320 C   0  0  0  0  0  0  0  0  0  0  0  0
  141.9190   81.6400  223.6130 C   0  0  0  0  0  0  0  0  0  0  0  0
  142.9880   80.7620  223.5090 C   0  0  0  0  0  0  0  0  0  0  0  0
  142.7790   79.4130  223.2170 C   0  0  0  0  0  0  0  0  0  0  0  0
  141.4640   78.9970  223.0370 C   0  0  0  0  0  0  0  0  0  0  0  0
  141.2800   77.6890  222.7550 N   0  0  0  0  0  0  0  0  0  0  0  0
  142.0050   75.4150  221.9170 H   0  0  0  0  0  0  0  0  0  0  0  0
  141.2829   72.9605  222.4530 H   0  0  0  0  0  0  0  0  0  0  0  0
  139.7953   73.3659  221.5118 H   0  0  0  0  0  0  0  0  0  0  0  0
  143.8705   71.8427  221.2752 H   0  0  0  0  0  0  0  0  0  0  0  0
  143.8332   71.6473  219.4997 H   0  0  0  0  0  0  0  0  0  0  0  0
  145.9844   72.6385  220.9857 H   0  0  0  0  0  0  0  0  0  0  0  0
  145.7938   72.8587  219.2557 H   0  0  0  0  0  0  0  0  0  0  0  0
  145.0409   74.7208  221.5471 H   0  0  0  0  0  0  0  0  0  0  0  0
  145.7163   75.1596  219.9797 H   0  0  0  0  0  0  0  0  0  0  0  0
  143.2049   75.5733  220.4532 H   0  0  0  0  0  0  0  0  0  0  0  0
  144.2162   74.3647  217.9668 H   0  0  0  0  0  0  0  0  0  0  0  0
  142.4425   74.7115  218.2373 H   0  0  0  0  0  0  0  0  0  0  0  0
  144.4940   76.5380  217.5260 H   0  0  0  0  0  0  0  0  0  0  0  0
  141.9640   76.5953  220.2854 H   0  0  0  0  0  0  0  0  0  0  0  0
  140.7064   78.5871  220.9193 H   0  0  0  0  0  0  0  0  0  0  0  0
  142.5139   82.0946  220.1144 H   0  0  0  0  0  0  0  0  0  0  0  0
  141.2887   84.1607  220.8054 H   0  0  0  0  0  0  0  0  0  0  0  0
  138.7932   84.1706  220.7723 H   0  0  0  0  0  0  0  0  0  0  0  0
  137.5441   82.1393  220.0620 H   0  0  0  0  0  0  0  0  0  0  0  0
  138.7620   80.0799  219.3777 H   0  0  0  0  0  0  0  0  0  0  0  0
  142.4383   80.6876  217.6253 H   0  0  0  0  0  0  0  0  0  0  0  0
  143.6948   78.6868  216.9887 H   0  0  0  0  0  0  0  0  0  0  0  0
  137.9688   77.5895  222.4998 H   0  0  0  0  0  0  0  0  0  0  0  0
  138.2557   79.9857  223.0135 H   0  0  0  0  0  0  0  0  0  0  0  0
  139.7667   81.9134  223.5166 H   0  0  0  0  0  0  0  0  0  0  0  0
  142.1119   82.6981  223.8436 H   0  0  0  0  0  0  0  0  0  0  0  0
  144.0126   81.1332  223.6584 H   0  0  0  0  0  0  0  0  0  0  0  0
  143.6194   78.7083  223.1327 H   0  0  0  0  0  0  0  0  0  0  0  0
  1  2  2  0
  2  3  1  0
  3  4  1  0
  4  5  1  0
  5  6  2  0
  5  7  1  0
  7  8  1  0
  8  9  1  0
  9 10  1  0
 10 11  1  0
 11 12  1  0
 12 13  1  0
 13 14  1  0
 14 15  2  0
 15 16  1  0
 16 17  2  0
 17 18  1  0
 18 19  2  0
 19 20  1  0
 20 21  2  0
 21 22  1  0
 22 23  2  0
 17 24  1  0
 24 25  2  0
  2 26  1  0
 26 27  2  0
 27 28  1  0
 28 29  2  0
 29 30  1  0
 30 31  2  0
 31 32  1  0
 32 33  2  0
 33 34  1  0
 34 35  2  0
 11  7  1  0
 25 14  1  0
 35 26  1  0
 23 18  1  0
 34 29  1  0
  3 36  1  0
  4 37  1  0
  4 38  1  0
  8 39  1  0
  8 40  1  0
  9 41  1  0
  9 42  1  0
 10 43  1  0
 10 44  1  0
 11 45  1  1
 12 46  1  0
 12 47  1  0
 13 48  1  0
 15 49  1  0
 16 50  1  0
 19 51  1  0
 20 52  1  0
 21 53  1  0
 22 54  1  0
 23 55  1  0
 24 56  1  0
 25 57  1  0
 27 58  1  0
 28 59  1  0
 30 60  1  0
 31 61  1  0
 32 62  1  0
 33 63  1  0
M  END
>  <smiles>  (34) 
O=C(NCC(=O)N1CCC[C@H]1CNc1ccc(-c2ccccc2)cc1)c1ccc2ccccc2n1

>  <score_type>  (34) 
oracle

>  <origin>  (34) 
autodockgpu

>  <m_score__min__energy>  (34) 
-9.8300000000000001

>  <m_primary>  (34) 
energy

>  <rmsd>  (34) 
7.011382491845576

>  <m_score__min__rmsd>  (34) 
7.011382491845576

>  <meeko>  (34) 
{"free_energy": -8.09, "intermolecular_energy": -10.48, "internal_energy": -3.92, "cluster_size": 10, "cluster_id": 7, "rank_in_cluster": 3}

>  <energy>  (34) 
-8.21

>  <cluster_rmsd>  (34) 
1.19

>  <cluster>  (34) 
5

$$$$

     RDKit          3D

 63 67  0  0  0  0  0  0  0  0999 V2000
  138.7750   75.3640  221.9070 O   0  0  0  0  0  0  0  0  0  0  0  0
  139.9480   75.7960  222.0580 C   0  0  0  0  0  0  0  0  0  0  0  0
  141.1050   74.9790  221.8720 N   0  0  0  0  0  0  0  0  0  0  0  0
  140.8970   73.6100  221.4980 C   0  0  0  0  0  0  0  0  0  0  0  0
  141.6190   73.2900  220.2630 C   0  0  0  0  0  0  0  0  0  0  0  0
  140.9650   73.1000  219.2040 O   0  0  0  0  0  0  0  0  0  0  0  0
  143.0310   73.1950  220.2450 N   0  0  0  0  0  0  0  0  0  0  0  0
  143.7930   71.9750  220.1510 C   0  0  0  0  0  0  0  0  0  0  0  0
  145.2420   72.3200  220.2950 C   0  0  0  0  0  0  0  0  0  0  0  0
  145.2180   73.7230  220.8600 C   0  0  0  0  0  0  0  0  0  0  0  0
  143.9780   74.3210  220.3230 C   0  0  1  0  0  0  0  0  0  0  0  0
  144.0560   74.9340  218.9780 C   0  0  0  0  0  0  0  0  0  0  0  0
  142.8560   75.6040  218.5840 N   0  0  0  0  0  0  0  0  0  0  0  0
  142.5880   76.9740  218.5820 C   0  0  0  0  0  0  0  0  0  0  0  0
  142.7680   77.8380  217.5270 C   0  0  0  0  0  0  0  0  0  0  0  0
  142.4960   79.1870  217.5810 C   0  0  0  0  0  0  0  0  0  0  0  0
  142.0130   79.7550  218.7400 C   0  0  0  0  0  0  0  0  0  0  0  0
  141.7290   81.1830  218.7880 C   0  0  0  0  0  0  0  0  0  0  0  0
  141.0490   81.6910  219.8910 C   0  0  0  0  0  0  0  0  0  0  0  0
  140.7520   83.0540  219.9880 C   0  0  0  0  0  0  0  0  0  0  0  0
  141.1480   83.9030  218.9620 C   0  0  0  0  0  0  0  0  0  0  0  0
  141.8300   83.3970  217.8540 C   0  0  0  0  0  0  0  0  0  0  0  0
  142.1250   82.0440  217.7580 C   0  0  0  0  0  0  0  0  0  0  0  0
  141.8200   78.9190  219.8180 C   0  0  0  0  0  0  0  0  0  0  0  0
  142.0950   77.5710  219.7550 C   0  0  0  0  0  0  0  0  0  0  0  0
  140.1560   77.1870  222.4380 C   0  0  0  0  0  0  0  0  0  0  0  0
  139.0810   78.0410  222.6490 C   0  0  0  0  0  0  0  0  0  0  0  0
  139.2660   79.3690  223.0100 C   0  0  0  0  0  0  0  0  0  0  0  0
  140.5330   79.8920  223.1740 C   0  0  0  0  0  0  0  0  0  0  0  0
  140.7710   81.2030  223.5320 C   0  0  0  0  0  0  0  0  0  0  0  0
  142.0920   81.6150  223.6670 C   0  0  0  0  0  0  0  0  0  0  0  0
  143.1480   80.7410  223.4510 C   0  0  0  0  0  0  0  0  0  0  0  0
  142.9120   79.4130  223.0890 C   0  0  0  0  0  0  0  0  0  0  0  0
  141.5870   79.0140  222.9560 C   0  0  0  0  0  0  0  0  0  0  0  0
  141.3780   77.7260  222.6050 N   0  0  0  0  0  0  0  0  0  0  0  0
  142.0710   75.3860  222.0100 H   0  0  0  0  0  0  0  0  0  0  0  0
  141.2584   72.9569  222.3060 H   0  0  0  0  0  0  0  0  0  0  0  0
  139.8219   73.4514  221.3279 H   0  0  0  0  0  0  0  0  0  0  0  0
  143.4925   71.2849  220.9532 H   0  0  0  0  0  0  0  0  0  0  0  0
  143.6120   71.4861  219.1824 H   0  0  0  0  0  0  0  0  0  0  0  0
  145.7442   71.6268  220.9858 H   0  0  0  0  0  0  0  0  0  0  0  0
  145.7948   72.2501  219.3465 H   0  0  0  0  0  0  0  0  0  0  0  0
  145.1925   73.6983  221.9594 H   0  0  0  0  0  0  0  0  0  0  0  0
  146.1128   74.2994  220.5824 H   0  0  0  0  0  0  0  0  0  0  0  0
  143.7026   75.1556  220.9845 H   0  0  0  0  0  0  0  0  0  0  0  0
  144.8787   75.6641  218.9757 H   0  0  0  0  0  0  0  0  0  0  0  0
  144.2199   74.1169  218.2600 H   0  0  0  0  0  0  0  0  0  0  0  0
  142.0680   74.9660  218.2510 H   0  0  0  0  0  0  0  0  0  0  0  0
  143.1528   77.4263  216.5823 H   0  0  0  0  0  0  0  0  0  0  0  0
  142.6653   79.8148  216.6938 H   0  0  0  0  0  0  0  0  0  0  0  0
  140.7407   81.0104  220.6983 H   0  0  0  0  0  0  0  0  0  0  0  0
  140.2135   83.4477  220.8626 H   0  0  0  0  0  0  0  0  0  0  0  0
  140.9233   84.9781  219.0230 H   0  0  0  0  0  0  0  0  0  0  0  0
  142.1373   84.0787  217.0473 H   0  0  0  0  0  0  0  0  0  0  0  0
  142.6639   81.6529  216.8824 H   0  0  0  0  0  0  0  0  0  0  0  0
  141.4345   79.3411  220.7578 H   0  0  0  0  0  0  0  0  0  0  0  0
  141.9247   76.9464  220.6443 H   0  0  0  0  0  0  0  0  0  0  0  0
  138.0579   77.6558  222.5271 H   0  0  0  0  0  0  0  0  0  0  0  0
  138.3893   80.0144  223.1677 H   0  0  0  0  0  0  0  0  0  0  0  0
  139.9396   81.9021  223.7056 H   0  0  0  0  0  0  0  0  0  0  0  0
  142.3046   82.6562  223.9512 H   0  0  0  0  0  0  0  0  0  0  0  0
  144.1820   81.0980  223.5662 H   0  0  0  0  0  0  0  0  0  0  0  0
  143.7411   78.7111  222.9161 H   0  0  0  0  0  0  0  0  0  0  0  0
  1  2  2  0
  2  3  1  0
  3  4  1  0
  4  5  1  0
  5  6  2  0
  5  7  1  0
  7  8  1  0
  8  9  1  0
  9 10  1  0
 10 11  1  0
 11 12  1  0
 12 13  1  0
 13 14  1  0
 14 15  2  0
 15 16  1  0
 16 17  2  0
 17 18  1  0
 18 19  2  0
 19 20  1  0
 20 21  2  0
 21 22  1  0
 22 23  2  0
 17 24  1  0
 24 25  2  0
  2 26  1  0
 26 27  2  0
 27 28  1  0
 28 29  2  0
 29 30  1  0
 30 31  2  0
 31 32  1  0
 32 33  2  0
 33 34  1  0
 34 35  2  0
 11  7  1  0
 25 14  1  0
 35 26  1  0
 23 18  1  0
 34 29  1  0
  3 36  1  0
  4 37  1  0
  4 38  1  0
  8 39  1  0
  8 40  1  0
  9 41  1  0
  9 42  1  0
 10 43  1  0
 10 44  1  0
 11 45  1  1
 12 46  1  0
 12 47  1  0
 13 48  1  0
 15 49  1  0
 16 50  1  0
 19 51  1  0
 20 52  1  0
 21 53  1  0
 22 54  1  0
 23 55  1  0
 24 56  1  0
 25 57  1  0
 27 58  1  0
 28 59  1  0
 30 60  1  0
 31 61  1  0
 32 62  1  0
 33 63  1  0
M  END
>  <smiles>  (35) 
O=C(NCC(=O)N1CCC[C@H]1CNc1ccc(-c2ccccc2)cc1)c1ccc2ccccc2n1

>  <score_type>  (35) 
oracle

>  <origin>  (35) 
autodockgpu

>  <m_score__min__energy>  (35) 
-9.8300000000000001

>  <m_primary>  (35) 
energy

>  <rmsd>  (35) 
7.068530522944379

>  <m_score__min__rmsd>  (35) 
7.068530522944379

>  <meeko>  (35) 
{"free_energy": -8.02, "intermolecular_energy": -10.4, "internal_energy": -4.0, "cluster_size": 10, "cluster_id": 7, "rank_in_cluster": 4}

>  <energy>  (35) 
-7.66

>  <cluster_rmsd>  (35) 
1.97

>  <cluster>  (35) 
5

$$$$

     RDKit          3D

 63 67  0  0  0  0  0  0  0  0999 V2000
  138.8510   71.6510  221.3990 O   0  0  0  0  0  0  0  0  0  0  0  0
  139.7210   72.0150  222.2330 C   0  0  0  0  0  0  0  0  0  0  0  0
  140.6370   73.0830  221.9820 N   0  0  0  0  0  0  0  0  0  0  0  0
  140.5450   73.7530  220.7170 C   0  0  0  0  0  0  0  0  0  0  0  0
  141.7860   74.4720  220.4150 C   0  0  0  0  0  0  0  0  0  0  0  0
  142.7510   74.3900  221.2190 O   0  0  0  0  0  0  0  0  0  0  0  0
  141.9120   75.2510  219.2410 N   0  0  0  0  0  0  0  0  0  0  0  0
  141.1670   75.0660  218.0210 C   0  0  0  0  0  0  0  0  0  0  0  0
  141.7020   76.0200  216.9990 C   0  0  0  0  0  0  0  0  0  0  0  0
  143.0250   76.4600  217.5860 C   0  0  0  0  0  0  0  0  0  0  0  0
  142.8280   76.3890  219.0490 C   0  0  1  0  0  0  0  0  0  0  0  0
  142.2190   77.5700  219.7020 C   0  0  0  0  0  0  0  0  0  0  0  0
  141.7770   77.3190  221.0390 N   0  0  0  0  0  0  0  0  0  0  0  0
  140.8510   78.0410  221.7950 C   0  0  0  0  0  0  0  0  0  0  0  0
  141.1380   78.9300  222.8040 C   0  0  0  0  0  0  0  0  0  0  0  0
  140.1840   79.6110  223.5270 C   0  0  0  0  0  0  0  0  0  0  0  0
  138.8440   79.4250  223.2610 C   0  0  0  0  0  0  0  0  0  0  0  0
  137.8420   80.1480  224.0310 C   0  0  0  0  0  0  0  0  0  0  0  0
  136.5000   79.8290  223.8450 C   0  0  0  0  0  0  0  0  0  0  0  0
  135.4970   80.4920  224.5600 C   0  0  0  0  0  0  0  0  0  0  0  0
  135.8590   81.4810  225.4650 C   0  0  0  0  0  0  0  0  0  0  0  0
  137.2040   81.8050  225.6540 C   0  0  0  0  0  0  0  0  0  0  0  0
  138.2000   81.1470  224.9450 C   0  0  0  0  0  0  0  0  0  0  0  0
  138.5190   78.5410  222.2550 C   0  0  0  0  0  0  0  0  0  0  0  0
  139.4800   77.8650  221.5380 C   0  0  0  0  0  0  0  0  0  0  0  0
  139.8130   71.3320  223.5170 C   0  0  0  0  0  0  0  0  0  0  0  0
  139.3000   70.0530  223.6860 C   0  0  0  0  0  0  0  0  0  0  0  0
  139.3810   69.3910  224.9050 C   0  0  0  0  0  0  0  0  0  0  0  0
  139.9770   69.9860  225.9980 C   0  0  0  0  0  0  0  0  0  0  0  0
  140.0830   69.3730  227.2300 C   0  0  0  0  0  0  0  0  0  0  0  0
  140.7050   70.0720  228.2580 C   0  0  0  0  0  0  0  0  0  0  0  0
  141.2090   71.3500  228.0620 C   0  0  0  0  0  0  0  0  0  0  0  0
  141.1050   71.9750  226.8170 C   0  0  0  0  0  0  0  0  0  0  0  0
  140.4800   71.2650  225.7980 C   0  0  0  0  0  0  0  0  0  0  0  0
  140.3880   71.8850  224.6010 N   0  0  0  0  0  0  0  0  0  0  0  0
  141.3510   73.3540  222.7140 H   0  0  0  0  0  0  0  0  0  0  0  0
  140.3584   73.0093  219.9282 H   0  0  0  0  0  0  0  0  0  0  0  0
  139.7201   74.4792  220.7629 H   0  0  0  0  0  0  0  0  0  0  0  0
  141.2865   74.0323  217.6645 H   0  0  0  0  0  0  0  0  0  0  0  0
  140.0976   75.2554  218.1956 H   0  0  0  0  0  0  0  0  0  0  0  0
  141.8486   75.5181  216.0312 H   0  0  0  0  0  0  0  0  0  0  0  0
  141.0210   76.8604  216.7991 H   0  0  0  0  0  0  0  0  0  0  0  0
  143.8335   75.7843  217.2701 H   0  0  0  0  0  0  0  0  0  0  0  0
  143.3135   77.4680  217.2532 H   0  0  0  0  0  0  0  0  0  0  0  0
  143.8227   76.3079  219.5117 H   0  0  0  0  0  0  0  0  0  0  0  0
  142.9660   78.3771  219.7281 H   0  0  0  0  0  0  0  0  0  0  0  0
  141.3304   77.8423  219.1136 H   0  0  0  0  0  0  0  0  0  0  0  0
  142.2170   76.4710  221.5120 H   0  0  0  0  0  0  0  0  0  0  0  0
  142.1955   79.1083  223.0489 H   0  0  0  0  0  0  0  0  0  0  0  0
  140.4927   80.3070  224.3209 H   0  0  0  0  0  0  0  0  0  0  0  0
  136.2241   79.0442  223.1253 H   0  0  0  0  0  0  0  0  0  0  0  0
  134.4386   80.2340  224.4078 H   0  0  0  0  0  0  0  0  0  0  0  0
  135.0826   82.0117  226.0356 H   0  0  0  0  0  0  0  0  0  0  0  0
  137.4777   82.5910  226.3733 H   0  0  0  0  0  0  0  0  0  0  0  0
  139.2576   81.4072  225.0993 H   0  0  0  0  0  0  0  0  0  0  0  0
  137.4586   78.3703  222.0176 H   0  0  0  0  0  0  0  0  0  0  0  0
  139.1677   77.1701  220.7445 H   0  0  0  0  0  0  0  0  0  0  0  0
  138.8176   69.5515  222.8341 H   0  0  0  0  0  0  0  0  0  0  0  0
  138.9638   68.3776  225.0001 H   0  0  0  0  0  0  0  0  0  0  0  0
  139.6865   68.3601  227.3938 H   0  0  0  0  0  0  0  0  0  0  0  0
  140.7997   69.6020  229.2480 H   0  0  0  0  0  0  0  0  0  0  0  0
  141.6957   71.8767  228.8961 H   0  0  0  0  0  0  0  0  0  0  0  0
  141.5013   72.9874  226.6497 H   0  0  0  0  0  0  0  0  0  0  0  0
  1  2  2  0
  2  3  1  0
  3  4  1  0
  4  5  1  0
  5  6  2  0
  5  7  1  0
  7  8  1  0
  8  9  1  0
  9 10  1  0
 10 11  1  0
 11 12  1  0
 12 13  1  0
 13 14  1  0
 14 15  2  0
 15 16  1  0
 16 17  2  0
 17 18  1  0
 18 19  2  0
 19 20  1  0
 20 21  2  0
 21 22  1  0
 22 23  2  0
 17 24  1  0
 24 25  2  0
  2 26  1  0
 26 27  2  0
 27 28  1  0
 28 29  2  0
 29 30  1  0
 30 31  2  0
 31 32  1  0
 32 33  2  0
 33 34  1  0
 34 35  2  0
 11  7  1  0
 25 14  1  0
 35 26  1  0
 23 18  1  0
 34 29  1  0
  3 36  1  0
  4 37  1  0
  4 38  1  0
  8 39  1  0
  8 40  1  0
  9 41  1  0
  9 42  1  0
 10 43  1  0
 10 44  1  0
 11 45  1  1
 12 46  1  0
 12 47  1  0
 13 48  1  0
 15 49  1  0
 16 50  1  0
 19 51  1  0
 20 52  1  0
 21 53  1  0
 22 54  1  0
 23 55  1  0
 24 56  1  0
 25 57  1  0
 27 58  1  0
 28 59  1  0
 30 60  1  0
 31 61  1  0
 32 62  1  0
 33 63  1  0
M  END
>  <smiles>  (36) 
O=C(NCC(=O)N1CCC[C@H]1CNc1ccc(-c2ccccc2)cc1)c1ccc2ccccc2n1

>  <score_type>  (36) 
oracle

>  <origin>  (36) 
autodockgpu

>  <m_score__min__energy>  (36) 
-9.8300000000000001

>  <m_primary>  (36) 
energy

>  <rmsd>  (36) 
2.4772288226435064

>  <m_score__min__rmsd>  (36) 
2.4772288226435064

>  <meeko>  (36) 
{"free_energy": -8.56, "intermolecular_energy": -10.95, "internal_energy": -2.97, "cluster_size": 5, "cluster_id": 1, "rank_in_cluster": 5}

>  <energy>  (36) 
-8.46

>  <cluster_rmsd>  (36) 
0.0

>  <cluster>  (36) 
6

$$$$

     RDKit          3D

 63 67  0  0  0  0  0  0  0  0999 V2000
  139.4860   71.3630  221.1600 O   0  0  0  0  0  0  0  0  0  0  0  0
  140.0860   71.8880  222.1340 C   0  0  0  0  0  0  0  0  0  0  0  0
  140.9160   73.0430  222.0030 N   0  0  0  0  0  0  0  0  0  0  0  0
  141.0600   73.6110  220.6930 C   0  0  0  0  0  0  0  0  0  0  0  0
  140.1480   74.7440  220.5130 C   0  0  0  0  0  0  0  0  0  0  0  0
  139.0920   74.5800  219.8490 O   0  0  0  0  0  0  0  0  0  0  0  0
  140.4380   76.0110  221.0720 N   0  0  0  0  0  0  0  0  0  0  0  0
  141.2960   77.0140  220.4920 C   0  0  0  0  0  0  0  0  0  0  0  0
  141.4230   78.1400  221.4690 C   0  0  0  0  0  0  0  0  0  0  0  0
  140.9180   77.5440  222.7640 C   0  0  0  0  0  0  0  0  0  0  0  0
  139.9200   76.5360  222.3480 C   0  0  1  0  0  0  0  0  0  0  0  0
  138.5410   77.0180  222.1070 C   0  0  0  0  0  0  0  0  0  0  0  0
  137.6090   75.9690  221.8320 N   0  0  0  0  0  0  0  0  0  0  0  0
  136.7910   75.2790  222.7290 C   0  0  0  0  0  0  0  0  0  0  0  0
  136.4990   73.9350  222.6990 C   0  0  0  0  0  0  0  0  0  0  0  0
  135.6770   73.3040  223.6050 C   0  0  0  0  0  0  0  0  0  0  0  0
  135.0850   74.0180  224.6240 C   0  0  0  0  0  0  0  0  0  0  0  0
  134.2150   73.3430  225.5770 C   0  0  0  0  0  0  0  0  0  0  0  0
  134.3350   71.9640  225.7270 C   0  0  0  0  0  0  0  0  0  0  0  0
  133.5250   71.2660  226.6290 C   0  0  0  0  0  0  0  0  0  0  0  0
  132.5920   71.9700  227.3790 C   0  0  0  0  0  0  0  0  0  0  0  0
  132.4690   73.3530  227.2310 C   0  0  0  0  0  0  0  0  0  0  0  0
  133.2720   74.0460  226.3360 C   0  0  0  0  0  0  0  0  0  0  0  0
  135.3540   75.3680  224.6860 C   0  0  0  0  0  0  0  0  0  0  0  0
  136.1780   75.9910  223.7740 C   0  0  0  0  0  0  0  0  0  0  0  0
  139.9380   71.3090  223.4640 C   0  0  0  0  0  0  0  0  0  0  0  0
  139.1330   70.1970  223.6750 C   0  0  0  0  0  0  0  0  0  0  0  0
  138.9830   69.6370  224.9370 C   0  0  0  0  0  0  0  0  0  0  0  0
  139.6320   70.1680  226.0330 C   0  0  0  0  0  0  0  0  0  0  0  0
  139.5180   69.6490  227.3070 C   0  0  0  0  0  0  0  0  0  0  0  0
  140.2210   70.2700  228.3330 C   0  0  0  0  0  0  0  0  0  0  0  0
  141.0190   71.3800  228.0930 C   0  0  0  0  0  0  0  0  0  0  0  0
  141.1390   71.9090  226.8060 C   0  0  0  0  0  0  0  0  0  0  0  0
  140.4300   71.2790  225.7900 C   0  0  0  0  0  0  0  0  0  0  0  0
  140.5570   71.8030  224.5520 N   0  0  0  0  0  0  0  0  0  0  0  0
  141.4000   73.4500  222.8510 H   0  0  0  0  0  0  0  0  0  0  0  0
  142.0957   73.9577  220.5622 H   0  0  0  0  0  0  0  0  0  0  0  0
  140.8165   72.8407  219.9464 H   0  0  0  0  0  0  0  0  0  0  0  0
  142.2876   76.5836  220.2884 H   0  0  0  0  0  0  0  0  0  0  0  0
  140.8703   77.3778  219.5452 H   0  0  0  0  0  0  0  0  0  0  0  0
  142.4710   78.4599  221.5659 H   0  0  0  0  0  0  0  0  0  0  0  0
  140.8637   79.0366  221.1637 H   0  0  0  0  0  0  0  0  0  0  0  0
  141.7404   77.0696  223.3196 H   0  0  0  0  0  0  0  0  0  0  0  0
  140.4883   78.3043  223.4329 H   0  0  0  0  0  0  0  0  0  0  0  0
  139.8148   75.8165  223.1734 H   0  0  0  0  0  0  0  0  0  0  0  0
  138.2006   77.5603  223.0015 H   0  0  0  0  0  0  0  0  0  0  0  0
  138.5749   77.6619  221.2158 H   0  0  0  0  0  0  0  0  0  0  0  0
  137.5360   75.6830  220.8070 H   0  0  0  0  0  0  0  0  0  0  0  0
  136.9505   73.3268  221.9014 H   0  0  0  0  0  0  0  0  0  0  0  0
  135.4916   72.2235  223.5150 H   0  0  0  0  0  0  0  0  0  0  0  0
  135.0770   71.4158  225.1280 H   0  0  0  0  0  0  0  0  0  0  0  0
  133.6255   70.1765  226.7424 H   0  0  0  0  0  0  0  0  0  0  0  0
  131.9473   71.4360  228.0925 H   0  0  0  0  0  0  0  0  0  0  0  0
  131.7267   73.8998  227.8310 H   0  0  0  0  0  0  0  0  0  0  0  0
  133.1686   75.1354  226.2243 H   0  0  0  0  0  0  0  0  0  0  0  0
  134.8971   75.9665  225.4879 H   0  0  0  0  0  0  0  0  0  0  0  0
  136.3603   77.0719  223.8662 H   0  0  0  0  0  0  0  0  0  0  0  0
  138.6016   69.7492  222.8223 H   0  0  0  0  0  0  0  0  0  0  0  0
  138.3366   68.7562  225.0650 H   0  0  0  0  0  0  0  0  0  0  0  0
  138.8886   68.7688  227.5048 H   0  0  0  0  0  0  0  0  0  0  0  0
  140.1432   69.8735  229.3561 H   0  0  0  0  0  0  0  0  0  0  0  0
  141.5633   71.8485  228.9262 H   0  0  0  0  0  0  0  0  0  0  0  0
  141.7688   72.7881  226.6047 H   0  0  0  0  0  0  0  0  0  0  0  0
  1  2  2  0
  2  3  1  0
  3  4  1  0
  4  5  1  0
  5  6  2  0
  5  7  1  0
  7  8  1  0
  8  9  1  0
  9 10  1  0
 10 11  1  0
 11 12  1  0
 12 13  1  0
 13 14  1  0
 14 15  2  0
 15 16  1  0
 16 17  2  0
 17 18  1  0
 18 19  2  0
 19 20  1  0
 20 21  2  0
 21 22  1  0
 22 23  2  0
 17 24  1  0
 24 25  2  0
  2 26  1  0
 26 27  2  0
 27 28  1  0
 28 29  2  0
 29 30  1  0
 30 31  2  0
 31 32  1  0
 32 33  2  0
 33 34  1  0
 34 35  2  0
 11  7  1  0
 25 14  1  0
 35 26  1  0
 23 18  1  0
 34 29  1  0
  3 36  1  0
  4 37  1  0
  4 38  1  0
  8 39  1  0
  8 40  1  0
  9 41  1  0
  9 42  1  0
 10 43  1  0
 10 44  1  0
 11 45  1  1
 12 46  1  0
 12 47  1  0
 13 48  1  0
 15 49  1  0
 16 50  1  0
 19 51  1  0
 20 52  1  0
 21 53  1  0
 22 54  1  0
 23 55  1  0
 24 56  1  0
 25 57  1  0
 27 58  1  0
 28 59  1  0
 30 60  1  0
 31 61  1  0
 32 62  1  0
 33 63  1  0
M  END
>  <smiles>  (37) 
O=C(NCC(=O)N1CCC[C@H]1CNc1ccc(-c2ccccc2)cc1)c1ccc2ccccc2n1

>  <score_type>  (37) 
oracle

>  <origin>  (37) 
autodockgpu

>  <m_score__min__energy>  (37) 
-9.8300000000000001

>  <m_primary>  (37) 
energy

>  <rmsd>  (37) 
5.430530166177117

>  <m_score__min__rmsd>  (37) 
5.430530166177117

>  <meeko>  (37) 
{"free_energy": -8.29, "intermolecular_energy": -10.68, "internal_energy": -3.3, "cluster_size": 5, "cluster_id": 5, "rank_in_cluster": 3}

>  <energy>  (37) 
-8.2

>  <cluster_rmsd>  (37) 
0.0

>  <cluster>  (37) 
7

$$$$

     RDKit          3D

 63 67  0  0  0  0  0  0  0  0999 V2000
  140.7720   71.1250  221.2040 O   0  0  0  0  0  0  0  0  0  0  0  0
  140.4310   71.8190  222.1980 C   0  0  0  0  0  0  0  0  0  0  0  0
  140.2040   73.2270  222.1200 N   0  0  0  0  0  0  0  0  0  0  0  0
  140.3810   73.8580  220.8440 C   0  0  0  0  0  0  0  0  0  0  0  0
  140.5330   75.3080  220.9950 C   0  0  0  0  0  0  0  0  0  0  0  0
  140.7720   75.7820  222.1360 O   0  0  0  0  0  0  0  0  0  0  0  0
  140.4160   76.1750  219.8830 N   0  0  0  0  0  0  0  0  0  0  0  0
  139.3360   77.0980  219.6410 C   0  0  0  0  0  0  0  0  0  0  0  0
  139.5470   77.7190  218.2960 C   0  0  0  0  0  0  0  0  0  0  0  0
  140.5710   76.8160  217.6450 C   0  0  0  0  0  0  0  0  0  0  0  0
  141.3750   76.2920  218.7690 C   0  0  1  0  0  0  0  0  0  0  0  0
  142.5030   77.1280  219.2350 C   0  0  0  0  0  0  0  0  0  0  0  0
  143.5640   76.3770  219.8310 N   0  0  0  0  0  0  0  0  0  0  0  0
  143.8560   75.0200  219.6800 C   0  0  0  0  0  0  0  0  0  0  0  0
  144.0410   74.3520  218.4920 C   0  0  0  0  0  0  0  0  0  0  0  0
  144.3190   73.0070  218.3980 C   0  0  0  0  0  0  0  0  0  0  0  0
  144.4280   72.2370  219.5360 C   0  0  0  0  0  0  0  0  0  0  0  0
  144.7210   70.8150  219.4270 C   0  0  0  0  0  0  0  0  0  0  0  0
  143.7270   69.9020  219.7710 C   0  0  0  0  0  0  0  0  0  0  0  0
  143.9550   68.5240  219.6840 C   0  0  0  0  0  0  0  0  0  0  0  0
  145.1950   68.0740  219.2470 C   0  0  0  0  0  0  0  0  0  0  0  0
  146.1930   68.9870  218.9020 C   0  0  0  0  0  0  0  0  0  0  0  0
  145.9680   70.3540  218.9890 C   0  0  0  0  0  0  0  0  0  0  0  0
  144.2490   72.8720  220.7460 C   0  0  0  0  0  0  0  0  0  0  0  0
  143.9710   74.2180  220.8290 C   0  0  0  0  0  0  0  0  0  0  0  0
  140.2520   71.1750  223.4940 C   0  0  0  0  0  0  0  0  0  0  0  0
  139.6260   69.9400  223.5990 C   0  0  0  0  0  0  0  0  0  0  0  0
  139.4490   69.3170  224.8280 C   0  0  0  0  0  0  0  0  0  0  0  0
  139.8900   69.9070  225.9950 C   0  0  0  0  0  0  0  0  0  0  0  0
  139.7400   69.3310  227.2390 C   0  0  0  0  0  0  0  0  0  0  0  0
  140.2250   70.0200  228.3440 C   0  0  0  0  0  0  0  0  0  0  0  0
  140.8470   71.2540  228.2100 C   0  0  0  0  0  0  0  0  0  0  0  0
  141.0030   71.8420  226.9520 C   0  0  0  0  0  0  0  0  0  0  0  0
  140.5120   71.1410  225.8570 C   0  0  0  0  0  0  0  0  0  0  0  0
  140.6710   71.7250  224.6490 N   0  0  0  0  0  0  0  0  0  0  0  0
  139.9180   73.7680  222.9830 H   0  0  0  0  0  0  0  0  0  0  0  0
  141.2814   73.4496  220.3619 H   0  0  0  0  0  0  0  0  0  0  0  0
  139.4920   73.6598  220.2272 H   0  0  0  0  0  0  0  0  0  0  0  0
  138.3761   76.5610  219.6572 H   0  0  0  0  0  0  0  0  0  0  0  0
  139.3167   77.8743  220.4201 H   0  0  0  0  0  0  0  0  0  0  0  0
  138.6111   77.7323  217.7182 H   0  0  0  0  0  0  0  0  0  0  0  0
  139.8769   78.7667  218.3556 H   0  0  0  0  0  0  0  0  0  0  0  0
  140.0770   75.9948  217.1050 H   0  0  0  0  0  0  0  0  0  0  0  0
  141.1863   77.3488  216.9051 H   0  0  0  0  0  0  0  0  0  0  0  0
  141.8527   75.3624  218.4261 H   0  0  0  0  0  0  0  0  0  0  0  0
  142.9079   77.6778  218.3726 H   0  0  0  0  0  0  0  0  0  0  0  0
  142.1076   77.7997  220.0112 H   0  0  0  0  0  0  0  0  0  0  0  0
  144.2100   76.9330  220.4720 H   0  0  0  0  0  0  0  0  0  0  0  0
  143.9619   74.9286  217.5586 H   0  0  0  0  0  0  0  0  0  0  0  0
  144.4549   72.5443  217.4093 H   0  0  0  0  0  0  0  0  0  0  0  0
  142.7491   70.2692  220.1159 H   0  0  0  0  0  0  0  0  0  0  0  0
  143.1654   67.8086  219.9572 H   0  0  0  0  0  0  0  0  0  0  0  0
  145.3909   66.9941  219.1726 H   0  0  0  0  0  0  0  0  0  0  0  0
  147.1702   68.6185  218.5568 H   0  0  0  0  0  0  0  0  0  0  0  0
  146.7605   71.0667  218.7169 H   0  0  0  0  0  0  0  0  0  0  0  0
  144.3307   72.2859  221.6733 H   0  0  0  0  0  0  0  0  0  0  0  0
  143.8355   74.6774  221.8192 H   0  0  0  0  0  0  0  0  0  0  0  0
  139.2617   69.4433  222.6876 H   0  0  0  0  0  0  0  0  0  0  0  0
  138.9494   68.3380  224.8716 H   0  0  0  0  0  0  0  0  0  0  0  0
  139.2498   68.3529  227.3534 H   0  0  0  0  0  0  0  0  0  0  0  0
  140.1139   69.5787  229.3454 H   0  0  0  0  0  0  0  0  0  0  0  0
  141.2211   71.7745  229.1039 H   0  0  0  0  0  0  0  0  0  0  0  0
  141.4941   72.8191  226.8333 H   0  0  0  0  0  0  0  0  0  0  0  0
  1  2  2  0
  2  3  1  0
  3  4  1  0
  4  5  1  0
  5  6  2  0
  5  7  1  0
  7  8  1  0
  8  9  1  0
  9 10  1  0
 10 11  1  0
 11 12  1  0
 12 13  1  0
 13 14  1  0
 14 15  2  0
 15 16  1  0
 16 17  2  0
 17 18  1  0
 18 19  2  0
 19 20  1  0
 20 21  2  0
 21 22  1  0
 22 23  2  0
 17 24  1  0
 24 25  2  0
  2 26  1  0
 26 27  2  0
 27 28  1  0
 28 29  2  0
 29 30  1  0
 30 31  2  0
 31 32  1  0
 32 33  2  0
 33 34  1  0
 34 35  2  0
 11  7  1  0
 25 14  1  0
 35 26  1  0
 23 18  1  0
 34 29  1  0
  3 36  1  0
  4 37  1  0
  4 38  1  0
  8 39  1  0
  8 40  1  0
  9 41  1  0
  9 42  1  0
 10 43  1  0
 10 44  1  0
 11 45  1  6
 12 46  1  0
 12 47  1  0
 13 48  1  0
 15 49  1  0
 16 50  1  0
 19 51  1  0
 20 52  1  0
 21 53  1  0
 22 54  1  0
 23 55  1  0
 24 56  1  0
 25 57  1  0
 27 58  1  0
 28 59  1  0
 30 60  1  0
 31 61  1  0
 32 62  1  0
 33 63  1  0
M  END
>  <smiles>  (38) 
O=C(NCC(=O)N1CCC[C@H]1CNc1ccc(-c2ccccc2)cc1)c1ccc2ccccc2n1

>  <score_type>  (38) 
oracle

>  <origin>  (38) 
autodockgpu

>  <m_score__min__energy>  (38) 
-9.8300000000000001

>  <m_primary>  (38) 
energy

>  <rmsd>  (38) 
5.188148771239573

>  <m_score__min__rmsd>  (38) 
5.188148771239573

>  <meeko>  (38) 
{"free_energy": -8.92, "intermolecular_energy": -11.3, "internal_energy": -2.95, "cluster_size": 6, "cluster_id": 2, "rank_in_cluster": 6}

>  <energy>  (38) 
-8.14

>  <cluster_rmsd>  (38) 
0.21

>  <cluster>  (38) 
7

$$$$

     RDKit          3D

 63 67  0  0  0  0  0  0  0  0999 V2000
  140.5070   71.6090  221.1020 O   0  0  0  0  0  0  0  0  0  0  0  0
  140.2080   72.2270  222.1570 C   0  0  0  0  0  0  0  0  0  0  0  0
  139.9850   73.6370  222.1950 N   0  0  0  0  0  0  0  0  0  0  0  0
  140.1150   74.3620  220.9640 C   0  0  0  0  0  0  0  0  0  0  0  0
  140.6110   75.7200  221.2070 C   0  0  0  0  0  0  0  0  0  0  0  0
  140.4620   76.2300  222.3480 O   0  0  0  0  0  0  0  0  0  0  0  0
  141.2490   76.4600  220.1840 N   0  0  0  0  0  0  0  0  0  0  0  0
  141.0940   77.8720  219.9400 C   0  0  0  0  0  0  0  0  0  0  0  0
  141.8440   78.2130  218.6910 C   0  0  0  0  0  0  0  0  0  0  0  0
  142.0930   76.8670  218.0480 C   0  0  0  0  0  0  0  0  0  0  0  0
  142.1860   75.9230  219.1810 C   0  0  1  0  0  0  0  0  0  0  0  0
  143.5080   75.7840  219.8310 C   0  0  0  0  0  0  0  0  0  0  0  0
  143.6260   74.6120  220.6420 N   0  0  0  0  0  0  0  0  0  0  0  0
  144.0670   73.3410  220.2690 C   0  0  0  0  0  0  0  0  0  0  0  0
  145.3010   73.0250  219.7510 C   0  0  0  0  0  0  0  0  0  0  0  0
  145.6840   71.7520  219.3900 C   0  0  0  0  0  0  0  0  0  0  0  0
  144.8120   70.6950  219.5370 C   0  0  0  0  0  0  0  0  0  0  0  0
  145.2240   69.3530  219.1510 C   0  0  0  0  0  0  0  0  0  0  0  0
  144.8800   68.2860  219.9770 C   0  0  0  0  0  0  0  0  0  0  0  0
  145.2500   66.9770  219.6530 C   0  0  0  0  0  0  0  0  0  0  0  0
  145.9720   66.7510  218.4880 C   0  0  0  0  0  0  0  0  0  0  0  0
  146.3200   67.8180  217.6570 C   0  0  0  0  0  0  0  0  0  0  0  0
  145.9520   69.1180  217.9790 C   0  0  0  0  0  0  0  0  0  0  0  0
  143.5650   70.9730  220.0540 C   0  0  0  0  0  0  0  0  0  0  0  0
  143.1920   72.2500  220.4120 C   0  0  0  0  0  0  0  0  0  0  0  0
  140.0760   71.4880  223.4070 C   0  0  0  0  0  0  0  0  0  0  0  0
  139.3870   70.2830  223.4580 C   0  0  0  0  0  0  0  0  0  0  0  0
  139.2540   69.5700  224.6420 C   0  0  0  0  0  0  0  0  0  0  0  0
  139.8050   70.0360  225.8180 C   0  0  0  0  0  0  0  0  0  0  0  0
  139.7020   69.3670  227.0210 C   0  0  0  0  0  0  0  0  0  0  0  0
  140.2980   69.9350  228.1400 C   0  0  0  0  0  0  0  0  0  0  0  0
  140.9810   71.1410  228.0620 C   0  0  0  0  0  0  0  0  0  0  0  0
  141.0890   71.8230  226.8470 C   0  0  0  0  0  0  0  0  0  0  0  0
  140.4870   71.2430  225.7360 C   0  0  0  0  0  0  0  0  0  0  0  0
  140.6010   71.9160  224.5700 N   0  0  0  0  0  0  0  0  0  0  0  0
  139.7350   74.1120  223.1060 H   0  0  0  0  0  0  0  0  0  0  0  0
  140.8210   73.8328  220.3071 H   0  0  0  0  0  0  0  0  0  0  0  0
  139.1251   74.4289  220.4891 H   0  0  0  0  0  0  0  0  0  0  0  0
  140.0284   78.1136  219.8128 H   0  0  0  0  0  0  0  0  0  0  0  0
  141.4854   78.4508  220.7896 H   0  0  0  0  0  0  0  0  0  0  0  0
  141.2408   78.8567  218.0339 H   0  0  0  0  0  0  0  0  0  0  0  0
  142.7712   78.7711  218.8877 H   0  0  0  0  0  0  0  0  0  0  0  0
  141.2602   76.5945  217.3831 H   0  0  0  0  0  0  0  0  0  0  0  0
  143.0009   76.8634  217.4270 H   0  0  0  0  0  0  0  0  0  0  0  0
  141.9706   74.9174  218.7906 H   0  0  0  0  0  0  0  0  0  0  0  0
  144.2786   75.7436  219.0471 H   0  0  0  0  0  0  0  0  0  0  0  0
  143.6335   76.6510  220.4962 H   0  0  0  0  0  0  0  0  0  0  0  0
  143.3370   74.7340  221.6620 H   0  0  0  0  0  0  0  0  0  0  0  0
  146.0277   73.8397  219.6165 H   0  0  0  0  0  0  0  0  0  0  0  0
  146.6908   71.5783  218.9824 H   0  0  0  0  0  0  0  0  0  0  0  0
  144.3089   68.4756  220.8978 H   0  0  0  0  0  0  0  0  0  0  0  0
  144.9737   66.1394  220.3103 H   0  0  0  0  0  0  0  0  0  0  0  0
  146.2709   65.7272  218.2189 H   0  0  0  0  0  0  0  0  0  0  0  0
  146.8920   67.6268  216.7371 H   0  0  0  0  0  0  0  0  0  0  0  0
  146.2297   69.9538  217.3200 H   0  0  0  0  0  0  0  0  0  0  0  0
  142.8461   70.1507  220.1847 H   0  0  0  0  0  0  0  0  0  0  0  0
  142.1847   72.4201  220.8198 H   0  0  0  0  0  0  0  0  0  0  0  0
  138.9356   69.8838  222.5377 H   0  0  0  0  0  0  0  0  0  0  0  0
  138.7009   68.6191  224.6424 H   0  0  0  0  0  0  0  0  0  0  0  0
  139.1630   68.4107  227.0917 H   0  0  0  0  0  0  0  0  0  0  0  0
  140.2272   69.4181  229.1084 H   0  0  0  0  0  0  0  0  0  0  0  0
  141.4422   71.5645  228.9664 H   0  0  0  0  0  0  0  0  0  0  0  0
  141.6279   72.7790  226.7727 H   0  0  0  0  0  0  0  0  0  0  0  0
  1  2  2  0
  2  3  1  0
  3  4  1  0
  4  5  1  0
  5  6  2  0
  5  7  1  0
  7  8  1  0
  8  9  1  0
  9 10  1  0
 10 11  1  0
 11 12  1  0
 12 13  1  0
 13 14  1  0
 14 15  2  0
 15 16  1  0
 16 17  2  0
 17 18  1  0
 18 19  2  0
 19 20  1  0
 20 21  2  0
 21 22  1  0
 22 23  2  0
 17 24  1  0
 24 25  2  0
  2 26  1  0
 26 27  2  0
 27 28  1  0
 28 29  2  0
 29 30  1  0
 30 31  2  0
 31 32  1  0
 32 33  2  0
 33 34  1  0
 34 35  2  0
 11  7  1  0
 25 14  1  0
 35 26  1  0
 23 18  1  0
 34 29  1  0
  3 36  1  0
  4 37  1  0
  4 38  1  0
  8 39  1  0
  8 40  1  0
  9 41  1  0
  9 42  1  0
 10 43  1  0
 10 44  1  0
 11 45  1  6
 12 46  1  0
 12 47  1  0
 13 48  1  0
 15 49  1  0
 16 50  1  0
 19 51  1  0
 20 52  1  0
 21 53  1  0
 22 54  1  0
 23 55  1  0
 24 56  1  0
 25 57  1  0
 27 58  1  0
 28 59  1  0
 30 60  1  0
 31 61  1  0
 32 62  1  0
 33 63  1  0
M  END
>  <smiles>  (39) 
O=C(NCC(=O)N1CCC[C@H]1CNc1ccc(-c2ccccc2)cc1)c1ccc2ccccc2n1

>  <score_type>  (39) 
oracle

>  <origin>  (39) 
autodockgpu

>  <m_score__min__energy>  (39) 
-9.8300000000000001

>  <m_primary>  (39) 
energy

>  <rmsd>  (39) 
6.058820425455703

>  <m_score__min__rmsd>  (39) 
6.058820425455703

>  <meeko>  (39) 
{"free_energy": -9.7, "intermolecular_energy": -12.09, "internal_energy": -2.59, "cluster_size": 6, "cluster_id": 2, "rank_in_cluster": 2}

>  <energy>  (39) 
-8.09

>  <cluster_rmsd>  (39) 
0.84

>  <cluster>  (39) 
7

$$$$

     RDKit          3D

 63 67  0  0  0  0  0  0  0  0999 V2000
  140.0700   73.1150  222.6230 O   0  0  0  0  0  0  0  0  0  0  0  0
  140.0400   71.8610  222.5190 C   0  0  0  0  0  0  0  0  0  0  0  0
  140.0130   71.1860  221.2600 N   0  0  0  0  0  0  0  0  0  0  0  0
  140.0190   71.9950  220.0750 C   0  0  0  0  0  0  0  0  0  0  0  0
  138.9150   72.9580  220.0940 C   0  0  0  0  0  0  0  0  0  0  0  0
  139.1140   74.1260  219.6700 O   0  0  0  0  0  0  0  0  0  0  0  0
  137.6360   72.5940  220.5810 N   0  0  0  0  0  0  0  0  0  0  0  0
  137.3310   71.4190  221.3570 C   0  0  0  0  0  0  0  0  0  0  0  0
  135.8490   71.3590  221.5480 C   0  0  0  0  0  0  0  0  0  0  0  0
  135.3190   72.3320  220.5190 C   0  0  0  0  0  0  0  0  0  0  0  0
  136.3850   73.3470  220.3810 C   0  0  1  0  0  0  0  0  0  0  0  0
  136.3760   74.4660  221.3490 C   0  0  0  0  0  0  0  0  0  0  0  0
  137.5890   74.5860  222.0970 N   0  0  0  0  0  0  0  0  0  0  0  0
  138.3790   75.7200  222.2890 C   0  0  0  0  0  0  0  0  0  0  0  0
  139.7330   75.8180  222.0690 C   0  0  0  0  0  0  0  0  0  0  0  0
  140.4690   76.9620  222.2840 C   0  0  0  0  0  0  0  0  0  0  0  0
  139.8590   78.1060  222.7490 C   0  0  0  0  0  0  0  0  0  0  0  0
  140.6450   79.3110  222.9750 C   0  0  0  0  0  0  0  0  0  0  0  0
  141.8080   79.2150  223.7340 C   0  0  0  0  0  0  0  0  0  0  0  0
  142.6010   80.3400  223.9810 C   0  0  0  0  0  0  0  0  0  0  0  0
  142.2110   81.5650  223.4560 C   0  0  0  0  0  0  0  0  0  0  0  0
  141.0460   81.6660  222.6950 C   0  0  0  0  0  0  0  0  0  0  0  0
  140.2580   80.5490  222.4490 C   0  0  0  0  0  0  0  0  0  0  0  0
  138.5020   78.0460  222.9820 C   0  0  0  0  0  0  0  0  0  0  0  0
  137.7740   76.8970  222.7640 C   0  0  0  0  0  0  0  0  0  0  0  0
  140.0330   71.0420  223.7250 C   0  0  0  0  0  0  0  0  0  0  0  0
  139.5180   69.7520  223.7110 C   0  0  0  0  0  0  0  0  0  0  0  0
  139.5040   68.9610  224.8530 C   0  0  0  0  0  0  0  0  0  0  0  0
  140.0050   69.4330  226.0500 C   0  0  0  0  0  0  0  0  0  0  0  0
  140.0160   68.6890  227.2120 C   0  0  0  0  0  0  0  0  0  0  0  0
  140.5470   69.2710  228.3580 C   0  0  0  0  0  0  0  0  0  0  0  0
  141.0550   70.5620  228.3430 C   0  0  0  0  0  0  0  0  0  0  0  0
  141.0480   71.3200  227.1690 C   0  0  0  0  0  0  0  0  0  0  0  0
  140.5130   70.7250  226.0320 C   0  0  0  0  0  0  0  0  0  0  0  0
  140.5130   71.4720  224.9060 N   0  0  0  0  0  0  0  0  0  0  0  0
  139.9880   70.1300  221.2230 H   0  0  0  0  0  0  0  0  0  0  0  0
  140.9722   72.5409  220.0164 H   0  0  0  0  0  0  0  0  0  0  0  0
  139.8979   71.3386  219.2006 H   0  0  0  0  0  0  0  0  0  0  0  0
  137.6747   70.5205  220.8235 H   0  0  0  0  0  0  0  0  0  0  0  0
  137.8389   71.4640  222.3317 H   0  0  0  0  0  0  0  0  0  0  0  0
  135.4695   70.3437  221.3607 H   0  0  0  0  0  0  0  0  0  0  0  0
  135.5394   71.6099  222.5733 H   0  0  0  0  0  0  0  0  0  0  0  0
  135.1403   71.8238  219.5599 H   0  0  0  0  0  0  0  0  0  0  0  0
  134.3581   72.7748  220.8199 H   0  0  0  0  0  0  0  0  0  0  0  0
  136.2504   73.8349  219.4043 H   0  0  0  0  0  0  0  0  0  0  0  0
  136.2145   75.4030  220.7958 H   0  0  0  0  0  0  0  0  0  0  0  0
  135.5711   74.2618  222.0704 H   0  0  0  0  0  0  0  0  0  0  0  0
  137.9250   73.6880  222.5640 H   0  0  0  0  0  0  0  0  0  0  0  0
  140.2611   74.9271  221.6982 H   0  0  0  0  0  0  0  0  0  0  0  0
  141.5505   76.9621  222.0832 H   0  0  0  0  0  0  0  0  0  0  0  0
  142.1076   78.2399  224.1455 H   0  0  0  0  0  0  0  0  0  0  0  0
  143.5188   80.2559  224.5814 H   0  0  0  0  0  0  0  0  0  0  0  0
  142.8234   82.4599  223.6410 H   0  0  0  0  0  0  0  0  0  0  0  0
  140.7479   82.6422  222.2848 H   0  0  0  0  0  0  0  0  0  0  0  0
  139.3408   80.6363  221.8480 H   0  0  0  0  0  0  0  0  0  0  0  0
  137.9845   78.9428  223.3533 H   0  0  0  0  0  0  0  0  0  0  0  0
  136.6928   76.9004  222.9665 H   0  0  0  0  0  0  0  0  0  0  0  0
  139.1113   69.3468  222.7727 H   0  0  0  0  0  0  0  0  0  0  0  0
  139.0878   67.9440  224.8029 H   0  0  0  0  0  0  0  0  0  0  0  0
  139.6161   67.6645  227.2314 H   0  0  0  0  0  0  0  0  0  0  0  0
  140.5646   68.6960  229.2956 H   0  0  0  0  0  0  0  0  0  0  0  0
  141.4682   70.9941  229.2663 H   0  0  0  0  0  0  0  0  0  0  0  0
  141.4488   72.3441  227.1455 H   0  0  0  0  0  0  0  0  0  0  0  0
  1  2  2  0
  2  3  1  0
  3  4  1  0
  4  5  1  0
  5  6  2  0
  5  7  1  0
  7  8  1  0
  8  9  1  0
  9 10  1  0
 10 11  1  0
 11 12  1  0
 12 13  1  0
 13 14  1  0
 14 15  2  0
 15 16  1  0
 16 17  2  0
 17 18  1  0
 18 19  2  0
 19 20  1  0
 20 21  2  0
 21 22  1  0
 22 23  2  0
 17 24  1  0
 24 25  2  0
  2 26  1  0
 26 27  2  0
 27 28  1  0
 28 29  2  0
 29 30  1  0
 30 31  2  0
 31 32  1  0
 32 33  2  0
 33 34  1  0
 34 35  2  0
 11  7  1  0
 25 14  1  0
 35 26  1  0
 23 18  1  0
 34 29  1  0
  3 36  1  0
  4 37  1  0
  4 38  1  0
  8 39  1  0
  8 40  1  0
  9 41  1  0
  9 42  1  0
 10 43  1  0
 10 44  1  0
 11 45  1  6
 12 46  1  0
 12 47  1  0
 13 48  1  0
 15 49  1  0
 16 50  1  0
 19 51  1  0
 20 52  1  0
 21 53  1  0
 22 54  1  0
 23 55  1  0
 24 56  1  0
 25 57  1  0
 27 58  1  0
 28 59  1  0
 30 60  1  0
 31 61  1  0
 32 62  1  0
 33 63  1  0
M  END
>  <smiles>  (40) 
O=C(NCC(=O)N1CCC[C@H]1CNc1ccc(-c2ccccc2)cc1)c1ccc2ccccc2n1

>  <score_type>  (40) 
oracle

>  <origin>  (40) 
autodockgpu

>  <m_score__min__energy>  (40) 
-9.8300000000000001

>  <m_primary>  (40) 
energy

>  <rmsd>  (40) 
4.417796815456164

>  <m_score__min__rmsd>  (40) 
4.417796815456164

>  <meeko>  (40) 
{"free_energy": -9.03, "intermolecular_energy": -11.42, "internal_energy": -2.48, "cluster_size": 12, "cluster_id": 3, "rank_in_cluster": 5}

>  <energy>  (40) 
-8.02

>  <cluster_rmsd>  (40) 
0.38

>  <cluster>  (40) 
7

$$$$

     RDKit          3D

 63 67  0  0  0  0  0  0  0  0999 V2000
  140.5080   72.8900  222.5270 O   0  0  0  0  0  0  0  0  0  0  0  0
  140.1840   71.6880  222.7180 C   0  0  0  0  0  0  0  0  0  0  0  0
  139.7330   70.8300  221.6690 N   0  0  0  0  0  0  0  0  0  0  0  0
  139.6520   71.3830  220.3480 C   0  0  0  0  0  0  0  0  0  0  0  0
  138.6930   72.4910  220.3040 C   0  0  0  0  0  0  0  0  0  0  0  0
  139.0140   73.5560  219.7150 O   0  0  0  0  0  0  0  0  0  0  0  0
  137.4190   72.3790  220.9120 N   0  0  0  0  0  0  0  0  0  0  0  0
  137.0600   71.4540  221.9570 C   0  0  0  0  0  0  0  0  0  0  0  0
  135.5920   71.5870  222.2130 C   0  0  0  0  0  0  0  0  0  0  0  0
  135.0890   72.3420  221.0020 C   0  0  0  0  0  0  0  0  0  0  0  0
  136.2290   73.1850  220.5860 C   0  0  1  0  0  0  0  0  0  0  0  0
  136.3760   74.4940  221.2600 C   0  0  0  0  0  0  0  0  0  0  0  0
  137.5190   74.5720  222.1160 N   0  0  0  0  0  0  0  0  0  0  0  0
  138.4010   75.6400  222.2880 C   0  0  0  0  0  0  0  0  0  0  0  0
  139.7590   75.6200  222.0710 C   0  0  0  0  0  0  0  0  0  0  0  0
  140.5880   76.7020  222.2650 C   0  0  0  0  0  0  0  0  0  0  0  0
  140.0740   77.9040  222.7040 C   0  0  0  0  0  0  0  0  0  0  0  0
  140.9580   79.0420  222.9080 C   0  0  0  0  0  0  0  0  0  0  0  0
  140.4520   80.1740  223.5430 C   0  0  0  0  0  0  0  0  0  0  0  0
  141.2580   81.2950  223.7650 C   0  0  0  0  0  0  0  0  0  0  0  0
  142.5810   81.2670  223.3410 C   0  0  0  0  0  0  0  0  0  0  0  0
  143.0920   80.1340  222.7040 C   0  0  0  0  0  0  0  0  0  0  0  0
  142.2920   79.0210  222.4830 C   0  0  0  0  0  0  0  0  0  0  0  0
  138.7160   77.9620  222.9320 C   0  0  0  0  0  0  0  0  0  0  0  0
  137.8960   76.8740  222.7360 C   0  0  0  0  0  0  0  0  0  0  0  0
  140.2660   71.1290  224.0620 C   0  0  0  0  0  0  0  0  0  0  0  0
  140.7460   71.8840  225.1240 C   0  0  0  0  0  0  0  0  0  0  0  0
  140.8300   71.3630  226.4090 C   0  0  0  0  0  0  0  0  0  0  0  0
  140.4390   70.0670  226.6770 C   0  0  0  0  0  0  0  0  0  0  0  0
  140.5020   69.5010  227.9340 C   0  0  0  0  0  0  0  0  0  0  0  0
  140.0800   68.1850  228.0820 C   0  0  0  0  0  0  0  0  0  0  0  0
  139.6050   67.4520  227.0030 C   0  0  0  0  0  0  0  0  0  0  0  0
  139.5380   68.0200  225.7280 C   0  0  0  0  0  0  0  0  0  0  0  0
  139.9650   69.3370  225.5950 C   0  0  0  0  0  0  0  0  0  0  0  0
  139.8930   69.8700  224.3560 N   0  0  0  0  0  0  0  0  0  0  0  0
  139.4710   69.8270  221.8780 H   0  0  0  0  0  0  0  0  0  0  0  0
  140.6443   71.7532  220.0508 H   0  0  0  0  0  0  0  0  0  0  0  0
  139.3133   70.5967  219.6574 H   0  0  0  0  0  0  0  0  0  0  0  0
  137.2915   70.4262  221.6406 H   0  0  0  0  0  0  0  0  0  0  0  0
  137.6276   71.6755  222.8728 H   0  0  0  0  0  0  0  0  0  0  0  0
  135.1146   70.5987  222.2864 H   0  0  0  0  0  0  0  0  0  0  0  0
  135.3670   72.0985  223.1605 H   0  0  0  0  0  0  0  0  0  0  0  0
  134.8087   71.6446  220.1988 H   0  0  0  0  0  0  0  0  0  0  0  0
  134.1911   72.9368  221.2255 H   0  0  0  0  0  0  0  0  0  0  0  0
  136.0795   73.4422  219.5270 H   0  0  0  0  0  0  0  0  0  0  0  0
  136.4648   75.2739  220.4894 H   0  0  0  0  0  0  0  0  0  0  0  0
  135.4879   74.6318  221.8943 H   0  0  0  0  0  0  0  0  0  0  0  0
  137.7150   73.6970  222.6930 H   0  0  0  0  0  0  0  0  0  0  0  0
  140.2112   74.6805  221.7204 H   0  0  0  0  0  0  0  0  0  0  0  0
  141.6662   76.6072  222.0688 H   0  0  0  0  0  0  0  0  0  0  0  0
  139.4032   80.1862  223.8746 H   0  0  0  0  0  0  0  0  0  0  0  0
  140.8511   82.1850  224.2674 H   0  0  0  0  0  0  0  0  0  0  0  0
  143.2283   82.1406  223.5077 H   0  0  0  0  0  0  0  0  0  0  0  0
  144.1411   80.1233  222.3733 H   0  0  0  0  0  0  0  0  0  0  0  0
  142.7015   78.1327  221.9797 H   0  0  0  0  0  0  0  0  0  0  0  0
  138.2739   78.9067  223.2813 H   0  0  0  0  0  0  0  0  0  0  0  0
  136.8185   76.9720  222.9347 H   0  0  0  0  0  0  0  0  0  0  0  0
  141.0677   72.9203  224.9433 H   0  0  0  0  0  0  0  0  0  0  0  0
  141.2139   71.9929  227.2250 H   0  0  0  0  0  0  0  0  0  0  0  0
  140.8757   70.0752  228.7946 H   0  0  0  0  0  0  0  0  0  0  0  0
  140.1233   67.7143  229.0753 H   0  0  0  0  0  0  0  0  0  0  0  0
  139.2777   66.4126  227.1533 H   0  0  0  0  0  0  0  0  0  0  0  0
  139.1632   67.4493  224.8655 H   0  0  0  0  0  0  0  0  0  0  0  0
  1  2  2  0
  2  3  1  0
  3  4  1  0
  4  5  1  0
  5  6  2  0
  5  7  1  0
  7  8  1  0
  8  9  1  0
  9 10  1  0
 10 11  1  0
 11 12  1  0
 12 13  1  0
 13 14  1  0
 14 15  2  0
 15 16  1  0
 16 17  2  0
 17 18  1  0
 18 19  2  0
 19 20  1  0
 20 21  2  0
 21 22  1  0
 22 23  2  0
 17 24  1  0
 24 25  2  0
  2 26  1  0
 26 27  2  0
 27 28  1  0
 28 29  2  0
 29 30  1  0
 30 31  2  0
 31 32  1  0
 32 33  2  0
 33 34  1  0
 34 35  2  0
 11  7  1  0
 25 14  1  0
 35 26  1  0
 23 18  1  0
 34 29  1  0
  3 36  1  0
  4 37  1  0
  4 38  1  0
  8 39  1  0
  8 40  1  0
  9 41  1  0
  9 42  1  0
 10 43  1  0
 10 44  1  0
 11 45  1  6
 12 46  1  0
 12 47  1  0
 13 48  1  0
 15 49  1  0
 16 50  1  0
 19 51  1  0
 20 52  1  0
 21 53  1  0
 22 54  1  0
 23 55  1  0
 24 56  1  0
 25 57  1  0
 27 58  1  0
 28 59  1  0
 30 60  1  0
 31 61  1  0
 32 62  1  0
 33 63  1  0
M  END
>  <smiles>  (41) 
O=C(NCC(=O)N1CCC[C@H]1CNc1ccc(-c2ccccc2)cc1)c1ccc2ccccc2n1

>  <score_type>  (41) 
oracle

>  <origin>  (41) 
autodockgpu

>  <m_score__min__energy>  (41) 
-9.8300000000000001

>  <m_primary>  (41) 
energy

>  <rmsd>  (41) 
4.867518639073497

>  <m_score__min__rmsd>  (41) 
4.867518639073497

>  <meeko>  (41) 
{"free_energy": -9.12, "intermolecular_energy": -11.51, "internal_energy": -2.57, "cluster_size": 12, "cluster_id": 3, "rank_in_cluster": 4}

>  <energy>  (41) 
-7.29

>  <cluster_rmsd>  (41) 
1.87

>  <cluster>  (41) 
7

$$$$

     RDKit          3D

 63 67  0  0  0  0  0  0  0  0999 V2000
  140.1630   72.9580  222.6990 O   0  0  0  0  0  0  0  0  0  0  0  0
  139.9720   71.7260  222.8730 C   0  0  0  0  0  0  0  0  0  0  0  0
  139.5710   70.8470  221.8210 N   0  0  0  0  0  0  0  0  0  0  0  0
  139.3830   71.4150  220.5170 C   0  0  0  0  0  0  0  0  0  0  0  0
  137.9570   71.5580  220.2110 C   0  0  0  0  0  0  0  0  0  0  0  0
  137.5900   71.5970  219.0080 O   0  0  0  0  0  0  0  0  0  0  0  0
  136.9940   71.6530  221.2440 N   0  0  0  0  0  0  0  0  0  0  0  0
  136.6420   70.6050  222.1690 C   0  0  0  0  0  0  0  0  0  0  0  0
  135.4980   71.0870  223.0050 C   0  0  0  0  0  0  0  0  0  0  0  0
  134.9830   72.2870  222.2410 C   0  0  0  0  0  0  0  0  0  0  0  0
  136.1740   72.8360  221.5600 C   0  0  1  0  0  0  0  0  0  0  0  0
  137.0180   73.7720  222.3350 C   0  0  0  0  0  0  0  0  0  0  0  0
  138.0340   74.4070  221.5530 N   0  0  0  0  0  0  0  0  0  0  0  0
  138.8100   75.5200  221.8800 C   0  0  0  0  0  0  0  0  0  0  0  0
  140.1670   75.6510  221.7000 C   0  0  0  0  0  0  0  0  0  0  0  0
  140.8870   76.7720  222.0490 C   0  0  0  0  0  0  0  0  0  0  0  0
  140.2560   77.8560  222.6200 C   0  0  0  0  0  0  0  0  0  0  0  0
  141.0260   79.0360  222.9870 C   0  0  0  0  0  0  0  0  0  0  0  0
  142.4040   79.0200  222.7930 C   0  0  0  0  0  0  0  0  0  0  0  0
  143.1910   80.1260  223.1290 C   0  0  0  0  0  0  0  0  0  0  0  0
  142.5760   81.2520  223.6620 C   0  0  0  0  0  0  0  0  0  0  0  0
  141.1940   81.2720  223.8580 C   0  0  0  0  0  0  0  0  0  0  0  0
  140.4120   80.1740  223.5260 C   0  0  0  0  0  0  0  0  0  0  0  0
  138.8950   77.7610  222.8160 C   0  0  0  0  0  0  0  0  0  0  0  0
  138.1840   76.6360  222.4630 C   0  0  0  0  0  0  0  0  0  0  0  0
  140.1630   71.1520  224.1990 C   0  0  0  0  0  0  0  0  0  0  0  0
  140.7610   71.8830  225.2170 C   0  0  0  0  0  0  0  0  0  0  0  0
  140.9500   71.3470  226.4840 C   0  0  0  0  0  0  0  0  0  0  0  0
  140.5470   70.0600  226.7790 C   0  0  0  0  0  0  0  0  0  0  0  0
  140.7110   69.4810  228.0210 C   0  0  0  0  0  0  0  0  0  0  0  0
  140.2660   68.1760  228.1990 C   0  0  0  0  0  0  0  0  0  0  0  0
  139.6710   67.4680  227.1640 C   0  0  0  0  0  0  0  0  0  0  0  0
  139.5030   68.0490  225.9050 C   0  0  0  0  0  0  0  0  0  0  0  0
  139.9530   69.3540  225.7410 C   0  0  0  0  0  0  0  0  0  0  0  0
  139.7820   69.9010  224.5180 N   0  0  0  0  0  0  0  0  0  0  0  0
  139.4220   69.8180  222.0160 H   0  0  0  0  0  0  0  0  0  0  0  0
  139.8600   72.4056  220.4832 H   0  0  0  0  0  0  0  0  0  0  0  0
  139.8374   70.7450  219.7723 H   0  0  0  0  0  0  0  0  0  0  0  0
  136.3443   69.7028  221.6145 H   0  0  0  0  0  0  0  0  0  0  0  0
  137.5022   70.3560  222.8078 H   0  0  0  0  0  0  0  0  0  0  0  0
  134.7211   70.3132  223.0918 H   0  0  0  0  0  0  0  0  0  0  0  0
  135.7937   71.3304  224.0362 H   0  0  0  0  0  0  0  0  0  0  0  0
  134.2222   71.9826  221.5072 H   0  0  0  0  0  0  0  0  0  0  0  0
  134.5023   73.0253  222.8996 H   0  0  0  0  0  0  0  0  0  0  0  0
  135.8192   73.4349  220.7083 H   0  0  0  0  0  0  0  0  0  0  0  0
  136.3705   74.5513  222.7632 H   0  0  0  0  0  0  0  0  0  0  0  0
  137.5286   73.1810  223.1096 H   0  0  0  0  0  0  0  0  0  0  0  0
  138.2160   73.9660  220.5990 H   0  0  0  0  0  0  0  0  0  0  0  0
  140.7113   74.8080  221.2492 H   0  0  0  0  0  0  0  0  0  0  0  0
  141.9721   76.8023  221.8709 H   0  0  0  0  0  0  0  0  0  0  0  0
  142.8812   78.1241  222.3691 H   0  0  0  0  0  0  0  0  0  0  0  0
  144.2798   80.1048  222.9737 H   0  0  0  0  0  0  0  0  0  0  0  0
  143.1803   82.1310  223.9306 H   0  0  0  0  0  0  0  0  0  0  0  0
  140.7185   82.1693  224.2809 H   0  0  0  0  0  0  0  0  0  0  0  0
  139.3237   80.1973  223.6842 H   0  0  0  0  0  0  0  0  0  0  0  0
  138.3607   78.6096  223.2681 H   0  0  0  0  0  0  0  0  0  0  0  0
  137.0989   76.6096  222.6416 H   0  0  0  0  0  0  0  0  0  0  0  0
  141.0932   72.9120  225.0148 H   0  0  0  0  0  0  0  0  0  0  0  0
  141.4281   71.9572  227.2644 H   0  0  0  0  0  0  0  0  0  0  0  0
  141.1804   70.0362  228.8465 H   0  0  0  0  0  0  0  0  0  0  0  0
  140.3880   67.6945  229.1805 H   0  0  0  0  0  0  0  0  0  0  0  0
  139.3278   66.4374  227.3373 H   0  0  0  0  0  0  0  0  0  0  0  0
  139.0340   67.4967  225.0774 H   0  0  0  0  0  0  0  0  0  0  0  0
  1  2  2  0
  2  3  1  0
  3  4  1  0
  4  5  1  0
  5  6  2  0
  5  7  1  0
  7  8  1  0
  8  9  1  0
  9 10  1  0
 10 11  1  0
 11 12  1  0
 12 13  1  0
 13 14  1  0
 14 15  2  0
 15 16  1  0
 16 17  2  0
 17 18  1  0
 18 19  2  0
 19 20  1  0
 20 21  2  0
 21 22  1  0
 22 23  2  0
 17 24  1  0
 24 25  2  0
  2 26  1  0
 26 27  2  0
 27 28  1  0
 28 29  2  0
 29 30  1  0
 30 31  2  0
 31 32  1  0
 32 33  2  0
 33 34  1  0
 34 35  2  0
 11  7  1  0
 25 14  1  0
 35 26  1  0
 23 18  1  0
 34 29  1  0
  3 36  1  0
  4 37  1  0
  4 38  1  0
  8 39  1  0
  8 40  1  0
  9 41  1  0
  9 42  1  0
 10 43  1  0
 10 44  1  0
 11 45  1  6
 12 46  1  0
 12 47  1  0
 13 48  1  0
 15 49  1  0
 16 50  1  0
 19 51  1  0
 20 52  1  0
 21 53  1  0
 22 54  1  0
 23 55  1  0
 24 56  1  0
 25 57  1  0
 27 58  1  0
 28 59  1  0
 30 60  1  0
 31 61  1  0
 32 62  1  0
 33 63  1  0
M  END
>  <smiles>  (42) 
O=C(NCC(=O)N1CCC[C@H]1CNc1ccc(-c2ccccc2)cc1)c1ccc2ccccc2n1

>  <score_type>  (42) 
oracle

>  <origin>  (42) 
autodockgpu

>  <m_score__min__energy>  (42) 
-9.8300000000000001

>  <m_primary>  (42) 
energy

>  <rmsd>  (42) 
5.220121576639506

>  <m_score__min__rmsd>  (42) 
5.220121576639506

>  <meeko>  (42) 
{"free_energy": -8.87, "intermolecular_energy": -11.26, "internal_energy": -2.69, "cluster_size": 12, "cluster_id": 3, "rank_in_cluster": 7}

>  <energy>  (42) 
-7.25

>  <cluster_rmsd>  (42) 
1.89

>  <cluster>  (42) 
7

$$$$

     RDKit          3D

 63 67  0  0  0  0  0  0  0  0999 V2000
  140.8950   77.3530  218.0340 O   0  0  0  0  0  0  0  0  0  0  0  0
  141.8220   77.6140  218.8450 C   0  0  0  0  0  0  0  0  0  0  0  0
  143.0570   76.8950  218.8700 N   0  0  0  0  0  0  0  0  0  0  0  0
  143.2240   75.8310  217.9220 C   0  0  0  0  0  0  0  0  0  0  0  0
  142.6660   74.5780  218.4390 C   0  0  0  0  0  0  0  0  0  0  0  0
  141.5920   74.1400  217.9530 O   0  0  0  0  0  0  0  0  0  0  0  0
  143.3160   73.8610  219.4720 N   0  0  0  0  0  0  0  0  0  0  0  0
  144.6050   74.1730  220.0350 C   0  0  0  0  0  0  0  0  0  0  0  0
  144.9650   73.0910  221.0040 C   0  0  0  0  0  0  0  0  0  0  0  0
  144.0020   71.9760  220.6620 C   0  0  0  0  0  0  0  0  0  0  0  0
  142.7950   72.6650  220.1580 C   0  0  1  0  0  0  0  0  0  0  0  0
  141.8110   73.1180  221.1650 C   0  0  0  0  0  0  0  0  0  0  0  0
  140.7480   73.9020  220.6150 N   0  0  0  0  0  0  0  0  0  0  0  0
  140.1570   75.0520  221.1420 C   0  0  0  0  0  0  0  0  0  0  0  0
  138.8730   75.4870  220.9130 C   0  0  0  0  0  0  0  0  0  0  0  0
  138.3410   76.6370  221.4510 C   0  0  0  0  0  0  0  0  0  0  0  0
  139.1010   77.4370  222.2770 C   0  0  0  0  0  0  0  0  0  0  0  0
  138.5310   78.6520  222.8410 C   0  0  0  0  0  0  0  0  0  0  0  0
  137.3110   79.1070  222.3480 C   0  0  0  0  0  0  0  0  0  0  0  0
  136.7180   80.2680  222.8540 C   0  0  0  0  0  0  0  0  0  0  0  0
  137.3660   80.9680  223.8640 C   0  0  0  0  0  0  0  0  0  0  0  0
  138.5900   80.5160  224.3610 C   0  0  0  0  0  0  0  0  0  0  0  0
  139.1790   79.3630  223.8580 C   0  0  0  0  0  0  0  0  0  0  0  0
  140.3940   77.0320  222.5290 C   0  0  0  0  0  0  0  0  0  0  0  0
  140.9180   75.8800  221.9850 C   0  0  0  0  0  0  0  0  0  0  0  0
  141.6500   78.6950  219.8080 C   0  0  0  0  0  0  0  0  0  0  0  0
  140.8780   79.8090  219.5030 C   0  0  0  0  0  0  0  0  0  0  0  0
  140.7070   80.8460  220.4100 C   0  0  0  0  0  0  0  0  0  0  0  0
  141.3010   80.8060  221.6550 C   0  0  0  0  0  0  0  0  0  0  0  0
  141.1620   81.8090  222.5930 C   0  0  0  0  0  0  0  0  0  0  0  0
  141.8080   81.6580  223.8150 C   0  0  0  0  0  0  0  0  0  0  0  0
  142.5730   80.5340  224.0930 C   0  0  0  0  0  0  0  0  0  0  0  0
  142.7170   79.5150  223.1480 C   0  0  0  0  0  0  0  0  0  0  0  0
  142.0660   79.6800  221.9310 C   0  0  0  0  0  0  0  0  0  0  0  0
  142.2150   78.6860  221.0290 N   0  0  0  0  0  0  0  0  0  0  0  0
  143.8070   77.1510  219.5690 H   0  0  0  0  0  0  0  0  0  0  0  0
  142.7079   76.0967  216.9876 H   0  0  0  0  0  0  0  0  0  0  0  0
  144.2993   75.6882  217.7395 H   0  0  0  0  0  0  0  0  0  0  0  0
  145.3587   74.2228  219.2353 H   0  0  0  0  0  0  0  0  0  0  0  0
  144.5712   75.1462  220.5467 H   0  0  0  0  0  0  0  0  0  0  0  0
  146.0069   72.7677  220.8631 H   0  0  0  0  0  0  0  0  0  0  0  0
  144.8918   73.4136  222.0531 H   0  0  0  0  0  0  0  0  0  0  0  0
  144.4266   71.3205  219.8874 H   0  0  0  0  0  0  0  0  0  0  0  0
  143.7839   71.3338  221.5280 H   0  0  0  0  0  0  0  0  0  0  0  0
  142.2368   71.9441  219.5426 H   0  0  0  0  0  0  0  0  0  0  0  0
  141.3750   72.2314  221.6485 H   0  0  0  0  0  0  0  0  0  0  0  0
  142.3504   73.7601  221.8769 H   0  0  0  0  0  0  0  0  0  0  0  0
  140.3630   73.5550  219.6830 H   0  0  0  0  0  0  0  0  0  0  0  0
  138.2310   74.8783  220.2593 H   0  0  0  0  0  0  0  0  0  0  0  0
  137.3031   76.9192  221.2203 H   0  0  0  0  0  0  0  0  0  0  0  0
  136.8061   78.5449  221.5486 H   0  0  0  0  0  0  0  0  0  0  0  0
  135.7542   80.6212  222.4587 H   0  0  0  0  0  0  0  0  0  0  0  0
  136.9127   81.8825  224.2740 H   0  0  0  0  0  0  0  0  0  0  0  0
  139.0937   81.0796  225.1602 H   0  0  0  0  0  0  0  0  0  0  0  0
  140.1435   79.0126  224.2542 H   0  0  0  0  0  0  0  0  0  0  0  0
  141.0271   77.6477  223.1848 H   0  0  0  0  0  0  0  0  0  0  0  0
  141.9568   75.6015  222.2159 H   0  0  0  0  0  0  0  0  0  0  0  0
  140.3904   79.8709  218.5189 H   0  0  0  0  0  0  0  0  0  0  0  0
  140.0889   81.7124  220.1322 H   0  0  0  0  0  0  0  0  0  0  0  0
  140.5572   82.7027  222.3798 H   0  0  0  0  0  0  0  0  0  0  0  0
  141.7107   82.4455  224.5769 H   0  0  0  0  0  0  0  0  0  0  0  0
  143.0720   80.4442  225.0692 H   0  0  0  0  0  0  0  0  0  0  0  0
  143.3203   78.6196  223.3583 H   0  0  0  0  0  0  0  0  0  0  0  0
  1  2  2  0
  2  3  1  0
  3  4  1  0
  4  5  1  0
  5  6  2  0
  5  7  1  0
  7  8  1  0
  8  9  1  0
  9 10  1  0
 10 11  1  0
 11 12  1  0
 12 13  1  0
 13 14  1  0
 14 15  2  0
 15 16  1  0
 16 17  2  0
 17 18  1  0
 18 19  2  0
 19 20  1  0
 20 21  2  0
 21 22  1  0
 22 23  2  0
 17 24  1  0
 24 25  2  0
  2 26  1  0
 26 27  2  0
 27 28  1  0
 28 29  2  0
 29 30  1  0
 30 31  2  0
 31 32  1  0
 32 33  2  0
 33 34  1  0
 34 35  2  0
 11  7  1  0
 25 14  1  0
 35 26  1  0
 23 18  1  0
 34 29  1  0
  3 36  1  0
  4 37  1  0
  4 38  1  0
  8 39  1  0
  8 40  1  0
  9 41  1  0
  9 42  1  0
 10 43  1  0
 10 44  1  0
 11 45  1  6
 12 46  1  0
 12 47  1  0
 13 48  1  0
 15 49  1  0
 16 50  1  0
 19 51  1  0
 20 52  1  0
 21 53  1  0
 22 54  1  0
 23 55  1  0
 24 56  1  0
 25 57  1  0
 27 58  1  0
 28 59  1  0
 30 60  1  0
 31 61  1  0
 32 62  1  0
 33 63  1  0
M  END
>  <smiles>  (43) 
O=C(NCC(=O)N1CCC[C@H]1CNc1ccc(-c2ccccc2)cc1)c1ccc2ccccc2n1

>  <score_type>  (43) 
oracle

>  <origin>  (43) 
autodockgpu

>  <m_score__min__energy>  (43) 
-9.8300000000000001

>  <m_primary>  (43) 
energy

>  <rmsd>  (43) 
8.067583067495951

>  <m_score__min__rmsd>  (43) 
8.067583067495951

>  <meeko>  (43) 
{"free_energy": -7.25, "intermolecular_energy": -9.64, "internal_energy": -4.89, "cluster_size": 10, "cluster_id": 7, "rank_in_cluster": 6}

>  <energy>  (43) 
-7.2

>  <cluster_rmsd>  (43) 
1.86

>  <cluster>  (43) 
7

$$$$

     RDKit          3D

 63 67  0  0  0  0  0  0  0  0999 V2000
  138.8240   71.7440  221.3720 O   0  0  0  0  0  0  0  0  0  0  0  0
  139.7010   72.0330  222.2280 C   0  0  0  0  0  0  0  0  0  0  0  0
  140.7480   72.9730  221.9800 N   0  0  0  0  0  0  0  0  0  0  0  0
  140.7830   73.6010  220.6910 C   0  0  0  0  0  0  0  0  0  0  0  0
  139.8620   74.7410  220.6420 C   0  0  0  0  0  0  0  0  0  0  0  0
  138.7110   74.5780  220.1610 O   0  0  0  0  0  0  0  0  0  0  0  0
  140.2490   76.0140  221.1250 N   0  0  0  0  0  0  0  0  0  0  0  0
  141.2000   76.9010  220.5020 C   0  0  0  0  0  0  0  0  0  0  0  0
  141.4050   78.0740  221.4080 C   0  0  0  0  0  0  0  0  0  0  0  0
  140.8280   77.6090  222.7260 C   0  0  0  0  0  0  0  0  0  0  0  0
  139.7550   76.6640  222.3520 C   0  0  1  0  0  0  0  0  0  0  0  0
  138.4270   77.2420  222.0490 C   0  0  0  0  0  0  0  0  0  0  0  0
  137.4230   76.2590  221.7800 N   0  0  0  0  0  0  0  0  0  0  0  0
  136.6640   75.5240  222.6930 C   0  0  0  0  0  0  0  0  0  0  0  0
  136.0300   76.0160  223.8100 C   0  0  0  0  0  0  0  0  0  0  0  0
  135.2990   75.2430  224.6850 C   0  0  0  0  0  0  0  0  0  0  0  0
  135.1660   73.8870  224.4730 C   0  0  0  0  0  0  0  0  0  0  0  0
  134.3930   73.0780  225.4050 C   0  0  0  0  0  0  0  0  0  0  0  0
  133.4910   73.7150  226.2530 C   0  0  0  0  0  0  0  0  0  0  0  0
  132.7230   72.9860  227.1660 C   0  0  0  0  0  0  0  0  0  0  0  0
  132.8720   71.6050  227.2180 C   0  0  0  0  0  0  0  0  0  0  0  0
  133.7750   70.9630  226.3690 C   0  0  0  0  0  0  0  0  0  0  0  0
  134.5380   71.6870  225.4630 C   0  0  0  0  0  0  0  0  0  0  0  0
  135.7880   73.3590  223.3630 C   0  0  0  0  0  0  0  0  0  0  0  0
  136.5170   74.1400  222.4940 C   0  0  0  0  0  0  0  0  0  0  0  0
  139.6630   71.3920  223.5370 C   0  0  0  0  0  0  0  0  0  0  0  0
  138.9030   70.2490  223.7540 C   0  0  0  0  0  0  0  0  0  0  0  0
  138.8580   69.6300  224.9960 C   0  0  0  0  0  0  0  0  0  0  0  0
  139.5700   70.1310  226.0660 C   0  0  0  0  0  0  0  0  0  0  0  0
  139.5600   69.5540  227.3200 C   0  0  0  0  0  0  0  0  0  0  0  0
  140.3190   70.1490  228.3210 C   0  0  0  0  0  0  0  0  0  0  0  0
  141.0700   71.2900  228.0770 C   0  0  0  0  0  0  0  0  0  0  0  0
  141.0840   71.8780  226.8100 C   0  0  0  0  0  0  0  0  0  0  0  0
  140.3200   71.2730  225.8190 C   0  0  0  0  0  0  0  0  0  0  0  0
  140.3460   71.8550  224.6000 N   0  0  0  0  0  0  0  0  0  0  0  0
  141.4620   73.1830  222.7310 H   0  0  0  0  0  0  0  0  0  0  0  0
  141.8051   73.9542  220.4896 H   0  0  0  0  0  0  0  0  0  0  0  0
  140.4753   72.8663  219.9324 H   0  0  0  0  0  0  0  0  0  0  0  0
  142.1547   76.3763  220.3496 H   0  0  0  0  0  0  0  0  0  0  0  0
  140.8242   77.2362  219.5240 H   0  0  0  0  0  0  0  0  0  0  0  0
  142.4746   78.3104  221.5089 H   0  0  0  0  0  0  0  0  0  0  0  0
  140.9296   78.9924  221.0331 H   0  0  0  0  0  0  0  0  0  0  0  0
  141.5967   77.1043  223.3297 H   0  0  0  0  0  0  0  0  0  0  0  0
  140.4534   78.4450  223.3349 H   0  0  0  0  0  0  0  0  0  0  0  0
  139.5739   76.0124  223.2196 H   0  0  0  0  0  0  0  0  0  0  0  0
  138.1037   77.8423  222.9122 H   0  0  0  0  0  0  0  0  0  0  0  0
  138.5387   77.8472  221.1373 H   0  0  0  0  0  0  0  0  0  0  0  0
  137.2370   76.0700  220.7470 H   0  0  0  0  0  0  0  0  0  0  0  0
  136.1117   77.0932  224.0174 H   0  0  0  0  0  0  0  0  0  0  0  0
  134.8188   75.7100  225.5575 H   0  0  0  0  0  0  0  0  0  0  0  0
  133.3809   74.8084  226.2039 H   0  0  0  0  0  0  0  0  0  0  0  0
  132.0124   73.4970  227.8323 H   0  0  0  0  0  0  0  0  0  0  0  0
  132.2762   71.0160  227.9307 H   0  0  0  0  0  0  0  0  0  0  0  0
  133.8834   69.8695  226.4185 H   0  0  0  0  0  0  0  0  0  0  0  0
  135.2483   71.1735  224.7984 H   0  0  0  0  0  0  0  0  0  0  0  0
  135.6997   72.2806  223.1647 H   0  0  0  0  0  0  0  0  0  0  0  0
  136.9961   73.6694  221.6228 H   0  0  0  0  0  0  0  0  0  0  0  0
  138.3229   69.8243  222.9215 H   0  0  0  0  0  0  0  0  0  0  0  0
  138.2452   68.7262  225.1288 H   0  0  0  0  0  0  0  0  0  0  0  0
  138.9681   68.6490  227.5214 H   0  0  0  0  0  0  0  0  0  0  0  0
  140.3244   69.7060  229.3278 H   0  0  0  0  0  0  0  0  0  0  0  0
  141.6609   71.7364  228.8903 H   0  0  0  0  0  0  0  0  0  0  0  0
  141.6753   72.7826  226.6050 H   0  0  0  0  0  0  0  0  0  0  0  0
  1  2  2  0
  2  3  1  0
  3  4  1  0
  4  5  1  0
  5  6  2  0
  5  7  1  0
  7  8  1  0
  8  9  1  0
  9 10  1  0
 10 11  1  0
 11 12  1  0
 12 13  1  0
 13 14  1  0
 14 15  2  0
 15 16  1  0
 16 17  2  0
 17 18  1  0
 18 19  2  0
 19 20  1  0
 20 21  2  0
 21 22  1  0
 22 23  2  0
 17 24  1  0
 24 25  2  0
  2 26  1  0
 26 27  2  0
 27 28  1  0
 28 29  2  0
 29 30  1  0
 30 31  2  0
 31 32  1  0
 32 33  2  0
 33 34  1  0
 34 35  2  0
 11  7  1  0
 25 14  1  0
 35 26  1  0
 23 18  1  0
 34 29  1  0
  3 36  1  0
  4 37  1  0
  4 38  1  0
  8 39  1  0
  8 40  1  0
  9 41  1  0
  9 42  1  0
 10 43  1  0
 10 44  1  0
 11 45  1  1
 12 46  1  0
 12 47  1  0
 13 48  1  0
 15 49  1  0
 16 50  1  0
 19 51  1  0
 20 52  1  0
 21 53  1  0
 22 54  1  0
 23 55  1  0
 24 56  1  0
 25 57  1  0
 27 58  1  0
 28 59  1  0
 30 60  1  0
 31 61  1  0
 32 62  1  0
 33 63  1  0
M  END
>  <smiles>  (44) 
O=C(NCC(=O)N1CCC[C@H]1CNc1ccc(-c2ccccc2)cc1)c1ccc2ccccc2n1

>  <score_type>  (44) 
oracle

>  <origin>  (44) 
autodockgpu

>  <m_score__min__energy>  (44) 
-9.8300000000000001

>  <m_primary>  (44) 
energy

>  <rmsd>  (44) 
5.2402957726975945

>  <m_score__min__rmsd>  (44) 
5.2402957726975945

>  <meeko>  (44) 
{"free_energy": -8.21, "intermolecular_energy": -10.59, "internal_energy": -3.39, "cluster_size": 5, "cluster_id": 5, "rank_in_cluster": 4}

>  <energy>  (44) 
-7.2

>  <cluster_rmsd>  (44) 
0.94

>  <cluster>  (44) 
7

$$$$

     RDKit          3D

 63 67  0  0  0  0  0  0  0  0999 V2000
  142.3980   76.1980  218.2900 O   0  0  0  0  0  0  0  0  0  0  0  0
  142.3700   76.4360  219.5260 C   0  0  0  0  0  0  0  0  0  0  0  0
  142.5440   75.4200  220.5160 N   0  0  0  0  0  0  0  0  0  0  0  0
  142.7560   74.0770  220.0580 C   0  0  0  0  0  0  0  0  0  0  0  0
  141.5000   73.3230  220.0520 C   0  0  0  0  0  0  0  0  0  0  0  0
  141.5140   72.1080  220.3810 O   0  0  0  0  0  0  0  0  0  0  0  0
  140.2800   73.9380  219.6840 N   0  0  0  0  0  0  0  0  0  0  0  0
  139.5800   73.7490  218.4380 C   0  0  0  0  0  0  0  0  0  0  0  0
  138.4100   74.6810  218.4150 C   0  0  0  0  0  0  0  0  0  0  0  0
  138.7170   75.6630  219.5230 C   0  0  0  0  0  0  0  0  0  0  0  0
  139.5040   74.8850  220.5040 C   0  0  1  0  0  0  0  0  0  0  0  0
  138.7440   74.0980  221.5010 C   0  0  0  0  0  0  0  0  0  0  0  0
  139.1650   72.7340  221.5940 N   0  0  0  0  0  0  0  0  0  0  0  0
  139.3550   71.9630  222.7420 C   0  0  0  0  0  0  0  0  0  0  0  0
  138.5320   70.9590  223.1960 C   0  0  0  0  0  0  0  0  0  0  0  0
  138.7610   70.2330  224.3430 C   0  0  0  0  0  0  0  0  0  0  0  0
  139.8700   70.4900  225.1210 C   0  0  0  0  0  0  0  0  0  0  0  0
  140.1030   69.7180  226.3330 C   0  0  0  0  0  0  0  0  0  0  0  0
  140.8310   68.5350  226.2410 C   0  0  0  0  0  0  0  0  0  0  0  0
  141.0850   67.7560  227.3740 C   0  0  0  0  0  0  0  0  0  0  0  0
  140.5980   68.1800  228.6040 C   0  0  0  0  0  0  0  0  0  0  0  0
  139.8670   69.3650  228.7010 C   0  0  0  0  0  0  0  0  0  0  0  0
  139.6150   70.1390  227.5760 C   0  0  0  0  0  0  0  0  0  0  0  0
  140.7180   71.4900  224.6970 C   0  0  0  0  0  0  0  0  0  0  0  0
  140.4800   72.2110  223.5480 C   0  0  0  0  0  0  0  0  0  0  0  0
  142.1530   77.8010  219.9890 C   0  0  0  0  0  0  0  0  0  0  0  0
  142.0460   78.8540  219.0900 C   0  0  0  0  0  0  0  0  0  0  0  0
  141.8400   80.1590  219.5180 C   0  0  0  0  0  0  0  0  0  0  0  0
  141.7350   80.4580  220.8610 C   0  0  0  0  0  0  0  0  0  0  0  0
  141.5310   81.7360  221.3380 C   0  0  0  0  0  0  0  0  0  0  0  0
  141.4420   81.9160  222.7140 C   0  0  0  0  0  0  0  0  0  0  0  0
  141.5530   80.8460  223.5910 C   0  0  0  0  0  0  0  0  0  0  0  0
  141.7590   79.5490  223.1130 C   0  0  0  0  0  0  0  0  0  0  0  0
  141.8470   79.3850  221.7350 C   0  0  0  0  0  0  0  0  0  0  0  0
  142.0470   78.1250  221.2910 N   0  0  0  0  0  0  0  0  0  0  0  0
  142.5130   75.6680  221.5430 H   0  0  0  0  0  0  0  0  0  0  0  0
  143.1644   74.1048  219.0370 H   0  0  0  0  0  0  0  0  0  0  0  0
  143.4614   73.5800  220.7402 H   0  0  0  0  0  0  0  0  0  0  0  0
  140.2513   73.9727  217.5958 H   0  0  0  0  0  0  0  0  0  0  0  0
  139.2386   72.7072  218.3474 H   0  0  0  0  0  0  0  0  0  0  0  0
  138.3354   75.1940  217.4448 H   0  0  0  0  0  0  0  0  0  0  0  0
  137.4489   74.1646  218.5552 H   0  0  0  0  0  0  0  0  0  0  0  0
  139.3038   76.5105  219.1391 H   0  0  0  0  0  0  0  0  0  0  0  0
  137.8053   76.0911  219.9652 H   0  0  0  0  0  0  0  0  0  0  0  0
  140.0783   75.6024  221.1085 H   0  0  0  0  0  0  0  0  0  0  0  0
  138.8713   74.5694  222.4867 H   0  0  0  0  0  0  0  0  0  0  0  0
  137.6938   74.0903  221.1740 H   0  0  0  0  0  0  0  0  0  0  0  0
  139.3580   72.2530  220.6620 H   0  0  0  0  0  0  0  0  0  0  0  0
  137.6347   70.7212  222.6058 H   0  0  0  0  0  0  0  0  0  0  0  0
  138.0553   69.4434  224.6405 H   0  0  0  0  0  0  0  0  0  0  0  0
  141.2121   68.2082  225.2623 H   0  0  0  0  0  0  0  0  0  0  0  0
  141.6612   66.8225  227.2927 H   0  0  0  0  0  0  0  0  0  0  0  0
  140.7893   67.5792  229.5054 H   0  0  0  0  0  0  0  0  0  0  0  0
  139.4859   69.6897  229.6805 H   0  0  0  0  0  0  0  0  0  0  0  0
  139.0387   71.0721  227.6604 H   0  0  0  0  0  0  0  0  0  0  0  0
  141.6125   71.7194  225.2947 H   0  0  0  0  0  0  0  0  0  0  0  0
  141.1874   73.0003  223.2537 H   0  0  0  0  0  0  0  0  0  0  0  0
  142.1264   78.6494  218.0122 H   0  0  0  0  0  0  0  0  0  0  0  0
  141.7593   80.9664  218.7753 H   0  0  0  0  0  0  0  0  0  0  0  0
  141.4412   82.5890  220.6492 H   0  0  0  0  0  0  0  0  0  0  0  0
  141.2803   82.9272  223.1157 H   0  0  0  0  0  0  0  0  0  0  0  0
  141.4780   81.0208  224.6744 H   0  0  0  0  0  0  0  0  0  0  0  0
  141.8479   78.6933  223.7985 H   0  0  0  0  0  0  0  0  0  0  0  0
  1  2  2  0
  2  3  1  0
  3  4  1  0
  4  5  1  0
  5  6  2  0
  5  7  1  0
  7  8  1  0
  8  9  1  0
  9 10  1  0
 10 11  1  0
 11 12  1  0
 12 13  1  0
 13 14  1  0
 14 15  2  0
 15 16  1  0
 16 17  2  0
 17 18  1  0
 18 19  2  0
 19 20  1  0
 20 21  2  0
 21 22  1  0
 22 23  2  0
 17 24  1  0
 24 25  2  0
  2 26  1  0
 26 27  2  0
 27 28  1  0
 28 29  2  0
 29 30  1  0
 30 31  2  0
 31 32  1  0
 32 33  2  0
 33 34  1  0
 34 35  2  0
 11  7  1  0
 25 14  1  0
 35 26  1  0
 23 18  1  0
 34 29  1  0
  3 36  1  0
  4 37  1  0
  4 38  1  0
  8 39  1  0
  8 40  1  0
  9 41  1  0
  9 42  1  0
 10 43  1  0
 10 44  1  0
 11 45  1  1
 12 46  1  0
 12 47  1  0
 13 48  1  0
 15 49  1  0
 16 50  1  0
 19 51  1  0
 20 52  1  0
 21 53  1  0
 22 54  1  0
 23 55  1  0
 24 56  1  0
 25 57  1  0
 27 58  1  0
 28 59  1  0
 30 60  1  0
 31 61  1  0
 32 62  1  0
 33 63  1  0
M  END
>  <smiles>  (45) 
O=C(NCC(=O)N1CCC[C@H]1CNc1ccc(-c2ccccc2)cc1)c1ccc2ccccc2n1

>  <score_type>  (45) 
oracle

>  <origin>  (45) 
autodockgpu

>  <m_score__min__energy>  (45) 
-9.8300000000000001

>  <m_primary>  (45) 
energy

>  <rmsd>  (45) 
9.107437374378364

>  <m_score__min__rmsd>  (45) 
9.107437374378364

>  <meeko>  (45) 
{"free_energy": -8.31, "intermolecular_energy": -10.69, "internal_energy": -3.12, "cluster_size": 7, "cluster_id": 4, "rank_in_cluster": 6}

>  <energy>  (45) 
-7.17

>  <cluster_rmsd>  (45) 
0.98

>  <cluster>  (45) 
7

$$$$

     RDKit          3D

 63 67  0  0  0  0  0  0  0  0999 V2000
  139.9830   72.4360  222.5860 O   0  0  0  0  0  0  0  0  0  0  0  0
  139.9350   71.2460  222.9950 C   0  0  0  0  0  0  0  0  0  0  0  0
  139.5310   70.1560  222.1650 N   0  0  0  0  0  0  0  0  0  0  0  0
  139.1670   70.4530  220.8100 C   0  0  0  0  0  0  0  0  0  0  0  0
  137.7230   70.6730  220.6940 C   0  0  0  0  0  0  0  0  0  0  0  0
  137.0600   69.9730  219.8850 O   0  0  0  0  0  0  0  0  0  0  0  0
  137.0680   71.6560  221.4740 N   0  0  0  0  0  0  0  0  0  0  0  0
  136.8920   71.6190  222.9040 C   0  0  0  0  0  0  0  0  0  0  0  0
  136.0410   72.7850  223.2980 C   0  0  0  0  0  0  0  0  0  0  0  0
  135.4350   73.2390  221.9890 C   0  0  0  0  0  0  0  0  0  0  0  0
  136.4460   72.8920  220.9690 C   0  0  1  0  0  0  0  0  0  0  0  0
  137.5270   73.8750  220.7350 C   0  0  0  0  0  0  0  0  0  0  0  0
  138.2060   74.2750  221.9290 N   0  0  0  0  0  0  0  0  0  0  0  0
  138.9320   75.4440  222.1630 C   0  0  0  0  0  0  0  0  0  0  0  0
  140.2870   75.6090  221.9980 C   0  0  0  0  0  0  0  0  0  0  0  0
  140.9580   76.7850  222.2530 C   0  0  0  0  0  0  0  0  0  0  0  0
  140.2730   77.8940  222.7020 C   0  0  0  0  0  0  0  0  0  0  0  0
  140.9900   79.1330  222.9700 C   0  0  0  0  0  0  0  0  0  0  0  0
  140.4400   80.3310  222.5240 C   0  0  0  0  0  0  0  0  0  0  0  0
  141.0870   81.5500  222.7550 C   0  0  0  0  0  0  0  0  0  0  0  0
  142.2950   81.5500  223.4410 C   0  0  0  0  0  0  0  0  0  0  0  0
  142.8500   80.3500  223.8900 C   0  0  0  0  0  0  0  0  0  0  0  0
  142.2080   79.1400  223.6600 C   0  0  0  0  0  0  0  0  0  0  0  0
  138.9120   77.7660  222.8780 C   0  0  0  0  0  0  0  0  0  0  0  0
  138.2510   76.5850  222.6210 C   0  0  0  0  0  0  0  0  0  0  0  0
  140.3050   70.9470  224.3730 C   0  0  0  0  0  0  0  0  0  0  0  0
  140.7540   71.9460  225.2270 C   0  0  0  0  0  0  0  0  0  0  0  0
  141.1110   71.6730  226.5420 C   0  0  0  0  0  0  0  0  0  0  0  0
  141.0310   70.3930  227.0490 C   0  0  0  0  0  0  0  0  0  0  0  0
  141.3720   70.0690  228.3460 C   0  0  0  0  0  0  0  0  0  0  0  0
  141.2500   68.7430  228.7450 C   0  0  0  0  0  0  0  0  0  0  0  0
  140.7980   67.7640  227.8700 C   0  0  0  0  0  0  0  0  0  0  0  0
  140.4510   68.0860  226.5560 C   0  0  0  0  0  0  0  0  0  0  0  0
  140.5780   69.4160  226.1710 C   0  0  0  0  0  0  0  0  0  0  0  0
  140.2380   69.7090  224.8970 N   0  0  0  0  0  0  0  0  0  0  0  0
  139.5070   69.1730  222.5540 H   0  0  0  0  0  0  0  0  0  0  0  0
  139.6970   71.3605  220.4851 H   0  0  0  0  0  0  0  0  0  0  0  0
  139.4450   69.5985  220.1755 H   0  0  0  0  0  0  0  0  0  0  0  0
  136.3966   70.6808  223.1945 H   0  0  0  0  0  0  0  0  0  0  0  0
  137.8676   71.6712  223.4095 H   0  0  0  0  0  0  0  0  0  0  0  0
  135.2587   72.4785  224.0080 H   0  0  0  0  0  0  0  0  0  0  0  0
  136.6100   73.5786  223.8044 H   0  0  0  0  0  0  0  0  0  0  0  0
  134.4902   72.7103  221.7946 H   0  0  0  0  0  0  0  0  0  0  0  0
  135.1960   74.3127  221.9905 H   0  0  0  0  0  0  0  0  0  0  0  0
  135.9277   72.8256  220.0010 H   0  0  0  0  0  0  0  0  0  0  0  0
  138.2622   73.4269  220.0504 H   0  0  0  0  0  0  0  0  0  0  0  0
  137.0577   74.7762  220.3136 H   0  0  0  0  0  0  0  0  0  0  0  0
  138.1450   73.5840  222.7390 H   0  0  0  0  0  0  0  0  0  0  0  0
  140.8716   74.7487  221.6402 H   0  0  0  0  0  0  0  0  0  0  0  0
  142.0456   76.8393  222.0976 H   0  0  0  0  0  0  0  0  0  0  0  0
  139.4828   80.3195  221.9821 H   0  0  0  0  0  0  0  0  0  0  0  0
  140.6463   82.4930  222.3992 H   0  0  0  0  0  0  0  0  0  0  0  0
  142.8166   82.4996  223.6313 H   0  0  0  0  0  0  0  0  0  0  0  0
  143.8070   80.3631  224.4323 H   0  0  0  0  0  0  0  0  0  0  0  0
  142.6514   78.1983  224.0159 H   0  0  0  0  0  0  0  0  0  0  0  0
  138.3363   78.6329  223.2344 H   0  0  0  0  0  0  0  0  0  0  0  0
  137.1635   76.5337  222.7781 H   0  0  0  0  0  0  0  0  0  0  0  0
  140.8288   72.9780  224.8536 H   0  0  0  0  0  0  0  0  0  0  0  0
  141.4628   72.4905  227.1885 H   0  0  0  0  0  0  0  0  0  0  0  0
  141.7306   70.8388  229.0452 H   0  0  0  0  0  0  0  0  0  0  0  0
  141.5170   68.4635  229.7749 H   0  0  0  0  0  0  0  0  0  0  0  0
  140.7123   66.7232  228.2156 H   0  0  0  0  0  0  0  0  0  0  0  0
  140.0919   67.3187  225.8543 H   0  0  0  0  0  0  0  0  0  0  0  0
  1  2  2  0
  2  3  1  0
  3  4  1  0
  4  5  1  0
  5  6  2  0
  5  7  1  0
  7  8  1  0
  8  9  1  0
  9 10  1  0
 10 11  1  0
 11 12  1  0
 12 13  1  0
 13 14  1  0
 14 15  2  0
 15 16  1  0
 16 17  2  0
 17 18  1  0
 18 19  2  0
 19 20  1  0
 20 21  2  0
 21 22  1  0
 22 23  2  0
 17 24  1  0
 24 25  2  0
  2 26  1  0
 26 27  2  0
 27 28  1  0
 28 29  2  0
 29 30  1  0
 30 31  2  0
 31 32  1  0
 32 33  2  0
 33 34  1  0
 34 35  2  0
 11  7  1  0
 25 14  1  0
 35 26  1  0
 23 18  1  0
 34 29  1  0
  3 36  1  0
  4 37  1  0
  4 38  1  0
  8 39  1  0
  8 40  1  0
  9 41  1  0
  9 42  1  0
 10 43  1  0
 10 44  1  0
 11 45  1  6
 12 46  1  0
 12 47  1  0
 13 48  1  0
 15 49  1  0
 16 50  1  0
 19 51  1  0
 20 52  1  0
 21 53  1  0
 22 54  1  0
 23 55  1  0
 24 56  1  0
 25 57  1  0
 27 58  1  0
 28 59  1  0
 30 60  1  0
 31 61  1  0
 32 62  1  0
 33 63  1  0
M  END
>  <smiles>  (46) 
O=C(NCC(=O)N1CCC[C@H]1CNc1ccc(-c2ccccc2)cc1)c1ccc2ccccc2n1

>  <score_type>  (46) 
oracle

>  <origin>  (46) 
autodockgpu

>  <m_score__min__energy>  (46) 
-9.8300000000000001

>  <m_primary>  (46) 
energy

>  <rmsd>  (46) 
4.993237206977797

>  <m_score__min__rmsd>  (46) 
4.993237206977797

>  <meeko>  (46) 
{"free_energy": -9.12, "intermolecular_energy": -11.51, "internal_energy": -3.02, "cluster_size": 12, "cluster_id": 3, "rank_in_cluster": 3}

>  <energy>  (46) 
-6.99

>  <cluster_rmsd>  (46) 
1.56

>  <cluster>  (46) 
7

$$$$

     RDKit          3D

 63 67  0  0  0  0  0  0  0  0999 V2000
  138.8680   75.2200  221.9830 O   0  0  0  0  0  0  0  0  0  0  0  0
  140.0280   75.6960  222.0960 C   0  0  0  0  0  0  0  0  0  0  0  0
  141.2100   74.9220  221.8790 N   0  0  0  0  0  0  0  0  0  0  0  0
  141.0420   73.5440  221.5190 C   0  0  0  0  0  0  0  0  0  0  0  0
  141.8070   73.2240  220.3090 C   0  0  0  0  0  0  0  0  0  0  0  0
  141.1890   72.8850  219.2670 O   0  0  0  0  0  0  0  0  0  0  0  0
  143.2200   73.2910  220.3000 N   0  0  0  0  0  0  0  0  0  0  0  0
  144.1200   72.1720  220.4230 C   0  0  0  0  0  0  0  0  0  0  0  0
  145.5170   72.7030  220.4910 C   0  0  0  0  0  0  0  0  0  0  0  0
  145.3230   74.1720  220.7920 C   0  0  0  0  0  0  0  0  0  0  0  0
  144.0300   74.5150  220.1640 C   0  0  1  0  0  0  0  0  0  0  0  0
  144.0560   74.8790  218.7300 C   0  0  0  0  0  0  0  0  0  0  0  0
  142.8880   75.5830  218.2970 N   0  0  0  0  0  0  0  0  0  0  0  0
  142.5960   76.9410  218.4300 C   0  0  0  0  0  0  0  0  0  0  0  0
  142.9180   77.9360  217.5360 C   0  0  0  0  0  0  0  0  0  0  0  0
  142.6130   79.2660  217.7210 C   0  0  0  0  0  0  0  0  0  0  0  0
  141.9470   79.6780  218.8560 C   0  0  0  0  0  0  0  0  0  0  0  0
  141.6310   81.0870  219.0430 C   0  0  0  0  0  0  0  0  0  0  0  0
  141.0410   81.4840  220.2400 C   0  0  0  0  0  0  0  0  0  0  0  0
  140.7170   82.8250  220.4720 C   0  0  0  0  0  0  0  0  0  0  0  0
  140.9940   83.7640  219.4860 C   0  0  0  0  0  0  0  0  0  0  0  0
  141.5850   83.3690  218.2840 C   0  0  0  0  0  0  0  0  0  0  0  0
  141.9060   82.0380  218.0530 C   0  0  0  0  0  0  0  0  0  0  0  0
  141.6080   78.7080  219.7740 C   0  0  0  0  0  0  0  0  0  0  0  0
  141.9180   77.3800  219.5800 C   0  0  0  0  0  0  0  0  0  0  0  0
  140.1950   77.0970  222.4630 C   0  0  0  0  0  0  0  0  0  0  0  0
  139.0950   77.9180  222.6750 C   0  0  0  0  0  0  0  0  0  0  0  0
  139.2410   79.2540  223.0230 C   0  0  0  0  0  0  0  0  0  0  0  0
  140.4910   79.8180  223.1720 C   0  0  0  0  0  0  0  0  0  0  0  0
  140.6910   81.1390  223.5170 C   0  0  0  0  0  0  0  0  0  0  0  0
  141.9990   81.5940  223.6380 C   0  0  0  0  0  0  0  0  0  0  0  0
  143.0800   80.7520  223.4210 C   0  0  0  0  0  0  0  0  0  0  0  0
  142.8840   79.4140  223.0720 C   0  0  0  0  0  0  0  0  0  0  0  0
  141.5710   78.9720  222.9540 C   0  0  0  0  0  0  0  0  0  0  0  0
  141.4010   77.6760  222.6160 N   0  0  0  0  0  0  0  0  0  0  0  0
  142.1630   75.3660  221.9850 H   0  0  0  0  0  0  0  0  0  0  0  0
  141.3938   72.9099  222.3461 H   0  0  0  0  0  0  0  0  0  0  0  0
  139.9759   73.3591  221.3209 H   0  0  0  0  0  0  0  0  0  0  0  0
  143.8906   71.6082  221.3393 H   0  0  0  0  0  0  0  0  0  0  0  0
  144.0103   71.4987  219.5601 H   0  0  0  0  0  0  0  0  0  0  0  0
  146.0865   72.2095  221.2923 H   0  0  0  0  0  0  0  0  0  0  0  0
  146.0873   72.5271  219.5670 H   0  0  0  0  0  0  0  0  0  0  0  0
  145.2848   74.3439  221.8778 H   0  0  0  0  0  0  0  0  0  0  0  0
  146.1491   74.7886  220.4082 H   0  0  0  0  0  0  0  0  0  0  0  0
  143.6505   75.4183  220.6640 H   0  0  0  0  0  0  0  0  0  0  0  0
  144.9337   75.5168  218.5489 H   0  0  0  0  0  0  0  0  0  0  0  0
  144.0969   73.9396  218.1592 H   0  0  0  0  0  0  0  0  0  0  0  0
  142.1510   74.9840  217.8110 H   0  0  0  0  0  0  0  0  0  0  0  0
  143.4518   77.6516  216.6172 H   0  0  0  0  0  0  0  0  0  0  0  0
  142.9024   80.0043  216.9587 H   0  0  0  0  0  0  0  0  0  0  0  0
  140.8266   80.7326  221.0142 H   0  0  0  0  0  0  0  0  0  0  0  0
  140.2504   83.1312  221.4199 H   0  0  0  0  0  0  0  0  0  0  0  0
  140.7468   84.8228  219.6529 H   0  0  0  0  0  0  0  0  0  0  0  0
  141.7989   84.1215  217.5107 H   0  0  0  0  0  0  0  0  0  0  0  0
  142.3709   81.7344  217.1034 H   0  0  0  0  0  0  0  0  0  0  0  0
  141.0738   79.0030  220.6892 H   0  0  0  0  0  0  0  0  0  0  0  0
  141.6275   76.6445  220.3446 H   0  0  0  0  0  0  0  0  0  0  0  0
  138.0837   77.4996  222.5645 H   0  0  0  0  0  0  0  0  0  0  0  0
  138.3456   79.8727  223.1825 H   0  0  0  0  0  0  0  0  0  0  0  0
  139.8394   81.8131  223.6914 H   0  0  0  0  0  0  0  0  0  0  0  0
  142.1807   82.6438  223.9116 H   0  0  0  0  0  0  0  0  0  0  0  0
  144.1030   81.1426  223.5250 H   0  0  0  0  0  0  0  0  0  0  0  0
  143.7337   78.7375  222.8976 H   0  0  0  0  0  0  0  0  0  0  0  0
  1  2  2  0
  2  3  1  0
  3  4  1  0
  4  5  1  0
  5  6  2  0
  5  7  1  0
  7  8  1  0
  8  9  1  0
  9 10  1  0
 10 11  1  0
 11 12  1  0
 12 13  1  0
 13 14  1  0
 14 15  2  0
 15 16  1  0
 16 17  2  0
 17 18  1  0
 18 19  2  0
 19 20  1  0
 20 21  2  0
 21 22  1  0
 22 23  2  0
 17 24  1  0
 24 25  2  0
  2 26  1  0
 26 27  2  0
 27 28  1  0
 28 29  2  0
 29 30  1  0
 30 31  2  0
 31 32  1  0
 32 33  2  0
 33 34  1  0
 34 35  2  0
 11  7  1  0
 25 14  1  0
 35 26  1  0
 23 18  1  0
 34 29  1  0
  3 36  1  0
  4 37  1  0
  4 38  1  0
  8 39  1  0
  8 40  1  0
  9 41  1  0
  9 42  1  0
 10 43  1  0
 10 44  1  0
 11 45  1  1
 12 46  1  0
 12 47  1  0
 13 48  1  0
 15 49  1  0
 16 50  1  0
 19 51  1  0
 20 52  1  0
 21 53  1  0
 22 54  1  0
 23 55  1  0
 24 56  1  0
 25 57  1  0
 27 58  1  0
 28 59  1  0
 30 60  1  0
 31 61  1  0
 32 62  1  0
 33 63  1  0
M  END
>  <smiles>  (47) 
O=C(NCC(=O)N1CCC[C@H]1CNc1ccc(-c2ccccc2)cc1)c1ccc2ccccc2n1

>  <score_type>  (47) 
oracle

>  <origin>  (47) 
autodockgpu

>  <m_score__min__energy>  (47) 
-9.8300000000000001

>  <m_primary>  (47) 
energy

>  <rmsd>  (47) 
7.063412038227312

>  <m_score__min__rmsd>  (47) 
7.063412038227312

>  <meeko>  (47) 
{"free_energy": -8.14, "intermolecular_energy": -10.52, "internal_energy": -3.89, "cluster_size": 10, "cluster_id": 7, "rank_in_cluster": 2}

>  <energy>  (47) 
-7.77

>  <cluster_rmsd>  (47) 
0.0

>  <cluster>  (47) 
8

$$$$

     RDKit          3D

 63 67  0  0  0  0  0  0  0  0999 V2000
  137.2740   69.6900  222.9410 O   0  0  0  0  0  0  0  0  0  0  0  0
  138.4530   69.2570  223.0170 C   0  0  0  0  0  0  0  0  0  0  0  0
  139.2220   68.8920  221.8690 N   0  0  0  0  0  0  0  0  0  0  0  0
  138.6010   69.0330  220.5840 C   0  0  0  0  0  0  0  0  0  0  0  0
  139.1510   70.1840  219.8620 C   0  0  0  0  0  0  0  0  0  0  0  0
  138.8880   70.3220  218.6390 O   0  0  0  0  0  0  0  0  0  0  0  0
  139.9680   71.1360  220.5180 N   0  0  0  0  0  0  0  0  0  0  0  0
  141.3420   71.4330  220.1980 C   0  0  0  0  0  0  0  0  0  0  0  0
  141.8570   72.4020  221.2150 C   0  0  0  0  0  0  0  0  0  0  0  0
  140.8350   72.3250  222.3270 C   0  0  0  0  0  0  0  0  0  0  0  0
  139.5660   71.9930  221.6470 C   0  0  1  0  0  0  0  0  0  0  0  0
  138.7850   73.1230  221.0960 C   0  0  0  0  0  0  0  0  0  0  0  0
  138.5010   74.1450  222.0560 N   0  0  0  0  0  0  0  0  0  0  0  0
  139.1400   75.3740  222.2270 C   0  0  0  0  0  0  0  0  0  0  0  0
  140.4690   75.6420  221.9920 C   0  0  0  0  0  0  0  0  0  0  0  0
  141.0530   76.8740  222.1860 C   0  0  0  0  0  0  0  0  0  0  0  0
  140.3030   77.9360  222.6440 C   0  0  0  0  0  0  0  0  0  0  0  0
  140.9300   79.2350  222.8480 C   0  0  0  0  0  0  0  0  0  0  0  0
  142.1490   79.2890  223.5170 C   0  0  0  0  0  0  0  0  0  0  0  0
  142.7950   80.5100  223.7390 C   0  0  0  0  0  0  0  0  0  0  0  0
  142.1990   81.6780  223.2800 C   0  0  0  0  0  0  0  0  0  0  0  0
  140.9760   81.6280  222.6090 C   0  0  0  0  0  0  0  0  0  0  0  0
  140.3350   80.4160  222.3880 C   0  0  0  0  0  0  0  0  0  0  0  0
  138.9670   77.7050  222.8900 C   0  0  0  0  0  0  0  0  0  0  0  0
  138.3920   76.4690  222.6930 C   0  0  0  0  0  0  0  0  0  0  0  0
  139.0810   69.1140  224.3250 C   0  0  0  0  0  0  0  0  0  0  0  0
  139.2320   67.8660  224.9150 C   0  0  0  0  0  0  0  0  0  0  0  0
  139.8270   67.7160  226.1610 C   0  0  0  0  0  0  0  0  0  0  0  0
  140.2940   68.8100  226.8610 C   0  0  0  0  0  0  0  0  0  0  0  0
  140.8940   68.7170  228.1000 C   0  0  0  0  0  0  0  0  0  0  0  0
  141.3240   69.8890  228.7100 C   0  0  0  0  0  0  0  0  0  0  0  0
  141.1610   71.1240  228.0980 C   0  0  0  0  0  0  0  0  0  0  0  0
  140.5560   71.2250  226.8430 C   0  0  0  0  0  0  0  0  0  0  0  0
  140.1290   70.0440  226.2460 C   0  0  0  0  0  0  0  0  0  0  0  0
  139.5460   70.1600  225.0330 N   0  0  0  0  0  0  0  0  0  0  0  0
  140.2100   68.5330  221.9830 H   0  0  0  0  0  0  0  0  0  0  0  0
  138.7784   68.1204  219.9960 H   0  0  0  0  0  0  0  0  0  0  0  0
  137.5223   69.1917  220.7299 H   0  0  0  0  0  0  0  0  0  0  0  0
  141.9394   70.5098  220.2265 H   0  0  0  0  0  0  0  0  0  0  0  0
  141.4135   71.8654  219.1891 H   0  0  0  0  0  0  0  0  0  0  0  0
  142.8524   72.1023  221.5746 H   0  0  0  0  0  0  0  0  0  0  0  0
  141.9776   73.4193  220.8143 H   0  0  0  0  0  0  0  0  0  0  0  0
  141.1053   71.5402  223.0488 H   0  0  0  0  0  0  0  0  0  0  0  0
  140.7687   73.2632  222.8974 H   0  0  0  0  0  0  0  0  0  0  0  0
  138.8983   71.5436  222.3968 H   0  0  0  0  0  0  0  0  0  0  0  0
  139.3569   73.5710  220.2700 H   0  0  0  0  0  0  0  0  0  0  0  0
  137.8189   72.7156  220.7633 H   0  0  0  0  0  0  0  0  0  0  0  0
  137.6970   73.9310  222.7230 H   0  0  0  0  0  0  0  0  0  0  0  0
  141.1041   74.8216  221.6266 H   0  0  0  0  0  0  0  0  0  0  0  0
  142.1237   77.0113  221.9744 H   0  0  0  0  0  0  0  0  0  0  0  0
  142.6115   78.3580  223.8766 H   0  0  0  0  0  0  0  0  0  0  0  0
  143.7587   80.5446  224.2682 H   0  0  0  0  0  0  0  0  0  0  0  0
  142.6931   82.6466  223.4461 H   0  0  0  0  0  0  0  0  0  0  0  0
  140.5143   82.5600  222.2509 H   0  0  0  0  0  0  0  0  0  0  0  0
  139.3716   80.3842  221.8580 H   0  0  0  0  0  0  0  0  0  0  0  0
  138.3409   78.5326  223.2547 H   0  0  0  0  0  0  0  0  0  0  0  0
  137.3210   76.3355  222.9056 H   0  0  0  0  0  0  0  0  0  0  0  0
  138.8713   66.9738  224.3821 H   0  0  0  0  0  0  0  0  0  0  0  0
  139.9275   66.7108  226.5962 H   0  0  0  0  0  0  0  0  0  0  0  0
  141.0282   67.7420  228.5913 H   0  0  0  0  0  0  0  0  0  0  0  0
  141.8036   69.8370  229.6986 H   0  0  0  0  0  0  0  0  0  0  0  0
  141.5122   72.0337  228.6071 H   0  0  0  0  0  0  0  0  0  0  0  0
  140.4229   72.1981  226.3477 H   0  0  0  0  0  0  0  0  0  0  0  0
  1  2  2  0
  2  3  1  0
  3  4  1  0
  4  5  1  0
  5  6  2  0
  5  7  1  0
  7  8  1  0
  8  9  1  0
  9 10  1  0
 10 11  1  0
 11 12  1  0
 12 13  1  0
 13 14  1  0
 14 15  2  0
 15 16  1  0
 16 17  2  0
 17 18  1  0
 18 19  2  0
 19 20  1  0
 20 21  2  0
 21 22  1  0
 22 23  2  0
 17 24  1  0
 24 25  2  0
  2 26  1  0
 26 27  2  0
 27 28  1  0
 28 29  2  0
 29 30  1  0
 30 31  2  0
 31 32  1  0
 32 33  2  0
 33 34  1  0
 34 35  2  0
 11  7  1  0
 25 14  1  0
 35 26  1  0
 23 18  1  0
 34 29  1  0
  3 36  1  0
  4 37  1  0
  4 38  1  0
  8 39  1  0
  8 40  1  0
  9 41  1  0
  9 42  1  0
 10 43  1  0
 10 44  1  0
 11 45  1  1
 12 46  1  0
 12 47  1  0
 13 48  1  0
 15 49  1  0
 16 50  1  0
 19 51  1  0
 20 52  1  0
 21 53  1  0
 22 54  1  0
 23 55  1  0
 24 56  1  0
 25 57  1  0
 27 58  1  0
 28 59  1  0
 30 60  1  0
 31 61  1  0
 32 62  1  0
 33 63  1  0
M  END
>  <smiles>  (48) 
O=C(NCC(=O)N1CCC[C@H]1CNc1ccc(-c2ccccc2)cc1)c1ccc2ccccc2n1

>  <score_type>  (48) 
oracle

>  <origin>  (48) 
autodockgpu

>  <m_score__min__energy>  (48) 
-9.8300000000000001

>  <m_primary>  (48) 
energy

>  <rmsd>  (48) 
4.449562570199775

>  <m_score__min__rmsd>  (48) 
4.449562570199775

>  <meeko>  (48) 
{"free_energy": -9.16, "intermolecular_energy": -11.55, "internal_energy": -2.15, "cluster_size": 12, "cluster_id": 3, "rank_in_cluster": 1}

>  <energy>  (48) 
-7.54

>  <cluster_rmsd>  (48) 
0.0

>  <cluster>  (48) 
9

$$$$

     RDKit          3D

 63 67  0  0  0  0  0  0  0  0999 V2000
  140.4400   72.8610  222.5090 O   0  0  0  0  0  0  0  0  0  0  0  0
  140.1350   71.6570  222.7120 C   0  0  0  0  0  0  0  0  0  0  0  0
  139.6970   70.7800  221.6730 N   0  0  0  0  0  0  0  0  0  0  0  0
  139.6050   71.3190  220.3470 C   0  0  0  0  0  0  0  0  0  0  0  0
  138.8380   72.5680  220.3430 C   0  0  0  0  0  0  0  0  0  0  0  0
  139.4500   73.6620  220.2320 O   0  0  0  0  0  0  0  0  0  0  0  0
  137.4280   72.5600  220.4620 N   0  0  0  0  0  0  0  0  0  0  0  0
  136.5990   71.3890  220.6000 C   0  0  0  0  0  0  0  0  0  0  0  0
  135.1680   71.8250  220.5660 C   0  0  0  0  0  0  0  0  0  0  0  0
  135.2390   73.2310  220.0130 C   0  0  0  0  0  0  0  0  0  0  0  0
  136.5500   73.7440  220.4640 C   0  0  1  0  0  0  0  0  0  0  0  0
  136.6070   74.3420  221.8170 C   0  0  0  0  0  0  0  0  0  0  0  0
  137.9380   74.4970  222.3180 N   0  0  0  0  0  0  0  0  0  0  0  0
  138.6840   75.6700  222.4440 C   0  0  0  0  0  0  0  0  0  0  0  0
  140.0440   75.7930  222.2810 C   0  0  0  0  0  0  0  0  0  0  0  0
  140.7350   76.9750  222.4260 C   0  0  0  0  0  0  0  0  0  0  0  0
  140.0690   78.1360  222.7550 C   0  0  0  0  0  0  0  0  0  0  0  0
  140.8070   79.3810  222.9080 C   0  0  0  0  0  0  0  0  0  0  0  0
  140.3560   80.5110  222.2320 C   0  0  0  0  0  0  0  0  0  0  0  0
  141.0270   81.7330  222.3440 C   0  0  0  0  0  0  0  0  0  0  0  0
  142.1610   81.8060  223.1450 C   0  0  0  0  0  0  0  0  0  0  0  0
  142.6170   80.6750  223.8230 C   0  0  0  0  0  0  0  0  0  0  0  0
  141.9500   79.4620  223.7120 C   0  0  0  0  0  0  0  0  0  0  0  0
  138.7040   78.0510  222.9260 C   0  0  0  0  0  0  0  0  0  0  0  0
  138.0220   76.8640  222.7790 C   0  0  0  0  0  0  0  0  0  0  0  0
  140.2300   71.1120  224.0620 C   0  0  0  0  0  0  0  0  0  0  0  0
  140.7030   71.8850  225.1140 C   0  0  0  0  0  0  0  0  0  0  0  0
  140.7990   71.3780  226.4040 C   0  0  0  0  0  0  0  0  0  0  0  0
  140.4250   70.0800  226.6870 C   0  0  0  0  0  0  0  0  0  0  0  0
  140.4990   69.5280  227.9490 C   0  0  0  0  0  0  0  0  0  0  0  0
  140.0940   68.2090  228.1130 C   0  0  0  0  0  0  0  0  0  0  0  0
  139.6240   67.4590  227.0430 C   0  0  0  0  0  0  0  0  0  0  0  0
  139.5460   68.0130  225.7630 C   0  0  0  0  0  0  0  0  0  0  0  0
  139.9560   69.3330  225.6140 C   0  0  0  0  0  0  0  0  0  0  0  0
  139.8730   69.8520  224.3700 N   0  0  0  0  0  0  0  0  0  0  0  0
  139.4530   69.7750  221.8930 H   0  0  0  0  0  0  0  0  0  0  0  0
  140.6183   71.5172  219.9675 H   0  0  0  0  0  0  0  0  0  0  0  0
  139.0909   70.5884  219.7052 H   0  0  0  0  0  0  0  0  0  0  0  0
  136.7963   70.6929  219.7715 H   0  0  0  0  0  0  0  0  0  0  0  0
  136.8185   70.8766  221.5483 H   0  0  0  0  0  0  0  0  0  0  0  0
  134.5742   71.1735  219.9080 H   0  0  0  0  0  0  0  0  0  0  0  0
  134.6824   71.7769  221.5519 H   0  0  0  0  0  0  0  0  0  0  0  0
  135.1837   73.2193  218.9145 H   0  0  0  0  0  0  0  0  0  0  0  0
  134.4043   73.8580  220.3597 H   0  0  0  0  0  0  0  0  0  0  0  0
  136.8294   74.5691  219.7923 H   0  0  0  0  0  0  0  0  0  0  0  0
  136.1317   75.3333  221.7796 H   0  0  0  0  0  0  0  0  0  0  0  0
  136.0841   73.6533  222.4969 H   0  0  0  0  0  0  0  0  0  0  0  0
  138.4130   73.5960  222.6330 H   0  0  0  0  0  0  0  0  0  0  0  0
  140.6155   74.8906  222.0184 H   0  0  0  0  0  0  0  0  0  0  0  0
  141.8249   76.9929  222.2784 H   0  0  0  0  0  0  0  0  0  0  0  0
  139.4583   80.4419  221.6001 H   0  0  0  0  0  0  0  0  0  0  0  0
  140.6635   82.6217  221.8072 H   0  0  0  0  0  0  0  0  0  0  0  0
  142.7009   82.7592  223.2446 H   0  0  0  0  0  0  0  0  0  0  0  0
  143.5159   80.7450  224.4532 H   0  0  0  0  0  0  0  0  0  0  0  0
  142.3157   78.5749  224.2498 H   0  0  0  0  0  0  0  0  0  0  0  0
  138.1421   78.9596  223.1880 H   0  0  0  0  0  0  0  0  0  0  0  0
  136.9322   76.8496  222.9274 H   0  0  0  0  0  0  0  0  0  0  0  0
  141.0091   72.9239  224.9214 H   0  0  0  0  0  0  0  0  0  0  0  0
  141.1788   72.0208  227.2119 H   0  0  0  0  0  0  0  0  0  0  0  0
  140.8685   70.1159  228.8021 H   0  0  0  0  0  0  0  0  0  0  0  0
  140.1468   67.7494  229.1110 H   0  0  0  0  0  0  0  0  0  0  0  0
  139.3097   66.4174  227.2051 H   0  0  0  0  0  0  0  0  0  0  0  0
  139.1753   67.4287  224.9079 H   0  0  0  0  0  0  0  0  0  0  0  0
  1  2  2  0
  2  3  1  0
  3  4  1  0
  4  5  1  0
  5  6  2  0
  5  7  1  0
  7  8  1  0
  8  9  1  0
  9 10  1  0
 10 11  1  0
 11 12  1  0
 12 13  1  0
 13 14  1  0
 14 15  2  0
 15 16  1  0
 16 17  2  0
 17 18  1  0
 18 19  2  0
 19 20  1  0
 20 21  2  0
 21 22  1  0
 22 23  2  0
 17 24  1  0
 24 25  2  0
  2 26  1  0
 26 27  2  0
 27 28  1  0
 28 29  2  0
 29 30  1  0
 30 31  2  0
 31 32  1  0
 32 33  2  0
 33 34  1  0
 34 35  2  0
 11  7  1  0
 25 14  1  0
 35 26  1  0
 23 18  1  0
 34 29  1  0
  3 36  1  0
  4 37  1  0
  4 38  1  0
  8 39  1  0
  8 40  1  0
  9 41  1  0
  9 42  1  0
 10 43  1  0
 10 44  1  0
 11 45  1  6
 12 46  1  0
 12 47  1  0
 13 48  1  0
 15 49  1  0
 16 50  1  0
 19 51  1  0
 20 52  1  0
 21 53  1  0
 22 54  1  0
 23 55  1  0
 24 56  1  0
 25 57  1  0
 27 58  1  0
 28 59  1  0
 30 60  1  0
 31 61  1  0
 32 62  1  0
 33 63  1  0
M  END
>  <smiles>  (49) 
O=C(NCC(=O)N1CCC[C@H]1CNc1ccc(-c2ccccc2)cc1)c1ccc2ccccc2n1

>  <score_type>  (49) 
oracle

>  <origin>  (49) 
autodockgpu

>  <m_score__min__energy>  (49) 
-9.8300000000000001

>  <m_primary>  (49) 
energy

>  <rmsd>  (49) 
4.526723792665233

>  <m_score__min__rmsd>  (49) 
4.526723792665233

>  <meeko>  (49) 
{"free_energy": -8.69, "intermolecular_energy": -11.07, "internal_energy": -3.09, "cluster_size": 12, "cluster_id": 3, "rank_in_cluster": 8}

>  <energy>  (49) 
-7.52

>  <cluster_rmsd>  (49) 
0.19

>  <cluster>  (49) 
9

$$$$

     RDKit          3D

 63 67  0  0  0  0  0  0  0  0999 V2000
  139.8830   72.1310  220.8800 O   0  0  0  0  0  0  0  0  0  0  0  0
  139.7380   72.5460  222.0600 C   0  0  0  0  0  0  0  0  0  0  0  0
  139.5450   73.9260  222.3780 N   0  0  0  0  0  0  0  0  0  0  0  0
  139.5230   74.8600  221.2900 C   0  0  0  0  0  0  0  0  0  0  0  0
  139.3650   76.2320  221.7840 C   0  0  0  0  0  0  0  0  0  0  0  0
  138.3780   76.5090  222.5140 O   0  0  0  0  0  0  0  0  0  0  0  0
  140.3000   77.2400  221.4520 N   0  0  0  0  0  0  0  0  0  0  0  0
  141.1020   77.9890  222.3880 C   0  0  0  0  0  0  0  0  0  0  0  0
  141.8540   79.0340  221.6240 C   0  0  0  0  0  0  0  0  0  0  0  0
  141.1380   79.0830  220.2930 C   0  0  0  0  0  0  0  0  0  0  0  0
  140.6240   77.7120  220.0940 C   0  0  1  0  0  0  0  0  0  0  0  0
  141.5490   76.7290  219.4870 C   0  0  0  0  0  0  0  0  0  0  0  0
  142.2380   75.9230  220.4470 N   0  0  0  0  0  0  0  0  0  0  0  0
  142.7850   74.6500  220.2760 C   0  0  0  0  0  0  0  0  0  0  0  0
  142.4780   73.5260  221.0060 C   0  0  0  0  0  0  0  0  0  0  0  0
  143.0550   72.2920  220.8030 C   0  0  0  0  0  0  0  0  0  0  0  0
  144.0060   72.1210  219.8190 C   0  0  0  0  0  0  0  0  0  0  0  0
  144.6120   70.8140  219.6120 C   0  0  0  0  0  0  0  0  0  0  0  0
  143.8650   69.6780  219.9110 C   0  0  0  0  0  0  0  0  0  0  0  0
  144.3990   68.3980  219.7300 C   0  0  0  0  0  0  0  0  0  0  0  0
  145.6940   68.2720  219.2440 C   0  0  0  0  0  0  0  0  0  0  0  0
  146.4460   69.4090  218.9430 C   0  0  0  0  0  0  0  0  0  0  0  0
  145.9170   70.6800  219.1230 C   0  0  0  0  0  0  0  0  0  0  0  0
  144.3390   73.2270  219.0670 C   0  0  0  0  0  0  0  0  0  0  0  0
  143.7560   74.4570  219.2790 C   0  0  0  0  0  0  0  0  0  0  0  0
  139.7610   71.5940  223.1630 C   0  0  0  0  0  0  0  0  0  0  0  0
  139.2050   70.3280  223.0290 C   0  0  0  0  0  0  0  0  0  0  0  0
  139.2200   69.4120  224.0730 C   0  0  0  0  0  0  0  0  0  0  0  0
  139.7910   69.7290  225.2880 C   0  0  0  0  0  0  0  0  0  0  0  0
  139.8320   68.8570  226.3570 C   0  0  0  0  0  0  0  0  0  0  0  0
  140.4340   69.2880  227.5330 C   0  0  0  0  0  0  0  0  0  0  0  0
  140.9820   70.5590  227.6400 C   0  0  0  0  0  0  0  0  0  0  0  0
  140.9440   71.4460  226.5620 C   0  0  0  0  0  0  0  0  0  0  0  0
  140.3380   71.0020  225.3920 C   0  0  0  0  0  0  0  0  0  0  0  0
  140.3090   71.8730  224.3600 N   0  0  0  0  0  0  0  0  0  0  0  0
  139.4270   74.2270  223.3850 H   0  0  0  0  0  0  0  0  0  0  0  0
  140.4673   74.7846  220.7309 H   0  0  0  0  0  0  0  0  0  0  0  0
  138.6709   74.6203  220.6369 H   0  0  0  0  0  0  0  0  0  0  0  0
  140.4526   78.4685  223.1353 H   0  0  0  0  0  0  0  0  0  0  0  0
  141.8025   77.3205  222.9100 H   0  0  0  0  0  0  0  0  0  0  0  0
  141.8024   80.0072  222.1341 H   0  0  0  0  0  0  0  0  0  0  0  0
  142.9253   78.8045  221.5256 H   0  0  0  0  0  0  0  0  0  0  0  0
  140.3105   79.8070  220.3239 H   0  0  0  0  0  0  0  0  0  0  0  0
  141.8006   79.4023  219.4750 H   0  0  0  0  0  0  0  0  0  0  0  0
  139.7905   77.7747  219.3789 H   0  0  0  0  0  0  0  0  0  0  0  0
  140.9687   76.0659  218.8285 H   0  0  0  0  0  0  0  0  0  0  0  0
  142.3121   77.3002  218.9380 H   0  0  0  0  0  0  0  0  0  0  0  0
  142.3420   76.3590  221.4150 H   0  0  0  0  0  0  0  0  0  0  0  0
  141.7244   73.6181  221.8020 H   0  0  0  0  0  0  0  0  0  0  0  0
  142.7557   71.4384  221.4290 H   0  0  0  0  0  0  0  0  0  0  0  0
  142.8402   69.7886  220.2951 H   0  0  0  0  0  0  0  0  0  0  0  0
  143.8027   67.5051  219.9688 H   0  0  0  0  0  0  0  0  0  0  0  0
  146.1287   67.2725  219.0957 H   0  0  0  0  0  0  0  0  0  0  0  0
  147.4704   69.2965  218.5584 H   0  0  0  0  0  0  0  0  0  0  0  0
  146.5161   71.5711  218.8843 H   0  0  0  0  0  0  0  0  0  0  0  0
  145.0935   73.1244  218.2731 H   0  0  0  0  0  0  0  0  0  0  0  0
  144.0581   75.3090  218.6523 H   0  0  0  0  0  0  0  0  0  0  0  0
  138.7415   70.0440  222.0727 H   0  0  0  0  0  0  0  0  0  0  0  0
  138.7697   68.4188  223.9287 H   0  0  0  0  0  0  0  0  0  0  0  0
  139.3999   67.8483  226.2802 H   0  0  0  0  0  0  0  0  0  0  0  0
  140.4772   68.6082  228.3967 H   0  0  0  0  0  0  0  0  0  0  0  0
  141.4515   70.8710  228.5846 H   0  0  0  0  0  0  0  0  0  0  0  0
  141.3760   72.4550  226.6355 H   0  0  0  0  0  0  0  0  0  0  0  0
  1  2  2  0
  2  3  1  0
  3  4  1  0
  4  5  1  0
  5  6  2  0
  5  7  1  0
  7  8  1  0
  8  9  1  0
  9 10  1  0
 10 11  1  0
 11 12  1  0
 12 13  1  0
 13 14  1  0
 14 15  2  0
 15 16  1  0
 16 17  2  0
 17 18  1  0
 18 19  2  0
 19 20  1  0
 20 21  2  0
 21 22  1  0
 22 23  2  0
 17 24  1  0
 24 25  2  0
  2 26  1  0
 26 27  2  0
 27 28  1  0
 28 29  2  0
 29 30  1  0
 30 31  2  0
 31 32  1  0
 32 33  2  0
 33 34  1  0
 34 35  2  0
 11  7  1  0
 25 14  1  0
 35 26  1  0
 23 18  1  0
 34 29  1  0
  3 36  1  0
  4 37  1  0
  4 38  1  0
  8 39  1  0
  8 40  1  0
  9 41  1  0
  9 42  1  0
 10 43  1  0
 10 44  1  0
 11 45  1  6
 12 46  1  0
 12 47  1  0
 13 48  1  0
 15 49  1  0
 16 50  1  0
 19 51  1  0
 20 52  1  0
 21 53  1  0
 22 54  1  0
 23 55  1  0
 24 56  1  0
 25 57  1  0
 27 58  1  0
 28 59  1  0
 30 60  1  0
 31 61  1  0
 32 62  1  0
 33 63  1  0
M  END
>  <smiles>  (50) 
O=C(NCC(=O)N1CCC[C@H]1CNc1ccc(-c2ccccc2)cc1)c1ccc2ccccc2n1

>  <score_type>  (50) 
oracle

>  <origin>  (50) 
autodockgpu

>  <m_score__min__energy>  (50) 
-9.8300000000000001

>  <m_primary>  (50) 
energy

>  <rmsd>  (50) 
5.559500387266968

>  <m_score__min__rmsd>  (50) 
5.559500387266968

>  <meeko>  (50) 
{"free_energy": -9.16, "intermolecular_energy": -11.55, "internal_energy": -2.44, "cluster_size": 6, "cluster_id": 2, "rank_in_cluster": 5}

>  <energy>  (50) 
-5.95

>  <cluster_rmsd>  (50) 
1.01

>  <cluster>  (50) 
9

$$$$
