
     RDKit          3D

 49 53  0  0  1  0  0  0  0  0999 V2000
  140.0380   74.8550  222.0550 O   0  0  0  0  0  0  0  0  0  0  0  0
  139.0640   75.9590  221.7520 S   0  0  0  0  0  0  0  0  0  0  0  0
  137.7340   75.6350  222.3460 O   0  0  0  0  0  0  0  0  0  0  0  0
  138.8420   76.0250  219.9910 C   0  0  0  0  0  0  0  0  0  0  0  0
  138.3200   77.3450  219.5530 C   0  0  0  0  0  0  0  0  0  0  0  0
  137.2210   77.9410  220.1350 C   0  0  0  0  0  0  0  0  0  0  0  0
  136.7930   79.1750  219.6710 C   0  0  0  0  0  0  0  0  0  0  0  0
  137.4770   79.7930  218.6280 C   0  0  0  0  0  0  0  0  0  0  0  0
  138.5730   79.1840  218.0570 C   0  0  0  0  0  0  0  0  0  0  0  0
  139.0110   77.9580  218.5060 C   0  0  0  0  0  0  0  0  0  0  0  0
  139.6750   77.4650  222.3560 N   0  0  0  0  0  0  0  0  0  0  0  0
  138.7110   78.4210  222.7790 C   0  0  0  0  0  0  0  0  0  0  0  0
  139.0950   79.5940  223.2550 C   0  0  0  0  0  0  0  0  0  0  0  0
  140.5060   79.9150  223.3470 C   0  0  0  0  0  0  0  0  0  0  0  0
  140.9070   81.1420  223.8440 C   0  0  0  0  0  0  0  0  0  0  0  0
  142.2670   81.4490  223.9330 C   0  0  0  0  0  0  0  0  0  0  0  0
  143.2300   80.5220  223.5220 C   0  0  0  0  0  0  0  0  0  0  0  0
  142.8070   79.2980  223.0260 C   0  0  0  0  0  0  0  0  0  0  0  0
  141.4460   78.9920  222.9380 C   0  0  0  0  0  0  0  0  0  0  0  0
  141.0870   77.6560  222.3920 C   0  0  2  0  0  0  0  0  0  0  0  0
  141.6400   77.5830  220.9930 C   0  0  0  0  0  0  0  0  0  0  0  0
  142.1350   76.4360  220.3910 C   0  0  0  0  0  0  0  0  0  0  0  0
  142.5450   76.7320  219.1440 N   0  0  0  0  0  0  0  0  0  0  0  0
  142.3240   78.0400  218.9300 C   0  0  0  0  0  0  0  0  0  0  0  0
  142.5660   78.8280  217.8220 C   0  0  0  0  0  0  0  0  0  0  0  0
  142.2440   80.1700  217.8530 C   0  0  0  0  0  0  0  0  0  0  0  0
  141.6750   80.7270  219.0030 C   0  0  0  0  0  0  0  0  0  0  0  0
  141.4340   79.9330  220.1140 C   0  0  0  0  0  0  0  0  0  0  0  0
  141.7560   78.6060  220.0750 C   0  0  0  0  0  0  0  0  0  0  0  0
  139.8109   75.8446  219.5024 H   0  0  0  0  0  0  0  0  0  0  0  0
  138.1091   75.2550  219.7083 H   0  0  0  0  0  0  0  0  0  0  0  0
  136.6895   77.4423  220.9589 H   0  0  0  0  0  0  0  0  0  0  0  0
  135.9177   79.6632  220.1244 H   0  0  0  0  0  0  0  0  0  0  0  0
  137.1407   80.7727  218.2578 H   0  0  0  0  0  0  0  0  0  0  0  0
  139.1043   79.6828  217.2330 H   0  0  0  0  0  0  0  0  0  0  0  0
  139.8861   77.4723  218.0497 H   0  0  0  0  0  0  0  0  0  0  0  0
  137.6391   78.1836  222.7100 H   0  0  0  0  0  0  0  0  0  0  0  0
  138.3427   80.3270  223.5815 H   0  0  0  0  0  0  0  0  0  0  0  0
  140.1550   81.8761  224.1692 H   0  0  0  0  0  0  0  0  0  0  0  0
  142.5822   82.4257  224.3287 H   0  0  0  0  0  0  0  0  0  0  0  0
  144.3019   80.7591  223.5908 H   0  0  0  0  0  0  0  0  0  0  0  0
  143.5521   78.5584  222.6976 H   0  0  0  0  0  0  0  0  0  0  0  0
  141.5067   76.8698  223.0367 H   0  0  0  0  0  0  0  0  0  0  0  0
  142.1846   75.4417  220.8588 H   0  0  0  0  0  0  0  0  0  0  0  0
  142.9660   76.0410  218.4560 H   0  0  0  0  0  0  0  0  0  0  0  0
  143.0135   78.3881  216.9185 H   0  0  0  0  0  0  0  0  0  0  0  0
  142.4350   80.8016  216.9729 H   0  0  0  0  0  0  0  0  0  0  0  0
  141.4184   81.7964  219.0261 H   0  0  0  0  0  0  0  0  0  0  0  0
  140.9869   80.3684  221.0199 H   0  0  0  0  0  0  0  0  0  0  0  0
  1  2  2  0
  2  3  2  0
  2  4  1  0
  4  5  1  0
  5  6  2  0
  6  7  1  0
  7  8  2  0
  8  9  1  0
  9 10  2  0
  2 11  1  0
 11 12  1  0
 12 13  2  0
 13 14  1  0
 14 15  2  0
 15 16  1  0
 16 17  2  0
 17 18  1  0
 18 19  2  0
 19 20  1  0
 20 21  1  0
 21 22  2  0
 22 23  1  0
 23 24  1  0
 24 25  2  0
 25 26  1  0
 26 27  2  0
 27 28  1  0
 28 29  2  0
 10  5  1  0
 20 11  1  0
 29 21  1  0
 19 14  1  0
 29 24  1  0
  4 30  1  0
  4 31  1  0
  6 32  1  0
  7 33  1  0
  8 34  1  0
  9 35  1  0
 10 36  1  0
 12 37  1  0
 13 38  1  0
 15 39  1  0
 16 40  1  0
 17 41  1  0
 18 42  1  0
 20 43  1  1
 22 44  1  0
 23 45  1  0
 25 46  1  0
 26 47  1  0
 27 48  1  0
 28 49  1  0
M  END
>  <smiles>  (1) 
O=S(=O)(Cc1ccccc1)N1C=Cc2ccccc2C1c1c[nH]c2ccccc12

>  <score_type>  (1) 
oracle

>  <origin>  (1) 
autodockgpu

>  <m_score__min__energy>  (1) 
-6.9400000000000004

>  <m_primary>  (1) 
energy

>  <rmsd>  (1) 
4.356693302313307

>  <m_score__min__rmsd>  (1) 
4.356693302313307

>  <meeko>  (1) 
{"free_energy": -6.86, "intermolecular_energy": -8.05, "internal_energy": -2.87, "cluster_size": 50, "cluster_id": 1, "rank_in_cluster": 33}

>  <energy>  (1) 
-6.94

>  <cluster_rmsd>  (1) 
0.0

>  <cluster>  (1) 
1

$$$$

     RDKit          3D

 49 53  0  0  1  0  0  0  0  0999 V2000
  139.9980   74.8780  222.0850 O   0  0  0  0  0  0  0  0  0  0  0  0
  139.0330   75.9880  221.7750 S   0  0  0  0  0  0  0  0  0  0  0  0
  137.7000   75.6770  222.3690 O   0  0  0  0  0  0  0  0  0  0  0  0
  138.8140   76.0470  220.0140 C   0  0  0  0  0  0  0  0  0  0  0  0
  138.3030   77.3690  219.5690 C   0  0  0  0  0  0  0  0  0  0  0  0
  137.2010   77.9710  220.1370 C   0  0  0  0  0  0  0  0  0  0  0  0
  136.7850   79.2080  219.6680 C   0  0  0  0  0  0  0  0  0  0  0  0
  137.4830   79.8210  218.6320 C   0  0  0  0  0  0  0  0  0  0  0  0
  138.5830   79.2070  218.0750 C   0  0  0  0  0  0  0  0  0  0  0  0
  139.0100   77.9780  218.5290 C   0  0  0  0  0  0  0  0  0  0  0  0
  139.6540   77.4920  222.3730 N   0  0  0  0  0  0  0  0  0  0  0  0
  138.6970   78.4580  222.7870 C   0  0  0  0  0  0  0  0  0  0  0  0
  139.0890   79.6310  223.2580 C   0  0  0  0  0  0  0  0  0  0  0  0
  140.5030   79.9400  223.3540 C   0  0  0  0  0  0  0  0  0  0  0  0
  140.9120   81.1670  223.8450 C   0  0  0  0  0  0  0  0  0  0  0  0
  142.2740   81.4630  223.9380 C   0  0  0  0  0  0  0  0  0  0  0  0
  143.2310   80.5260  223.5360 C   0  0  0  0  0  0  0  0  0  0  0  0
  142.7990   79.3030  223.0460 C   0  0  0  0  0  0  0  0  0  0  0  0
  141.4360   79.0070  222.9530 C   0  0  0  0  0  0  0  0  0  0  0  0
  141.0680   77.6710  222.4140 C   0  0  2  0  0  0  0  0  0  0  0  0
  141.6260   77.5860  221.0180 C   0  0  0  0  0  0  0  0  0  0  0  0
  142.1110   76.4300  220.4230 C   0  0  0  0  0  0  0  0  0  0  0  0
  142.5280   76.7160  219.1760 N   0  0  0  0  0  0  0  0  0  0  0  0
  142.3230   78.0250  218.9550 C   0  0  0  0  0  0  0  0  0  0  0  0
  142.5780   78.8060  217.8440 C   0  0  0  0  0  0  0  0  0  0  0  0
  142.2720   80.1510  217.8680 C   0  0  0  0  0  0  0  0  0  0  0  0
  141.7050   80.7200  219.0140 C   0  0  0  0  0  0  0  0  0  0  0  0
  141.4500   79.9340  220.1270 C   0  0  0  0  0  0  0  0  0  0  0  0
  141.7570   78.6030  220.0950 C   0  0  0  0  0  0  0  0  0  0  0  0
  139.7821   75.8566  219.5276 H   0  0  0  0  0  0  0  0  0  0  0  0
  138.0755   75.2814  219.7340 H   0  0  0  0  0  0  0  0  0  0  0  0
  136.6568   77.4752  220.9543 H   0  0  0  0  0  0  0  0  0  0  0  0
  135.9083   79.7018  220.1124 H   0  0  0  0  0  0  0  0  0  0  0  0
  137.1546   80.8011  218.2559 H   0  0  0  0  0  0  0  0  0  0  0  0
  139.1271   79.7036  217.2581 H   0  0  0  0  0  0  0  0  0  0  0  0
  139.8876   77.4875  218.0828 H   0  0  0  0  0  0  0  0  0  0  0  0
  137.6235   78.2291  222.7154 H   0  0  0  0  0  0  0  0  0  0  0  0
  138.3417   80.3725  223.5770 H   0  0  0  0  0  0  0  0  0  0  0  0
  140.1648   81.9094  224.1621 H   0  0  0  0  0  0  0  0  0  0  0  0
  142.5957   82.4392  224.3299 H   0  0  0  0  0  0  0  0  0  0  0  0
  144.3047   80.7545  223.6070 H   0  0  0  0  0  0  0  0  0  0  0  0
  143.5393   78.5550  222.7259 H   0  0  0  0  0  0  0  0  0  0  0  0
  141.4779   76.8848  223.0650 H   0  0  0  0  0  0  0  0  0  0  0  0
  142.1486   75.4374  220.8957 H   0  0  0  0  0  0  0  0  0  0  0  0
  142.9450   76.0170  218.4930 H   0  0  0  0  0  0  0  0  0  0  0  0
  143.0233   78.3570  216.9439 H   0  0  0  0  0  0  0  0  0  0  0  0
  142.4738   80.7765  216.9859 H   0  0  0  0  0  0  0  0  0  0  0  0
  141.4613   81.7925  219.0316 H   0  0  0  0  0  0  0  0  0  0  0  0
  141.0039   80.3784  221.0290 H   0  0  0  0  0  0  0  0  0  0  0  0
  1  2  2  0
  2  3  2  0
  2  4  1  0
  4  5  1  0
  5  6  2  0
  6  7  1  0
  7  8  2  0
  8  9  1  0
  9 10  2  0
  2 11  1  0
 11 12  1  0
 12 13  2  0
 13 14  1  0
 14 15  2  0
 15 16  1  0
 16 17  2  0
 17 18  1  0
 18 19  2  0
 19 20  1  0
 20 21  1  0
 21 22  2  0
 22 23  1  0
 23 24  1  0
 24 25  2  0
 25 26  1  0
 26 27  2  0
 27 28  1  0
 28 29  2  0
 10  5  1  0
 20 11  1  0
 29 21  1  0
 19 14  1  0
 29 24  1  0
  4 30  1  0
  4 31  1  0
  6 32  1  0
  7 33  1  0
  8 34  1  0
  9 35  1  0
 10 36  1  0
 12 37  1  0
 13 38  1  0
 15 39  1  0
 16 40  1  0
 17 41  1  0
 18 42  1  0
 20 43  1  1
 22 44  1  0
 23 45  1  0
 25 46  1  0
 26 47  1  0
 27 48  1  0
 28 49  1  0
M  END
>  <smiles>  (2) 
O=S(=O)(Cc1ccccc1)N1C=Cc2ccccc2C1c1c[nH]c2ccccc12

>  <score_type>  (2) 
oracle

>  <origin>  (2) 
autodockgpu

>  <m_score__min__energy>  (2) 
-6.9400000000000004

>  <m_primary>  (2) 
energy

>  <rmsd>  (2) 
4.349079179651813

>  <m_score__min__rmsd>  (2) 
4.349079179651813

>  <meeko>  (2) 
{"free_energy": -6.87, "intermolecular_energy": -8.06, "internal_energy": -2.86, "cluster_size": 50, "cluster_id": 1, "rank_in_cluster": 29}

>  <energy>  (2) 
-6.93

>  <cluster_rmsd>  (2) 
0.16

>  <cluster>  (2) 
1

$$$$

     RDKit          3D

 49 53  0  0  1  0  0  0  0  0999 V2000
  140.0100   74.8600  222.1020 O   0  0  0  0  0  0  0  0  0  0  0  0
  139.0430   75.9640  221.7810 S   0  0  0  0  0  0  0  0  0  0  0  0
  137.7070   75.6530  222.3710 O   0  0  0  0  0  0  0  0  0  0  0  0
  138.8300   76.0100  220.0180 C   0  0  0  0  0  0  0  0  0  0  0  0
  138.3200   77.3290  219.5610 C   0  0  0  0  0  0  0  0  0  0  0  0
  137.2130   77.9320  220.1180 C   0  0  0  0  0  0  0  0  0  0  0  0
  136.7980   79.1650  219.6380 C   0  0  0  0  0  0  0  0  0  0  0  0
  137.5030   79.7740  218.6040 C   0  0  0  0  0  0  0  0  0  0  0  0
  138.6080   79.1570  218.0580 C   0  0  0  0  0  0  0  0  0  0  0  0
  139.0340   77.9320  218.5230 C   0  0  0  0  0  0  0  0  0  0  0  0
  139.6560   77.4750  222.3700 N   0  0  0  0  0  0  0  0  0  0  0  0
  138.6940   78.4420  222.7690 C   0  0  0  0  0  0  0  0  0  0  0  0
  139.0800   79.6200  223.2320 C   0  0  0  0  0  0  0  0  0  0  0  0
  140.4920   79.9330  223.3370 C   0  0  0  0  0  0  0  0  0  0  0  0
  140.8960   81.1640  223.8210 C   0  0  0  0  0  0  0  0  0  0  0  0
  142.2560   81.4640  223.9210 C   0  0  0  0  0  0  0  0  0  0  0  0
  143.2180   80.5250  223.5340 C   0  0  0  0  0  0  0  0  0  0  0  0
  142.7920   79.2970  223.0510 C   0  0  0  0  0  0  0  0  0  0  0  0
  141.4310   78.9980  222.9510 C   0  0  0  0  0  0  0  0  0  0  0  0
  141.0690   77.6570  222.4210 C   0  0  2  0  0  0  0  0  0  0  0  0
  141.6380   77.5610  221.0290 C   0  0  0  0  0  0  0  0  0  0  0  0
  142.1370   76.4020  220.4510 C   0  0  0  0  0  0  0  0  0  0  0  0
  142.5610   76.6780  219.2040 N   0  0  0  0  0  0  0  0  0  0  0  0
  142.3470   77.9830  218.9670 C   0  0  0  0  0  0  0  0  0  0  0  0
  142.6030   78.7530  217.8490 C   0  0  0  0  0  0  0  0  0  0  0  0
  142.2840   80.0960  217.8560 C   0  0  0  0  0  0  0  0  0  0  0  0
  141.7040   80.6730  218.9900 C   0  0  0  0  0  0  0  0  0  0  0  0
  141.4480   79.8970  220.1110 C   0  0  0  0  0  0  0  0  0  0  0  0
  141.7670   78.5690  220.0960 C   0  0  0  0  0  0  0  0  0  0  0  0
  139.7998   75.8163  219.5364 H   0  0  0  0  0  0  0  0  0  0  0  0
  138.0926   75.2422  219.7412 H   0  0  0  0  0  0  0  0  0  0  0  0
  136.6643   77.4403  220.9348 H   0  0  0  0  0  0  0  0  0  0  0  0
  135.9163   79.6591  220.0721 H   0  0  0  0  0  0  0  0  0  0  0  0
  137.1769   80.7522  218.2208 H   0  0  0  0  0  0  0  0  0  0  0  0
  139.1565   79.6486  217.2410 H   0  0  0  0  0  0  0  0  0  0  0  0
  139.9160   77.4403  218.0868 H   0  0  0  0  0  0  0  0  0  0  0  0
  137.6215   78.2097  222.6925 H   0  0  0  0  0  0  0  0  0  0  0  0
  138.3286   80.3629  223.5377 H   0  0  0  0  0  0  0  0  0  0  0  0
  140.1453   81.9073  224.1274 H   0  0  0  0  0  0  0  0  0  0  0  0
  142.5728   82.4444  224.3063 H   0  0  0  0  0  0  0  0  0  0  0  0
  144.2907   80.7561  223.6113 H   0  0  0  0  0  0  0  0  0  0  0  0
  143.5360   78.5479  222.7423 H   0  0  0  0  0  0  0  0  0  0  0  0
  141.4749   76.8775  223.0825 H   0  0  0  0  0  0  0  0  0  0  0  0
  142.1792   75.4151  220.9351 H   0  0  0  0  0  0  0  0  0  0  0  0
  142.9890   75.9750  218.5320 H   0  0  0  0  0  0  0  0  0  0  0  0
  143.0589   78.2980  216.9573 H   0  0  0  0  0  0  0  0  0  0  0  0
  142.4863   80.7132  216.9682 H   0  0  0  0  0  0  0  0  0  0  0  0
  141.4505   81.7434  218.9932 H   0  0  0  0  0  0  0  0  0  0  0  0
  140.9918   80.3475  221.0048 H   0  0  0  0  0  0  0  0  0  0  0  0
  1  2  2  0
  2  3  2  0
  2  4  1  0
  4  5  1  0
  5  6  2  0
  6  7  1  0
  7  8  2  0
  8  9  1  0
  9 10  2  0
  2 11  1  0
 11 12  1  0
 12 13  2  0
 13 14  1  0
 14 15  2  0
 15 16  1  0
 16 17  2  0
 17 18  1  0
 18 19  2  0
 19 20  1  0
 20 21  1  0
 21 22  2  0
 22 23  1  0
 23 24  1  0
 24 25  2  0
 25 26  1  0
 26 27  2  0
 27 28  1  0
 28 29  2  0
 10  5  1  0
 20 11  1  0
 29 21  1  0
 19 14  1  0
 29 24  1  0
  4 30  1  0
  4 31  1  0
  6 32  1  0
  7 33  1  0
  8 34  1  0
  9 35  1  0
 10 36  1  0
 12 37  1  0
 13 38  1  0
 15 39  1  0
 16 40  1  0
 17 41  1  0
 18 42  1  0
 20 43  1  1
 22 44  1  0
 23 45  1  0
 25 46  1  0
 26 47  1  0
 27 48  1  0
 28 49  1  0
M  END
>  <smiles>  (3) 
O=S(=O)(Cc1ccccc1)N1C=Cc2ccccc2C1c1c[nH]c2ccccc12

>  <score_type>  (3) 
oracle

>  <origin>  (3) 
autodockgpu

>  <m_score__min__energy>  (3) 
-6.9400000000000004

>  <m_primary>  (3) 
energy

>  <rmsd>  (3) 
4.33581136410286

>  <m_score__min__rmsd>  (3) 
4.33581136410286

>  <meeko>  (3) 
{"free_energy": -6.85, "intermolecular_energy": -8.04, "internal_energy": -2.88, "cluster_size": 50, "cluster_id": 1, "rank_in_cluster": 49}

>  <energy>  (3) 
-6.91

>  <cluster_rmsd>  (3) 
0.07

>  <cluster>  (3) 
1

$$$$

     RDKit          3D

 49 53  0  0  1  0  0  0  0  0999 V2000
  140.0110   74.8670  222.0930 O   0  0  0  0  0  0  0  0  0  0  0  0
  139.0520   75.9770  221.7640 S   0  0  0  0  0  0  0  0  0  0  0  0
  137.7090   75.6710  222.3390 O   0  0  0  0  0  0  0  0  0  0  0  0
  138.8600   76.0280  219.9990 C   0  0  0  0  0  0  0  0  0  0  0  0
  138.3460   77.3450  219.5420 C   0  0  0  0  0  0  0  0  0  0  0  0
  137.2530   77.9580  220.1160 C   0  0  0  0  0  0  0  0  0  0  0  0
  136.8340   79.1890  219.6350 C   0  0  0  0  0  0  0  0  0  0  0  0
  137.5190   79.7850  218.5800 C   0  0  0  0  0  0  0  0  0  0  0  0
  138.6100   79.1590  218.0170 C   0  0  0  0  0  0  0  0  0  0  0  0
  139.0400   77.9360  218.4840 C   0  0  0  0  0  0  0  0  0  0  0  0
  139.6660   77.4830  222.3650 N   0  0  0  0  0  0  0  0  0  0  0  0
  138.7050   78.4440  222.7800 C   0  0  0  0  0  0  0  0  0  0  0  0
  139.0910   79.6180  223.2530 C   0  0  0  0  0  0  0  0  0  0  0  0
  140.5040   79.9340  223.3490 C   0  0  0  0  0  0  0  0  0  0  0  0
  140.9080   81.1610  223.8420 C   0  0  0  0  0  0  0  0  0  0  0  0
  142.2680   81.4630  223.9350 C   0  0  0  0  0  0  0  0  0  0  0  0
  143.2290   80.5310  223.5310 C   0  0  0  0  0  0  0  0  0  0  0  0
  142.8030   79.3070  223.0390 C   0  0  0  0  0  0  0  0  0  0  0  0
  141.4420   79.0050  222.9470 C   0  0  0  0  0  0  0  0  0  0  0  0
  141.0800   77.6680  222.4060 C   0  0  2  0  0  0  0  0  0  0  0  0
  141.6370   77.5880  221.0090 C   0  0  0  0  0  0  0  0  0  0  0  0
  142.1350   76.4370  220.4150 C   0  0  0  0  0  0  0  0  0  0  0  0
  142.5480   76.7260  219.1680 N   0  0  0  0  0  0  0  0  0  0  0  0
  142.3290   78.0330  218.9450 C   0  0  0  0  0  0  0  0  0  0  0  0
  142.5740   78.8150  217.8330 C   0  0  0  0  0  0  0  0  0  0  0  0
  142.2520   80.1570  217.8560 C   0  0  0  0  0  0  0  0  0  0  0  0
  141.6790   80.7210  219.0010 C   0  0  0  0  0  0  0  0  0  0  0  0
  141.4340   79.9330  220.1160 C   0  0  0  0  0  0  0  0  0  0  0  0
  141.7560   78.6060  220.0850 C   0  0  0  0  0  0  0  0  0  0  0  0
  139.8369   75.8433  219.5283 H   0  0  0  0  0  0  0  0  0  0  0  0
  138.1320   75.2557  219.7099 H   0  0  0  0  0  0  0  0  0  0  0  0
  136.7185   77.4753  220.9474 H   0  0  0  0  0  0  0  0  0  0  0  0
  135.9651   79.6918  220.0846 H   0  0  0  0  0  0  0  0  0  0  0  0
  137.1879   80.7603  218.1938 H   0  0  0  0  0  0  0  0  0  0  0  0
  139.1439   79.6413  217.1850 H   0  0  0  0  0  0  0  0  0  0  0  0
  139.9103   77.4364  218.0336 H   0  0  0  0  0  0  0  0  0  0  0  0
  137.6326   78.2103  222.7075 H   0  0  0  0  0  0  0  0  0  0  0  0
  138.3401   80.3550  223.5737 H   0  0  0  0  0  0  0  0  0  0  0  0
  140.1577   81.8995  224.1610 H   0  0  0  0  0  0  0  0  0  0  0  0
  142.5854   82.4400  224.3284 H   0  0  0  0  0  0  0  0  0  0  0  0
  144.3016   80.7644  223.6022 H   0  0  0  0  0  0  0  0  0  0  0  0
  143.5467   78.5634  222.7166 H   0  0  0  0  0  0  0  0  0  0  0  0
  141.4942   76.8828  223.0555 H   0  0  0  0  0  0  0  0  0  0  0  0
  142.1842   75.4455  220.8888 H   0  0  0  0  0  0  0  0  0  0  0  0
  142.9730   76.0310  218.4850 H   0  0  0  0  0  0  0  0  0  0  0  0
  143.0238   78.3702  216.9331 H   0  0  0  0  0  0  0  0  0  0  0  0
  142.4461   80.7838  216.9731 H   0  0  0  0  0  0  0  0  0  0  0  0
  141.4225   81.7906  219.0171 H   0  0  0  0  0  0  0  0  0  0  0  0
  140.9840   80.3733  221.0180 H   0  0  0  0  0  0  0  0  0  0  0  0
  1  2  2  0
  2  3  2  0
  2  4  1  0
  4  5  1  0
  5  6  2  0
  6  7  1  0
  7  8  2  0
  8  9  1  0
  9 10  2  0
  2 11  1  0
 11 12  1  0
 12 13  2  0
 13 14  1  0
 14 15  2  0
 15 16  1  0
 16 17  2  0
 17 18  1  0
 18 19  2  0
 19 20  1  0
 20 21  1  0
 21 22  2  0
 22 23  1  0
 23 24  1  0
 24 25  2  0
 25 26  1  0
 26 27  2  0
 27 28  1  0
 28 29  2  0
 10  5  1  0
 20 11  1  0
 29 21  1  0
 19 14  1  0
 29 24  1  0
  4 30  1  0
  4 31  1  0
  6 32  1  0
  7 33  1  0
  8 34  1  0
  9 35  1  0
 10 36  1  0
 12 37  1  0
 13 38  1  0
 15 39  1  0
 16 40  1  0
 17 41  1  0
 18 42  1  0
 20 43  1  1
 22 44  1  0
 23 45  1  0
 25 46  1  0
 26 47  1  0
 27 48  1  0
 28 49  1  0
M  END
>  <smiles>  (4) 
O=S(=O)(Cc1ccccc1)N1C=Cc2ccccc2C1c1c[nH]c2ccccc12

>  <score_type>  (4) 
oracle

>  <origin>  (4) 
autodockgpu

>  <m_score__min__energy>  (4) 
-6.9400000000000004

>  <m_primary>  (4) 
energy

>  <rmsd>  (4) 
4.3485277637554995

>  <m_score__min__rmsd>  (4) 
4.3485277637554995

>  <meeko>  (4) 
{"free_energy": -6.86, "intermolecular_energy": -8.05, "internal_energy": -2.87, "cluster_size": 50, "cluster_id": 1, "rank_in_cluster": 44}

>  <energy>  (4) 
-6.91

>  <cluster_rmsd>  (4) 
0.06

>  <cluster>  (4) 
1

$$$$

     RDKit          3D

 49 53  0  0  1  0  0  0  0  0999 V2000
  140.0090   74.8720  222.1060 O   0  0  0  0  0  0  0  0  0  0  0  0
  139.0390   75.9790  221.8060 S   0  0  0  0  0  0  0  0  0  0  0  0
  137.7140   75.6700  222.4190 O   0  0  0  0  0  0  0  0  0  0  0  0
  138.7940   76.0320  220.0470 C   0  0  0  0  0  0  0  0  0  0  0  0
  138.2940   77.3580  219.6030 C   0  0  0  0  0  0  0  0  0  0  0  0
  137.1910   77.9650  220.1650 C   0  0  0  0  0  0  0  0  0  0  0  0
  136.7850   79.2040  219.6960 C   0  0  0  0  0  0  0  0  0  0  0  0
  137.4940   79.8170  218.6670 C   0  0  0  0  0  0  0  0  0  0  0  0
  138.5950   79.1980  218.1160 C   0  0  0  0  0  0  0  0  0  0  0  0
  139.0120   77.9660  218.5700 C   0  0  0  0  0  0  0  0  0  0  0  0
  139.6660   77.4870  222.3890 N   0  0  0  0  0  0  0  0  0  0  0  0
  138.7140   78.4590  222.7980 C   0  0  0  0  0  0  0  0  0  0  0  0
  139.1110   79.6350  223.2570 C   0  0  0  0  0  0  0  0  0  0  0  0
  140.5260   79.9400  223.3470 C   0  0  0  0  0  0  0  0  0  0  0  0
  140.9420   81.1690  223.8270 C   0  0  0  0  0  0  0  0  0  0  0  0
  142.3050   81.4610  223.9130 C   0  0  0  0  0  0  0  0  0  0  0  0
  143.2570   80.5170  223.5160 C   0  0  0  0  0  0  0  0  0  0  0  0
  142.8200   79.2910  223.0380 C   0  0  0  0  0  0  0  0  0  0  0  0
  141.4560   79.0000  222.9520 C   0  0  0  0  0  0  0  0  0  0  0  0
  141.0810   77.6610  222.4250 C   0  0  2  0  0  0  0  0  0  0  0  0
  141.6340   77.5620  221.0280 C   0  0  0  0  0  0  0  0  0  0  0  0
  142.1070   76.3980  220.4380 C   0  0  0  0  0  0  0  0  0  0  0  0
  142.5240   76.6720  219.1890 N   0  0  0  0  0  0  0  0  0  0  0  0
  142.3320   77.9820  218.9610 C   0  0  0  0  0  0  0  0  0  0  0  0
  142.5920   78.7540  217.8450 C   0  0  0  0  0  0  0  0  0  0  0  0
  142.2980   80.1020  217.8620 C   0  0  0  0  0  0  0  0  0  0  0  0
  141.7400   80.6830  219.0050 C   0  0  0  0  0  0  0  0  0  0  0  0
  141.4800   79.9060  220.1240 C   0  0  0  0  0  0  0  0  0  0  0  0
  141.7730   78.5720  220.0990 C   0  0  0  0  0  0  0  0  0  0  0  0
  139.7520   75.8263  219.5471 H   0  0  0  0  0  0  0  0  0  0  0  0
  138.0413   75.2748  219.7821 H   0  0  0  0  0  0  0  0  0  0  0  0
  136.6387   77.4705  220.9777 H   0  0  0  0  0  0  0  0  0  0  0  0
  135.9069   79.7006  220.1346 H   0  0  0  0  0  0  0  0  0  0  0  0
  137.1739   80.8003  218.2918 H   0  0  0  0  0  0  0  0  0  0  0  0
  139.1474   79.6935  217.3040 H   0  0  0  0  0  0  0  0  0  0  0  0
  139.8905   77.4720  218.1292 H   0  0  0  0  0  0  0  0  0  0  0  0
  137.6396   78.2325  222.7327 H   0  0  0  0  0  0  0  0  0  0  0  0
  138.3669   80.3820  223.5706 H   0  0  0  0  0  0  0  0  0  0  0  0
  140.1988   81.9166  224.1411 H   0  0  0  0  0  0  0  0  0  0  0  0
  142.6315   82.4394  224.2953 H   0  0  0  0  0  0  0  0  0  0  0  0
  144.3316   80.7426  223.5816 H   0  0  0  0  0  0  0  0  0  0  0  0
  143.5567   78.5376  222.7223 H   0  0  0  0  0  0  0  0  0  0  0  0
  141.4900   76.8791  223.0818 H   0  0  0  0  0  0  0  0  0  0  0  0
  142.1362   75.4079  220.9164 H   0  0  0  0  0  0  0  0  0  0  0  0
  142.9320   75.9650  218.5090 H   0  0  0  0  0  0  0  0  0  0  0  0
  143.0315   78.2959  216.9467 H   0  0  0  0  0  0  0  0  0  0  0  0
  142.5028   80.7202  216.9755 H   0  0  0  0  0  0  0  0  0  0  0  0
  141.5069   81.7580  219.0166 H   0  0  0  0  0  0  0  0  0  0  0  0
  141.0413   80.3604  221.0246 H   0  0  0  0  0  0  0  0  0  0  0  0
  1  2  2  0
  2  3  2  0
  2  4  1  0
  4  5  1  0
  5  6  2  0
  6  7  1  0
  7  8  2  0
  8  9  1  0
  9 10  2  0
  2 11  1  0
 11 12  1  0
 12 13  2  0
 13 14  1  0
 14 15  2  0
 15 16  1  0
 16 17  2  0
 17 18  1  0
 18 19  2  0
 19 20  1  0
 20 21  1  0
 21 22  2  0
 22 23  1  0
 23 24  1  0
 24 25  2  0
 25 26  1  0
 26 27  2  0
 27 28  1  0
 28 29  2  0
 10  5  1  0
 20 11  1  0
 29 21  1  0
 19 14  1  0
 29 24  1  0
  4 30  1  0
  4 31  1  0
  6 32  1  0
  7 33  1  0
  8 34  1  0
  9 35  1  0
 10 36  1  0
 12 37  1  0
 13 38  1  0
 15 39  1  0
 16 40  1  0
 17 41  1  0
 18 42  1  0
 20 43  1  1
 22 44  1  0
 23 45  1  0
 25 46  1  0
 26 47  1  0
 27 48  1  0
 28 49  1  0
M  END
>  <smiles>  (5) 
O=S(=O)(Cc1ccccc1)N1C=Cc2ccccc2C1c1c[nH]c2ccccc12

>  <score_type>  (5) 
oracle

>  <origin>  (5) 
autodockgpu

>  <m_score__min__energy>  (5) 
-6.9400000000000004

>  <m_primary>  (5) 
energy

>  <rmsd>  (5) 
4.345846549879287

>  <m_score__min__rmsd>  (5) 
4.345846549879287

>  <meeko>  (5) 
{"free_energy": -6.87, "intermolecular_energy": -8.07, "internal_energy": -2.86, "cluster_size": 50, "cluster_id": 1, "rank_in_cluster": 25}

>  <energy>  (5) 
-6.91

>  <cluster_rmsd>  (5) 
0.07

>  <cluster>  (5) 
1

$$$$

     RDKit          3D

 49 53  0  0  1  0  0  0  0  0999 V2000
  140.0400   74.8670  222.0180 O   0  0  0  0  0  0  0  0  0  0  0  0
  139.0420   75.9630  221.7680 S   0  0  0  0  0  0  0  0  0  0  0  0
  137.7400   75.6150  222.4090 O   0  0  0  0  0  0  0  0  0  0  0  0
  138.7500   76.0480  220.0180 C   0  0  0  0  0  0  0  0  0  0  0  0
  138.2480   77.3850  219.6110 C   0  0  0  0  0  0  0  0  0  0  0  0
  138.9140   78.1860  218.7070 C   0  0  0  0  0  0  0  0  0  0  0  0
  138.3820   79.4230  218.3750 C   0  0  0  0  0  0  0  0  0  0  0  0
  137.1880   79.8370  218.9580 C   0  0  0  0  0  0  0  0  0  0  0  0
  136.5350   79.0250  219.8600 C   0  0  0  0  0  0  0  0  0  0  0  0
  137.0500   77.7930  220.2000 C   0  0  0  0  0  0  0  0  0  0  0  0
  139.6570   77.4690  222.3670 N   0  0  0  0  0  0  0  0  0  0  0  0
  138.6970   78.4300  222.7840 C   0  0  0  0  0  0  0  0  0  0  0  0
  139.0850   79.6040  223.2550 C   0  0  0  0  0  0  0  0  0  0  0  0
  140.4970   79.9190  223.3500 C   0  0  0  0  0  0  0  0  0  0  0  0
  140.9030   81.1470  223.8430 C   0  0  0  0  0  0  0  0  0  0  0  0
  142.2630   81.4480  223.9340 C   0  0  0  0  0  0  0  0  0  0  0  0
  143.2230   80.5150  223.5290 C   0  0  0  0  0  0  0  0  0  0  0  0
  142.7960   79.2910  223.0380 C   0  0  0  0  0  0  0  0  0  0  0  0
  141.4340   78.9900  222.9470 C   0  0  0  0  0  0  0  0  0  0  0  0
  141.0710   77.6530  222.4070 C   0  0  2  0  0  0  0  0  0  0  0  0
  141.6270   77.5720  221.0090 C   0  0  0  0  0  0  0  0  0  0  0  0
  142.1080   76.4170  220.4090 C   0  0  0  0  0  0  0  0  0  0  0  0
  142.5250   76.7070  219.1630 N   0  0  0  0  0  0  0  0  0  0  0  0
  142.3240   78.0180  218.9480 C   0  0  0  0  0  0  0  0  0  0  0  0
  142.5800   78.8030  217.8400 C   0  0  0  0  0  0  0  0  0  0  0  0
  142.2780   80.1490  217.8700 C   0  0  0  0  0  0  0  0  0  0  0  0
  141.7130   80.7150  219.0180 C   0  0  0  0  0  0  0  0  0  0  0  0
  141.4570   79.9250  220.1290 C   0  0  0  0  0  0  0  0  0  0  0  0
  141.7600   78.5930  220.0910 C   0  0  0  0  0  0  0  0  0  0  0  0
  139.6925   75.8444  219.4887 H   0  0  0  0  0  0  0  0  0  0  0  0
  137.9850   75.3007  219.7605 H   0  0  0  0  0  0  0  0  0  0  0  0
  139.8574   77.8472  218.2540 H   0  0  0  0  0  0  0  0  0  0  0  0
  138.9007   80.0731  217.6551 H   0  0  0  0  0  0  0  0  0  0  0  0
  136.7632   80.8176  218.6974 H   0  0  0  0  0  0  0  0  0  0  0  0
  135.5921   79.3642  220.3136 H   0  0  0  0  0  0  0  0  0  0  0  0
  136.5285   77.1451  220.9199 H   0  0  0  0  0  0  0  0  0  0  0  0
  137.6243   78.1964  222.7148 H   0  0  0  0  0  0  0  0  0  0  0  0
  138.3350   80.3423  223.5751 H   0  0  0  0  0  0  0  0  0  0  0  0
  140.1537   81.8859  224.1632 H   0  0  0  0  0  0  0  0  0  0  0  0
  142.5816   82.4249  224.3266 H   0  0  0  0  0  0  0  0  0  0  0  0
  144.2958   80.7479  223.5987 H   0  0  0  0  0  0  0  0  0  0  0  0
  143.5389   78.5466  222.7156 H   0  0  0  0  0  0  0  0  0  0  0  0
  141.4853   76.8679  223.0566 H   0  0  0  0  0  0  0  0  0  0  0  0
  142.1429   75.4224  220.8775 H   0  0  0  0  0  0  0  0  0  0  0  0
  142.9390   76.0100  218.4770 H   0  0  0  0  0  0  0  0  0  0  0  0
  143.0229   78.3565  216.9375 H   0  0  0  0  0  0  0  0  0  0  0  0
  142.4816   80.7776  216.9906 H   0  0  0  0  0  0  0  0  0  0  0  0
  141.4715   81.7879  219.0395 H   0  0  0  0  0  0  0  0  0  0  0  0
  141.0136   80.3671  221.0334 H   0  0  0  0  0  0  0  0  0  0  0  0
  1  2  2  0
  2  3  2  0
  2  4  1  0
  4  5  1  0
  5  6  2  0
  6  7  1  0
  7  8  2  0
  8  9  1  0
  9 10  2  0
  2 11  1  0
 11 12  1  0
 12 13  2  0
 13 14  1  0
 14 15  2  0
 15 16  1  0
 16 17  2  0
 17 18  1  0
 18 19  2  0
 19 20  1  0
 20 21  1  0
 21 22  2  0
 22 23  1  0
 23 24  1  0
 24 25  2  0
 25 26  1  0
 26 27  2  0
 27 28  1  0
 28 29  2  0
 10  5  1  0
 20 11  1  0
 29 21  1  0
 19 14  1  0
 29 24  1  0
  4 30  1  0
  4 31  1  0
  6 32  1  0
  7 33  1  0
  8 34  1  0
  9 35  1  0
 10 36  1  0
 12 37  1  0
 13 38  1  0
 15 39  1  0
 16 40  1  0
 17 41  1  0
 18 42  1  0
 20 43  1  1
 22 44  1  0
 23 45  1  0
 25 46  1  0
 26 47  1  0
 27 48  1  0
 28 49  1  0
M  END
>  <smiles>  (6) 
O=S(=O)(Cc1ccccc1)N1C=Cc2ccccc2C1c1c[nH]c2ccccc12

>  <score_type>  (6) 
oracle

>  <origin>  (6) 
autodockgpu

>  <m_score__min__energy>  (6) 
-6.9400000000000004

>  <m_primary>  (6) 
energy

>  <rmsd>  (6) 
4.355777517262589

>  <m_score__min__rmsd>  (6) 
4.355777517262589

>  <meeko>  (6) 
{"free_energy": -6.88, "intermolecular_energy": -8.07, "internal_energy": -2.84, "cluster_size": 50, "cluster_id": 1, "rank_in_cluster": 22}

>  <energy>  (6) 
-6.91

>  <cluster_rmsd>  (6) 
0.06

>  <cluster>  (6) 
1

$$$$

     RDKit          3D

 49 53  0  0  1  0  0  0  0  0999 V2000
  140.0120   74.8720  222.0890 O   0  0  0  0  0  0  0  0  0  0  0  0
  139.0480   75.9790  221.7680 S   0  0  0  0  0  0  0  0  0  0  0  0
  137.7090   75.6670  222.3500 O   0  0  0  0  0  0  0  0  0  0  0  0
  138.8450   76.0330  220.0040 C   0  0  0  0  0  0  0  0  0  0  0  0
  138.3270   77.3500  219.5520 C   0  0  0  0  0  0  0  0  0  0  0  0
  137.2240   77.9510  220.1220 C   0  0  0  0  0  0  0  0  0  0  0  0
  136.8010   79.1820  219.6450 C   0  0  0  0  0  0  0  0  0  0  0  0
  137.4910   79.7910  218.6010 C   0  0  0  0  0  0  0  0  0  0  0  0
  138.5910   79.1770  218.0430 C   0  0  0  0  0  0  0  0  0  0  0  0
  139.0250   77.9540  218.5040 C   0  0  0  0  0  0  0  0  0  0  0  0
  139.6610   77.4860  222.3680 N   0  0  0  0  0  0  0  0  0  0  0  0
  138.6980   78.4470  222.7820 C   0  0  0  0  0  0  0  0  0  0  0  0
  139.0840   79.6210  223.2540 C   0  0  0  0  0  0  0  0  0  0  0  0
  140.4960   79.9380  223.3510 C   0  0  0  0  0  0  0  0  0  0  0  0
  140.8990   81.1660  223.8440 C   0  0  0  0  0  0  0  0  0  0  0  0
  142.2580   81.4690  223.9370 C   0  0  0  0  0  0  0  0  0  0  0  0
  143.2200   80.5370  223.5340 C   0  0  0  0  0  0  0  0  0  0  0  0
  142.7960   79.3130  223.0430 C   0  0  0  0  0  0  0  0  0  0  0  0
  141.4350   79.0100  222.9500 C   0  0  0  0  0  0  0  0  0  0  0  0
  141.0740   77.6720  222.4090 C   0  0  2  0  0  0  0  0  0  0  0  0
  141.6320   77.5920  221.0130 C   0  0  0  0  0  0  0  0  0  0  0  0
  142.1260   76.4400  220.4180 C   0  0  0  0  0  0  0  0  0  0  0  0
  142.5420   76.7290  219.1720 N   0  0  0  0  0  0  0  0  0  0  0  0
  142.3270   78.0370  218.9500 C   0  0  0  0  0  0  0  0  0  0  0  0
  142.5760   78.8190  217.8390 C   0  0  0  0  0  0  0  0  0  0  0  0
  142.2580   80.1620  217.8630 C   0  0  0  0  0  0  0  0  0  0  0  0
  141.6870   80.7270  219.0090 C   0  0  0  0  0  0  0  0  0  0  0  0
  141.4380   79.9390  220.1220 C   0  0  0  0  0  0  0  0  0  0  0  0
  141.7550   78.6100  220.0900 C   0  0  0  0  0  0  0  0  0  0  0  0
  139.8192   75.8500  219.5270 H   0  0  0  0  0  0  0  0  0  0  0  0
  138.1158   75.2606  219.7183 H   0  0  0  0  0  0  0  0  0  0  0  0
  136.6861   77.4590  220.9458 H   0  0  0  0  0  0  0  0  0  0  0  0
  135.9240   79.6752  220.0896 H   0  0  0  0  0  0  0  0  0  0  0  0
  137.1566   80.7671  218.2196 H   0  0  0  0  0  0  0  0  0  0  0  0
  139.1289   79.6695  217.2195 H   0  0  0  0  0  0  0  0  0  0  0  0
  139.9021   77.4637  218.0566 H   0  0  0  0  0  0  0  0  0  0  0  0
  137.6257   78.2128  222.7093 H   0  0  0  0  0  0  0  0  0  0  0  0
  138.3327   80.3582  223.5735 H   0  0  0  0  0  0  0  0  0  0  0  0
  140.1480   81.9039  224.1628 H   0  0  0  0  0  0  0  0  0  0  0  0
  142.5746   82.4466  224.3296 H   0  0  0  0  0  0  0  0  0  0  0  0
  144.2923   80.7714  223.6056 H   0  0  0  0  0  0  0  0  0  0  0  0
  143.5406   78.5697  222.7220 H   0  0  0  0  0  0  0  0  0  0  0  0
  141.4883   76.8870  223.0587 H   0  0  0  0  0  0  0  0  0  0  0  0
  142.1704   75.4476  220.8904 H   0  0  0  0  0  0  0  0  0  0  0  0
  142.9640   76.0330  218.4880 H   0  0  0  0  0  0  0  0  0  0  0  0
  143.0256   78.3736  216.9393 H   0  0  0  0  0  0  0  0  0  0  0  0
  142.4536   80.7888  216.9805 H   0  0  0  0  0  0  0  0  0  0  0  0
  141.4355   81.7977  219.0266 H   0  0  0  0  0  0  0  0  0  0  0  0
  140.9887   80.3800  221.0240 H   0  0  0  0  0  0  0  0  0  0  0  0
  1  2  2  0
  2  3  2  0
  2  4  1  0
  4  5  1  0
  5  6  2  0
  6  7  1  0
  7  8  2  0
  8  9  1  0
  9 10  2  0
  2 11  1  0
 11 12  1  0
 12 13  2  0
 13 14  1  0
 14 15  2  0
 15 16  1  0
 16 17  2  0
 17 18  1  0
 18 19  2  0
 19 20  1  0
 20 21  1  0
 21 22  2  0
 22 23  1  0
 23 24  1  0
 24 25  2  0
 25 26  1  0
 26 27  2  0
 27 28  1  0
 28 29  2  0
 10  5  1  0
 20 11  1  0
 29 21  1  0
 19 14  1  0
 29 24  1  0
  4 30  1  0
  4 31  1  0
  6 32  1  0
  7 33  1  0
  8 34  1  0
  9 35  1  0
 10 36  1  0
 12 37  1  0
 13 38  1  0
 15 39  1  0
 16 40  1  0
 17 41  1  0
 18 42  1  0
 20 43  1  1
 22 44  1  0
 23 45  1  0
 25 46  1  0
 26 47  1  0
 27 48  1  0
 28 49  1  0
M  END
>  <smiles>  (7) 
O=S(=O)(Cc1ccccc1)N1C=Cc2ccccc2C1c1c[nH]c2ccccc12

>  <score_type>  (7) 
oracle

>  <origin>  (7) 
autodockgpu

>  <m_score__min__energy>  (7) 
-6.9400000000000004

>  <m_primary>  (7) 
energy

>  <rmsd>  (7) 
4.349161042473056

>  <m_score__min__rmsd>  (7) 
4.349161042473056

>  <meeko>  (7) 
{"free_energy": -6.86, "intermolecular_energy": -8.05, "internal_energy": -2.87, "cluster_size": 50, "cluster_id": 1, "rank_in_cluster": 31}

>  <energy>  (7) 
-6.91

>  <cluster_rmsd>  (7) 
0.15

>  <cluster>  (7) 
1

$$$$

     RDKit          3D

 49 53  0  0  1  0  0  0  0  0999 V2000
  140.0390   74.8480  222.0600 O   0  0  0  0  0  0  0  0  0  0  0  0
  139.0640   75.9470  221.7460 S   0  0  0  0  0  0  0  0  0  0  0  0
  137.7300   75.6210  222.3310 O   0  0  0  0  0  0  0  0  0  0  0  0
  138.8550   76.0070  219.9830 C   0  0  0  0  0  0  0  0  0  0  0  0
  138.3260   77.3220  219.5380 C   0  0  0  0  0  0  0  0  0  0  0  0
  137.2230   77.9150  220.1140 C   0  0  0  0  0  0  0  0  0  0  0  0
  136.7900   79.1450  219.6440 C   0  0  0  0  0  0  0  0  0  0  0  0
  137.4730   79.7620  218.5990 C   0  0  0  0  0  0  0  0  0  0  0  0
  138.5730   79.1560  218.0340 C   0  0  0  0  0  0  0  0  0  0  0  0
  139.0170   77.9340  218.4890 C   0  0  0  0  0  0  0  0  0  0  0  0
  139.6640   77.4570  222.3500 N   0  0  0  0  0  0  0  0  0  0  0  0
  138.6940   78.4070  222.7720 C   0  0  0  0  0  0  0  0  0  0  0  0
  139.0700   79.5830  223.2470 C   0  0  0  0  0  0  0  0  0  0  0  0
  140.4800   79.9120  223.3420 C   0  0  0  0  0  0  0  0  0  0  0  0
  140.8730   81.1420  223.8380 C   0  0  0  0  0  0  0  0  0  0  0  0
  142.2300   81.4570  223.9290 C   0  0  0  0  0  0  0  0  0  0  0  0
  143.1990   80.5360  223.5200 C   0  0  0  0  0  0  0  0  0  0  0  0
  142.7850   79.3100  223.0240 C   0  0  0  0  0  0  0  0  0  0  0  0
  141.4260   78.9950  222.9340 C   0  0  0  0  0  0  0  0  0  0  0  0
  141.0760   77.6560  222.3890 C   0  0  2  0  0  0  0  0  0  0  0  0
  141.6300   77.5870  220.9900 C   0  0  0  0  0  0  0  0  0  0  0  0
  142.1350   76.4420  220.3900 C   0  0  0  0  0  0  0  0  0  0  0  0
  142.5440   76.7400  219.1430 N   0  0  0  0  0  0  0  0  0  0  0  0
  142.3140   78.0460  218.9270 C   0  0  0  0  0  0  0  0  0  0  0  0
  142.5520   78.8350  217.8190 C   0  0  0  0  0  0  0  0  0  0  0  0
  142.2200   80.1740  217.8490 C   0  0  0  0  0  0  0  0  0  0  0  0
  141.6460   80.7290  218.9980 C   0  0  0  0  0  0  0  0  0  0  0  0
  141.4090   79.9340  220.1090 C   0  0  0  0  0  0  0  0  0  0  0  0
  141.7400   78.6100  220.0710 C   0  0  0  0  0  0  0  0  0  0  0  0
  139.8290   75.8331  219.5022 H   0  0  0  0  0  0  0  0  0  0  0  0
  138.1304   75.2306  219.6965 H   0  0  0  0  0  0  0  0  0  0  0  0
  136.6917   77.4171  220.9385 H   0  0  0  0  0  0  0  0  0  0  0  0
  135.9117   79.6310  220.0940 H   0  0  0  0  0  0  0  0  0  0  0  0
  137.1323   80.7380  218.2231 H   0  0  0  0  0  0  0  0  0  0  0  0
  139.1037   79.6540  217.2091 H   0  0  0  0  0  0  0  0  0  0  0  0
  139.8957   77.4509  218.0368 H   0  0  0  0  0  0  0  0  0  0  0  0
  137.6237   78.1625  222.7031 H   0  0  0  0  0  0  0  0  0  0  0  0
  138.3128   80.3124  223.5704 H   0  0  0  0  0  0  0  0  0  0  0  0
  140.1162   81.8721  224.1608 H   0  0  0  0  0  0  0  0  0  0  0  0
  142.5387   82.4358  224.3249 H   0  0  0  0  0  0  0  0  0  0  0  0
  144.2693   80.7798  223.5905 H   0  0  0  0  0  0  0  0  0  0  0  0
  143.5354   78.5752  222.6969 H   0  0  0  0  0  0  0  0  0  0  0  0
  141.4996   76.8729  223.0350 H   0  0  0  0  0  0  0  0  0  0  0  0
  142.1919   75.4487  220.8592 H   0  0  0  0  0  0  0  0  0  0  0  0
  142.9710   76.0510  218.4560 H   0  0  0  0  0  0  0  0  0  0  0  0
  143.0042   78.3980  216.9165 H   0  0  0  0  0  0  0  0  0  0  0  0
  142.4069   80.8060  216.9683 H   0  0  0  0  0  0  0  0  0  0  0  0
  141.3826   81.7968  219.0199 H   0  0  0  0  0  0  0  0  0  0  0  0
  140.9577   80.3667  221.0141 H   0  0  0  0  0  0  0  0  0  0  0  0
  1  2  2  0
  2  3  2  0
  2  4  1  0
  4  5  1  0
  5  6  2  0
  6  7  1  0
  7  8  2  0
  8  9  1  0
  9 10  2  0
  2 11  1  0
 11 12  1  0
 12 13  2  0
 13 14  1  0
 14 15  2  0
 15 16  1  0
 16 17  2  0
 17 18  1  0
 18 19  2  0
 19 20  1  0
 20 21  1  0
 21 22  2  0
 22 23  1  0
 23 24  1  0
 24 25  2  0
 25 26  1  0
 26 27  2  0
 27 28  1  0
 28 29  2  0
 10  5  1  0
 20 11  1  0
 29 21  1  0
 19 14  1  0
 29 24  1  0
  4 30  1  0
  4 31  1  0
  6 32  1  0
  7 33  1  0
  8 34  1  0
  9 35  1  0
 10 36  1  0
 12 37  1  0
 13 38  1  0
 15 39  1  0
 16 40  1  0
 17 41  1  0
 18 42  1  0
 20 43  1  1
 22 44  1  0
 23 45  1  0
 25 46  1  0
 26 47  1  0
 27 48  1  0
 28 49  1  0
M  END
>  <smiles>  (8) 
O=S(=O)(Cc1ccccc1)N1C=Cc2ccccc2C1c1c[nH]c2ccccc12

>  <score_type>  (8) 
oracle

>  <origin>  (8) 
autodockgpu

>  <m_score__min__energy>  (8) 
-6.9400000000000004

>  <m_primary>  (8) 
energy

>  <rmsd>  (8) 
4.350852274823696

>  <m_score__min__rmsd>  (8) 
4.350852274823696

>  <meeko>  (8) 
{"free_energy": -6.86, "intermolecular_energy": -8.05, "internal_energy": -2.88, "cluster_size": 50, "cluster_id": 1, "rank_in_cluster": 41}

>  <energy>  (8) 
-6.91

>  <cluster_rmsd>  (8) 
0.07

>  <cluster>  (8) 
1

$$$$

     RDKit          3D

 49 53  0  0  1  0  0  0  0  0999 V2000
  140.0040   74.9060  222.1060 O   0  0  0  0  0  0  0  0  0  0  0  0
  139.0210   76.0130  221.8460 S   0  0  0  0  0  0  0  0  0  0  0  0
  137.7170   75.6940  222.4990 O   0  0  0  0  0  0  0  0  0  0  0  0
  138.7210   76.0790  220.0970 C   0  0  0  0  0  0  0  0  0  0  0  0
  138.2270   77.4160  219.6750 C   0  0  0  0  0  0  0  0  0  0  0  0
  137.1170   78.0100  220.2370 C   0  0  0  0  0  0  0  0  0  0  0  0
  136.7180   79.2600  219.7910 C   0  0  0  0  0  0  0  0  0  0  0  0
  137.4410   79.8960  218.7850 C   0  0  0  0  0  0  0  0  0  0  0  0
  138.5480   79.2880  218.2350 C   0  0  0  0  0  0  0  0  0  0  0  0
  138.9580   78.0460  218.6660 C   0  0  0  0  0  0  0  0  0  0  0  0
  139.6630   77.5170  222.4220 N   0  0  0  0  0  0  0  0  0  0  0  0
  138.7200   78.4950  222.8400 C   0  0  0  0  0  0  0  0  0  0  0  0
  139.1280   79.6690  223.2940 C   0  0  0  0  0  0  0  0  0  0  0  0
  140.5460   79.9660  223.3690 C   0  0  0  0  0  0  0  0  0  0  0  0
  140.9720   81.1940  223.8440 C   0  0  0  0  0  0  0  0  0  0  0  0
  142.3370   81.4780  223.9150 C   0  0  0  0  0  0  0  0  0  0  0  0
  143.2810   80.5290  223.5090 C   0  0  0  0  0  0  0  0  0  0  0  0
  142.8320   79.3060  223.0360 C   0  0  0  0  0  0  0  0  0  0  0  0
  141.4660   79.0210  222.9650 C   0  0  0  0  0  0  0  0  0  0  0  0
  141.0790   77.6840  222.4430 C   0  0  2  0  0  0  0  0  0  0  0  0
  141.6170   77.5810  221.0400 C   0  0  0  0  0  0  0  0  0  0  0  0
  142.0580   76.4110  220.4390 C   0  0  0  0  0  0  0  0  0  0  0  0
  142.4700   76.6830  219.1880 N   0  0  0  0  0  0  0  0  0  0  0  0
  142.3040   77.9980  218.9690 C   0  0  0  0  0  0  0  0  0  0  0  0
  142.5700   78.7710  217.8550 C   0  0  0  0  0  0  0  0  0  0  0  0
  142.3060   80.1250  217.8820 C   0  0  0  0  0  0  0  0  0  0  0  0
  141.7710   80.7120  219.0340 C   0  0  0  0  0  0  0  0  0  0  0  0
  141.5050   79.9340  220.1500 C   0  0  0  0  0  0  0  0  0  0  0  0
  141.7690   78.5940  220.1150 C   0  0  0  0  0  0  0  0  0  0  0  0
  139.6593   75.8614  219.5657 H   0  0  0  0  0  0  0  0  0  0  0  0
  137.9486   75.3348  219.8528 H   0  0  0  0  0  0  0  0  0  0  0  0
  136.5541   77.4973  221.0309 H   0  0  0  0  0  0  0  0  0  0  0  0
  135.8347   79.7473  220.2294 H   0  0  0  0  0  0  0  0  0  0  0  0
  137.1268   80.8879  218.4281 H   0  0  0  0  0  0  0  0  0  0  0  0
  139.1115   79.8010  217.4417 H   0  0  0  0  0  0  0  0  0  0  0  0
  139.8415   77.5612  218.2252 H   0  0  0  0  0  0  0  0  0  0  0  0
  137.6437   78.2744  222.7857 H   0  0  0  0  0  0  0  0  0  0  0  0
  138.3914   80.4203  223.6148 H   0  0  0  0  0  0  0  0  0  0  0  0
  140.2358   81.9456  224.1653 H   0  0  0  0  0  0  0  0  0  0  0  0
  142.6726   82.4550  224.2929 H   0  0  0  0  0  0  0  0  0  0  0  0
  144.3574   80.7488  223.5640 H   0  0  0  0  0  0  0  0  0  0  0  0
  143.5614   78.5491  222.7119 H   0  0  0  0  0  0  0  0  0  0  0  0
  141.4910   76.9006  223.0960 H   0  0  0  0  0  0  0  0  0  0  0  0
  142.0690   75.4176  220.9112 H   0  0  0  0  0  0  0  0  0  0  0  0
  142.8560   75.9720  218.5000 H   0  0  0  0  0  0  0  0  0  0  0  0
  142.9907   78.3086  216.9499 H   0  0  0  0  0  0  0  0  0  0  0  0
  142.5163   80.7436  216.9971 H   0  0  0  0  0  0  0  0  0  0  0  0
  141.5613   81.7916  219.0540 H   0  0  0  0  0  0  0  0  0  0  0  0
  141.0844   80.3922  221.0572 H   0  0  0  0  0  0  0  0  0  0  0  0
  1  2  2  0
  2  3  2  0
  2  4  1  0
  4  5  1  0
  5  6  2  0
  6  7  1  0
  7  8  2  0
  8  9  1  0
  9 10  2  0
  2 11  1  0
 11 12  1  0
 12 13  2  0
 13 14  1  0
 14 15  2  0
 15 16  1  0
 16 17  2  0
 17 18  1  0
 18 19  2  0
 19 20  1  0
 20 21  1  0
 21 22  2  0
 22 23  1  0
 23 24  1  0
 24 25  2  0
 25 26  1  0
 26 27  2  0
 27 28  1  0
 28 29  2  0
 10  5  1  0
 20 11  1  0
 29 21  1  0
 19 14  1  0
 29 24  1  0
  4 30  1  0
  4 31  1  0
  6 32  1  0
  7 33  1  0
  8 34  1  0
  9 35  1  0
 10 36  1  0
 12 37  1  0
 13 38  1  0
 15 39  1  0
 16 40  1  0
 17 41  1  0
 18 42  1  0
 20 43  1  1
 22 44  1  0
 23 45  1  0
 25 46  1  0
 26 47  1  0
 27 48  1  0
 28 49  1  0
M  END
>  <smiles>  (9) 
O=S(=O)(Cc1ccccc1)N1C=Cc2ccccc2C1c1c[nH]c2ccccc12

>  <score_type>  (9) 
oracle

>  <origin>  (9) 
autodockgpu

>  <m_score__min__energy>  (9) 
-6.9400000000000004

>  <m_primary>  (9) 
energy

>  <rmsd>  (9) 
4.352337544702948

>  <m_score__min__rmsd>  (9) 
4.352337544702948

>  <meeko>  (9) 
{"free_energy": -6.9, "intermolecular_energy": -8.09, "internal_energy": -2.84, "cluster_size": 50, "cluster_id": 1, "rank_in_cluster": 13}

>  <energy>  (9) 
-6.9

>  <cluster_rmsd>  (9) 
0.17

>  <cluster>  (9) 
1

$$$$

     RDKit          3D

 49 53  0  0  1  0  0  0  0  0999 V2000
  140.0050   74.9170  222.0750 O   0  0  0  0  0  0  0  0  0  0  0  0
  139.0110   76.0220  221.8500 S   0  0  0  0  0  0  0  0  0  0  0  0
  137.7250   75.6900  222.5310 O   0  0  0  0  0  0  0  0  0  0  0  0
  138.6680   76.1030  220.1090 C   0  0  0  0  0  0  0  0  0  0  0  0
  138.1930   77.4510  219.7060 C   0  0  0  0  0  0  0  0  0  0  0  0
  138.8770   78.2440  218.8100 C   0  0  0  0  0  0  0  0  0  0  0  0
  138.3690   79.4920  218.4820 C   0  0  0  0  0  0  0  0  0  0  0  0
  137.1800   79.9260  219.0620 C   0  0  0  0  0  0  0  0  0  0  0  0
  136.5090   79.1210  219.9560 C   0  0  0  0  0  0  0  0  0  0  0  0
  136.9990   77.8780  220.2930 C   0  0  0  0  0  0  0  0  0  0  0  0
  139.6590   77.5240  222.4250 N   0  0  0  0  0  0  0  0  0  0  0  0
  138.7190   78.5060  222.8410 C   0  0  0  0  0  0  0  0  0  0  0  0
  139.1320   79.6790  223.2940 C   0  0  0  0  0  0  0  0  0  0  0  0
  140.5510   79.9710  223.3690 C   0  0  0  0  0  0  0  0  0  0  0  0
  140.9830   81.1970  223.8420 C   0  0  0  0  0  0  0  0  0  0  0  0
  142.3490   81.4760  223.9140 C   0  0  0  0  0  0  0  0  0  0  0  0
  143.2890   80.5220  223.5100 C   0  0  0  0  0  0  0  0  0  0  0  0
  142.8350   79.3000  223.0380 C   0  0  0  0  0  0  0  0  0  0  0  0
  141.4680   79.0210  222.9660 C   0  0  0  0  0  0  0  0  0  0  0  0
  141.0750   77.6850  222.4460 C   0  0  2  0  0  0  0  0  0  0  0  0
  141.6140   77.5780  221.0430 C   0  0  0  0  0  0  0  0  0  0  0  0
  142.0470   76.4040  220.4430 C   0  0  0  0  0  0  0  0  0  0  0  0
  142.4610   76.6740  219.1920 N   0  0  0  0  0  0  0  0  0  0  0  0
  142.3050   77.9900  218.9720 C   0  0  0  0  0  0  0  0  0  0  0  0
  142.5780   78.7600  217.8590 C   0  0  0  0  0  0  0  0  0  0  0  0
  142.3230   80.1160  217.8860 C   0  0  0  0  0  0  0  0  0  0  0  0
  141.7920   80.7070  219.0370 C   0  0  0  0  0  0  0  0  0  0  0  0
  141.5190   79.9310  220.1530 C   0  0  0  0  0  0  0  0  0  0  0  0
  141.7740   78.5900  220.1190 C   0  0  0  0  0  0  0  0  0  0  0  0
  139.5875   75.8679  219.5530 H   0  0  0  0  0  0  0  0  0  0  0  0
  137.8738   75.3768  219.8813 H   0  0  0  0  0  0  0  0  0  0  0  0
  139.8163   77.8906  218.3596 H   0  0  0  0  0  0  0  0  0  0  0  0
  138.9027   80.1357  217.7673 H   0  0  0  0  0  0  0  0  0  0  0  0
  136.7747   80.9159  218.8053 H   0  0  0  0  0  0  0  0  0  0  0  0
  135.5700   79.4750  220.4066 H   0  0  0  0  0  0  0  0  0  0  0  0
  136.4625   77.2366  221.0077 H   0  0  0  0  0  0  0  0  0  0  0  0
  137.6419   78.2896  222.7861 H   0  0  0  0  0  0  0  0  0  0  0  0
  138.3983   80.4335  223.6141 H   0  0  0  0  0  0  0  0  0  0  0  0
  140.2500   81.9524  224.1615 H   0  0  0  0  0  0  0  0  0  0  0  0
  142.6883   82.4522  224.2908 H   0  0  0  0  0  0  0  0  0  0  0  0
  144.3663   80.7370  223.5657 H   0  0  0  0  0  0  0  0  0  0  0  0
  143.5614   78.5394  222.7157 H   0  0  0  0  0  0  0  0  0  0  0  0
  141.4827   76.9004  223.1003 H   0  0  0  0  0  0  0  0  0  0  0  0
  142.0510   75.4106  220.9153 H   0  0  0  0  0  0  0  0  0  0  0  0
  142.8430   75.9590  218.5050 H   0  0  0  0  0  0  0  0  0  0  0  0
  142.9970   78.2946  216.9546 H   0  0  0  0  0  0  0  0  0  0  0  0
  142.5377   80.7329  217.0010 H   0  0  0  0  0  0  0  0  0  0  0  0
  141.5908   81.7883  219.0568 H   0  0  0  0  0  0  0  0  0  0  0  0
  141.0999   80.3923  221.0594 H   0  0  0  0  0  0  0  0  0  0  0  0
  1  2  2  0
  2  3  2  0
  2  4  1  0
  4  5  1  0
  5  6  2  0
  6  7  1  0
  7  8  2  0
  8  9  1  0
  9 10  2  0
  2 11  1  0
 11 12  1  0
 12 13  2  0
 13 14  1  0
 14 15  2  0
 15 16  1  0
 16 17  2  0
 17 18  1  0
 18 19  2  0
 19 20  1  0
 20 21  1  0
 21 22  2  0
 22 23  1  0
 23 24  1  0
 24 25  2  0
 25 26  1  0
 26 27  2  0
 27 28  1  0
 28 29  2  0
 10  5  1  0
 20 11  1  0
 29 21  1  0
 19 14  1  0
 29 24  1  0
  4 30  1  0
  4 31  1  0
  6 32  1  0
  7 33  1  0
  8 34  1  0
  9 35  1  0
 10 36  1  0
 12 37  1  0
 13 38  1  0
 15 39  1  0
 16 40  1  0
 17 41  1  0
 18 42  1  0
 20 43  1  1
 22 44  1  0
 23 45  1  0
 25 46  1  0
 26 47  1  0
 27 48  1  0
 28 49  1  0
M  END
>  <smiles>  (10) 
O=S(=O)(Cc1ccccc1)N1C=Cc2ccccc2C1c1c[nH]c2ccccc12

>  <score_type>  (10) 
oracle

>  <origin>  (10) 
autodockgpu

>  <m_score__min__energy>  (10) 
-6.9400000000000004

>  <m_primary>  (10) 
energy

>  <rmsd>  (10) 
4.352770226460222

>  <m_score__min__rmsd>  (10) 
4.352770226460222

>  <meeko>  (10) 
{"free_energy": -6.91, "intermolecular_energy": -8.11, "internal_energy": -2.82, "cluster_size": 50, "cluster_id": 1, "rank_in_cluster": 3}

>  <energy>  (10) 
-6.9

>  <cluster_rmsd>  (10) 
0.16

>  <cluster>  (10) 
1

$$$$

     RDKit          3D

 49 53  0  0  1  0  0  0  0  0999 V2000
  139.9820   74.8790  222.1380 O   0  0  0  0  0  0  0  0  0  0  0  0
  139.0310   75.9940  221.8040 S   0  0  0  0  0  0  0  0  0  0  0  0
  137.6870   75.7010  222.3840 O   0  0  0  0  0  0  0  0  0  0  0  0
  138.8350   76.0350  220.0390 C   0  0  0  0  0  0  0  0  0  0  0  0
  138.3320   77.3530  219.5740 C   0  0  0  0  0  0  0  0  0  0  0  0
  137.2410   77.9770  220.1430 C   0  0  0  0  0  0  0  0  0  0  0  0
  136.8320   79.2080  219.6540 C   0  0  0  0  0  0  0  0  0  0  0  0
  137.5250   79.7950  218.5990 C   0  0  0  0  0  0  0  0  0  0  0  0
  138.6120   79.1580  218.0420 C   0  0  0  0  0  0  0  0  0  0  0  0
  139.0330   77.9350  218.5150 C   0  0  0  0  0  0  0  0  0  0  0  0
  139.6580   77.4990  222.3930 N   0  0  0  0  0  0  0  0  0  0  0  0
  138.7040   78.4690  222.8060 C   0  0  0  0  0  0  0  0  0  0  0  0
  139.1000   79.6440  223.2700 C   0  0  0  0  0  0  0  0  0  0  0  0
  140.5150   79.9500  223.3600 C   0  0  0  0  0  0  0  0  0  0  0  0
  140.9300   81.1780  223.8450 C   0  0  0  0  0  0  0  0  0  0  0  0
  142.2920   81.4710  223.9310 C   0  0  0  0  0  0  0  0  0  0  0  0
  143.2450   80.5290  223.5290 C   0  0  0  0  0  0  0  0  0  0  0  0
  142.8090   79.3050  223.0460 C   0  0  0  0  0  0  0  0  0  0  0  0
  141.4450   79.0120  222.9600 C   0  0  0  0  0  0  0  0  0  0  0  0
  141.0720   77.6750  222.4280 C   0  0  2  0  0  0  0  0  0  0  0  0
  141.6240   77.5830  221.0300 C   0  0  0  0  0  0  0  0  0  0  0  0
  142.1140   76.4250  220.4420 C   0  0  0  0  0  0  0  0  0  0  0  0
  142.5240   76.7030  219.1920 N   0  0  0  0  0  0  0  0  0  0  0  0
  142.3120   78.0100  218.9610 C   0  0  0  0  0  0  0  0  0  0  0  0
  142.5580   78.7840  217.8440 C   0  0  0  0  0  0  0  0  0  0  0  0
  142.2430   80.1270  217.8590 C   0  0  0  0  0  0  0  0  0  0  0  0
  141.6780   80.7020  219.0020 C   0  0  0  0  0  0  0  0  0  0  0  0
  141.4320   79.9230  220.1230 C   0  0  0  0  0  0  0  0  0  0  0  0
  141.7460   78.5940  220.0990 C   0  0  0  0  0  0  0  0  0  0  0  0
  139.8090   75.8382  219.5672 H   0  0  0  0  0  0  0  0  0  0  0  0
  138.0991   75.2675  219.7572 H   0  0  0  0  0  0  0  0  0  0  0  0
  136.7013   77.5027  220.9760 H   0  0  0  0  0  0  0  0  0  0  0  0
  135.9643   79.7184  220.0974 H   0  0  0  0  0  0  0  0  0  0  0  0
  137.2032   80.7717  218.2084 H   0  0  0  0  0  0  0  0  0  0  0  0
  139.1508   79.6324  217.2085 H   0  0  0  0  0  0  0  0  0  0  0  0
  139.9014   77.4280  218.0691 H   0  0  0  0  0  0  0  0  0  0  0  0
  137.6298   78.2417  222.7395 H   0  0  0  0  0  0  0  0  0  0  0  0
  138.3554   80.3888  223.5875 H   0  0  0  0  0  0  0  0  0  0  0  0
  140.1862   81.9234  224.1628 H   0  0  0  0  0  0  0  0  0  0  0  0
  142.6179   82.4481  224.3170 H   0  0  0  0  0  0  0  0  0  0  0  0
  144.3195   80.7552  223.5949 H   0  0  0  0  0  0  0  0  0  0  0  0
  143.5465   78.5541  222.7261 H   0  0  0  0  0  0  0  0  0  0  0  0
  141.4829   76.8908  223.0808 H   0  0  0  0  0  0  0  0  0  0  0  0
  142.1596   75.4366  220.9225 H   0  0  0  0  0  0  0  0  0  0  0  0
  142.9420   76.0020  218.5120 H   0  0  0  0  0  0  0  0  0  0  0  0
  143.0034   78.3314  216.9458 H   0  0  0  0  0  0  0  0  0  0  0  0
  142.4364   80.7465  216.9708 H   0  0  0  0  0  0  0  0  0  0  0  0
  141.4284   81.7733  219.0119 H   0  0  0  0  0  0  0  0  0  0  0  0
  140.9878   80.3718  221.0237 H   0  0  0  0  0  0  0  0  0  0  0  0
  1  2  2  0
  2  3  2  0
  2  4  1  0
  4  5  1  0
  5  6  2  0
  6  7  1  0
  7  8  2  0
  8  9  1  0
  9 10  2  0
  2 11  1  0
 11 12  1  0
 12 13  2  0
 13 14  1  0
 14 15  2  0
 15 16  1  0
 16 17  2  0
 17 18  1  0
 18 19  2  0
 19 20  1  0
 20 21  1  0
 21 22  2  0
 22 23  1  0
 23 24  1  0
 24 25  2  0
 25 26  1  0
 26 27  2  0
 27 28  1  0
 28 29  2  0
 10  5  1  0
 20 11  1  0
 29 21  1  0
 19 14  1  0
 29 24  1  0
  4 30  1  0
  4 31  1  0
  6 32  1  0
  7 33  1  0
  8 34  1  0
  9 35  1  0
 10 36  1  0
 12 37  1  0
 13 38  1  0
 15 39  1  0
 16 40  1  0
 17 41  1  0
 18 42  1  0
 20 43  1  1
 22 44  1  0
 23 45  1  0
 25 46  1  0
 26 47  1  0
 27 48  1  0
 28 49  1  0
M  END
>  <smiles>  (11) 
O=S(=O)(Cc1ccccc1)N1C=Cc2ccccc2C1c1c[nH]c2ccccc12

>  <score_type>  (11) 
oracle

>  <origin>  (11) 
autodockgpu

>  <m_score__min__energy>  (11) 
-6.9400000000000004

>  <m_primary>  (11) 
energy

>  <rmsd>  (11) 
4.337152784769982

>  <m_score__min__rmsd>  (11) 
4.337152784769982

>  <meeko>  (11) 
{"free_energy": -6.86, "intermolecular_energy": -8.05, "internal_energy": -2.88, "cluster_size": 50, "cluster_id": 1, "rank_in_cluster": 43}

>  <energy>  (11) 
-6.9

>  <cluster_rmsd>  (11) 
0.06

>  <cluster>  (11) 
1

$$$$

     RDKit          3D

 49 53  0  0  1  0  0  0  0  0999 V2000
  140.0120   74.8660  222.1030 O   0  0  0  0  0  0  0  0  0  0  0  0
  139.0540   75.9740  221.7690 S   0  0  0  0  0  0  0  0  0  0  0  0
  137.7090   75.6680  222.3390 O   0  0  0  0  0  0  0  0  0  0  0  0
  138.8680   76.0230  220.0030 C   0  0  0  0  0  0  0  0  0  0  0  0
  138.3490   77.3370  219.5420 C   0  0  0  0  0  0  0  0  0  0  0  0
  137.2520   77.9460  220.1130 C   0  0  0  0  0  0  0  0  0  0  0  0
  136.8280   79.1730  219.6280 C   0  0  0  0  0  0  0  0  0  0  0  0
  137.5130   79.7710  218.5750 C   0  0  0  0  0  0  0  0  0  0  0  0
  138.6080   79.1490  218.0150 C   0  0  0  0  0  0  0  0  0  0  0  0
  139.0430   77.9290  218.4850 C   0  0  0  0  0  0  0  0  0  0  0  0
  139.6640   77.4820  222.3690 N   0  0  0  0  0  0  0  0  0  0  0  0
  138.7010   78.4410  222.7850 C   0  0  0  0  0  0  0  0  0  0  0  0
  139.0850   79.6160  223.2570 C   0  0  0  0  0  0  0  0  0  0  0  0
  140.4970   79.9340  223.3540 C   0  0  0  0  0  0  0  0  0  0  0  0
  140.8980   81.1630  223.8470 C   0  0  0  0  0  0  0  0  0  0  0  0
  142.2580   81.4680  223.9400 C   0  0  0  0  0  0  0  0  0  0  0  0
  143.2210   80.5370  223.5370 C   0  0  0  0  0  0  0  0  0  0  0  0
  142.7970   79.3120  223.0450 C   0  0  0  0  0  0  0  0  0  0  0  0
  141.4370   79.0080  222.9520 C   0  0  0  0  0  0  0  0  0  0  0  0
  141.0770   77.6700  222.4110 C   0  0  2  0  0  0  0  0  0  0  0  0
  141.6350   77.5910  221.0140 C   0  0  0  0  0  0  0  0  0  0  0  0
  142.1380   76.4410  220.4210 C   0  0  0  0  0  0  0  0  0  0  0  0
  142.5500   76.7310  219.1740 N   0  0  0  0  0  0  0  0  0  0  0  0
  142.3260   78.0370  218.9500 C   0  0  0  0  0  0  0  0  0  0  0  0
  142.5690   78.8190  217.8380 C   0  0  0  0  0  0  0  0  0  0  0  0
  142.2410   80.1590  217.8590 C   0  0  0  0  0  0  0  0  0  0  0  0
  141.6660   80.7220  219.0040 C   0  0  0  0  0  0  0  0  0  0  0  0
  141.4240   79.9340  220.1190 C   0  0  0  0  0  0  0  0  0  0  0  0
  141.7510   78.6080  220.0890 C   0  0  0  0  0  0  0  0  0  0  0  0
  139.8475   75.8428  219.5361 H   0  0  0  0  0  0  0  0  0  0  0  0
  138.1445   75.2471  219.7124 H   0  0  0  0  0  0  0  0  0  0  0  0
  136.7187   77.4630  220.9450 H   0  0  0  0  0  0  0  0  0  0  0  0
  135.9544   79.6715  220.0733 H   0  0  0  0  0  0  0  0  0  0  0  0
  137.1791   80.7449  218.1876 H   0  0  0  0  0  0  0  0  0  0  0  0
  139.1410   79.6323  217.1829 H   0  0  0  0  0  0  0  0  0  0  0  0
  139.9169   77.4329  218.0377 H   0  0  0  0  0  0  0  0  0  0  0  0
  137.6290   78.2048  222.7141 H   0  0  0  0  0  0  0  0  0  0  0  0
  138.3328   80.3524  223.5762 H   0  0  0  0  0  0  0  0  0  0  0  0
  140.1460   81.8998  224.1657 H   0  0  0  0  0  0  0  0  0  0  0  0
  142.5735   82.4460  224.3324 H   0  0  0  0  0  0  0  0  0  0  0  0
  144.2932   80.7720  223.6090 H   0  0  0  0  0  0  0  0  0  0  0  0
  143.5420   78.5693  222.7235 H   0  0  0  0  0  0  0  0  0  0  0  0
  141.4919   76.8858  223.0613 H   0  0  0  0  0  0  0  0  0  0  0  0
  142.1912   75.4501  220.8956 H   0  0  0  0  0  0  0  0  0  0  0  0
  142.9770   76.0370  218.4920 H   0  0  0  0  0  0  0  0  0  0  0  0
  143.0222   78.3754  216.9392 H   0  0  0  0  0  0  0  0  0  0  0  0
  142.4316   80.7853  216.9750 H   0  0  0  0  0  0  0  0  0  0  0  0
  141.4058   81.7907  219.0195 H   0  0  0  0  0  0  0  0  0  0  0  0
  140.9722   80.3732  221.0207 H   0  0  0  0  0  0  0  0  0  0  0  0
  1  2  2  0
  2  3  2  0
  2  4  1  0
  4  5  1  0
  5  6  2  0
  6  7  1  0
  7  8  2  0
  8  9  1  0
  9 10  2  0
  2 11  1  0
 11 12  1  0
 12 13  2  0
 13 14  1  0
 14 15  2  0
 15 16  1  0
 16 17  2  0
 17 18  1  0
 18 19  2  0
 19 20  1  0
 20 21  1  0
 21 22  2  0
 22 23  1  0
 23 24  1  0
 24 25  2  0
 25 26  1  0
 26 27  2  0
 27 28  1  0
 28 29  2  0
 10  5  1  0
 20 11  1  0
 29 21  1  0
 19 14  1  0
 29 24  1  0
  4 30  1  0
  4 31  1  0
  6 32  1  0
  7 33  1  0
  8 34  1  0
  9 35  1  0
 10 36  1  0
 12 37  1  0
 13 38  1  0
 15 39  1  0
 16 40  1  0
 17 41  1  0
 18 42  1  0
 20 43  1  1
 22 44  1  0
 23 45  1  0
 25 46  1  0
 26 47  1  0
 27 48  1  0
 28 49  1  0
M  END
>  <smiles>  (12) 
O=S(=O)(Cc1ccccc1)N1C=Cc2ccccc2C1c1c[nH]c2ccccc12

>  <score_type>  (12) 
oracle

>  <origin>  (12) 
autodockgpu

>  <m_score__min__energy>  (12) 
-6.9400000000000004

>  <m_primary>  (12) 
energy

>  <rmsd>  (12) 
4.345899075200311

>  <m_score__min__rmsd>  (12) 
4.345899075200311

>  <meeko>  (12) 
{"free_energy": -6.85, "intermolecular_energy": -8.04, "internal_energy": -2.88, "cluster_size": 50, "cluster_id": 1, "rank_in_cluster": 50}

>  <energy>  (12) 
-6.9

>  <cluster_rmsd>  (12) 
0.07

>  <cluster>  (12) 
1

$$$$

     RDKit          3D

 49 53  0  0  1  0  0  0  0  0999 V2000
  139.9790   74.9020  222.1830 O   0  0  0  0  0  0  0  0  0  0  0  0
  139.0040   76.0130  221.9140 S   0  0  0  0  0  0  0  0  0  0  0  0
  137.7040   75.7160  222.5840 O   0  0  0  0  0  0  0  0  0  0  0  0
  138.6880   76.0520  220.1660 C   0  0  0  0  0  0  0  0  0  0  0  0
  138.2270   77.3930  219.7230 C   0  0  0  0  0  0  0  0  0  0  0  0
  137.1360   78.0270  220.2780 C   0  0  0  0  0  0  0  0  0  0  0  0
  136.7680   79.2790  219.8100 C   0  0  0  0  0  0  0  0  0  0  0  0
  137.5020   79.8760  218.7900 C   0  0  0  0  0  0  0  0  0  0  0  0
  138.5900   79.2300  218.2460 C   0  0  0  0  0  0  0  0  0  0  0  0
  138.9700   77.9850  218.6980 C   0  0  0  0  0  0  0  0  0  0  0  0
  139.6640   77.5210  222.4580 N   0  0  0  0  0  0  0  0  0  0  0  0
  138.7330   78.5140  222.8680 C   0  0  0  0  0  0  0  0  0  0  0  0
  139.1560   79.6920  223.2990 C   0  0  0  0  0  0  0  0  0  0  0  0
  140.5770   79.9780  223.3550 C   0  0  0  0  0  0  0  0  0  0  0  0
  141.0190   81.2090  223.8050 C   0  0  0  0  0  0  0  0  0  0  0  0
  142.3870   81.4830  223.8590 C   0  0  0  0  0  0  0  0  0  0  0  0
  143.3180   80.5190  223.4600 C   0  0  0  0  0  0  0  0  0  0  0  0
  142.8540   79.2920  223.0120 C   0  0  0  0  0  0  0  0  0  0  0  0
  141.4850   79.0180  222.9580 C   0  0  0  0  0  0  0  0  0  0  0  0
  141.0820   77.6750  222.4630 C   0  0  2  0  0  0  0  0  0  0  0  0
  141.6050   77.5450  221.0570 C   0  0  0  0  0  0  0  0  0  0  0  0
  142.0090   76.3560  220.4650 C   0  0  0  0  0  0  0  0  0  0  0  0
  142.4180   76.6050  219.2080 N   0  0  0  0  0  0  0  0  0  0  0  0
  142.2880   77.9220  218.9770 C   0  0  0  0  0  0  0  0  0  0  0  0
  142.5670   78.6760  217.8530 C   0  0  0  0  0  0  0  0  0  0  0  0
  142.3410   80.0370  217.8690 C   0  0  0  0  0  0  0  0  0  0  0  0
  141.8310   80.6500  219.0190 C   0  0  0  0  0  0  0  0  0  0  0  0
  141.5520   79.8910  220.1450 C   0  0  0  0  0  0  0  0  0  0  0  0
  141.7790   78.5440  220.1210 C   0  0  0  0  0  0  0  0  0  0  0  0
  139.6144   75.7981  219.6301 H   0  0  0  0  0  0  0  0  0  0  0  0
  137.8934   75.3245  219.9439 H   0  0  0  0  0  0  0  0  0  0  0  0
  136.5634   77.5445  221.0838 H   0  0  0  0  0  0  0  0  0  0  0  0
  135.9000   79.7978  220.2430 H   0  0  0  0  0  0  0  0  0  0  0  0
  137.2119   80.8690  218.4161 H   0  0  0  0  0  0  0  0  0  0  0  0
  139.1625   79.7138  217.4409 H   0  0  0  0  0  0  0  0  0  0  0  0
  139.8382   77.4690  218.2621 H   0  0  0  0  0  0  0  0  0  0  0  0
  137.6544   78.3022  222.8269 H   0  0  0  0  0  0  0  0  0  0  0  0
  138.4292   80.4548  223.6150 H   0  0  0  0  0  0  0  0  0  0  0  0
  140.2925   81.9723  224.1204 H   0  0  0  0  0  0  0  0  0  0  0  0
  142.7345   82.4631  224.2176 H   0  0  0  0  0  0  0  0  0  0  0  0
  144.3968   80.7301  223.5008 H   0  0  0  0  0  0  0  0  0  0  0  0
  143.5738   78.5232  222.6945 H   0  0  0  0  0  0  0  0  0  0  0  0
  141.4935   76.8987  223.1248 H   0  0  0  0  0  0  0  0  0  0  0  0
  141.9966   75.3674  220.9472 H   0  0  0  0  0  0  0  0  0  0  0  0
  142.7790   75.8760  218.5240 H   0  0  0  0  0  0  0  0  0  0  0  0
  142.9675   78.1932  216.9494 H   0  0  0  0  0  0  0  0  0  0  0  0
  142.5620   80.6410  216.9766 H   0  0  0  0  0  0  0  0  0  0  0  0
  141.6513   81.7352  219.0295 H   0  0  0  0  0  0  0  0  0  0  0  0
  141.1510   80.3695  221.0507 H   0  0  0  0  0  0  0  0  0  0  0  0
  1  2  2  0
  2  3  2  0
  2  4  1  0
  4  5  1  0
  5  6  2  0
  6  7  1  0
  7  8  2  0
  8  9  1  0
  9 10  2  0
  2 11  1  0
 11 12  1  0
 12 13  2  0
 13 14  1  0
 14 15  2  0
 15 16  1  0
 16 17  2  0
 17 18  1  0
 18 19  2  0
 19 20  1  0
 20 21  1  0
 21 22  2  0
 22 23  1  0
 23 24  1  0
 24 25  2  0
 25 26  1  0
 26 27  2  0
 27 28  1  0
 28 29  2  0
 10  5  1  0
 20 11  1  0
 29 21  1  0
 19 14  1  0
 29 24  1  0
  4 30  1  0
  4 31  1  0
  6 32  1  0
  7 33  1  0
  8 34  1  0
  9 35  1  0
 10 36  1  0
 12 37  1  0
 13 38  1  0
 15 39  1  0
 16 40  1  0
 17 41  1  0
 18 42  1  0
 20 43  1  1
 22 44  1  0
 23 45  1  0
 25 46  1  0
 26 47  1  0
 27 48  1  0
 28 49  1  0
M  END
>  <smiles>  (13) 
O=S(=O)(Cc1ccccc1)N1C=Cc2ccccc2C1c1c[nH]c2ccccc12

>  <score_type>  (13) 
oracle

>  <origin>  (13) 
autodockgpu

>  <m_score__min__energy>  (13) 
-6.9400000000000004

>  <m_primary>  (13) 
energy

>  <rmsd>  (13) 
4.341403299237199

>  <m_score__min__rmsd>  (13) 
4.341403299237199

>  <meeko>  (13) 
{"free_energy": -6.93, "intermolecular_energy": -8.12, "internal_energy": -2.81, "cluster_size": 50, "cluster_id": 1, "rank_in_cluster": 2}

>  <energy>  (13) 
-6.9

>  <cluster_rmsd>  (13) 
0.16

>  <cluster>  (13) 
1

$$$$

     RDKit          3D

 49 53  0  0  1  0  0  0  0  0999 V2000
  140.0050   74.9100  222.1030 O   0  0  0  0  0  0  0  0  0  0  0  0
  139.0170   76.0140  221.8530 S   0  0  0  0  0  0  0  0  0  0  0  0
  137.7190   75.6910  222.5160 O   0  0  0  0  0  0  0  0  0  0  0  0
  138.7020   76.0820  220.1060 C   0  0  0  0  0  0  0  0  0  0  0  0
  138.2110   77.4210  219.6890 C   0  0  0  0  0  0  0  0  0  0  0  0
  137.0910   78.0070  220.2390 C   0  0  0  0  0  0  0  0  0  0  0  0
  136.6950   79.2610  219.7980 C   0  0  0  0  0  0  0  0  0  0  0  0
  137.4310   79.9060  218.8090 C   0  0  0  0  0  0  0  0  0  0  0  0
  138.5470   79.3060  218.2690 C   0  0  0  0  0  0  0  0  0  0  0  0
  138.9550   78.0610  218.6960 C   0  0  0  0  0  0  0  0  0  0  0  0
  139.6590   77.5200  222.4260 N   0  0  0  0  0  0  0  0  0  0  0  0
  138.7160   78.4990  222.8420 C   0  0  0  0  0  0  0  0  0  0  0  0
  139.1250   79.6730  223.2940 C   0  0  0  0  0  0  0  0  0  0  0  0
  140.5430   79.9710  223.3680 C   0  0  0  0  0  0  0  0  0  0  0  0
  140.9700   81.1990  223.8400 C   0  0  0  0  0  0  0  0  0  0  0  0
  142.3350   81.4830  223.9100 C   0  0  0  0  0  0  0  0  0  0  0  0
  143.2780   80.5330  223.5050 C   0  0  0  0  0  0  0  0  0  0  0  0
  142.8290   79.3090  223.0350 C   0  0  0  0  0  0  0  0  0  0  0  0
  141.4630   79.0250  222.9650 C   0  0  0  0  0  0  0  0  0  0  0  0
  141.0750   77.6860  222.4450 C   0  0  2  0  0  0  0  0  0  0  0  0
  141.6130   77.5810  221.0420 C   0  0  0  0  0  0  0  0  0  0  0  0
  142.0470   76.4080  220.4420 C   0  0  0  0  0  0  0  0  0  0  0  0
  142.4600   76.6780  219.1910 N   0  0  0  0  0  0  0  0  0  0  0  0
  142.3020   77.9940  218.9710 C   0  0  0  0  0  0  0  0  0  0  0  0
  142.5720   78.7650  217.8580 C   0  0  0  0  0  0  0  0  0  0  0  0
  142.3160   80.1200  217.8850 C   0  0  0  0  0  0  0  0  0  0  0  0
  141.7840   80.7100  219.0370 C   0  0  0  0  0  0  0  0  0  0  0  0
  141.5130   79.9340  220.1530 C   0  0  0  0  0  0  0  0  0  0  0  0
  141.7700   78.5930  220.1180 C   0  0  0  0  0  0  0  0  0  0  0  0
  139.6346   75.8601  219.5665 H   0  0  0  0  0  0  0  0  0  0  0  0
  137.9240   75.3416  219.8682 H   0  0  0  0  0  0  0  0  0  0  0  0
  136.5174   77.4856  221.0194 H   0  0  0  0  0  0  0  0  0  0  0  0
  135.8043   79.7427  220.2276 H   0  0  0  0  0  0  0  0  0  0  0  0
  137.1199   80.9005  218.4565 H   0  0  0  0  0  0  0  0  0  0  0  0
  139.1195   79.8270  217.4874 H   0  0  0  0  0  0  0  0  0  0  0  0
  139.8464   77.5824  218.2644 H   0  0  0  0  0  0  0  0  0  0  0  0
  137.6396   78.2790  222.7877 H   0  0  0  0  0  0  0  0  0  0  0  0
  138.3886   80.4247  223.6144 H   0  0  0  0  0  0  0  0  0  0  0  0
  140.2343   81.9515  224.1601 H   0  0  0  0  0  0  0  0  0  0  0  0
  142.6711   82.4605  224.2862 H   0  0  0  0  0  0  0  0  0  0  0  0
  144.3545   80.7528  223.5584 H   0  0  0  0  0  0  0  0  0  0  0  0
  143.5580   78.5509  222.7128 H   0  0  0  0  0  0  0  0  0  0  0  0
  141.4867   76.9026  223.0983 H   0  0  0  0  0  0  0  0  0  0  0  0
  142.0524   75.4147  220.9145 H   0  0  0  0  0  0  0  0  0  0  0  0
  142.8430   75.9640  218.5030 H   0  0  0  0  0  0  0  0  0  0  0  0
  142.9899   78.3002  216.9528 H   0  0  0  0  0  0  0  0  0  0  0  0
  142.5302   80.7374  217.0002 H   0  0  0  0  0  0  0  0  0  0  0  0
  141.5807   81.7909  219.0569 H   0  0  0  0  0  0  0  0  0  0  0  0
  141.0942   80.3946  221.0599 H   0  0  0  0  0  0  0  0  0  0  0  0
  1  2  2  0
  2  3  2  0
  2  4  1  0
  4  5  1  0
  5  6  2  0
  6  7  1  0
  7  8  2  0
  8  9  1  0
  9 10  2  0
  2 11  1  0
 11 12  1  0
 12 13  2  0
 13 14  1  0
 14 15  2  0
 15 16  1  0
 16 17  2  0
 17 18  1  0
 18 19  2  0
 19 20  1  0
 20 21  1  0
 21 22  2  0
 22 23  1  0
 23 24  1  0
 24 25  2  0
 25 26  1  0
 26 27  2  0
 27 28  1  0
 28 29  2  0
 10  5  1  0
 20 11  1  0
 29 21  1  0
 19 14  1  0
 29 24  1  0
  4 30  1  0
  4 31  1  0
  6 32  1  0
  7 33  1  0
  8 34  1  0
  9 35  1  0
 10 36  1  0
 12 37  1  0
 13 38  1  0
 15 39  1  0
 16 40  1  0
 17 41  1  0
 18 42  1  0
 20 43  1  1
 22 44  1  0
 23 45  1  0
 25 46  1  0
 26 47  1  0
 27 48  1  0
 28 49  1  0
M  END
>  <smiles>  (14) 
O=S(=O)(Cc1ccccc1)N1C=Cc2ccccc2C1c1c[nH]c2ccccc12

>  <score_type>  (14) 
oracle

>  <origin>  (14) 
autodockgpu

>  <m_score__min__energy>  (14) 
-6.9400000000000004

>  <m_primary>  (14) 
energy

>  <rmsd>  (14) 
4.351910609816226

>  <m_score__min__rmsd>  (14) 
4.351910609816226

>  <meeko>  (14) 
{"free_energy": -6.91, "intermolecular_energy": -8.1, "internal_energy": -2.83, "cluster_size": 50, "cluster_id": 1, "rank_in_cluster": 7}

>  <energy>  (14) 
-6.9

>  <cluster_rmsd>  (14) 
0.14

>  <cluster>  (14) 
1

$$$$

     RDKit          3D

 49 53  0  0  1  0  0  0  0  0999 V2000
  140.0220   74.8930  222.0960 O   0  0  0  0  0  0  0  0  0  0  0  0
  139.0250   75.9920  221.8610 S   0  0  0  0  0  0  0  0  0  0  0  0
  137.7360   75.6580  222.5360 O   0  0  0  0  0  0  0  0  0  0  0  0
  138.6910   76.0650  220.1180 C   0  0  0  0  0  0  0  0  0  0  0  0
  138.2030   77.4070  219.7080 C   0  0  0  0  0  0  0  0  0  0  0  0
  138.8750   78.1990  218.8010 C   0  0  0  0  0  0  0  0  0  0  0  0
  138.3560   79.4400  218.4680 C   0  0  0  0  0  0  0  0  0  0  0  0
  137.1680   79.8690  219.0540 C   0  0  0  0  0  0  0  0  0  0  0  0
  136.5090   79.0660  219.9590 C   0  0  0  0  0  0  0  0  0  0  0  0
  137.0110   77.8300  220.3010 C   0  0  0  0  0  0  0  0  0  0  0  0
  139.6630   77.5000  222.4330 N   0  0  0  0  0  0  0  0  0  0  0  0
  138.7170   78.4780  222.8440 C   0  0  0  0  0  0  0  0  0  0  0  0
  139.1230   79.6540  223.2950 C   0  0  0  0  0  0  0  0  0  0  0  0
  140.5400   79.9540  223.3730 C   0  0  0  0  0  0  0  0  0  0  0  0
  140.9640   81.1830  223.8440 C   0  0  0  0  0  0  0  0  0  0  0  0
  142.3290   81.4690  223.9190 C   0  0  0  0  0  0  0  0  0  0  0  0
  143.2740   80.5190  223.5200 C   0  0  0  0  0  0  0  0  0  0  0  0
  142.8290   79.2940  223.0500 C   0  0  0  0  0  0  0  0  0  0  0  0
  141.4630   79.0080  222.9750 C   0  0  0  0  0  0  0  0  0  0  0  0
  141.0790   77.6680  222.4570 C   0  0  2  0  0  0  0  0  0  0  0  0
  141.6210   77.5600  221.0560 C   0  0  0  0  0  0  0  0  0  0  0  0
  142.0670   76.3880  220.4630 C   0  0  0  0  0  0  0  0  0  0  0  0
  142.4820   76.6550  219.2110 N   0  0  0  0  0  0  0  0  0  0  0  0
  142.3140   77.9690  218.9860 C   0  0  0  0  0  0  0  0  0  0  0  0
  142.5820   78.7380  217.8690 C   0  0  0  0  0  0  0  0  0  0  0  0
  142.3150   80.0910  217.8900 C   0  0  0  0  0  0  0  0  0  0  0  0
  141.7750   80.6820  219.0370 C   0  0  0  0  0  0  0  0  0  0  0  0
  141.5070   79.9090  220.1560 C   0  0  0  0  0  0  0  0  0  0  0  0
  141.7740   78.5690  220.1280 C   0  0  0  0  0  0  0  0  0  0  0  0
  139.6163   75.8387  219.5679 H   0  0  0  0  0  0  0  0  0  0  0  0
  137.9060   75.3296  219.8881 H   0  0  0  0  0  0  0  0  0  0  0  0
  139.8136   77.8492  218.3464 H   0  0  0  0  0  0  0  0  0  0  0  0
  138.8796   80.0826  217.7448 H   0  0  0  0  0  0  0  0  0  0  0  0
  136.7536   80.8540  218.7931 H   0  0  0  0  0  0  0  0  0  0  0  0
  135.5707   79.4163  220.4138 H   0  0  0  0  0  0  0  0  0  0  0  0
  136.4851   77.1902  221.0249 H   0  0  0  0  0  0  0  0  0  0  0  0
  137.6411   78.2560  222.7868 H   0  0  0  0  0  0  0  0  0  0  0  0
  138.3845   80.4054  223.6113 H   0  0  0  0  0  0  0  0  0  0  0  0
  140.2262   81.9354  224.1596 H   0  0  0  0  0  0  0  0  0  0  0  0
  142.6626   82.4477  224.2943 H   0  0  0  0  0  0  0  0  0  0  0  0
  144.3500   80.7399  223.5781 H   0  0  0  0  0  0  0  0  0  0  0  0
  143.5604   78.5366  222.7317 H   0  0  0  0  0  0  0  0  0  0  0  0
  141.4902   76.8873  223.1139 H   0  0  0  0  0  0  0  0  0  0  0  0
  142.0795   75.3972  220.9406 H   0  0  0  0  0  0  0  0  0  0  0  0
  142.8720   75.9420  218.5280 H   0  0  0  0  0  0  0  0  0  0  0  0
  143.0065   78.2728  216.9671 H   0  0  0  0  0  0  0  0  0  0  0  0
  142.5271   80.7063  217.0032 H   0  0  0  0  0  0  0  0  0  0  0  0
  141.5628   81.7612  219.0511 H   0  0  0  0  0  0  0  0  0  0  0  0
  141.0826   80.3707  221.0597 H   0  0  0  0  0  0  0  0  0  0  0  0
  1  2  2  0
  2  3  2  0
  2  4  1  0
  4  5  1  0
  5  6  2  0
  6  7  1  0
  7  8  2  0
  8  9  1  0
  9 10  2  0
  2 11  1  0
 11 12  1  0
 12 13  2  0
 13 14  1  0
 14 15  2  0
 15 16  1  0
 16 17  2  0
 17 18  1  0
 18 19  2  0
 19 20  1  0
 20 21  1  0
 21 22  2  0
 22 23  1  0
 23 24  1  0
 24 25  2  0
 25 26  1  0
 26 27  2  0
 27 28  1  0
 28 29  2  0
 10  5  1  0
 20 11  1  0
 29 21  1  0
 19 14  1  0
 29 24  1  0
  4 30  1  0
  4 31  1  0
  6 32  1  0
  7 33  1  0
  8 34  1  0
  9 35  1  0
 10 36  1  0
 12 37  1  0
 13 38  1  0
 15 39  1  0
 16 40  1  0
 17 41  1  0
 18 42  1  0
 20 43  1  1
 22 44  1  0
 23 45  1  0
 25 46  1  0
 26 47  1  0
 27 48  1  0
 28 49  1  0
M  END
>  <smiles>  (15) 
O=S(=O)(Cc1ccccc1)N1C=Cc2ccccc2C1c1c[nH]c2ccccc12

>  <score_type>  (15) 
oracle

>  <origin>  (15) 
autodockgpu

>  <m_score__min__energy>  (15) 
-6.9400000000000004

>  <m_primary>  (15) 
energy

>  <rmsd>  (15) 
4.347683871214168

>  <m_score__min__rmsd>  (15) 
4.347683871214168

>  <meeko>  (15) 
{"free_energy": -6.9, "intermolecular_energy": -8.1, "internal_energy": -2.82, "cluster_size": 50, "cluster_id": 1, "rank_in_cluster": 11}

>  <energy>  (15) 
-6.89

>  <cluster_rmsd>  (15) 
0.09

>  <cluster>  (15) 
1

$$$$

     RDKit          3D

 49 53  0  0  1  0  0  0  0  0999 V2000
  140.0250   74.9130  222.0840 O   0  0  0  0  0  0  0  0  0  0  0  0
  139.0270   76.0130  221.8570 S   0  0  0  0  0  0  0  0  0  0  0  0
  137.7420   75.6770  222.5390 O   0  0  0  0  0  0  0  0  0  0  0  0
  138.6830   76.0890  220.1160 C   0  0  0  0  0  0  0  0  0  0  0  0
  138.2040   77.4360  219.7100 C   0  0  0  0  0  0  0  0  0  0  0  0
  138.8900   78.2320  218.8180 C   0  0  0  0  0  0  0  0  0  0  0  0
  138.3780   79.4780  218.4880 C   0  0  0  0  0  0  0  0  0  0  0  0
  137.1840   79.9050  219.0600 C   0  0  0  0  0  0  0  0  0  0  0  0
  136.5110   79.0970  219.9500 C   0  0  0  0  0  0  0  0  0  0  0  0
  137.0050   77.8570  220.2890 C   0  0  0  0  0  0  0  0  0  0  0  0
  139.6690   77.5190  222.4280 N   0  0  0  0  0  0  0  0  0  0  0  0
  138.7260   78.4970  222.8440 C   0  0  0  0  0  0  0  0  0  0  0  0
  139.1350   79.6730  223.2950 C   0  0  0  0  0  0  0  0  0  0  0  0
  140.5520   79.9700  223.3680 C   0  0  0  0  0  0  0  0  0  0  0  0
  140.9790   81.1990  223.8390 C   0  0  0  0  0  0  0  0  0  0  0  0
  142.3450   81.4840  223.9080 C   0  0  0  0  0  0  0  0  0  0  0  0
  143.2870   80.5340  223.5040 C   0  0  0  0  0  0  0  0  0  0  0  0
  142.8390   79.3090  223.0340 C   0  0  0  0  0  0  0  0  0  0  0  0
  141.4720   79.0240  222.9650 C   0  0  0  0  0  0  0  0  0  0  0  0
  141.0850   77.6850  222.4470 C   0  0  2  0  0  0  0  0  0  0  0  0
  141.6220   77.5800  221.0440 C   0  0  0  0  0  0  0  0  0  0  0  0
  142.0600   76.4070  220.4450 C   0  0  0  0  0  0  0  0  0  0  0  0
  142.4710   76.6760  219.1930 N   0  0  0  0  0  0  0  0  0  0  0  0
  142.3080   77.9910  218.9710 C   0  0  0  0  0  0  0  0  0  0  0  0
  142.5750   78.7610  217.8560 C   0  0  0  0  0  0  0  0  0  0  0  0
  142.3130   80.1160  217.8810 C   0  0  0  0  0  0  0  0  0  0  0  0
  141.7800   80.7060  219.0320 C   0  0  0  0  0  0  0  0  0  0  0  0
  141.5130   79.9310  220.1500 C   0  0  0  0  0  0  0  0  0  0  0  0
  141.7750   78.5900  220.1170 C   0  0  0  0  0  0  0  0  0  0  0  0
  139.6029   75.8550  219.5601 H   0  0  0  0  0  0  0  0  0  0  0  0
  137.8906   75.3602  219.8903 H   0  0  0  0  0  0  0  0  0  0  0  0
  139.8333   77.8828  218.3727 H   0  0  0  0  0  0  0  0  0  0  0  0
  138.9133   80.1252  217.7777 H   0  0  0  0  0  0  0  0  0  0  0  0
  136.7752   80.8927  218.8004 H   0  0  0  0  0  0  0  0  0  0  0  0
  135.5678   79.4465  220.3952 H   0  0  0  0  0  0  0  0  0  0  0  0
  136.4672   77.2126  221.0000 H   0  0  0  0  0  0  0  0  0  0  0  0
  137.6497   78.2760  222.7911 H   0  0  0  0  0  0  0  0  0  0  0  0
  138.3988   80.4252  223.6146 H   0  0  0  0  0  0  0  0  0  0  0  0
  140.2432   81.9514  224.1590 H   0  0  0  0  0  0  0  0  0  0  0  0
  142.6811   82.4621  224.2826 H   0  0  0  0  0  0  0  0  0  0  0  0
  144.3634   80.7540  223.5579 H   0  0  0  0  0  0  0  0  0  0  0  0
  143.5685   78.5516  222.7112 H   0  0  0  0  0  0  0  0  0  0  0  0
  141.4973   76.9023  223.1007 H   0  0  0  0  0  0  0  0  0  0  0  0
  142.0695   75.4145  220.9192 H   0  0  0  0  0  0  0  0  0  0  0  0
  142.8550   75.9630  218.5060 H   0  0  0  0  0  0  0  0  0  0  0  0
  142.9948   78.2963  216.9516 H   0  0  0  0  0  0  0  0  0  0  0  0
  142.5236   80.7326  216.9948 H   0  0  0  0  0  0  0  0  0  0  0  0
  141.5725   81.7861  219.0500 H   0  0  0  0  0  0  0  0  0  0  0  0
  141.0936   80.3917  221.0565 H   0  0  0  0  0  0  0  0  0  0  0  0
  1  2  2  0
  2  3  2  0
  2  4  1  0
  4  5  1  0
  5  6  2  0
  6  7  1  0
  7  8  2  0
  8  9  1  0
  9 10  2  0
  2 11  1  0
 11 12  1  0
 12 13  2  0
 13 14  1  0
 14 15  2  0
 15 16  1  0
 16 17  2  0
 17 18  1  0
 18 19  2  0
 19 20  1  0
 20 21  1  0
 21 22  2  0
 22 23  1  0
 23 24  1  0
 24 25  2  0
 25 26  1  0
 26 27  2  0
 27 28  1  0
 28 29  2  0
 10  5  1  0
 20 11  1  0
 29 21  1  0
 19 14  1  0
 29 24  1  0
  4 30  1  0
  4 31  1  0
  6 32  1  0
  7 33  1  0
  8 34  1  0
  9 35  1  0
 10 36  1  0
 12 37  1  0
 13 38  1  0
 15 39  1  0
 16 40  1  0
 17 41  1  0
 18 42  1  0
 20 43  1  1
 22 44  1  0
 23 45  1  0
 25 46  1  0
 26 47  1  0
 27 48  1  0
 28 49  1  0
M  END
>  <smiles>  (16) 
O=S(=O)(Cc1ccccc1)N1C=Cc2ccccc2C1c1c[nH]c2ccccc12

>  <score_type>  (16) 
oracle

>  <origin>  (16) 
autodockgpu

>  <m_score__min__energy>  (16) 
-6.9400000000000004

>  <m_primary>  (16) 
energy

>  <rmsd>  (16) 
4.351551287931222

>  <m_score__min__rmsd>  (16) 
4.351551287931222

>  <meeko>  (16) 
{"free_energy": -6.91, "intermolecular_energy": -8.1, "internal_energy": -2.82, "cluster_size": 50, "cluster_id": 1, "rank_in_cluster": 8}

>  <energy>  (16) 
-6.89

>  <cluster_rmsd>  (16) 
0.21

>  <cluster>  (16) 
1

$$$$

     RDKit          3D

 49 53  0  0  1  0  0  0  0  0999 V2000
  140.0210   74.8620  222.1010 O   0  0  0  0  0  0  0  0  0  0  0  0
  139.0440   75.9660  221.8090 S   0  0  0  0  0  0  0  0  0  0  0  0
  137.7230   75.6480  222.4250 O   0  0  0  0  0  0  0  0  0  0  0  0
  138.7930   76.0240  220.0510 C   0  0  0  0  0  0  0  0  0  0  0  0
  138.2860   77.3500  219.6130 C   0  0  0  0  0  0  0  0  0  0  0  0
  137.1800   77.9480  220.1780 C   0  0  0  0  0  0  0  0  0  0  0  0
  136.7670   79.1880  219.7160 C   0  0  0  0  0  0  0  0  0  0  0  0
  137.4720   79.8090  218.6890 C   0  0  0  0  0  0  0  0  0  0  0  0
  138.5760   79.1980  218.1340 C   0  0  0  0  0  0  0  0  0  0  0  0
  138.9990   77.9660  218.5820 C   0  0  0  0  0  0  0  0  0  0  0  0
  139.6670   77.4740  222.3950 N   0  0  0  0  0  0  0  0  0  0  0  0
  138.7110   78.4420  222.8080 C   0  0  0  0  0  0  0  0  0  0  0  0
  139.1050   79.6180  223.2700 C   0  0  0  0  0  0  0  0  0  0  0  0
  140.5190   79.9280  223.3580 C   0  0  0  0  0  0  0  0  0  0  0  0
  140.9300   81.1580  223.8400 C   0  0  0  0  0  0  0  0  0  0  0  0
  142.2920   81.4550  223.9240 C   0  0  0  0  0  0  0  0  0  0  0  0
  143.2480   80.5160  223.5230 C   0  0  0  0  0  0  0  0  0  0  0  0
  142.8150   79.2900  223.0420 C   0  0  0  0  0  0  0  0  0  0  0  0
  141.4510   78.9930  222.9580 C   0  0  0  0  0  0  0  0  0  0  0  0
  141.0810   77.6540  222.4280 C   0  0  2  0  0  0  0  0  0  0  0  0
  141.6320   77.5620  221.0290 C   0  0  0  0  0  0  0  0  0  0  0  0
  142.1030   76.4000  220.4340 C   0  0  0  0  0  0  0  0  0  0  0  0
  142.5180   76.6800  219.1850 N   0  0  0  0  0  0  0  0  0  0  0  0
  142.3250   77.9910  218.9630 C   0  0  0  0  0  0  0  0  0  0  0  0
  142.5830   78.7680  217.8500 C   0  0  0  0  0  0  0  0  0  0  0  0
  142.2890   80.1150  217.8730 C   0  0  0  0  0  0  0  0  0  0  0  0
  141.7330   80.6920  219.0200 C   0  0  0  0  0  0  0  0  0  0  0  0
  141.4750   79.9100  220.1360 C   0  0  0  0  0  0  0  0  0  0  0  0
  141.7690   78.5760  220.1040 C   0  0  0  0  0  0  0  0  0  0  0  0
  139.7502   75.8239  219.5472 H   0  0  0  0  0  0  0  0  0  0  0  0
  138.0425   75.2647  219.7860 H   0  0  0  0  0  0  0  0  0  0  0  0
  136.6303   77.4460  220.9878 H   0  0  0  0  0  0  0  0  0  0  0  0
  135.8873   79.6783  220.1584 H   0  0  0  0  0  0  0  0  0  0  0  0
  137.1465   80.7922  218.3184 H   0  0  0  0  0  0  0  0  0  0  0  0
  139.1255   79.7000  217.3241 H   0  0  0  0  0  0  0  0  0  0  0  0
  139.8790   77.4780  218.1375 H   0  0  0  0  0  0  0  0  0  0  0  0
  137.6373   78.2121  222.7431 H   0  0  0  0  0  0  0  0  0  0  0  0
  138.3589   80.3613  223.5877 H   0  0  0  0  0  0  0  0  0  0  0  0
  140.1842   81.9018  224.1570 H   0  0  0  0  0  0  0  0  0  0  0  0
  142.6151   82.4338  224.3080 H   0  0  0  0  0  0  0  0  0  0  0  0
  144.3218   80.7457  223.5880 H   0  0  0  0  0  0  0  0  0  0  0  0
  143.5542   78.5408  222.7222 H   0  0  0  0  0  0  0  0  0  0  0  0
  141.4947   76.8715  223.0812 H   0  0  0  0  0  0  0  0  0  0  0  0
  142.1324   75.4078  220.9081 H   0  0  0  0  0  0  0  0  0  0  0  0
  142.9260   75.9760  218.5020 H   0  0  0  0  0  0  0  0  0  0  0  0
  143.0212   78.3138  216.9491 H   0  0  0  0  0  0  0  0  0  0  0  0
  142.4918   80.7367  216.9885 H   0  0  0  0  0  0  0  0  0  0  0  0
  141.5003   81.7670  219.0366 H   0  0  0  0  0  0  0  0  0  0  0  0
  141.0374   80.3599  221.0393 H   0  0  0  0  0  0  0  0  0  0  0  0
  1  2  2  0
  2  3  2  0
  2  4  1  0
  4  5  1  0
  5  6  2  0
  6  7  1  0
  7  8  2  0
  8  9  1  0
  9 10  2  0
  2 11  1  0
 11 12  1  0
 12 13  2  0
 13 14  1  0
 14 15  2  0
 15 16  1  0
 16 17  2  0
 17 18  1  0
 18 19  2  0
 19 20  1  0
 20 21  1  0
 21 22  2  0
 22 23  1  0
 23 24  1  0
 24 25  2  0
 25 26  1  0
 26 27  2  0
 27 28  1  0
 28 29  2  0
 10  5  1  0
 20 11  1  0
 29 21  1  0
 19 14  1  0
 29 24  1  0
  4 30  1  0
  4 31  1  0
  6 32  1  0
  7 33  1  0
  8 34  1  0
  9 35  1  0
 10 36  1  0
 12 37  1  0
 13 38  1  0
 15 39  1  0
 16 40  1  0
 17 41  1  0
 18 42  1  0
 20 43  1  1
 22 44  1  0
 23 45  1  0
 25 46  1  0
 26 47  1  0
 27 48  1  0
 28 49  1  0
M  END
>  <smiles>  (17) 
O=S(=O)(Cc1ccccc1)N1C=Cc2ccccc2C1c1c[nH]c2ccccc12

>  <score_type>  (17) 
oracle

>  <origin>  (17) 
autodockgpu

>  <m_score__min__energy>  (17) 
-6.9400000000000004

>  <m_primary>  (17) 
energy

>  <rmsd>  (17) 
4.350878012855284

>  <m_score__min__rmsd>  (17) 
4.350878012855284

>  <meeko>  (17) 
{"free_energy": -6.88, "intermolecular_energy": -8.07, "internal_energy": -2.85, "cluster_size": 50, "cluster_id": 1, "rank_in_cluster": 21}

>  <energy>  (17) 
-6.89

>  <cluster_rmsd>  (17) 
0.18

>  <cluster>  (17) 
1

$$$$

     RDKit          3D

 49 53  0  0  1  0  0  0  0  0999 V2000
  140.0380   74.8460  222.0310 O   0  0  0  0  0  0  0  0  0  0  0  0
  139.0580   75.9460  221.7360 S   0  0  0  0  0  0  0  0  0  0  0  0
  137.7310   75.6140  222.3320 O   0  0  0  0  0  0  0  0  0  0  0  0
  138.8300   76.0170  219.9750 C   0  0  0  0  0  0  0  0  0  0  0  0
  138.3000   77.3360  219.5440 C   0  0  0  0  0  0  0  0  0  0  0  0
  137.1910   77.9180  220.1210 C   0  0  0  0  0  0  0  0  0  0  0  0
  136.7570   79.1530  219.6650 C   0  0  0  0  0  0  0  0  0  0  0  0
  137.4440   79.7850  218.6320 C   0  0  0  0  0  0  0  0  0  0  0  0
  138.5500   79.1900  218.0660 C   0  0  0  0  0  0  0  0  0  0  0  0
  138.9950   77.9640  218.5080 C   0  0  0  0  0  0  0  0  0  0  0  0
  139.6630   77.4530  222.3430 N   0  0  0  0  0  0  0  0  0  0  0  0
  138.6960   78.4070  222.7610 C   0  0  0  0  0  0  0  0  0  0  0  0
  139.0750   79.5810  223.2390 C   0  0  0  0  0  0  0  0  0  0  0  0
  140.4860   79.9040  223.3390 C   0  0  0  0  0  0  0  0  0  0  0  0
  140.8820   81.1320  223.8380 C   0  0  0  0  0  0  0  0  0  0  0  0
  142.2410   81.4400  223.9350 C   0  0  0  0  0  0  0  0  0  0  0  0
  143.2070   80.5150  223.5290 C   0  0  0  0  0  0  0  0  0  0  0  0
  142.7890   79.2910  223.0310 C   0  0  0  0  0  0  0  0  0  0  0  0
  141.4290   78.9820  222.9350 C   0  0  0  0  0  0  0  0  0  0  0  0
  141.0750   77.6460  222.3870 C   0  0  2  0  0  0  0  0  0  0  0  0
  141.6360   77.5740  220.9910 C   0  0  0  0  0  0  0  0  0  0  0  0
  142.1420   76.4290  220.3940 C   0  0  0  0  0  0  0  0  0  0  0  0
  142.5560   76.7250  219.1490 N   0  0  0  0  0  0  0  0  0  0  0  0
  142.3280   78.0310  218.9310 C   0  0  0  0  0  0  0  0  0  0  0  0
  142.5710   78.8190  217.8220 C   0  0  0  0  0  0  0  0  0  0  0  0
  142.2400   80.1590  217.8500 C   0  0  0  0  0  0  0  0  0  0  0  0
  141.6620   80.7150  218.9960 C   0  0  0  0  0  0  0  0  0  0  0  0
  141.4190   79.9210  220.1070 C   0  0  0  0  0  0  0  0  0  0  0  0
  141.7500   78.5960  220.0720 C   0  0  0  0  0  0  0  0  0  0  0  0
  139.7982   75.8433  219.4826 H   0  0  0  0  0  0  0  0  0  0  0  0
  138.1003   75.2442  219.6916 H   0  0  0  0  0  0  0  0  0  0  0  0
  136.6560   77.4072  220.9352 H   0  0  0  0  0  0  0  0  0  0  0  0
  135.8751   79.6308  220.1166 H   0  0  0  0  0  0  0  0  0  0  0  0
  137.1019   80.7643  218.2660 H   0  0  0  0  0  0  0  0  0  0  0  0
  139.0842   79.7004  217.2511 H   0  0  0  0  0  0  0  0  0  0  0  0
  139.8782   77.4898  218.0551 H   0  0  0  0  0  0  0  0  0  0  0  0
  137.6250   78.1676  222.6866 H   0  0  0  0  0  0  0  0  0  0  0  0
  138.3196   80.3130  223.5609 H   0  0  0  0  0  0  0  0  0  0  0  0
  140.1272   81.8654  224.1581 H   0  0  0  0  0  0  0  0  0  0  0  0
  142.5529   82.4167  224.3334 H   0  0  0  0  0  0  0  0  0  0  0  0
  144.2782   80.7538  223.6033 H   0  0  0  0  0  0  0  0  0  0  0  0
  143.5374   78.5528  222.7070 H   0  0  0  0  0  0  0  0  0  0  0  0
  141.4921   76.8602  223.0340 H   0  0  0  0  0  0  0  0  0  0  0  0
  142.1962   75.4360  220.8642 H   0  0  0  0  0  0  0  0  0  0  0  0
  142.9850   76.0350  218.4640 H   0  0  0  0  0  0  0  0  0  0  0  0
  143.0259   78.3807  216.9215 H   0  0  0  0  0  0  0  0  0  0  0  0
  142.4311   80.7904  216.9698 H   0  0  0  0  0  0  0  0  0  0  0  0
  141.3999   81.7831  219.0161 H   0  0  0  0  0  0  0  0  0  0  0  0
  140.9633   80.3548  221.0093 H   0  0  0  0  0  0  0  0  0  0  0  0
  1  2  2  0
  2  3  2  0
  2  4  1  0
  4  5  1  0
  5  6  2  0
  6  7  1  0
  7  8  2  0
  8  9  1  0
  9 10  2  0
  2 11  1  0
 11 12  1  0
 12 13  2  0
 13 14  1  0
 14 15  2  0
 15 16  1  0
 16 17  2  0
 17 18  1  0
 18 19  2  0
 19 20  1  0
 20 21  1  0
 21 22  2  0
 22 23  1  0
 23 24  1  0
 24 25  2  0
 25 26  1  0
 26 27  2  0
 27 28  1  0
 28 29  2  0
 10  5  1  0
 20 11  1  0
 29 21  1  0
 19 14  1  0
 29 24  1  0
  4 30  1  0
  4 31  1  0
  6 32  1  0
  7 33  1  0
  8 34  1  0
  9 35  1  0
 10 36  1  0
 12 37  1  0
 13 38  1  0
 15 39  1  0
 16 40  1  0
 17 41  1  0
 18 42  1  0
 20 43  1  1
 22 44  1  0
 23 45  1  0
 25 46  1  0
 26 47  1  0
 27 48  1  0
 28 49  1  0
M  END
>  <smiles>  (18) 
O=S(=O)(Cc1ccccc1)N1C=Cc2ccccc2C1c1c[nH]c2ccccc12

>  <score_type>  (18) 
oracle

>  <origin>  (18) 
autodockgpu

>  <m_score__min__energy>  (18) 
-6.9400000000000004

>  <m_primary>  (18) 
energy

>  <rmsd>  (18) 
4.3519808197332335

>  <m_score__min__rmsd>  (18) 
4.3519808197332335

>  <meeko>  (18) 
{"free_energy": -6.86, "intermolecular_energy": -8.05, "internal_energy": -2.88, "cluster_size": 50, "cluster_id": 1, "rank_in_cluster": 45}

>  <energy>  (18) 
-6.89

>  <cluster_rmsd>  (18) 
0.21

>  <cluster>  (18) 
1

$$$$

     RDKit          3D

 49 53  0  0  1  0  0  0  0  0999 V2000
  140.0020   74.8810  222.1140 O   0  0  0  0  0  0  0  0  0  0  0  0
  139.0390   75.9900  221.7940 S   0  0  0  0  0  0  0  0  0  0  0  0
  137.7040   75.6870  222.3890 O   0  0  0  0  0  0  0  0  0  0  0  0
  138.8210   76.0340  220.0320 C   0  0  0  0  0  0  0  0  0  0  0  0
  138.3110   77.3520  219.5750 C   0  0  0  0  0  0  0  0  0  0  0  0
  137.2140   77.9630  220.1430 C   0  0  0  0  0  0  0  0  0  0  0  0
  136.7970   79.1950  219.6630 C   0  0  0  0  0  0  0  0  0  0  0  0
  137.4900   79.7950  218.6150 C   0  0  0  0  0  0  0  0  0  0  0  0
  138.5850   79.1710  218.0580 C   0  0  0  0  0  0  0  0  0  0  0  0
  139.0120   77.9460  218.5230 C   0  0  0  0  0  0  0  0  0  0  0  0
  139.6620   77.4980  222.3790 N   0  0  0  0  0  0  0  0  0  0  0  0
  138.7070   78.4690  222.7840 C   0  0  0  0  0  0  0  0  0  0  0  0
  139.1000   79.6460  223.2440 C   0  0  0  0  0  0  0  0  0  0  0  0
  140.5150   79.9530  223.3380 C   0  0  0  0  0  0  0  0  0  0  0  0
  140.9260   81.1840  223.8190 C   0  0  0  0  0  0  0  0  0  0  0  0
  142.2880   81.4780  223.9090 C   0  0  0  0  0  0  0  0  0  0  0  0
  143.2440   80.5350  223.5160 C   0  0  0  0  0  0  0  0  0  0  0  0
  142.8100   79.3090  223.0370 C   0  0  0  0  0  0  0  0  0  0  0  0
  141.4470   79.0150  222.9460 C   0  0  0  0  0  0  0  0  0  0  0  0
  141.0770   77.6750  222.4190 C   0  0  2  0  0  0  0  0  0  0  0  0
  141.6350   77.5760  221.0230 C   0  0  0  0  0  0  0  0  0  0  0  0
  142.1210   76.4150  220.4400 C   0  0  0  0  0  0  0  0  0  0  0  0
  142.5390   76.6880  219.1910 N   0  0  0  0  0  0  0  0  0  0  0  0
  142.3330   77.9950  218.9560 C   0  0  0  0  0  0  0  0  0  0  0  0
  142.5870   78.7650  217.8380 C   0  0  0  0  0  0  0  0  0  0  0  0
  142.2790   80.1100  217.8480 C   0  0  0  0  0  0  0  0  0  0  0  0
  141.7100   80.6900  218.9880 C   0  0  0  0  0  0  0  0  0  0  0  0
  141.4560   79.9150  220.1090 C   0  0  0  0  0  0  0  0  0  0  0  0
  141.7650   78.5840  220.0910 C   0  0  0  0  0  0  0  0  0  0  0  0
  139.7893   75.8389  219.5479 H   0  0  0  0  0  0  0  0  0  0  0  0
  138.0821   75.2664  219.7583 H   0  0  0  0  0  0  0  0  0  0  0  0
  136.6743   77.4777  220.9696 H   0  0  0  0  0  0  0  0  0  0  0  0
  135.9240   79.6954  220.1074 H   0  0  0  0  0  0  0  0  0  0  0  0
  137.1618   80.7717  218.2299 H   0  0  0  0  0  0  0  0  0  0  0  0
  139.1251   79.6567  217.2319 H   0  0  0  0  0  0  0  0  0  0  0  0
  139.8847   77.4475  218.0760 H   0  0  0  0  0  0  0  0  0  0  0  0
  137.6332   78.2407  222.7147 H   0  0  0  0  0  0  0  0  0  0  0  0
  138.3537   80.3918  223.5552 H   0  0  0  0  0  0  0  0  0  0  0  0
  140.1801   81.9302  224.1302 H   0  0  0  0  0  0  0  0  0  0  0  0
  142.6115   82.4574  224.2914 H   0  0  0  0  0  0  0  0  0  0  0  0
  144.3181   80.7620  223.5858 H   0  0  0  0  0  0  0  0  0  0  0  0
  143.5490   78.5567  222.7240 H   0  0  0  0  0  0  0  0  0  0  0  0
  141.4858   76.8944  223.0774 H   0  0  0  0  0  0  0  0  0  0  0  0
  142.1586   75.4273  220.9227 H   0  0  0  0  0  0  0  0  0  0  0  0
  142.9570   75.9830  218.5150 H   0  0  0  0  0  0  0  0  0  0  0  0
  143.0333   78.3077  216.9426 H   0  0  0  0  0  0  0  0  0  0  0  0
  142.4807   80.7268  216.9598 H   0  0  0  0  0  0  0  0  0  0  0  0
  141.4641   81.7622  218.9943 H   0  0  0  0  0  0  0  0  0  0  0  0
  141.0091   80.3680  221.0062 H   0  0  0  0  0  0  0  0  0  0  0  0
  1  2  2  0
  2  3  2  0
  2  4  1  0
  4  5  1  0
  5  6  2  0
  6  7  1  0
  7  8  2  0
  8  9  1  0
  9 10  2  0
  2 11  1  0
 11 12  1  0
 12 13  2  0
 13 14  1  0
 14 15  2  0
 15 16  1  0
 16 17  2  0
 17 18  1  0
 18 19  2  0
 19 20  1  0
 20 21  1  0
 21 22  2  0
 22 23  1  0
 23 24  1  0
 24 25  2  0
 25 26  1  0
 26 27  2  0
 27 28  1  0
 28 29  2  0
 10  5  1  0
 20 11  1  0
 29 21  1  0
 19 14  1  0
 29 24  1  0
  4 30  1  0
  4 31  1  0
  6 32  1  0
  7 33  1  0
  8 34  1  0
  9 35  1  0
 10 36  1  0
 12 37  1  0
 13 38  1  0
 15 39  1  0
 16 40  1  0
 17 41  1  0
 18 42  1  0
 20 43  1  1
 22 44  1  0
 23 45  1  0
 25 46  1  0
 26 47  1  0
 27 48  1  0
 28 49  1  0
M  END
>  <smiles>  (19) 
O=S(=O)(Cc1ccccc1)N1C=Cc2ccccc2C1c1c[nH]c2ccccc12

>  <score_type>  (19) 
oracle

>  <origin>  (19) 
autodockgpu

>  <m_score__min__energy>  (19) 
-6.9400000000000004

>  <m_primary>  (19) 
energy

>  <rmsd>  (19) 
4.337583402119364

>  <m_score__min__rmsd>  (19) 
4.337583402119364

>  <meeko>  (19) 
{"free_energy": -6.86, "intermolecular_energy": -8.05, "internal_energy": -2.87, "cluster_size": 50, "cluster_id": 1, "rank_in_cluster": 38}

>  <energy>  (19) 
-6.88

>  <cluster_rmsd>  (19) 
0.17

>  <cluster>  (19) 
1

$$$$

     RDKit          3D

 49 53  0  0  1  0  0  0  0  0999 V2000
  139.9610   74.9630  222.0950 O   0  0  0  0  0  0  0  0  0  0  0  0
  138.9790   76.0790  221.8760 S   0  0  0  0  0  0  0  0  0  0  0  0
  137.6950   75.7650  222.5690 O   0  0  0  0  0  0  0  0  0  0  0  0
  138.6220   76.1620  220.1380 C   0  0  0  0  0  0  0  0  0  0  0  0
  138.1370   77.5080  219.7410 C   0  0  0  0  0  0  0  0  0  0  0  0
  137.0350   78.1030  220.3180 C   0  0  0  0  0  0  0  0  0  0  0  0
  136.6440   79.3630  219.8950 C   0  0  0  0  0  0  0  0  0  0  0  0
  137.3660   80.0090  218.8950 C   0  0  0  0  0  0  0  0  0  0  0  0
  138.4650   79.4010  218.3290 C   0  0  0  0  0  0  0  0  0  0  0  0
  138.8680   78.1490  218.7380 C   0  0  0  0  0  0  0  0  0  0  0  0
  139.6510   77.5740  222.4420 N   0  0  0  0  0  0  0  0  0  0  0  0
  138.7290   78.5630  222.8820 C   0  0  0  0  0  0  0  0  0  0  0  0
  139.1610   79.7300  223.3300 C   0  0  0  0  0  0  0  0  0  0  0  0
  140.5830   80.0110  223.3750 C   0  0  0  0  0  0  0  0  0  0  0  0
  141.0350   81.2320  223.8440 C   0  0  0  0  0  0  0  0  0  0  0  0
  142.4050   81.5000  223.8870 C   0  0  0  0  0  0  0  0  0  0  0  0
  143.3270   80.5400  223.4590 C   0  0  0  0  0  0  0  0  0  0  0  0
  142.8540   79.3230  222.9920 C   0  0  0  0  0  0  0  0  0  0  0  0
  141.4830   79.0560  222.9490 C   0  0  0  0  0  0  0  0  0  0  0  0
  141.0690   77.7240  222.4330 C   0  0  2  0  0  0  0  0  0  0  0  0
  141.5760   77.6190  221.0180 C   0  0  0  0  0  0  0  0  0  0  0  0
  141.9890   76.4440  220.4050 C   0  0  0  0  0  0  0  0  0  0  0  0
  142.3770   76.7150  219.1460 N   0  0  0  0  0  0  0  0  0  0  0  0
  142.2250   78.0330  218.9340 C   0  0  0  0  0  0  0  0  0  0  0  0
  142.4780   78.8050  217.8170 C   0  0  0  0  0  0  0  0  0  0  0  0
  142.2330   80.1620  217.8540 C   0  0  0  0  0  0  0  0  0  0  0  0
  141.7300   80.7530  219.0180 C   0  0  0  0  0  0  0  0  0  0  0  0
  141.4770   79.9750  220.1380 C   0  0  0  0  0  0  0  0  0  0  0  0
  141.7220   78.6320  220.0940 C   0  0  0  0  0  0  0  0  0  0  0  0
  139.5384   75.9327  219.5744 H   0  0  0  0  0  0  0  0  0  0  0  0
  137.8295   75.4324  219.9154 H   0  0  0  0  0  0  0  0  0  0  0  0
  136.4718   77.5823  221.1065 H   0  0  0  0  0  0  0  0  0  0  0  0
  135.7676   79.8506  220.3469 H   0  0  0  0  0  0  0  0  0  0  0  0
  137.0576   81.0088  218.5556 H   0  0  0  0  0  0  0  0  0  0  0  0
  139.0278   79.9220  217.5404 H   0  0  0  0  0  0  0  0  0  0  0  0
  139.7457   77.6648  218.2850 H   0  0  0  0  0  0  0  0  0  0  0  0
  137.6491   78.3561  222.8496 H   0  0  0  0  0  0  0  0  0  0  0  0
  138.4404   80.4888  223.6691 H   0  0  0  0  0  0  0  0  0  0  0  0
  140.3152   81.9916  224.1830 H   0  0  0  0  0  0  0  0  0  0  0  0
  142.7607   82.4719  224.2597 H   0  0  0  0  0  0  0  0  0  0  0  0
  144.4070   80.7462  223.4921 H   0  0  0  0  0  0  0  0  0  0  0  0
  143.5671   78.5580  222.6510 H   0  0  0  0  0  0  0  0  0  0  0  0
  141.4851   76.9338  223.0753 H   0  0  0  0  0  0  0  0  0  0  0  0
  141.9976   75.4492  220.8744 H   0  0  0  0  0  0  0  0  0  0  0  0
  142.7400   76.0000  218.4490 H   0  0  0  0  0  0  0  0  0  0  0  0
  142.8731   78.3398  216.9019 H   0  0  0  0  0  0  0  0  0  0  0  0
  142.4335   80.7805  216.9667 H   0  0  0  0  0  0  0  0  0  0  0  0
  141.5350   81.8352  219.0450 H   0  0  0  0  0  0  0  0  0  0  0  0
  141.0819   80.4362  221.0551 H   0  0  0  0  0  0  0  0  0  0  0  0
  1  2  2  0
  2  3  2  0
  2  4  1  0
  4  5  1  0
  5  6  2  0
  6  7  1  0
  7  8  2  0
  8  9  1  0
  9 10  2  0
  2 11  1  0
 11 12  1  0
 12 13  2  0
 13 14  1  0
 14 15  2  0
 15 16  1  0
 16 17  2  0
 17 18  1  0
 18 19  2  0
 19 20  1  0
 20 21  1  0
 21 22  2  0
 22 23  1  0
 23 24  1  0
 24 25  2  0
 25 26  1  0
 26 27  2  0
 27 28  1  0
 28 29  2  0
 10  5  1  0
 20 11  1  0
 29 21  1  0
 19 14  1  0
 29 24  1  0
  4 30  1  0
  4 31  1  0
  6 32  1  0
  7 33  1  0
  8 34  1  0
  9 35  1  0
 10 36  1  0
 12 37  1  0
 13 38  1  0
 15 39  1  0
 16 40  1  0
 17 41  1  0
 18 42  1  0
 20 43  1  1
 22 44  1  0
 23 45  1  0
 25 46  1  0
 26 47  1  0
 27 48  1  0
 28 49  1  0
M  END
>  <smiles>  (20) 
O=S(=O)(Cc1ccccc1)N1C=Cc2ccccc2C1c1c[nH]c2ccccc12

>  <score_type>  (20) 
oracle

>  <origin>  (20) 
autodockgpu

>  <m_score__min__energy>  (20) 
-6.9400000000000004

>  <m_primary>  (20) 
energy

>  <rmsd>  (20) 
4.346303356672836

>  <m_score__min__rmsd>  (20) 
4.346303356672836

>  <meeko>  (20) 
{"free_energy": -6.9, "intermolecular_energy": -8.09, "internal_energy": -2.84, "cluster_size": 50, "cluster_id": 1, "rank_in_cluster": 14}

>  <energy>  (20) 
-6.88

>  <cluster_rmsd>  (20) 
0.2

>  <cluster>  (20) 
1

$$$$

     RDKit          3D

 49 53  0  0  1  0  0  0  0  0999 V2000
  140.0080   74.8990  222.1100 O   0  0  0  0  0  0  0  0  0  0  0  0
  139.0310   76.0040  221.8210 S   0  0  0  0  0  0  0  0  0  0  0  0
  137.7120   75.6880  222.4440 O   0  0  0  0  0  0  0  0  0  0  0  0
  138.7730   76.0610  220.0640 C   0  0  0  0  0  0  0  0  0  0  0  0
  138.2690   77.3880  219.6270 C   0  0  0  0  0  0  0  0  0  0  0  0
  137.1630   77.9870  220.1900 C   0  0  0  0  0  0  0  0  0  0  0  0
  136.7540   79.2280  219.7280 C   0  0  0  0  0  0  0  0  0  0  0  0
  137.4630   79.8500  218.7040 C   0  0  0  0  0  0  0  0  0  0  0  0
  138.5660   79.2380  218.1520 C   0  0  0  0  0  0  0  0  0  0  0  0
  138.9870   78.0040  218.5990 C   0  0  0  0  0  0  0  0  0  0  0  0
  139.6580   77.5120  222.4040 N   0  0  0  0  0  0  0  0  0  0  0  0
  138.7050   78.4830  222.8150 C   0  0  0  0  0  0  0  0  0  0  0  0
  139.1010   79.6590  223.2740 C   0  0  0  0  0  0  0  0  0  0  0  0
  140.5160   79.9660  223.3600 C   0  0  0  0  0  0  0  0  0  0  0  0
  140.9310   81.1960  223.8400 C   0  0  0  0  0  0  0  0  0  0  0  0
  142.2930   81.4900  223.9230 C   0  0  0  0  0  0  0  0  0  0  0  0
  143.2460   80.5470  223.5230 C   0  0  0  0  0  0  0  0  0  0  0  0
  142.8100   79.3220  223.0450 C   0  0  0  0  0  0  0  0  0  0  0  0
  141.4460   79.0280  222.9620 C   0  0  0  0  0  0  0  0  0  0  0  0
  141.0730   77.6880  222.4360 C   0  0  2  0  0  0  0  0  0  0  0  0
  141.6220   77.5920  221.0370 C   0  0  0  0  0  0  0  0  0  0  0  0
  142.0900   76.4270  220.4440 C   0  0  0  0  0  0  0  0  0  0  0  0
  142.5050   76.7030  219.1940 N   0  0  0  0  0  0  0  0  0  0  0  0
  142.3150   78.0140  218.9690 C   0  0  0  0  0  0  0  0  0  0  0  0
  142.5740   78.7880  217.8540 C   0  0  0  0  0  0  0  0  0  0  0  0
  142.2840   80.1360  217.8740 C   0  0  0  0  0  0  0  0  0  0  0  0
  141.7290   80.7170  219.0200 C   0  0  0  0  0  0  0  0  0  0  0  0
  141.4700   79.9380  220.1380 C   0  0  0  0  0  0  0  0  0  0  0  0
  141.7610   78.6040  220.1100 C   0  0  0  0  0  0  0  0  0  0  0  0
  139.7274   75.8570  219.5565 H   0  0  0  0  0  0  0  0  0  0  0  0
  138.0188   75.3040  219.8028 H   0  0  0  0  0  0  0  0  0  0  0  0
  136.6103   77.4852  220.9980 H   0  0  0  0  0  0  0  0  0  0  0  0
  135.8736   79.7190  220.1682 H   0  0  0  0  0  0  0  0  0  0  0  0
  137.1406   80.8346  218.3343 H   0  0  0  0  0  0  0  0  0  0  0  0
  139.1182   79.7403  217.3440 H   0  0  0  0  0  0  0  0  0  0  0  0
  139.8678   77.5156  218.1566 H   0  0  0  0  0  0  0  0  0  0  0  0
  137.6307   78.2552  222.7510 H   0  0  0  0  0  0  0  0  0  0  0  0
  138.3566   80.4044  223.5906 H   0  0  0  0  0  0  0  0  0  0  0  0
  140.1872   81.9422  224.1562 H   0  0  0  0  0  0  0  0  0  0  0  0
  142.6189   82.4687  224.3051 H   0  0  0  0  0  0  0  0  0  0  0  0
  144.3205   80.7738  223.5868 H   0  0  0  0  0  0  0  0  0  0  0  0
  143.5473   78.5704  222.7264 H   0  0  0  0  0  0  0  0  0  0  0  0
  141.4856   76.9061  223.0906 H   0  0  0  0  0  0  0  0  0  0  0  0
  142.1172   75.4359  220.9203 H   0  0  0  0  0  0  0  0  0  0  0  0
  142.9100   75.9970  218.5120 H   0  0  0  0  0  0  0  0  0  0  0  0
  143.0100   78.3305  216.9537 H   0  0  0  0  0  0  0  0  0  0  0  0
  142.4891   80.7553  216.9883 H   0  0  0  0  0  0  0  0  0  0  0  0
  141.4980   81.7924  219.0341 H   0  0  0  0  0  0  0  0  0  0  0  0
  141.0336   80.3912  221.0403 H   0  0  0  0  0  0  0  0  0  0  0  0
  1  2  2  0
  2  3  2  0
  2  4  1  0
  4  5  1  0
  5  6  2  0
  6  7  1  0
  7  8  2  0
  8  9  1  0
  9 10  2  0
  2 11  1  0
 11 12  1  0
 12 13  2  0
 13 14  1  0
 14 15  2  0
 15 16  1  0
 16 17  2  0
 17 18  1  0
 18 19  2  0
 19 20  1  0
 20 21  1  0
 21 22  2  0
 22 23  1  0
 23 24  1  0
 24 25  2  0
 25 26  1  0
 26 27  2  0
 27 28  1  0
 28 29  2  0
 10  5  1  0
 20 11  1  0
 29 21  1  0
 19 14  1  0
 29 24  1  0
  4 30  1  0
  4 31  1  0
  6 32  1  0
  7 33  1  0
  8 34  1  0
  9 35  1  0
 10 36  1  0
 12 37  1  0
 13 38  1  0
 15 39  1  0
 16 40  1  0
 17 41  1  0
 18 42  1  0
 20 43  1  1
 22 44  1  0
 23 45  1  0
 25 46  1  0
 26 47  1  0
 27 48  1  0
 28 49  1  0
M  END
>  <smiles>  (21) 
O=S(=O)(Cc1ccccc1)N1C=Cc2ccccc2C1c1c[nH]c2ccccc12

>  <score_type>  (21) 
oracle

>  <origin>  (21) 
autodockgpu

>  <m_score__min__energy>  (21) 
-6.9400000000000004

>  <m_primary>  (21) 
energy

>  <rmsd>  (21) 
4.344610110457326

>  <m_score__min__rmsd>  (21) 
4.344610110457326

>  <meeko>  (21) 
{"free_energy": -6.88, "intermolecular_energy": -8.07, "internal_energy": -2.86, "cluster_size": 50, "cluster_id": 1, "rank_in_cluster": 20}

>  <energy>  (21) 
-6.88

>  <cluster_rmsd>  (21) 
0.21

>  <cluster>  (21) 
1

$$$$

     RDKit          3D

 49 53  0  0  1  0  0  0  0  0999 V2000
  140.0020   74.9220  222.0970 O   0  0  0  0  0  0  0  0  0  0  0  0
  139.0110   76.0260  221.8610 S   0  0  0  0  0  0  0  0  0  0  0  0
  137.7210   75.6990  222.5350 O   0  0  0  0  0  0  0  0  0  0  0  0
  138.6790   76.1000  220.1180 C   0  0  0  0  0  0  0  0  0  0  0  0
  138.2020   77.4450  219.7070 C   0  0  0  0  0  0  0  0  0  0  0  0
  138.8810   78.2330  218.8020 C   0  0  0  0  0  0  0  0  0  0  0  0
  138.3720   79.4780  218.4680 C   0  0  0  0  0  0  0  0  0  0  0  0
  137.1850   79.9140  219.0490 C   0  0  0  0  0  0  0  0  0  0  0  0
  136.5170   79.1150  219.9520 C   0  0  0  0  0  0  0  0  0  0  0  0
  137.0100   77.8760  220.2950 C   0  0  0  0  0  0  0  0  0  0  0  0
  139.6580   77.5300  222.4330 N   0  0  0  0  0  0  0  0  0  0  0  0
  138.7180   78.5120  222.8470 C   0  0  0  0  0  0  0  0  0  0  0  0
  139.1300   79.6860  223.2980 C   0  0  0  0  0  0  0  0  0  0  0  0
  140.5480   79.9790  223.3730 C   0  0  0  0  0  0  0  0  0  0  0  0
  140.9790   81.2070  223.8440 C   0  0  0  0  0  0  0  0  0  0  0  0
  142.3450   81.4870  223.9150 C   0  0  0  0  0  0  0  0  0  0  0  0
  143.2850   80.5330  223.5120 C   0  0  0  0  0  0  0  0  0  0  0  0
  142.8330   79.3100  223.0430 C   0  0  0  0  0  0  0  0  0  0  0  0
  141.4650   79.0300  222.9710 C   0  0  0  0  0  0  0  0  0  0  0  0
  141.0740   77.6920  222.4530 C   0  0  2  0  0  0  0  0  0  0  0  0
  141.6120   77.5840  221.0510 C   0  0  0  0  0  0  0  0  0  0  0  0
  142.0460   76.4090  220.4520 C   0  0  0  0  0  0  0  0  0  0  0  0
  142.4600   76.6770  219.2010 N   0  0  0  0  0  0  0  0  0  0  0  0
  142.3040   77.9930  218.9800 C   0  0  0  0  0  0  0  0  0  0  0  0
  142.5760   78.7620  217.8650 C   0  0  0  0  0  0  0  0  0  0  0  0
  142.3220   80.1170  217.8900 C   0  0  0  0  0  0  0  0  0  0  0  0
  141.7900   80.7100  219.0400 C   0  0  0  0  0  0  0  0  0  0  0  0
  141.5180   79.9360  220.1580 C   0  0  0  0  0  0  0  0  0  0  0  0
  141.7720   78.5940  220.1250 C   0  0  0  0  0  0  0  0  0  0  0  0
  139.6029   75.8661  219.5687 H   0  0  0  0  0  0  0  0  0  0  0  0
  137.8886   75.3704  219.8879 H   0  0  0  0  0  0  0  0  0  0  0  0
  139.8181   77.8768  218.3493 H   0  0  0  0  0  0  0  0  0  0  0  0
  138.9031   80.1178  217.7479 H   0  0  0  0  0  0  0  0  0  0  0  0
  136.7777   80.9014  218.7862 H   0  0  0  0  0  0  0  0  0  0  0  0
  135.5794   79.4713  220.4037 H   0  0  0  0  0  0  0  0  0  0  0  0
  136.4770   77.2392  221.0164 H   0  0  0  0  0  0  0  0  0  0  0  0
  137.6410   78.2950  222.7923 H   0  0  0  0  0  0  0  0  0  0  0  0
  138.3957   80.4405  223.6164 H   0  0  0  0  0  0  0  0  0  0  0  0
  140.2454   81.9623  224.1624 H   0  0  0  0  0  0  0  0  0  0  0  0
  142.6840   82.4639  224.2902 H   0  0  0  0  0  0  0  0  0  0  0  0
  144.3621   80.7494  223.5663 H   0  0  0  0  0  0  0  0  0  0  0  0
  143.5602   78.5492  222.7230 H   0  0  0  0  0  0  0  0  0  0  0  0
  141.4833   76.9085  223.1077 H   0  0  0  0  0  0  0  0  0  0  0  0
  142.0505   75.4162  220.9257 H   0  0  0  0  0  0  0  0  0  0  0  0
  142.8420   75.9610  218.5150 H   0  0  0  0  0  0  0  0  0  0  0  0
  142.9936   78.2951  216.9608 H   0  0  0  0  0  0  0  0  0  0  0  0
  142.5380   80.7327  217.0044 H   0  0  0  0  0  0  0  0  0  0  0  0
  141.5873   81.7910  219.0574 H   0  0  0  0  0  0  0  0  0  0  0  0
  141.1009   80.3990  221.0645 H   0  0  0  0  0  0  0  0  0  0  0  0
  1  2  2  0
  2  3  2  0
  2  4  1  0
  4  5  1  0
  5  6  2  0
  6  7  1  0
  7  8  2  0
  8  9  1  0
  9 10  2  0
  2 11  1  0
 11 12  1  0
 12 13  2  0
 13 14  1  0
 14 15  2  0
 15 16  1  0
 16 17  2  0
 17 18  1  0
 18 19  2  0
 19 20  1  0
 20 21  1  0
 21 22  2  0
 22 23  1  0
 23 24  1  0
 24 25  2  0
 25 26  1  0
 26 27  2  0
 27 28  1  0
 28 29  2  0
 10  5  1  0
 20 11  1  0
 29 21  1  0
 19 14  1  0
 29 24  1  0
  4 30  1  0
  4 31  1  0
  6 32  1  0
  7 33  1  0
  8 34  1  0
  9 35  1  0
 10 36  1  0
 12 37  1  0
 13 38  1  0
 15 39  1  0
 16 40  1  0
 17 41  1  0
 18 42  1  0
 20 43  1  1
 22 44  1  0
 23 45  1  0
 25 46  1  0
 26 47  1  0
 27 48  1  0
 28 49  1  0
M  END
>  <smiles>  (22) 
O=S(=O)(Cc1ccccc1)N1C=Cc2ccccc2C1c1c[nH]c2ccccc12

>  <score_type>  (22) 
oracle

>  <origin>  (22) 
autodockgpu

>  <m_score__min__energy>  (22) 
-6.9400000000000004

>  <m_primary>  (22) 
energy

>  <rmsd>  (22) 
4.35045702787186

>  <m_score__min__rmsd>  (22) 
4.35045702787186

>  <meeko>  (22) 
{"free_energy": -6.91, "intermolecular_energy": -8.1, "internal_energy": -2.83, "cluster_size": 50, "cluster_id": 1, "rank_in_cluster": 5}

>  <energy>  (22) 
-6.88

>  <cluster_rmsd>  (22) 
0.14

>  <cluster>  (22) 
1

$$$$

     RDKit          3D

 49 53  0  0  1  0  0  0  0  0999 V2000
  140.0170   74.8620  222.0710 O   0  0  0  0  0  0  0  0  0  0  0  0
  139.0490   75.9680  221.7580 S   0  0  0  0  0  0  0  0  0  0  0  0
  137.7140   75.6520  222.3460 O   0  0  0  0  0  0  0  0  0  0  0  0
  138.8360   76.0270  219.9960 C   0  0  0  0  0  0  0  0  0  0  0  0
  138.3230   77.3480  219.5490 C   0  0  0  0  0  0  0  0  0  0  0  0
  137.2220   77.9510  220.1200 C   0  0  0  0  0  0  0  0  0  0  0  0
  136.8040   79.1860  219.6490 C   0  0  0  0  0  0  0  0  0  0  0  0
  137.4990   79.7970  218.6090 C   0  0  0  0  0  0  0  0  0  0  0  0
  138.5970   79.1810  218.0490 C   0  0  0  0  0  0  0  0  0  0  0  0
  139.0260   77.9540  218.5050 C   0  0  0  0  0  0  0  0  0  0  0  0
  139.6620   77.4750  222.3580 N   0  0  0  0  0  0  0  0  0  0  0  0
  138.6990   78.4350  222.7750 C   0  0  0  0  0  0  0  0  0  0  0  0
  139.0840   79.6090  223.2480 C   0  0  0  0  0  0  0  0  0  0  0  0
  140.4970   79.9260  223.3430 C   0  0  0  0  0  0  0  0  0  0  0  0
  140.9000   81.1540  223.8370 C   0  0  0  0  0  0  0  0  0  0  0  0
  142.2590   81.4580  223.9290 C   0  0  0  0  0  0  0  0  0  0  0  0
  143.2210   80.5270  223.5250 C   0  0  0  0  0  0  0  0  0  0  0  0
  142.7970   79.3020  223.0320 C   0  0  0  0  0  0  0  0  0  0  0  0
  141.4350   78.9990  222.9400 C   0  0  0  0  0  0  0  0  0  0  0  0
  141.0750   77.6620  222.3990 C   0  0  2  0  0  0  0  0  0  0  0  0
  141.6320   77.5830  221.0020 C   0  0  0  0  0  0  0  0  0  0  0  0
  142.1300   76.4330  220.4070 C   0  0  0  0  0  0  0  0  0  0  0  0
  142.5420   76.7230  219.1600 N   0  0  0  0  0  0  0  0  0  0  0  0
  142.3220   78.0290  218.9380 C   0  0  0  0  0  0  0  0  0  0  0  0
  142.5660   78.8130  217.8270 C   0  0  0  0  0  0  0  0  0  0  0  0
  142.2430   80.1540  217.8500 C   0  0  0  0  0  0  0  0  0  0  0  0
  141.6700   80.7170  218.9960 C   0  0  0  0  0  0  0  0  0  0  0  0
  141.4260   79.9280  220.1100 C   0  0  0  0  0  0  0  0  0  0  0  0
  141.7490   78.6010  220.0780 C   0  0  0  0  0  0  0  0  0  0  0  0
  139.8063   75.8392  219.5130 H   0  0  0  0  0  0  0  0  0  0  0  0
  138.1003   75.2596  219.7134 H   0  0  0  0  0  0  0  0  0  0  0  0
  136.6811   77.4571  220.9407 H   0  0  0  0  0  0  0  0  0  0  0  0
  135.9281   79.6803  220.0945 H   0  0  0  0  0  0  0  0  0  0  0  0
  137.1699   80.7767  218.2323 H   0  0  0  0  0  0  0  0  0  0  0  0
  139.1374   79.6749  217.2280 H   0  0  0  0  0  0  0  0  0  0  0  0
  139.9023   77.4625  218.0572 H   0  0  0  0  0  0  0  0  0  0  0  0
  137.6268   78.1997  222.7037 H   0  0  0  0  0  0  0  0  0  0  0  0
  138.3326   80.3453  223.5695 H   0  0  0  0  0  0  0  0  0  0  0  0
  140.1489   81.8910  224.1574 H   0  0  0  0  0  0  0  0  0  0  0  0
  142.5752   82.4357  224.3216 H   0  0  0  0  0  0  0  0  0  0  0  0
  144.2933   80.7617  223.5968 H   0  0  0  0  0  0  0  0  0  0  0  0
  143.5415   78.5594  222.7093 H   0  0  0  0  0  0  0  0  0  0  0  0
  141.4904   76.8773  223.0484 H   0  0  0  0  0  0  0  0  0  0  0  0
  142.1800   75.4412  220.8801 H   0  0  0  0  0  0  0  0  0  0  0  0
  142.9670   76.0290  218.4770 H   0  0  0  0  0  0  0  0  0  0  0  0
  143.0164   78.3694  216.9268 H   0  0  0  0  0  0  0  0  0  0  0  0
  142.4359   80.7811  216.9671 H   0  0  0  0  0  0  0  0  0  0  0  0
  141.4129   81.7864  219.0131 H   0  0  0  0  0  0  0  0  0  0  0  0
  140.9758   80.3673  221.0125 H   0  0  0  0  0  0  0  0  0  0  0  0
  1  2  2  0
  2  3  2  0
  2  4  1  0
  4  5  1  0
  5  6  2  0
  6  7  1  0
  7  8  2  0
  8  9  1  0
  9 10  2  0
  2 11  1  0
 11 12  1  0
 12 13  2  0
 13 14  1  0
 14 15  2  0
 15 16  1  0
 16 17  2  0
 17 18  1  0
 18 19  2  0
 19 20  1  0
 20 21  1  0
 21 22  2  0
 22 23  1  0
 23 24  1  0
 24 25  2  0
 25 26  1  0
 26 27  2  0
 27 28  1  0
 28 29  2  0
 10  5  1  0
 20 11  1  0
 29 21  1  0
 19 14  1  0
 29 24  1  0
  4 30  1  0
  4 31  1  0
  6 32  1  0
  7 33  1  0
  8 34  1  0
  9 35  1  0
 10 36  1  0
 12 37  1  0
 13 38  1  0
 15 39  1  0
 16 40  1  0
 17 41  1  0
 18 42  1  0
 20 43  1  1
 22 44  1  0
 23 45  1  0
 25 46  1  0
 26 47  1  0
 27 48  1  0
 28 49  1  0
M  END
>  <smiles>  (23) 
O=S(=O)(Cc1ccccc1)N1C=Cc2ccccc2C1c1c[nH]c2ccccc12

>  <score_type>  (23) 
oracle

>  <origin>  (23) 
autodockgpu

>  <m_score__min__energy>  (23) 
-6.9400000000000004

>  <m_primary>  (23) 
energy

>  <rmsd>  (23) 
4.347268361185057

>  <m_score__min__rmsd>  (23) 
4.347268361185057

>  <meeko>  (23) 
{"free_energy": -6.86, "intermolecular_energy": -8.05, "internal_energy": -2.88, "cluster_size": 50, "cluster_id": 1, "rank_in_cluster": 35}

>  <energy>  (23) 
-6.87

>  <cluster_rmsd>  (23) 
0.2

>  <cluster>  (23) 
1

$$$$

     RDKit          3D

 49 53  0  0  1  0  0  0  0  0999 V2000
  140.0200   74.8760  222.0680 O   0  0  0  0  0  0  0  0  0  0  0  0
  139.0490   75.9810  221.7610 S   0  0  0  0  0  0  0  0  0  0  0  0
  137.7170   75.6620  222.3530 O   0  0  0  0  0  0  0  0  0  0  0  0
  138.8290   76.0420  219.9990 C   0  0  0  0  0  0  0  0  0  0  0  0
  138.3170   77.3640  219.5560 C   0  0  0  0  0  0  0  0  0  0  0  0
  137.2140   77.9640  220.1260 C   0  0  0  0  0  0  0  0  0  0  0  0
  136.7960   79.2010  219.6580 C   0  0  0  0  0  0  0  0  0  0  0  0
  137.4940   79.8170  218.6230 C   0  0  0  0  0  0  0  0  0  0  0  0
  138.5940   79.2040  218.0640 C   0  0  0  0  0  0  0  0  0  0  0  0
  139.0220   77.9750  218.5170 C   0  0  0  0  0  0  0  0  0  0  0  0
  139.6620   77.4870  222.3610 N   0  0  0  0  0  0  0  0  0  0  0  0
  138.7000   78.4480  222.7770 C   0  0  0  0  0  0  0  0  0  0  0  0
  139.0850   79.6220  223.2490 C   0  0  0  0  0  0  0  0  0  0  0  0
  140.4970   79.9380  223.3460 C   0  0  0  0  0  0  0  0  0  0  0  0
  140.9010   81.1660  223.8400 C   0  0  0  0  0  0  0  0  0  0  0  0
  142.2610   81.4690  223.9330 C   0  0  0  0  0  0  0  0  0  0  0  0
  143.2220   80.5370  223.5300 C   0  0  0  0  0  0  0  0  0  0  0  0
  142.7980   79.3130  223.0370 C   0  0  0  0  0  0  0  0  0  0  0  0
  141.4360   79.0100  222.9440 C   0  0  0  0  0  0  0  0  0  0  0  0
  141.0750   77.6730  222.4030 C   0  0  2  0  0  0  0  0  0  0  0  0
  141.6330   77.5940  221.0060 C   0  0  0  0  0  0  0  0  0  0  0  0
  142.1310   76.4430  220.4120 C   0  0  0  0  0  0  0  0  0  0  0  0
  142.5450   76.7320  219.1650 N   0  0  0  0  0  0  0  0  0  0  0  0
  142.3260   78.0390  218.9430 C   0  0  0  0  0  0  0  0  0  0  0  0
  142.5720   78.8220  217.8320 C   0  0  0  0  0  0  0  0  0  0  0  0
  142.2500   80.1640  217.8550 C   0  0  0  0  0  0  0  0  0  0  0  0
  141.6770   80.7280  219.0000 C   0  0  0  0  0  0  0  0  0  0  0  0
  141.4310   79.9390  220.1140 C   0  0  0  0  0  0  0  0  0  0  0  0
  141.7530   78.6120  220.0830 C   0  0  0  0  0  0  0  0  0  0  0  0
  139.7970   75.8529  219.5119 H   0  0  0  0  0  0  0  0  0  0  0  0
  138.0909   75.2762  219.7183 H   0  0  0  0  0  0  0  0  0  0  0  0
  136.6712   77.4668  220.9434 H   0  0  0  0  0  0  0  0  0  0  0  0
  135.9179   79.6925  220.1022 H   0  0  0  0  0  0  0  0  0  0  0  0
  137.1656   80.7982  218.2496 H   0  0  0  0  0  0  0  0  0  0  0  0
  139.1368   79.7014  217.2467 H   0  0  0  0  0  0  0  0  0  0  0  0
  139.9000   77.4859  218.0699 H   0  0  0  0  0  0  0  0  0  0  0  0
  137.6277   78.2133  222.7057 H   0  0  0  0  0  0  0  0  0  0  0  0
  138.3336   80.3592  223.5682 H   0  0  0  0  0  0  0  0  0  0  0  0
  140.1504   81.9038  224.1596 H   0  0  0  0  0  0  0  0  0  0  0  0
  142.5780   82.4465  224.3255 H   0  0  0  0  0  0  0  0  0  0  0  0
  144.2944   80.7707  223.6028 H   0  0  0  0  0  0  0  0  0  0  0  0
  143.5426   78.5702  222.7147 H   0  0  0  0  0  0  0  0  0  0  0  0
  141.4890   76.8879  223.0528 H   0  0  0  0  0  0  0  0  0  0  0  0
  142.1796   75.4514  220.8857 H   0  0  0  0  0  0  0  0  0  0  0  0
  142.9700   76.0380  218.4820 H   0  0  0  0  0  0  0  0  0  0  0  0
  143.0228   78.3777  216.9323 H   0  0  0  0  0  0  0  0  0  0  0  0
  142.4441   80.7908  216.9721 H   0  0  0  0  0  0  0  0  0  0  0  0
  141.4214   81.7978  219.0168 H   0  0  0  0  0  0  0  0  0  0  0  0
  140.9799   80.3788  221.0157 H   0  0  0  0  0  0  0  0  0  0  0  0
  1  2  2  0
  2  3  2  0
  2  4  1  0
  4  5  1  0
  5  6  2  0
  6  7  1  0
  7  8  2  0
  8  9  1  0
  9 10  2  0
  2 11  1  0
 11 12  1  0
 12 13  2  0
 13 14  1  0
 14 15  2  0
 15 16  1  0
 16 17  2  0
 17 18  1  0
 18 19  2  0
 19 20  1  0
 20 21  1  0
 21 22  2  0
 22 23  1  0
 23 24  1  0
 24 25  2  0
 25 26  1  0
 26 27  2  0
 27 28  1  0
 28 29  2  0
 10  5  1  0
 20 11  1  0
 29 21  1  0
 19 14  1  0
 29 24  1  0
  4 30  1  0
  4 31  1  0
  6 32  1  0
  7 33  1  0
  8 34  1  0
  9 35  1  0
 10 36  1  0
 12 37  1  0
 13 38  1  0
 15 39  1  0
 16 40  1  0
 17 41  1  0
 18 42  1  0
 20 43  1  1
 22 44  1  0
 23 45  1  0
 25 46  1  0
 26 47  1  0
 27 48  1  0
 28 49  1  0
M  END
>  <smiles>  (24) 
O=S(=O)(Cc1ccccc1)N1C=Cc2ccccc2C1c1c[nH]c2ccccc12

>  <score_type>  (24) 
oracle

>  <origin>  (24) 
autodockgpu

>  <m_score__min__energy>  (24) 
-6.9400000000000004

>  <m_primary>  (24) 
energy

>  <rmsd>  (24) 
4.347792823022303

>  <m_score__min__rmsd>  (24) 
4.347792823022303

>  <meeko>  (24) 
{"free_energy": -6.86, "intermolecular_energy": -8.05, "internal_energy": -2.88, "cluster_size": 50, "cluster_id": 1, "rank_in_cluster": 34}

>  <energy>  (24) 
-6.87

>  <cluster_rmsd>  (24) 
0.18

>  <cluster>  (24) 
1

$$$$

     RDKit          3D

 49 53  0  0  1  0  0  0  0  0999 V2000
  139.9980   74.9090  222.1250 O   0  0  0  0  0  0  0  0  0  0  0  0
  139.0290   76.0190  221.8290 S   0  0  0  0  0  0  0  0  0  0  0  0
  137.7050   75.7100  222.4470 O   0  0  0  0  0  0  0  0  0  0  0  0
  138.7780   76.0730  220.0720 C   0  0  0  0  0  0  0  0  0  0  0  0
  138.2750   77.3990  219.6300 C   0  0  0  0  0  0  0  0  0  0  0  0
  137.1740   78.0040  220.1970 C   0  0  0  0  0  0  0  0  0  0  0  0
  136.7650   79.2440  219.7310 C   0  0  0  0  0  0  0  0  0  0  0  0
  137.4690   79.8580  218.7000 C   0  0  0  0  0  0  0  0  0  0  0  0
  138.5680   79.2400  218.1440 C   0  0  0  0  0  0  0  0  0  0  0  0
  138.9880   78.0080  218.5950 C   0  0  0  0  0  0  0  0  0  0  0  0
  139.6610   77.5240  222.4120 N   0  0  0  0  0  0  0  0  0  0  0  0
  138.7120   78.4980  222.8240 C   0  0  0  0  0  0  0  0  0  0  0  0
  139.1130   79.6730  223.2830 C   0  0  0  0  0  0  0  0  0  0  0  0
  140.5290   79.9750  223.3680 C   0  0  0  0  0  0  0  0  0  0  0  0
  140.9480   81.2030  223.8470 C   0  0  0  0  0  0  0  0  0  0  0  0
  142.3110   81.4930  223.9290 C   0  0  0  0  0  0  0  0  0  0  0  0
  143.2610   80.5470  223.5280 C   0  0  0  0  0  0  0  0  0  0  0  0
  142.8200   79.3230  223.0500 C   0  0  0  0  0  0  0  0  0  0  0  0
  141.4550   79.0340  222.9690 C   0  0  0  0  0  0  0  0  0  0  0  0
  141.0770   77.6960  222.4420 C   0  0  2  0  0  0  0  0  0  0  0  0
  141.6250   77.5970  221.0430 C   0  0  0  0  0  0  0  0  0  0  0  0
  142.0910   76.4320  220.4510 C   0  0  0  0  0  0  0  0  0  0  0  0
  142.5050   76.7070  219.2010 N   0  0  0  0  0  0  0  0  0  0  0  0
  142.3160   78.0180  218.9740 C   0  0  0  0  0  0  0  0  0  0  0  0
  142.5750   78.7900  217.8590 C   0  0  0  0  0  0  0  0  0  0  0  0
  142.2860   80.1390  217.8780 C   0  0  0  0  0  0  0  0  0  0  0  0
  141.7340   80.7210  219.0240 C   0  0  0  0  0  0  0  0  0  0  0  0
  141.4750   79.9430  220.1430 C   0  0  0  0  0  0  0  0  0  0  0  0
  141.7640   78.6090  220.1150 C   0  0  0  0  0  0  0  0  0  0  0  0
  139.7345   75.8686  219.5687 H   0  0  0  0  0  0  0  0  0  0  0  0
  138.0250   75.3154  219.8095 H   0  0  0  0  0  0  0  0  0  0  0  0
  136.6253   77.5079  221.0111 H   0  0  0  0  0  0  0  0  0  0  0  0
  135.8886   79.7397  220.1740 H   0  0  0  0  0  0  0  0  0  0  0  0
  137.1468   80.8414  218.3269 H   0  0  0  0  0  0  0  0  0  0  0  0
  139.1166   79.7365  217.3301 H   0  0  0  0  0  0  0  0  0  0  0  0
  139.8650   77.5151  218.1501 H   0  0  0  0  0  0  0  0  0  0  0  0
  137.6369   78.2741  222.7611 H   0  0  0  0  0  0  0  0  0  0  0  0
  138.3716   80.4211  223.6003 H   0  0  0  0  0  0  0  0  0  0  0  0
  140.2067   81.9516  224.1635 H   0  0  0  0  0  0  0  0  0  0  0  0
  142.6401   82.4706  224.3110 H   0  0  0  0  0  0  0  0  0  0  0  0
  144.3363   80.7703  223.5909 H   0  0  0  0  0  0  0  0  0  0  0  0
  143.5542   78.5689  222.7301 H   0  0  0  0  0  0  0  0  0  0  0  0
  141.4879   76.9127  223.0959 H   0  0  0  0  0  0  0  0  0  0  0  0
  142.1177   75.4411  220.9279 H   0  0  0  0  0  0  0  0  0  0  0  0
  142.9080   75.9990  218.5180 H   0  0  0  0  0  0  0  0  0  0  0  0
  143.0101   78.3313  216.9589 H   0  0  0  0  0  0  0  0  0  0  0  0
  142.4898   80.7573  216.9913 H   0  0  0  0  0  0  0  0  0  0  0  0
  141.5050   81.7968  219.0379 H   0  0  0  0  0  0  0  0  0  0  0  0
  141.0403   80.3973  221.0456 H   0  0  0  0  0  0  0  0  0  0  0  0
  1  2  2  0
  2  3  2  0
  2  4  1  0
  4  5  1  0
  5  6  2  0
  6  7  1  0
  7  8  2  0
  8  9  1  0
  9 10  2  0
  2 11  1  0
 11 12  1  0
 12 13  2  0
 13 14  1  0
 14 15  2  0
 15 16  1  0
 16 17  2  0
 17 18  1  0
 18 19  2  0
 19 20  1  0
 20 21  1  0
 21 22  2  0
 22 23  1  0
 23 24  1  0
 24 25  2  0
 25 26  1  0
 26 27  2  0
 27 28  1  0
 28 29  2  0
 10  5  1  0
 20 11  1  0
 29 21  1  0
 19 14  1  0
 29 24  1  0
  4 30  1  0
  4 31  1  0
  6 32  1  0
  7 33  1  0
  8 34  1  0
  9 35  1  0
 10 36  1  0
 12 37  1  0
 13 38  1  0
 15 39  1  0
 16 40  1  0
 17 41  1  0
 18 42  1  0
 20 43  1  1
 22 44  1  0
 23 45  1  0
 25 46  1  0
 26 47  1  0
 27 48  1  0
 28 49  1  0
M  END
>  <smiles>  (25) 
O=S(=O)(Cc1ccccc1)N1C=Cc2ccccc2C1c1c[nH]c2ccccc12

>  <score_type>  (25) 
oracle

>  <origin>  (25) 
autodockgpu

>  <m_score__min__energy>  (25) 
-6.9400000000000004

>  <m_primary>  (25) 
energy

>  <rmsd>  (25) 
4.344755347362531

>  <m_score__min__rmsd>  (25) 
4.344755347362531

>  <meeko>  (25) 
{"free_energy": -6.87, "intermolecular_energy": -8.07, "internal_energy": -2.85, "cluster_size": 50, "cluster_id": 1, "rank_in_cluster": 23}

>  <energy>  (25) 
-6.87

>  <cluster_rmsd>  (25) 
0.22

>  <cluster>  (25) 
1

$$$$

     RDKit          3D

 49 53  0  0  1  0  0  0  0  0999 V2000
  140.0150   74.9000  222.1410 O   0  0  0  0  0  0  0  0  0  0  0  0
  139.0320   76.0050  221.8760 S   0  0  0  0  0  0  0  0  0  0  0  0
  137.7280   75.6900  222.5320 O   0  0  0  0  0  0  0  0  0  0  0  0
  138.7300   76.0630  220.1270 C   0  0  0  0  0  0  0  0  0  0  0  0
  138.2380   77.3970  219.6990 C   0  0  0  0  0  0  0  0  0  0  0  0
  137.1380   78.0030  220.2670 C   0  0  0  0  0  0  0  0  0  0  0  0
  136.7400   79.2510  219.8140 C   0  0  0  0  0  0  0  0  0  0  0  0
  137.4540   79.8730  218.7940 C   0  0  0  0  0  0  0  0  0  0  0  0
  138.5510   79.2540  218.2360 C   0  0  0  0  0  0  0  0  0  0  0  0
  138.9610   78.0140  218.6750 C   0  0  0  0  0  0  0  0  0  0  0  0
  139.6740   77.5130  222.4440 N   0  0  0  0  0  0  0  0  0  0  0  0
  138.7310   78.4920  222.8590 C   0  0  0  0  0  0  0  0  0  0  0  0
  139.1400   79.6680  223.3070 C   0  0  0  0  0  0  0  0  0  0  0  0
  140.5580   79.9670  223.3770 C   0  0  0  0  0  0  0  0  0  0  0  0
  140.9850   81.1970  223.8450 C   0  0  0  0  0  0  0  0  0  0  0  0
  142.3500   81.4830  223.9120 C   0  0  0  0  0  0  0  0  0  0  0  0
  143.2930   80.5320  223.5070 C   0  0  0  0  0  0  0  0  0  0  0  0
  142.8440   79.3060  223.0410 C   0  0  0  0  0  0  0  0  0  0  0  0
  141.4770   79.0210  222.9750 C   0  0  0  0  0  0  0  0  0  0  0  0
  141.0900   77.6800  222.4600 C   0  0  2  0  0  0  0  0  0  0  0  0
  141.6240   77.5720  221.0560 C   0  0  0  0  0  0  0  0  0  0  0  0
  142.0590   76.3980  220.4570 C   0  0  0  0  0  0  0  0  0  0  0  0
  142.4690   76.6650  219.2040 N   0  0  0  0  0  0  0  0  0  0  0  0
  142.3080   77.9810  218.9820 C   0  0  0  0  0  0  0  0  0  0  0  0
  142.5750   78.7490  217.8650 C   0  0  0  0  0  0  0  0  0  0  0  0
  142.3170   80.1040  217.8900 C   0  0  0  0  0  0  0  0  0  0  0  0
  141.7870   80.6960  219.0410 C   0  0  0  0  0  0  0  0  0  0  0  0
  141.5200   79.9230  220.1600 C   0  0  0  0  0  0  0  0  0  0  0  0
  141.7790   78.5820  220.1280 C   0  0  0  0  0  0  0  0  0  0  0  0
  139.6674   75.8414  219.5958 H   0  0  0  0  0  0  0  0  0  0  0  0
  137.9561   75.3189  219.8876 H   0  0  0  0  0  0  0  0  0  0  0  0
  136.5813   77.5010  221.0721 H   0  0  0  0  0  0  0  0  0  0  0  0
  135.8645   79.7472  220.2583 H   0  0  0  0  0  0  0  0  0  0  0  0
  137.1410   80.8634  218.4318 H   0  0  0  0  0  0  0  0  0  0  0  0
  139.1064   79.7559  217.4300 H   0  0  0  0  0  0  0  0  0  0  0  0
  139.8376   77.5210  218.2294 H   0  0  0  0  0  0  0  0  0  0  0  0
  137.6547   78.2708  222.8075 H   0  0  0  0  0  0  0  0  0  0  0  0
  138.4038   80.4201  223.6269 H   0  0  0  0  0  0  0  0  0  0  0  0
  140.2491   81.9496  224.1643 H   0  0  0  0  0  0  0  0  0  0  0  0
  142.6860   82.4616  224.2854 H   0  0  0  0  0  0  0  0  0  0  0  0
  144.3694   80.7528  223.5574 H   0  0  0  0  0  0  0  0  0  0  0  0
  143.5728   78.5476  222.7190 H   0  0  0  0  0  0  0  0  0  0  0  0
  141.5046   76.8992  223.1146 H   0  0  0  0  0  0  0  0  0  0  0  0
  142.0672   75.4058  220.9319 H   0  0  0  0  0  0  0  0  0  0  0  0
  142.8510   75.9500  218.5180 H   0  0  0  0  0  0  0  0  0  0  0  0
  142.9913   78.2823  216.9601 H   0  0  0  0  0  0  0  0  0  0  0  0
  142.5284   80.7197  217.0033 H   0  0  0  0  0  0  0  0  0  0  0  0
  141.5818   81.7766  219.0582 H   0  0  0  0  0  0  0  0  0  0  0  0
  141.1029   80.3856  221.0667 H   0  0  0  0  0  0  0  0  0  0  0  0
  1  2  2  0
  2  3  2  0
  2  4  1  0
  4  5  1  0
  5  6  2  0
  6  7  1  0
  7  8  2  0
  8  9  1  0
  9 10  2  0
  2 11  1  0
 11 12  1  0
 12 13  2  0
 13 14  1  0
 14 15  2  0
 15 16  1  0
 16 17  2  0
 17 18  1  0
 18 19  2  0
 19 20  1  0
 20 21  1  0
 21 22  2  0
 22 23  1  0
 23 24  1  0
 24 25  2  0
 25 26  1  0
 26 27  2  0
 27 28  1  0
 28 29  2  0
 10  5  1  0
 20 11  1  0
 29 21  1  0
 19 14  1  0
 29 24  1  0
  4 30  1  0
  4 31  1  0
  6 32  1  0
  7 33  1  0
  8 34  1  0
  9 35  1  0
 10 36  1  0
 12 37  1  0
 13 38  1  0
 15 39  1  0
 16 40  1  0
 17 41  1  0
 18 42  1  0
 20 43  1  1
 22 44  1  0
 23 45  1  0
 25 46  1  0
 26 47  1  0
 27 48  1  0
 28 49  1  0
M  END
>  <smiles>  (26) 
O=S(=O)(Cc1ccccc1)N1C=Cc2ccccc2C1c1c[nH]c2ccccc12

>  <score_type>  (26) 
oracle

>  <origin>  (26) 
autodockgpu

>  <m_score__min__energy>  (26) 
-6.9400000000000004

>  <m_primary>  (26) 
energy

>  <rmsd>  (26) 
4.35175778753172

>  <m_score__min__rmsd>  (26) 
4.35175778753172

>  <meeko>  (26) 
{"free_energy": -6.9, "intermolecular_energy": -8.1, "internal_energy": -2.83, "cluster_size": 50, "cluster_id": 1, "rank_in_cluster": 10}

>  <energy>  (26) 
-6.87

>  <cluster_rmsd>  (26) 
0.14

>  <cluster>  (26) 
1

$$$$

     RDKit          3D

 49 53  0  0  1  0  0  0  0  0999 V2000
  139.9820   74.9750  222.0440 O   0  0  0  0  0  0  0  0  0  0  0  0
  139.0040   76.0920  221.8160 S   0  0  0  0  0  0  0  0  0  0  0  0
  137.7090   75.7750  222.4860 O   0  0  0  0  0  0  0  0  0  0  0  0
  138.6750   76.1830  220.0720 C   0  0  0  0  0  0  0  0  0  0  0  0
  138.1820   77.5280  219.6770 C   0  0  0  0  0  0  0  0  0  0  0  0
  138.8330   78.3180  218.7550 C   0  0  0  0  0  0  0  0  0  0  0  0
  138.3100   79.5620  218.4360 C   0  0  0  0  0  0  0  0  0  0  0  0
  137.1390   79.9940  219.0510 C   0  0  0  0  0  0  0  0  0  0  0  0
  136.5000   79.1920  219.9710 C   0  0  0  0  0  0  0  0  0  0  0  0
  137.0060   77.9530  220.2990 C   0  0  0  0  0  0  0  0  0  0  0  0
  139.6670   77.5840  222.4000 N   0  0  0  0  0  0  0  0  0  0  0  0
  138.7380   78.5660  222.8410 C   0  0  0  0  0  0  0  0  0  0  0  0
  139.1620   79.7310  223.3030 C   0  0  0  0  0  0  0  0  0  0  0  0
  140.5830   80.0150  223.3620 C   0  0  0  0  0  0  0  0  0  0  0  0
  141.0270   81.2330  223.8440 C   0  0  0  0  0  0  0  0  0  0  0  0
  142.3960   81.5050  223.9010 C   0  0  0  0  0  0  0  0  0  0  0  0
  143.3250   80.5520  223.4720 C   0  0  0  0  0  0  0  0  0  0  0  0
  142.8600   79.3380  222.9920 C   0  0  0  0  0  0  0  0  0  0  0  0
  141.4900   79.0660  222.9350 C   0  0  0  0  0  0  0  0  0  0  0  0
  141.0840   77.7380  222.4030 C   0  0  2  0  0  0  0  0  0  0  0  0
  141.6030   77.6470  220.9920 C   0  0  0  0  0  0  0  0  0  0  0  0
  142.0440   76.4820  220.3800 C   0  0  0  0  0  0  0  0  0  0  0  0
  142.4360   76.7640  219.1240 N   0  0  0  0  0  0  0  0  0  0  0  0
  142.2570   78.0790  218.9140 C   0  0  0  0  0  0  0  0  0  0  0  0
  142.5020   78.8590  217.8000 C   0  0  0  0  0  0  0  0  0  0  0  0
  142.2290   80.2110  217.8380 C   0  0  0  0  0  0  0  0  0  0  0  0
  141.7060   80.7880  219.0010 C   0  0  0  0  0  0  0  0  0  0  0  0
  141.4610   80.0030  220.1170 C   0  0  0  0  0  0  0  0  0  0  0  0
  141.7350   78.6650  220.0710 C   0  0  0  0  0  0  0  0  0  0  0  0
  139.6030   75.9674  219.5221 H   0  0  0  0  0  0  0  0  0  0  0  0
  137.8946   75.4463  219.8306 H   0  0  0  0  0  0  0  0  0  0  0  0
  139.7586   77.9654  218.2766 H   0  0  0  0  0  0  0  0  0  0  0  0
  138.8179   80.2036  217.7010 H   0  0  0  0  0  0  0  0  0  0  0  0
  136.7215   80.9806  218.8014 H   0  0  0  0  0  0  0  0  0  0  0  0
  135.5746   79.5450  220.4495 H   0  0  0  0  0  0  0  0  0  0  0  0
  136.4954   77.3133  221.0339 H   0  0  0  0  0  0  0  0  0  0  0  0
  137.6592   78.3556  222.7978 H   0  0  0  0  0  0  0  0  0  0  0  0
  138.4363   80.4847  223.6426 H   0  0  0  0  0  0  0  0  0  0  0  0
  140.3019   81.9877  224.1825 H   0  0  0  0  0  0  0  0  0  0  0  0
  142.7453   82.4746  224.2856 H   0  0  0  0  0  0  0  0  0  0  0  0
  144.4039   80.7619  223.5147 H   0  0  0  0  0  0  0  0  0  0  0  0
  143.5787   78.5781  222.6513 H   0  0  0  0  0  0  0  0  0  0  0  0
  141.4973   76.9428  223.0408 H   0  0  0  0  0  0  0  0  0  0  0  0
  142.0691   75.4865  220.8473 H   0  0  0  0  0  0  0  0  0  0  0  0
  142.8170   76.0590  218.4270 H   0  0  0  0  0  0  0  0  0  0  0  0
  142.9129   78.4040  216.8867 H   0  0  0  0  0  0  0  0  0  0  0  0
  142.4225   80.8358  216.9536 H   0  0  0  0  0  0  0  0  0  0  0  0
  141.4890   81.8660  219.0295 H   0  0  0  0  0  0  0  0  0  0  0  0
  141.0494   80.4535  221.0322 H   0  0  0  0  0  0  0  0  0  0  0  0
  1  2  2  0
  2  3  2  0
  2  4  1  0
  4  5  1  0
  5  6  2  0
  6  7  1  0
  7  8  2  0
  8  9  1  0
  9 10  2  0
  2 11  1  0
 11 12  1  0
 12 13  2  0
 13 14  1  0
 14 15  2  0
 15 16  1  0
 16 17  2  0
 17 18  1  0
 18 19  2  0
 19 20  1  0
 20 21  1  0
 21 22  2  0
 22 23  1  0
 23 24  1  0
 24 25  2  0
 25 26  1  0
 26 27  2  0
 27 28  1  0
 28 29  2  0
 10  5  1  0
 20 11  1  0
 29 21  1  0
 19 14  1  0
 29 24  1  0
  4 30  1  0
  4 31  1  0
  6 32  1  0
  7 33  1  0
  8 34  1  0
  9 35  1  0
 10 36  1  0
 12 37  1  0
 13 38  1  0
 15 39  1  0
 16 40  1  0
 17 41  1  0
 18 42  1  0
 20 43  1  1
 22 44  1  0
 23 45  1  0
 25 46  1  0
 26 47  1  0
 27 48  1  0
 28 49  1  0
M  END
>  <smiles>  (27) 
O=S(=O)(Cc1ccccc1)N1C=Cc2ccccc2C1c1c[nH]c2ccccc12

>  <score_type>  (27) 
oracle

>  <origin>  (27) 
autodockgpu

>  <m_score__min__energy>  (27) 
-6.9400000000000004

>  <m_primary>  (27) 
energy

>  <rmsd>  (27) 
4.353562922682795

>  <m_score__min__rmsd>  (27) 
4.353562922682795

>  <meeko>  (27) 
{"free_energy": -6.87, "intermolecular_energy": -8.06, "internal_energy": -2.85, "cluster_size": 50, "cluster_id": 1, "rank_in_cluster": 26}

>  <energy>  (27) 
-6.87

>  <cluster_rmsd>  (27) 
0.16

>  <cluster>  (27) 
1

$$$$

     RDKit          3D

 49 53  0  0  1  0  0  0  0  0999 V2000
  140.0260   74.8600  222.0800 O   0  0  0  0  0  0  0  0  0  0  0  0
  139.0530   75.9640  221.7730 S   0  0  0  0  0  0  0  0  0  0  0  0
  137.7220   75.6440  222.3680 O   0  0  0  0  0  0  0  0  0  0  0  0
  138.8310   76.0240  220.0120 C   0  0  0  0  0  0  0  0  0  0  0  0
  138.3060   77.3410  219.5700 C   0  0  0  0  0  0  0  0  0  0  0  0
  137.2020   77.9340  220.1450 C   0  0  0  0  0  0  0  0  0  0  0  0
  136.7720   79.1660  219.6780 C   0  0  0  0  0  0  0  0  0  0  0  0
  137.4590   79.7850  218.6370 C   0  0  0  0  0  0  0  0  0  0  0  0
  138.5600   79.1800  218.0730 C   0  0  0  0  0  0  0  0  0  0  0  0
  139.0000   77.9550  218.5250 C   0  0  0  0  0  0  0  0  0  0  0  0
  139.6650   77.4720  222.3720 N   0  0  0  0  0  0  0  0  0  0  0  0
  138.7020   78.4310  222.7880 C   0  0  0  0  0  0  0  0  0  0  0  0
  139.0870   79.6060  223.2590 C   0  0  0  0  0  0  0  0  0  0  0  0
  140.4990   79.9240  223.3530 C   0  0  0  0  0  0  0  0  0  0  0  0
  140.9010   81.1530  223.8450 C   0  0  0  0  0  0  0  0  0  0  0  0
  142.2610   81.4580  223.9360 C   0  0  0  0  0  0  0  0  0  0  0  0
  143.2230   80.5270  223.5310 C   0  0  0  0  0  0  0  0  0  0  0  0
  142.7990   79.3020  223.0410 C   0  0  0  0  0  0  0  0  0  0  0  0
  141.4380   78.9980  222.9510 C   0  0  0  0  0  0  0  0  0  0  0  0
  141.0780   77.6600  222.4110 C   0  0  2  0  0  0  0  0  0  0  0  0
  141.6340   77.5800  221.0130 C   0  0  0  0  0  0  0  0  0  0  0  0
  142.1240   76.4270  220.4150 C   0  0  0  0  0  0  0  0  0  0  0  0
  142.5380   76.7170  219.1690 N   0  0  0  0  0  0  0  0  0  0  0  0
  142.3260   78.0260  218.9500 C   0  0  0  0  0  0  0  0  0  0  0  0
  142.5750   78.8100  217.8400 C   0  0  0  0  0  0  0  0  0  0  0  0
  142.2610   80.1530  217.8660 C   0  0  0  0  0  0  0  0  0  0  0  0
  141.6930   80.7180  219.0140 C   0  0  0  0  0  0  0  0  0  0  0  0
  141.4440   79.9280  220.1260 C   0  0  0  0  0  0  0  0  0  0  0  0
  141.7580   78.5990  220.0920 C   0  0  0  0  0  0  0  0  0  0  0  0
  139.8003   75.8445  219.5240 H   0  0  0  0  0  0  0  0  0  0  0  0
  138.0999   75.2514  219.7316 H   0  0  0  0  0  0  0  0  0  0  0  0
  136.6677   77.4341  220.9664 H   0  0  0  0  0  0  0  0  0  0  0  0
  135.8932   79.6519  220.1270 H   0  0  0  0  0  0  0  0  0  0  0  0
  137.1204   80.7625  218.2631 H   0  0  0  0  0  0  0  0  0  0  0  0
  139.0944   79.6805  217.2521 H   0  0  0  0  0  0  0  0  0  0  0  0
  139.8784   77.4713  218.0728 H   0  0  0  0  0  0  0  0  0  0  0  0
  137.6299   78.1949  222.7179 H   0  0  0  0  0  0  0  0  0  0  0  0
  138.3354   80.3424  223.5796 H   0  0  0  0  0  0  0  0  0  0  0  0
  140.1495   81.8900  224.1645 H   0  0  0  0  0  0  0  0  0  0  0  0
  142.5772   82.4358  224.3284 H   0  0  0  0  0  0  0  0  0  0  0  0
  144.2953   80.7626  223.6001 H   0  0  0  0  0  0  0  0  0  0  0  0
  143.5435   78.5592  222.7187 H   0  0  0  0  0  0  0  0  0  0  0  0
  141.4946   76.8760  223.0605 H   0  0  0  0  0  0  0  0  0  0  0  0
  142.1668   75.4337  220.8858 H   0  0  0  0  0  0  0  0  0  0  0  0
  142.9580   76.0220  218.4840 H   0  0  0  0  0  0  0  0  0  0  0  0
  143.0220   78.3649  216.9388 H   0  0  0  0  0  0  0  0  0  0  0  0
  142.4571   80.7804  216.9840 H   0  0  0  0  0  0  0  0  0  0  0  0
  141.4441   81.7893  219.0339 H   0  0  0  0  0  0  0  0  0  0  0  0
  140.9967   80.3684  221.0293 H   0  0  0  0  0  0  0  0  0  0  0  0
  1  2  2  0
  2  3  2  0
  2  4  1  0
  4  5  1  0
  5  6  2  0
  6  7  1  0
  7  8  2  0
  8  9  1  0
  9 10  2  0
  2 11  1  0
 11 12  1  0
 12 13  2  0
 13 14  1  0
 14 15  2  0
 15 16  1  0
 16 17  2  0
 17 18  1  0
 18 19  2  0
 19 20  1  0
 20 21  1  0
 21 22  2  0
 22 23  1  0
 23 24  1  0
 24 25  2  0
 25 26  1  0
 26 27  2  0
 27 28  1  0
 28 29  2  0
 10  5  1  0
 20 11  1  0
 29 21  1  0
 19 14  1  0
 29 24  1  0
  4 30  1  0
  4 31  1  0
  6 32  1  0
  7 33  1  0
  8 34  1  0
  9 35  1  0
 10 36  1  0
 12 37  1  0
 13 38  1  0
 15 39  1  0
 16 40  1  0
 17 41  1  0
 18 42  1  0
 20 43  1  1
 22 44  1  0
 23 45  1  0
 25 46  1  0
 26 47  1  0
 27 48  1  0
 28 49  1  0
M  END
>  <smiles>  (28) 
O=S(=O)(Cc1ccccc1)N1C=Cc2ccccc2C1c1c[nH]c2ccccc12

>  <score_type>  (28) 
oracle

>  <origin>  (28) 
autodockgpu

>  <m_score__min__energy>  (28) 
-6.9400000000000004

>  <m_primary>  (28) 
energy

>  <rmsd>  (28) 
4.352206674373676

>  <m_score__min__rmsd>  (28) 
4.352206674373676

>  <meeko>  (28) 
{"free_energy": -6.87, "intermolecular_energy": -8.06, "internal_energy": -2.86, "cluster_size": 50, "cluster_id": 1, "rank_in_cluster": 28}

>  <energy>  (28) 
-6.87

>  <cluster_rmsd>  (28) 
0.24

>  <cluster>  (28) 
1

$$$$

     RDKit          3D

 49 53  0  0  1  0  0  0  0  0999 V2000
  140.0220   74.8570  222.0510 O   0  0  0  0  0  0  0  0  0  0  0  0
  139.0530   75.9640  221.7410 S   0  0  0  0  0  0  0  0  0  0  0  0
  137.7180   75.6450  222.3260 O   0  0  0  0  0  0  0  0  0  0  0  0
  138.8420   76.0290  219.9780 C   0  0  0  0  0  0  0  0  0  0  0  0
  138.3200   77.3470  219.5370 C   0  0  0  0  0  0  0  0  0  0  0  0
  137.2140   77.9400  220.1090 C   0  0  0  0  0  0  0  0  0  0  0  0
  136.7870   79.1730  219.6420 C   0  0  0  0  0  0  0  0  0  0  0  0
  137.4780   79.7940  218.6060 C   0  0  0  0  0  0  0  0  0  0  0  0
  138.5810   79.1890  218.0450 C   0  0  0  0  0  0  0  0  0  0  0  0
  139.0190   77.9630  218.4960 C   0  0  0  0  0  0  0  0  0  0  0  0
  139.6640   77.4690  222.3480 N   0  0  0  0  0  0  0  0  0  0  0  0
  138.7000   78.4280  222.7620 C   0  0  0  0  0  0  0  0  0  0  0  0
  139.0840   79.6010  223.2390 C   0  0  0  0  0  0  0  0  0  0  0  0
  140.4960   79.9170  223.3420 C   0  0  0  0  0  0  0  0  0  0  0  0
  140.8970   81.1440  223.8400 C   0  0  0  0  0  0  0  0  0  0  0  0
  142.2570   81.4460  223.9390 C   0  0  0  0  0  0  0  0  0  0  0  0
  143.2200   80.5150  223.5370 C   0  0  0  0  0  0  0  0  0  0  0  0
  142.7970   79.2930  223.0400 C   0  0  0  0  0  0  0  0  0  0  0  0
  141.4360   78.9900  222.9410 C   0  0  0  0  0  0  0  0  0  0  0  0
  141.0770   77.6550  222.3950 C   0  0  2  0  0  0  0  0  0  0  0  0
  141.6400   77.5790  221.0000 C   0  0  0  0  0  0  0  0  0  0  0  0
  142.1400   76.4290  220.4050 C   0  0  0  0  0  0  0  0  0  0  0  0
  142.5580   76.7220  219.1600 N   0  0  0  0  0  0  0  0  0  0  0  0
  142.3400   78.0290  218.9410 C   0  0  0  0  0  0  0  0  0  0  0  0
  142.5900   78.8150  217.8320 C   0  0  0  0  0  0  0  0  0  0  0  0
  142.2680   80.1570  217.8580 C   0  0  0  0  0  0  0  0  0  0  0  0
  141.6910   80.7180  219.0020 C   0  0  0  0  0  0  0  0  0  0  0  0
  141.4410   79.9260  220.1130 C   0  0  0  0  0  0  0  0  0  0  0  0
  141.7630   78.5990  220.0800 C   0  0  0  0  0  0  0  0  0  0  0  0
  139.8144   75.8508  219.4955 H   0  0  0  0  0  0  0  0  0  0  0  0
  138.1128   75.2572  219.6906 H   0  0  0  0  0  0  0  0  0  0  0  0
  136.6762   77.4394  220.9276 H   0  0  0  0  0  0  0  0  0  0  0  0
  135.9063   79.6583  220.0880 H   0  0  0  0  0  0  0  0  0  0  0  0
  137.1418   80.7728  218.2333 H   0  0  0  0  0  0  0  0  0  0  0  0
  139.1187   79.6908  217.2270 H   0  0  0  0  0  0  0  0  0  0  0  0
  139.8992   77.4801  218.0465 H   0  0  0  0  0  0  0  0  0  0  0  0
  137.6280   78.1936  222.6854 H   0  0  0  0  0  0  0  0  0  0  0  0
  138.3316   80.3374  223.5578 H   0  0  0  0  0  0  0  0  0  0  0  0
  140.1450   81.8813  224.1578 H   0  0  0  0  0  0  0  0  0  0  0  0
  142.5726   82.4222  224.3356 H   0  0  0  0  0  0  0  0  0  0  0  0
  144.2922   80.7484  223.6139 H   0  0  0  0  0  0  0  0  0  0  0  0
  143.5426   78.5508  222.7188 H   0  0  0  0  0  0  0  0  0  0  0  0
  141.4890   76.8682  223.0441 H   0  0  0  0  0  0  0  0  0  0  0  0
  142.1871   75.4362  220.8762 H   0  0  0  0  0  0  0  0  0  0  0  0
  142.9850   76.0290  218.4770 H   0  0  0  0  0  0  0  0  0  0  0  0
  143.0436   78.3731  216.9326 H   0  0  0  0  0  0  0  0  0  0  0  0
  142.4655   80.7863  216.9776 H   0  0  0  0  0  0  0  0  0  0  0  0
  141.4354   81.7877  219.0206 H   0  0  0  0  0  0  0  0  0  0  0  0
  140.9867   80.3635  221.0142 H   0  0  0  0  0  0  0  0  0  0  0  0
  1  2  2  0
  2  3  2  0
  2  4  1  0
  4  5  1  0
  5  6  2  0
  6  7  1  0
  7  8  2  0
  8  9  1  0
  9 10  2  0
  2 11  1  0
 11 12  1  0
 12 13  2  0
 13 14  1  0
 14 15  2  0
 15 16  1  0
 16 17  2  0
 17 18  1  0
 18 19  2  0
 19 20  1  0
 20 21  1  0
 21 22  2  0
 22 23  1  0
 23 24  1  0
 24 25  2  0
 25 26  1  0
 26 27  2  0
 27 28  1  0
 28 29  2  0
 10  5  1  0
 20 11  1  0
 29 21  1  0
 19 14  1  0
 29 24  1  0
  4 30  1  0
  4 31  1  0
  6 32  1  0
  7 33  1  0
  8 34  1  0
  9 35  1  0
 10 36  1  0
 12 37  1  0
 13 38  1  0
 15 39  1  0
 16 40  1  0
 17 41  1  0
 18 42  1  0
 20 43  1  1
 22 44  1  0
 23 45  1  0
 25 46  1  0
 26 47  1  0
 27 48  1  0
 28 49  1  0
M  END
>  <smiles>  (29) 
O=S(=O)(Cc1ccccc1)N1C=Cc2ccccc2C1c1c[nH]c2ccccc12

>  <score_type>  (29) 
oracle

>  <origin>  (29) 
autodockgpu

>  <m_score__min__energy>  (29) 
-6.9400000000000004

>  <m_primary>  (29) 
energy

>  <rmsd>  (29) 
4.353750300197596

>  <m_score__min__rmsd>  (29) 
4.353750300197596

>  <meeko>  (29) 
{"free_energy": -6.86, "intermolecular_energy": -8.05, "internal_energy": -2.88, "cluster_size": 50, "cluster_id": 1, "rank_in_cluster": 39}

>  <energy>  (29) 
-6.87

>  <cluster_rmsd>  (29) 
0.24

>  <cluster>  (29) 
1

$$$$

     RDKit          3D

 49 53  0  0  1  0  0  0  0  0999 V2000
  140.0190   74.8460  222.0740 O   0  0  0  0  0  0  0  0  0  0  0  0
  139.0540   75.9530  221.7560 S   0  0  0  0  0  0  0  0  0  0  0  0
  137.7150   75.6390  222.3360 O   0  0  0  0  0  0  0  0  0  0  0  0
  138.8510   76.0110  219.9920 C   0  0  0  0  0  0  0  0  0  0  0  0
  138.3360   77.3300  219.5420 C   0  0  0  0  0  0  0  0  0  0  0  0
  137.2370   77.9350  220.1140 C   0  0  0  0  0  0  0  0  0  0  0  0
  136.8170   79.1680  219.6400 C   0  0  0  0  0  0  0  0  0  0  0  0
  137.5080   79.7760  218.5960 C   0  0  0  0  0  0  0  0  0  0  0  0
  138.6050   79.1580  218.0350 C   0  0  0  0  0  0  0  0  0  0  0  0
  139.0350   77.9330  218.4940 C   0  0  0  0  0  0  0  0  0  0  0  0
  139.6650   77.4590  222.3590 N   0  0  0  0  0  0  0  0  0  0  0  0
  138.7010   78.4160  222.7790 C   0  0  0  0  0  0  0  0  0  0  0  0
  139.0850   79.5900  223.2540 C   0  0  0  0  0  0  0  0  0  0  0  0
  140.4970   79.9090  223.3480 C   0  0  0  0  0  0  0  0  0  0  0  0
  140.8990   81.1370  223.8440 C   0  0  0  0  0  0  0  0  0  0  0  0
  142.2580   81.4420  223.9350 C   0  0  0  0  0  0  0  0  0  0  0  0
  143.2210   80.5140  223.5260 C   0  0  0  0  0  0  0  0  0  0  0  0
  142.7980   79.2900  223.0320 C   0  0  0  0  0  0  0  0  0  0  0  0
  141.4370   78.9850  222.9410 C   0  0  0  0  0  0  0  0  0  0  0  0
  141.0780   77.6490  222.3970 C   0  0  2  0  0  0  0  0  0  0  0  0
  141.6320   77.5740  220.9990 C   0  0  0  0  0  0  0  0  0  0  0  0
  142.1310   76.4260  220.4000 C   0  0  0  0  0  0  0  0  0  0  0  0
  142.5410   76.7200  219.1530 N   0  0  0  0  0  0  0  0  0  0  0  0
  142.3180   78.0270  218.9350 C   0  0  0  0  0  0  0  0  0  0  0  0
  142.5590   78.8130  217.8250 C   0  0  0  0  0  0  0  0  0  0  0  0
  142.2340   80.1540  217.8530 C   0  0  0  0  0  0  0  0  0  0  0  0
  141.6620   80.7130  219.0010 C   0  0  0  0  0  0  0  0  0  0  0  0
  141.4210   79.9210  220.1130 C   0  0  0  0  0  0  0  0  0  0  0  0
  141.7470   78.5950  220.0780 C   0  0  0  0  0  0  0  0  0  0  0  0
  139.8247   75.8266  219.5147 H   0  0  0  0  0  0  0  0  0  0  0  0
  138.1197   75.2410  219.7051 H   0  0  0  0  0  0  0  0  0  0  0  0
  136.6989   77.4441  220.9383 H   0  0  0  0  0  0  0  0  0  0  0  0
  135.9422   79.6633  220.0866 H   0  0  0  0  0  0  0  0  0  0  0  0
  137.1772   80.7542  218.2168 H   0  0  0  0  0  0  0  0  0  0  0  0
  139.1433   79.6492  217.2110 H   0  0  0  0  0  0  0  0  0  0  0  0
  139.9099   77.4401  218.0450 H   0  0  0  0  0  0  0  0  0  0  0  0
  137.6291   78.1790  222.7087 H   0  0  0  0  0  0  0  0  0  0  0  0
  138.3329   80.3245  223.5778 H   0  0  0  0  0  0  0  0  0  0  0  0
  140.1475   81.8726  224.1665 H   0  0  0  0  0  0  0  0  0  0  0  0
  142.5736   82.4185  224.3309 H   0  0  0  0  0  0  0  0  0  0  0  0
  144.2930   80.7508  223.5950 H   0  0  0  0  0  0  0  0  0  0  0  0
  143.5432   78.5489  222.7073 H   0  0  0  0  0  0  0  0  0  0  0  0
  141.4964   76.8636  223.0436 H   0  0  0  0  0  0  0  0  0  0  0  0
  142.1830   75.4330  220.8703 H   0  0  0  0  0  0  0  0  0  0  0  0
  142.9660   76.0280  218.4670 H   0  0  0  0  0  0  0  0  0  0  0  0
  143.0080   78.3721  216.9228 H   0  0  0  0  0  0  0  0  0  0  0  0
  142.4249   80.7841  216.9718 H   0  0  0  0  0  0  0  0  0  0  0  0
  141.4033   81.7819  219.0213 H   0  0  0  0  0  0  0  0  0  0  0  0
  140.9706   80.3572  221.0168 H   0  0  0  0  0  0  0  0  0  0  0  0
  1  2  2  0
  2  3  2  0
  2  4  1  0
  4  5  1  0
  5  6  2  0
  6  7  1  0
  7  8  2  0
  8  9  1  0
  9 10  2  0
  2 11  1  0
 11 12  1  0
 12 13  2  0
 13 14  1  0
 14 15  2  0
 15 16  1  0
 16 17  2  0
 17 18  1  0
 18 19  2  0
 19 20  1  0
 20 21  1  0
 21 22  2  0
 22 23  1  0
 23 24  1  0
 24 25  2  0
 25 26  1  0
 26 27  2  0
 27 28  1  0
 28 29  2  0
 10  5  1  0
 20 11  1  0
 29 21  1  0
 19 14  1  0
 29 24  1  0
  4 30  1  0
  4 31  1  0
  6 32  1  0
  7 33  1  0
  8 34  1  0
  9 35  1  0
 10 36  1  0
 12 37  1  0
 13 38  1  0
 15 39  1  0
 16 40  1  0
 17 41  1  0
 18 42  1  0
 20 43  1  1
 22 44  1  0
 23 45  1  0
 25 46  1  0
 26 47  1  0
 27 48  1  0
 28 49  1  0
M  END
>  <smiles>  (30) 
O=S(=O)(Cc1ccccc1)N1C=Cc2ccccc2C1c1c[nH]c2ccccc12

>  <score_type>  (30) 
oracle

>  <origin>  (30) 
autodockgpu

>  <m_score__min__energy>  (30) 
-6.9400000000000004

>  <m_primary>  (30) 
energy

>  <rmsd>  (30) 
4.350641509505849

>  <m_score__min__rmsd>  (30) 
4.350641509505849

>  <meeko>  (30) 
{"free_energy": -6.86, "intermolecular_energy": -8.05, "internal_energy": -2.88, "cluster_size": 50, "cluster_id": 1, "rank_in_cluster": 37}

>  <energy>  (30) 
-6.86

>  <cluster_rmsd>  (30) 
0.22

>  <cluster>  (30) 
1

$$$$

     RDKit          3D

 49 53  0  0  1  0  0  0  0  0999 V2000
  140.0170   74.8950  222.0920 O   0  0  0  0  0  0  0  0  0  0  0  0
  139.0200   75.9960  221.8630 S   0  0  0  0  0  0  0  0  0  0  0  0
  137.7340   75.6620  222.5440 O   0  0  0  0  0  0  0  0  0  0  0  0
  138.6780   76.0700  220.1210 C   0  0  0  0  0  0  0  0  0  0  0  0
  138.1960   77.4150  219.7150 C   0  0  0  0  0  0  0  0  0  0  0  0
  138.8730   78.2070  218.8120 C   0  0  0  0  0  0  0  0  0  0  0  0
  138.3590   79.4510  218.4810 C   0  0  0  0  0  0  0  0  0  0  0  0
  137.1710   79.8820  219.0640 C   0  0  0  0  0  0  0  0  0  0  0  0
  136.5060   79.0780  219.9640 C   0  0  0  0  0  0  0  0  0  0  0  0
  137.0030   77.8390  220.3040 C   0  0  0  0  0  0  0  0  0  0  0  0
  139.6620   77.5020  222.4330 N   0  0  0  0  0  0  0  0  0  0  0  0
  138.7200   78.4820  222.8470 C   0  0  0  0  0  0  0  0  0  0  0  0
  139.1290   79.6570  223.2970 C   0  0  0  0  0  0  0  0  0  0  0  0
  140.5470   79.9540  223.3710 C   0  0  0  0  0  0  0  0  0  0  0  0
  140.9740   81.1830  223.8410 C   0  0  0  0  0  0  0  0  0  0  0  0
  142.3390   81.4670  223.9120 C   0  0  0  0  0  0  0  0  0  0  0  0
  143.2820   80.5150  223.5100 C   0  0  0  0  0  0  0  0  0  0  0  0
  142.8330   79.2900  223.0410 C   0  0  0  0  0  0  0  0  0  0  0  0
  141.4660   79.0070  222.9710 C   0  0  0  0  0  0  0  0  0  0  0  0
  141.0790   77.6670  222.4540 C   0  0  2  0  0  0  0  0  0  0  0  0
  141.6170   77.5590  221.0510 C   0  0  0  0  0  0  0  0  0  0  0  0
  142.0560   76.3850  220.4550 C   0  0  0  0  0  0  0  0  0  0  0  0
  142.4680   76.6530  219.2030 N   0  0  0  0  0  0  0  0  0  0  0  0
  142.3060   77.9680  218.9790 C   0  0  0  0  0  0  0  0  0  0  0  0
  142.5740   78.7360  217.8630 C   0  0  0  0  0  0  0  0  0  0  0  0
  142.3130   80.0910  217.8850 C   0  0  0  0  0  0  0  0  0  0  0  0
  141.7790   80.6830  219.0350 C   0  0  0  0  0  0  0  0  0  0  0  0
  141.5100   79.9090  220.1540 C   0  0  0  0  0  0  0  0  0  0  0  0
  141.7720   78.5690  220.1230 C   0  0  0  0  0  0  0  0  0  0  0  0
  139.5992   75.8384  219.5662 H   0  0  0  0  0  0  0  0  0  0  0  0
  137.8883   75.3386  219.8941 H   0  0  0  0  0  0  0  0  0  0  0  0
  139.8115   77.8552  218.3588 H   0  0  0  0  0  0  0  0  0  0  0  0
  138.8871   80.0940  217.7615 H   0  0  0  0  0  0  0  0  0  0  0  0
  136.7609   80.8693  218.8050 H   0  0  0  0  0  0  0  0  0  0  0  0
  135.5670   79.4297  220.4164 H   0  0  0  0  0  0  0  0  0  0  0  0
  136.4721   77.1981  221.0233 H   0  0  0  0  0  0  0  0  0  0  0  0
  137.6435   78.2622  222.7930 H   0  0  0  0  0  0  0  0  0  0  0  0
  138.3928   80.4097  223.6155 H   0  0  0  0  0  0  0  0  0  0  0  0
  140.2381   81.9363  224.1587 H   0  0  0  0  0  0  0  0  0  0  0  0
  142.6751   82.4452  224.2863 H   0  0  0  0  0  0  0  0  0  0  0  0
  144.3586   80.7341  223.5649 H   0  0  0  0  0  0  0  0  0  0  0  0
  143.5618   78.5312  222.7199 H   0  0  0  0  0  0  0  0  0  0  0  0
  141.4907   76.8855  223.1095 H   0  0  0  0  0  0  0  0  0  0  0  0
  142.0655   75.3933  220.9308 H   0  0  0  0  0  0  0  0  0  0  0  0
  142.8540   75.9380  218.5170 H   0  0  0  0  0  0  0  0  0  0  0  0
  142.9940   78.2694  216.9598 H   0  0  0  0  0  0  0  0  0  0  0  0
  142.5249   80.7060  216.9980 H   0  0  0  0  0  0  0  0  0  0  0  0
  141.5724   81.7633  219.0515 H   0  0  0  0  0  0  0  0  0  0  0  0
  141.0890   80.3707  221.0593 H   0  0  0  0  0  0  0  0  0  0  0  0
  1  2  2  0
  2  3  2  0
  2  4  1  0
  4  5  1  0
  5  6  2  0
  6  7  1  0
  7  8  2  0
  8  9  1  0
  9 10  2  0
  2 11  1  0
 11 12  1  0
 12 13  2  0
 13 14  1  0
 14 15  2  0
 15 16  1  0
 16 17  2  0
 17 18  1  0
 18 19  2  0
 19 20  1  0
 20 21  1  0
 21 22  2  0
 22 23  1  0
 23 24  1  0
 24 25  2  0
 25 26  1  0
 26 27  2  0
 27 28  1  0
 28 29  2  0
 10  5  1  0
 20 11  1  0
 29 21  1  0
 19 14  1  0
 29 24  1  0
  4 30  1  0
  4 31  1  0
  6 32  1  0
  7 33  1  0
  8 34  1  0
  9 35  1  0
 10 36  1  0
 12 37  1  0
 13 38  1  0
 15 39  1  0
 16 40  1  0
 17 41  1  0
 18 42  1  0
 20 43  1  1
 22 44  1  0
 23 45  1  0
 25 46  1  0
 26 47  1  0
 27 48  1  0
 28 49  1  0
M  END
>  <smiles>  (31) 
O=S(=O)(Cc1ccccc1)N1C=Cc2ccccc2C1c1c[nH]c2ccccc12

>  <score_type>  (31) 
oracle

>  <origin>  (31) 
autodockgpu

>  <m_score__min__energy>  (31) 
-6.9400000000000004

>  <m_primary>  (31) 
energy

>  <rmsd>  (31) 
4.348852301061119

>  <m_score__min__rmsd>  (31) 
4.348852301061119

>  <meeko>  (31) 
{"free_energy": -6.91, "intermolecular_energy": -8.1, "internal_energy": -2.83, "cluster_size": 50, "cluster_id": 1, "rank_in_cluster": 6}

>  <energy>  (31) 
-6.86

>  <cluster_rmsd>  (31) 
0.26

>  <cluster>  (31) 
1

$$$$

     RDKit          3D

 49 53  0  0  1  0  0  0  0  0999 V2000
  139.9950   74.8730  222.1170 O   0  0  0  0  0  0  0  0  0  0  0  0
  139.0420   75.9850  221.7790 S   0  0  0  0  0  0  0  0  0  0  0  0
  137.6950   75.6860  222.3480 O   0  0  0  0  0  0  0  0  0  0  0  0
  138.8580   76.0280  220.0130 C   0  0  0  0  0  0  0  0  0  0  0  0
  138.3480   77.3440  219.5470 C   0  0  0  0  0  0  0  0  0  0  0  0
  137.2570   77.9640  220.1170 C   0  0  0  0  0  0  0  0  0  0  0  0
  136.8420   79.1930  219.6280 C   0  0  0  0  0  0  0  0  0  0  0  0
  137.5300   79.7810  218.5700 C   0  0  0  0  0  0  0  0  0  0  0  0
  138.6180   79.1480  218.0110 C   0  0  0  0  0  0  0  0  0  0  0  0
  139.0440   77.9260  218.4850 C   0  0  0  0  0  0  0  0  0  0  0  0
  139.6590   77.4910  222.3750 N   0  0  0  0  0  0  0  0  0  0  0  0
  138.6990   78.4560  222.7870 C   0  0  0  0  0  0  0  0  0  0  0  0
  139.0880   79.6300  223.2550 C   0  0  0  0  0  0  0  0  0  0  0  0
  140.5010   79.9430  223.3520 C   0  0  0  0  0  0  0  0  0  0  0  0
  140.9080   81.1710  223.8420 C   0  0  0  0  0  0  0  0  0  0  0  0
  142.2690   81.4700  223.9340 C   0  0  0  0  0  0  0  0  0  0  0  0
  143.2280   80.5350  223.5340 C   0  0  0  0  0  0  0  0  0  0  0  0
  142.8000   79.3100  223.0460 C   0  0  0  0  0  0  0  0  0  0  0  0
  141.4370   79.0110  222.9530 C   0  0  0  0  0  0  0  0  0  0  0  0
  141.0730   77.6730  222.4160 C   0  0  2  0  0  0  0  0  0  0  0  0
  141.6310   77.5880  221.0200 C   0  0  0  0  0  0  0  0  0  0  0  0
  142.1270   76.4340  220.4300 C   0  0  0  0  0  0  0  0  0  0  0  0
  142.5420   76.7180  219.1820 N   0  0  0  0  0  0  0  0  0  0  0  0
  142.3250   78.0240  218.9550 C   0  0  0  0  0  0  0  0  0  0  0  0
  142.5730   78.8030  217.8410 C   0  0  0  0  0  0  0  0  0  0  0  0
  142.2530   80.1450  217.8600 C   0  0  0  0  0  0  0  0  0  0  0  0
  141.6810   80.7140  219.0020 C   0  0  0  0  0  0  0  0  0  0  0  0
  141.4330   79.9300  220.1190 C   0  0  0  0  0  0  0  0  0  0  0  0
  141.7530   78.6020  220.0930 C   0  0  0  0  0  0  0  0  0  0  0  0
  139.8367   75.8395  219.5476 H   0  0  0  0  0  0  0  0  0  0  0  0
  138.1299   75.2556  219.7244 H   0  0  0  0  0  0  0  0  0  0  0  0
  136.7210   77.4884  220.9516 H   0  0  0  0  0  0  0  0  0  0  0  0
  135.9739   79.7009  220.0735 H   0  0  0  0  0  0  0  0  0  0  0  0
  137.2031   80.7557  218.1787 H   0  0  0  0  0  0  0  0  0  0  0  0
  139.1535   79.6236  217.1761 H   0  0  0  0  0  0  0  0  0  0  0  0
  139.9123   77.4206  218.0372 H   0  0  0  0  0  0  0  0  0  0  0  0
  137.6260   78.2243  222.7159 H   0  0  0  0  0  0  0  0  0  0  0  0
  138.3387   80.3706  223.5713 H   0  0  0  0  0  0  0  0  0  0  0  0
  140.1595   81.9120  224.1592 H   0  0  0  0  0  0  0  0  0  0  0  0
  142.5885   82.4477  224.3238 H   0  0  0  0  0  0  0  0  0  0  0  0
  144.3010   80.7666  223.6050 H   0  0  0  0  0  0  0  0  0  0  0  0
  143.5424   78.5633  222.7277 H   0  0  0  0  0  0  0  0  0  0  0  0
  141.4851   76.8886  223.0678 H   0  0  0  0  0  0  0  0  0  0  0  0
  142.1735   75.4439  220.9070 H   0  0  0  0  0  0  0  0  0  0  0  0
  142.9650   76.0200  218.5020 H   0  0  0  0  0  0  0  0  0  0  0  0
  143.0236   78.3552  216.9430 H   0  0  0  0  0  0  0  0  0  0  0  0
  142.4483   80.7685  216.9750 H   0  0  0  0  0  0  0  0  0  0  0  0
  141.4275   81.7843  219.0146 H   0  0  0  0  0  0  0  0  0  0  0  0
  140.9822   80.3740  221.0188 H   0  0  0  0  0  0  0  0  0  0  0  0
  1  2  2  0
  2  3  2  0
  2  4  1  0
  4  5  1  0
  5  6  2  0
  6  7  1  0
  7  8  2  0
  8  9  1  0
  9 10  2  0
  2 11  1  0
 11 12  1  0
 12 13  2  0
 13 14  1  0
 14 15  2  0
 15 16  1  0
 16 17  2  0
 17 18  1  0
 18 19  2  0
 19 20  1  0
 20 21  1  0
 21 22  2  0
 22 23  1  0
 23 24  1  0
 24 25  2  0
 25 26  1  0
 26 27  2  0
 27 28  1  0
 28 29  2  0
 10  5  1  0
 20 11  1  0
 29 21  1  0
 19 14  1  0
 29 24  1  0
  4 30  1  0
  4 31  1  0
  6 32  1  0
  7 33  1  0
  8 34  1  0
  9 35  1  0
 10 36  1  0
 12 37  1  0
 13 38  1  0
 15 39  1  0
 16 40  1  0
 17 41  1  0
 18 42  1  0
 20 43  1  1
 22 44  1  0
 23 45  1  0
 25 46  1  0
 26 47  1  0
 27 48  1  0
 28 49  1  0
M  END
>  <smiles>  (32) 
O=S(=O)(Cc1ccccc1)N1C=Cc2ccccc2C1c1c[nH]c2ccccc12

>  <score_type>  (32) 
oracle

>  <origin>  (32) 
autodockgpu

>  <m_score__min__energy>  (32) 
-6.9400000000000004

>  <m_primary>  (32) 
energy

>  <rmsd>  (32) 
4.342623519708923

>  <m_score__min__rmsd>  (32) 
4.342623519708923

>  <meeko>  (32) 
{"free_energy": -6.86, "intermolecular_energy": -8.05, "internal_energy": -2.88, "cluster_size": 50, "cluster_id": 1, "rank_in_cluster": 42}

>  <energy>  (32) 
-6.86

>  <cluster_rmsd>  (32) 
0.24

>  <cluster>  (32) 
1

$$$$

     RDKit          3D

 49 53  0  0  1  0  0  0  0  0999 V2000
  139.9790   74.9560  221.9920 O   0  0  0  0  0  0  0  0  0  0  0  0
  139.0030   76.0750  221.7590 S   0  0  0  0  0  0  0  0  0  0  0  0
  137.7020   75.7540  222.4170 O   0  0  0  0  0  0  0  0  0  0  0  0
  138.6880   76.1720  220.0130 C   0  0  0  0  0  0  0  0  0  0  0  0
  138.2050   77.5200  219.6180 C   0  0  0  0  0  0  0  0  0  0  0  0
  138.8590   78.3020  218.6900 C   0  0  0  0  0  0  0  0  0  0  0  0
  138.3450   79.5500  218.3720 C   0  0  0  0  0  0  0  0  0  0  0  0
  137.1820   79.9950  218.9930 C   0  0  0  0  0  0  0  0  0  0  0  0
  136.5410   79.2010  219.9190 C   0  0  0  0  0  0  0  0  0  0  0  0
  137.0370   77.9580  220.2460 C   0  0  0  0  0  0  0  0  0  0  0  0
  139.6600   77.5640  222.3540 N   0  0  0  0  0  0  0  0  0  0  0  0
  138.7280   78.5400  222.8010 C   0  0  0  0  0  0  0  0  0  0  0  0
  139.1490   79.7030  223.2710 C   0  0  0  0  0  0  0  0  0  0  0  0
  140.5690   79.9910  223.3340 C   0  0  0  0  0  0  0  0  0  0  0  0
  141.0090   81.2070  223.8260 C   0  0  0  0  0  0  0  0  0  0  0  0
  142.3770   81.4820  223.8860 C   0  0  0  0  0  0  0  0  0  0  0  0
  143.3090   80.5350  223.4520 C   0  0  0  0  0  0  0  0  0  0  0  0
  142.8480   79.3230  222.9620 C   0  0  0  0  0  0  0  0  0  0  0  0
  141.4790   79.0480  222.9020 C   0  0  0  0  0  0  0  0  0  0  0  0
  141.0780   77.7220  222.3610 C   0  0  2  0  0  0  0  0  0  0  0  0
  141.5980   77.6420  220.9500 C   0  0  0  0  0  0  0  0  0  0  0  0
  142.0360   76.4810  220.3270 C   0  0  0  0  0  0  0  0  0  0  0  0
  142.4310   76.7730  219.0750 N   0  0  0  0  0  0  0  0  0  0  0  0
  142.2580   78.0910  218.8770 C   0  0  0  0  0  0  0  0  0  0  0  0
  142.5080   78.8800  217.7710 C   0  0  0  0  0  0  0  0  0  0  0  0
  142.2400   80.2330  217.8210 C   0  0  0  0  0  0  0  0  0  0  0  0
  141.7180   80.8010  218.9880 C   0  0  0  0  0  0  0  0  0  0  0  0
  141.4680   80.0070  220.0960 C   0  0  0  0  0  0  0  0  0  0  0  0
  141.7360   78.6680  220.0380 C   0  0  0  0  0  0  0  0  0  0  0  0
  139.6191   75.9532  219.4697 H   0  0  0  0  0  0  0  0  0  0  0  0
  137.9059   75.4398  219.7636 H   0  0  0  0  0  0  0  0  0  0  0  0
  139.7786   77.9399  218.2070 H   0  0  0  0  0  0  0  0  0  0  0  0
  138.8542   80.1852  217.6323 H   0  0  0  0  0  0  0  0  0  0  0  0
  136.7725   80.9850  218.7436 H   0  0  0  0  0  0  0  0  0  0  0  0
  135.6223   79.5640  220.4029 H   0  0  0  0  0  0  0  0  0  0  0  0
  136.5246   77.3247  220.9852 H   0  0  0  0  0  0  0  0  0  0  0  0
  137.6498   78.3269  222.7558 H   0  0  0  0  0  0  0  0  0  0  0  0
  138.4209   80.4526  223.6145 H   0  0  0  0  0  0  0  0  0  0  0  0
  140.2815   81.9570  224.1698 H   0  0  0  0  0  0  0  0  0  0  0  0
  142.7232   82.4500  224.2773 H   0  0  0  0  0  0  0  0  0  0  0  0
  144.3873   80.7474  223.4984 H   0  0  0  0  0  0  0  0  0  0  0  0
  143.5691   78.5678  222.6159 H   0  0  0  0  0  0  0  0  0  0  0  0
  141.4933   76.9244  222.9946 H   0  0  0  0  0  0  0  0  0  0  0  0
  142.0566   75.4810  220.7848 H   0  0  0  0  0  0  0  0  0  0  0  0
  142.8110   76.0730  218.3720 H   0  0  0  0  0  0  0  0  0  0  0  0
  142.9189   78.4318  216.8543 H   0  0  0  0  0  0  0  0  0  0  0  0
  142.4370   80.8651  216.9426 H   0  0  0  0  0  0  0  0  0  0  0  0
  141.5056   81.8796  219.0262 H   0  0  0  0  0  0  0  0  0  0  0  0
  141.0572   80.4509  221.0148 H   0  0  0  0  0  0  0  0  0  0  0  0
  1  2  2  0
  2  3  2  0
  2  4  1  0
  4  5  1  0
  5  6  2  0
  6  7  1  0
  7  8  2  0
  8  9  1  0
  9 10  2  0
  2 11  1  0
 11 12  1  0
 12 13  2  0
 13 14  1  0
 14 15  2  0
 15 16  1  0
 16 17  2  0
 17 18  1  0
 18 19  2  0
 19 20  1  0
 20 21  1  0
 21 22  2  0
 22 23  1  0
 23 24  1  0
 24 25  2  0
 25 26  1  0
 26 27  2  0
 27 28  1  0
 28 29  2  0
 10  5  1  0
 20 11  1  0
 29 21  1  0
 19 14  1  0
 29 24  1  0
  4 30  1  0
  4 31  1  0
  6 32  1  0
  7 33  1  0
  8 34  1  0
  9 35  1  0
 10 36  1  0
 12 37  1  0
 13 38  1  0
 15 39  1  0
 16 40  1  0
 17 41  1  0
 18 42  1  0
 20 43  1  1
 22 44  1  0
 23 45  1  0
 25 46  1  0
 26 47  1  0
 27 48  1  0
 28 49  1  0
M  END
>  <smiles>  (33) 
O=S(=O)(Cc1ccccc1)N1C=Cc2ccccc2C1c1c[nH]c2ccccc12

>  <score_type>  (33) 
oracle

>  <origin>  (33) 
autodockgpu

>  <m_score__min__energy>  (33) 
-6.9400000000000004

>  <m_primary>  (33) 
energy

>  <rmsd>  (33) 
4.366137825901126

>  <m_score__min__rmsd>  (33) 
4.366137825901126

>  <meeko>  (33) 
{"free_energy": -6.87, "intermolecular_energy": -8.06, "internal_energy": -2.84, "cluster_size": 50, "cluster_id": 1, "rank_in_cluster": 27}

>  <energy>  (33) 
-6.86

>  <cluster_rmsd>  (33) 
0.25

>  <cluster>  (33) 
1

$$$$

     RDKit          3D

 49 53  0  0  1  0  0  0  0  0999 V2000
  140.0030   74.8620  222.1270 O   0  0  0  0  0  0  0  0  0  0  0  0
  139.0450   75.9710  221.7960 S   0  0  0  0  0  0  0  0  0  0  0  0
  137.7040   75.6710  222.3800 O   0  0  0  0  0  0  0  0  0  0  0  0
  138.8430   76.0120  220.0320 C   0  0  0  0  0  0  0  0  0  0  0  0
  138.3300   77.3270  219.5690 C   0  0  0  0  0  0  0  0  0  0  0  0
  137.2340   77.9410  220.1360 C   0  0  0  0  0  0  0  0  0  0  0  0
  136.8150   79.1690  219.6490 C   0  0  0  0  0  0  0  0  0  0  0  0
  137.5060   79.7640  218.5970 C   0  0  0  0  0  0  0  0  0  0  0  0
  138.6000   79.1380  218.0410 C   0  0  0  0  0  0  0  0  0  0  0  0
  139.0290   77.9170  218.5130 C   0  0  0  0  0  0  0  0  0  0  0  0
  139.6650   77.4800  222.3830 N   0  0  0  0  0  0  0  0  0  0  0  0
  138.7070   78.4490  222.7890 C   0  0  0  0  0  0  0  0  0  0  0  0
  139.0980   79.6260  223.2510 C   0  0  0  0  0  0  0  0  0  0  0  0
  140.5120   79.9360  223.3460 C   0  0  0  0  0  0  0  0  0  0  0  0
  140.9200   81.1660  223.8290 C   0  0  0  0  0  0  0  0  0  0  0  0
  142.2820   81.4630  223.9210 C   0  0  0  0  0  0  0  0  0  0  0  0
  143.2390   80.5230  223.5270 C   0  0  0  0  0  0  0  0  0  0  0  0
  142.8090   79.2960  223.0460 C   0  0  0  0  0  0  0  0  0  0  0  0
  141.4460   79.0000  222.9540 C   0  0  0  0  0  0  0  0  0  0  0  0
  141.0790   77.6600  222.4250 C   0  0  2  0  0  0  0  0  0  0  0  0
  141.6380   77.5640  221.0290 C   0  0  0  0  0  0  0  0  0  0  0  0
  142.1270   76.4050  220.4450 C   0  0  0  0  0  0  0  0  0  0  0  0
  142.5450   76.6800  219.1970 N   0  0  0  0  0  0  0  0  0  0  0  0
  142.3370   77.9870  218.9630 C   0  0  0  0  0  0  0  0  0  0  0  0
  142.5900   78.7590  217.8460 C   0  0  0  0  0  0  0  0  0  0  0  0
  142.2790   80.1030  217.8580 C   0  0  0  0  0  0  0  0  0  0  0  0
  141.7090   80.6810  218.9980 C   0  0  0  0  0  0  0  0  0  0  0  0
  141.4550   79.9040  220.1180 C   0  0  0  0  0  0  0  0  0  0  0  0
  141.7670   78.5740  220.0980 C   0  0  0  0  0  0  0  0  0  0  0  0
  139.8167   75.8217  219.5570 H   0  0  0  0  0  0  0  0  0  0  0  0
  138.1109   75.2401  219.7523 H   0  0  0  0  0  0  0  0  0  0  0  0
  136.6969   77.4609  220.9673 H   0  0  0  0  0  0  0  0  0  0  0  0
  135.9416   79.6706  220.0911 H   0  0  0  0  0  0  0  0  0  0  0  0
  137.1768   80.7388  218.2078 H   0  0  0  0  0  0  0  0  0  0  0  0
  139.1373   79.6188  217.2103 H   0  0  0  0  0  0  0  0  0  0  0  0
  139.9025   77.4177  218.0684 H   0  0  0  0  0  0  0  0  0  0  0  0
  137.6336   78.2189  222.7187 H   0  0  0  0  0  0  0  0  0  0  0  0
  138.3502   80.3698  223.5632 H   0  0  0  0  0  0  0  0  0  0  0  0
  140.1723   81.9102  224.1406 H   0  0  0  0  0  0  0  0  0  0  0  0
  142.6033   82.4422  224.3057 H   0  0  0  0  0  0  0  0  0  0  0  0
  144.3125   80.7526  223.5973 H   0  0  0  0  0  0  0  0  0  0  0  0
  143.5499   78.5457  222.7327 H   0  0  0  0  0  0  0  0  0  0  0  0
  141.4889   76.8797  223.0832 H   0  0  0  0  0  0  0  0  0  0  0  0
  142.1666   75.4169  220.9267 H   0  0  0  0  0  0  0  0  0  0  0  0
  142.9650   75.9770  218.5200 H   0  0  0  0  0  0  0  0  0  0  0  0
  143.0378   78.3039  216.9502 H   0  0  0  0  0  0  0  0  0  0  0  0
  142.4793   80.7211  216.9704 H   0  0  0  0  0  0  0  0  0  0  0  0
  141.4622   81.7529  219.0055 H   0  0  0  0  0  0  0  0  0  0  0  0
  141.0060   80.3548  221.0153 H   0  0  0  0  0  0  0  0  0  0  0  0
  1  2  2  0
  2  3  2  0
  2  4  1  0
  4  5  1  0
  5  6  2  0
  6  7  1  0
  7  8  2  0
  8  9  1  0
  9 10  2  0
  2 11  1  0
 11 12  1  0
 12 13  2  0
 13 14  1  0
 14 15  2  0
 15 16  1  0
 16 17  2  0
 17 18  1  0
 18 19  2  0
 19 20  1  0
 20 21  1  0
 21 22  2  0
 22 23  1  0
 23 24  1  0
 24 25  2  0
 25 26  1  0
 26 27  2  0
 27 28  1  0
 28 29  2  0
 10  5  1  0
 20 11  1  0
 29 21  1  0
 19 14  1  0
 29 24  1  0
  4 30  1  0
  4 31  1  0
  6 32  1  0
  7 33  1  0
  8 34  1  0
  9 35  1  0
 10 36  1  0
 12 37  1  0
 13 38  1  0
 15 39  1  0
 16 40  1  0
 17 41  1  0
 18 42  1  0
 20 43  1  1
 22 44  1  0
 23 45  1  0
 25 46  1  0
 26 47  1  0
 27 48  1  0
 28 49  1  0
M  END
>  <smiles>  (34) 
O=S(=O)(Cc1ccccc1)N1C=Cc2ccccc2C1c1c[nH]c2ccccc12

>  <score_type>  (34) 
oracle

>  <origin>  (34) 
autodockgpu

>  <m_score__min__energy>  (34) 
-6.9400000000000004

>  <m_primary>  (34) 
energy

>  <rmsd>  (34) 
4.340218118967602

>  <m_score__min__rmsd>  (34) 
4.340218118967602

>  <meeko>  (34) 
{"free_energy": -6.86, "intermolecular_energy": -8.05, "internal_energy": -2.88, "cluster_size": 50, "cluster_id": 1, "rank_in_cluster": 36}

>  <energy>  (34) 
-6.86

>  <cluster_rmsd>  (34) 
0.25

>  <cluster>  (34) 
1

$$$$

     RDKit          3D

 49 53  0  0  1  0  0  0  0  0999 V2000
  140.0270   74.8940  222.0810 O   0  0  0  0  0  0  0  0  0  0  0  0
  139.0300   75.9920  221.8390 S   0  0  0  0  0  0  0  0  0  0  0  0
  137.7370   75.6550  222.5060 O   0  0  0  0  0  0  0  0  0  0  0  0
  138.7070   76.0650  220.0940 C   0  0  0  0  0  0  0  0  0  0  0  0
  138.2240   77.4080  219.6810 C   0  0  0  0  0  0  0  0  0  0  0  0
  138.9020   78.1970  218.7770 C   0  0  0  0  0  0  0  0  0  0  0  0
  138.3870   79.4390  218.4410 C   0  0  0  0  0  0  0  0  0  0  0  0
  137.1970   79.8710  219.0200 C   0  0  0  0  0  0  0  0  0  0  0  0
  136.5320   79.0700  219.9220 C   0  0  0  0  0  0  0  0  0  0  0  0
  137.0300   77.8330  220.2680 C   0  0  0  0  0  0  0  0  0  0  0  0
  139.6620   77.5000  222.4160 N   0  0  0  0  0  0  0  0  0  0  0  0
  138.7130   78.4750  222.8270 C   0  0  0  0  0  0  0  0  0  0  0  0
  139.1140   79.6510  223.2820 C   0  0  0  0  0  0  0  0  0  0  0  0
  140.5300   79.9540  223.3640 C   0  0  0  0  0  0  0  0  0  0  0  0
  140.9500   81.1840  223.8380 C   0  0  0  0  0  0  0  0  0  0  0  0
  142.3130   81.4740  223.9170 C   0  0  0  0  0  0  0  0  0  0  0  0
  143.2620   80.5280  223.5170 C   0  0  0  0  0  0  0  0  0  0  0  0
  142.8210   79.3020  223.0440 C   0  0  0  0  0  0  0  0  0  0  0  0
  141.4560   79.0120  222.9660 C   0  0  0  0  0  0  0  0  0  0  0  0
  141.0780   77.6720  222.4440 C   0  0  2  0  0  0  0  0  0  0  0  0
  141.6230   77.5690  221.0440 C   0  0  0  0  0  0  0  0  0  0  0  0
  142.0800   76.4010  220.4510 C   0  0  0  0  0  0  0  0  0  0  0  0
  142.4950   76.6720  219.2000 N   0  0  0  0  0  0  0  0  0  0  0  0
  142.3160   77.9850  218.9740 C   0  0  0  0  0  0  0  0  0  0  0  0
  142.5790   78.7550  217.8580 C   0  0  0  0  0  0  0  0  0  0  0  0
  142.3000   80.1060  217.8780 C   0  0  0  0  0  0  0  0  0  0  0  0
  141.7530   80.6920  219.0250 C   0  0  0  0  0  0  0  0  0  0  0  0
  141.4900   79.9170  220.1440 C   0  0  0  0  0  0  0  0  0  0  0  0
  141.7690   78.5800  220.1160 C   0  0  0  0  0  0  0  0  0  0  0  0
  139.6353   75.8369  219.5496 H   0  0  0  0  0  0  0  0  0  0  0  0
  137.9222   75.3308  219.8592 H   0  0  0  0  0  0  0  0  0  0  0  0
  139.8419   77.8447  218.3270 H   0  0  0  0  0  0  0  0  0  0  0  0
  138.9158   80.0802  217.7204 H   0  0  0  0  0  0  0  0  0  0  0  0
  136.7859   80.8565  218.7560 H   0  0  0  0  0  0  0  0  0  0  0  0
  135.5919   79.4223  220.3715 H   0  0  0  0  0  0  0  0  0  0  0  0
  136.4995   77.1947  220.9899 H   0  0  0  0  0  0  0  0  0  0  0  0
  137.6379   78.2504  222.7664 H   0  0  0  0  0  0  0  0  0  0  0  0
  138.3727   80.3996  223.5984 H   0  0  0  0  0  0  0  0  0  0  0  0
  140.2093   81.9339  224.1528 H   0  0  0  0  0  0  0  0  0  0  0  0
  142.6427   82.4525  224.2962 H   0  0  0  0  0  0  0  0  0  0  0  0
  144.3372   80.7524  223.5765 H   0  0  0  0  0  0  0  0  0  0  0  0
  143.5552   78.5472  222.7258 H   0  0  0  0  0  0  0  0  0  0  0  0
  141.4906   76.8912  223.0998 H   0  0  0  0  0  0  0  0  0  0  0  0
  142.1000   75.4100  220.9281 H   0  0  0  0  0  0  0  0  0  0  0  0
  142.8920   75.9620  218.5170 H   0  0  0  0  0  0  0  0  0  0  0  0
  143.0091   78.2931  216.9571 H   0  0  0  0  0  0  0  0  0  0  0  0
  142.5078   80.7231  216.9914 H   0  0  0  0  0  0  0  0  0  0  0  0
  141.5313   81.7693  219.0388 H   0  0  0  0  0  0  0  0  0  0  0  0
  141.0602   80.3749  221.0471 H   0  0  0  0  0  0  0  0  0  0  0  0
  1  2  2  0
  2  3  2  0
  2  4  1  0
  4  5  1  0
  5  6  2  0
  6  7  1  0
  7  8  2  0
  8  9  1  0
  9 10  2  0
  2 11  1  0
 11 12  1  0
 12 13  2  0
 13 14  1  0
 14 15  2  0
 15 16  1  0
 16 17  2  0
 17 18  1  0
 18 19  2  0
 19 20  1  0
 20 21  1  0
 21 22  2  0
 22 23  1  0
 23 24  1  0
 24 25  2  0
 25 26  1  0
 26 27  2  0
 27 28  1  0
 28 29  2  0
 10  5  1  0
 20 11  1  0
 29 21  1  0
 19 14  1  0
 29 24  1  0
  4 30  1  0
  4 31  1  0
  6 32  1  0
  7 33  1  0
  8 34  1  0
  9 35  1  0
 10 36  1  0
 12 37  1  0
 13 38  1  0
 15 39  1  0
 16 40  1  0
 17 41  1  0
 18 42  1  0
 20 43  1  1
 22 44  1  0
 23 45  1  0
 25 46  1  0
 26 47  1  0
 27 48  1  0
 28 49  1  0
M  END
>  <smiles>  (35) 
O=S(=O)(Cc1ccccc1)N1C=Cc2ccccc2C1c1c[nH]c2ccccc12

>  <score_type>  (35) 
oracle

>  <origin>  (35) 
autodockgpu

>  <m_score__min__energy>  (35) 
-6.9400000000000004

>  <m_primary>  (35) 
energy

>  <rmsd>  (35) 
4.3462870742731035

>  <m_score__min__rmsd>  (35) 
4.3462870742731035

>  <meeko>  (35) 
{"free_energy": -6.89, "intermolecular_energy": -8.09, "internal_energy": -2.83, "cluster_size": 50, "cluster_id": 1, "rank_in_cluster": 15}

>  <energy>  (35) 
-6.86

>  <cluster_rmsd>  (35) 
0.26

>  <cluster>  (35) 
1

$$$$

     RDKit          3D

 49 53  0  0  1  0  0  0  0  0999 V2000
  140.0620   74.8260  222.0140 O   0  0  0  0  0  0  0  0  0  0  0  0
  139.0600   75.9150  221.7500 S   0  0  0  0  0  0  0  0  0  0  0  0
  137.7530   75.5610  222.3770 O   0  0  0  0  0  0  0  0  0  0  0  0
  138.7870   75.9950  219.9970 C   0  0  0  0  0  0  0  0  0  0  0  0
  138.2590   77.3200  219.5840 C   0  0  0  0  0  0  0  0  0  0  0  0
  138.9020   78.1250  218.6670 C   0  0  0  0  0  0  0  0  0  0  0  0
  138.3460   79.3500  218.3310 C   0  0  0  0  0  0  0  0  0  0  0  0
  137.1520   79.7490  218.9240 C   0  0  0  0  0  0  0  0  0  0  0  0
  136.5220   78.9340  219.8380 C   0  0  0  0  0  0  0  0  0  0  0  0
  137.0610   77.7130  220.1830 C   0  0  0  0  0  0  0  0  0  0  0  0
  139.6600   77.4260  222.3530 N   0  0  0  0  0  0  0  0  0  0  0  0
  138.6900   78.3740  222.7770 C   0  0  0  0  0  0  0  0  0  0  0  0
  139.0650   79.5510  223.2520 C   0  0  0  0  0  0  0  0  0  0  0  0
  140.4750   79.8820  223.3420 C   0  0  0  0  0  0  0  0  0  0  0  0
  140.8670   81.1120  223.8380 C   0  0  0  0  0  0  0  0  0  0  0  0
  142.2240   81.4290  223.9250 C   0  0  0  0  0  0  0  0  0  0  0  0
  143.1940   80.5100  223.5130 C   0  0  0  0  0  0  0  0  0  0  0  0
  142.7800   79.2830  223.0180 C   0  0  0  0  0  0  0  0  0  0  0  0
  141.4210   78.9660  222.9320 C   0  0  0  0  0  0  0  0  0  0  0  0
  141.0710   77.6270  222.3870 C   0  0  2  0  0  0  0  0  0  0  0  0
  141.6220   77.5590  220.9870 C   0  0  0  0  0  0  0  0  0  0  0  0
  142.1100   76.4110  220.3780 C   0  0  0  0  0  0  0  0  0  0  0  0
  142.5200   76.7110  219.1330 N   0  0  0  0  0  0  0  0  0  0  0  0
  142.3090   78.0210  218.9260 C   0  0  0  0  0  0  0  0  0  0  0  0
  142.5550   78.8140  217.8220 C   0  0  0  0  0  0  0  0  0  0  0  0
  142.2420   80.1580  217.8610 C   0  0  0  0  0  0  0  0  0  0  0  0
  141.6780   80.7130  219.0140 C   0  0  0  0  0  0  0  0  0  0  0  0
  141.4320   79.9150  220.1210 C   0  0  0  0  0  0  0  0  0  0  0  0
  141.7450   78.5860  220.0740 C   0  0  0  0  0  0  0  0  0  0  0  0
  139.7403   75.8138  219.4790 H   0  0  0  0  0  0  0  0  0  0  0  0
  138.0424   75.2305  219.7304 H   0  0  0  0  0  0  0  0  0  0  0  0
  139.8463   77.7985  218.2069 H   0  0  0  0  0  0  0  0  0  0  0  0
  138.8458   80.0026  217.6000 H   0  0  0  0  0  0  0  0  0  0  0  0
  136.7089   80.7209  218.6612 H   0  0  0  0  0  0  0  0  0  0  0  0
  135.5779   79.2610  220.2981 H   0  0  0  0  0  0  0  0  0  0  0  0
  136.5582   77.0628  220.9141 H   0  0  0  0  0  0  0  0  0  0  0  0
  137.6200   78.1278  222.7099 H   0  0  0  0  0  0  0  0  0  0  0  0
  138.3075   80.2787  223.5787 H   0  0  0  0  0  0  0  0  0  0  0  0
  140.1099   81.8404  224.1639 H   0  0  0  0  0  0  0  0  0  0  0  0
  142.5320   82.4082  224.3203 H   0  0  0  0  0  0  0  0  0  0  0  0
  144.2641   80.7557  223.5803 H   0  0  0  0  0  0  0  0  0  0  0  0
  143.5305   78.5493  222.6886 H   0  0  0  0  0  0  0  0  0  0  0  0
  141.4973   76.8437  223.0310 H   0  0  0  0  0  0  0  0  0  0  0  0
  142.1543   75.4140  220.8406 H   0  0  0  0  0  0  0  0  0  0  0  0
  142.9360   76.0210  218.4410 H   0  0  0  0  0  0  0  0  0  0  0  0
  142.9985   78.3763  216.9155 H   0  0  0  0  0  0  0  0  0  0  0  0
  142.4365   80.7930  216.9841 H   0  0  0  0  0  0  0  0  0  0  0  0
  141.4291   81.7841  219.0428 H   0  0  0  0  0  0  0  0  0  0  0  0
  140.9885   80.3485  221.0295 H   0  0  0  0  0  0  0  0  0  0  0  0
  1  2  2  0
  2  3  2  0
  2  4  1  0
  4  5  1  0
  5  6  2  0
  6  7  1  0
  7  8  2  0
  8  9  1  0
  9 10  2  0
  2 11  1  0
 11 12  1  0
 12 13  2  0
 13 14  1  0
 14 15  2  0
 15 16  1  0
 16 17  2  0
 17 18  1  0
 18 19  2  0
 19 20  1  0
 20 21  1  0
 21 22  2  0
 22 23  1  0
 23 24  1  0
 24 25  2  0
 25 26  1  0
 26 27  2  0
 27 28  1  0
 28 29  2  0
 10  5  1  0
 20 11  1  0
 29 21  1  0
 19 14  1  0
 29 24  1  0
  4 30  1  0
  4 31  1  0
  6 32  1  0
  7 33  1  0
  8 34  1  0
  9 35  1  0
 10 36  1  0
 12 37  1  0
 13 38  1  0
 15 39  1  0
 16 40  1  0
 17 41  1  0
 18 42  1  0
 20 43  1  1
 22 44  1  0
 23 45  1  0
 25 46  1  0
 26 47  1  0
 27 48  1  0
 28 49  1  0
M  END
>  <smiles>  (36) 
O=S(=O)(Cc1ccccc1)N1C=Cc2ccccc2C1c1c[nH]c2ccccc12

>  <score_type>  (36) 
oracle

>  <origin>  (36) 
autodockgpu

>  <m_score__min__energy>  (36) 
-6.9400000000000004

>  <m_primary>  (36) 
energy

>  <rmsd>  (36) 
4.360379493582206

>  <m_score__min__rmsd>  (36) 
4.360379493582206

>  <meeko>  (36) 
{"free_energy": -6.87, "intermolecular_energy": -8.07, "internal_energy": -2.84, "cluster_size": 50, "cluster_id": 1, "rank_in_cluster": 24}

>  <energy>  (36) 
-6.86

>  <cluster_rmsd>  (36) 
0.25

>  <cluster>  (36) 
1

$$$$

     RDKit          3D

 49 53  0  0  1  0  0  0  0  0999 V2000
  140.0290   74.8510  222.0560 O   0  0  0  0  0  0  0  0  0  0  0  0
  139.0550   75.9540  221.7530 S   0  0  0  0  0  0  0  0  0  0  0  0
  137.7230   75.6300  222.3450 O   0  0  0  0  0  0  0  0  0  0  0  0
  138.8340   76.0210  219.9910 C   0  0  0  0  0  0  0  0  0  0  0  0
  138.3160   77.3420  219.5530 C   0  0  0  0  0  0  0  0  0  0  0  0
  137.2130   77.9370  220.1270 C   0  0  0  0  0  0  0  0  0  0  0  0
  136.7900   79.1730  219.6630 C   0  0  0  0  0  0  0  0  0  0  0  0
  137.4830   79.7940  218.6280 C   0  0  0  0  0  0  0  0  0  0  0  0
  138.5830   79.1860  218.0650 C   0  0  0  0  0  0  0  0  0  0  0  0
  139.0170   77.9580  218.5130 C   0  0  0  0  0  0  0  0  0  0  0  0
  139.6630   77.4610  222.3580 N   0  0  0  0  0  0  0  0  0  0  0  0
  138.6980   78.4180  222.7750 C   0  0  0  0  0  0  0  0  0  0  0  0
  139.0810   79.5920  223.2510 C   0  0  0  0  0  0  0  0  0  0  0  0
  140.4920   79.9110  223.3510 C   0  0  0  0  0  0  0  0  0  0  0  0
  140.8920   81.1380  223.8480 C   0  0  0  0  0  0  0  0  0  0  0  0
  142.2510   81.4440  223.9430 C   0  0  0  0  0  0  0  0  0  0  0  0
  143.2150   80.5160  223.5380 C   0  0  0  0  0  0  0  0  0  0  0  0
  142.7940   79.2920  223.0420 C   0  0  0  0  0  0  0  0  0  0  0  0
  141.4330   78.9860  222.9470 C   0  0  0  0  0  0  0  0  0  0  0  0
  141.0760   77.6500  222.4010 C   0  0  2  0  0  0  0  0  0  0  0  0
  141.6360   77.5760  221.0050 C   0  0  0  0  0  0  0  0  0  0  0  0
  142.1390   76.4280  220.4090 C   0  0  0  0  0  0  0  0  0  0  0  0
  142.5530   76.7210  219.1640 N   0  0  0  0  0  0  0  0  0  0  0  0
  142.3280   78.0280  218.9440 C   0  0  0  0  0  0  0  0  0  0  0  0
  142.5720   78.8140  217.8340 C   0  0  0  0  0  0  0  0  0  0  0  0
  142.2440   80.1540  217.8600 C   0  0  0  0  0  0  0  0  0  0  0  0
  141.6680   80.7130  219.0050 C   0  0  0  0  0  0  0  0  0  0  0  0
  141.4240   79.9220  220.1170 C   0  0  0  0  0  0  0  0  0  0  0  0
  141.7520   78.5960  220.0840 C   0  0  0  0  0  0  0  0  0  0  0  0
  139.8027   75.8381  219.5029 H   0  0  0  0  0  0  0  0  0  0  0  0
  138.0991   75.2531  219.7078 H   0  0  0  0  0  0  0  0  0  0  0  0
  136.6740   77.4363  220.9448 H   0  0  0  0  0  0  0  0  0  0  0  0
  135.9112   79.6604  220.1105 H   0  0  0  0  0  0  0  0  0  0  0  0
  137.1505   80.7751  218.2579 H   0  0  0  0  0  0  0  0  0  0  0  0
  139.1217   79.6873  217.2474 H   0  0  0  0  0  0  0  0  0  0  0  0
  139.8955   77.4732  218.0623 H   0  0  0  0  0  0  0  0  0  0  0  0
  137.6263   78.1812  222.7016 H   0  0  0  0  0  0  0  0  0  0  0  0
  138.3278   80.3269  223.5713 H   0  0  0  0  0  0  0  0  0  0  0  0
  140.1392   81.8732  224.1686 H   0  0  0  0  0  0  0  0  0  0  0  0
  142.5650   82.4211  224.3389 H   0  0  0  0  0  0  0  0  0  0  0  0
  144.2867   80.7526  223.6115 H   0  0  0  0  0  0  0  0  0  0  0  0
  143.5406   78.5516  222.7189 H   0  0  0  0  0  0  0  0  0  0  0  0
  141.4915   76.8635  223.0481 H   0  0  0  0  0  0  0  0  0  0  0  0
  142.1907   75.4356  220.8806 H   0  0  0  0  0  0  0  0  0  0  0  0
  142.9810   76.0300  218.4800 H   0  0  0  0  0  0  0  0  0  0  0  0
  143.0256   78.3735  216.9339 H   0  0  0  0  0  0  0  0  0  0  0  0
  142.4359   80.7835  216.9786 H   0  0  0  0  0  0  0  0  0  0  0  0
  141.4082   81.7817  219.0234 H   0  0  0  0  0  0  0  0  0  0  0  0
  140.9699   80.3584  221.0188 H   0  0  0  0  0  0  0  0  0  0  0  0
  1  2  2  0
  2  3  2  0
  2  4  1  0
  4  5  1  0
  5  6  2  0
  6  7  1  0
  7  8  2  0
  8  9  1  0
  9 10  2  0
  2 11  1  0
 11 12  1  0
 12 13  2  0
 13 14  1  0
 14 15  2  0
 15 16  1  0
 16 17  2  0
 17 18  1  0
 18 19  2  0
 19 20  1  0
 20 21  1  0
 21 22  2  0
 22 23  1  0
 23 24  1  0
 24 25  2  0
 25 26  1  0
 26 27  2  0
 27 28  1  0
 28 29  2  0
 10  5  1  0
 20 11  1  0
 29 21  1  0
 19 14  1  0
 29 24  1  0
  4 30  1  0
  4 31  1  0
  6 32  1  0
  7 33  1  0
  8 34  1  0
  9 35  1  0
 10 36  1  0
 12 37  1  0
 13 38  1  0
 15 39  1  0
 16 40  1  0
 17 41  1  0
 18 42  1  0
 20 43  1  1
 22 44  1  0
 23 45  1  0
 25 46  1  0
 26 47  1  0
 27 48  1  0
 28 49  1  0
M  END
>  <smiles>  (37) 
O=S(=O)(Cc1ccccc1)N1C=Cc2ccccc2C1c1c[nH]c2ccccc12

>  <score_type>  (37) 
oracle

>  <origin>  (37) 
autodockgpu

>  <m_score__min__energy>  (37) 
-6.9400000000000004

>  <m_primary>  (37) 
energy

>  <rmsd>  (37) 
4.350485670682496

>  <m_score__min__rmsd>  (37) 
4.350485670682496

>  <meeko>  (37) 
{"free_energy": -6.85, "intermolecular_energy": -8.05, "internal_energy": -2.88, "cluster_size": 50, "cluster_id": 1, "rank_in_cluster": 46}

>  <energy>  (37) 
-6.86

>  <cluster_rmsd>  (37) 
0.27

>  <cluster>  (37) 
1

$$$$

     RDKit          3D

 49 53  0  0  1  0  0  0  0  0999 V2000
  140.0090   74.8640  222.0800 O   0  0  0  0  0  0  0  0  0  0  0  0
  139.0430   75.9700  221.7600 S   0  0  0  0  0  0  0  0  0  0  0  0
  137.7050   75.6560  222.3430 O   0  0  0  0  0  0  0  0  0  0  0  0
  138.8380   76.0230  219.9960 C   0  0  0  0  0  0  0  0  0  0  0  0
  138.3230   77.3410  219.5440 C   0  0  0  0  0  0  0  0  0  0  0  0
  137.2240   77.9460  220.1160 C   0  0  0  0  0  0  0  0  0  0  0  0
  136.8020   79.1780  219.6390 C   0  0  0  0  0  0  0  0  0  0  0  0
  137.4920   79.7830  218.5920 C   0  0  0  0  0  0  0  0  0  0  0  0
  138.5880   79.1650  218.0320 C   0  0  0  0  0  0  0  0  0  0  0  0
  139.0200   77.9410  218.4930 C   0  0  0  0  0  0  0  0  0  0  0  0
  139.6540   77.4780  222.3580 N   0  0  0  0  0  0  0  0  0  0  0  0
  138.6900   78.4380  222.7720 C   0  0  0  0  0  0  0  0  0  0  0  0
  139.0740   79.6130  223.2430 C   0  0  0  0  0  0  0  0  0  0  0  0
  140.4860   79.9310  223.3400 C   0  0  0  0  0  0  0  0  0  0  0  0
  140.8880   81.1600  223.8320 C   0  0  0  0  0  0  0  0  0  0  0  0
  142.2470   81.4640  223.9260 C   0  0  0  0  0  0  0  0  0  0  0  0
  143.2100   80.5330  223.5250 C   0  0  0  0  0  0  0  0  0  0  0  0
  142.7870   79.3080  223.0340 C   0  0  0  0  0  0  0  0  0  0  0  0
  141.4260   79.0030  222.9410 C   0  0  0  0  0  0  0  0  0  0  0  0
  141.0670   77.6650  222.4010 C   0  0  2  0  0  0  0  0  0  0  0  0
  141.6260   77.5840  221.0050 C   0  0  0  0  0  0  0  0  0  0  0  0
  142.1260   76.4330  220.4130 C   0  0  0  0  0  0  0  0  0  0  0  0
  142.5410   76.7210  219.1660 N   0  0  0  0  0  0  0  0  0  0  0  0
  142.3200   78.0270  218.9420 C   0  0  0  0  0  0  0  0  0  0  0  0
  142.5660   78.8080  217.8290 C   0  0  0  0  0  0  0  0  0  0  0  0
  142.2420   80.1490  217.8500 C   0  0  0  0  0  0  0  0  0  0  0  0
  141.6680   80.7140  218.9940 C   0  0  0  0  0  0  0  0  0  0  0  0
  141.4220   79.9280  220.1090 C   0  0  0  0  0  0  0  0  0  0  0  0
  141.7450   78.6010  220.0800 C   0  0  0  0  0  0  0  0  0  0  0  0
  139.8111   75.8371  219.5179 H   0  0  0  0  0  0  0  0  0  0  0  0
  138.1065   75.2522  219.7116 H   0  0  0  0  0  0  0  0  0  0  0  0
  136.6874   77.4566  220.9422 H   0  0  0  0  0  0  0  0  0  0  0  0
  135.9275   79.6741  220.0852 H   0  0  0  0  0  0  0  0  0  0  0  0
  137.1601   80.7597  218.2101 H   0  0  0  0  0  0  0  0  0  0  0  0
  139.1250   79.6549  217.2064 H   0  0  0  0  0  0  0  0  0  0  0  0
  139.8942   77.4473  218.0435 H   0  0  0  0  0  0  0  0  0  0  0  0
  137.6180   78.2020  222.7001 H   0  0  0  0  0  0  0  0  0  0  0  0
  138.3218   80.3497  223.5614 H   0  0  0  0  0  0  0  0  0  0  0  0
  140.1363   81.8978  224.1492 H   0  0  0  0  0  0  0  0  0  0  0  0
  142.5624   82.4422  224.3180 H   0  0  0  0  0  0  0  0  0  0  0  0
  144.2821   80.7682  223.5978 H   0  0  0  0  0  0  0  0  0  0  0  0
  143.5325   78.5655  222.7131 H   0  0  0  0  0  0  0  0  0  0  0  0
  141.4816   76.8813  223.0521 H   0  0  0  0  0  0  0  0  0  0  0  0
  142.1753   75.4420  220.8880 H   0  0  0  0  0  0  0  0  0  0  0  0
  142.9670   76.0260  218.4850 H   0  0  0  0  0  0  0  0  0  0  0  0
  143.0180   78.3627  216.9304 H   0  0  0  0  0  0  0  0  0  0  0  0
  142.4353   80.7747  216.9662 H   0  0  0  0  0  0  0  0  0  0  0  0
  141.4115   81.7836  219.0087 H   0  0  0  0  0  0  0  0  0  0  0  0
  140.9704   80.3692  221.0098 H   0  0  0  0  0  0  0  0  0  0  0  0
  1  2  2  0
  2  3  2  0
  2  4  1  0
  4  5  1  0
  5  6  2  0
  6  7  1  0
  7  8  2  0
  8  9  1  0
  9 10  2  0
  2 11  1  0
 11 12  1  0
 12 13  2  0
 13 14  1  0
 14 15  2  0
 15 16  1  0
 16 17  2  0
 17 18  1  0
 18 19  2  0
 19 20  1  0
 20 21  1  0
 21 22  2  0
 22 23  1  0
 23 24  1  0
 24 25  2  0
 25 26  1  0
 26 27  2  0
 27 28  1  0
 28 29  2  0
 10  5  1  0
 20 11  1  0
 29 21  1  0
 19 14  1  0
 29 24  1  0
  4 30  1  0
  4 31  1  0
  6 32  1  0
  7 33  1  0
  8 34  1  0
  9 35  1  0
 10 36  1  0
 12 37  1  0
 13 38  1  0
 15 39  1  0
 16 40  1  0
 17 41  1  0
 18 42  1  0
 20 43  1  1
 22 44  1  0
 23 45  1  0
 25 46  1  0
 26 47  1  0
 27 48  1  0
 28 49  1  0
M  END
>  <smiles>  (38) 
O=S(=O)(Cc1ccccc1)N1C=Cc2ccccc2C1c1c[nH]c2ccccc12

>  <score_type>  (38) 
oracle

>  <origin>  (38) 
autodockgpu

>  <m_score__min__energy>  (38) 
-6.9400000000000004

>  <m_primary>  (38) 
energy

>  <rmsd>  (38) 
4.343202542060672

>  <m_score__min__rmsd>  (38) 
4.343202542060672

>  <meeko>  (38) 
{"free_energy": -6.85, "intermolecular_energy": -8.05, "internal_energy": -2.87, "cluster_size": 50, "cluster_id": 1, "rank_in_cluster": 47}

>  <energy>  (38) 
-6.86

>  <cluster_rmsd>  (38) 
0.24

>  <cluster>  (38) 
1

$$$$

     RDKit          3D

 49 53  0  0  1  0  0  0  0  0999 V2000
  139.9900   74.8920  222.1190 O   0  0  0  0  0  0  0  0  0  0  0  0
  139.0140   76.0020  221.8460 S   0  0  0  0  0  0  0  0  0  0  0  0
  137.7040   75.6920  222.4900 O   0  0  0  0  0  0  0  0  0  0  0  0
  138.7270   76.0610  220.0940 C   0  0  0  0  0  0  0  0  0  0  0  0
  138.2400   77.3960  219.6620 C   0  0  0  0  0  0  0  0  0  0  0  0
  137.1400   78.0050  220.2270 C   0  0  0  0  0  0  0  0  0  0  0  0
  136.7460   79.2530  219.7710 C   0  0  0  0  0  0  0  0  0  0  0  0
  137.4640   79.8720  218.7520 C   0  0  0  0  0  0  0  0  0  0  0  0
  138.5610   79.2500  218.1980 C   0  0  0  0  0  0  0  0  0  0  0  0
  138.9660   78.0090  218.6390 C   0  0  0  0  0  0  0  0  0  0  0  0
  139.6570   77.5070  222.4190 N   0  0  0  0  0  0  0  0  0  0  0  0
  138.7150   78.4870  222.8340 C   0  0  0  0  0  0  0  0  0  0  0  0
  139.1250   79.6610  223.2860 C   0  0  0  0  0  0  0  0  0  0  0  0
  140.5430   79.9570  223.3610 C   0  0  0  0  0  0  0  0  0  0  0  0
  140.9710   81.1850  223.8330 C   0  0  0  0  0  0  0  0  0  0  0  0
  142.3360   81.4680  223.9050 C   0  0  0  0  0  0  0  0  0  0  0  0
  143.2790   80.5160  223.5020 C   0  0  0  0  0  0  0  0  0  0  0  0
  142.8290   79.2920  223.0320 C   0  0  0  0  0  0  0  0  0  0  0  0
  141.4620   79.0100  222.9600 C   0  0  0  0  0  0  0  0  0  0  0  0
  141.0740   77.6710  222.4400 C   0  0  2  0  0  0  0  0  0  0  0  0
  141.6130   77.5650  221.0380 C   0  0  0  0  0  0  0  0  0  0  0  0
  142.0520   76.3920  220.4410 C   0  0  0  0  0  0  0  0  0  0  0  0
  142.4660   76.6610  219.1890 N   0  0  0  0  0  0  0  0  0  0  0  0
  142.3020   77.9760  218.9670 C   0  0  0  0  0  0  0  0  0  0  0  0
  142.5710   78.7460  217.8510 C   0  0  0  0  0  0  0  0  0  0  0  0
  142.3090   80.1000  217.8750 C   0  0  0  0  0  0  0  0  0  0  0  0
  141.7740   80.6910  219.0260 C   0  0  0  0  0  0  0  0  0  0  0  0
  141.5050   79.9160  220.1440 C   0  0  0  0  0  0  0  0  0  0  0  0
  141.7670   78.5750  220.1120 C   0  0  0  0  0  0  0  0  0  0  0  0
  139.6687   75.8385  219.5708 H   0  0  0  0  0  0  0  0  0  0  0  0
  137.9543   75.3178  219.8478 H   0  0  0  0  0  0  0  0  0  0  0  0
  136.5806   77.5055  221.0317 H   0  0  0  0  0  0  0  0  0  0  0  0
  135.8704   79.7517  220.2121 H   0  0  0  0  0  0  0  0  0  0  0  0
  137.1540   80.8624  218.3874 H   0  0  0  0  0  0  0  0  0  0  0  0
  139.1206   79.7501  217.3937 H   0  0  0  0  0  0  0  0  0  0  0  0
  139.8415   77.5125  218.1952 H   0  0  0  0  0  0  0  0  0  0  0  0
  137.6384   78.2681  222.7791 H   0  0  0  0  0  0  0  0  0  0  0  0
  138.3893   80.4138  223.6054 H   0  0  0  0  0  0  0  0  0  0  0  0
  140.2356   81.9384  224.1516 H   0  0  0  0  0  0  0  0  0  0  0  0
  142.6724   82.4455  224.2809 H   0  0  0  0  0  0  0  0  0  0  0  0
  144.3557   80.7345  223.5570 H   0  0  0  0  0  0  0  0  0  0  0  0
  143.5574   78.5326  222.7115 H   0  0  0  0  0  0  0  0  0  0  0  0
  141.4847   76.8875  223.0938 H   0  0  0  0  0  0  0  0  0  0  0  0
  142.0603   75.3997  220.9156 H   0  0  0  0  0  0  0  0  0  0  0  0
  142.8510   75.9470  218.5030 H   0  0  0  0  0  0  0  0  0  0  0  0
  142.9922   78.2809  216.9475 H   0  0  0  0  0  0  0  0  0  0  0  0
  142.5207   80.7163  216.9888 H   0  0  0  0  0  0  0  0  0  0  0  0
  141.5669   81.7712  219.0434 H   0  0  0  0  0  0  0  0  0  0  0  0
  141.0840   80.3770  221.0497 H   0  0  0  0  0  0  0  0  0  0  0  0
  1  2  2  0
  2  3  2  0
  2  4  1  0
  4  5  1  0
  5  6  2  0
  6  7  1  0
  7  8  2  0
  8  9  1  0
  9 10  2  0
  2 11  1  0
 11 12  1  0
 12 13  2  0
 13 14  1  0
 14 15  2  0
 15 16  1  0
 16 17  2  0
 17 18  1  0
 18 19  2  0
 19 20  1  0
 20 21  1  0
 21 22  2  0
 22 23  1  0
 23 24  1  0
 24 25  2  0
 25 26  1  0
 26 27  2  0
 27 28  1  0
 28 29  2  0
 10  5  1  0
 20 11  1  0
 29 21  1  0
 19 14  1  0
 29 24  1  0
  4 30  1  0
  4 31  1  0
  6 32  1  0
  7 33  1  0
  8 34  1  0
  9 35  1  0
 10 36  1  0
 12 37  1  0
 13 38  1  0
 15 39  1  0
 16 40  1  0
 17 41  1  0
 18 42  1  0
 20 43  1  1
 22 44  1  0
 23 45  1  0
 25 46  1  0
 26 47  1  0
 27 48  1  0
 28 49  1  0
M  END
>  <smiles>  (39) 
O=S(=O)(Cc1ccccc1)N1C=Cc2ccccc2C1c1c[nH]c2ccccc12

>  <score_type>  (39) 
oracle

>  <origin>  (39) 
autodockgpu

>  <m_score__min__energy>  (39) 
-6.9400000000000004

>  <m_primary>  (39) 
energy

>  <rmsd>  (39) 
4.348859707020395

>  <m_score__min__rmsd>  (39) 
4.348859707020395

>  <meeko>  (39) 
{"free_energy": -6.9, "intermolecular_energy": -8.1, "internal_energy": -2.84, "cluster_size": 50, "cluster_id": 1, "rank_in_cluster": 9}

>  <energy>  (39) 
-6.86

>  <cluster_rmsd>  (39) 
0.26

>  <cluster>  (39) 
1

$$$$

     RDKit          3D

 49 53  0  0  1  0  0  0  0  0999 V2000
  139.9500   74.8970  222.1980 O   0  0  0  0  0  0  0  0  0  0  0  0
  139.0000   76.0140  221.8680 S   0  0  0  0  0  0  0  0  0  0  0  0
  137.6640   75.7340  222.4710 O   0  0  0  0  0  0  0  0  0  0  0  0
  138.7770   76.0400  220.1060 C   0  0  0  0  0  0  0  0  0  0  0  0
  138.2890   77.3610  219.6340 C   0  0  0  0  0  0  0  0  0  0  0  0
  137.2020   77.9970  220.1950 C   0  0  0  0  0  0  0  0  0  0  0  0
  136.8070   79.2300  219.7010 C   0  0  0  0  0  0  0  0  0  0  0  0
  137.5110   79.8070  218.6470 C   0  0  0  0  0  0  0  0  0  0  0  0
  138.5950   79.1580  218.0980 C   0  0  0  0  0  0  0  0  0  0  0  0
  139.0010   77.9320  218.5770 C   0  0  0  0  0  0  0  0  0  0  0  0
  139.6440   77.5210  222.4330 N   0  0  0  0  0  0  0  0  0  0  0  0
  138.7020   78.5030  222.8450 C   0  0  0  0  0  0  0  0  0  0  0  0
  139.1120   79.6800  223.2910 C   0  0  0  0  0  0  0  0  0  0  0  0
  140.5310   79.9760  223.3620 C   0  0  0  0  0  0  0  0  0  0  0  0
  140.9590   81.2060  223.8280 C   0  0  0  0  0  0  0  0  0  0  0  0
  142.3250   81.4900  223.8970 C   0  0  0  0  0  0  0  0  0  0  0  0
  143.2660   80.5360  223.4960 C   0  0  0  0  0  0  0  0  0  0  0  0
  142.8160   79.3100  223.0320 C   0  0  0  0  0  0  0  0  0  0  0  0
  141.4490   79.0270  222.9640 C   0  0  0  0  0  0  0  0  0  0  0  0
  141.0610   77.6860  222.4510 C   0  0  2  0  0  0  0  0  0  0  0  0
  141.5970   77.5740  221.0490 C   0  0  0  0  0  0  0  0  0  0  0  0
  142.0400   76.3990  220.4570 C   0  0  0  0  0  0  0  0  0  0  0  0
  142.4500   76.6620  219.2030 N   0  0  0  0  0  0  0  0  0  0  0  0
  142.2810   77.9750  218.9740 C   0  0  0  0  0  0  0  0  0  0  0  0
  142.5450   78.7390  217.8530 C   0  0  0  0  0  0  0  0  0  0  0  0
  142.2780   80.0930  217.8700 C   0  0  0  0  0  0  0  0  0  0  0  0
  141.7430   80.6880  219.0170 C   0  0  0  0  0  0  0  0  0  0  0  0
  141.4790   79.9190  220.1400 C   0  0  0  0  0  0  0  0  0  0  0  0
  141.7470   78.5790  220.1160 C   0  0  0  0  0  0  0  0  0  0  0  0
  139.7401   75.8217  219.6214 H   0  0  0  0  0  0  0  0  0  0  0  0
  138.0237   75.2824  219.8443 H   0  0  0  0  0  0  0  0  0  0  0  0
  136.6536   77.5303  221.0266 H   0  0  0  0  0  0  0  0  0  0  0  0
  135.9423   79.7501  220.1389 H   0  0  0  0  0  0  0  0  0  0  0  0
  137.2002   80.7851  218.2512 H   0  0  0  0  0  0  0  0  0  0  0  0
  139.1434   79.6248  217.2665 H   0  0  0  0  0  0  0  0  0  0  0  0
  139.8663   77.4145  218.1370 H   0  0  0  0  0  0  0  0  0  0  0  0
  137.6254   78.2833  222.7928 H   0  0  0  0  0  0  0  0  0  0  0  0
  138.3767   80.4342  223.6080 H   0  0  0  0  0  0  0  0  0  0  0  0
  140.2237   81.9605  224.1443 H   0  0  0  0  0  0  0  0  0  0  0  0
  142.6623   82.4688  224.2686 H   0  0  0  0  0  0  0  0  0  0  0  0
  144.3428   80.7546  223.5479 H   0  0  0  0  0  0  0  0  0  0  0  0
  143.5442   78.5498  222.7131 H   0  0  0  0  0  0  0  0  0  0  0  0
  141.4734   76.9059  223.1078 H   0  0  0  0  0  0  0  0  0  0  0  0
  142.0536   75.4095  220.9373 H   0  0  0  0  0  0  0  0  0  0  0  0
  142.8370   75.9460  218.5210 H   0  0  0  0  0  0  0  0  0  0  0  0
  142.9660   78.2701  216.9514 H   0  0  0  0  0  0  0  0  0  0  0  0
  142.4863   80.7051  216.9801 H   0  0  0  0  0  0  0  0  0  0  0  0
  141.5314   81.7674  219.0282 H   0  0  0  0  0  0  0  0  0  0  0  0
  141.0571   80.3838  221.0433 H   0  0  0  0  0  0  0  0  0  0  0  0
  1  2  2  0
  2  3  2  0
  2  4  1  0
  4  5  1  0
  5  6  2  0
  6  7  1  0
  7  8  2  0
  8  9  1  0
  9 10  2  0
  2 11  1  0
 11 12  1  0
 12 13  2  0
 13 14  1  0
 14 15  2  0
 15 16  1  0
 16 17  2  0
 17 18  1  0
 18 19  2  0
 19 20  1  0
 20 21  1  0
 21 22  2  0
 22 23  1  0
 23 24  1  0
 24 25  2  0
 25 26  1  0
 26 27  2  0
 27 28  1  0
 28 29  2  0
 10  5  1  0
 20 11  1  0
 29 21  1  0
 19 14  1  0
 29 24  1  0
  4 30  1  0
  4 31  1  0
  6 32  1  0
  7 33  1  0
  8 34  1  0
  9 35  1  0
 10 36  1  0
 12 37  1  0
 13 38  1  0
 15 39  1  0
 16 40  1  0
 17 41  1  0
 18 42  1  0
 20 43  1  1
 22 44  1  0
 23 45  1  0
 25 46  1  0
 26 47  1  0
 27 48  1  0
 28 49  1  0
M  END
>  <smiles>  (40) 
O=S(=O)(Cc1ccccc1)N1C=Cc2ccccc2C1c1c[nH]c2ccccc12

>  <score_type>  (40) 
oracle

>  <origin>  (40) 
autodockgpu

>  <m_score__min__energy>  (40) 
-6.9400000000000004

>  <m_primary>  (40) 
energy

>  <rmsd>  (40) 
4.334757224665126

>  <m_score__min__rmsd>  (40) 
4.334757224665126

>  <meeko>  (40) 
{"free_energy": -6.89, "intermolecular_energy": -8.09, "internal_energy": -2.84, "cluster_size": 50, "cluster_id": 1, "rank_in_cluster": 16}

>  <energy>  (40) 
-6.86

>  <cluster_rmsd>  (40) 
0.25

>  <cluster>  (40) 
1

$$$$

     RDKit          3D

 49 53  0  0  1  0  0  0  0  0999 V2000
  139.9980   74.9340  222.1010 O   0  0  0  0  0  0  0  0  0  0  0  0
  139.0060   76.0390  221.8660 S   0  0  0  0  0  0  0  0  0  0  0  0
  137.7160   75.7130  222.5420 O   0  0  0  0  0  0  0  0  0  0  0  0
  138.6720   76.1130  220.1230 C   0  0  0  0  0  0  0  0  0  0  0  0
  138.1950   77.4580  219.7120 C   0  0  0  0  0  0  0  0  0  0  0  0
  138.8710   78.2420  218.8020 C   0  0  0  0  0  0  0  0  0  0  0  0
  138.3620   79.4880  218.4680 C   0  0  0  0  0  0  0  0  0  0  0  0
  137.1790   79.9280  219.0560 C   0  0  0  0  0  0  0  0  0  0  0  0
  136.5160   79.1330  219.9640 C   0  0  0  0  0  0  0  0  0  0  0  0
  137.0080   77.8930  220.3070 C   0  0  0  0  0  0  0  0  0  0  0  0
  139.6540   77.5430  222.4360 N   0  0  0  0  0  0  0  0  0  0  0  0
  138.7150   78.5270  222.8480 C   0  0  0  0  0  0  0  0  0  0  0  0
  139.1280   79.7010  223.2990 C   0  0  0  0  0  0  0  0  0  0  0  0
  140.5470   79.9920  223.3740 C   0  0  0  0  0  0  0  0  0  0  0  0
  140.9780   81.2200  223.8440 C   0  0  0  0  0  0  0  0  0  0  0  0
  142.3450   81.4980  223.9170 C   0  0  0  0  0  0  0  0  0  0  0  0
  143.2840   80.5430  223.5160 C   0  0  0  0  0  0  0  0  0  0  0  0
  142.8310   79.3200  223.0470 C   0  0  0  0  0  0  0  0  0  0  0  0
  141.4630   79.0410  222.9750 C   0  0  0  0  0  0  0  0  0  0  0  0
  141.0710   77.7030  222.4580 C   0  0  2  0  0  0  0  0  0  0  0  0
  141.6100   77.5930  221.0560 C   0  0  0  0  0  0  0  0  0  0  0  0
  142.0500   76.4180  220.4620 C   0  0  0  0  0  0  0  0  0  0  0  0
  142.4630   76.6830  219.2100 N   0  0  0  0  0  0  0  0  0  0  0  0
  142.3010   77.9980  218.9840 C   0  0  0  0  0  0  0  0  0  0  0  0
  142.5710   78.7640  217.8670 C   0  0  0  0  0  0  0  0  0  0  0  0
  142.3100   80.1190  217.8870 C   0  0  0  0  0  0  0  0  0  0  0  0
  141.7750   80.7130  219.0350 C   0  0  0  0  0  0  0  0  0  0  0  0
  141.5050   79.9410  220.1550 C   0  0  0  0  0  0  0  0  0  0  0  0
  141.7660   78.6000  220.1270 C   0  0  0  0  0  0  0  0  0  0  0  0
  139.5952   75.8786  219.5728 H   0  0  0  0  0  0  0  0  0  0  0  0
  137.8809   75.3838  219.8941 H   0  0  0  0  0  0  0  0  0  0  0  0
  139.8050   77.8829  218.3452 H   0  0  0  0  0  0  0  0  0  0  0  0
  138.8897   80.1250  217.7429 H   0  0  0  0  0  0  0  0  0  0  0  0
  136.7720   80.9157  218.7938 H   0  0  0  0  0  0  0  0  0  0  0  0
  135.5822   79.4925  220.4210 H   0  0  0  0  0  0  0  0  0  0  0  0
  136.4781   77.2592  221.0333 H   0  0  0  0  0  0  0  0  0  0  0  0
  137.6378   78.3116  222.7918 H   0  0  0  0  0  0  0  0  0  0  0  0
  138.3945   80.4565  223.6171 H   0  0  0  0  0  0  0  0  0  0  0  0
  140.2448   81.9767  224.1599 H   0  0  0  0  0  0  0  0  0  0  0  0
  142.6848   82.4745  224.2924 H   0  0  0  0  0  0  0  0  0  0  0  0
  144.3613   80.7581  223.5716 H   0  0  0  0  0  0  0  0  0  0  0  0
  143.5576   78.5586  222.7271 H   0  0  0  0  0  0  0  0  0  0  0  0
  141.4788   76.9199  223.1141 H   0  0  0  0  0  0  0  0  0  0  0  0
  142.0593   75.4272  220.9397 H   0  0  0  0  0  0  0  0  0  0  0  0
  142.8490   75.9670  218.5260 H   0  0  0  0  0  0  0  0  0  0  0  0
  142.9924   78.2960  216.9651 H   0  0  0  0  0  0  0  0  0  0  0  0
  142.5229   80.7326  216.9992 H   0  0  0  0  0  0  0  0  0  0  0  0
  141.5683   81.7933  219.0494 H   0  0  0  0  0  0  0  0  0  0  0  0
  141.0839   80.4047  221.0592 H   0  0  0  0  0  0  0  0  0  0  0  0
  1  2  2  0
  2  3  2  0
  2  4  1  0
  4  5  1  0
  5  6  2  0
  6  7  1  0
  7  8  2  0
  8  9  1  0
  9 10  2  0
  2 11  1  0
 11 12  1  0
 12 13  2  0
 13 14  1  0
 14 15  2  0
 15 16  1  0
 16 17  2  0
 17 18  1  0
 18 19  2  0
 19 20  1  0
 20 21  1  0
 21 22  2  0
 22 23  1  0
 23 24  1  0
 24 25  2  0
 25 26  1  0
 26 27  2  0
 27 28  1  0
 28 29  2  0
 10  5  1  0
 20 11  1  0
 29 21  1  0
 19 14  1  0
 29 24  1  0
  4 30  1  0
  4 31  1  0
  6 32  1  0
  7 33  1  0
  8 34  1  0
  9 35  1  0
 10 36  1  0
 12 37  1  0
 13 38  1  0
 15 39  1  0
 16 40  1  0
 17 41  1  0
 18 42  1  0
 20 43  1  1
 22 44  1  0
 23 45  1  0
 25 46  1  0
 26 47  1  0
 27 48  1  0
 28 49  1  0
M  END
>  <smiles>  (41) 
O=S(=O)(Cc1ccccc1)N1C=Cc2ccccc2C1c1c[nH]c2ccccc12

>  <score_type>  (41) 
oracle

>  <origin>  (41) 
autodockgpu

>  <m_score__min__energy>  (41) 
-6.9400000000000004

>  <m_primary>  (41) 
energy

>  <rmsd>  (41) 
4.344274339846703

>  <m_score__min__rmsd>  (41) 
4.344274339846703

>  <meeko>  (41) 
{"free_energy": -6.9, "intermolecular_energy": -8.09, "internal_energy": -2.82, "cluster_size": 50, "cluster_id": 1, "rank_in_cluster": 12}

>  <energy>  (41) 
-6.86

>  <cluster_rmsd>  (41) 
0.27

>  <cluster>  (41) 
1

$$$$

     RDKit          3D

 49 53  0  0  1  0  0  0  0  0999 V2000
  140.0030   74.9210  222.1000 O   0  0  0  0  0  0  0  0  0  0  0  0
  139.0090   76.0240  221.8700 S   0  0  0  0  0  0  0  0  0  0  0  0
  137.7220   75.6940  222.5510 O   0  0  0  0  0  0  0  0  0  0  0  0
  138.6670   76.0980  220.1280 C   0  0  0  0  0  0  0  0  0  0  0  0
  138.1950   77.4450  219.7190 C   0  0  0  0  0  0  0  0  0  0  0  0
  138.8770   78.2300  218.8150 C   0  0  0  0  0  0  0  0  0  0  0  0
  138.3730   79.4770  218.4810 C   0  0  0  0  0  0  0  0  0  0  0  0
  137.1880   79.9190  219.0640 C   0  0  0  0  0  0  0  0  0  0  0  0
  136.5180   79.1220  219.9660 C   0  0  0  0  0  0  0  0  0  0  0  0
  137.0050   77.8800  220.3080 C   0  0  0  0  0  0  0  0  0  0  0  0
  139.6560   77.5280  222.4380 N   0  0  0  0  0  0  0  0  0  0  0  0
  138.7160   78.5110  222.8530 C   0  0  0  0  0  0  0  0  0  0  0  0
  139.1290   79.6860  223.3020 C   0  0  0  0  0  0  0  0  0  0  0  0
  140.5480   79.9790  223.3730 C   0  0  0  0  0  0  0  0  0  0  0  0
  140.9790   81.2070  223.8420 C   0  0  0  0  0  0  0  0  0  0  0  0
  142.3450   81.4880  223.9100 C   0  0  0  0  0  0  0  0  0  0  0  0
  143.2850   80.5340  223.5070 C   0  0  0  0  0  0  0  0  0  0  0  0
  142.8320   79.3100  223.0400 C   0  0  0  0  0  0  0  0  0  0  0  0
  141.4640   79.0290  222.9720 C   0  0  0  0  0  0  0  0  0  0  0  0
  141.0730   77.6910  222.4560 C   0  0  2  0  0  0  0  0  0  0  0  0
  141.6080   77.5810  221.0530 C   0  0  0  0  0  0  0  0  0  0  0  0
  142.0410   76.4050  220.4560 C   0  0  0  0  0  0  0  0  0  0  0  0
  142.4530   76.6710  219.2030 N   0  0  0  0  0  0  0  0  0  0  0  0
  142.2960   77.9870  218.9800 C   0  0  0  0  0  0  0  0  0  0  0  0
  142.5660   78.7540  217.8630 C   0  0  0  0  0  0  0  0  0  0  0  0
  142.3110   80.1100  217.8870 C   0  0  0  0  0  0  0  0  0  0  0  0
  141.7810   80.7040  219.0380 C   0  0  0  0  0  0  0  0  0  0  0  0
  141.5110   79.9310  220.1570 C   0  0  0  0  0  0  0  0  0  0  0  0
  141.7660   78.5890  220.1250 C   0  0  0  0  0  0  0  0  0  0  0  0
  139.5864   75.8586  219.5735 H   0  0  0  0  0  0  0  0  0  0  0  0
  137.8715   75.3724  219.9031 H   0  0  0  0  0  0  0  0  0  0  0  0
  139.8129   77.8702  218.3626 H   0  0  0  0  0  0  0  0  0  0  0  0
  138.9058   80.1139  217.7596 H   0  0  0  0  0  0  0  0  0  0  0  0
  136.7853   80.9088  218.8031 H   0  0  0  0  0  0  0  0  0  0  0  0
  135.5824   79.4821  220.4187 H   0  0  0  0  0  0  0  0  0  0  0  0
  136.4692   77.2447  221.0287 H   0  0  0  0  0  0  0  0  0  0  0  0
  137.6389   78.2938  222.8006 H   0  0  0  0  0  0  0  0  0  0  0  0
  138.3954   80.4408  223.6215 H   0  0  0  0  0  0  0  0  0  0  0  0
  140.2456   81.9621  224.1613 H   0  0  0  0  0  0  0  0  0  0  0  0
  142.6840   82.4658  224.2829 H   0  0  0  0  0  0  0  0  0  0  0  0
  144.3622   80.7506  223.5596 H   0  0  0  0  0  0  0  0  0  0  0  0
  143.5587   78.5494  222.7185 H   0  0  0  0  0  0  0  0  0  0  0  0
  141.4843   76.9091  223.1113 H   0  0  0  0  0  0  0  0  0  0  0  0
  142.0464   75.4132  220.9317 H   0  0  0  0  0  0  0  0  0  0  0  0
  142.8330   75.9550  218.5170 H   0  0  0  0  0  0  0  0  0  0  0  0
  142.9823   78.2859  216.9588 H   0  0  0  0  0  0  0  0  0  0  0  0
  142.5246   80.7248  217.0002 H   0  0  0  0  0  0  0  0  0  0  0  0
  141.5784   81.7851  219.0550 H   0  0  0  0  0  0  0  0  0  0  0  0
  141.0947   80.3946  221.0635 H   0  0  0  0  0  0  0  0  0  0  0  0
  1  2  2  0
  2  3  2  0
  2  4  1  0
  4  5  1  0
  5  6  2  0
  6  7  1  0
  7  8  2  0
  8  9  1  0
  9 10  2  0
  2 11  1  0
 11 12  1  0
 12 13  2  0
 13 14  1  0
 14 15  2  0
 15 16  1  0
 16 17  2  0
 17 18  1  0
 18 19  2  0
 19 20  1  0
 20 21  1  0
 21 22  2  0
 22 23  1  0
 23 24  1  0
 24 25  2  0
 25 26  1  0
 26 27  2  0
 27 28  1  0
 28 29  2  0
 10  5  1  0
 20 11  1  0
 29 21  1  0
 19 14  1  0
 29 24  1  0
  4 30  1  0
  4 31  1  0
  6 32  1  0
  7 33  1  0
  8 34  1  0
  9 35  1  0
 10 36  1  0
 12 37  1  0
 13 38  1  0
 15 39  1  0
 16 40  1  0
 17 41  1  0
 18 42  1  0
 20 43  1  1
 22 44  1  0
 23 45  1  0
 25 46  1  0
 26 47  1  0
 27 48  1  0
 28 49  1  0
M  END
>  <smiles>  (42) 
O=S(=O)(Cc1ccccc1)N1C=Cc2ccccc2C1c1c[nH]c2ccccc12

>  <score_type>  (42) 
oracle

>  <origin>  (42) 
autodockgpu

>  <m_score__min__energy>  (42) 
-6.9400000000000004

>  <m_primary>  (42) 
energy

>  <rmsd>  (42) 
4.346971070387785

>  <m_score__min__rmsd>  (42) 
4.346971070387785

>  <meeko>  (42) 
{"free_energy": -6.91, "intermolecular_energy": -8.11, "internal_energy": -2.82, "cluster_size": 50, "cluster_id": 1, "rank_in_cluster": 4}

>  <energy>  (42) 
-6.86

>  <cluster_rmsd>  (42) 
0.27

>  <cluster>  (42) 
1

$$$$

     RDKit          3D

 49 53  0  0  1  0  0  0  0  0999 V2000
  139.9970   74.8580  222.1220 O   0  0  0  0  0  0  0  0  0  0  0  0
  139.0340   75.9650  221.8010 S   0  0  0  0  0  0  0  0  0  0  0  0
  137.6970   75.6580  222.3910 O   0  0  0  0  0  0  0  0  0  0  0  0
  138.8210   76.0130  220.0380 C   0  0  0  0  0  0  0  0  0  0  0  0
  138.3090   77.3310  219.5830 C   0  0  0  0  0  0  0  0  0  0  0  0
  137.2090   77.9390  220.1500 C   0  0  0  0  0  0  0  0  0  0  0  0
  136.7920   79.1710  219.6710 C   0  0  0  0  0  0  0  0  0  0  0  0
  137.4860   79.7750  218.6270 C   0  0  0  0  0  0  0  0  0  0  0  0
  138.5840   79.1540  218.0710 C   0  0  0  0  0  0  0  0  0  0  0  0
  139.0120   77.9300  218.5350 C   0  0  0  0  0  0  0  0  0  0  0  0
  139.6520   77.4740  222.3920 N   0  0  0  0  0  0  0  0  0  0  0  0
  138.6930   78.4410  222.7980 C   0  0  0  0  0  0  0  0  0  0  0  0
  139.0830   79.6180  223.2620 C   0  0  0  0  0  0  0  0  0  0  0  0
  140.4970   79.9280  223.3600 C   0  0  0  0  0  0  0  0  0  0  0  0
  140.9040   81.1580  223.8450 C   0  0  0  0  0  0  0  0  0  0  0  0
  142.2660   81.4550  223.9380 C   0  0  0  0  0  0  0  0  0  0  0  0
  143.2240   80.5160  223.5440 C   0  0  0  0  0  0  0  0  0  0  0  0
  142.7950   79.2900  223.0600 C   0  0  0  0  0  0  0  0  0  0  0  0
  141.4320   78.9930  222.9670 C   0  0  0  0  0  0  0  0  0  0  0  0
  141.0660   77.6540  222.4340 C   0  0  2  0  0  0  0  0  0  0  0  0
  141.6260   77.5610  221.0400 C   0  0  0  0  0  0  0  0  0  0  0  0
  142.1150   76.4020  220.4530 C   0  0  0  0  0  0  0  0  0  0  0  0
  142.5340   76.6810  219.2060 N   0  0  0  0  0  0  0  0  0  0  0  0
  142.3270   77.9890  218.9750 C   0  0  0  0  0  0  0  0  0  0  0  0
  142.5820   78.7630  217.8600 C   0  0  0  0  0  0  0  0  0  0  0  0
  142.2720   80.1070  217.8750 C   0  0  0  0  0  0  0  0  0  0  0  0
  141.7020   80.6830  219.0150 C   0  0  0  0  0  0  0  0  0  0  0  0
  141.4470   79.9030  220.1330 C   0  0  0  0  0  0  0  0  0  0  0  0
  141.7570   78.5730  220.1110 C   0  0  0  0  0  0  0  0  0  0  0  0
  139.7912   75.8216  219.5562 H   0  0  0  0  0  0  0  0  0  0  0  0
  138.0849   75.2443  219.7601 H   0  0  0  0  0  0  0  0  0  0  0  0
  136.6678   77.4512  220.9741 H   0  0  0  0  0  0  0  0  0  0  0  0
  135.9168   79.6688  220.1140 H   0  0  0  0  0  0  0  0  0  0  0  0
  137.1570   80.7522  218.2437 H   0  0  0  0  0  0  0  0  0  0  0  0
  139.1248   79.6420  217.2468 H   0  0  0  0  0  0  0  0  0  0  0  0
  139.8879   77.4351  218.0903 H   0  0  0  0  0  0  0  0  0  0  0  0
  137.6199   78.2101  222.7263 H   0  0  0  0  0  0  0  0  0  0  0  0
  138.3345   80.3614  223.5734 H   0  0  0  0  0  0  0  0  0  0  0  0
  140.1559   81.9016  224.1572 H   0  0  0  0  0  0  0  0  0  0  0  0
  142.5867   82.4340  224.3237 H   0  0  0  0  0  0  0  0  0  0  0  0
  144.2973   80.7457  223.6167 H   0  0  0  0  0  0  0  0  0  0  0  0
  143.5365   78.5411  222.7450 H   0  0  0  0  0  0  0  0  0  0  0  0
  141.4759   76.8717  223.0897 H   0  0  0  0  0  0  0  0  0  0  0  0
  142.1536   75.4125  220.9319 H   0  0  0  0  0  0  0  0  0  0  0  0
  142.9540   75.9790  218.5280 H   0  0  0  0  0  0  0  0  0  0  0  0
  143.0304   78.3096  216.9637 H   0  0  0  0  0  0  0  0  0  0  0  0
  142.4734   80.7269  216.9889 H   0  0  0  0  0  0  0  0  0  0  0  0
  141.4559   81.7551  219.0248 H   0  0  0  0  0  0  0  0  0  0  0  0
  140.9982   80.3523  221.0312 H   0  0  0  0  0  0  0  0  0  0  0  0
  1  2  2  0
  2  3  2  0
  2  4  1  0
  4  5  1  0
  5  6  2  0
  6  7  1  0
  7  8  2  0
  8  9  1  0
  9 10  2  0
  2 11  1  0
 11 12  1  0
 12 13  2  0
 13 14  1  0
 14 15  2  0
 15 16  1  0
 16 17  2  0
 17 18  1  0
 18 19  2  0
 19 20  1  0
 20 21  1  0
 21 22  2  0
 22 23  1  0
 23 24  1  0
 24 25  2  0
 25 26  1  0
 26 27  2  0
 27 28  1  0
 28 29  2  0
 10  5  1  0
 20 11  1  0
 29 21  1  0
 19 14  1  0
 29 24  1  0
  4 30  1  0
  4 31  1  0
  6 32  1  0
  7 33  1  0
  8 34  1  0
  9 35  1  0
 10 36  1  0
 12 37  1  0
 13 38  1  0
 15 39  1  0
 16 40  1  0
 17 41  1  0
 18 42  1  0
 20 43  1  1
 22 44  1  0
 23 45  1  0
 25 46  1  0
 26 47  1  0
 27 48  1  0
 28 49  1  0
M  END
>  <smiles>  (43) 
O=S(=O)(Cc1ccccc1)N1C=Cc2ccccc2C1c1c[nH]c2ccccc12

>  <score_type>  (43) 
oracle

>  <origin>  (43) 
autodockgpu

>  <m_score__min__energy>  (43) 
-6.9400000000000004

>  <m_primary>  (43) 
energy

>  <rmsd>  (43) 
4.340244996280083

>  <m_score__min__rmsd>  (43) 
4.340244996280083

>  <meeko>  (43) 
{"free_energy": -6.86, "intermolecular_energy": -8.05, "internal_energy": -2.88, "cluster_size": 50, "cluster_id": 1, "rank_in_cluster": 32}

>  <energy>  (43) 
-6.86

>  <cluster_rmsd>  (43) 
0.25

>  <cluster>  (43) 
1

$$$$

     RDKit          3D

 49 53  0  0  1  0  0  0  0  0999 V2000
  140.0200   74.8580  222.0720 O   0  0  0  0  0  0  0  0  0  0  0  0
  139.0480   75.9620  221.7660 S   0  0  0  0  0  0  0  0  0  0  0  0
  137.7170   75.6420  222.3590 O   0  0  0  0  0  0  0  0  0  0  0  0
  138.8270   76.0240  220.0040 C   0  0  0  0  0  0  0  0  0  0  0  0
  138.3050   77.3420  219.5630 C   0  0  0  0  0  0  0  0  0  0  0  0
  137.1980   77.9340  220.1340 C   0  0  0  0  0  0  0  0  0  0  0  0
  136.7710   79.1680  219.6680 C   0  0  0  0  0  0  0  0  0  0  0  0
  137.4630   79.7890  218.6320 C   0  0  0  0  0  0  0  0  0  0  0  0
  138.5670   79.1850  218.0720 C   0  0  0  0  0  0  0  0  0  0  0  0
  139.0050   77.9590  218.5230 C   0  0  0  0  0  0  0  0  0  0  0  0
  139.6600   77.4690  222.3660 N   0  0  0  0  0  0  0  0  0  0  0  0
  138.6980   78.4300  222.7790 C   0  0  0  0  0  0  0  0  0  0  0  0
  139.0830   79.6050  223.2510 C   0  0  0  0  0  0  0  0  0  0  0  0
  140.4950   79.9210  223.3500 C   0  0  0  0  0  0  0  0  0  0  0  0
  140.8970   81.1490  223.8440 C   0  0  0  0  0  0  0  0  0  0  0  0
  142.2570   81.4510  223.9390 C   0  0  0  0  0  0  0  0  0  0  0  0
  143.2200   80.5190  223.5380 C   0  0  0  0  0  0  0  0  0  0  0  0
  142.7950   79.2950  223.0460 C   0  0  0  0  0  0  0  0  0  0  0  0
  141.4340   78.9920  222.9510 C   0  0  0  0  0  0  0  0  0  0  0  0
  141.0740   77.6550  222.4100 C   0  0  2  0  0  0  0  0  0  0  0  0
  141.6340   77.5740  221.0140 C   0  0  0  0  0  0  0  0  0  0  0  0
  142.1380   76.4240  220.4230 C   0  0  0  0  0  0  0  0  0  0  0  0
  142.5520   76.7120  219.1770 N   0  0  0  0  0  0  0  0  0  0  0  0
  142.3270   78.0170  218.9510 C   0  0  0  0  0  0  0  0  0  0  0  0
  142.5720   78.7980  217.8380 C   0  0  0  0  0  0  0  0  0  0  0  0
  142.2440   80.1380  217.8570 C   0  0  0  0  0  0  0  0  0  0  0  0
  141.6670   80.7030  219.0000 C   0  0  0  0  0  0  0  0  0  0  0  0
  141.4230   79.9160  220.1150 C   0  0  0  0  0  0  0  0  0  0  0  0
  141.7500   78.5900  220.0880 C   0  0  0  0  0  0  0  0  0  0  0  0
  139.7963   75.8430  219.5164 H   0  0  0  0  0  0  0  0  0  0  0  0
  138.0946   75.2531  219.7225 H   0  0  0  0  0  0  0  0  0  0  0  0
  136.6591   77.4321  220.9511 H   0  0  0  0  0  0  0  0  0  0  0  0
  135.8906   79.6535  220.1143 H   0  0  0  0  0  0  0  0  0  0  0  0
  137.1263   80.7674  218.2586 H   0  0  0  0  0  0  0  0  0  0  0  0
  139.1054   79.6875  217.2549 H   0  0  0  0  0  0  0  0  0  0  0  0
  139.8860   77.4767  218.0744 H   0  0  0  0  0  0  0  0  0  0  0  0
  137.6258   78.1956  222.7059 H   0  0  0  0  0  0  0  0  0  0  0  0
  138.3313   80.3426  223.5685 H   0  0  0  0  0  0  0  0  0  0  0  0
  140.1458   81.8871  224.1617 H   0  0  0  0  0  0  0  0  0  0  0  0
  142.5733   82.4285  224.3319 H   0  0  0  0  0  0  0  0  0  0  0  0
  144.2924   80.7527  223.6116 H   0  0  0  0  0  0  0  0  0  0  0  0
  143.5396   78.5514  222.7257 H   0  0  0  0  0  0  0  0  0  0  0  0
  141.4875   76.8706  223.0610 H   0  0  0  0  0  0  0  0  0  0  0  0
  142.1904   75.4336  220.8988 H   0  0  0  0  0  0  0  0  0  0  0  0
  142.9810   76.0170  218.4960 H   0  0  0  0  0  0  0  0  0  0  0  0
  143.0267   78.3533  216.9405 H   0  0  0  0  0  0  0  0  0  0  0  0
  142.4363   80.7631  216.9725 H   0  0  0  0  0  0  0  0  0  0  0  0
  141.4070   81.7718  219.0137 H   0  0  0  0  0  0  0  0  0  0  0  0
  140.9693   80.3563  221.0151 H   0  0  0  0  0  0  0  0  0  0  0  0
  1  2  2  0
  2  3  2  0
  2  4  1  0
  4  5  1  0
  5  6  2  0
  6  7  1  0
  7  8  2  0
  8  9  1  0
  9 10  2  0
  2 11  1  0
 11 12  1  0
 12 13  2  0
 13 14  1  0
 14 15  2  0
 15 16  1  0
 16 17  2  0
 17 18  1  0
 18 19  2  0
 19 20  1  0
 20 21  1  0
 21 22  2  0
 22 23  1  0
 23 24  1  0
 24 25  2  0
 25 26  1  0
 26 27  2  0
 27 28  1  0
 28 29  2  0
 10  5  1  0
 20 11  1  0
 29 21  1  0
 19 14  1  0
 29 24  1  0
  4 30  1  0
  4 31  1  0
  6 32  1  0
  7 33  1  0
  8 34  1  0
  9 35  1  0
 10 36  1  0
 12 37  1  0
 13 38  1  0
 15 39  1  0
 16 40  1  0
 17 41  1  0
 18 42  1  0
 20 43  1  1
 22 44  1  0
 23 45  1  0
 25 46  1  0
 26 47  1  0
 27 48  1  0
 28 49  1  0
M  END
>  <smiles>  (44) 
O=S(=O)(Cc1ccccc1)N1C=Cc2ccccc2C1c1c[nH]c2ccccc12

>  <score_type>  (44) 
oracle

>  <origin>  (44) 
autodockgpu

>  <m_score__min__energy>  (44) 
-6.9400000000000004

>  <m_primary>  (44) 
energy

>  <rmsd>  (44) 
4.343902201554309

>  <m_score__min__rmsd>  (44) 
4.343902201554309

>  <meeko>  (44) 
{"free_energy": -6.85, "intermolecular_energy": -8.04, "internal_energy": -2.88, "cluster_size": 50, "cluster_id": 1, "rank_in_cluster": 48}

>  <energy>  (44) 
-6.86

>  <cluster_rmsd>  (44) 
0.27

>  <cluster>  (44) 
1

$$$$

     RDKit          3D

 49 53  0  0  1  0  0  0  0  0999 V2000
  140.0110   74.8720  222.1280 O   0  0  0  0  0  0  0  0  0  0  0  0
  139.0310   75.9760  221.8480 S   0  0  0  0  0  0  0  0  0  0  0  0
  137.7180   75.6590  222.4820 O   0  0  0  0  0  0  0  0  0  0  0  0
  138.7570   76.0320  220.0930 C   0  0  0  0  0  0  0  0  0  0  0  0
  138.2560   77.3610  219.6590 C   0  0  0  0  0  0  0  0  0  0  0  0
  137.1500   77.9610  220.2220 C   0  0  0  0  0  0  0  0  0  0  0  0
  136.7440   79.2040  219.7630 C   0  0  0  0  0  0  0  0  0  0  0  0
  137.4560   79.8270  218.7420 C   0  0  0  0  0  0  0  0  0  0  0  0
  138.5600   79.2150  218.1900 C   0  0  0  0  0  0  0  0  0  0  0  0
  138.9770   77.9790  218.6340 C   0  0  0  0  0  0  0  0  0  0  0  0
  139.6630   77.4840  222.4240 N   0  0  0  0  0  0  0  0  0  0  0  0
  138.7130   78.4590  222.8350 C   0  0  0  0  0  0  0  0  0  0  0  0
  139.1130   79.6350  223.2900 C   0  0  0  0  0  0  0  0  0  0  0  0
  140.5290   79.9400  223.3710 C   0  0  0  0  0  0  0  0  0  0  0  0
  140.9470   81.1700  223.8450 C   0  0  0  0  0  0  0  0  0  0  0  0
  142.3100   81.4620  223.9230 C   0  0  0  0  0  0  0  0  0  0  0  0
  143.2600   80.5160  223.5230 C   0  0  0  0  0  0  0  0  0  0  0  0
  142.8200   79.2900  223.0500 C   0  0  0  0  0  0  0  0  0  0  0  0
  141.4550   78.9990  222.9720 C   0  0  0  0  0  0  0  0  0  0  0  0
  141.0780   77.6580  222.4510 C   0  0  2  0  0  0  0  0  0  0  0  0
  141.6230   77.5560  221.0510 C   0  0  0  0  0  0  0  0  0  0  0  0
  142.0780   76.3870  220.4560 C   0  0  0  0  0  0  0  0  0  0  0  0
  142.4920   76.6590  219.2060 N   0  0  0  0  0  0  0  0  0  0  0  0
  142.3150   77.9720  218.9810 C   0  0  0  0  0  0  0  0  0  0  0  0
  142.5790   78.7430  217.8660 C   0  0  0  0  0  0  0  0  0  0  0  0
  142.3020   80.0950  217.8870 C   0  0  0  0  0  0  0  0  0  0  0  0
  141.7560   80.6810  219.0350 C   0  0  0  0  0  0  0  0  0  0  0  0
  141.4920   79.9040  220.1530 C   0  0  0  0  0  0  0  0  0  0  0  0
  141.7700   78.5670  220.1230 C   0  0  0  0  0  0  0  0  0  0  0  0
  139.7055   75.8224  219.5769 H   0  0  0  0  0  0  0  0  0  0  0  0
  137.9965   75.2786  219.8398 H   0  0  0  0  0  0  0  0  0  0  0  0
  136.5951   77.4581  221.0277 H   0  0  0  0  0  0  0  0  0  0  0  0
  135.8639   79.6956  220.2031 H   0  0  0  0  0  0  0  0  0  0  0  0
  137.1356   80.8129  218.3741 H   0  0  0  0  0  0  0  0  0  0  0  0
  139.1152   79.7191  217.3852 H   0  0  0  0  0  0  0  0  0  0  0  0
  139.8574   77.4900  218.1916 H   0  0  0  0  0  0  0  0  0  0  0  0
  137.6380   78.2338  222.7742 H   0  0  0  0  0  0  0  0  0  0  0  0
  138.3710   80.3825  223.6073 H   0  0  0  0  0  0  0  0  0  0  0  0
  140.2054   81.9186  224.1607 H   0  0  0  0  0  0  0  0  0  0  0  0
  142.6388   82.4413  224.3011 H   0  0  0  0  0  0  0  0  0  0  0  0
  144.3351   80.7410  223.5828 H   0  0  0  0  0  0  0  0  0  0  0  0
  143.5547   78.5358  222.7317 H   0  0  0  0  0  0  0  0  0  0  0  0
  141.4912   76.8776  223.1069 H   0  0  0  0  0  0  0  0  0  0  0  0
  142.0968   75.3954  220.9318 H   0  0  0  0  0  0  0  0  0  0  0  0
  142.8890   75.9490  218.5220 H   0  0  0  0  0  0  0  0  0  0  0  0
  143.0084   78.2813  216.9646 H   0  0  0  0  0  0  0  0  0  0  0  0
  142.5105   80.7125  217.0009 H   0  0  0  0  0  0  0  0  0  0  0  0
  141.5361   81.7587  219.0504 H   0  0  0  0  0  0  0  0  0  0  0  0
  141.0622   80.3608  221.0567 H   0  0  0  0  0  0  0  0  0  0  0  0
  1  2  2  0
  2  3  2  0
  2  4  1  0
  4  5  1  0
  5  6  2  0
  6  7  1  0
  7  8  2  0
  8  9  1  0
  9 10  2  0
  2 11  1  0
 11 12  1  0
 12 13  2  0
 13 14  1  0
 14 15  2  0
 15 16  1  0
 16 17  2  0
 17 18  1  0
 18 19  2  0
 19 20  1  0
 20 21  1  0
 21 22  2  0
 22 23  1  0
 23 24  1  0
 24 25  2  0
 25 26  1  0
 26 27  2  0
 27 28  1  0
 28 29  2  0
 10  5  1  0
 20 11  1  0
 29 21  1  0
 19 14  1  0
 29 24  1  0
  4 30  1  0
  4 31  1  0
  6 32  1  0
  7 33  1  0
  8 34  1  0
  9 35  1  0
 10 36  1  0
 12 37  1  0
 13 38  1  0
 15 39  1  0
 16 40  1  0
 17 41  1  0
 18 42  1  0
 20 43  1  1
 22 44  1  0
 23 45  1  0
 25 46  1  0
 26 47  1  0
 27 48  1  0
 28 49  1  0
M  END
>  <smiles>  (45) 
O=S(=O)(Cc1ccccc1)N1C=Cc2ccccc2C1c1c[nH]c2ccccc12

>  <score_type>  (45) 
oracle

>  <origin>  (45) 
autodockgpu

>  <m_score__min__energy>  (45) 
-6.9400000000000004

>  <m_primary>  (45) 
energy

>  <rmsd>  (45) 
4.347995589089513

>  <m_score__min__rmsd>  (45) 
4.347995589089513

>  <meeko>  (45) 
{"free_energy": -6.89, "intermolecular_energy": -8.08, "internal_energy": -2.84, "cluster_size": 50, "cluster_id": 1, "rank_in_cluster": 17}

>  <energy>  (45) 
-6.86

>  <cluster_rmsd>  (45) 
0.25

>  <cluster>  (45) 
1

$$$$

     RDKit          3D

 49 53  0  0  1  0  0  0  0  0999 V2000
  140.0060   74.8620  222.1280 O   0  0  0  0  0  0  0  0  0  0  0  0
  139.0340   75.9680  221.8260 S   0  0  0  0  0  0  0  0  0  0  0  0
  137.7090   75.6570  222.4380 O   0  0  0  0  0  0  0  0  0  0  0  0
  138.7920   76.0180  220.0670 C   0  0  0  0  0  0  0  0  0  0  0  0
  138.2870   77.3410  219.6210 C   0  0  0  0  0  0  0  0  0  0  0  0
  137.1840   77.9470  220.1850 C   0  0  0  0  0  0  0  0  0  0  0  0
  136.7740   79.1840  219.7140 C   0  0  0  0  0  0  0  0  0  0  0  0
  137.4770   79.7960  218.6810 C   0  0  0  0  0  0  0  0  0  0  0  0
  138.5770   79.1770  218.1270 C   0  0  0  0  0  0  0  0  0  0  0  0
  138.9990   77.9480  218.5830 C   0  0  0  0  0  0  0  0  0  0  0  0
  139.6590   77.4770  222.4080 N   0  0  0  0  0  0  0  0  0  0  0  0
  138.7040   78.4470  222.8180 C   0  0  0  0  0  0  0  0  0  0  0  0
  139.0990   79.6240  223.2770 C   0  0  0  0  0  0  0  0  0  0  0  0
  140.5140   79.9330  223.3630 C   0  0  0  0  0  0  0  0  0  0  0  0
  140.9270   81.1640  223.8420 C   0  0  0  0  0  0  0  0  0  0  0  0
  142.2890   81.4590  223.9250 C   0  0  0  0  0  0  0  0  0  0  0  0
  143.2430   80.5180  223.5270 C   0  0  0  0  0  0  0  0  0  0  0  0
  142.8090   79.2910  223.0490 C   0  0  0  0  0  0  0  0  0  0  0  0
  141.4450   78.9960  222.9660 C   0  0  0  0  0  0  0  0  0  0  0  0
  141.0740   77.6550  222.4400 C   0  0  2  0  0  0  0  0  0  0  0  0
  141.6240   77.5580  221.0420 C   0  0  0  0  0  0  0  0  0  0  0  0
  142.0880   76.3930  220.4480 C   0  0  0  0  0  0  0  0  0  0  0  0
  142.5050   76.6690  219.1990 N   0  0  0  0  0  0  0  0  0  0  0  0
  142.3210   77.9810  218.9750 C   0  0  0  0  0  0  0  0  0  0  0  0
  142.5830   78.7550  217.8620 C   0  0  0  0  0  0  0  0  0  0  0  0
  142.2980   80.1040  217.8830 C   0  0  0  0  0  0  0  0  0  0  0  0
  141.7440   80.6860  219.0300 C   0  0  0  0  0  0  0  0  0  0  0  0
  141.4820   79.9060  220.1460 C   0  0  0  0  0  0  0  0  0  0  0  0
  141.7670   78.5710  220.1160 C   0  0  0  0  0  0  0  0  0  0  0  0
  139.7518   75.8161  219.5690 H   0  0  0  0  0  0  0  0  0  0  0  0
  138.0433   75.2572  219.8015 H   0  0  0  0  0  0  0  0  0  0  0  0
  136.6352   77.4533  221.0006 H   0  0  0  0  0  0  0  0  0  0  0  0
  135.8967   79.6799  220.1548 H   0  0  0  0  0  0  0  0  0  0  0  0
  137.1537   80.7778  218.3049 H   0  0  0  0  0  0  0  0  0  0  0  0
  139.1245   79.6708  217.3106 H   0  0  0  0  0  0  0  0  0  0  0  0
  139.8770   77.4551  218.1400 H   0  0  0  0  0  0  0  0  0  0  0  0
  137.6300   78.2180  222.7534 H   0  0  0  0  0  0  0  0  0  0  0  0
  138.3538   80.3686  223.5935 H   0  0  0  0  0  0  0  0  0  0  0  0
  140.1823   81.9097  224.1572 H   0  0  0  0  0  0  0  0  0  0  0  0
  142.6136   82.4385  224.3062 H   0  0  0  0  0  0  0  0  0  0  0  0
  144.3170   80.7465  223.5918 H   0  0  0  0  0  0  0  0  0  0  0  0
  143.5473   78.5401  222.7310 H   0  0  0  0  0  0  0  0  0  0  0  0
  141.4875   76.8740  223.0950 H   0  0  0  0  0  0  0  0  0  0  0  0
  142.1112   75.4011  220.9230 H   0  0  0  0  0  0  0  0  0  0  0  0
  142.9080   75.9620  218.5160 H   0  0  0  0  0  0  0  0  0  0  0  0
  143.0177   78.2969  216.9613 H   0  0  0  0  0  0  0  0  0  0  0  0
  142.5060   80.7235  216.9981 H   0  0  0  0  0  0  0  0  0  0  0  0
  141.5167   81.7621  219.0456 H   0  0  0  0  0  0  0  0  0  0  0  0
  141.0476   80.3595  221.0491 H   0  0  0  0  0  0  0  0  0  0  0  0
  1  2  2  0
  2  3  2  0
  2  4  1  0
  4  5  1  0
  5  6  2  0
  6  7  1  0
  7  8  2  0
  8  9  1  0
  9 10  2  0
  2 11  1  0
 11 12  1  0
 12 13  2  0
 13 14  1  0
 14 15  2  0
 15 16  1  0
 16 17  2  0
 17 18  1  0
 18 19  2  0
 19 20  1  0
 20 21  1  0
 21 22  2  0
 22 23  1  0
 23 24  1  0
 24 25  2  0
 25 26  1  0
 26 27  2  0
 27 28  1  0
 28 29  2  0
 10  5  1  0
 20 11  1  0
 29 21  1  0
 19 14  1  0
 29 24  1  0
  4 30  1  0
  4 31  1  0
  6 32  1  0
  7 33  1  0
  8 34  1  0
  9 35  1  0
 10 36  1  0
 12 37  1  0
 13 38  1  0
 15 39  1  0
 16 40  1  0
 17 41  1  0
 18 42  1  0
 20 43  1  1
 22 44  1  0
 23 45  1  0
 25 46  1  0
 26 47  1  0
 27 48  1  0
 28 49  1  0
M  END
>  <smiles>  (46) 
O=S(=O)(Cc1ccccc1)N1C=Cc2ccccc2C1c1c[nH]c2ccccc12

>  <score_type>  (46) 
oracle

>  <origin>  (46) 
autodockgpu

>  <m_score__min__energy>  (46) 
-6.9400000000000004

>  <m_primary>  (46) 
energy

>  <rmsd>  (46) 
4.348294123979107

>  <m_score__min__rmsd>  (46) 
4.348294123979107

>  <meeko>  (46) 
{"free_energy": -6.89, "intermolecular_energy": -8.08, "internal_energy": -2.84, "cluster_size": 50, "cluster_id": 1, "rank_in_cluster": 18}

>  <energy>  (46) 
-6.85

>  <cluster_rmsd>  (46) 
0.25

>  <cluster>  (46) 
1

$$$$

     RDKit          3D

 49 53  0  0  1  0  0  0  0  0999 V2000
  139.9940   74.8830  222.1060 O   0  0  0  0  0  0  0  0  0  0  0  0
  139.0260   75.9920  221.8030 S   0  0  0  0  0  0  0  0  0  0  0  0
  137.6980   75.6820  222.4090 O   0  0  0  0  0  0  0  0  0  0  0  0
  138.7910   76.0470  220.0430 C   0  0  0  0  0  0  0  0  0  0  0  0
  138.2830   77.3700  219.5990 C   0  0  0  0  0  0  0  0  0  0  0  0
  137.1860   77.9770  220.1720 C   0  0  0  0  0  0  0  0  0  0  0  0
  136.7720   79.2140  219.7030 C   0  0  0  0  0  0  0  0  0  0  0  0
  137.4670   79.8240  218.6620 C   0  0  0  0  0  0  0  0  0  0  0  0
  138.5610   79.2040  218.1000 C   0  0  0  0  0  0  0  0  0  0  0  0
  138.9860   77.9740  218.5540 C   0  0  0  0  0  0  0  0  0  0  0  0
  139.6520   77.4980  222.3910 N   0  0  0  0  0  0  0  0  0  0  0  0
  138.6980   78.4670  222.8060 C   0  0  0  0  0  0  0  0  0  0  0  0
  139.0950   79.6420  223.2690 C   0  0  0  0  0  0  0  0  0  0  0  0
  140.5090   79.9490  223.3570 C   0  0  0  0  0  0  0  0  0  0  0  0
  140.9230   81.1770  223.8420 C   0  0  0  0  0  0  0  0  0  0  0  0
  142.2860   81.4710  223.9260 C   0  0  0  0  0  0  0  0  0  0  0  0
  143.2390   80.5300  223.5240 C   0  0  0  0  0  0  0  0  0  0  0  0
  142.8030   79.3060  223.0410 C   0  0  0  0  0  0  0  0  0  0  0  0
  141.4400   79.0120  222.9560 C   0  0  0  0  0  0  0  0  0  0  0  0
  141.0670   77.6740  222.4250 C   0  0  2  0  0  0  0  0  0  0  0  0
  141.6170   77.5830  221.0260 C   0  0  0  0  0  0  0  0  0  0  0  0
  142.0980   76.4230  220.4340 C   0  0  0  0  0  0  0  0  0  0  0  0
  142.5100   76.7030  219.1840 N   0  0  0  0  0  0  0  0  0  0  0  0
  142.3060   78.0110  218.9580 C   0  0  0  0  0  0  0  0  0  0  0  0
  142.5560   78.7870  217.8420 C   0  0  0  0  0  0  0  0  0  0  0  0
  142.2500   80.1320  217.8620 C   0  0  0  0  0  0  0  0  0  0  0  0
  141.6890   80.7070  219.0070 C   0  0  0  0  0  0  0  0  0  0  0  0
  141.4390   79.9270  220.1250 C   0  0  0  0  0  0  0  0  0  0  0  0
  141.7450   78.5950  220.0980 C   0  0  0  0  0  0  0  0  0  0  0  0
  139.7535   75.8501  219.5483 H   0  0  0  0  0  0  0  0  0  0  0  0
  138.0460   75.2844  219.7720 H   0  0  0  0  0  0  0  0  0  0  0  0
  136.6445   77.4847  220.9932 H   0  0  0  0  0  0  0  0  0  0  0  0
  135.8989   79.7111  220.1509 H   0  0  0  0  0  0  0  0  0  0  0  0
  137.1409   80.8053  218.2868 H   0  0  0  0  0  0  0  0  0  0  0  0
  139.1022   79.6966  217.2787 H   0  0  0  0  0  0  0  0  0  0  0  0
  139.8591   77.4792  218.1036 H   0  0  0  0  0  0  0  0  0  0  0  0
  137.6238   78.2391  222.7420 H   0  0  0  0  0  0  0  0  0  0  0  0
  138.3506   80.3866  223.5875 H   0  0  0  0  0  0  0  0  0  0  0  0
  140.1789   81.9216  224.1613 H   0  0  0  0  0  0  0  0  0  0  0  0
  142.6116   82.4487  224.3107 H   0  0  0  0  0  0  0  0  0  0  0  0
  144.3134   80.7566  223.5897 H   0  0  0  0  0  0  0  0  0  0  0  0
  143.5406   78.5557  222.7202 H   0  0  0  0  0  0  0  0  0  0  0  0
  141.4788   76.8899  223.0774 H   0  0  0  0  0  0  0  0  0  0  0  0
  142.1362   75.4325  220.9110 H   0  0  0  0  0  0  0  0  0  0  0  0
  142.9230   76.0000  218.5020 H   0  0  0  0  0  0  0  0  0  0  0  0
  142.9970   78.3341  216.9418 H   0  0  0  0  0  0  0  0  0  0  0  0
  142.4475   80.7533  216.9760 H   0  0  0  0  0  0  0  0  0  0  0  0
  141.4459   81.7797  219.0202 H   0  0  0  0  0  0  0  0  0  0  0  0
  140.9978   80.3763  221.0270 H   0  0  0  0  0  0  0  0  0  0  0  0
  1  2  2  0
  2  3  2  0
  2  4  1  0
  4  5  1  0
  5  6  2  0
  6  7  1  0
  7  8  2  0
  8  9  1  0
  9 10  2  0
  2 11  1  0
 11 12  1  0
 12 13  2  0
 13 14  1  0
 14 15  2  0
 15 16  1  0
 16 17  2  0
 17 18  1  0
 18 19  2  0
 19 20  1  0
 20 21  1  0
 21 22  2  0
 22 23  1  0
 23 24  1  0
 24 25  2  0
 25 26  1  0
 26 27  2  0
 27 28  1  0
 28 29  2  0
 10  5  1  0
 20 11  1  0
 29 21  1  0
 19 14  1  0
 29 24  1  0
  4 30  1  0
  4 31  1  0
  6 32  1  0
  7 33  1  0
  8 34  1  0
  9 35  1  0
 10 36  1  0
 12 37  1  0
 13 38  1  0
 15 39  1  0
 16 40  1  0
 17 41  1  0
 18 42  1  0
 20 43  1  1
 22 44  1  0
 23 45  1  0
 25 46  1  0
 26 47  1  0
 27 48  1  0
 28 49  1  0
M  END
>  <smiles>  (47) 
O=S(=O)(Cc1ccccc1)N1C=Cc2ccccc2C1c1c[nH]c2ccccc12

>  <score_type>  (47) 
oracle

>  <origin>  (47) 
autodockgpu

>  <m_score__min__energy>  (47) 
-6.9400000000000004

>  <m_primary>  (47) 
energy

>  <rmsd>  (47) 
4.340235955452884

>  <m_score__min__rmsd>  (47) 
4.340235955452884

>  <meeko>  (47) 
{"free_energy": -6.86, "intermolecular_energy": -8.06, "internal_energy": -2.87, "cluster_size": 50, "cluster_id": 1, "rank_in_cluster": 30}

>  <energy>  (47) 
-6.85

>  <cluster_rmsd>  (47) 
0.26

>  <cluster>  (47) 
1

$$$$

     RDKit          3D

 49 53  0  0  1  0  0  0  0  0999 V2000
  140.0210   74.8830  222.0600 O   0  0  0  0  0  0  0  0  0  0  0  0
  139.0530   75.9900  221.7510 S   0  0  0  0  0  0  0  0  0  0  0  0
  137.7180   75.6710  222.3390 O   0  0  0  0  0  0  0  0  0  0  0  0
  138.8390   76.0540  219.9890 C   0  0  0  0  0  0  0  0  0  0  0  0
  138.3190   77.3740  219.5480 C   0  0  0  0  0  0  0  0  0  0  0  0
  137.2160   77.9690  220.1220 C   0  0  0  0  0  0  0  0  0  0  0  0
  136.7910   79.2030  219.6550 C   0  0  0  0  0  0  0  0  0  0  0  0
  137.4810   79.8220  218.6170 C   0  0  0  0  0  0  0  0  0  0  0  0
  138.5820   79.2140  218.0540 C   0  0  0  0  0  0  0  0  0  0  0  0
  139.0170   77.9870  218.5060 C   0  0  0  0  0  0  0  0  0  0  0  0
  139.6650   77.4950  222.3560 N   0  0  0  0  0  0  0  0  0  0  0  0
  138.7020   78.4540  222.7720 C   0  0  0  0  0  0  0  0  0  0  0  0
  139.0870   79.6270  223.2480 C   0  0  0  0  0  0  0  0  0  0  0  0
  140.4990   79.9430  223.3480 C   0  0  0  0  0  0  0  0  0  0  0  0
  140.9020   81.1700  223.8460 C   0  0  0  0  0  0  0  0  0  0  0  0
  142.2620   81.4720  223.9420 C   0  0  0  0  0  0  0  0  0  0  0  0
  143.2240   80.5400  223.5390 C   0  0  0  0  0  0  0  0  0  0  0  0
  142.8000   79.3170  223.0430 C   0  0  0  0  0  0  0  0  0  0  0  0
  141.4380   79.0160  222.9460 C   0  0  0  0  0  0  0  0  0  0  0  0
  141.0780   77.6800  222.4010 C   0  0  2  0  0  0  0  0  0  0  0  0
  141.6390   77.6030  221.0060 C   0  0  0  0  0  0  0  0  0  0  0  0
  142.1360   76.4530  220.4090 C   0  0  0  0  0  0  0  0  0  0  0  0
  142.5530   76.7450  219.1640 N   0  0  0  0  0  0  0  0  0  0  0  0
  142.3360   78.0530  218.9450 C   0  0  0  0  0  0  0  0  0  0  0  0
  142.5860   78.8390  217.8360 C   0  0  0  0  0  0  0  0  0  0  0  0
  142.2660   80.1800  217.8620 C   0  0  0  0  0  0  0  0  0  0  0  0
  141.6910   80.7420  219.0080 C   0  0  0  0  0  0  0  0  0  0  0  0
  141.4420   79.9510  220.1190 C   0  0  0  0  0  0  0  0  0  0  0  0
  141.7620   78.6240  220.0850 C   0  0  0  0  0  0  0  0  0  0  0  0
  139.8100   75.8732  219.5048 H   0  0  0  0  0  0  0  0  0  0  0  0
  138.1076   75.2836  219.7034 H   0  0  0  0  0  0  0  0  0  0  0  0
  136.6788   77.4699  220.9419 H   0  0  0  0  0  0  0  0  0  0  0  0
  135.9125   79.6907  220.1027 H   0  0  0  0  0  0  0  0  0  0  0  0
  137.1459   80.8012  218.2442 H   0  0  0  0  0  0  0  0  0  0  0  0
  139.1196   79.7136  217.2347 H   0  0  0  0  0  0  0  0  0  0  0  0
  139.8951   77.5012  218.0555 H   0  0  0  0  0  0  0  0  0  0  0  0
  137.6298   78.2196  222.6978 H   0  0  0  0  0  0  0  0  0  0  0  0
  138.3353   80.3634  223.5683 H   0  0  0  0  0  0  0  0  0  0  0  0
  140.1510   81.9072  224.1661 H   0  0  0  0  0  0  0  0  0  0  0  0
  142.5786   82.4486  224.3369 H   0  0  0  0  0  0  0  0  0  0  0  0
  144.2964   80.7731  223.6142 H   0  0  0  0  0  0  0  0  0  0  0  0
  143.5446   78.5738  222.7216 H   0  0  0  0  0  0  0  0  0  0  0  0
  141.4906   76.8933  223.0497 H   0  0  0  0  0  0  0  0  0  0  0  0
  142.1817   75.4598  220.8795 H   0  0  0  0  0  0  0  0  0  0  0  0
  142.9780   76.0520  218.4800 H   0  0  0  0  0  0  0  0  0  0  0  0
  143.0384   78.3966  216.9362 H   0  0  0  0  0  0  0  0  0  0  0  0
  142.4628   80.8089  216.9812 H   0  0  0  0  0  0  0  0  0  0  0  0
  141.4365   81.8120  219.0270 H   0  0  0  0  0  0  0  0  0  0  0  0
  140.9901   80.3891  221.0211 H   0  0  0  0  0  0  0  0  0  0  0  0
  1  2  2  0
  2  3  2  0
  2  4  1  0
  4  5  1  0
  5  6  2  0
  6  7  1  0
  7  8  2  0
  8  9  1  0
  9 10  2  0
  2 11  1  0
 11 12  1  0
 12 13  2  0
 13 14  1  0
 14 15  2  0
 15 16  1  0
 16 17  2  0
 17 18  1  0
 18 19  2  0
 19 20  1  0
 20 21  1  0
 21 22  2  0
 22 23  1  0
 23 24  1  0
 24 25  2  0
 25 26  1  0
 26 27  2  0
 27 28  1  0
 28 29  2  0
 10  5  1  0
 20 11  1  0
 29 21  1  0
 19 14  1  0
 29 24  1  0
  4 30  1  0
  4 31  1  0
  6 32  1  0
  7 33  1  0
  8 34  1  0
  9 35  1  0
 10 36  1  0
 12 37  1  0
 13 38  1  0
 15 39  1  0
 16 40  1  0
 17 41  1  0
 18 42  1  0
 20 43  1  1
 22 44  1  0
 23 45  1  0
 25 46  1  0
 26 47  1  0
 27 48  1  0
 28 49  1  0
M  END
>  <smiles>  (48) 
O=S(=O)(Cc1ccccc1)N1C=Cc2ccccc2C1c1c[nH]c2ccccc12

>  <score_type>  (48) 
oracle

>  <origin>  (48) 
autodockgpu

>  <m_score__min__energy>  (48) 
-6.9400000000000004

>  <m_primary>  (48) 
energy

>  <rmsd>  (48) 
4.353344844502499

>  <m_score__min__rmsd>  (48) 
4.353344844502499

>  <meeko>  (48) 
{"free_energy": -6.86, "intermolecular_energy": -8.05, "internal_energy": -2.88, "cluster_size": 50, "cluster_id": 1, "rank_in_cluster": 40}

>  <energy>  (48) 
-6.85

>  <cluster_rmsd>  (48) 
0.24

>  <cluster>  (48) 
1

$$$$

     RDKit          3D

 49 53  0  0  1  0  0  0  0  0999 V2000
  140.0040   74.8960  222.1390 O   0  0  0  0  0  0  0  0  0  0  0  0
  139.0050   75.9990  221.9250 S   0  0  0  0  0  0  0  0  0  0  0  0
  137.7320   75.6710  222.6310 O   0  0  0  0  0  0  0  0  0  0  0  0
  138.6300   76.0670  220.1900 C   0  0  0  0  0  0  0  0  0  0  0  0
  138.1650   77.4180  219.7820 C   0  0  0  0  0  0  0  0  0  0  0  0
  138.8500   78.1980  218.8750 C   0  0  0  0  0  0  0  0  0  0  0  0
  138.3520   79.4490  218.5430 C   0  0  0  0  0  0  0  0  0  0  0  0
  137.1740   79.8990  219.1310 C   0  0  0  0  0  0  0  0  0  0  0  0
  136.5020   79.1070  220.0360 C   0  0  0  0  0  0  0  0  0  0  0  0
  136.9820   77.8620  220.3770 C   0  0  0  0  0  0  0  0  0  0  0  0
  139.6620   77.5050  222.4760 N   0  0  0  0  0  0  0  0  0  0  0  0
  138.7300   78.4930  222.8950 C   0  0  0  0  0  0  0  0  0  0  0  0
  139.1510   79.6690  223.3320 C   0  0  0  0  0  0  0  0  0  0  0  0
  140.5710   79.9590  223.3850 C   0  0  0  0  0  0  0  0  0  0  0  0
  141.0110   81.1890  223.8410 C   0  0  0  0  0  0  0  0  0  0  0  0
  142.3780   81.4660  223.8920 C   0  0  0  0  0  0  0  0  0  0  0  0
  143.3110   80.5070  223.4850 C   0  0  0  0  0  0  0  0  0  0  0  0
  142.8500   79.2820  223.0300 C   0  0  0  0  0  0  0  0  0  0  0  0
  141.4810   79.0040  222.9790 C   0  0  0  0  0  0  0  0  0  0  0  0
  141.0800   77.6640  222.4770 C   0  0  2  0  0  0  0  0  0  0  0  0
  141.5990   77.5430  221.0680 C   0  0  0  0  0  0  0  0  0  0  0  0
  142.0000   76.3590  220.4660 C   0  0  0  0  0  0  0  0  0  0  0  0
  142.4050   76.6170  219.2090 N   0  0  0  0  0  0  0  0  0  0  0  0
  142.2750   77.9370  218.9890 C   0  0  0  0  0  0  0  0  0  0  0  0
  142.5510   78.6990  217.8700 C   0  0  0  0  0  0  0  0  0  0  0  0
  142.3260   80.0600  217.8980 C   0  0  0  0  0  0  0  0  0  0  0  0
  141.8210   80.6640  219.0540 C   0  0  0  0  0  0  0  0  0  0  0  0
  141.5440   79.8960  220.1750 C   0  0  0  0  0  0  0  0  0  0  0  0
  141.7700   78.5500  220.1400 C   0  0  0  0  0  0  0  0  0  0  0  0
  139.5356   75.8140  219.6191 H   0  0  0  0  0  0  0  0  0  0  0  0
  137.8221   75.3492  219.9849 H   0  0  0  0  0  0  0  0  0  0  0  0
  139.7819   77.8320  218.4194 H   0  0  0  0  0  0  0  0  0  0  0  0
  138.8854   80.0821  217.8187 H   0  0  0  0  0  0  0  0  0  0  0  0
  136.7774   80.8918  218.8720 H   0  0  0  0  0  0  0  0  0  0  0  0
  135.5705   79.4736  220.4919 H   0  0  0  0  0  0  0  0  0  0  0  0
  136.4458   77.2316  221.1016 H   0  0  0  0  0  0  0  0  0  0  0  0
  137.6518   78.2787  222.8558 H   0  0  0  0  0  0  0  0  0  0  0  0
  138.4230   80.4275  223.6555 H   0  0  0  0  0  0  0  0  0  0  0  0
  140.2835   81.9485  224.1633 H   0  0  0  0  0  0  0  0  0  0  0  0
  142.7238   82.4452  224.2547 H   0  0  0  0  0  0  0  0  0  0  0  0
  144.3893   80.7209  223.5253 H   0  0  0  0  0  0  0  0  0  0  0  0
  143.5712   78.5179  222.7045 H   0  0  0  0  0  0  0  0  0  0  0  0
  141.4961   76.8853  223.1331 H   0  0  0  0  0  0  0  0  0  0  0  0
  141.9886   75.3669  220.9409 H   0  0  0  0  0  0  0  0  0  0  0  0
  142.7630   75.8940  218.5190 H   0  0  0  0  0  0  0  0  0  0  0  0
  142.9481   78.2230  216.9613 H   0  0  0  0  0  0  0  0  0  0  0  0
  142.5442   80.6710  217.0097 H   0  0  0  0  0  0  0  0  0  0  0  0
  141.6433   81.7494  219.0740 H   0  0  0  0  0  0  0  0  0  0  0  0
  141.1453   80.3676  221.0853 H   0  0  0  0  0  0  0  0  0  0  0  0
  1  2  2  0
  2  3  2  0
  2  4  1  0
  4  5  1  0
  5  6  2  0
  6  7  1  0
  7  8  2  0
  8  9  1  0
  9 10  2  0
  2 11  1  0
 11 12  1  0
 12 13  2  0
 13 14  1  0
 14 15  2  0
 15 16  1  0
 16 17  2  0
 17 18  1  0
 18 19  2  0
 19 20  1  0
 20 21  1  0
 21 22  2  0
 22 23  1  0
 23 24  1  0
 24 25  2  0
 25 26  1  0
 26 27  2  0
 27 28  1  0
 28 29  2  0
 10  5  1  0
 20 11  1  0
 29 21  1  0
 19 14  1  0
 29 24  1  0
  4 30  1  0
  4 31  1  0
  6 32  1  0
  7 33  1  0
  8 34  1  0
  9 35  1  0
 10 36  1  0
 12 37  1  0
 13 38  1  0
 15 39  1  0
 16 40  1  0
 17 41  1  0
 18 42  1  0
 20 43  1  1
 22 44  1  0
 23 45  1  0
 25 46  1  0
 26 47  1  0
 27 48  1  0
 28 49  1  0
M  END
>  <smiles>  (49) 
O=S(=O)(Cc1ccccc1)N1C=Cc2ccccc2C1c1c[nH]c2ccccc12

>  <score_type>  (49) 
oracle

>  <origin>  (49) 
autodockgpu

>  <m_score__min__energy>  (49) 
-6.9400000000000004

>  <m_primary>  (49) 
energy

>  <rmsd>  (49) 
4.35011237355999

>  <m_score__min__rmsd>  (49) 
4.35011237355999

>  <meeko>  (49) 
{"free_energy": -6.94, "intermolecular_energy": -8.14, "internal_energy": -2.78, "cluster_size": 50, "cluster_id": 1, "rank_in_cluster": 1}

>  <energy>  (49) 
-6.85

>  <cluster_rmsd>  (49) 
0.25

>  <cluster>  (49) 
1

$$$$

     RDKit          3D

 49 53  0  0  1  0  0  0  0  0999 V2000
  140.0130   74.9570  222.1290 O   0  0  0  0  0  0  0  0  0  0  0  0
  139.0400   76.0740  221.8730 S   0  0  0  0  0  0  0  0  0  0  0  0
  137.7370   75.7700  222.5350 O   0  0  0  0  0  0  0  0  0  0  0  0
  138.7280   76.1380  220.1250 C   0  0  0  0  0  0  0  0  0  0  0  0
  138.2360   77.4750  219.7050 C   0  0  0  0  0  0  0  0  0  0  0  0
  137.1490   78.0870  220.2920 C   0  0  0  0  0  0  0  0  0  0  0  0
  136.7510   79.3380  219.8450 C   0  0  0  0  0  0  0  0  0  0  0  0
  137.4510   79.9550  218.8130 C   0  0  0  0  0  0  0  0  0  0  0  0
  138.5350   79.3300  218.2370 C   0  0  0  0  0  0  0  0  0  0  0  0
  138.9450   78.0880  218.6690 C   0  0  0  0  0  0  0  0  0  0  0  0
  139.7010   77.5730  222.4400 N   0  0  0  0  0  0  0  0  0  0  0  0
  138.7710   78.5550  222.8790 C   0  0  0  0  0  0  0  0  0  0  0  0
  139.1940   79.7250  223.3280 C   0  0  0  0  0  0  0  0  0  0  0  0
  140.6150   80.0150  223.3750 C   0  0  0  0  0  0  0  0  0  0  0  0
  141.0570   81.2390  223.8450 C   0  0  0  0  0  0  0  0  0  0  0  0
  142.4250   81.5160  223.8900 C   0  0  0  0  0  0  0  0  0  0  0  0
  143.3550   80.5630  223.4630 C   0  0  0  0  0  0  0  0  0  0  0  0
  142.8910   79.3430  222.9960 C   0  0  0  0  0  0  0  0  0  0  0  0
  141.5220   79.0660  222.9510 C   0  0  0  0  0  0  0  0  0  0  0  0
  141.1180   77.7320  222.4330 C   0  0  2  0  0  0  0  0  0  0  0  0
  141.6270   77.6310  221.0190 C   0  0  0  0  0  0  0  0  0  0  0  0
  142.0510   76.4590  220.4080 C   0  0  0  0  0  0  0  0  0  0  0  0
  142.4390   76.7330  219.1490 N   0  0  0  0  0  0  0  0  0  0  0  0
  142.2750   78.0490  218.9360 C   0  0  0  0  0  0  0  0  0  0  0  0
  142.5230   78.8230  217.8190 C   0  0  0  0  0  0  0  0  0  0  0  0
  142.2650   80.1780  217.8540 C   0  0  0  0  0  0  0  0  0  0  0  0
  141.7560   80.7650  219.0180 C   0  0  0  0  0  0  0  0  0  0  0  0
  141.5080   79.9860  220.1380 C   0  0  0  0  0  0  0  0  0  0  0  0
  141.7660   78.6450  220.0940 C   0  0  0  0  0  0  0  0  0  0  0  0
  139.6618   75.9165  219.5876 H   0  0  0  0  0  0  0  0  0  0  0  0
  137.9517   75.3959  219.8871 H   0  0  0  0  0  0  0  0  0  0  0  0
  136.6031   77.5882  221.1064 H   0  0  0  0  0  0  0  0  0  0  0  0
  135.8864   79.8398  220.3040 H   0  0  0  0  0  0  0  0  0  0  0  0
  137.1373   80.9468  218.4553 H   0  0  0  0  0  0  0  0  0  0  0  0
  139.0799   79.8289  217.4220 H   0  0  0  0  0  0  0  0  0  0  0  0
  139.8111   77.5901  218.2087 H   0  0  0  0  0  0  0  0  0  0  0  0
  137.6927   78.3402  222.8450 H   0  0  0  0  0  0  0  0  0  0  0  0
  138.4679   80.4789  223.6661 H   0  0  0  0  0  0  0  0  0  0  0  0
  140.3313   81.9934  224.1830 H   0  0  0  0  0  0  0  0  0  0  0  0
  142.7733   82.4902  224.2638 H   0  0  0  0  0  0  0  0  0  0  0  0
  144.4334   80.7772  223.4970 H   0  0  0  0  0  0  0  0  0  0  0  0
  143.6100   78.5829  222.6564 H   0  0  0  0  0  0  0  0  0  0  0  0
  141.5391   76.9442  223.0749 H   0  0  0  0  0  0  0  0  0  0  0  0
  142.0672   75.4646  220.8781 H   0  0  0  0  0  0  0  0  0  0  0  0
  142.8090   76.0210  218.4520 H   0  0  0  0  0  0  0  0  0  0  0  0
  142.9246   78.3609  216.9051 H   0  0  0  0  0  0  0  0  0  0  0  0
  142.4596   80.7975  216.9661 H   0  0  0  0  0  0  0  0  0  0  0  0
  141.5524   81.8457  219.0445 H   0  0  0  0  0  0  0  0  0  0  0  0
  141.1069   80.4438  221.0542 H   0  0  0  0  0  0  0  0  0  0  0  0
  1  2  2  0
  2  3  2  0
  2  4  1  0
  4  5  1  0
  5  6  2  0
  6  7  1  0
  7  8  2  0
  8  9  1  0
  9 10  2  0
  2 11  1  0
 11 12  1  0
 12 13  2  0
 13 14  1  0
 14 15  2  0
 15 16  1  0
 16 17  2  0
 17 18  1  0
 18 19  2  0
 19 20  1  0
 20 21  1  0
 21 22  2  0
 22 23  1  0
 23 24  1  0
 24 25  2  0
 25 26  1  0
 26 27  2  0
 27 28  1  0
 28 29  2  0
 10  5  1  0
 20 11  1  0
 29 21  1  0
 19 14  1  0
 29 24  1  0
  4 30  1  0
  4 31  1  0
  6 32  1  0
  7 33  1  0
  8 34  1  0
  9 35  1  0
 10 36  1  0
 12 37  1  0
 13 38  1  0
 15 39  1  0
 16 40  1  0
 17 41  1  0
 18 42  1  0
 20 43  1  1
 22 44  1  0
 23 45  1  0
 25 46  1  0
 26 47  1  0
 27 48  1  0
 28 49  1  0
M  END
>  <smiles>  (50) 
O=S(=O)(Cc1ccccc1)N1C=Cc2ccccc2C1c1c[nH]c2ccccc12

>  <score_type>  (50) 
oracle

>  <origin>  (50) 
autodockgpu

>  <m_score__min__energy>  (50) 
-6.9400000000000004

>  <m_primary>  (50) 
energy

>  <rmsd>  (50) 
4.35854985665078

>  <m_score__min__rmsd>  (50) 
4.35854985665078

>  <meeko>  (50) 
{"free_energy": -6.88, "intermolecular_energy": -8.07, "internal_energy": -2.84, "cluster_size": 50, "cluster_id": 1, "rank_in_cluster": 19}

>  <energy>  (50) 
-6.85

>  <cluster_rmsd>  (50) 
0.27

>  <cluster>  (50) 
1

$$$$

     RDKit          3D

 49 53  0  0  1  0  0  0  0  0999 V2000
  139.6130   76.1530  219.3120 O   0  0  0  0  0  0  0  0  0  0  0  0
  140.4560   77.2130  218.6870 S   0  0  0  0  0  0  0  0  0  0  0  0
  139.6870   77.9050  217.5980 O   0  0  0  0  0  0  0  0  0  0  0  0
  141.8800   76.4230  217.9790 C   0  0  0  0  0  0  0  0  0  0  0  0
  142.4960   75.4780  218.9230 C   0  0  0  0  0  0  0  0  0  0  0  0
  143.6940   75.7120  219.5770 C   0  0  0  0  0  0  0  0  0  0  0  0
  144.2070   74.7770  220.4480 C   0  0  0  0  0  0  0  0  0  0  0  0
  143.5440   73.5950  220.6850 C   0  0  0  0  0  0  0  0  0  0  0  0
  142.3550   73.3510  220.0420 C   0  0  0  0  0  0  0  0  0  0  0  0
  141.8430   74.2830  219.1750 C   0  0  0  0  0  0  0  0  0  0  0  0
  140.9650   78.3820  219.8510 N   0  0  0  0  0  0  0  0  0  0  0  0
  141.0890   79.7220  219.4090 C   0  0  0  0  0  0  0  0  0  0  0  0
  141.4610   80.6960  220.2160 C   0  0  0  0  0  0  0  0  0  0  0  0
  141.7490   80.3550  221.6020 C   0  0  0  0  0  0  0  0  0  0  0  0
  142.1320   81.3850  222.4300 C   0  0  0  0  0  0  0  0  0  0  0  0
  142.4220   81.1620  223.7590 C   0  0  0  0  0  0  0  0  0  0  0  0
  142.3080   79.8660  224.2120 C   0  0  0  0  0  0  0  0  0  0  0  0
  141.9170   78.8190  223.3650 C   0  0  0  0  0  0  0  0  0  0  0  0
  141.6260   79.0400  222.0310 C   0  0  0  0  0  0  0  0  0  0  0  0
  141.2270   77.9200  221.1900 C   0  0  1  0  0  0  0  0  0  0  0  0
  140.1950   77.0210  221.7170 C   0  0  0  0  0  0  0  0  0  0  0  0
  140.4190   75.6710  221.9690 C   0  0  0  0  0  0  0  0  0  0  0  0
  139.2920   75.1020  222.4350 N   0  0  0  0  0  0  0  0  0  0  0  0
  138.3340   76.0510  222.4960 C   0  0  0  0  0  0  0  0  0  0  0  0
  137.0110   75.9740  222.9090 C   0  0  0  0  0  0  0  0  0  0  0  0
  136.2340   77.1120  222.8760 C   0  0  0  0  0  0  0  0  0  0  0  0
  136.7870   78.3110  222.4310 C   0  0  0  0  0  0  0  0  0  0  0  0
  138.1020   78.3770  222.0220 C   0  0  0  0  0  0  0  0  0  0  0  0
  138.8770   77.2380  222.0550 C   0  0  0  0  0  0  0  0  0  0  0  0
  141.5733   75.8766  217.0749 H   0  0  0  0  0  0  0  0  0  0  0  0
  142.6201   77.1992  217.7346 H   0  0  0  0  0  0  0  0  0  0  0  0
  144.2392   76.6507  219.3996 H   0  0  0  0  0  0  0  0  0  0  0  0
  145.1592   74.9777  220.9609 H   0  0  0  0  0  0  0  0  0  0  0  0
  143.9616   72.8534  221.3819 H   0  0  0  0  0  0  0  0  0  0  0  0
  141.8143   72.4101  220.2219 H   0  0  0  0  0  0  0  0  0  0  0  0
  140.8895   74.0758  218.6671 H   0  0  0  0  0  0  0  0  0  0  0  0
  140.8676   79.9578  218.3576 H   0  0  0  0  0  0  0  0  0  0  0  0
  141.5507   81.7310  219.8545 H   0  0  0  0  0  0  0  0  0  0  0  0
  142.2081   82.4046  222.0242 H   0  0  0  0  0  0  0  0  0  0  0  0
  142.7299   81.9804  224.4264 H   0  0  0  0  0  0  0  0  0  0  0  0
  142.5297   79.6465  225.2668 H   0  0  0  0  0  0  0  0  0  0  0  0
  141.8400   77.7994  223.7705 H   0  0  0  0  0  0  0  0  0  0  0  0
  142.0945   77.2437  221.1797 H   0  0  0  0  0  0  0  0  0  0  0  0
  141.3736   75.1477  221.8111 H   0  0  0  0  0  0  0  0  0  0  0  0
  139.1290   74.1100  222.7160 H   0  0  0  0  0  0  0  0  0  0  0  0
  136.5892   75.0196  223.2572 H   0  0  0  0  0  0  0  0  0  0  0  0
  135.1832   77.0738  223.1992 H   0  0  0  0  0  0  0  0  0  0  0  0
  136.1653   79.2181  222.4056 H   0  0  0  0  0  0  0  0  0  0  0  0
  138.5282   79.3291  221.6729 H   0  0  0  0  0  0  0  0  0  0  0  0
  1  2  2  0
  2  3  2  0
  2  4  1  0
  4  5  1  0
  5  6  2  0
  6  7  1  0
  7  8  2  0
  8  9  1  0
  9 10  2  0
  2 11  1  0
 11 12  1  0
 12 13  2  0
 13 14  1  0
 14 15  2  0
 15 16  1  0
 16 17  2  0
 17 18  1  0
 18 19  2  0
 19 20  1  0
 20 21  1  0
 21 22  2  0
 22 23  1  0
 23 24  1  0
 24 25  2  0
 25 26  1  0
 26 27  2  0
 27 28  1  0
 28 29  2  0
 10  5  1  0
 20 11  1  0
 29 21  1  0
 19 14  1  0
 29 24  1  0
  4 30  1  0
  4 31  1  0
  6 32  1  0
  7 33  1  0
  8 34  1  0
  9 35  1  0
 10 36  1  0
 12 37  1  0
 13 38  1  0
 15 39  1  0
 16 40  1  0
 17 41  1  0
 18 42  1  0
 20 43  1  6
 22 44  1  0
 23 45  1  0
 25 46  1  0
 26 47  1  0
 27 48  1  0
 28 49  1  0
M  END
>  <smiles>  (51) 
O=S(=O)(Cc1ccccc1)N1C=Cc2ccccc2C1c1c[nH]c2ccccc12

>  <score_type>  (51) 
oracle

>  <origin>  (51) 
autodockgpu

>  <m_score__min__energy>  (51) 
-7.8499999999999996

>  <m_primary>  (51) 
energy

>  <rmsd>  (51) 
4.983446134866831

>  <m_score__min__rmsd>  (51) 
4.983446134866831

>  <meeko>  (51) 
{"free_energy": -7.27, "intermolecular_energy": -8.46, "internal_energy": -2.22, "cluster_size": 35, "cluster_id": 4, "rank_in_cluster": 28}

>  <energy>  (51) 
-7.85

>  <cluster_rmsd>  (51) 
0.0

>  <cluster>  (51) 
1

$$$$

     RDKit          3D

 49 53  0  0  1  0  0  0  0  0999 V2000
  135.9720   68.4230  223.4600 O   0  0  0  0  0  0  0  0  0  0  0  0
  135.9380   69.7820  224.0720 S   0  0  0  0  0  0  0  0  0  0  0  0
  136.2470   69.6920  225.5400 O   0  0  0  0  0  0  0  0  0  0  0  0
  134.2970   70.4280  223.8630 C   0  0  0  0  0  0  0  0  0  0  0  0
  133.9280   71.3250  224.9690 C   0  0  0  0  0  0  0  0  0  0  0  0
  133.9950   72.7060  224.8960 C   0  0  0  0  0  0  0  0  0  0  0  0
  133.6310   73.4800  225.9750 C   0  0  0  0  0  0  0  0  0  0  0  0
  133.1970   72.9000  227.1440 C   0  0  0  0  0  0  0  0  0  0  0  0
  133.1260   71.5300  227.2290 C   0  0  0  0  0  0  0  0  0  0  0  0
  133.4880   70.7600  226.1530 C   0  0  0  0  0  0  0  0  0  0  0  0
  137.0750   70.8410  223.3190 N   0  0  0  0  0  0  0  0  0  0  0  0
  136.6020   72.1130  222.9110 C   0  0  0  0  0  0  0  0  0  0  0  0
  137.3860   73.0020  222.3350 C   0  0  0  0  0  0  0  0  0  0  0  0
  138.7800   72.6390  222.1220 C   0  0  0  0  0  0  0  0  0  0  0  0
  139.5840   73.5820  221.5230 C   0  0  0  0  0  0  0  0  0  0  0  0
  140.9190   73.3330  221.2820 C   0  0  0  0  0  0  0  0  0  0  0  0
  141.4010   72.1030  221.6700 C   0  0  0  0  0  0  0  0  0  0  0  0
  140.5790   71.1450  222.2810 C   0  0  0  0  0  0  0  0  0  0  0  0
  139.2400   71.3920  222.5230 C   0  0  0  0  0  0  0  0  0  0  0  0
  138.4250   70.3650  223.1560 C   0  0  1  0  0  0  0  0  0  0  0  0
  138.9720   69.7210  224.3550 C   0  0  0  0  0  0  0  0  0  0  0  0
  138.8580   68.3570  224.6050 C   0  0  0  0  0  0  0  0  0  0  0  0
  139.4440   68.0600  225.7800 N   0  0  0  0  0  0  0  0  0  0  0  0
  139.9400   69.1990  226.3050 C   0  0  0  0  0  0  0  0  0  0  0  0
  140.6300   69.4230  227.4880 C   0  0  0  0  0  0  0  0  0  0  0  0
  141.0370   70.7050  227.7920 C   0  0  0  0  0  0  0  0  0  0  0  0
  140.7490   71.7450  226.9120 C   0  0  0  0  0  0  0  0  0  0  0  0
  140.0610   71.5130  225.7390 C   0  0  0  0  0  0  0  0  0  0  0  0
  139.6550   70.2310  225.4380 C   0  0  0  0  0  0  0  0  0  0  0  0
  134.2507   70.9881  222.9174 H   0  0  0  0  0  0  0  0  0  0  0  0
  133.5917   69.5840  223.8520 H   0  0  0  0  0  0  0  0  0  0  0  0
  134.3413   73.1880  223.9699 H   0  0  0  0  0  0  0  0  0  0  0  0
  133.6880   74.5760  225.9011 H   0  0  0  0  0  0  0  0  0  0  0  0
  132.9098   73.5258  228.0018 H   0  0  0  0  0  0  0  0  0  0  0  0
  132.7798   71.0523  228.1574 H   0  0  0  0  0  0  0  0  0  0  0  0
  133.4269   69.6647  226.2335 H   0  0  0  0  0  0  0  0  0  0  0  0
  135.5452   72.3668  223.0807 H   0  0  0  0  0  0  0  0  0  0  0  0
  137.0005   73.9847  222.0257 H   0  0  0  0  0  0  0  0  0  0  0  0
  139.1541   74.5516  221.2313 H   0  0  0  0  0  0  0  0  0  0  0  0
  141.5675   74.0812  220.8028 H   0  0  0  0  0  0  0  0  0  0  0  0
  142.4607   71.8650  221.4958 H   0  0  0  0  0  0  0  0  0  0  0  0
  141.0088   70.1758  222.5742 H   0  0  0  0  0  0  0  0  0  0  0  0
  138.4311   69.5189  222.4531 H   0  0  0  0  0  0  0  0  0  0  0  0
  138.3637   67.6311  223.9426 H   0  0  0  0  0  0  0  0  0  0  0  0
  139.5300   67.1310  226.2500 H   0  0  0  0  0  0  0  0  0  0  0  0
  140.8490   68.5905  228.1729 H   0  0  0  0  0  0  0  0  0  0  0  0
  141.5859   70.9049  228.7241 H   0  0  0  0  0  0  0  0  0  0  0  0
  141.0750   72.7669  227.1558 H   0  0  0  0  0  0  0  0  0  0  0  0
  139.8389   72.3424  225.0514 H   0  0  0  0  0  0  0  0  0  0  0  0
  1  2  2  0
  2  3  2  0
  2  4  1  0
  4  5  1  0
  5  6  2  0
  6  7  1  0
  7  8  2  0
  8  9  1  0
  9 10  2  0
  2 11  1  0
 11 12  1  0
 12 13  2  0
 13 14  1  0
 14 15  2  0
 15 16  1  0
 16 17  2  0
 17 18  1  0
 18 19  2  0
 19 20  1  0
 20 21  1  0
 21 22  2  0
 22 23  1  0
 23 24  1  0
 24 25  2  0
 25 26  1  0
 26 27  2  0
 27 28  1  0
 28 29  2  0
 10  5  1  0
 20 11  1  0
 29 21  1  0
 19 14  1  0
 29 24  1  0
  4 30  1  0
  4 31  1  0
  6 32  1  0
  7 33  1  0
  8 34  1  0
  9 35  1  0
 10 36  1  0
 12 37  1  0
 13 38  1  0
 15 39  1  0
 16 40  1  0
 17 41  1  0
 18 42  1  0
 20 43  1  6
 22 44  1  0
 23 45  1  0
 25 46  1  0
 26 47  1  0
 27 48  1  0
 28 49  1  0
M  END
>  <smiles>  (52) 
O=S(=O)(Cc1ccccc1)N1C=Cc2ccccc2C1c1c[nH]c2ccccc12

>  <score_type>  (52) 
oracle

>  <origin>  (52) 
autodockgpu

>  <m_score__min__energy>  (52) 
-7.8499999999999996

>  <m_primary>  (52) 
energy

>  <rmsd>  (52) 
10.773763622967303

>  <m_score__min__rmsd>  (52) 
10.773763622967303

>  <meeko>  (52) 
{"free_energy": -7.52, "intermolecular_energy": -8.72, "internal_energy": -1.97, "cluster_size": 7, "cluster_id": 2, "rank_in_cluster": 7}

>  <energy>  (52) 
-7.82

>  <cluster_rmsd>  (52) 
0.11

>  <cluster>  (52) 
1

$$$$

     RDKit          3D

 49 53  0  0  1  0  0  0  0  0999 V2000
  139.6090   76.0440  219.3150 O   0  0  0  0  0  0  0  0  0  0  0  0
  140.4780   77.0810  218.6880 S   0  0  0  0  0  0  0  0  0  0  0  0
  139.7370   77.7690  217.5770 O   0  0  0  0  0  0  0  0  0  0  0  0
  141.9000   76.2580  218.0140 C   0  0  0  0  0  0  0  0  0  0  0  0
  142.4960   75.3290  218.9880 C   0  0  0  0  0  0  0  0  0  0  0  0
  141.9060   74.1390  219.3770 C   0  0  0  0  0  0  0  0  0  0  0  0
  142.5260   73.3210  220.2950 C   0  0  0  0  0  0  0  0  0  0  0  0
  143.7390   73.6680  220.8430 C   0  0  0  0  0  0  0  0  0  0  0  0
  144.3340   74.8470  220.4650 C   0  0  0  0  0  0  0  0  0  0  0  0
  143.7160   75.6620  219.5500 C   0  0  0  0  0  0  0  0  0  0  0  0
  140.9870   78.2590  219.8430 N   0  0  0  0  0  0  0  0  0  0  0  0
  141.1390   79.5900  219.3850 C   0  0  0  0  0  0  0  0  0  0  0  0
  141.5150   80.5700  220.1830 C   0  0  0  0  0  0  0  0  0  0  0  0
  141.7750   80.2440  221.5780 C   0  0  0  0  0  0  0  0  0  0  0  0
  142.1610   81.2800  222.3970 C   0  0  0  0  0  0  0  0  0  0  0  0
  142.4260   81.0730  223.7340 C   0  0  0  0  0  0  0  0  0  0  0  0
  142.2840   79.7860  224.2040 C   0  0  0  0  0  0  0  0  0  0  0  0
  141.8900   78.7320  223.3660 C   0  0  0  0  0  0  0  0  0  0  0  0
  141.6240   78.9390  222.0240 C   0  0  0  0  0  0  0  0  0  0  0  0
  141.2210   77.8130  221.1930 C   0  0  1  0  0  0  0  0  0  0  0  0
  140.1660   76.9370  221.7160 C   0  0  0  0  0  0  0  0  0  0  0  0
  140.3590   75.5840  221.9740 C   0  0  0  0  0  0  0  0  0  0  0  0
  139.2170   75.0410  222.4350 N   0  0  0  0  0  0  0  0  0  0  0  0
  138.2800   76.0100  222.4860 C   0  0  0  0  0  0  0  0  0  0  0  0
  136.9530   75.9630  222.8900 C   0  0  0  0  0  0  0  0  0  0  0  0
  136.2000   77.1180  222.8480 C   0  0  0  0  0  0  0  0  0  0  0  0
  136.7820   78.3030  222.4040 C   0  0  0  0  0  0  0  0  0  0  0  0
  138.1010   78.3400  222.0030 C   0  0  0  0  0  0  0  0  0  0  0  0
  138.8510   77.1840  222.0450 C   0  0  0  0  0  0  0  0  0  0  0  0
  141.5962   75.6930  217.1204 H   0  0  0  0  0  0  0  0  0  0  0  0
  142.6513   77.0196  217.7582 H   0  0  0  0  0  0  0  0  0  0  0  0
  140.9358   73.8448  218.9502 H   0  0  0  0  0  0  0  0  0  0  0  0
  142.0451   72.3780  220.5939 H   0  0  0  0  0  0  0  0  0  0  0  0
  144.2271   73.0087  221.5758 H   0  0  0  0  0  0  0  0  0  0  0  0
  145.3040   75.1373  220.8949 H   0  0  0  0  0  0  0  0  0  0  0  0
  144.2026   76.6036  219.2559 H   0  0  0  0  0  0  0  0  0  0  0  0
  140.9365   79.8142  218.3273 H   0  0  0  0  0  0  0  0  0  0  0  0
  141.6283   81.5979  219.8079 H   0  0  0  0  0  0  0  0  0  0  0  0
  142.2600   82.2920  221.9773 H   0  0  0  0  0  0  0  0  0  0  0  0
  142.7361   81.8965  224.3941 H   0  0  0  0  0  0  0  0  0  0  0  0
  142.4850   79.5789  225.2655 H   0  0  0  0  0  0  0  0  0  0  0  0
  141.7905   77.7197  223.7847 H   0  0  0  0  0  0  0  0  0  0  0  0
  142.0783   77.1240  221.2071 H   0  0  0  0  0  0  0  0  0  0  0  0
  141.3030   75.0396  221.8239 H   0  0  0  0  0  0  0  0  0  0  0  0
  139.0310   74.0540  222.7190 H   0  0  0  0  0  0  0  0  0  0  0  0
  136.5085   75.0190  223.2384 H   0  0  0  0  0  0  0  0  0  0  0  0
  135.1462   77.1033  223.1633 H   0  0  0  0  0  0  0  0  0  0  0  0
  136.1804   79.2234  222.3727 H   0  0  0  0  0  0  0  0  0  0  0  0
  138.5497   79.2815  221.6535 H   0  0  0  0  0  0  0  0  0  0  0  0
  1  2  2  0
  2  3  2  0
  2  4  1  0
  4  5  1  0
  5  6  2  0
  6  7  1  0
  7  8  2  0
  8  9  1  0
  9 10  2  0
  2 11  1  0
 11 12  1  0
 12 13  2  0
 13 14  1  0
 14 15  2  0
 15 16  1  0
 16 17  2  0
 17 18  1  0
 18 19  2  0
 19 20  1  0
 20 21  1  0
 21 22  2  0
 22 23  1  0
 23 24  1  0
 24 25  2  0
 25 26  1  0
 26 27  2  0
 27 28  1  0
 28 29  2  0
 10  5  1  0
 20 11  1  0
 29 21  1  0
 19 14  1  0
 29 24  1  0
  4 30  1  0
  4 31  1  0
  6 32  1  0
  7 33  1  0
  8 34  1  0
  9 35  1  0
 10 36  1  0
 12 37  1  0
 13 38  1  0
 15 39  1  0
 16 40  1  0
 17 41  1  0
 18 42  1  0
 20 43  1  6
 22 44  1  0
 23 45  1  0
 25 46  1  0
 26 47  1  0
 27 48  1  0
 28 49  1  0
M  END
>  <smiles>  (53) 
O=S(=O)(Cc1ccccc1)N1C=Cc2ccccc2C1c1c[nH]c2ccccc12

>  <score_type>  (53) 
oracle

>  <origin>  (53) 
autodockgpu

>  <m_score__min__energy>  (53) 
-7.8499999999999996

>  <m_primary>  (53) 
energy

>  <rmsd>  (53) 
5.02566006231032

>  <m_score__min__rmsd>  (53) 
5.02566006231032

>  <meeko>  (53) 
{"free_energy": -7.32, "intermolecular_energy": -8.52, "internal_energy": -2.22, "cluster_size": 35, "cluster_id": 4, "rank_in_cluster": 5}

>  <energy>  (53) 
-7.82

>  <cluster_rmsd>  (53) 
0.15

>  <cluster>  (53) 
1

$$$$

     RDKit          3D

 49 53  0  0  1  0  0  0  0  0999 V2000
  138.3350   71.6920  222.0080 O   0  0  0  0  0  0  0  0  0  0  0  0
  139.7460   71.8920  222.4460 S   0  0  0  0  0  0  0  0  0  0  0  0
  140.0290   73.3580  222.6150 O   0  0  0  0  0  0  0  0  0  0  0  0
  140.8040   71.2390  221.1780 C   0  0  0  0  0  0  0  0  0  0  0  0
  141.9530   72.1240  220.9280 C   0  0  0  0  0  0  0  0  0  0  0  0
  141.8360   73.4620  220.5940 C   0  0  0  0  0  0  0  0  0  0  0  0
  142.9610   74.2270  220.3750 C   0  0  0  0  0  0  0  0  0  0  0  0
  144.2180   73.6780  220.4820 C   0  0  0  0  0  0  0  0  0  0  0  0
  144.3460   72.3510  220.8120 C   0  0  0  0  0  0  0  0  0  0  0  0
  143.2260   71.5900  221.0310 C   0  0  0  0  0  0  0  0  0  0  0  0
  140.0640   71.0800  223.9360 N   0  0  0  0  0  0  0  0  0  0  0  0
  140.5240   71.8700  225.0180 C   0  0  0  0  0  0  0  0  0  0  0  0
  140.7890   71.3540  226.2020 C   0  0  0  0  0  0  0  0  0  0  0  0
  140.5950   69.9220  226.3760 C   0  0  0  0  0  0  0  0  0  0  0  0
  140.8720   69.4020  227.6200 C   0  0  0  0  0  0  0  0  0  0  0  0
  140.7150   68.0580  227.8830 C   0  0  0  0  0  0  0  0  0  0  0  0
  140.2680   67.2690  226.8460 C   0  0  0  0  0  0  0  0  0  0  0  0
  139.9860   67.8020  225.5800 C   0  0  0  0  0  0  0  0  0  0  0  0
  140.1440   69.1500  225.3130 C   0  0  0  0  0  0  0  0  0  0  0  0
  139.8410   69.6570  223.9820 C   0  0  1  0  0  0  0  0  0  0  0  0
  138.5700   69.2400  223.3790 C   0  0  0  0  0  0  0  0  0  0  0  0
  138.4720   68.7300  222.0890 C   0  0  0  0  0  0  0  0  0  0  0  0
  137.1860   68.4460  221.8090 N   0  0  0  0  0  0  0  0  0  0  0  0
  136.4400   68.7570  222.8890 C   0  0  0  0  0  0  0  0  0  0  0  0
  135.0740   68.6470  223.1050 C   0  0  0  0  0  0  0  0  0  0  0  0
  134.5560   69.0370  224.3220 C   0  0  0  0  0  0  0  0  0  0  0  0
  135.4090   69.5310  225.3060 C   0  0  0  0  0  0  0  0  0  0  0  0
  136.7660   69.6380  225.0820 C   0  0  0  0  0  0  0  0  0  0  0  0
  137.2810   69.2480  223.8640 C   0  0  0  0  0  0  0  0  0  0  0  0
  141.1743   70.2525  221.4939 H   0  0  0  0  0  0  0  0  0  0  0  0
  140.2210   71.1582  220.2487 H   0  0  0  0  0  0  0  0  0  0  0  0
  140.8389   73.9175  220.5028 H   0  0  0  0  0  0  0  0  0  0  0  0
  142.8528   75.2895  220.1115 H   0  0  0  0  0  0  0  0  0  0  0  0
  145.1111   74.2954  220.3051 H   0  0  0  0  0  0  0  0  0  0  0  0
  145.3450   71.8992  220.9005 H   0  0  0  0  0  0  0  0  0  0  0  0
  143.3423   70.5285  221.2952 H   0  0  0  0  0  0  0  0  0  0  0  0
  140.6649   72.9502  224.8653 H   0  0  0  0  0  0  0  0  0  0  0  0
  141.1447   71.9844  227.0303 H   0  0  0  0  0  0  0  0  0  0  0  0
  141.2250   70.0710  228.4186 H   0  0  0  0  0  0  0  0  0  0  0  0
  140.9362   67.6354  228.8742 H   0  0  0  0  0  0  0  0  0  0  0  0
  140.1285   66.1912  227.0157 H   0  0  0  0  0  0  0  0  0  0  0  0
  139.6313   67.1335  224.7817 H   0  0  0  0  0  0  0  0  0  0  0  0
  140.5550   69.1534  223.3137 H   0  0  0  0  0  0  0  0  0  0  0  0
  139.3174   68.5811  221.4012 H   0  0  0  0  0  0  0  0  0  0  0  0
  136.7810   68.0530  220.9310 H   0  0  0  0  0  0  0  0  0  0  0  0
  134.4141   68.2546  222.3173 H   0  0  0  0  0  0  0  0  0  0  0  0
  133.4758   68.9584  224.5145 H   0  0  0  0  0  0  0  0  0  0  0  0
  134.9943   69.8406  226.2766 H   0  0  0  0  0  0  0  0  0  0  0  0
  137.4299   70.0302  225.8665 H   0  0  0  0  0  0  0  0  0  0  0  0
  1  2  2  0
  2  3  2  0
  2  4  1  0
  4  5  1  0
  5  6  2  0
  6  7  1  0
  7  8  2  0
  8  9  1  0
  9 10  2  0
  2 11  1  0
 11 12  1  0
 12 13  2  0
 13 14  1  0
 14 15  2  0
 15 16  1  0
 16 17  2  0
 17 18  1  0
 18 19  2  0
 19 20  1  0
 20 21  1  0
 21 22  2  0
 22 23  1  0
 23 24  1  0
 24 25  2  0
 25 26  1  0
 26 27  2  0
 27 28  1  0
 28 29  2  0
 10  5  1  0
 20 11  1  0
 29 21  1  0
 19 14  1  0
 29 24  1  0
  4 30  1  0
  4 31  1  0
  6 32  1  0
  7 33  1  0
  8 34  1  0
  9 35  1  0
 10 36  1  0
 12 37  1  0
 13 38  1  0
 15 39  1  0
 16 40  1  0
 17 41  1  0
 18 42  1  0
 20 43  1  6
 22 44  1  0
 23 45  1  0
 25 46  1  0
 26 47  1  0
 27 48  1  0
 28 49  1  0
M  END
>  <smiles>  (54) 
O=S(=O)(Cc1ccccc1)N1C=Cc2ccccc2C1c1c[nH]c2ccccc12

>  <score_type>  (54) 
oracle

>  <origin>  (54) 
autodockgpu

>  <m_score__min__energy>  (54) 
-7.8499999999999996

>  <m_primary>  (54) 
energy

>  <rmsd>  (54) 
11.577709811517963

>  <m_score__min__rmsd>  (54) 
11.577709811517963

>  <meeko>  (54) 
{"free_energy": -7.85, "intermolecular_energy": -9.04, "internal_energy": -1.73, "cluster_size": 5, "cluster_id": 1, "rank_in_cluster": 1}

>  <energy>  (54) 
-7.81

>  <cluster_rmsd>  (54) 
0.16

>  <cluster>  (54) 
1

$$$$

     RDKit          3D

 49 53  0  0  1  0  0  0  0  0999 V2000
  139.6470   76.1420  219.3010 O   0  0  0  0  0  0  0  0  0  0  0  0
  140.5240   77.1780  218.6840 S   0  0  0  0  0  0  0  0  0  0  0  0
  139.7920   77.8750  217.5720 O   0  0  0  0  0  0  0  0  0  0  0  0
  141.9460   76.3520  218.0130 C   0  0  0  0  0  0  0  0  0  0  0  0
  142.5090   75.3880  218.9710 C   0  0  0  0  0  0  0  0  0  0  0  0
  141.8980   74.1940  219.3130 C   0  0  0  0  0  0  0  0  0  0  0  0
  142.4890   73.3420  220.2200 C   0  0  0  0  0  0  0  0  0  0  0  0
  143.6930   73.6590  220.8030 C   0  0  0  0  0  0  0  0  0  0  0  0
  144.3100   74.8410  220.4720 C   0  0  0  0  0  0  0  0  0  0  0  0
  143.7210   75.6890  219.5680 C   0  0  0  0  0  0  0  0  0  0  0  0
  141.0320   78.3480  219.8470 N   0  0  0  0  0  0  0  0  0  0  0  0
  141.1740   79.6840  219.4000 C   0  0  0  0  0  0  0  0  0  0  0  0
  141.5480   80.6580  220.2060 C   0  0  0  0  0  0  0  0  0  0  0  0
  141.8180   80.3210  221.5960 C   0  0  0  0  0  0  0  0  0  0  0  0
  142.2030   81.3520  222.4230 C   0  0  0  0  0  0  0  0  0  0  0  0
  142.4770   81.1330  223.7570 C   0  0  0  0  0  0  0  0  0  0  0  0
  142.3450   79.8400  224.2140 C   0  0  0  0  0  0  0  0  0  0  0  0
  141.9520   78.7930  223.3690 C   0  0  0  0  0  0  0  0  0  0  0  0
  141.6770   79.0100  222.0310 C   0  0  0  0  0  0  0  0  0  0  0  0
  141.2760   77.8900  221.1910 C   0  0  1  0  0  0  0  0  0  0  0  0
  140.2300   77.0030  221.7120 C   0  0  0  0  0  0  0  0  0  0  0  0
  140.4380   75.6540  221.9760 C   0  0  0  0  0  0  0  0  0  0  0  0
  139.3000   75.0980  222.4330 N   0  0  0  0  0  0  0  0  0  0  0  0
  138.3510   76.0560  222.4740 C   0  0  0  0  0  0  0  0  0  0  0  0
  137.0220   75.9940  222.8710 C   0  0  0  0  0  0  0  0  0  0  0  0
  136.2550   77.1380  222.8200 C   0  0  0  0  0  0  0  0  0  0  0  0
  136.8240   78.3290  222.3740 C   0  0  0  0  0  0  0  0  0  0  0  0
  138.1450   78.3810  221.9810 C   0  0  0  0  0  0  0  0  0  0  0  0
  138.9100   77.2350  222.0320 C   0  0  0  0  0  0  0  0  0  0  0  0
  141.6505   75.8167  217.0986 H   0  0  0  0  0  0  0  0  0  0  0  0
  142.7133   77.1085  217.7920 H   0  0  0  0  0  0  0  0  0  0  0  0
  140.9340   73.9236  218.8575 H   0  0  0  0  0  0  0  0  0  0  0  0
  141.9914   72.3963  220.4810 H   0  0  0  0  0  0  0  0  0  0  0  0
  144.1575   72.9734  221.5270 H   0  0  0  0  0  0  0  0  0  0  0  0
  145.2738   75.1071  220.9305 H   0  0  0  0  0  0  0  0  0  0  0  0
  144.2251   76.6324  219.3112 H   0  0  0  0  0  0  0  0  0  0  0  0
  140.9654   79.9170  218.3454 H   0  0  0  0  0  0  0  0  0  0  0  0
  141.6525   81.6902  219.8404 H   0  0  0  0  0  0  0  0  0  0  0  0
  142.2937   82.3686  222.0127 H   0  0  0  0  0  0  0  0  0  0  0  0
  142.7861   81.9514  224.4239 H   0  0  0  0  0  0  0  0  0  0  0  0
  142.5539   79.6232  225.2720 H   0  0  0  0  0  0  0  0  0  0  0  0
  141.8603   77.7764  223.7790 H   0  0  0  0  0  0  0  0  0  0  0  0
  142.1372   77.2056  221.1923 H   0  0  0  0  0  0  0  0  0  0  0  0
  141.3895   75.1209  221.8330 H   0  0  0  0  0  0  0  0  0  0  0  0
  139.1250   74.1100  222.7190 H   0  0  0  0  0  0  0  0  0  0  0  0
  136.5877   75.0459  223.2210 H   0  0  0  0  0  0  0  0  0  0  0  0
  135.1998   77.1109  223.1296 H   0  0  0  0  0  0  0  0  0  0  0  0
  136.2106   79.2413  222.3347 H   0  0  0  0  0  0  0  0  0  0  0  0
  138.5837   79.3269  221.6305 H   0  0  0  0  0  0  0  0  0  0  0  0
  1  2  2  0
  2  3  2  0
  2  4  1  0
  4  5  1  0
  5  6  2  0
  6  7  1  0
  7  8  2  0
  8  9  1  0
  9 10  2  0
  2 11  1  0
 11 12  1  0
 12 13  2  0
 13 14  1  0
 14 15  2  0
 15 16  1  0
 16 17  2  0
 17 18  1  0
 18 19  2  0
 19 20  1  0
 20 21  1  0
 21 22  2  0
 22 23  1  0
 23 24  1  0
 24 25  2  0
 25 26  1  0
 26 27  2  0
 27 28  1  0
 28 29  2  0
 10  5  1  0
 20 11  1  0
 29 21  1  0
 19 14  1  0
 29 24  1  0
  4 30  1  0
  4 31  1  0
  6 32  1  0
  7 33  1  0
  8 34  1  0
  9 35  1  0
 10 36  1  0
 12 37  1  0
 13 38  1  0
 15 39  1  0
 16 40  1  0
 17 41  1  0
 18 42  1  0
 20 43  1  6
 22 44  1  0
 23 45  1  0
 25 46  1  0
 26 47  1  0
 27 48  1  0
 28 49  1  0
M  END
>  <smiles>  (55) 
O=S(=O)(Cc1ccccc1)N1C=Cc2ccccc2C1c1c[nH]c2ccccc12

>  <score_type>  (55) 
oracle

>  <origin>  (55) 
autodockgpu

>  <m_score__min__energy>  (55) 
-7.8499999999999996

>  <m_primary>  (55) 
energy

>  <rmsd>  (55) 
4.977292152168859

>  <m_score__min__rmsd>  (55) 
4.977292152168859

>  <meeko>  (55) 
{"free_energy": -7.3, "intermolecular_energy": -8.5, "internal_energy": -2.24, "cluster_size": 35, "cluster_id": 4, "rank_in_cluster": 11}

>  <energy>  (55) 
-7.68

>  <cluster_rmsd>  (55) 
0.81

>  <cluster>  (55) 
1

$$$$

     RDKit          3D

 49 53  0  0  1  0  0  0  0  0999 V2000
  139.6560   76.1670  219.2970 O   0  0  0  0  0  0  0  0  0  0  0  0
  140.5320   77.2060  218.6850 S   0  0  0  0  0  0  0  0  0  0  0  0
  139.8000   77.9060  217.5740 O   0  0  0  0  0  0  0  0  0  0  0  0
  141.9560   76.3850  218.0130 C   0  0  0  0  0  0  0  0  0  0  0  0
  142.5130   75.4100  218.9650 C   0  0  0  0  0  0  0  0  0  0  0  0
  141.8930   74.2180  219.2970 C   0  0  0  0  0  0  0  0  0  0  0  0
  142.4780   73.3550  220.1980 C   0  0  0  0  0  0  0  0  0  0  0  0
  143.6850   73.6600  220.7840 C   0  0  0  0  0  0  0  0  0  0  0  0
  144.3100   74.8400  220.4620 C   0  0  0  0  0  0  0  0  0  0  0  0
  143.7270   75.6990  219.5640 C   0  0  0  0  0  0  0  0  0  0  0  0
  141.0370   78.3730  219.8530 N   0  0  0  0  0  0  0  0  0  0  0  0
  141.1610   79.7140  219.4150 C   0  0  0  0  0  0  0  0  0  0  0  0
  141.5300   80.6860  220.2250 C   0  0  0  0  0  0  0  0  0  0  0  0
  141.8150   80.3420  221.6110 C   0  0  0  0  0  0  0  0  0  0  0  0
  142.1950   81.3710  222.4420 C   0  0  0  0  0  0  0  0  0  0  0  0
  142.4820   81.1460  223.7720 C   0  0  0  0  0  0  0  0  0  0  0  0
  142.3680   79.8480  224.2210 C   0  0  0  0  0  0  0  0  0  0  0  0
  141.9800   78.8030  223.3710 C   0  0  0  0  0  0  0  0  0  0  0  0
  141.6920   79.0270  222.0360 C   0  0  0  0  0  0  0  0  0  0  0  0
  141.2970   77.9090  221.1920 C   0  0  1  0  0  0  0  0  0  0  0  0
  140.2640   77.0070  221.7140 C   0  0  0  0  0  0  0  0  0  0  0  0
  140.4940   75.6610  221.9810 C   0  0  0  0  0  0  0  0  0  0  0  0
  139.3640   75.0890  222.4380 N   0  0  0  0  0  0  0  0  0  0  0  0
  138.4000   76.0310  222.4780 C   0  0  0  0  0  0  0  0  0  0  0  0
  137.0730   75.9490  222.8750 C   0  0  0  0  0  0  0  0  0  0  0  0
  136.2880   77.0810  222.8220 C   0  0  0  0  0  0  0  0  0  0  0  0
  136.8380   78.2800  222.3740 C   0  0  0  0  0  0  0  0  0  0  0  0
  138.1580   78.3520  221.9800 C   0  0  0  0  0  0  0  0  0  0  0  0
  138.9410   77.2180  222.0330 C   0  0  0  0  0  0  0  0  0  0  0  0
  141.6645   75.8593  217.0918 H   0  0  0  0  0  0  0  0  0  0  0  0
  142.7255   77.1426  217.8033 H   0  0  0  0  0  0  0  0  0  0  0  0
  140.9274   73.9579  218.8388 H   0  0  0  0  0  0  0  0  0  0  0  0
  141.9739   72.4108  220.4519 H   0  0  0  0  0  0  0  0  0  0  0  0
  144.1447   72.9659  221.5030 H   0  0  0  0  0  0  0  0  0  0  0  0
  145.2755   75.0960  220.9227 H   0  0  0  0  0  0  0  0  0  0  0  0
  144.2374   76.6408  219.3140 H   0  0  0  0  0  0  0  0  0  0  0  0
  140.9420   79.9523  218.3637 H   0  0  0  0  0  0  0  0  0  0  0  0
  141.6196   81.7220  219.8662 H   0  0  0  0  0  0  0  0  0  0  0  0
  142.2712   82.3913  222.0381 H   0  0  0  0  0  0  0  0  0  0  0  0
  142.7872   81.9631  224.4422 H   0  0  0  0  0  0  0  0  0  0  0  0
  142.5876   79.6258  225.2757 H   0  0  0  0  0  0  0  0  0  0  0  0
  141.9027   77.7824  223.7740 H   0  0  0  0  0  0  0  0  0  0  0  0
  142.1661   77.2348  221.1831 H   0  0  0  0  0  0  0  0  0  0  0  0
  141.4539   75.1426  221.8400 H   0  0  0  0  0  0  0  0  0  0  0  0
  139.2050   74.0980  222.7260 H   0  0  0  0  0  0  0  0  0  0  0  0
  136.6536   74.9949  223.2268 H   0  0  0  0  0  0  0  0  0  0  0  0
  135.2334   77.0378  223.1317 H   0  0  0  0  0  0  0  0  0  0  0  0
  136.2105   79.1825  222.3338 H   0  0  0  0  0  0  0  0  0  0  0  0
  138.5816   79.3039  221.6272 H   0  0  0  0  0  0  0  0  0  0  0  0
  1  2  2  0
  2  3  2  0
  2  4  1  0
  4  5  1  0
  5  6  2  0
  6  7  1  0
  7  8  2  0
  8  9  1  0
  9 10  2  0
  2 11  1  0
 11 12  1  0
 12 13  2  0
 13 14  1  0
 14 15  2  0
 15 16  1  0
 16 17  2  0
 17 18  1  0
 18 19  2  0
 19 20  1  0
 20 21  1  0
 21 22  2  0
 22 23  1  0
 23 24  1  0
 24 25  2  0
 25 26  1  0
 26 27  2  0
 27 28  1  0
 28 29  2  0
 10  5  1  0
 20 11  1  0
 29 21  1  0
 19 14  1  0
 29 24  1  0
  4 30  1  0
  4 31  1  0
  6 32  1  0
  7 33  1  0
  8 34  1  0
  9 35  1  0
 10 36  1  0
 12 37  1  0
 13 38  1  0
 15 39  1  0
 16 40  1  0
 17 41  1  0
 18 42  1  0
 20 43  1  6
 22 44  1  0
 23 45  1  0
 25 46  1  0
 26 47  1  0
 27 48  1  0
 28 49  1  0
M  END
>  <smiles>  (56) 
O=S(=O)(Cc1ccccc1)N1C=Cc2ccccc2C1c1c[nH]c2ccccc12

>  <score_type>  (56) 
oracle

>  <origin>  (56) 
autodockgpu

>  <m_score__min__energy>  (56) 
-7.8499999999999996

>  <m_primary>  (56) 
energy

>  <rmsd>  (56) 
4.955676620282666

>  <m_score__min__rmsd>  (56) 
4.955676620282666

>  <meeko>  (56) 
{"free_energy": -7.28, "intermolecular_energy": -8.47, "internal_energy": -2.26, "cluster_size": 35, "cluster_id": 4, "rank_in_cluster": 24}

>  <energy>  (56) 
-7.63

>  <cluster_rmsd>  (56) 
0.0

>  <cluster>  (56) 
2

$$$$

     RDKit          3D

 49 53  0  0  1  0  0  0  0  0999 V2000
  139.6750   76.0660  219.3190 O   0  0  0  0  0  0  0  0  0  0  0  0
  140.5440   77.1040  218.6950 S   0  0  0  0  0  0  0  0  0  0  0  0
  139.8040   77.7940  217.5840 O   0  0  0  0  0  0  0  0  0  0  0  0
  141.9680   76.2840  218.0220 C   0  0  0  0  0  0  0  0  0  0  0  0
  142.5450   75.3330  218.9850 C   0  0  0  0  0  0  0  0  0  0  0  0
  141.9430   74.1390  219.3450 C   0  0  0  0  0  0  0  0  0  0  0  0
  142.5480   73.3000  220.2550 C   0  0  0  0  0  0  0  0  0  0  0  0
  143.7560   73.6300  220.8230 C   0  0  0  0  0  0  0  0  0  0  0  0
  144.3640   74.8110  220.4740 C   0  0  0  0  0  0  0  0  0  0  0  0
  143.7610   75.6470  219.5670 C   0  0  0  0  0  0  0  0  0  0  0  0
  141.0500   78.2810  219.8520 N   0  0  0  0  0  0  0  0  0  0  0  0
  141.1950   79.6150  219.3970 C   0  0  0  0  0  0  0  0  0  0  0  0
  141.5680   80.5930  220.1980 C   0  0  0  0  0  0  0  0  0  0  0  0
  141.8330   80.2650  221.5910 C   0  0  0  0  0  0  0  0  0  0  0  0
  142.2170   81.3010  222.4130 C   0  0  0  0  0  0  0  0  0  0  0  0
  142.4860   81.0910  223.7480 C   0  0  0  0  0  0  0  0  0  0  0  0
  142.3520   79.8010  224.2140 C   0  0  0  0  0  0  0  0  0  0  0  0
  141.9600   78.7490  223.3740 C   0  0  0  0  0  0  0  0  0  0  0  0
  141.6900   78.9570  222.0340 C   0  0  0  0  0  0  0  0  0  0  0  0
  141.2900   77.8320  221.2000 C   0  0  1  0  0  0  0  0  0  0  0  0
  140.2410   76.9500  221.7230 C   0  0  0  0  0  0  0  0  0  0  0  0
  140.4420   75.5980  221.9790 C   0  0  0  0  0  0  0  0  0  0  0  0
  139.3030   75.0480  222.4410 N   0  0  0  0  0  0  0  0  0  0  0  0
  138.3610   76.0110  222.4950 C   0  0  0  0  0  0  0  0  0  0  0  0
  137.0350   75.9570  222.9010 C   0  0  0  0  0  0  0  0  0  0  0  0
  136.2750   77.1070  222.8620 C   0  0  0  0  0  0  0  0  0  0  0  0
  136.8500   78.2960  222.4190 C   0  0  0  0  0  0  0  0  0  0  0  0
  138.1680   78.3410  222.0160 C   0  0  0  0  0  0  0  0  0  0  0  0
  138.9250   77.1890  222.0550 C   0  0  0  0  0  0  0  0  0  0  0  0
  141.6710   75.7383  217.1143 H   0  0  0  0  0  0  0  0  0  0  0  0
  142.7277   77.0447  217.7892 H   0  0  0  0  0  0  0  0  0  0  0  0
  140.9760   73.8588  218.9018 H   0  0  0  0  0  0  0  0  0  0  0  0
  142.0586   72.3543  220.5307 H   0  0  0  0  0  0  0  0  0  0  0  0
  144.2308   72.9546  221.5499 H   0  0  0  0  0  0  0  0  0  0  0  0
  145.3312   75.0863  220.9198 H   0  0  0  0  0  0  0  0  0  0  0  0
  144.2570   76.5906  219.2959 H   0  0  0  0  0  0  0  0  0  0  0  0
  140.9895   79.8419  218.3405 H   0  0  0  0  0  0  0  0  0  0  0  0
  141.6754   81.6226  219.8261 H   0  0  0  0  0  0  0  0  0  0  0  0
  142.3107   82.3147  221.9962 H   0  0  0  0  0  0  0  0  0  0  0  0
  142.7931   81.9139  224.4103 H   0  0  0  0  0  0  0  0  0  0  0  0
  142.5582   79.5909  225.2739 H   0  0  0  0  0  0  0  0  0  0  0  0
  141.8651   77.7353  223.7905 H   0  0  0  0  0  0  0  0  0  0  0  0
  142.1509   77.1473  221.2090 H   0  0  0  0  0  0  0  0  0  0  0  0
  141.3888   75.0590  221.8270 H   0  0  0  0  0  0  0  0  0  0  0  0
  139.1230   74.0590  222.7230 H   0  0  0  0  0  0  0  0  0  0  0  0
  136.5964   75.0102  223.2490 H   0  0  0  0  0  0  0  0  0  0  0  0
  135.2217   77.0856  223.1786 H   0  0  0  0  0  0  0  0  0  0  0  0
  136.2433   79.2131  222.3902 H   0  0  0  0  0  0  0  0  0  0  0  0
  138.6107   79.2856  221.6672 H   0  0  0  0  0  0  0  0  0  0  0  0
  1  2  2  0
  2  3  2  0
  2  4  1  0
  4  5  1  0
  5  6  2  0
  6  7  1  0
  7  8  2  0
  8  9  1  0
  9 10  2  0
  2 11  1  0
 11 12  1  0
 12 13  2  0
 13 14  1  0
 14 15  2  0
 15 16  1  0
 16 17  2  0
 17 18  1  0
 18 19  2  0
 19 20  1  0
 20 21  1  0
 21 22  2  0
 22 23  1  0
 23 24  1  0
 24 25  2  0
 25 26  1  0
 26 27  2  0
 27 28  1  0
 28 29  2  0
 10  5  1  0
 20 11  1  0
 29 21  1  0
 19 14  1  0
 29 24  1  0
  4 30  1  0
  4 31  1  0
  6 32  1  0
  7 33  1  0
  8 34  1  0
  9 35  1  0
 10 36  1  0
 12 37  1  0
 13 38  1  0
 15 39  1  0
 16 40  1  0
 17 41  1  0
 18 42  1  0
 20 43  1  6
 22 44  1  0
 23 45  1  0
 25 46  1  0
 26 47  1  0
 27 48  1  0
 28 49  1  0
M  END
>  <smiles>  (57) 
O=S(=O)(Cc1ccccc1)N1C=Cc2ccccc2C1c1c[nH]c2ccccc12

>  <score_type>  (57) 
oracle

>  <origin>  (57) 
autodockgpu

>  <m_score__min__energy>  (57) 
-7.8499999999999996

>  <m_primary>  (57) 
energy

>  <rmsd>  (57) 
5.004613691621909

>  <m_score__min__rmsd>  (57) 
5.004613691621909

>  <meeko>  (57) 
{"free_energy": -7.31, "intermolecular_energy": -8.5, "internal_energy": -2.22, "cluster_size": 35, "cluster_id": 4, "rank_in_cluster": 10}

>  <energy>  (57) 
-7.61

>  <cluster_rmsd>  (57) 
0.07

>  <cluster>  (57) 
2

$$$$

     RDKit          3D

 49 53  0  0  1  0  0  0  0  0999 V2000
  139.6240   76.1540  219.2970 O   0  0  0  0  0  0  0  0  0  0  0  0
  140.5000   77.1880  218.6770 S   0  0  0  0  0  0  0  0  0  0  0  0
  139.7650   77.8850  217.5660 O   0  0  0  0  0  0  0  0  0  0  0  0
  141.9200   76.3610  218.0040 C   0  0  0  0  0  0  0  0  0  0  0  0
  142.4920   75.4060  218.9660 C   0  0  0  0  0  0  0  0  0  0  0  0
  141.8850   74.2130  219.3210 C   0  0  0  0  0  0  0  0  0  0  0  0
  142.4840   73.3700  220.2300 C   0  0  0  0  0  0  0  0  0  0  0  0
  143.6910   73.6940  220.8040 C   0  0  0  0  0  0  0  0  0  0  0  0
  144.3030   74.8750  220.4600 C   0  0  0  0  0  0  0  0  0  0  0  0
  143.7060   75.7150  219.5530 C   0  0  0  0  0  0  0  0  0  0  0  0
  141.0110   78.3600  219.8370 N   0  0  0  0  0  0  0  0  0  0  0  0
  141.1460   79.6970  219.3900 C   0  0  0  0  0  0  0  0  0  0  0  0
  141.5220   80.6720  220.1930 C   0  0  0  0  0  0  0  0  0  0  0  0
  141.8010   80.3360  221.5820 C   0  0  0  0  0  0  0  0  0  0  0  0
  142.1880   81.3680  222.4070 C   0  0  0  0  0  0  0  0  0  0  0  0
  142.4700   81.1500  223.7380 C   0  0  0  0  0  0  0  0  0  0  0  0
  142.3460   79.8570  224.1970 C   0  0  0  0  0  0  0  0  0  0  0  0
  141.9510   78.8080  223.3530 C   0  0  0  0  0  0  0  0  0  0  0  0
  141.6680   79.0250  222.0170 C   0  0  0  0  0  0  0  0  0  0  0  0
  141.2650   77.9030  221.1800 C   0  0  1  0  0  0  0  0  0  0  0  0
  140.2250   77.0130  221.7060 C   0  0  0  0  0  0  0  0  0  0  0  0
  140.4410   75.6650  221.9750 C   0  0  0  0  0  0  0  0  0  0  0  0
  139.3070   75.1060  222.4370 N   0  0  0  0  0  0  0  0  0  0  0  0
  138.3530   76.0580  222.4780 C   0  0  0  0  0  0  0  0  0  0  0  0
  137.0260   75.9910  222.8800 C   0  0  0  0  0  0  0  0  0  0  0  0
  136.2530   77.1310  222.8280 C   0  0  0  0  0  0  0  0  0  0  0  0
  136.8150   78.3230  222.3760 C   0  0  0  0  0  0  0  0  0  0  0  0
  138.1340   78.3800  221.9780 C   0  0  0  0  0  0  0  0  0  0  0  0
  138.9050   77.2390  222.0300 C   0  0  0  0  0  0  0  0  0  0  0  0
  141.6204   75.8177  217.0956 H   0  0  0  0  0  0  0  0  0  0  0  0
  142.6837   77.1181  217.7725 H   0  0  0  0  0  0  0  0  0  0  0  0
  140.9185   73.9372  218.8741 H   0  0  0  0  0  0  0  0  0  0  0  0
  141.9906   72.4249  220.5007 H   0  0  0  0  0  0  0  0  0  0  0  0
  144.1613   73.0151  221.5306 H   0  0  0  0  0  0  0  0  0  0  0  0
  145.2691   75.1469  220.9103 H   0  0  0  0  0  0  0  0  0  0  0  0
  144.2057   76.6579  219.2861 H   0  0  0  0  0  0  0  0  0  0  0  0
  140.9297   79.9296  218.3369 H   0  0  0  0  0  0  0  0  0  0  0  0
  141.6217   81.7043  219.8264 H   0  0  0  0  0  0  0  0  0  0  0  0
  142.2736   82.3848  221.9962 H   0  0  0  0  0  0  0  0  0  0  0  0
  142.7796   81.9699  224.4028 H   0  0  0  0  0  0  0  0  0  0  0  0
  142.5625   79.6411  225.2537 H   0  0  0  0  0  0  0  0  0  0  0  0
  141.8646   77.7909  223.7630 H   0  0  0  0  0  0  0  0  0  0  0  0
  142.1285   77.2216  221.1780 H   0  0  0  0  0  0  0  0  0  0  0  0
  141.3947   75.1359  221.8317 H   0  0  0  0  0  0  0  0  0  0  0  0
  139.1380   74.1170  222.7270 H   0  0  0  0  0  0  0  0  0  0  0  0
  136.5976   75.0420  223.2349 H   0  0  0  0  0  0  0  0  0  0  0  0
  135.1991   77.0998  223.1414 H   0  0  0  0  0  0  0  0  0  0  0  0
  136.1973   79.2323  222.3360 H   0  0  0  0  0  0  0  0  0  0  0  0
  138.5665   79.3269  221.6225 H   0  0  0  0  0  0  0  0  0  0  0  0
  1  2  2  0
  2  3  2  0
  2  4  1  0
  4  5  1  0
  5  6  2  0
  6  7  1  0
  7  8  2  0
  8  9  1  0
  9 10  2  0
  2 11  1  0
 11 12  1  0
 12 13  2  0
 13 14  1  0
 14 15  2  0
 15 16  1  0
 16 17  2  0
 17 18  1  0
 18 19  2  0
 19 20  1  0
 20 21  1  0
 21 22  2  0
 22 23  1  0
 23 24  1  0
 24 25  2  0
 25 26  1  0
 26 27  2  0
 27 28  1  0
 28 29  2  0
 10  5  1  0
 20 11  1  0
 29 21  1  0
 19 14  1  0
 29 24  1  0
  4 30  1  0
  4 31  1  0
  6 32  1  0
  7 33  1  0
  8 34  1  0
  9 35  1  0
 10 36  1  0
 12 37  1  0
 13 38  1  0
 15 39  1  0
 16 40  1  0
 17 41  1  0
 18 42  1  0
 20 43  1  6
 22 44  1  0
 23 45  1  0
 25 46  1  0
 26 47  1  0
 27 48  1  0
 28 49  1  0
M  END
>  <smiles>  (58) 
O=S(=O)(Cc1ccccc1)N1C=Cc2ccccc2C1c1c[nH]c2ccccc12

>  <score_type>  (58) 
oracle

>  <origin>  (58) 
autodockgpu

>  <m_score__min__energy>  (58) 
-7.8499999999999996

>  <m_primary>  (58) 
energy

>  <rmsd>  (58) 
4.971705112286527

>  <m_score__min__rmsd>  (58) 
4.971705112286527

>  <meeko>  (58) 
{"free_energy": -7.29, "intermolecular_energy": -8.48, "internal_energy": -2.25, "cluster_size": 35, "cluster_id": 4, "rank_in_cluster": 22}

>  <energy>  (58) 
-7.61

>  <cluster_rmsd>  (58) 
0.03

>  <cluster>  (58) 
2

$$$$

     RDKit          3D

 49 53  0  0  1  0  0  0  0  0999 V2000
  139.6050   76.1880  219.3050 O   0  0  0  0  0  0  0  0  0  0  0  0
  140.4610   77.2380  218.6820 S   0  0  0  0  0  0  0  0  0  0  0  0
  139.7040   77.9360  217.5870 O   0  0  0  0  0  0  0  0  0  0  0  0
  141.8810   76.4330  217.9830 C   0  0  0  0  0  0  0  0  0  0  0  0
  142.5120   75.5200  218.9500 C   0  0  0  0  0  0  0  0  0  0  0  0
  143.7110   75.7840  219.5890 C   0  0  0  0  0  0  0  0  0  0  0  0
  144.2390   74.8780  220.4830 C   0  0  0  0  0  0  0  0  0  0  0  0
  143.5890   73.6970  220.7570 C   0  0  0  0  0  0  0  0  0  0  0  0
  142.3980   73.4240  220.1280 C   0  0  0  0  0  0  0  0  0  0  0  0
  141.8720   74.3270  219.2380 C   0  0  0  0  0  0  0  0  0  0  0  0
  140.9750   78.4040  219.8470 N   0  0  0  0  0  0  0  0  0  0  0  0
  141.1010   79.7440  219.4070 C   0  0  0  0  0  0  0  0  0  0  0  0
  141.4770   80.7160  220.2140 C   0  0  0  0  0  0  0  0  0  0  0  0
  141.7670   80.3730  221.5990 C   0  0  0  0  0  0  0  0  0  0  0  0
  142.1550   81.4010  222.4280 C   0  0  0  0  0  0  0  0  0  0  0  0
  142.4470   81.1760  223.7560 C   0  0  0  0  0  0  0  0  0  0  0  0
  142.3310   79.8790  224.2070 C   0  0  0  0  0  0  0  0  0  0  0  0
  141.9360   78.8340  223.3590 C   0  0  0  0  0  0  0  0  0  0  0  0
  141.6430   79.0580  222.0260 C   0  0  0  0  0  0  0  0  0  0  0  0
  141.2400   77.9400  221.1850 C   0  0  1  0  0  0  0  0  0  0  0  0
  140.2070   77.0410  221.7120 C   0  0  0  0  0  0  0  0  0  0  0  0
  140.4310   75.6930  221.9720 C   0  0  0  0  0  0  0  0  0  0  0  0
  139.3030   75.1260  222.4370 N   0  0  0  0  0  0  0  0  0  0  0  0
  138.3450   76.0730  222.4900 C   0  0  0  0  0  0  0  0  0  0  0  0
  137.0200   75.9970  222.8990 C   0  0  0  0  0  0  0  0  0  0  0  0
  136.2410   77.1330  222.8570 C   0  0  0  0  0  0  0  0  0  0  0  0
  136.7940   78.3310  222.4090 C   0  0  0  0  0  0  0  0  0  0  0  0
  138.1110   78.3970  222.0030 C   0  0  0  0  0  0  0  0  0  0  0  0
  138.8880   77.2590  222.0450 C   0  0  0  0  0  0  0  0  0  0  0  0
  141.5672   75.8574  217.0997 H   0  0  0  0  0  0  0  0  0  0  0  0
  142.6146   77.2045  217.7062 H   0  0  0  0  0  0  0  0  0  0  0  0
  144.2457   76.7227  219.3820 H   0  0  0  0  0  0  0  0  0  0  0  0
  145.1924   75.1020  220.9839 H   0  0  0  0  0  0  0  0  0  0  0  0
  144.0178   72.9791  221.4717 H   0  0  0  0  0  0  0  0  0  0  0  0
  141.8672   72.4836  220.3374 H   0  0  0  0  0  0  0  0  0  0  0  0
  140.9179   74.0968  218.7412 H   0  0  0  0  0  0  0  0  0  0  0  0
  140.8776   79.9818  218.3565 H   0  0  0  0  0  0  0  0  0  0  0  0
  141.5686   81.7512  219.8534 H   0  0  0  0  0  0  0  0  0  0  0  0
  142.2335   82.4208  222.0232 H   0  0  0  0  0  0  0  0  0  0  0  0
  142.7578   81.9928  224.4241 H   0  0  0  0  0  0  0  0  0  0  0  0
  142.5543   79.6572  225.2610 H   0  0  0  0  0  0  0  0  0  0  0  0
  141.8575   77.8139  223.7630 H   0  0  0  0  0  0  0  0  0  0  0  0
  142.1069   77.2630  221.1735 H   0  0  0  0  0  0  0  0  0  0  0  0
  141.3864   75.1695  221.8203 H   0  0  0  0  0  0  0  0  0  0  0  0
  139.1410   74.1350  222.7230 H   0  0  0  0  0  0  0  0  0  0  0  0
  136.5985   75.0440  223.2513 H   0  0  0  0  0  0  0  0  0  0  0  0
  135.1888   77.0943  223.1753 H   0  0  0  0  0  0  0  0  0  0  0  0
  136.1714   79.2374  222.3786 H   0  0  0  0  0  0  0  0  0  0  0  0
  138.5366   79.3478  221.6495 H   0  0  0  0  0  0  0  0  0  0  0  0
  1  2  2  0
  2  3  2  0
  2  4  1  0
  4  5  1  0
  5  6  2  0
  6  7  1  0
  7  8  2  0
  8  9  1  0
  9 10  2  0
  2 11  1  0
 11 12  1  0
 12 13  2  0
 13 14  1  0
 14 15  2  0
 15 16  1  0
 16 17  2  0
 17 18  1  0
 18 19  2  0
 19 20  1  0
 20 21  1  0
 21 22  2  0
 22 23  1  0
 23 24  1  0
 24 25  2  0
 25 26  1  0
 26 27  2  0
 27 28  1  0
 28 29  2  0
 10  5  1  0
 20 11  1  0
 29 21  1  0
 19 14  1  0
 29 24  1  0
  4 30  1  0
  4 31  1  0
  6 32  1  0
  7 33  1  0
  8 34  1  0
  9 35  1  0
 10 36  1  0
 12 37  1  0
 13 38  1  0
 15 39  1  0
 16 40  1  0
 17 41  1  0
 18 42  1  0
 20 43  1  6
 22 44  1  0
 23 45  1  0
 25 46  1  0
 26 47  1  0
 27 48  1  0
 28 49  1  0
M  END
>  <smiles>  (59) 
O=S(=O)(Cc1ccccc1)N1C=Cc2ccccc2C1c1c[nH]c2ccccc12

>  <score_type>  (59) 
oracle

>  <origin>  (59) 
autodockgpu

>  <m_score__min__energy>  (59) 
-7.8499999999999996

>  <m_primary>  (59) 
energy

>  <rmsd>  (59) 
4.970369409031143

>  <m_score__min__rmsd>  (59) 
4.970369409031143

>  <meeko>  (59) 
{"free_energy": -7.25, "intermolecular_energy": -8.44, "internal_energy": -2.24, "cluster_size": 35, "cluster_id": 4, "rank_in_cluster": 30}

>  <energy>  (59) 
-7.61

>  <cluster_rmsd>  (59) 
0.38

>  <cluster>  (59) 
2

$$$$

     RDKit          3D

 49 53  0  0  1  0  0  0  0  0999 V2000
  139.5970   76.1240  219.3020 O   0  0  0  0  0  0  0  0  0  0  0  0
  140.4710   77.1640  218.6860 S   0  0  0  0  0  0  0  0  0  0  0  0
  139.7350   77.8630  217.5780 O   0  0  0  0  0  0  0  0  0  0  0  0
  141.8930   76.3430  218.0100 C   0  0  0  0  0  0  0  0  0  0  0  0
  142.4810   75.4010  218.9770 C   0  0  0  0  0  0  0  0  0  0  0  0
  141.8910   74.2030  219.3410 C   0  0  0  0  0  0  0  0  0  0  0  0
  142.5040   73.3740  220.2540 C   0  0  0  0  0  0  0  0  0  0  0  0
  143.7090   73.7180  220.8220 C   0  0  0  0  0  0  0  0  0  0  0  0
  144.3040   74.9050  220.4680 C   0  0  0  0  0  0  0  0  0  0  0  0
  143.6930   75.7310  219.5580 C   0  0  0  0  0  0  0  0  0  0  0  0
  140.9790   78.3310  219.8520 N   0  0  0  0  0  0  0  0  0  0  0  0
  141.1240   79.6680  219.4070 C   0  0  0  0  0  0  0  0  0  0  0  0
  141.4990   80.6400  220.2150 C   0  0  0  0  0  0  0  0  0  0  0  0
  141.7660   80.3010  221.6050 C   0  0  0  0  0  0  0  0  0  0  0  0
  142.1510   81.3300  222.4340 C   0  0  0  0  0  0  0  0  0  0  0  0
  142.4220   81.1090  223.7680 C   0  0  0  0  0  0  0  0  0  0  0  0
  142.2880   79.8160  224.2230 C   0  0  0  0  0  0  0  0  0  0  0  0
  141.8940   78.7710  223.3760 C   0  0  0  0  0  0  0  0  0  0  0  0
  141.6220   78.9900  222.0370 C   0  0  0  0  0  0  0  0  0  0  0  0
  141.2210   77.8720  221.1960 C   0  0  1  0  0  0  0  0  0  0  0  0
  140.1720   76.9860  221.7140 C   0  0  0  0  0  0  0  0  0  0  0  0
  140.3780   75.6360  221.9800 C   0  0  0  0  0  0  0  0  0  0  0  0
  139.2390   75.0820  222.4330 N   0  0  0  0  0  0  0  0  0  0  0  0
  138.2900   76.0400  222.4710 C   0  0  0  0  0  0  0  0  0  0  0  0
  136.9600   75.9790  222.8640 C   0  0  0  0  0  0  0  0  0  0  0  0
  136.1940   77.1240  222.8090 C   0  0  0  0  0  0  0  0  0  0  0  0
  136.7650   78.3140  222.3650 C   0  0  0  0  0  0  0  0  0  0  0  0
  138.0870   78.3650  221.9750 C   0  0  0  0  0  0  0  0  0  0  0  0
  138.8510   77.2190  222.0290 C   0  0  0  0  0  0  0  0  0  0  0  0
  141.5914   75.7889  217.1089 H   0  0  0  0  0  0  0  0  0  0  0  0
  142.6484   77.1045  217.7660 H   0  0  0  0  0  0  0  0  0  0  0  0
  140.9271   73.9114  218.8985 H   0  0  0  0  0  0  0  0  0  0  0  0
  142.0239   72.4244  220.5328 H   0  0  0  0  0  0  0  0  0  0  0  0
  144.1908   73.0503  221.5514 H   0  0  0  0  0  0  0  0  0  0  0  0
  145.2680   75.1926  220.9130 H   0  0  0  0  0  0  0  0  0  0  0  0
  144.1787   76.6790  219.2836 H   0  0  0  0  0  0  0  0  0  0  0  0
  140.9169   79.9030  218.3525 H   0  0  0  0  0  0  0  0  0  0  0  0
  141.6064   81.6724  219.8509 H   0  0  0  0  0  0  0  0  0  0  0  0
  142.2442   82.3469  222.0252 H   0  0  0  0  0  0  0  0  0  0  0  0
  142.7304   81.9262  224.4366 H   0  0  0  0  0  0  0  0  0  0  0  0
  142.4960   79.5973  225.2808 H   0  0  0  0  0  0  0  0  0  0  0  0
  141.7989   77.7542  223.7848 H   0  0  0  0  0  0  0  0  0  0  0  0
  142.0818   77.1872  221.1989 H   0  0  0  0  0  0  0  0  0  0  0  0
  141.3295   75.1019  221.8408 H   0  0  0  0  0  0  0  0  0  0  0  0
  139.0620   74.0940  222.7190 H   0  0  0  0  0  0  0  0  0  0  0  0
  136.5240   75.0317  223.2139 H   0  0  0  0  0  0  0  0  0  0  0  0
  135.1375   77.0977  223.1142 H   0  0  0  0  0  0  0  0  0  0  0  0
  136.1526   79.2269  222.3247 H   0  0  0  0  0  0  0  0  0  0  0  0
  138.5270   79.3103  221.6246 H   0  0  0  0  0  0  0  0  0  0  0  0
  1  2  2  0
  2  3  2  0
  2  4  1  0
  4  5  1  0
  5  6  2  0
  6  7  1  0
  7  8  2  0
  8  9  1  0
  9 10  2  0
  2 11  1  0
 11 12  1  0
 12 13  2  0
 13 14  1  0
 14 15  2  0
 15 16  1  0
 16 17  2  0
 17 18  1  0
 18 19  2  0
 19 20  1  0
 20 21  1  0
 21 22  2  0
 22 23  1  0
 23 24  1  0
 24 25  2  0
 25 26  1  0
 26 27  2  0
 27 28  1  0
 28 29  2  0
 10  5  1  0
 20 11  1  0
 29 21  1  0
 19 14  1  0
 29 24  1  0
  4 30  1  0
  4 31  1  0
  6 32  1  0
  7 33  1  0
  8 34  1  0
  9 35  1  0
 10 36  1  0
 12 37  1  0
 13 38  1  0
 15 39  1  0
 16 40  1  0
 17 41  1  0
 18 42  1  0
 20 43  1  6
 22 44  1  0
 23 45  1  0
 25 46  1  0
 26 47  1  0
 27 48  1  0
 28 49  1  0
M  END
>  <smiles>  (60) 
O=S(=O)(Cc1ccccc1)N1C=Cc2ccccc2C1c1c[nH]c2ccccc12

>  <score_type>  (60) 
oracle

>  <origin>  (60) 
autodockgpu

>  <m_score__min__energy>  (60) 
-7.8499999999999996

>  <m_primary>  (60) 
energy

>  <rmsd>  (60) 
4.994126602174541

>  <m_score__min__rmsd>  (60) 
4.994126602174541

>  <meeko>  (60) 
{"free_energy": -7.29, "intermolecular_energy": -8.48, "internal_energy": -2.24, "cluster_size": 35, "cluster_id": 4, "rank_in_cluster": 20}

>  <energy>  (60) 
-7.59

>  <cluster_rmsd>  (60) 
0.08

>  <cluster>  (60) 
2

$$$$

     RDKit          3D

 49 53  0  0  1  0  0  0  0  0999 V2000
  139.6600   76.1630  219.2950 O   0  0  0  0  0  0  0  0  0  0  0  0
  140.5300   77.2050  218.6780 S   0  0  0  0  0  0  0  0  0  0  0  0
  139.7930   77.8960  217.5650 O   0  0  0  0  0  0  0  0  0  0  0  0
  141.9590   76.3900  218.0090 C   0  0  0  0  0  0  0  0  0  0  0  0
  142.5240   75.4250  218.9650 C   0  0  0  0  0  0  0  0  0  0  0  0
  141.9150   74.2270  219.3010 C   0  0  0  0  0  0  0  0  0  0  0  0
  142.5070   73.3750  220.2060 C   0  0  0  0  0  0  0  0  0  0  0  0
  143.7100   73.6940  220.7930 C   0  0  0  0  0  0  0  0  0  0  0  0
  144.3230   74.8790  220.4680 C   0  0  0  0  0  0  0  0  0  0  0  0
  143.7330   75.7280  219.5660 C   0  0  0  0  0  0  0  0  0  0  0  0
  141.0270   78.3800  219.8410 N   0  0  0  0  0  0  0  0  0  0  0  0
  141.1540   79.7190  219.3940 C   0  0  0  0  0  0  0  0  0  0  0  0
  141.5190   80.6960  220.2000 C   0  0  0  0  0  0  0  0  0  0  0  0
  141.7960   80.3620  221.5890 C   0  0  0  0  0  0  0  0  0  0  0  0
  142.1710   81.3960  222.4160 C   0  0  0  0  0  0  0  0  0  0  0  0
  142.4500   81.1800  223.7490 C   0  0  0  0  0  0  0  0  0  0  0  0
  142.3340   79.8850  224.2060 C   0  0  0  0  0  0  0  0  0  0  0  0
  141.9500   78.8340  223.3610 C   0  0  0  0  0  0  0  0  0  0  0  0
  141.6710   79.0490  222.0230 C   0  0  0  0  0  0  0  0  0  0  0  0
  141.2800   77.9250  221.1840 C   0  0  1  0  0  0  0  0  0  0  0  0
  140.2450   77.0260  221.7070 C   0  0  0  0  0  0  0  0  0  0  0  0
  140.4680   75.6790  221.9680 C   0  0  0  0  0  0  0  0  0  0  0  0
  139.3370   75.1110  222.4270 N   0  0  0  0  0  0  0  0  0  0  0  0
  138.3780   76.0570  222.4740 C   0  0  0  0  0  0  0  0  0  0  0  0
  137.0520   75.9810  222.8750 C   0  0  0  0  0  0  0  0  0  0  0  0
  136.2720   77.1170  222.8280 C   0  0  0  0  0  0  0  0  0  0  0  0
  136.8270   78.3150  222.3830 C   0  0  0  0  0  0  0  0  0  0  0  0
  138.1460   78.3810  221.9850 C   0  0  0  0  0  0  0  0  0  0  0  0
  138.9230   77.2430  222.0310 C   0  0  0  0  0  0  0  0  0  0  0  0
  141.6700   75.8570  217.0912 H   0  0  0  0  0  0  0  0  0  0  0  0
  142.7229   77.1518  217.7942 H   0  0  0  0  0  0  0  0  0  0  0  0
  140.9530   73.9549  218.8421 H   0  0  0  0  0  0  0  0  0  0  0  0
  142.0119   72.4270  220.4632 H   0  0  0  0  0  0  0  0  0  0  0  0
  144.1757   73.0070  221.5149 H   0  0  0  0  0  0  0  0  0  0  0  0
  145.2848   75.1470  220.9297 H   0  0  0  0  0  0  0  0  0  0  0  0
  144.2342   76.6742  219.3140 H   0  0  0  0  0  0  0  0  0  0  0  0
  140.9410   79.9504  218.3399 H   0  0  0  0  0  0  0  0  0  0  0  0
  141.6111   81.7295  219.8348 H   0  0  0  0  0  0  0  0  0  0  0  0
  142.2497   82.4137  222.0061 H   0  0  0  0  0  0  0  0  0  0  0  0
  142.7507   82.0018  224.4155 H   0  0  0  0  0  0  0  0  0  0  0  0
  142.5487   79.6699  225.2632 H   0  0  0  0  0  0  0  0  0  0  0  0
  141.8688   77.8164  223.7708 H   0  0  0  0  0  0  0  0  0  0  0  0
  142.1492   77.2508  221.1837 H   0  0  0  0  0  0  0  0  0  0  0  0
  141.4245   75.1559  221.8216 H   0  0  0  0  0  0  0  0  0  0  0  0
  139.1740   74.1200  222.7130 H   0  0  0  0  0  0  0  0  0  0  0  0
  136.6290   75.0280  223.2255 H   0  0  0  0  0  0  0  0  0  0  0  0
  135.2179   77.0777  223.1400 H   0  0  0  0  0  0  0  0  0  0  0  0
  136.2044   79.2212  222.3486 H   0  0  0  0  0  0  0  0  0  0  0  0
  138.5736   79.3319  221.6345 H   0  0  0  0  0  0  0  0  0  0  0  0
  1  2  2  0
  2  3  2  0
  2  4  1  0
  4  5  1  0
  5  6  2  0
  6  7  1  0
  7  8  2  0
  8  9  1  0
  9 10  2  0
  2 11  1  0
 11 12  1  0
 12 13  2  0
 13 14  1  0
 14 15  2  0
 15 16  1  0
 16 17  2  0
 17 18  1  0
 18 19  2  0
 19 20  1  0
 20 21  1  0
 21 22  2  0
 22 23  1  0
 23 24  1  0
 24 25  2  0
 25 26  1  0
 26 27  2  0
 27 28  1  0
 28 29  2  0
 10  5  1  0
 20 11  1  0
 29 21  1  0
 19 14  1  0
 29 24  1  0
  4 30  1  0
  4 31  1  0
  6 32  1  0
  7 33  1  0
  8 34  1  0
  9 35  1  0
 10 36  1  0
 12 37  1  0
 13 38  1  0
 15 39  1  0
 16 40  1  0
 17 41  1  0
 18 42  1  0
 20 43  1  6
 22 44  1  0
 23 45  1  0
 25 46  1  0
 26 47  1  0
 27 48  1  0
 28 49  1  0
M  END
>  <smiles>  (61) 
O=S(=O)(Cc1ccccc1)N1C=Cc2ccccc2C1c1c[nH]c2ccccc12

>  <score_type>  (61) 
oracle

>  <origin>  (61) 
autodockgpu

>  <m_score__min__energy>  (61) 
-7.8499999999999996

>  <m_primary>  (61) 
energy

>  <rmsd>  (61) 
4.959219579772465

>  <m_score__min__rmsd>  (61) 
4.959219579772465

>  <meeko>  (61) 
{"free_energy": -7.3, "intermolecular_energy": -8.49, "internal_energy": -2.24, "cluster_size": 35, "cluster_id": 4, "rank_in_cluster": 14}

>  <energy>  (61) 
-7.57

>  <cluster_rmsd>  (61) 
0.08

>  <cluster>  (61) 
2

$$$$

     RDKit          3D

 49 53  0  0  1  0  0  0  0  0999 V2000
  139.9940   75.9830  219.3140 O   0  0  0  0  0  0  0  0  0  0  0  0
  140.8430   77.0410  218.6960 S   0  0  0  0  0  0  0  0  0  0  0  0
  140.1190   77.6710  217.5390 O   0  0  0  0  0  0  0  0  0  0  0  0
  142.3240   76.2640  218.0990 C   0  0  0  0  0  0  0  0  0  0  0  0
  142.8000   75.2280  219.0290 C   0  0  0  0  0  0  0  0  0  0  0  0
  142.1140   74.0540  219.2900 C   0  0  0  0  0  0  0  0  0  0  0  0
  142.6250   73.1300  220.1750 C   0  0  0  0  0  0  0  0  0  0  0  0
  143.8220   73.3540  220.8160 C   0  0  0  0  0  0  0  0  0  0  0  0
  144.5110   74.5160  220.5650 C   0  0  0  0  0  0  0  0  0  0  0  0
  144.0020   75.4350  219.6830 C   0  0  0  0  0  0  0  0  0  0  0  0
  141.2550   78.2670  219.8390 N   0  0  0  0  0  0  0  0  0  0  0  0
  141.3950   79.5880  219.3490 C   0  0  0  0  0  0  0  0  0  0  0  0
  141.6980   80.6010  220.1350 C   0  0  0  0  0  0  0  0  0  0  0  0
  141.8920   80.3250  221.5520 C   0  0  0  0  0  0  0  0  0  0  0  0
  142.2040   81.3950  222.3580 C   0  0  0  0  0  0  0  0  0  0  0  0
  142.4020   81.2350  223.7130 C   0  0  0  0  0  0  0  0  0  0  0  0
  142.2710   79.9580  224.2130 C   0  0  0  0  0  0  0  0  0  0  0  0
  141.9520   78.8700  223.3890 C   0  0  0  0  0  0  0  0  0  0  0  0
  141.7540   79.0290  222.0290 C   0  0  0  0  0  0  0  0  0  0  0  0
  141.4280   77.8680  221.2130 C   0  0  1  0  0  0  0  0  0  0  0  0
  140.3720   76.9760  221.7060 C   0  0  0  0  0  0  0  0  0  0  0  0
  140.5780   75.6270  221.9720 C   0  0  0  0  0  0  0  0  0  0  0  0
  139.4310   75.0670  222.3990 N   0  0  0  0  0  0  0  0  0  0  0  0
  138.4780   76.0210  222.4200 C   0  0  0  0  0  0  0  0  0  0  0  0
  137.1400   75.9550  222.7850 C   0  0  0  0  0  0  0  0  0  0  0  0
  136.3710   77.0970  222.7180 C   0  0  0  0  0  0  0  0  0  0  0  0
  136.9480   78.2910  222.2890 C   0  0  0  0  0  0  0  0  0  0  0  0
  138.2780   78.3470  221.9280 C   0  0  0  0  0  0  0  0  0  0  0  0
  139.0440   77.2040  221.9940 C   0  0  0  0  0  0  0  0  0  0  0  0
  142.1165   75.8007  217.1231 H   0  0  0  0  0  0  0  0  0  0  0  0
  143.1055   77.0328  218.0083 H   0  0  0  0  0  0  0  0  0  0  0  0
  141.1552   73.8578  218.7877 H   0  0  0  0  0  0  0  0  0  0  0  0
  142.0691   72.2014  220.3718 H   0  0  0  0  0  0  0  0  0  0  0  0
  144.2227   72.6111  221.5214 H   0  0  0  0  0  0  0  0  0  0  0  0
  145.4688   74.7089  221.0703 H   0  0  0  0  0  0  0  0  0  0  0  0
  144.5640   76.3608  219.4904 H   0  0  0  0  0  0  0  0  0  0  0  0
  141.2457   79.7749  218.2753 H   0  0  0  0  0  0  0  0  0  0  0  0
  141.8010   81.6204  219.7348 H   0  0  0  0  0  0  0  0  0  0  0  0
  142.2973   82.3968  221.9133 H   0  0  0  0  0  0  0  0  0  0  0  0
  142.6525   82.0860  224.3635 H   0  0  0  0  0  0  0  0  0  0  0  0
  142.4210   79.7874  225.2893 H   0  0  0  0  0  0  0  0  0  0  0  0
  141.8570   77.8682  223.8332 H   0  0  0  0  0  0  0  0  0  0  0  0
  142.3024   77.2056  221.2940 H   0  0  0  0  0  0  0  0  0  0  0  0
  141.5344   75.0971  221.8516 H   0  0  0  0  0  0  0  0  0  0  0  0
  139.2520   74.0770  222.6790 H   0  0  0  0  0  0  0  0  0  0  0  0
  136.7000   75.0051  223.1228 H   0  0  0  0  0  0  0  0  0  0  0  0
  135.3086   77.0662  223.0013 H   0  0  0  0  0  0  0  0  0  0  0  0
  136.3337   79.2020  222.2376 H   0  0  0  0  0  0  0  0  0  0  0  0
  138.7226   79.2949  221.5907 H   0  0  0  0  0  0  0  0  0  0  0  0
  1  2  2  0
  2  3  2  0
  2  4  1  0
  4  5  1  0
  5  6  2  0
  6  7  1  0
  7  8  2  0
  8  9  1  0
  9 10  2  0
  2 11  1  0
 11 12  1  0
 12 13  2  0
 13 14  1  0
 14 15  2  0
 15 16  1  0
 16 17  2  0
 17 18  1  0
 18 19  2  0
 19 20  1  0
 20 21  1  0
 21 22  2  0
 22 23  1  0
 23 24  1  0
 24 25  2  0
 25 26  1  0
 26 27  2  0
 27 28  1  0
 28 29  2  0
 10  5  1  0
 20 11  1  0
 29 21  1  0
 19 14  1  0
 29 24  1  0
  4 30  1  0
  4 31  1  0
  6 32  1  0
  7 33  1  0
  8 34  1  0
  9 35  1  0
 10 36  1  0
 12 37  1  0
 13 38  1  0
 15 39  1  0
 16 40  1  0
 17 41  1  0
 18 42  1  0
 20 43  1  6
 22 44  1  0
 23 45  1  0
 25 46  1  0
 26 47  1  0
 27 48  1  0
 28 49  1  0
M  END
>  <smiles>  (62) 
O=S(=O)(Cc1ccccc1)N1C=Cc2ccccc2C1c1c[nH]c2ccccc12

>  <score_type>  (62) 
oracle

>  <origin>  (62) 
autodockgpu

>  <m_score__min__energy>  (62) 
-7.8499999999999996

>  <m_primary>  (62) 
energy

>  <rmsd>  (62) 
4.932174585686532

>  <m_score__min__rmsd>  (62) 
4.932174585686532

>  <meeko>  (62) 
{"free_energy": -7.44, "intermolecular_energy": -8.63, "internal_energy": -2.08, "cluster_size": 35, "cluster_id": 4, "rank_in_cluster": 2}

>  <energy>  (62) 
-7.52

>  <cluster_rmsd>  (62) 
0.37

>  <cluster>  (62) 
2

$$$$

     RDKit          3D

 49 53  0  0  1  0  0  0  0  0999 V2000
  136.1880   68.1640  223.1350 O   0  0  0  0  0  0  0  0  0  0  0  0
  136.1380   69.4270  223.9260 S   0  0  0  0  0  0  0  0  0  0  0  0
  136.5260   69.1550  225.3530 O   0  0  0  0  0  0  0  0  0  0  0  0
  134.4670   70.0250  223.8840 C   0  0  0  0  0  0  0  0  0  0  0  0
  134.1590   70.8440  225.0680 C   0  0  0  0  0  0  0  0  0  0  0  0
  134.0930   70.3420  226.3560 C   0  0  0  0  0  0  0  0  0  0  0  0
  133.7980   71.1730  227.4140 C   0  0  0  0  0  0  0  0  0  0  0  0
  133.5630   72.5130  227.2140 C   0  0  0  0  0  0  0  0  0  0  0  0
  133.6260   73.0230  225.9400 C   0  0  0  0  0  0  0  0  0  0  0  0
  133.9200   72.1950  224.8860 C   0  0  0  0  0  0  0  0  0  0  0  0
  137.1960   70.6240  223.2710 N   0  0  0  0  0  0  0  0  0  0  0  0
  136.6160   71.8570  222.8850 C   0  0  0  0  0  0  0  0  0  0  0  0
  137.3330   72.8430  222.3820 C   0  0  0  0  0  0  0  0  0  0  0  0
  138.7640   72.6290  222.2280 C   0  0  0  0  0  0  0  0  0  0  0  0
  139.4970   73.6710  221.7050 C   0  0  0  0  0  0  0  0  0  0  0  0
  140.8590   73.5660  221.5250 C   0  0  0  0  0  0  0  0  0  0  0  0
  141.4450   72.3750  221.8930 C   0  0  0  0  0  0  0  0  0  0  0  0
  140.6960   71.3160  222.4260 C   0  0  0  0  0  0  0  0  0  0  0  0
  139.3290   71.4190  222.6070 C   0  0  0  0  0  0  0  0  0  0  0  0
  138.5930   70.2910  223.1610 C   0  0  1  0  0  0  0  0  0  0  0  0
  139.1450   69.6560  224.3630 C   0  0  0  0  0  0  0  0  0  0  0  0
  139.1060   68.2840  224.5850 C   0  0  0  0  0  0  0  0  0  0  0  0
  139.6760   67.9980  225.7700 N   0  0  0  0  0  0  0  0  0  0  0  0
  140.0900   69.1530  226.3290 C   0  0  0  0  0  0  0  0  0  0  0  0
  140.7340   69.3940  227.5350 C   0  0  0  0  0  0  0  0  0  0  0  0
  141.0550   70.6910  227.8740 C   0  0  0  0  0  0  0  0  0  0  0  0
  140.7300   71.7300  227.0050 C   0  0  0  0  0  0  0  0  0  0  0  0
  140.0890   71.4820  225.8090 C   0  0  0  0  0  0  0  0  0  0  0  0
  139.7680   70.1840  225.4730 C   0  0  0  0  0  0  0  0  0  0  0  0
  134.3284   70.6364  222.9801 H   0  0  0  0  0  0  0  0  0  0  0  0
  133.7895   69.1584  223.8771 H   0  0  0  0  0  0  0  0  0  0  0  0
  134.2773   69.2726  226.5359 H   0  0  0  0  0  0  0  0  0  0  0  0
  133.7498   70.7594  228.4321 H   0  0  0  0  0  0  0  0  0  0  0  0
  133.3272   73.1693  228.0647 H   0  0  0  0  0  0  0  0  0  0  0  0
  133.4411   74.0932  225.7651 H   0  0  0  0  0  0  0  0  0  0  0  0
  133.9669   72.6157  223.8707 H   0  0  0  0  0  0  0  0  0  0  0  0
  135.5320   71.9969  223.0088 H   0  0  0  0  0  0  0  0  0  0  0  0
  136.8653   73.7945  222.0890 H   0  0  0  0  0  0  0  0  0  0  0  0
  138.9858   74.6041  221.4259 H   0  0  0  0  0  0  0  0  0  0  0  0
  141.4504   74.3941  221.1072 H   0  0  0  0  0  0  0  0  0  0  0  0
  142.5305   72.2511  221.7653 H   0  0  0  0  0  0  0  0  0  0  0  0
  141.2070   70.3831  222.7062 H   0  0  0  0  0  0  0  0  0  0  0  0
  138.7183   69.4784  222.4303 H   0  0  0  0  0  0  0  0  0  0  0  0
  138.6741   67.5436  223.8956 H   0  0  0  0  0  0  0  0  0  0  0  0
  139.8050   67.0670  226.2250 H   0  0  0  0  0  0  0  0  0  0  0  0
  140.9844   68.5623  228.2100 H   0  0  0  0  0  0  0  0  0  0  0  0
  141.5648   70.9042  228.8251 H   0  0  0  0  0  0  0  0  0  0  0  0
  140.9885   72.7641  227.2767 H   0  0  0  0  0  0  0  0  0  0  0  0
  139.8368   72.3106  225.1309 H   0  0  0  0  0  0  0  0  0  0  0  0
  1  2  2  0
  2  3  2  0
  2  4  1  0
  4  5  1  0
  5  6  2  0
  6  7  1  0
  7  8  2  0
  8  9  1  0
  9 10  2  0
  2 11  1  0
 11 12  1  0
 12 13  2  0
 13 14  1  0
 14 15  2  0
 15 16  1  0
 16 17  2  0
 17 18  1  0
 18 19  2  0
 19 20  1  0
 20 21  1  0
 21 22  2  0
 22 23  1  0
 23 24  1  0
 24 25  2  0
 25 26  1  0
 26 27  2  0
 27 28  1  0
 28 29  2  0
 10  5  1  0
 20 11  1  0
 29 21  1  0
 19 14  1  0
 29 24  1  0
  4 30  1  0
  4 31  1  0
  6 32  1  0
  7 33  1  0
  8 34  1  0
  9 35  1  0
 10 36  1  0
 12 37  1  0
 13 38  1  0
 15 39  1  0
 16 40  1  0
 17 41  1  0
 18 42  1  0
 20 43  1  6
 22 44  1  0
 23 45  1  0
 25 46  1  0
 26 47  1  0
 27 48  1  0
 28 49  1  0
M  END
>  <smiles>  (63) 
O=S(=O)(Cc1ccccc1)N1C=Cc2ccccc2C1c1c[nH]c2ccccc12

>  <score_type>  (63) 
oracle

>  <origin>  (63) 
autodockgpu

>  <m_score__min__energy>  (63) 
-7.8499999999999996

>  <m_primary>  (63) 
energy

>  <rmsd>  (63) 
10.825420095522412

>  <m_score__min__rmsd>  (63) 
10.825420095522412

>  <meeko>  (63) 
{"free_energy": -7.63, "intermolecular_energy": -8.82, "internal_energy": -1.89, "cluster_size": 7, "cluster_id": 2, "rank_in_cluster": 1}

>  <energy>  (63) 
-7.53

>  <cluster_rmsd>  (63) 
0.0

>  <cluster>  (63) 
3

$$$$

     RDKit          3D

 49 53  0  0  1  0  0  0  0  0999 V2000
  139.6460   76.1260  219.2940 O   0  0  0  0  0  0  0  0  0  0  0  0
  140.5230   77.1630  218.6800 S   0  0  0  0  0  0  0  0  0  0  0  0
  139.7920   77.8620  217.5680 O   0  0  0  0  0  0  0  0  0  0  0  0
  141.9470   76.3400  218.0110 C   0  0  0  0  0  0  0  0  0  0  0  0
  142.5140   75.3810  218.9710 C   0  0  0  0  0  0  0  0  0  0  0  0
  141.9020   74.1900  219.3230 C   0  0  0  0  0  0  0  0  0  0  0  0
  142.4970   73.3420  220.2320 C   0  0  0  0  0  0  0  0  0  0  0  0
  143.7060   73.6600  220.8060 C   0  0  0  0  0  0  0  0  0  0  0  0
  144.3230   74.8400  220.4640 C   0  0  0  0  0  0  0  0  0  0  0  0
  143.7300   75.6830  219.5590 C   0  0  0  0  0  0  0  0  0  0  0  0
  141.0280   78.3320  219.8460 N   0  0  0  0  0  0  0  0  0  0  0  0
  141.1580   79.6710  219.4050 C   0  0  0  0  0  0  0  0  0  0  0  0
  141.5290   80.6440  220.2130 C   0  0  0  0  0  0  0  0  0  0  0  0
  141.8070   80.3030  221.6010 C   0  0  0  0  0  0  0  0  0  0  0  0
  142.1880   81.3330  222.4310 C   0  0  0  0  0  0  0  0  0  0  0  0
  142.4690   81.1110  223.7620 C   0  0  0  0  0  0  0  0  0  0  0  0
  142.3490   79.8150  224.2150 C   0  0  0  0  0  0  0  0  0  0  0  0
  141.9590   78.7690  223.3660 C   0  0  0  0  0  0  0  0  0  0  0  0
  141.6780   78.9900  222.0300 C   0  0  0  0  0  0  0  0  0  0  0  0
  141.2810   77.8700  221.1870 C   0  0  1  0  0  0  0  0  0  0  0  0
  140.2430   76.9740  221.7090 C   0  0  0  0  0  0  0  0  0  0  0  0
  140.4630   75.6260  221.9710 C   0  0  0  0  0  0  0  0  0  0  0  0
  139.3310   75.0600  222.4290 N   0  0  0  0  0  0  0  0  0  0  0  0
  138.3740   76.0090  222.4730 C   0  0  0  0  0  0  0  0  0  0  0  0
  137.0460   75.9350  222.8730 C   0  0  0  0  0  0  0  0  0  0  0  0
  136.2690   77.0730  222.8250 C   0  0  0  0  0  0  0  0  0  0  0  0
  136.8280   78.2690  222.3800 C   0  0  0  0  0  0  0  0  0  0  0  0
  138.1470   78.3330  221.9840 C   0  0  0  0  0  0  0  0  0  0  0  0
  138.9220   77.1940  222.0320 C   0  0  0  0  0  0  0  0  0  0  0  0
  141.6528   75.8010  217.0984 H   0  0  0  0  0  0  0  0  0  0  0  0
  142.7116   77.0986  217.7876 H   0  0  0  0  0  0  0  0  0  0  0  0
  140.9349   73.9189  218.8744 H   0  0  0  0  0  0  0  0  0  0  0  0
  141.9989   72.3991  220.5019 H   0  0  0  0  0  0  0  0  0  0  0  0
  144.1740   72.9776  221.5308 H   0  0  0  0  0  0  0  0  0  0  0  0
  145.2900   75.1074  220.9151 H   0  0  0  0  0  0  0  0  0  0  0  0
  144.2342   76.6239  219.2935 H   0  0  0  0  0  0  0  0  0  0  0  0
  140.9421   79.9073  218.3526 H   0  0  0  0  0  0  0  0  0  0  0  0
  141.6253   81.6783  219.8511 H   0  0  0  0  0  0  0  0  0  0  0  0
  142.2697   82.3519  222.0246 H   0  0  0  0  0  0  0  0  0  0  0  0
  142.7744   81.9292  224.4307 H   0  0  0  0  0  0  0  0  0  0  0  0
  142.5649   79.5950  225.2709 H   0  0  0  0  0  0  0  0  0  0  0  0
  141.8747   77.7501  223.7718 H   0  0  0  0  0  0  0  0  0  0  0  0
  142.1466   77.1913  221.1819 H   0  0  0  0  0  0  0  0  0  0  0  0
  141.4187   75.1011  221.8257 H   0  0  0  0  0  0  0  0  0  0  0  0
  139.1650   74.0700  222.7140 H   0  0  0  0  0  0  0  0  0  0  0  0
  136.6205   74.9828  223.2228 H   0  0  0  0  0  0  0  0  0  0  0  0
  135.2145   77.0368  223.1360 H   0  0  0  0  0  0  0  0  0  0  0  0
  136.2073   79.1764  222.3441 H   0  0  0  0  0  0  0  0  0  0  0  0
  138.5765   79.2831  221.6334 H   0  0  0  0  0  0  0  0  0  0  0  0
  1  2  2  0
  2  3  2  0
  2  4  1  0
  4  5  1  0
  5  6  2  0
  6  7  1  0
  7  8  2  0
  8  9  1  0
  9 10  2  0
  2 11  1  0
 11 12  1  0
 12 13  2  0
 13 14  1  0
 14 15  2  0
 15 16  1  0
 16 17  2  0
 17 18  1  0
 18 19  2  0
 19 20  1  0
 20 21  1  0
 21 22  2  0
 22 23  1  0
 23 24  1  0
 24 25  2  0
 25 26  1  0
 26 27  2  0
 27 28  1  0
 28 29  2  0
 10  5  1  0
 20 11  1  0
 29 21  1  0
 19 14  1  0
 29 24  1  0
  4 30  1  0
  4 31  1  0
  6 32  1  0
  7 33  1  0
  8 34  1  0
  9 35  1  0
 10 36  1  0
 12 37  1  0
 13 38  1  0
 15 39  1  0
 16 40  1  0
 17 41  1  0
 18 42  1  0
 20 43  1  6
 22 44  1  0
 23 45  1  0
 25 46  1  0
 26 47  1  0
 27 48  1  0
 28 49  1  0
M  END
>  <smiles>  (64) 
O=S(=O)(Cc1ccccc1)N1C=Cc2ccccc2C1c1c[nH]c2ccccc12

>  <score_type>  (64) 
oracle

>  <origin>  (64) 
autodockgpu

>  <m_score__min__energy>  (64) 
-7.8499999999999996

>  <m_primary>  (64) 
energy

>  <rmsd>  (64) 
4.975227259938417

>  <m_score__min__rmsd>  (64) 
4.975227259938417

>  <meeko>  (64) 
{"free_energy": -7.29, "intermolecular_energy": -8.48, "internal_energy": -2.25, "cluster_size": 35, "cluster_id": 4, "rank_in_cluster": 19}

>  <energy>  (64) 
-7.53

>  <cluster_rmsd>  (64) 
0.07

>  <cluster>  (64) 
3

$$$$

     RDKit          3D

 49 53  0  0  1  0  0  0  0  0999 V2000
  139.8870   73.2600  222.3500 O   0  0  0  0  0  0  0  0  0  0  0  0
  139.4960   71.8210  222.3310 S   0  0  0  0  0  0  0  0  0  0  0  0
  140.2340   71.1020  221.2370 O   0  0  0  0  0  0  0  0  0  0  0  0
  137.7520   71.7380  222.0060 C   0  0  0  0  0  0  0  0  0  0  0  0
  137.0360   72.8650  222.6240 C   0  0  0  0  0  0  0  0  0  0  0  0
  137.1690   74.1810  222.2140 C   0  0  0  0  0  0  0  0  0  0  0  0
  136.4630   75.1820  222.8440 C   0  0  0  0  0  0  0  0  0  0  0  0
  135.6160   74.8970  223.8900 C   0  0  0  0  0  0  0  0  0  0  0  0
  135.4760   73.5950  224.3060 C   0  0  0  0  0  0  0  0  0  0  0  0
  136.1790   72.5980  223.6780 C   0  0  0  0  0  0  0  0  0  0  0  0
  139.8380   71.0560  223.8410 N   0  0  0  0  0  0  0  0  0  0  0  0
  140.2990   71.8810  224.8950 C   0  0  0  0  0  0  0  0  0  0  0  0
  140.5820   71.4020  226.0900 C   0  0  0  0  0  0  0  0  0  0  0  0
  140.4050   69.9740  226.3070 C   0  0  0  0  0  0  0  0  0  0  0  0
  140.7000   69.4930  227.5620 C   0  0  0  0  0  0  0  0  0  0  0  0
  140.5600   68.1560  227.8660 C   0  0  0  0  0  0  0  0  0  0  0  0
  140.1120   67.3320  226.8560 C   0  0  0  0  0  0  0  0  0  0  0  0
  139.8110   67.8260  225.5780 C   0  0  0  0  0  0  0  0  0  0  0  0
  139.9520   69.1680  225.2710 C   0  0  0  0  0  0  0  0  0  0  0  0
  139.6300   69.6330  223.9290 C   0  0  1  0  0  0  0  0  0  0  0  0
  138.3580   69.1850  223.3510 C   0  0  0  0  0  0  0  0  0  0  0  0
  138.2550   68.6220  222.0830 C   0  0  0  0  0  0  0  0  0  0  0  0
  136.9690   68.3200  221.8230 N   0  0  0  0  0  0  0  0  0  0  0  0
  136.2280   68.6710  222.8940 C   0  0  0  0  0  0  0  0  0  0  0  0
  134.8630   68.5640  223.1220 C   0  0  0  0  0  0  0  0  0  0  0  0
  134.3500   69.0010  224.3250 C   0  0  0  0  0  0  0  0  0  0  0  0
  135.2060   69.5400  225.2830 C   0  0  0  0  0  0  0  0  0  0  0  0
  136.5610   69.6430  225.0470 C   0  0  0  0  0  0  0  0  0  0  0  0
  137.0720   69.2060  223.8430 C   0  0  0  0  0  0  0  0  0  0  0  0
  137.5891   71.7638  220.9184 H   0  0  0  0  0  0  0  0  0  0  0  0
  137.3639   70.8034  222.4371 H   0  0  0  0  0  0  0  0  0  0  0  0
  137.8425   74.4285  221.3802 H   0  0  0  0  0  0  0  0  0  0  0  0
  136.5779   76.2226  222.5064 H   0  0  0  0  0  0  0  0  0  0  0  0
  135.0569   75.7029  224.3880 H   0  0  0  0  0  0  0  0  0  0  0  0
  134.8018   73.3525  225.1407 H   0  0  0  0  0  0  0  0  0  0  0  0
  136.0586   71.5598  224.0208 H   0  0  0  0  0  0  0  0  0  0  0  0
  140.4253   72.9580  224.7106 H   0  0  0  0  0  0  0  0  0  0  0  0
  140.9399   72.0595  226.8960 H   0  0  0  0  0  0  0  0  0  0  0  0
  141.0542   70.1885  228.3371 H   0  0  0  0  0  0  0  0  0  0  0  0
  140.7946   67.7651  228.8671 H   0  0  0  0  0  0  0  0  0  0  0  0
  139.9871   66.2579  227.0575 H   0  0  0  0  0  0  0  0  0  0  0  0
  139.4551   67.1314  224.8029 H   0  0  0  0  0  0  0  0  0  0  0  0
  140.3416   69.1179  223.2670 H   0  0  0  0  0  0  0  0  0  0  0  0
  139.0971   68.4496  221.3965 H   0  0  0  0  0  0  0  0  0  0  0  0
  136.5610   67.8900  220.9640 H   0  0  0  0  0  0  0  0  0  0  0  0
  134.2005   68.1371  222.3546 H   0  0  0  0  0  0  0  0  0  0  0  0
  133.2714   68.9245  224.5271 H   0  0  0  0  0  0  0  0  0  0  0  0
  134.7950   69.8886  226.2419 H   0  0  0  0  0  0  0  0  0  0  0  0
  137.2273   70.0694  225.8114 H   0  0  0  0  0  0  0  0  0  0  0  0
  1  2  2  0
  2  3  2  0
  2  4  1  0
  4  5  1  0
  5  6  2  0
  6  7  1  0
  7  8  2  0
  8  9  1  0
  9 10  2  0
  2 11  1  0
 11 12  1  0
 12 13  2  0
 13 14  1  0
 14 15  2  0
 15 16  1  0
 16 17  2  0
 17 18  1  0
 18 19  2  0
 19 20  1  0
 20 21  1  0
 21 22  2  0
 22 23  1  0
 23 24  1  0
 24 25  2  0
 25 26  1  0
 26 27  2  0
 27 28  1  0
 28 29  2  0
 10  5  1  0
 20 11  1  0
 29 21  1  0
 19 14  1  0
 29 24  1  0
  4 30  1  0
  4 31  1  0
  6 32  1  0
  7 33  1  0
  8 34  1  0
  9 35  1  0
 10 36  1  0
 12 37  1  0
 13 38  1  0
 15 39  1  0
 16 40  1  0
 17 41  1  0
 18 42  1  0
 20 43  1  6
 22 44  1  0
 23 45  1  0
 25 46  1  0
 26 47  1  0
 27 48  1  0
 28 49  1  0
M  END
>  <smiles>  (65) 
O=S(=O)(Cc1ccccc1)N1C=Cc2ccccc2C1c1c[nH]c2ccccc12

>  <score_type>  (65) 
oracle

>  <origin>  (65) 
autodockgpu

>  <m_score__min__energy>  (65) 
-7.8499999999999996

>  <m_primary>  (65) 
energy

>  <rmsd>  (65) 
11.646515407371348

>  <m_score__min__rmsd>  (65) 
11.646515407371348

>  <meeko>  (65) 
{"free_energy": -7.21, "intermolecular_energy": -8.4, "internal_energy": -2.27, "cluster_size": 1, "cluster_id": 5, "rank_in_cluster": 1}

>  <energy>  (65) 
-7.5

>  <cluster_rmsd>  (65) 
0.0

>  <cluster>  (65) 
4

$$$$

     RDKit          3D

 49 53  0  0  1  0  0  0  0  0999 V2000
  135.9780   68.3850  223.4920 O   0  0  0  0  0  0  0  0  0  0  0  0
  135.9420   69.7410  224.1100 S   0  0  0  0  0  0  0  0  0  0  0  0
  136.2400   69.6440  225.5800 O   0  0  0  0  0  0  0  0  0  0  0  0
  134.3040   70.3910  223.8930 C   0  0  0  0  0  0  0  0  0  0  0  0
  133.9340   71.2960  224.9930 C   0  0  0  0  0  0  0  0  0  0  0  0
  134.0430   72.6750  224.9260 C   0  0  0  0  0  0  0  0  0  0  0  0
  133.6760   73.4560  225.9990 C   0  0  0  0  0  0  0  0  0  0  0  0
  133.1960   72.8850  227.1560 C   0  0  0  0  0  0  0  0  0  0  0  0
  133.0840   71.5180  227.2340 C   0  0  0  0  0  0  0  0  0  0  0  0
  133.4490   70.7400  226.1640 C   0  0  0  0  0  0  0  0  0  0  0  0
  137.0860   70.8020  223.3710 N   0  0  0  0  0  0  0  0  0  0  0  0
  136.6070   72.0560  222.9190 C   0  0  0  0  0  0  0  0  0  0  0  0
  137.3950   72.9440  222.3480 C   0  0  0  0  0  0  0  0  0  0  0  0
  138.8010   72.6000  222.1890 C   0  0  0  0  0  0  0  0  0  0  0  0
  139.6100   73.5420  221.5950 C   0  0  0  0  0  0  0  0  0  0  0  0
  140.9550   73.3100  221.4040 C   0  0  0  0  0  0  0  0  0  0  0  0
  141.4440   72.0970  221.8360 C   0  0  0  0  0  0  0  0  0  0  0  0
  140.6170   71.1390  222.4410 C   0  0  0  0  0  0  0  0  0  0  0  0
  139.2670   71.3700  222.6330 C   0  0  0  0  0  0  0  0  0  0  0  0
  138.4480   70.3440  223.2630 C   0  0  1  0  0  0  0  0  0  0  0  0
  138.9650   69.7360  224.4940 C   0  0  0  0  0  0  0  0  0  0  0  0
  138.7910   68.3930  224.8110 C   0  0  0  0  0  0  0  0  0  0  0  0
  139.3620   68.1280  226.0010 N   0  0  0  0  0  0  0  0  0  0  0  0
  139.9080   69.2690  226.4700 C   0  0  0  0  0  0  0  0  0  0  0  0
  140.6070   69.5200  227.6420 C   0  0  0  0  0  0  0  0  0  0  0  0
  141.0700   70.7960  227.8850 C   0  0  0  0  0  0  0  0  0  0  0  0
  140.8290   71.8040  226.9530 C   0  0  0  0  0  0  0  0  0  0  0  0
  140.1320   71.5450  225.7910 C   0  0  0  0  0  0  0  0  0  0  0  0
  139.6700   70.2690  225.5520 C   0  0  0  0  0  0  0  0  0  0  0  0
  134.2621   70.9457  222.9440 H   0  0  0  0  0  0  0  0  0  0  0  0
  133.5962   69.5490  223.8852 H   0  0  0  0  0  0  0  0  0  0  0  0
  134.4251   73.1493  224.0100 H   0  0  0  0  0  0  0  0  0  0  0  0
  133.7675   74.5501  225.9308 H   0  0  0  0  0  0  0  0  0  0  0  0
  132.9054   73.5163  228.0086 H   0  0  0  0  0  0  0  0  0  0  0  0
  132.7025   71.0479  228.1524 H   0  0  0  0  0  0  0  0  0  0  0  0
  133.3537   69.6467  226.2389 H   0  0  0  0  0  0  0  0  0  0  0  0
  135.5415   72.2964  223.0491 H   0  0  0  0  0  0  0  0  0  0  0  0
  137.0041   73.9126  222.0030 H   0  0  0  0  0  0  0  0  0  0  0  0
  139.1750   74.4975  221.2667 H   0  0  0  0  0  0  0  0  0  0  0  0
  141.6070   74.0580  220.9292 H   0  0  0  0  0  0  0  0  0  0  0  0
  142.5128   71.8733  221.7029 H   0  0  0  0  0  0  0  0  0  0  0  0
  141.0516   70.1835  222.7698 H   0  0  0  0  0  0  0  0  0  0  0  0
  138.4910   69.4822  222.5807 H   0  0  0  0  0  0  0  0  0  0  0  0
  138.2657   67.6578  224.1836 H   0  0  0  0  0  0  0  0  0  0  0  0
  139.4060   67.2210  226.5160 H   0  0  0  0  0  0  0  0  0  0  0  0
  140.7892   68.7129  228.3668 H   0  0  0  0  0  0  0  0  0  0  0  0
  141.6258   71.0169  228.8082 H   0  0  0  0  0  0  0  0  0  0  0  0
  141.2001   72.8212  227.1469 H   0  0  0  0  0  0  0  0  0  0  0  0
  139.9470   72.3486  225.0630 H   0  0  0  0  0  0  0  0  0  0  0  0
  1  2  2  0
  2  3  2  0
  2  4  1  0
  4  5  1  0
  5  6  2  0
  6  7  1  0
  7  8  2  0
  8  9  1  0
  9 10  2  0
  2 11  1  0
 11 12  1  0
 12 13  2  0
 13 14  1  0
 14 15  2  0
 15 16  1  0
 16 17  2  0
 17 18  1  0
 18 19  2  0
 19 20  1  0
 20 21  1  0
 21 22  2  0
 22 23  1  0
 23 24  1  0
 24 25  2  0
 25 26  1  0
 26 27  2  0
 27 28  1  0
 28 29  2  0
 10  5  1  0
 20 11  1  0
 29 21  1  0
 19 14  1  0
 29 24  1  0
  4 30  1  0
  4 31  1  0
  6 32  1  0
  7 33  1  0
  8 34  1  0
  9 35  1  0
 10 36  1  0
 12 37  1  0
 13 38  1  0
 15 39  1  0
 16 40  1  0
 17 41  1  0
 18 42  1  0
 20 43  1  6
 22 44  1  0
 23 45  1  0
 25 46  1  0
 26 47  1  0
 27 48  1  0
 28 49  1  0
M  END
>  <smiles>  (66) 
O=S(=O)(Cc1ccccc1)N1C=Cc2ccccc2C1c1c[nH]c2ccccc12

>  <score_type>  (66) 
oracle

>  <origin>  (66) 
autodockgpu

>  <m_score__min__energy>  (66) 
-7.8499999999999996

>  <m_primary>  (66) 
energy

>  <rmsd>  (66) 
10.80685053518368

>  <m_score__min__rmsd>  (66) 
10.80685053518368

>  <meeko>  (66) 
{"free_energy": -7.61, "intermolecular_energy": -8.8, "internal_energy": -1.9, "cluster_size": 7, "cluster_id": 2, "rank_in_cluster": 4}

>  <energy>  (66) 
-7.44

>  <cluster_rmsd>  (66) 
0.67

>  <cluster>  (66) 
4

$$$$

     RDKit          3D

 49 53  0  0  1  0  0  0  0  0999 V2000
  136.1620   68.1770  223.1210 O   0  0  0  0  0  0  0  0  0  0  0  0
  136.1050   69.4480  223.8980 S   0  0  0  0  0  0  0  0  0  0  0  0
  136.4730   69.1900  225.3330 O   0  0  0  0  0  0  0  0  0  0  0  0
  134.4360   70.0510  223.8270 C   0  0  0  0  0  0  0  0  0  0  0  0
  134.1350   70.9340  224.9650 C   0  0  0  0  0  0  0  0  0  0  0  0
  134.0050   72.3090  224.8600 C   0  0  0  0  0  0  0  0  0  0  0  0
  133.7220   73.0690  225.9730 C   0  0  0  0  0  0  0  0  0  0  0  0
  133.5630   72.4820  227.2070 C   0  0  0  0  0  0  0  0  0  0  0  0
  133.6890   71.1190  227.3230 C   0  0  0  0  0  0  0  0  0  0  0  0
  133.9710   70.3610  226.2140 C   0  0  0  0  0  0  0  0  0  0  0  0
  137.1750   70.6350  223.2450 N   0  0  0  0  0  0  0  0  0  0  0  0
  136.6070   71.8720  222.8550 C   0  0  0  0  0  0  0  0  0  0  0  0
  137.3330   72.8510  222.3520 C   0  0  0  0  0  0  0  0  0  0  0  0
  138.7640   72.6270  222.2050 C   0  0  0  0  0  0  0  0  0  0  0  0
  139.5060   73.6610  221.6830 C   0  0  0  0  0  0  0  0  0  0  0  0
  140.8690   73.5460  221.5090 C   0  0  0  0  0  0  0  0  0  0  0  0
  141.4440   72.3510  221.8820 C   0  0  0  0  0  0  0  0  0  0  0  0
  140.6840   71.2990  222.4140 C   0  0  0  0  0  0  0  0  0  0  0  0
  139.3170   71.4130  222.5890 C   0  0  0  0  0  0  0  0  0  0  0  0
  138.5700   70.2920  223.1420 C   0  0  1  0  0  0  0  0  0  0  0  0
  139.1120   69.6550  224.3480 C   0  0  0  0  0  0  0  0  0  0  0  0
  139.0530   68.2840  224.5760 C   0  0  0  0  0  0  0  0  0  0  0  0
  139.6180   67.9960  225.7630 N   0  0  0  0  0  0  0  0  0  0  0  0
  140.0470   69.1480  226.3170 C   0  0  0  0  0  0  0  0  0  0  0  0
  140.6940   69.3860  227.5220 C   0  0  0  0  0  0  0  0  0  0  0  0
  141.0330   70.6800  227.8550 C   0  0  0  0  0  0  0  0  0  0  0  0
  140.7240   71.7190  226.9810 C   0  0  0  0  0  0  0  0  0  0  0  0
  140.0800   71.4740  225.7860 C   0  0  0  0  0  0  0  0  0  0  0  0
  139.7410   70.1800  225.4560 C   0  0  0  0  0  0  0  0  0  0  0  0
  134.2981   70.6132  222.8916 H   0  0  0  0  0  0  0  0  0  0  0  0
  133.7544   69.1886  223.8684 H   0  0  0  0  0  0  0  0  0  0  0  0
  134.1286   72.7968  223.8818 H   0  0  0  0  0  0  0  0  0  0  0  0
  133.6217   74.1599  225.8740 H   0  0  0  0  0  0  0  0  0  0  0  0
  133.3376   73.0970  228.0907 H   0  0  0  0  0  0  0  0  0  0  0  0
  133.5641   70.6358  228.3032 H   0  0  0  0  0  0  0  0  0  0  0  0
  134.0691   69.2706  226.3207 H   0  0  0  0  0  0  0  0  0  0  0  0
  135.5239   72.0212  222.9757 H   0  0  0  0  0  0  0  0  0  0  0  0
  136.8731   73.8046  222.0536 H   0  0  0  0  0  0  0  0  0  0  0  0
  139.0027   74.5970  221.3991 H   0  0  0  0  0  0  0  0  0  0  0  0
  141.4684   74.3689  221.0924 H   0  0  0  0  0  0  0  0  0  0  0  0
  142.5290   72.2182  221.7592 H   0  0  0  0  0  0  0  0  0  0  0  0
  141.1864   70.3627  222.6983 H   0  0  0  0  0  0  0  0  0  0  0  0
  138.6925   69.4773  222.4131 H   0  0  0  0  0  0  0  0  0  0  0  0
  138.6112   67.5466  223.8897 H   0  0  0  0  0  0  0  0  0  0  0  0
  139.7330   67.0660  226.2230 H   0  0  0  0  0  0  0  0  0  0  0  0
  140.9326   68.5542  228.2011 H   0  0  0  0  0  0  0  0  0  0  0  0
  141.5447   70.8906  228.8057 H   0  0  0  0  0  0  0  0  0  0  0  0
  140.9975   72.7506  227.2475 H   0  0  0  0  0  0  0  0  0  0  0  0
  139.8397   72.3028  225.1039 H   0  0  0  0  0  0  0  0  0  0  0  0
  1  2  2  0
  2  3  2  0
  2  4  1  0
  4  5  1  0
  5  6  2  0
  6  7  1  0
  7  8  2  0
  8  9  1  0
  9 10  2  0
  2 11  1  0
 11 12  1  0
 12 13  2  0
 13 14  1  0
 14 15  2  0
 15 16  1  0
 16 17  2  0
 17 18  1  0
 18 19  2  0
 19 20  1  0
 20 21  1  0
 21 22  2  0
 22 23  1  0
 23 24  1  0
 24 25  2  0
 25 26  1  0
 26 27  2  0
 27 28  1  0
 28 29  2  0
 10  5  1  0
 20 11  1  0
 29 21  1  0
 19 14  1  0
 29 24  1  0
  4 30  1  0
  4 31  1  0
  6 32  1  0
  7 33  1  0
  8 34  1  0
  9 35  1  0
 10 36  1  0
 12 37  1  0
 13 38  1  0
 15 39  1  0
 16 40  1  0
 17 41  1  0
 18 42  1  0
 20 43  1  6
 22 44  1  0
 23 45  1  0
 25 46  1  0
 26 47  1  0
 27 48  1  0
 28 49  1  0
M  END
>  <smiles>  (67) 
O=S(=O)(Cc1ccccc1)N1C=Cc2ccccc2C1c1c[nH]c2ccccc12

>  <score_type>  (67) 
oracle

>  <origin>  (67) 
autodockgpu

>  <m_score__min__energy>  (67) 
-7.8499999999999996

>  <m_primary>  (67) 
energy

>  <rmsd>  (67) 
10.822294158829203

>  <m_score__min__rmsd>  (67) 
10.822294158829203

>  <meeko>  (67) 
{"free_energy": -7.61, "intermolecular_energy": -8.8, "internal_energy": -1.89, "cluster_size": 7, "cluster_id": 2, "rank_in_cluster": 2}

>  <energy>  (67) 
-7.43

>  <cluster_rmsd>  (67) 
0.69

>  <cluster>  (67) 
4

$$$$

     RDKit          3D

 49 53  0  0  1  0  0  0  0  0999 V2000
  139.6700   76.0790  219.3210 O   0  0  0  0  0  0  0  0  0  0  0  0
  140.4850   77.1560  218.6890 S   0  0  0  0  0  0  0  0  0  0  0  0
  139.6840   77.8450  217.6200 O   0  0  0  0  0  0  0  0  0  0  0  0
  141.9070   76.3940  217.9480 C   0  0  0  0  0  0  0  0  0  0  0  0
  142.5740   75.4750  218.8850 C   0  0  0  0  0  0  0  0  0  0  0  0
  143.7060   75.8030  219.6100 C   0  0  0  0  0  0  0  0  0  0  0  0
  144.2740   74.8870  220.4680 C   0  0  0  0  0  0  0  0  0  0  0  0
  143.7290   73.6330  220.6220 C   0  0  0  0  0  0  0  0  0  0  0  0
  142.6050   73.2960  219.9070 C   0  0  0  0  0  0  0  0  0  0  0  0
  142.0400   74.2090  219.0530 C   0  0  0  0  0  0  0  0  0  0  0  0
  140.9970   78.3240  219.8520 N   0  0  0  0  0  0  0  0  0  0  0  0
  141.1460   79.6600  219.4050 C   0  0  0  0  0  0  0  0  0  0  0  0
  141.5230   80.6320  220.2110 C   0  0  0  0  0  0  0  0  0  0  0  0
  141.7900   80.2950  221.6020 C   0  0  0  0  0  0  0  0  0  0  0  0
  142.1790   81.3240  222.4290 C   0  0  0  0  0  0  0  0  0  0  0  0
  142.4510   81.1040  223.7630 C   0  0  0  0  0  0  0  0  0  0  0  0
  142.3130   79.8120  224.2210 C   0  0  0  0  0  0  0  0  0  0  0  0
  141.9160   78.7660  223.3750 C   0  0  0  0  0  0  0  0  0  0  0  0
  141.6440   78.9850  222.0360 C   0  0  0  0  0  0  0  0  0  0  0  0
  141.2380   77.8660  221.1970 C   0  0  1  0  0  0  0  0  0  0  0  0
  140.1870   76.9840  221.7170 C   0  0  0  0  0  0  0  0  0  0  0  0
  140.3870   75.6320  221.9730 C   0  0  0  0  0  0  0  0  0  0  0  0
  139.2460   75.0820  222.4310 N   0  0  0  0  0  0  0  0  0  0  0  0
  138.3040   76.0460  222.4820 C   0  0  0  0  0  0  0  0  0  0  0  0
  136.9770   75.9920  222.8840 C   0  0  0  0  0  0  0  0  0  0  0  0
  136.2180   77.1420  222.8420 C   0  0  0  0  0  0  0  0  0  0  0  0
  136.7940   78.3310  222.4000 C   0  0  0  0  0  0  0  0  0  0  0  0
  138.1140   78.3750  222.0010 C   0  0  0  0  0  0  0  0  0  0  0  0
  138.8700   77.2240  222.0430 C   0  0  0  0  0  0  0  0  0  0  0  0
  141.5882   75.8296  217.0593 H   0  0  0  0  0  0  0  0  0  0  0  0
  142.6198   77.1854  217.6732 H   0  0  0  0  0  0  0  0  0  0  0  0
  144.1551   76.8012  219.5006 H   0  0  0  0  0  0  0  0  0  0  0  0
  145.1744   75.1615  221.0371 H   0  0  0  0  0  0  0  0  0  0  0  0
  144.1882   72.9080  221.3101 H   0  0  0  0  0  0  0  0  0  0  0  0
  142.1593   72.2966  220.0191 H   0  0  0  0  0  0  0  0  0  0  0  0
  141.1395   73.9278  218.4872 H   0  0  0  0  0  0  0  0  0  0  0  0
  140.9402   79.8938  218.3500 H   0  0  0  0  0  0  0  0  0  0  0  0
  141.6323   81.6636  219.8451 H   0  0  0  0  0  0  0  0  0  0  0  0
  142.2747   82.3401  222.0186 H   0  0  0  0  0  0  0  0  0  0  0  0
  142.7633   81.9213  224.4297 H   0  0  0  0  0  0  0  0  0  0  0  0
  142.5199   79.5947  225.2793 H   0  0  0  0  0  0  0  0  0  0  0  0
  141.8188   77.7498  223.7847 H   0  0  0  0  0  0  0  0  0  0  0  0
  142.0961   77.1777  221.2010 H   0  0  0  0  0  0  0  0  0  0  0  0
  141.3342   75.0929  221.8240 H   0  0  0  0  0  0  0  0  0  0  0  0
  139.0660   74.0930  222.7130 H   0  0  0  0  0  0  0  0  0  0  0  0
  136.5371   75.0454  223.2311 H   0  0  0  0  0  0  0  0  0  0  0  0
  135.1639   77.1210  223.1556 H   0  0  0  0  0  0  0  0  0  0  0  0
  136.1875   79.2482  222.3686 H   0  0  0  0  0  0  0  0  0  0  0  0
  138.5582   79.3192  221.6530 H   0  0  0  0  0  0  0  0  0  0  0  0
  1  2  2  0
  2  3  2  0
  2  4  1  0
  4  5  1  0
  5  6  2  0
  6  7  1  0
  7  8  2  0
  8  9  1  0
  9 10  2  0
  2 11  1  0
 11 12  1  0
 12 13  2  0
 13 14  1  0
 14 15  2  0
 15 16  1  0
 16 17  2  0
 17 18  1  0
 18 19  2  0
 19 20  1  0
 20 21  1  0
 21 22  2  0
 22 23  1  0
 23 24  1  0
 24 25  2  0
 25 26  1  0
 26 27  2  0
 27 28  1  0
 28 29  2  0
 10  5  1  0
 20 11  1  0
 29 21  1  0
 19 14  1  0
 29 24  1  0
  4 30  1  0
  4 31  1  0
  6 32  1  0
  7 33  1  0
  8 34  1  0
  9 35  1  0
 10 36  1  0
 12 37  1  0
 13 38  1  0
 15 39  1  0
 16 40  1  0
 17 41  1  0
 18 42  1  0
 20 43  1  6
 22 44  1  0
 23 45  1  0
 25 46  1  0
 26 47  1  0
 27 48  1  0
 28 49  1  0
M  END
>  <smiles>  (68) 
O=S(=O)(Cc1ccccc1)N1C=Cc2ccccc2C1c1c[nH]c2ccccc12

>  <score_type>  (68) 
oracle

>  <origin>  (68) 
autodockgpu

>  <m_score__min__energy>  (68) 
-7.8499999999999996

>  <m_primary>  (68) 
energy

>  <rmsd>  (68) 
5.003103736807438

>  <m_score__min__rmsd>  (68) 
5.003103736807438

>  <meeko>  (68) 
{"free_energy": -7.31, "intermolecular_energy": -8.5, "internal_energy": -2.19, "cluster_size": 35, "cluster_id": 4, "rank_in_cluster": 9}

>  <energy>  (68) 
-7.41

>  <cluster_rmsd>  (68) 
0.64

>  <cluster>  (68) 
4

$$$$

     RDKit          3D

 49 53  0  0  1  0  0  0  0  0999 V2000
  138.3830   71.6840  221.9720 O   0  0  0  0  0  0  0  0  0  0  0  0
  139.7870   71.9050  222.4220 S   0  0  0  0  0  0  0  0  0  0  0  0
  140.0510   73.3760  222.5790 O   0  0  0  0  0  0  0  0  0  0  0  0
  140.8650   71.2530  221.1710 C   0  0  0  0  0  0  0  0  0  0  0  0
  142.0180   72.1380  220.9390 C   0  0  0  0  0  0  0  0  0  0  0  0
  141.9070   73.4830  220.6310 C   0  0  0  0  0  0  0  0  0  0  0  0
  143.0340   74.2470  220.4280 C   0  0  0  0  0  0  0  0  0  0  0  0
  144.2890   73.6930  220.5270 C   0  0  0  0  0  0  0  0  0  0  0  0
  144.4130   72.3590  220.8330 C   0  0  0  0  0  0  0  0  0  0  0  0
  143.2890   71.5980  221.0350 C   0  0  0  0  0  0  0  0  0  0  0  0
  140.1000   71.1120  223.9230 N   0  0  0  0  0  0  0  0  0  0  0  0
  140.5880   71.9090  224.9870 C   0  0  0  0  0  0  0  0  0  0  0  0
  140.8520   71.4080  226.1770 C   0  0  0  0  0  0  0  0  0  0  0  0
  140.6260   69.9840  226.3780 C   0  0  0  0  0  0  0  0  0  0  0  0
  140.9030   69.4800  227.6280 C   0  0  0  0  0  0  0  0  0  0  0  0
  140.7180   68.1440  227.9160 C   0  0  0  0  0  0  0  0  0  0  0  0
  140.2440   67.3480  226.8970 C   0  0  0  0  0  0  0  0  0  0  0  0
  139.9620   67.8660  225.6240 C   0  0  0  0  0  0  0  0  0  0  0  0
  140.1480   69.2050  225.3330 C   0  0  0  0  0  0  0  0  0  0  0  0
  139.8450   69.6960  223.9960 C   0  0  1  0  0  0  0  0  0  0  0  0
  138.5600   69.2970  223.4110 C   0  0  0  0  0  0  0  0  0  0  0  0
  138.4480   68.6800  222.1690 C   0  0  0  0  0  0  0  0  0  0  0  0
  137.1510   68.4430  221.8940 N   0  0  0  0  0  0  0  0  0  0  0  0
  136.4120   68.8910  222.9300 C   0  0  0  0  0  0  0  0  0  0  0  0
  135.0390   68.8770  223.1320 C   0  0  0  0  0  0  0  0  0  0  0  0
  134.5300   69.4030  224.3000 C   0  0  0  0  0  0  0  0  0  0  0  0
  135.3980   69.9350  225.2510 C   0  0  0  0  0  0  0  0  0  0  0  0
  136.7610   69.9460  225.0410 C   0  0  0  0  0  0  0  0  0  0  0  0
  137.2670   69.4200  223.8720 C   0  0  0  0  0  0  0  0  0  0  0  0
  141.2304   70.2665  221.4925 H   0  0  0  0  0  0  0  0  0  0  0  0
  140.2966   71.1728  220.2326 H   0  0  0  0  0  0  0  0  0  0  0  0
  140.9118   73.9443  220.5479 H   0  0  0  0  0  0  0  0  0  0  0  0
  142.9295   75.3144  220.1834 H   0  0  0  0  0  0  0  0  0  0  0  0
  145.1840   74.3112  220.3630 H   0  0  0  0  0  0  0  0  0  0  0  0
  145.4104   71.9025  220.9158 H   0  0  0  0  0  0  0  0  0  0  0  0
  143.4009   70.5314  221.2795 H   0  0  0  0  0  0  0  0  0  0  0  0
  140.7523   72.9829  224.8143 H   0  0  0  0  0  0  0  0  0  0  0  0
  141.2303   72.0442  226.9907 H   0  0  0  0  0  0  0  0  0  0  0  0
  141.2786   70.1546  228.4115 H   0  0  0  0  0  0  0  0  0  0  0  0
  140.9386   67.7336  228.9125 H   0  0  0  0  0  0  0  0  0  0  0  0
  140.0820   66.2766  227.0864 H   0  0  0  0  0  0  0  0  0  0  0  0
  139.5848   67.1924  224.8404 H   0  0  0  0  0  0  0  0  0  0  0  0
  140.5417   69.1653  223.3305 H   0  0  0  0  0  0  0  0  0  0  0  0
  139.2915   68.4243  221.5109 H   0  0  0  0  0  0  0  0  0  0  0  0
  136.7350   67.9960  221.0480 H   0  0  0  0  0  0  0  0  0  0  0  0
  134.3671   68.4525  222.3715 H   0  0  0  0  0  0  0  0  0  0  0  0
  133.4448   69.4027  224.4801 H   0  0  0  0  0  0  0  0  0  0  0  0
  134.9901   70.3525  226.1834 H   0  0  0  0  0  0  0  0  0  0  0  0
  137.4369   70.3700  225.7983 H   0  0  0  0  0  0  0  0  0  0  0  0
  1  2  2  0
  2  3  2  0
  2  4  1  0
  4  5  1  0
  5  6  2  0
  6  7  1  0
  7  8  2  0
  8  9  1  0
  9 10  2  0
  2 11  1  0
 11 12  1  0
 12 13  2  0
 13 14  1  0
 14 15  2  0
 15 16  1  0
 16 17  2  0
 17 18  1  0
 18 19  2  0
 19 20  1  0
 20 21  1  0
 21 22  2  0
 22 23  1  0
 23 24  1  0
 24 25  2  0
 25 26  1  0
 26 27  2  0
 27 28  1  0
 28 29  2  0
 10  5  1  0
 20 11  1  0
 29 21  1  0
 19 14  1  0
 29 24  1  0
  4 30  1  0
  4 31  1  0
  6 32  1  0
  7 33  1  0
  8 34  1  0
  9 35  1  0
 10 36  1  0
 12 37  1  0
 13 38  1  0
 15 39  1  0
 16 40  1  0
 17 41  1  0
 18 42  1  0
 20 43  1  6
 22 44  1  0
 23 45  1  0
 25 46  1  0
 26 47  1  0
 27 48  1  0
 28 49  1  0
M  END
>  <smiles>  (69) 
O=S(=O)(Cc1ccccc1)N1C=Cc2ccccc2C1c1c[nH]c2ccccc12

>  <score_type>  (69) 
oracle

>  <origin>  (69) 
autodockgpu

>  <m_score__min__energy>  (69) 
-7.8499999999999996

>  <m_primary>  (69) 
energy

>  <rmsd>  (69) 
11.482691327406853

>  <m_score__min__rmsd>  (69) 
11.482691327406853

>  <meeko>  (69) 
{"free_energy": -7.82, "intermolecular_energy": -9.02, "internal_energy": -1.71, "cluster_size": 5, "cluster_id": 1, "rank_in_cluster": 3}

>  <energy>  (69) 
-7.32

>  <cluster_rmsd>  (69) 
0.73

>  <cluster>  (69) 
4

$$$$

     RDKit          3D

 49 53  0  0  1  0  0  0  0  0999 V2000
  137.9610   68.2950  225.7210 O   0  0  0  0  0  0  0  0  0  0  0  0
  139.0970   68.5180  224.7820 S   0  0  0  0  0  0  0  0  0  0  0  0
  139.2000   67.3690  223.8170 O   0  0  0  0  0  0  0  0  0  0  0  0
  140.5870   68.6000  225.7450 C   0  0  0  0  0  0  0  0  0  0  0  0
  140.6460   69.8370  226.5390 C   0  0  0  0  0  0  0  0  0  0  0  0
  139.9720   70.0190  227.7350 C   0  0  0  0  0  0  0  0  0  0  0  0
  140.0770   71.2080  228.4210 C   0  0  0  0  0  0  0  0  0  0  0  0
  140.8500   72.2370  227.9340 C   0  0  0  0  0  0  0  0  0  0  0  0
  141.5230   72.0690  226.7490 C   0  0  0  0  0  0  0  0  0  0  0  0
  141.4180   70.8830  226.0660 C   0  0  0  0  0  0  0  0  0  0  0  0
  138.9040   69.9850  223.8940 N   0  0  0  0  0  0  0  0  0  0  0  0
  140.0200   70.4450  223.1520 C   0  0  0  0  0  0  0  0  0  0  0  0
  139.9790   71.5480  222.4330 C   0  0  0  0  0  0  0  0  0  0  0  0
  138.7330   72.3010  222.4170 C   0  0  0  0  0  0  0  0  0  0  0  0
  138.7080   73.4480  221.6560 C   0  0  0  0  0  0  0  0  0  0  0  0
  137.5730   74.2260  221.5750 C   0  0  0  0  0  0  0  0  0  0  0  0
  136.4740   73.7990  222.2870 C   0  0  0  0  0  0  0  0  0  0  0  0
  136.5030   72.6290  223.0600 C   0  0  0  0  0  0  0  0  0  0  0  0
  137.6410   71.8480  223.1440 C   0  0  0  0  0  0  0  0  0  0  0  0
  137.6240   70.6440  223.9630 C   0  0  1  0  0  0  0  0  0  0  0  0
  136.4840   69.7360  223.7960 C   0  0  0  0  0  0  0  0  0  0  0  0
  136.3540   68.8660  222.7180 C   0  0  0  0  0  0  0  0  0  0  0  0
  135.2080   68.1700  222.8300 N   0  0  0  0  0  0  0  0  0  0  0  0
  134.5840   68.5640  223.9590 C   0  0  0  0  0  0  0  0  0  0  0  0
  133.3830   68.1490  224.5190 C   0  0  0  0  0  0  0  0  0  0  0  0
  132.9660   68.7180  225.7040 C   0  0  0  0  0  0  0  0  0  0  0  0
  133.7540   69.6930  226.3140 C   0  0  0  0  0  0  0  0  0  0  0  0
  134.9450   70.0990  225.7490 C   0  0  0  0  0  0  0  0  0  0  0  0
  135.3590   69.5290  224.5650 C   0  0  0  0  0  0  0  0  0  0  0  0
  140.6214   67.7362  226.4252 H   0  0  0  0  0  0  0  0  0  0  0  0
  141.4449   68.5894  225.0566 H   0  0  0  0  0  0  0  0  0  0  0  0
  139.3485   69.2081  228.1396 H   0  0  0  0  0  0  0  0  0  0  0  0
  139.5363   71.3371  229.3702 H   0  0  0  0  0  0  0  0  0  0  0  0
  140.9280   73.1840  228.4881 H   0  0  0  0  0  0  0  0  0  0  0  0
  142.1448   72.8829  226.3480 H   0  0  0  0  0  0  0  0  0  0  0  0
  141.9620   70.7611  225.1177 H   0  0  0  0  0  0  0  0  0  0  0  0
  140.9521   69.8614  223.1772 H   0  0  0  0  0  0  0  0  0  0  0  0
  140.8565   71.8887  221.8639 H   0  0  0  0  0  0  0  0  0  0  0  0
  139.6098   73.7490  221.1027 H   0  0  0  0  0  0  0  0  0  0  0  0
  137.5462   75.1445  220.9703 H   0  0  0  0  0  0  0  0  0  0  0  0
  135.5482   74.3918  222.2484 H   0  0  0  0  0  0  0  0  0  0  0  0
  135.6007   72.3261  223.6115 H   0  0  0  0  0  0  0  0  0  0  0  0
  137.4501   70.9977  224.9900 H   0  0  0  0  0  0  0  0  0  0  0  0
  137.0792   68.7627  221.8974 H   0  0  0  0  0  0  0  0  0  0  0  0
  134.8210   67.4430  222.1890 H   0  0  0  0  0  0  0  0  0  0  0  0
  132.7734   67.3781  224.0249 H   0  0  0  0  0  0  0  0  0  0  0  0
  132.0177   68.4046  226.1650 H   0  0  0  0  0  0  0  0  0  0  0  0
  133.4210   70.1452  227.2598 H   0  0  0  0  0  0  0  0  0  0  0  0
  135.5580   70.8700  226.2387 H   0  0  0  0  0  0  0  0  0  0  0  0
  1  2  2  0
  2  3  2  0
  2  4  1  0
  4  5  1  0
  5  6  2  0
  6  7  1  0
  7  8  2  0
  8  9  1  0
  9 10  2  0
  2 11  1  0
 11 12  1  0
 12 13  2  0
 13 14  1  0
 14 15  2  0
 15 16  1  0
 16 17  2  0
 17 18  1  0
 18 19  2  0
 19 20  1  0
 20 21  1  0
 21 22  2  0
 22 23  1  0
 23 24  1  0
 24 25  2  0
 25 26  1  0
 26 27  2  0
 27 28  1  0
 28 29  2  0
 10  5  1  0
 20 11  1  0
 29 21  1  0
 19 14  1  0
 29 24  1  0
  4 30  1  0
  4 31  1  0
  6 32  1  0
  7 33  1  0
  8 34  1  0
  9 35  1  0
 10 36  1  0
 12 37  1  0
 13 38  1  0
 15 39  1  0
 16 40  1  0
 17 41  1  0
 18 42  1  0
 20 43  1  1
 22 44  1  0
 23 45  1  0
 25 46  1  0
 26 47  1  0
 27 48  1  0
 28 49  1  0
M  END
>  <smiles>  (70) 
O=S(=O)(Cc1ccccc1)N1C=Cc2ccccc2C1c1c[nH]c2ccccc12

>  <score_type>  (70) 
oracle

>  <origin>  (70) 
autodockgpu

>  <m_score__min__energy>  (70) 
-7.8499999999999996

>  <m_primary>  (70) 
energy

>  <rmsd>  (70) 
11.93277350794559

>  <m_score__min__rmsd>  (70) 
11.93277350794559

>  <meeko>  (70) 
{"free_energy": -7.53, "intermolecular_energy": -8.72, "internal_energy": -2.1, "cluster_size": 2, "cluster_id": 3, "rank_in_cluster": 2}

>  <energy>  (70) 
-7.32

>  <cluster_rmsd>  (70) 
0.72

>  <cluster>  (70) 
4

$$$$

     RDKit          3D

 49 53  0  0  1  0  0  0  0  0999 V2000
  139.1110   76.5960  219.3500 O   0  0  0  0  0  0  0  0  0  0  0  0
  139.9530   77.6590  218.7320 S   0  0  0  0  0  0  0  0  0  0  0  0
  139.1360   78.4610  217.7580 O   0  0  0  0  0  0  0  0  0  0  0  0
  141.2770   76.8600  217.8580 C   0  0  0  0  0  0  0  0  0  0  0  0
  142.1090   76.0520  218.7640 C   0  0  0  0  0  0  0  0  0  0  0  0
  143.3400   76.4590  219.2470 C   0  0  0  0  0  0  0  0  0  0  0  0
  144.0610   75.6450  220.0930 C   0  0  0  0  0  0  0  0  0  0  0  0
  143.5740   74.4150  220.4730 C   0  0  0  0  0  0  0  0  0  0  0  0
  142.3520   74.0010  220.0000 C   0  0  0  0  0  0  0  0  0  0  0  0
  141.6350   74.8130  219.1570 C   0  0  0  0  0  0  0  0  0  0  0  0
  140.6090   78.7190  219.9270 N   0  0  0  0  0  0  0  0  0  0  0  0
  140.6950   80.0930  219.5950 C   0  0  0  0  0  0  0  0  0  0  0  0
  141.1710   80.9900  220.4350 C   0  0  0  0  0  0  0  0  0  0  0  0
  141.6160   80.5260  221.7410 C   0  0  0  0  0  0  0  0  0  0  0  0
  142.1060   81.4780  222.6070 C   0  0  0  0  0  0  0  0  0  0  0  0
  142.5480   81.1370  223.8670 C   0  0  0  0  0  0  0  0  0  0  0  0
  142.4730   79.8050  224.2130 C   0  0  0  0  0  0  0  0  0  0  0  0
  141.9730   78.8380  223.3280 C   0  0  0  0  0  0  0  0  0  0  0  0
  141.5300   79.1790  222.0630 C   0  0  0  0  0  0  0  0  0  0  0  0
  141.0220   78.1390  221.1790 C   0  0  1  0  0  0  0  0  0  0  0  0
  140.0500   77.1960  221.7420 C   0  0  0  0  0  0  0  0  0  0  0  0
  140.3330   75.8530  221.9650 C   0  0  0  0  0  0  0  0  0  0  0  0
  139.2510   75.2380  222.4760 N   0  0  0  0  0  0  0  0  0  0  0  0
  138.2640   76.1500  222.5950 C   0  0  0  0  0  0  0  0  0  0  0  0
  136.9660   76.0200  223.0690 C   0  0  0  0  0  0  0  0  0  0  0  0
  136.1470   77.1290  223.0880 C   0  0  0  0  0  0  0  0  0  0  0  0
  136.6350   78.3520  222.6340 C   0  0  0  0  0  0  0  0  0  0  0  0
  137.9260   78.4720  222.1640 C   0  0  0  0  0  0  0  0  0  0  0  0
  138.7420   77.3610  222.1450 C   0  0  0  0  0  0  0  0  0  0  0  0
  140.8507   76.2048  217.0841 H   0  0  0  0  0  0  0  0  0  0  0  0
  141.9115   77.6367  217.4063 H   0  0  0  0  0  0  0  0  0  0  0  0
  143.7455   77.4385  218.9537 H   0  0  0  0  0  0  0  0  0  0  0  0
  145.0380   75.9823  220.4694 H   0  0  0  0  0  0  0  0  0  0  0  0
  144.1565   73.7706  221.1478 H   0  0  0  0  0  0  0  0  0  0  0  0
  141.9494   73.0211  220.2963 H   0  0  0  0  0  0  0  0  0  0  0  0
  140.6586   74.4699  218.7843 H   0  0  0  0  0  0  0  0  0  0  0  0
  140.3531   80.4226  218.6028 H   0  0  0  0  0  0  0  0  0  0  0  0
  141.2300   82.0531  220.1586 H   0  0  0  0  0  0  0  0  0  0  0  0
  142.1453   82.5298  222.2872 H   0  0  0  0  0  0  0  0  0  0  0  0
  142.9419   81.8919  224.5634 H   0  0  0  0  0  0  0  0  0  0  0  0
  142.8146   79.4915  225.2105 H   0  0  0  0  0  0  0  0  0  0  0  0
  141.9325   77.7861  223.6471 H   0  0  0  0  0  0  0  0  0  0  0  0
  141.8750   77.4662  221.0063 H   0  0  0  0  0  0  0  0  0  0  0  0
  141.2969   75.3664  221.7551 H   0  0  0  0  0  0  0  0  0  0  0  0
  139.1370   74.2370  222.7520 H   0  0  0  0  0  0  0  0  0  0  0  0
  136.5962   75.0468  223.4242 H   0  0  0  0  0  0  0  0  0  0  0  0
  135.1147   77.0484  223.4594 H   0  0  0  0  0  0  0  0  0  0  0  0
  135.9805   79.2359  222.6506 H   0  0  0  0  0  0  0  0  0  0  0  0
  138.3004   79.4432  221.8083 H   0  0  0  0  0  0  0  0  0  0  0  0
  1  2  2  0
  2  3  2  0
  2  4  1  0
  4  5  1  0
  5  6  2  0
  6  7  1  0
  7  8  2  0
  8  9  1  0
  9 10  2  0
  2 11  1  0
 11 12  1  0
 12 13  2  0
 13 14  1  0
 14 15  2  0
 15 16  1  0
 16 17  2  0
 17 18  1  0
 18 19  2  0
 19 20  1  0
 20 21  1  0
 21 22  2  0
 22 23  1  0
 23 24  1  0
 24 25  2  0
 25 26  1  0
 26 27  2  0
 27 28  1  0
 28 29  2  0
 10  5  1  0
 20 11  1  0
 29 21  1  0
 19 14  1  0
 29 24  1  0
  4 30  1  0
  4 31  1  0
  6 32  1  0
  7 33  1  0
  8 34  1  0
  9 35  1  0
 10 36  1  0
 12 37  1  0
 13 38  1  0
 15 39  1  0
 16 40  1  0
 17 41  1  0
 18 42  1  0
 20 43  1  6
 22 44  1  0
 23 45  1  0
 25 46  1  0
 26 47  1  0
 27 48  1  0
 28 49  1  0
M  END
>  <smiles>  (71) 
O=S(=O)(Cc1ccccc1)N1C=Cc2ccccc2C1c1c[nH]c2ccccc12

>  <score_type>  (71) 
oracle

>  <origin>  (71) 
autodockgpu

>  <m_score__min__energy>  (71) 
-7.8499999999999996

>  <m_primary>  (71) 
energy

>  <rmsd>  (71) 
4.990948622327294

>  <m_score__min__rmsd>  (71) 
4.990948622327294

>  <meeko>  (71) 
{"free_energy": -7.04, "intermolecular_energy": -8.23, "internal_energy": -2.39, "cluster_size": 35, "cluster_id": 4, "rank_in_cluster": 35}

>  <energy>  (71) 
-7.32

>  <cluster_rmsd>  (71) 
0.72

>  <cluster>  (71) 
4

$$$$

     RDKit          3D

 49 53  0  0  1  0  0  0  0  0999 V2000
  139.6680   76.1740  219.2960 O   0  0  0  0  0  0  0  0  0  0  0  0
  140.5430   77.2120  218.6810 S   0  0  0  0  0  0  0  0  0  0  0  0
  139.8100   77.9090  217.5690 O   0  0  0  0  0  0  0  0  0  0  0  0
  141.9670   76.3900  218.0110 C   0  0  0  0  0  0  0  0  0  0  0  0
  142.5310   75.4260  218.9680 C   0  0  0  0  0  0  0  0  0  0  0  0
  141.9090   74.2420  219.3270 C   0  0  0  0  0  0  0  0  0  0  0  0
  142.5010   73.3890  220.2310 C   0  0  0  0  0  0  0  0  0  0  0  0
  143.7180   73.6940  220.7950 C   0  0  0  0  0  0  0  0  0  0  0  0
  144.3460   74.8660  220.4470 C   0  0  0  0  0  0  0  0  0  0  0  0
  143.7550   75.7150  219.5460 C   0  0  0  0  0  0  0  0  0  0  0  0
  141.0470   78.3820  219.8460 N   0  0  0  0  0  0  0  0  0  0  0  0
  141.1720   79.7220  219.4040 C   0  0  0  0  0  0  0  0  0  0  0  0
  141.5420   80.6970  220.2110 C   0  0  0  0  0  0  0  0  0  0  0  0
  141.8250   80.3570  221.5980 C   0  0  0  0  0  0  0  0  0  0  0  0
  142.2050   81.3880  222.4270 C   0  0  0  0  0  0  0  0  0  0  0  0
  142.4910   81.1660  223.7570 C   0  0  0  0  0  0  0  0  0  0  0  0
  142.3760   79.8700  224.2100 C   0  0  0  0  0  0  0  0  0  0  0  0
  141.9880   78.8220  223.3620 C   0  0  0  0  0  0  0  0  0  0  0  0
  141.7020   79.0420  222.0270 C   0  0  0  0  0  0  0  0  0  0  0  0
  141.3060   77.9220  221.1860 C   0  0  1  0  0  0  0  0  0  0  0  0
  140.2730   77.0220  221.7100 C   0  0  0  0  0  0  0  0  0  0  0  0
  140.4980   75.6740  221.9710 C   0  0  0  0  0  0  0  0  0  0  0  0
  139.3690   75.1050  222.4330 N   0  0  0  0  0  0  0  0  0  0  0  0
  138.4090   76.0510  222.4810 C   0  0  0  0  0  0  0  0  0  0  0  0
  137.0830   75.9720  222.8840 C   0  0  0  0  0  0  0  0  0  0  0  0
  136.3020   77.1080  222.8390 C   0  0  0  0  0  0  0  0  0  0  0  0
  136.8550   78.3060  222.3920 C   0  0  0  0  0  0  0  0  0  0  0  0
  138.1730   78.3740  221.9920 C   0  0  0  0  0  0  0  0  0  0  0  0
  138.9520   77.2370  222.0370 C   0  0  0  0  0  0  0  0  0  0  0  0
  141.6736   75.8553  217.0955 H   0  0  0  0  0  0  0  0  0  0  0  0
  142.7330   77.1485  217.7921 H   0  0  0  0  0  0  0  0  0  0  0  0
  140.9352   73.9813  218.8868 H   0  0  0  0  0  0  0  0  0  0  0  0
  141.9946   72.4520  220.5057 H   0  0  0  0  0  0  0  0  0  0  0  0
  144.1837   73.0071  221.5170 H   0  0  0  0  0  0  0  0  0  0  0  0
  145.3198   75.1225  220.8897 H   0  0  0  0  0  0  0  0  0  0  0  0
  144.2674   76.6501  219.2758 H   0  0  0  0  0  0  0  0  0  0  0  0
  140.9530   79.9572  218.3520 H   0  0  0  0  0  0  0  0  0  0  0  0
  141.6337   81.7316  219.8487 H   0  0  0  0  0  0  0  0  0  0  0  0
  142.2818   82.4074  222.0208 H   0  0  0  0  0  0  0  0  0  0  0  0
  142.7966   81.9848  224.4250 H   0  0  0  0  0  0  0  0  0  0  0  0
  142.5944   79.6510  225.2656 H   0  0  0  0  0  0  0  0  0  0  0  0
  141.9095   77.8027  223.7679 H   0  0  0  0  0  0  0  0  0  0  0  0
  142.1747   77.2473  221.1794 H   0  0  0  0  0  0  0  0  0  0  0  0
  141.4546   75.1518  221.8222 H   0  0  0  0  0  0  0  0  0  0  0  0
  139.2080   74.1140  222.7190 H   0  0  0  0  0  0  0  0  0  0  0  0
  136.6615   75.0181  223.2339 H   0  0  0  0  0  0  0  0  0  0  0  0
  135.2489   77.0683  223.1542 H   0  0  0  0  0  0  0  0  0  0  0  0
  136.2310   79.2112  222.3576 H   0  0  0  0  0  0  0  0  0  0  0  0
  138.5986   79.3255  221.6406 H   0  0  0  0  0  0  0  0  0  0  0  0
  1  2  2  0
  2  3  2  0
  2  4  1  0
  4  5  1  0
  5  6  2  0
  6  7  1  0
  7  8  2  0
  8  9  1  0
  9 10  2  0
  2 11  1  0
 11 12  1  0
 12 13  2  0
 13 14  1  0
 14 15  2  0
 15 16  1  0
 16 17  2  0
 17 18  1  0
 18 19  2  0
 19 20  1  0
 20 21  1  0
 21 22  2  0
 22 23  1  0
 23 24  1  0
 24 25  2  0
 25 26  1  0
 26 27  2  0
 27 28  1  0
 28 29  2  0
 10  5  1  0
 20 11  1  0
 29 21  1  0
 19 14  1  0
 29 24  1  0
  4 30  1  0
  4 31  1  0
  6 32  1  0
  7 33  1  0
  8 34  1  0
  9 35  1  0
 10 36  1  0
 12 37  1  0
 13 38  1  0
 15 39  1  0
 16 40  1  0
 17 41  1  0
 18 42  1  0
 20 43  1  6
 22 44  1  0
 23 45  1  0
 25 46  1  0
 26 47  1  0
 27 48  1  0
 28 49  1  0
M  END
>  <smiles>  (72) 
O=S(=O)(Cc1ccccc1)N1C=Cc2ccccc2C1c1c[nH]c2ccccc12

>  <score_type>  (72) 
oracle

>  <origin>  (72) 
autodockgpu

>  <m_score__min__energy>  (72) 
-7.8499999999999996

>  <m_primary>  (72) 
energy

>  <rmsd>  (72) 
4.955797915130446

>  <m_score__min__rmsd>  (72) 
4.955797915130446

>  <meeko>  (72) 
{"free_energy": -7.29, "intermolecular_energy": -8.48, "internal_energy": -2.25, "cluster_size": 35, "cluster_id": 4, "rank_in_cluster": 21}

>  <energy>  (72) 
-7.32

>  <cluster_rmsd>  (72) 
0.69

>  <cluster>  (72) 
4

$$$$

     RDKit          3D

 49 53  0  0  1  0  0  0  0  0999 V2000
  139.6320   76.1220  219.2980 O   0  0  0  0  0  0  0  0  0  0  0  0
  140.5030   77.1630  218.6820 S   0  0  0  0  0  0  0  0  0  0  0  0
  139.7640   77.8630  217.5770 O   0  0  0  0  0  0  0  0  0  0  0  0
  141.9250   76.3460  218.0020 C   0  0  0  0  0  0  0  0  0  0  0  0
  142.5200   75.4090  218.9690 C   0  0  0  0  0  0  0  0  0  0  0  0
  141.9250   74.2200  219.3560 C   0  0  0  0  0  0  0  0  0  0  0  0
  142.5450   73.3950  220.2680 C   0  0  0  0  0  0  0  0  0  0  0  0
  143.7630   73.7330  220.8100 C   0  0  0  0  0  0  0  0  0  0  0  0
  144.3630   74.9100  220.4340 C   0  0  0  0  0  0  0  0  0  0  0  0
  143.7450   75.7320  219.5250 C   0  0  0  0  0  0  0  0  0  0  0  0
  141.0120   78.3300  219.8490 N   0  0  0  0  0  0  0  0  0  0  0  0
  141.1530   79.6680  219.4060 C   0  0  0  0  0  0  0  0  0  0  0  0
  141.5280   80.6390  220.2140 C   0  0  0  0  0  0  0  0  0  0  0  0
  141.7990   80.2990  221.6030 C   0  0  0  0  0  0  0  0  0  0  0  0
  142.1840   81.3270  222.4330 C   0  0  0  0  0  0  0  0  0  0  0  0
  142.4580   81.1040  223.7660 C   0  0  0  0  0  0  0  0  0  0  0  0
  142.3270   79.8100  224.2200 C   0  0  0  0  0  0  0  0  0  0  0  0
  141.9340   78.7650  223.3710 C   0  0  0  0  0  0  0  0  0  0  0  0
  141.6580   78.9860  222.0340 C   0  0  0  0  0  0  0  0  0  0  0  0
  141.2570   77.8690  221.1910 C   0  0  1  0  0  0  0  0  0  0  0  0
  140.2110   76.9800  221.7100 C   0  0  0  0  0  0  0  0  0  0  0  0
  140.4160   75.6270  221.9570 C   0  0  0  0  0  0  0  0  0  0  0  0
  139.2790   75.0710  222.4160 N   0  0  0  0  0  0  0  0  0  0  0  0
  138.3340   76.0310  222.4760 C   0  0  0  0  0  0  0  0  0  0  0  0
  137.0080   75.9700  222.8830 C   0  0  0  0  0  0  0  0  0  0  0  0
  136.2450   77.1180  222.8510 C   0  0  0  0  0  0  0  0  0  0  0  0
  136.8160   78.3120  222.4140 C   0  0  0  0  0  0  0  0  0  0  0  0
  138.1340   78.3630  222.0110 C   0  0  0  0  0  0  0  0  0  0  0  0
  138.8940   77.2130  222.0430 C   0  0  0  0  0  0  0  0  0  0  0  0
  141.6218   75.7885  217.1036 H   0  0  0  0  0  0  0  0  0  0  0  0
  142.6765   77.1096  217.7526 H   0  0  0  0  0  0  0  0  0  0  0  0
  140.9513   73.9327  218.9325 H   0  0  0  0  0  0  0  0  0  0  0  0
  142.0600   72.4540  220.5667 H   0  0  0  0  0  0  0  0  0  0  0  0
  144.2516   73.0677  221.5370 H   0  0  0  0  0  0  0  0  0  0  0  0
  145.3366   75.1932  220.8605 H   0  0  0  0  0  0  0  0  0  0  0  0
  144.2361   76.6714  219.2311 H   0  0  0  0  0  0  0  0  0  0  0  0
  140.9425   79.9043  218.3525 H   0  0  0  0  0  0  0  0  0  0  0  0
  141.6327   81.6720  219.8509 H   0  0  0  0  0  0  0  0  0  0  0  0
  142.2748   82.3448  222.0258 H   0  0  0  0  0  0  0  0  0  0  0  0
  142.7665   81.9207  224.4351 H   0  0  0  0  0  0  0  0  0  0  0  0
  142.5363   79.5903  225.2773 H   0  0  0  0  0  0  0  0  0  0  0  0
  141.8433   77.7470  223.7777 H   0  0  0  0  0  0  0  0  0  0  0  0
  142.1189   77.1855  221.1899 H   0  0  0  0  0  0  0  0  0  0  0  0
  141.3642   75.0917  221.8009 H   0  0  0  0  0  0  0  0  0  0  0  0
  139.1020   74.0800  222.6930 H   0  0  0  0  0  0  0  0  0  0  0  0
  136.5726   75.0198  223.2259 H   0  0  0  0  0  0  0  0  0  0  0  0
  135.1921   77.0917  223.1684 H   0  0  0  0  0  0  0  0  0  0  0  0
  136.2063   79.2273  222.3902 H   0  0  0  0  0  0  0  0  0  0  0  0
  138.5741   79.3109  221.6678 H   0  0  0  0  0  0  0  0  0  0  0  0
  1  2  2  0
  2  3  2  0
  2  4  1  0
  4  5  1  0
  5  6  2  0
  6  7  1  0
  7  8  2  0
  8  9  1  0
  9 10  2  0
  2 11  1  0
 11 12  1  0
 12 13  2  0
 13 14  1  0
 14 15  2  0
 15 16  1  0
 16 17  2  0
 17 18  1  0
 18 19  2  0
 19 20  1  0
 20 21  1  0
 21 22  2  0
 22 23  1  0
 23 24  1  0
 24 25  2  0
 25 26  1  0
 26 27  2  0
 27 28  1  0
 28 29  2  0
 10  5  1  0
 20 11  1  0
 29 21  1  0
 19 14  1  0
 29 24  1  0
  4 30  1  0
  4 31  1  0
  6 32  1  0
  7 33  1  0
  8 34  1  0
  9 35  1  0
 10 36  1  0
 12 37  1  0
 13 38  1  0
 15 39  1  0
 16 40  1  0
 17 41  1  0
 18 42  1  0
 20 43  1  6
 22 44  1  0
 23 45  1  0
 25 46  1  0
 26 47  1  0
 27 48  1  0
 28 49  1  0
M  END
>  <smiles>  (73) 
O=S(=O)(Cc1ccccc1)N1C=Cc2ccccc2C1c1c[nH]c2ccccc12

>  <score_type>  (73) 
oracle

>  <origin>  (73) 
autodockgpu

>  <m_score__min__energy>  (73) 
-7.8499999999999996

>  <m_primary>  (73) 
energy

>  <rmsd>  (73) 
4.996934045328655

>  <m_score__min__rmsd>  (73) 
4.996934045328655

>  <meeko>  (73) 
{"free_energy": -7.3, "intermolecular_energy": -8.49, "internal_energy": -2.23, "cluster_size": 35, "cluster_id": 4, "rank_in_cluster": 17}

>  <energy>  (73) 
-7.31

>  <cluster_rmsd>  (73) 
0.68

>  <cluster>  (73) 
4

$$$$

     RDKit          3D

 49 53  0  0  1  0  0  0  0  0999 V2000
  139.6340   76.1820  219.2820 O   0  0  0  0  0  0  0  0  0  0  0  0
  140.5080   77.2260  218.6740 S   0  0  0  0  0  0  0  0  0  0  0  0
  139.7760   77.9270  217.5650 O   0  0  0  0  0  0  0  0  0  0  0  0
  141.9350   76.4110  218.0030 C   0  0  0  0  0  0  0  0  0  0  0  0
  142.5030   75.4460  218.9580 C   0  0  0  0  0  0  0  0  0  0  0  0
  141.8980   74.2460  219.2930 C   0  0  0  0  0  0  0  0  0  0  0  0
  142.4920   73.3940  220.1970 C   0  0  0  0  0  0  0  0  0  0  0  0
  143.6930   73.7160  220.7850 C   0  0  0  0  0  0  0  0  0  0  0  0
  144.3030   74.9040  220.4610 C   0  0  0  0  0  0  0  0  0  0  0  0
  143.7110   75.7520  219.5590 C   0  0  0  0  0  0  0  0  0  0  0  0
  141.0070   78.3910  219.8460 N   0  0  0  0  0  0  0  0  0  0  0  0
  141.1330   79.7330  219.4110 C   0  0  0  0  0  0  0  0  0  0  0  0
  141.4990   80.7040  220.2240 C   0  0  0  0  0  0  0  0  0  0  0  0
  141.7780   80.3580  221.6100 C   0  0  0  0  0  0  0  0  0  0  0  0
  142.1540   81.3850  222.4450 C   0  0  0  0  0  0  0  0  0  0  0  0
  142.4360   81.1580  223.7750 C   0  0  0  0  0  0  0  0  0  0  0  0
  142.3210   79.8590  224.2220 C   0  0  0  0  0  0  0  0  0  0  0  0
  141.9360   78.8150  223.3680 C   0  0  0  0  0  0  0  0  0  0  0  0
  141.6540   79.0410  222.0330 C   0  0  0  0  0  0  0  0  0  0  0  0
  141.2620   77.9240  221.1850 C   0  0  1  0  0  0  0  0  0  0  0  0
  140.2280   77.0210  221.7020 C   0  0  0  0  0  0  0  0  0  0  0  0
  140.4560   75.6750  221.9660 C   0  0  0  0  0  0  0  0  0  0  0  0
  139.3250   75.1010  222.4180 N   0  0  0  0  0  0  0  0  0  0  0  0
  138.3610   76.0440  222.4580 C   0  0  0  0  0  0  0  0  0  0  0  0
  137.0330   75.9610  222.8510 C   0  0  0  0  0  0  0  0  0  0  0  0
  136.2480   77.0940  222.7980 C   0  0  0  0  0  0  0  0  0  0  0  0
  136.8000   78.2930  222.3550 C   0  0  0  0  0  0  0  0  0  0  0  0
  138.1210   78.3660  221.9650 C   0  0  0  0  0  0  0  0  0  0  0  0
  138.9030   77.2320  222.0180 C   0  0  0  0  0  0  0  0  0  0  0  0
  141.6440   75.8776  217.0861 H   0  0  0  0  0  0  0  0  0  0  0  0
  142.6982   77.1731  217.7868 H   0  0  0  0  0  0  0  0  0  0  0  0
  140.9367   73.9718  218.8339 H   0  0  0  0  0  0  0  0  0  0  0  0
  141.9999   72.4439  220.4521 H   0  0  0  0  0  0  0  0  0  0  0  0
  144.1602   73.0299  221.5069 H   0  0  0  0  0  0  0  0  0  0  0  0
  145.2636   75.1746  220.9236 H   0  0  0  0  0  0  0  0  0  0  0  0
  144.2098   76.6995  219.3073 H   0  0  0  0  0  0  0  0  0  0  0  0
  140.9182   79.9731  218.3592 H   0  0  0  0  0  0  0  0  0  0  0  0
  141.5904   81.7405  219.8671 H   0  0  0  0  0  0  0  0  0  0  0  0
  142.2310   82.4063  222.0436 H   0  0  0  0  0  0  0  0  0  0  0  0
  142.7383   81.9743  224.4475 H   0  0  0  0  0  0  0  0  0  0  0  0
  142.5370   79.6351  225.2771 H   0  0  0  0  0  0  0  0  0  0  0  0
  141.8566   77.7938  223.7690 H   0  0  0  0  0  0  0  0  0  0  0  0
  142.1309   77.2495  221.1772 H   0  0  0  0  0  0  0  0  0  0  0  0
  141.4162   75.1569  221.8265 H   0  0  0  0  0  0  0  0  0  0  0  0
  139.1650   74.1100  222.7030 H   0  0  0  0  0  0  0  0  0  0  0  0
  136.6125   75.0062  223.1996 H   0  0  0  0  0  0  0  0  0  0  0  0
  135.1923   77.0505  223.1039 H   0  0  0  0  0  0  0  0  0  0  0  0
  136.1730   79.1959  222.3154 H   0  0  0  0  0  0  0  0  0  0  0  0
  138.5458   79.3186  221.6155 H   0  0  0  0  0  0  0  0  0  0  0  0
  1  2  2  0
  2  3  2  0
  2  4  1  0
  4  5  1  0
  5  6  2  0
  6  7  1  0
  7  8  2  0
  8  9  1  0
  9 10  2  0
  2 11  1  0
 11 12  1  0
 12 13  2  0
 13 14  1  0
 14 15  2  0
 15 16  1  0
 16 17  2  0
 17 18  1  0
 18 19  2  0
 19 20  1  0
 20 21  1  0
 21 22  2  0
 22 23  1  0
 23 24  1  0
 24 25  2  0
 25 26  1  0
 26 27  2  0
 27 28  1  0
 28 29  2  0
 10  5  1  0
 20 11  1  0
 29 21  1  0
 19 14  1  0
 29 24  1  0
  4 30  1  0
  4 31  1  0
  6 32  1  0
  7 33  1  0
  8 34  1  0
  9 35  1  0
 10 36  1  0
 12 37  1  0
 13 38  1  0
 15 39  1  0
 16 40  1  0
 17 41  1  0
 18 42  1  0
 20 43  1  6
 22 44  1  0
 23 45  1  0
 25 46  1  0
 26 47  1  0
 27 48  1  0
 28 49  1  0
M  END
>  <smiles>  (74) 
O=S(=O)(Cc1ccccc1)N1C=Cc2ccccc2C1c1c[nH]c2ccccc12

>  <score_type>  (74) 
oracle

>  <origin>  (74) 
autodockgpu

>  <m_score__min__energy>  (74) 
-7.8499999999999996

>  <m_primary>  (74) 
energy

>  <rmsd>  (74) 
4.954134191859362

>  <m_score__min__rmsd>  (74) 
4.954134191859362

>  <meeko>  (74) 
{"free_energy": -7.28, "intermolecular_energy": -8.47, "internal_energy": -2.26, "cluster_size": 35, "cluster_id": 4, "rank_in_cluster": 27}

>  <energy>  (74) 
-7.31

>  <cluster_rmsd>  (74) 
0.71

>  <cluster>  (74) 
4

$$$$

     RDKit          3D

 49 53  0  0  1  0  0  0  0  0999 V2000
  140.4730   76.1040  218.9060 O   0  0  0  0  0  0  0  0  0  0  0  0
  141.4220   77.1710  218.4780 S   0  0  0  0  0  0  0  0  0  0  0  0
  140.9250   77.8270  217.2210 O   0  0  0  0  0  0  0  0  0  0  0  0
  142.9880   76.4010  218.1510 C   0  0  0  0  0  0  0  0  0  0  0  0
  143.1750   75.1930  218.9690 C   0  0  0  0  0  0  0  0  0  0  0  0
  142.4910   74.0070  218.7600 C   0  0  0  0  0  0  0  0  0  0  0  0
  142.7210   72.9170  219.5700 C   0  0  0  0  0  0  0  0  0  0  0  0
  143.6310   72.9840  220.6000 C   0  0  0  0  0  0  0  0  0  0  0  0
  144.3150   74.1550  220.8170 C   0  0  0  0  0  0  0  0  0  0  0  0
  144.0860   75.2400  220.0100 C   0  0  0  0  0  0  0  0  0  0  0  0
  141.6150   78.3720  219.7040 N   0  0  0  0  0  0  0  0  0  0  0  0
  141.6050   79.7260  219.2900 C   0  0  0  0  0  0  0  0  0  0  0  0
  141.7350   80.7220  220.1430 C   0  0  0  0  0  0  0  0  0  0  0  0
  141.8940   80.3920  221.5520 C   0  0  0  0  0  0  0  0  0  0  0  0
  142.0250   81.4450  222.4280 C   0  0  0  0  0  0  0  0  0  0  0  0
  142.1760   81.2340  223.7810 C   0  0  0  0  0  0  0  0  0  0  0  0
  142.1890   79.9240  224.2080 C   0  0  0  0  0  0  0  0  0  0  0  0
  142.0550   78.8530  223.3130 C   0  0  0  0  0  0  0  0  0  0  0  0
  141.9030   79.0630  221.9540 C   0  0  0  0  0  0  0  0  0  0  0  0
  141.7720   77.9190  221.0630 C   0  0  1  0  0  0  0  0  0  0  0  0
  140.8180   76.8740  221.4500 C   0  0  0  0  0  0  0  0  0  0  0  0
  141.1710   75.5360  221.5920 C   0  0  0  0  0  0  0  0  0  0  0  0
  140.0900   74.8150  221.9440 N   0  0  0  0  0  0  0  0  0  0  0  0
  139.0370   75.6520  222.0370 C   0  0  0  0  0  0  0  0  0  0  0  0
  137.7120   75.4030  222.3690 C   0  0  0  0  0  0  0  0  0  0  0  0
  136.8210   76.4550  222.3970 C   0  0  0  0  0  0  0  0  0  0  0  0
  137.2640   77.7400  222.0920 C   0  0  0  0  0  0  0  0  0  0  0  0
  138.5820   77.9780  221.7620 C   0  0  0  0  0  0  0  0  0  0  0  0
  139.4710   76.9250  221.7350 C   0  0  0  0  0  0  0  0  0  0  0  0
  143.0350   76.1236  217.0876 H   0  0  0  0  0  0  0  0  0  0  0  0
  143.7843   77.1164  218.4042 H   0  0  0  0  0  0  0  0  0  0  0  0
  141.7593   73.9351  217.9418 H   0  0  0  0  0  0  0  0  0  0  0  0
  142.1705   71.9815  219.3914 H   0  0  0  0  0  0  0  0  0  0  0  0
  143.8087   72.1091  221.2426 H   0  0  0  0  0  0  0  0  0  0  0  0
  145.0454   74.2226  221.6368 H   0  0  0  0  0  0  0  0  0  0  0  0
  144.6407   76.1717  220.1948 H   0  0  0  0  0  0  0  0  0  0  0  0
  141.4847   79.9541  218.2207 H   0  0  0  0  0  0  0  0  0  0  0  0
  141.7238   81.7677  219.8019 H   0  0  0  0  0  0  0  0  0  0  0  0
  142.0088   82.4745  222.0408 H   0  0  0  0  0  0  0  0  0  0  0  0
  142.2811   82.0712  224.4867 H   0  0  0  0  0  0  0  0  0  0  0  0
  142.3078   79.7125  225.2809 H   0  0  0  0  0  0  0  0  0  0  0  0
  142.0711   77.8234  223.6998 H   0  0  0  0  0  0  0  0  0  0  0  0
  142.7202   77.3697  221.1583 H   0  0  0  0  0  0  0  0  0  0  0  0
  142.1813   75.1285  221.4396 H   0  0  0  0  0  0  0  0  0  0  0  0
  140.0210   73.7890  222.1260 H   0  0  0  0  0  0  0  0  0  0  0  0
  137.3782   74.3821  222.6061 H   0  0  0  0  0  0  0  0  0  0  0  0
  135.7669   76.2806  222.6586 H   0  0  0  0  0  0  0  0  0  0  0  0
  136.5517   78.5779  222.1147 H   0  0  0  0  0  0  0  0  0  0  0  0
  138.9199   78.9971  221.5230 H   0  0  0  0  0  0  0  0  0  0  0  0
  1  2  2  0
  2  3  2  0
  2  4  1  0
  4  5  1  0
  5  6  2  0
  6  7  1  0
  7  8  2  0
  8  9  1  0
  9 10  2  0
  2 11  1  0
 11 12  1  0
 12 13  2  0
 13 14  1  0
 14 15  2  0
 15 16  1  0
 16 17  2  0
 17 18  1  0
 18 19  2  0
 19 20  1  0
 20 21  1  0
 21 22  2  0
 22 23  1  0
 23 24  1  0
 24 25  2  0
 25 26  1  0
 26 27  2  0
 27 28  1  0
 28 29  2  0
 10  5  1  0
 20 11  1  0
 29 21  1  0
 19 14  1  0
 29 24  1  0
  4 30  1  0
  4 31  1  0
  6 32  1  0
  7 33  1  0
  8 34  1  0
  9 35  1  0
 10 36  1  0
 12 37  1  0
 13 38  1  0
 15 39  1  0
 16 40  1  0
 17 41  1  0
 18 42  1  0
 20 43  1  6
 22 44  1  0
 23 45  1  0
 25 46  1  0
 26 47  1  0
 27 48  1  0
 28 49  1  0
M  END
>  <smiles>  (75) 
O=S(=O)(Cc1ccccc1)N1C=Cc2ccccc2C1c1c[nH]c2ccccc12

>  <score_type>  (75) 
oracle

>  <origin>  (75) 
autodockgpu

>  <m_score__min__energy>  (75) 
-7.8499999999999996

>  <m_primary>  (75) 
energy

>  <rmsd>  (75) 
4.705531188416803

>  <m_score__min__rmsd>  (75) 
4.705531188416803

>  <meeko>  (75) 
{"free_energy": -7.14, "intermolecular_energy": -8.34, "internal_energy": -2.23, "cluster_size": 35, "cluster_id": 4, "rank_in_cluster": 32}

>  <energy>  (75) 
-7.3

>  <cluster_rmsd>  (75) 
0.73

>  <cluster>  (75) 
4

$$$$

     RDKit          3D

 49 53  0  0  1  0  0  0  0  0999 V2000
  136.1570   68.2260  223.1810 O   0  0  0  0  0  0  0  0  0  0  0  0
  136.1150   69.5110  223.9360 S   0  0  0  0  0  0  0  0  0  0  0  0
  136.4910   69.2760  225.3720 O   0  0  0  0  0  0  0  0  0  0  0  0
  134.4490   70.1240  223.8660 C   0  0  0  0  0  0  0  0  0  0  0  0
  134.1250   70.9330  225.0520 C   0  0  0  0  0  0  0  0  0  0  0  0
  133.9560   70.4070  226.3210 C   0  0  0  0  0  0  0  0  0  0  0  0
  133.6520   71.2310  227.3820 C   0  0  0  0  0  0  0  0  0  0  0  0
  133.5100   72.5870  227.2040 C   0  0  0  0  0  0  0  0  0  0  0  0
  133.6750   73.1210  225.9490 C   0  0  0  0  0  0  0  0  0  0  0  0
  133.9780   72.3000  224.8920 C   0  0  0  0  0  0  0  0  0  0  0  0
  137.1880   70.6780  223.2540 N   0  0  0  0  0  0  0  0  0  0  0  0
  136.6290   71.9190  222.8620 C   0  0  0  0  0  0  0  0  0  0  0  0
  137.3590   72.8840  222.3390 C   0  0  0  0  0  0  0  0  0  0  0  0
  138.7840   72.6400  222.1680 C   0  0  0  0  0  0  0  0  0  0  0  0
  139.5300   73.6600  221.6250 C   0  0  0  0  0  0  0  0  0  0  0  0
  140.8880   73.5250  221.4280 C   0  0  0  0  0  0  0  0  0  0  0  0
  141.4540   72.3260  221.8020 C   0  0  0  0  0  0  0  0  0  0  0  0
  140.6910   71.2890  222.3570 C   0  0  0  0  0  0  0  0  0  0  0  0
  139.3280   71.4220  222.5540 C   0  0  0  0  0  0  0  0  0  0  0  0
  138.5770   70.3160  223.1300 C   0  0  1  0  0  0  0  0  0  0  0  0
  139.1310   69.6830  224.3320 C   0  0  0  0  0  0  0  0  0  0  0  0
  139.0930   68.3100  224.5550 C   0  0  0  0  0  0  0  0  0  0  0  0
  139.6660   68.0260  225.7400 N   0  0  0  0  0  0  0  0  0  0  0  0
  140.0790   69.1830  226.2970 C   0  0  0  0  0  0  0  0  0  0  0  0
  140.7250   69.4250  227.5010 C   0  0  0  0  0  0  0  0  0  0  0  0
  141.0460   70.7230  227.8380 C   0  0  0  0  0  0  0  0  0  0  0  0
  140.7190   71.7610  226.9690 C   0  0  0  0  0  0  0  0  0  0  0  0
  140.0760   71.5100  225.7740 C   0  0  0  0  0  0  0  0  0  0  0  0
  139.7550   70.2120  225.4400 C   0  0  0  0  0  0  0  0  0  0  0  0
  134.3339   70.7459  222.9660 H   0  0  0  0  0  0  0  0  0  0  0  0
  133.7642   69.2637  223.8357 H   0  0  0  0  0  0  0  0  0  0  0  0
  134.0651   69.3245  226.4832 H   0  0  0  0  0  0  0  0  0  0  0  0
  133.5211   70.7986  228.3849 H   0  0  0  0  0  0  0  0  0  0  0  0
  133.2669   73.2372  228.0573 H   0  0  0  0  0  0  0  0  0  0  0  0
  133.5645   74.2041  225.7918 H   0  0  0  0  0  0  0  0  0  0  0  0
  134.1074   72.7395  223.8919 H   0  0  0  0  0  0  0  0  0  0  0  0
  135.5499   72.0829  222.9985 H   0  0  0  0  0  0  0  0  0  0  0  0
  136.9066   73.8416  222.0417 H   0  0  0  0  0  0  0  0  0  0  0  0
  139.0342   74.6005  221.3428 H   0  0  0  0  0  0  0  0  0  0  0  0
  141.4906   74.3359  220.9930 H   0  0  0  0  0  0  0  0  0  0  0  0
  142.5349   72.1781  221.6612 H   0  0  0  0  0  0  0  0  0  0  0  0
  141.1867   70.3493  222.6420 H   0  0  0  0  0  0  0  0  0  0  0  0
  138.6771   69.4934  222.4066 H   0  0  0  0  0  0  0  0  0  0  0  0
  138.6603   67.5686  223.8672 H   0  0  0  0  0  0  0  0  0  0  0  0
  139.7960   67.0960  226.1960 H   0  0  0  0  0  0  0  0  0  0  0  0
  140.9772   68.5941  228.1763 H   0  0  0  0  0  0  0  0  0  0  0  0
  141.5575   70.9374  228.7879 H   0  0  0  0  0  0  0  0  0  0  0  0
  140.9769   72.7957  227.2390 H   0  0  0  0  0  0  0  0  0  0  0  0
  139.8223   72.3374  225.0950 H   0  0  0  0  0  0  0  0  0  0  0  0
  1  2  2  0
  2  3  2  0
  2  4  1  0
  4  5  1  0
  5  6  2  0
  6  7  1  0
  7  8  2  0
  8  9  1  0
  9 10  2  0
  2 11  1  0
 11 12  1  0
 12 13  2  0
 13 14  1  0
 14 15  2  0
 15 16  1  0
 16 17  2  0
 17 18  1  0
 18 19  2  0
 19 20  1  0
 20 21  1  0
 21 22  2  0
 22 23  1  0
 23 24  1  0
 24 25  2  0
 25 26  1  0
 26 27  2  0
 27 28  1  0
 28 29  2  0
 10  5  1  0
 20 11  1  0
 29 21  1  0
 19 14  1  0
 29 24  1  0
  4 30  1  0
  4 31  1  0
  6 32  1  0
  7 33  1  0
  8 34  1  0
  9 35  1  0
 10 36  1  0
 12 37  1  0
 13 38  1  0
 15 39  1  0
 16 40  1  0
 17 41  1  0
 18 42  1  0
 20 43  1  6
 22 44  1  0
 23 45  1  0
 25 46  1  0
 26 47  1  0
 27 48  1  0
 28 49  1  0
M  END
>  <smiles>  (76) 
O=S(=O)(Cc1ccccc1)N1C=Cc2ccccc2C1c1c[nH]c2ccccc12

>  <score_type>  (76) 
oracle

>  <origin>  (76) 
autodockgpu

>  <m_score__min__energy>  (76) 
-7.8499999999999996

>  <m_primary>  (76) 
energy

>  <rmsd>  (76) 
10.789533517769044

>  <m_score__min__rmsd>  (76) 
10.789533517769044

>  <meeko>  (76) 
{"free_energy": -7.57, "intermolecular_energy": -8.77, "internal_energy": -1.93, "cluster_size": 7, "cluster_id": 2, "rank_in_cluster": 6}

>  <energy>  (76) 
-7.3

>  <cluster_rmsd>  (76) 
0.71

>  <cluster>  (76) 
4

$$$$

     RDKit          3D

 49 53  0  0  1  0  0  0  0  0999 V2000
  139.6050   76.2080  219.2470 O   0  0  0  0  0  0  0  0  0  0  0  0
  140.4950   77.2440  218.6490 S   0  0  0  0  0  0  0  0  0  0  0  0
  139.7740   77.9650  217.5440 O   0  0  0  0  0  0  0  0  0  0  0  0
  141.9110   76.4130  217.9720 C   0  0  0  0  0  0  0  0  0  0  0  0
  142.4770   75.4490  218.9290 C   0  0  0  0  0  0  0  0  0  0  0  0
  141.8560   74.2660  219.2900 C   0  0  0  0  0  0  0  0  0  0  0  0
  142.4510   73.4140  220.1940 C   0  0  0  0  0  0  0  0  0  0  0  0
  143.6680   73.7200  220.7560 C   0  0  0  0  0  0  0  0  0  0  0  0
  144.2950   74.8920  220.4060 C   0  0  0  0  0  0  0  0  0  0  0  0
  143.7020   75.7400  219.5050 C   0  0  0  0  0  0  0  0  0  0  0  0
  141.0100   78.3920  219.8310 N   0  0  0  0  0  0  0  0  0  0  0  0
  141.1400   79.7380  219.4110 C   0  0  0  0  0  0  0  0  0  0  0  0
  141.5170   80.6970  220.2330 C   0  0  0  0  0  0  0  0  0  0  0  0
  141.8050   80.3320  221.6130 C   0  0  0  0  0  0  0  0  0  0  0  0
  142.1930   81.3470  222.4580 C   0  0  0  0  0  0  0  0  0  0  0  0
  142.4830   81.1020  223.7830 C   0  0  0  0  0  0  0  0  0  0  0  0
  142.3630   79.7990  224.2150 C   0  0  0  0  0  0  0  0  0  0  0  0
  141.9660   78.7670  223.3510 C   0  0  0  0  0  0  0  0  0  0  0  0
  141.6760   79.0110  222.0210 C   0  0  0  0  0  0  0  0  0  0  0  0
  141.2710   77.9070  221.1620 C   0  0  1  0  0  0  0  0  0  0  0  0
  140.2350   77.0040  221.6750 C   0  0  0  0  0  0  0  0  0  0  0  0
  140.4670   75.6620  221.9570 C   0  0  0  0  0  0  0  0  0  0  0  0
  139.3340   75.0870  222.4010 N   0  0  0  0  0  0  0  0  0  0  0  0
  138.3640   76.0240  222.4180 C   0  0  0  0  0  0  0  0  0  0  0  0
  137.0310   75.9380  222.7950 C   0  0  0  0  0  0  0  0  0  0  0  0
  136.2410   77.0660  222.7200 C   0  0  0  0  0  0  0  0  0  0  0  0
  136.7930   78.2640  222.2710 C   0  0  0  0  0  0  0  0  0  0  0  0
  138.1180   78.3390  221.8970 C   0  0  0  0  0  0  0  0  0  0  0  0
  138.9060   77.2110  221.9720 C   0  0  0  0  0  0  0  0  0  0  0  0
  141.6091   75.8768  217.0602 H   0  0  0  0  0  0  0  0  0  0  0  0
  142.6791   77.1671  217.7455 H   0  0  0  0  0  0  0  0  0  0  0  0
  140.8813   74.0046  218.8523 H   0  0  0  0  0  0  0  0  0  0  0  0
  141.9460   72.4766  220.4700 H   0  0  0  0  0  0  0  0  0  0  0  0
  144.1349   73.0341  221.4781 H   0  0  0  0  0  0  0  0  0  0  0  0
  145.2693   75.1493  220.8470 H   0  0  0  0  0  0  0  0  0  0  0  0
  144.2131   76.6754  219.2332 H   0  0  0  0  0  0  0  0  0  0  0  0
  140.9190   79.9918  218.3637 H   0  0  0  0  0  0  0  0  0  0  0  0
  141.6108   81.7374  219.8883 H   0  0  0  0  0  0  0  0  0  0  0  0
  142.2731   82.3726  222.0686 H   0  0  0  0  0  0  0  0  0  0  0  0
  142.7953   81.9081  224.4631 H   0  0  0  0  0  0  0  0  0  0  0  0
  142.5845   79.5613  225.2659 H   0  0  0  0  0  0  0  0  0  0  0  0
  141.8837   77.7414  223.7401 H   0  0  0  0  0  0  0  0  0  0  0  0
  142.1354   77.2271  221.1399 H   0  0  0  0  0  0  0  0  0  0  0  0
  141.4317   75.1477  221.8354 H   0  0  0  0  0  0  0  0  0  0  0  0
  139.1750   74.0980  222.6950 H   0  0  0  0  0  0  0  0  0  0  0  0
  136.6110   74.9847  223.1482 H   0  0  0  0  0  0  0  0  0  0  0  0
  135.1817   77.0202  223.0128 H   0  0  0  0  0  0  0  0  0  0  0  0
  136.1623   79.1634  222.2140 H   0  0  0  0  0  0  0  0  0  0  0  0
  138.5419   79.2900  221.5422 H   0  0  0  0  0  0  0  0  0  0  0  0
  1  2  2  0
  2  3  2  0
  2  4  1  0
  4  5  1  0
  5  6  2  0
  6  7  1  0
  7  8  2  0
  8  9  1  0
  9 10  2  0
  2 11  1  0
 11 12  1  0
 12 13  2  0
 13 14  1  0
 14 15  2  0
 15 16  1  0
 16 17  2  0
 17 18  1  0
 18 19  2  0
 19 20  1  0
 20 21  1  0
 21 22  2  0
 22 23  1  0
 23 24  1  0
 24 25  2  0
 25 26  1  0
 26 27  2  0
 27 28  1  0
 28 29  2  0
 10  5  1  0
 20 11  1  0
 29 21  1  0
 19 14  1  0
 29 24  1  0
  4 30  1  0
  4 31  1  0
  6 32  1  0
  7 33  1  0
  8 34  1  0
  9 35  1  0
 10 36  1  0
 12 37  1  0
 13 38  1  0
 15 39  1  0
 16 40  1  0
 17 41  1  0
 18 42  1  0
 20 43  1  6
 22 44  1  0
 23 45  1  0
 25 46  1  0
 26 47  1  0
 27 48  1  0
 28 49  1  0
M  END
>  <smiles>  (77) 
O=S(=O)(Cc1ccccc1)N1C=Cc2ccccc2C1c1c[nH]c2ccccc12

>  <score_type>  (77) 
oracle

>  <origin>  (77) 
autodockgpu

>  <m_score__min__energy>  (77) 
-7.8499999999999996

>  <m_primary>  (77) 
energy

>  <rmsd>  (77) 
4.93431478631345

>  <m_score__min__rmsd>  (77) 
4.93431478631345

>  <meeko>  (77) 
{"free_energy": -7.24, "intermolecular_energy": -8.43, "internal_energy": -2.28, "cluster_size": 35, "cluster_id": 4, "rank_in_cluster": 31}

>  <energy>  (77) 
-7.3

>  <cluster_rmsd>  (77) 
0.7

>  <cluster>  (77) 
4

$$$$

     RDKit          3D

 49 53  0  0  1  0  0  0  0  0999 V2000
  139.6230   76.0290  219.3090 O   0  0  0  0  0  0  0  0  0  0  0  0
  140.4860   77.0720  218.6840 S   0  0  0  0  0  0  0  0  0  0  0  0
  139.7400   77.7620  217.5770 O   0  0  0  0  0  0  0  0  0  0  0  0
  141.9110   76.2590  218.0040 C   0  0  0  0  0  0  0  0  0  0  0  0
  142.5080   75.3230  218.9700 C   0  0  0  0  0  0  0  0  0  0  0  0
  141.9300   74.1180  219.3330 C   0  0  0  0  0  0  0  0  0  0  0  0
  142.5510   73.2950  220.2460 C   0  0  0  0  0  0  0  0  0  0  0  0
  143.7530   73.6510  220.8140 C   0  0  0  0  0  0  0  0  0  0  0  0
  144.3350   74.8440  220.4610 C   0  0  0  0  0  0  0  0  0  0  0  0
  143.7170   75.6640  219.5510 C   0  0  0  0  0  0  0  0  0  0  0  0
  140.9920   78.2480  219.8430 N   0  0  0  0  0  0  0  0  0  0  0  0
  141.1470   79.5800  219.3870 C   0  0  0  0  0  0  0  0  0  0  0  0
  141.5210   80.5580  220.1880 C   0  0  0  0  0  0  0  0  0  0  0  0
  141.7770   80.2300  221.5830 C   0  0  0  0  0  0  0  0  0  0  0  0
  142.1610   81.2650  222.4060 C   0  0  0  0  0  0  0  0  0  0  0  0
  142.4220   81.0550  223.7430 C   0  0  0  0  0  0  0  0  0  0  0  0
  142.2780   79.7670  224.2100 C   0  0  0  0  0  0  0  0  0  0  0  0
  141.8850   78.7150  223.3690 C   0  0  0  0  0  0  0  0  0  0  0  0
  141.6240   78.9240  222.0270 C   0  0  0  0  0  0  0  0  0  0  0  0
  141.2220   77.8000  221.1920 C   0  0  1  0  0  0  0  0  0  0  0  0
  140.1650   76.9240  221.7110 C   0  0  0  0  0  0  0  0  0  0  0  0
  140.3560   75.5700  221.9650 C   0  0  0  0  0  0  0  0  0  0  0  0
  139.2120   75.0270  222.4230 N   0  0  0  0  0  0  0  0  0  0  0  0
  138.2760   75.9970  222.4740 C   0  0  0  0  0  0  0  0  0  0  0  0
  136.9480   75.9510  222.8760 C   0  0  0  0  0  0  0  0  0  0  0  0
  136.1970   77.1060  222.8350 C   0  0  0  0  0  0  0  0  0  0  0  0
  136.7810   78.2920  222.3950 C   0  0  0  0  0  0  0  0  0  0  0  0
  138.1010   78.3280  221.9970 C   0  0  0  0  0  0  0  0  0  0  0  0
  138.8500   77.1720  222.0380 C   0  0  0  0  0  0  0  0  0  0  0  0
  141.6097   75.7014  217.1049 H   0  0  0  0  0  0  0  0  0  0  0  0
  142.6606   77.0249  217.7559 H   0  0  0  0  0  0  0  0  0  0  0  0
  140.9695   73.8166  218.8896 H   0  0  0  0  0  0  0  0  0  0  0  0
  142.0802   72.3408  220.5249 H   0  0  0  0  0  0  0  0  0  0  0  0
  144.2421   72.9876  221.5425 H   0  0  0  0  0  0  0  0  0  0  0  0
  145.2953   75.1416  220.9073 H   0  0  0  0  0  0  0  0  0  0  0  0
  144.1943   76.6162  219.2763 H   0  0  0  0  0  0  0  0  0  0  0  0
  140.9486   79.8060  218.3289 H   0  0  0  0  0  0  0  0  0  0  0  0
  141.6357   81.5865  219.8151 H   0  0  0  0  0  0  0  0  0  0  0  0
  142.2613   82.2779  221.9889 H   0  0  0  0  0  0  0  0  0  0  0  0
  142.7307   81.8769  224.4057 H   0  0  0  0  0  0  0  0  0  0  0  0
  142.4766   79.5576  225.2715 H   0  0  0  0  0  0  0  0  0  0  0  0
  141.7823   77.7023  223.7859 H   0  0  0  0  0  0  0  0  0  0  0  0
  142.0791   77.1106  221.2063 H   0  0  0  0  0  0  0  0  0  0  0  0
  141.2994   75.0248  221.8144 H   0  0  0  0  0  0  0  0  0  0  0  0
  139.0250   74.0390  222.7030 H   0  0  0  0  0  0  0  0  0  0  0  0
  136.5018   75.0070  223.2220 H   0  0  0  0  0  0  0  0  0  0  0  0
  135.1425   77.0915  223.1479 H   0  0  0  0  0  0  0  0  0  0  0  0
  136.1805   79.2131  222.3646 H   0  0  0  0  0  0  0  0  0  0  0  0
  138.5513   79.2698  221.6504 H   0  0  0  0  0  0  0  0  0  0  0  0
  1  2  2  0
  2  3  2  0
  2  4  1  0
  4  5  1  0
  5  6  2  0
  6  7  1  0
  7  8  2  0
  8  9  1  0
  9 10  2  0
  2 11  1  0
 11 12  1  0
 12 13  2  0
 13 14  1  0
 14 15  2  0
 15 16  1  0
 16 17  2  0
 17 18  1  0
 18 19  2  0
 19 20  1  0
 20 21  1  0
 21 22  2  0
 22 23  1  0
 23 24  1  0
 24 25  2  0
 25 26  1  0
 26 27  2  0
 27 28  1  0
 28 29  2  0
 10  5  1  0
 20 11  1  0
 29 21  1  0
 19 14  1  0
 29 24  1  0
  4 30  1  0
  4 31  1  0
  6 32  1  0
  7 33  1  0
  8 34  1  0
  9 35  1  0
 10 36  1  0
 12 37  1  0
 13 38  1  0
 15 39  1  0
 16 40  1  0
 17 41  1  0
 18 42  1  0
 20 43  1  6
 22 44  1  0
 23 45  1  0
 25 46  1  0
 26 47  1  0
 27 48  1  0
 28 49  1  0
M  END
>  <smiles>  (78) 
O=S(=O)(Cc1ccccc1)N1C=Cc2ccccc2C1c1c[nH]c2ccccc12

>  <score_type>  (78) 
oracle

>  <origin>  (78) 
autodockgpu

>  <m_score__min__energy>  (78) 
-7.8499999999999996

>  <m_primary>  (78) 
energy

>  <rmsd>  (78) 
5.027562243181241

>  <m_score__min__rmsd>  (78) 
5.027562243181241

>  <meeko>  (78) 
{"free_energy": -7.32, "intermolecular_energy": -8.52, "internal_energy": -2.21, "cluster_size": 35, "cluster_id": 4, "rank_in_cluster": 6}

>  <energy>  (78) 
-7.3

>  <cluster_rmsd>  (78) 
0.72

>  <cluster>  (78) 
4

$$$$

     RDKit          3D

 49 53  0  0  1  0  0  0  0  0999 V2000
  136.1270   68.2180  223.1640 O   0  0  0  0  0  0  0  0  0  0  0  0
  136.0900   69.4960  223.9310 S   0  0  0  0  0  0  0  0  0  0  0  0
  136.4680   69.2470  225.3640 O   0  0  0  0  0  0  0  0  0  0  0  0
  134.4270   70.1150  223.8690 C   0  0  0  0  0  0  0  0  0  0  0  0
  134.1130   70.9330  225.0520 C   0  0  0  0  0  0  0  0  0  0  0  0
  133.9560   70.4150  226.3260 C   0  0  0  0  0  0  0  0  0  0  0  0
  133.6620   71.2460  227.3840 C   0  0  0  0  0  0  0  0  0  0  0  0
  133.5170   72.6010  227.1980 C   0  0  0  0  0  0  0  0  0  0  0  0
  133.6700   73.1260  225.9380 C   0  0  0  0  0  0  0  0  0  0  0  0
  133.9640   72.2980  224.8840 C   0  0  0  0  0  0  0  0  0  0  0  0
  137.1660   70.6670  223.2580 N   0  0  0  0  0  0  0  0  0  0  0  0
  136.6090   71.9090  222.8690 C   0  0  0  0  0  0  0  0  0  0  0  0
  137.3400   72.8760  222.3530 C   0  0  0  0  0  0  0  0  0  0  0  0
  138.7660   72.6330  222.1870 C   0  0  0  0  0  0  0  0  0  0  0  0
  139.5150   73.6560  221.6510 C   0  0  0  0  0  0  0  0  0  0  0  0
  140.8730   73.5220  221.4590 C   0  0  0  0  0  0  0  0  0  0  0  0
  141.4380   72.3210  221.8310 C   0  0  0  0  0  0  0  0  0  0  0  0
  140.6720   71.2820  222.3780 C   0  0  0  0  0  0  0  0  0  0  0  0
  139.3090   71.4140  222.5700 C   0  0  0  0  0  0  0  0  0  0  0  0
  138.5550   70.3050  223.1380 C   0  0  1  0  0  0  0  0  0  0  0  0
  139.1050   69.6670  224.3400 C   0  0  0  0  0  0  0  0  0  0  0  0
  139.0510   68.2960  224.5660 C   0  0  0  0  0  0  0  0  0  0  0  0
  139.6230   68.0060  225.7490 N   0  0  0  0  0  0  0  0  0  0  0  0
  140.0510   69.1590  226.3040 C   0  0  0  0  0  0  0  0  0  0  0  0
  140.7030   69.3950  227.5060 C   0  0  0  0  0  0  0  0  0  0  0  0
  141.0400   70.6900  227.8410 C   0  0  0  0  0  0  0  0  0  0  0  0
  140.7230   71.7300  226.9700 C   0  0  0  0  0  0  0  0  0  0  0  0
  140.0750   71.4860  225.7780 C   0  0  0  0  0  0  0  0  0  0  0  0
  139.7380   70.1910  225.4460 C   0  0  0  0  0  0  0  0  0  0  0  0
  134.3083   70.7317  222.9659 H   0  0  0  0  0  0  0  0  0  0  0  0
  133.7391   69.2569  223.8494 H   0  0  0  0  0  0  0  0  0  0  0  0
  134.0667   69.3336  226.4942 H   0  0  0  0  0  0  0  0  0  0  0  0
  133.5415   70.8205  228.3912 H   0  0  0  0  0  0  0  0  0  0  0  0
  133.2811   73.2570  228.0489 H   0  0  0  0  0  0  0  0  0  0  0  0
  133.5571   74.2079  225.7742 H   0  0  0  0  0  0  0  0  0  0  0  0
  134.0843   72.7307  223.8799 H   0  0  0  0  0  0  0  0  0  0  0  0
  135.5293   72.0722  223.0021 H   0  0  0  0  0  0  0  0  0  0  0  0
  136.8883   73.8345  222.0576 H   0  0  0  0  0  0  0  0  0  0  0  0
  139.0204   74.5978  221.3708 H   0  0  0  0  0  0  0  0  0  0  0  0
  141.4772   74.3346  221.0294 H   0  0  0  0  0  0  0  0  0  0  0  0
  142.5196   72.1737  221.6949 H   0  0  0  0  0  0  0  0  0  0  0  0
  141.1662   70.3408  222.6607 H   0  0  0  0  0  0  0  0  0  0  0  0
  138.6569   69.4852  222.4117 H   0  0  0  0  0  0  0  0  0  0  0  0
  138.6072   67.5590  223.8805 H   0  0  0  0  0  0  0  0  0  0  0  0
  139.7420   67.0750  226.2060 H   0  0  0  0  0  0  0  0  0  0  0  0
  140.9474   68.5620  228.1815 H   0  0  0  0  0  0  0  0  0  0  0  0
  141.5556   70.9001  228.7897 H   0  0  0  0  0  0  0  0  0  0  0  0
  140.9940   72.7620  227.2376 H   0  0  0  0  0  0  0  0  0  0  0  0
  139.8294   72.3158  225.0989 H   0  0  0  0  0  0  0  0  0  0  0  0
  1  2  2  0
  2  3  2  0
  2  4  1  0
  4  5  1  0
  5  6  2  0
  6  7  1  0
  7  8  2  0
  8  9  1  0
  9 10  2  0
  2 11  1  0
 11 12  1  0
 12 13  2  0
 13 14  1  0
 14 15  2  0
 15 16  1  0
 16 17  2  0
 17 18  1  0
 18 19  2  0
 19 20  1  0
 20 21  1  0
 21 22  2  0
 22 23  1  0
 23 24  1  0
 24 25  2  0
 25 26  1  0
 26 27  2  0
 27 28  1  0
 28 29  2  0
 10  5  1  0
 20 11  1  0
 29 21  1  0
 19 14  1  0
 29 24  1  0
  4 30  1  0
  4 31  1  0
  6 32  1  0
  7 33  1  0
  8 34  1  0
  9 35  1  0
 10 36  1  0
 12 37  1  0
 13 38  1  0
 15 39  1  0
 16 40  1  0
 17 41  1  0
 18 42  1  0
 20 43  1  6
 22 44  1  0
 23 45  1  0
 25 46  1  0
 26 47  1  0
 27 48  1  0
 28 49  1  0
M  END
>  <smiles>  (79) 
O=S(=O)(Cc1ccccc1)N1C=Cc2ccccc2C1c1c[nH]c2ccccc12

>  <score_type>  (79) 
oracle

>  <origin>  (79) 
autodockgpu

>  <m_score__min__energy>  (79) 
-7.8499999999999996

>  <m_primary>  (79) 
energy

>  <rmsd>  (79) 
10.808262512916293

>  <m_score__min__rmsd>  (79) 
10.808262512916293

>  <meeko>  (79) 
{"free_energy": -7.59, "intermolecular_energy": -8.78, "internal_energy": -1.92, "cluster_size": 7, "cluster_id": 2, "rank_in_cluster": 5}

>  <energy>  (79) 
-7.3

>  <cluster_rmsd>  (79) 
0.72

>  <cluster>  (79) 
4

$$$$

     RDKit          3D

 49 53  0  0  1  0  0  0  0  0999 V2000
  139.6280   76.1430  219.3120 O   0  0  0  0  0  0  0  0  0  0  0  0
  140.4830   77.1950  218.6910 S   0  0  0  0  0  0  0  0  0  0  0  0
  139.7240   77.8970  217.6000 O   0  0  0  0  0  0  0  0  0  0  0  0
  141.9010   76.3920  217.9850 C   0  0  0  0  0  0  0  0  0  0  0  0
  142.5310   75.4710  218.9450 C   0  0  0  0  0  0  0  0  0  0  0  0
  143.7290   75.7300  219.5890 C   0  0  0  0  0  0  0  0  0  0  0  0
  144.2550   74.8180  220.4760 C   0  0  0  0  0  0  0  0  0  0  0  0
  143.6050   73.6340  220.7390 C   0  0  0  0  0  0  0  0  0  0  0  0
  142.4160   73.3650  220.1060 C   0  0  0  0  0  0  0  0  0  0  0  0
  141.8910   74.2760  219.2220 C   0  0  0  0  0  0  0  0  0  0  0  0
  141.0010   78.3570  219.8580 N   0  0  0  0  0  0  0  0  0  0  0  0
  141.1280   79.6990  219.4220 C   0  0  0  0  0  0  0  0  0  0  0  0
  141.5070   80.6680  220.2320 C   0  0  0  0  0  0  0  0  0  0  0  0
  141.7990   80.3190  221.6150 C   0  0  0  0  0  0  0  0  0  0  0  0
  142.1890   81.3440  222.4460 C   0  0  0  0  0  0  0  0  0  0  0  0
  142.4830   81.1150  223.7730 C   0  0  0  0  0  0  0  0  0  0  0  0
  142.3650   79.8170  224.2210 C   0  0  0  0  0  0  0  0  0  0  0  0
  141.9670   78.7750  223.3710 C   0  0  0  0  0  0  0  0  0  0  0  0
  141.6730   79.0040  222.0390 C   0  0  0  0  0  0  0  0  0  0  0  0
  141.2670   77.8890  221.1940 C   0  0  1  0  0  0  0  0  0  0  0  0
  140.2330   76.9910  221.7210 C   0  0  0  0  0  0  0  0  0  0  0  0
  140.4540   75.6410  221.9720 C   0  0  0  0  0  0  0  0  0  0  0  0
  139.3260   75.0730  222.4380 N   0  0  0  0  0  0  0  0  0  0  0  0
  138.3710   76.0230  222.5000 C   0  0  0  0  0  0  0  0  0  0  0  0
  137.0480   75.9490  222.9130 C   0  0  0  0  0  0  0  0  0  0  0  0
  136.2720   77.0880  222.8810 C   0  0  0  0  0  0  0  0  0  0  0  0
  136.8270   78.2870  222.4370 C   0  0  0  0  0  0  0  0  0  0  0  0
  138.1430   78.3510  222.0280 C   0  0  0  0  0  0  0  0  0  0  0  0
  138.9160   77.2100  222.0600 C   0  0  0  0  0  0  0  0  0  0  0  0
  141.5853   75.8232  217.0980 H   0  0  0  0  0  0  0  0  0  0  0  0
  142.6359   77.1640  217.7130 H   0  0  0  0  0  0  0  0  0  0  0  0
  144.2639   76.6705  219.3906 H   0  0  0  0  0  0  0  0  0  0  0  0
  145.2070   75.0386  220.9809 H   0  0  0  0  0  0  0  0  0  0  0  0
  144.0330   72.9106  221.4486 H   0  0  0  0  0  0  0  0  0  0  0  0
  141.8856   72.4224  220.3065 H   0  0  0  0  0  0  0  0  0  0  0  0
  140.9378   74.0498  218.7218 H   0  0  0  0  0  0  0  0  0  0  0  0
  140.9029   79.9407  218.3727 H   0  0  0  0  0  0  0  0  0  0  0  0
  141.5994   81.7044  219.8751 H   0  0  0  0  0  0  0  0  0  0  0  0
  142.2676   82.3649  222.0439 H   0  0  0  0  0  0  0  0  0  0  0  0
  142.7968   81.9294  224.4425 H   0  0  0  0  0  0  0  0  0  0  0  0
  142.5892   79.5922  225.2742 H   0  0  0  0  0  0  0  0  0  0  0  0
  141.8869   77.7539  223.7721 H   0  0  0  0  0  0  0  0  0  0  0  0
  142.1328   77.2107  221.1775 H   0  0  0  0  0  0  0  0  0  0  0  0
  141.4076   75.1161  221.8135 H   0  0  0  0  0  0  0  0  0  0  0  0
  139.1620   74.0810  222.7190 H   0  0  0  0  0  0  0  0  0  0  0  0
  136.6247   74.9952  223.2609 H   0  0  0  0  0  0  0  0  0  0  0  0
  135.2211   77.0508  223.2039 H   0  0  0  0  0  0  0  0  0  0  0  0
  136.2068   79.1952  222.4124 H   0  0  0  0  0  0  0  0  0  0  0  0
  138.5711   79.3026  221.6800 H   0  0  0  0  0  0  0  0  0  0  0  0
  1  2  2  0
  2  3  2  0
  2  4  1  0
  4  5  1  0
  5  6  2  0
  6  7  1  0
  7  8  2  0
  8  9  1  0
  9 10  2  0
  2 11  1  0
 11 12  1  0
 12 13  2  0
 13 14  1  0
 14 15  2  0
 15 16  1  0
 16 17  2  0
 17 18  1  0
 18 19  2  0
 19 20  1  0
 20 21  1  0
 21 22  2  0
 22 23  1  0
 23 24  1  0
 24 25  2  0
 25 26  1  0
 26 27  2  0
 27 28  1  0
 28 29  2  0
 10  5  1  0
 20 11  1  0
 29 21  1  0
 19 14  1  0
 29 24  1  0
  4 30  1  0
  4 31  1  0
  6 32  1  0
  7 33  1  0
  8 34  1  0
  9 35  1  0
 10 36  1  0
 12 37  1  0
 13 38  1  0
 15 39  1  0
 16 40  1  0
 17 41  1  0
 18 42  1  0
 20 43  1  6
 22 44  1  0
 23 45  1  0
 25 46  1  0
 26 47  1  0
 27 48  1  0
 28 49  1  0
M  END
>  <smiles>  (80) 
O=S(=O)(Cc1ccccc1)N1C=Cc2ccccc2C1c1c[nH]c2ccccc12

>  <score_type>  (80) 
oracle

>  <origin>  (80) 
autodockgpu

>  <m_score__min__energy>  (80) 
-7.8499999999999996

>  <m_primary>  (80) 
energy

>  <rmsd>  (80) 
4.9862739395814275

>  <m_score__min__rmsd>  (80) 
4.9862739395814275

>  <meeko>  (80) 
{"free_energy": -7.26, "intermolecular_energy": -8.45, "internal_energy": -2.24, "cluster_size": 35, "cluster_id": 4, "rank_in_cluster": 29}

>  <energy>  (80) 
-7.3

>  <cluster_rmsd>  (80) 
0.72

>  <cluster>  (80) 
4

$$$$

     RDKit          3D

 49 53  0  0  1  0  0  0  0  0999 V2000
  138.4170   71.6150  221.9980 O   0  0  0  0  0  0  0  0  0  0  0  0
  139.8180   71.8480  222.4520 S   0  0  0  0  0  0  0  0  0  0  0  0
  140.0750   73.3220  222.5940 O   0  0  0  0  0  0  0  0  0  0  0  0
  140.9050   71.1870  221.2130 C   0  0  0  0  0  0  0  0  0  0  0  0
  142.0410   72.0870  220.9580 C   0  0  0  0  0  0  0  0  0  0  0  0
  141.9050   73.4210  220.6140 C   0  0  0  0  0  0  0  0  0  0  0  0
  143.0180   74.2000  220.3900 C   0  0  0  0  0  0  0  0  0  0  0  0
  144.2830   73.6720  220.5030 C   0  0  0  0  0  0  0  0  0  0  0  0
  144.4310   72.3490  220.8450 C   0  0  0  0  0  0  0  0  0  0  0  0
  143.3210   71.5730  221.0670 C   0  0  0  0  0  0  0  0  0  0  0  0
  140.1280   71.0730  223.9630 N   0  0  0  0  0  0  0  0  0  0  0  0
  140.5360   71.8970  225.0410 C   0  0  0  0  0  0  0  0  0  0  0  0
  140.7910   71.4110  226.2390 C   0  0  0  0  0  0  0  0  0  0  0  0
  140.6400   69.9760  226.4350 C   0  0  0  0  0  0  0  0  0  0  0  0
  140.9060   69.4870  227.6940 C   0  0  0  0  0  0  0  0  0  0  0  0
  140.7870   68.1440  227.9780 C   0  0  0  0  0  0  0  0  0  0  0  0
  140.3910   67.3220  226.9450 C   0  0  0  0  0  0  0  0  0  0  0  0
  140.1210   67.8240  225.6640 C   0  0  0  0  0  0  0  0  0  0  0  0
  140.2400   69.1720  225.3770 C   0  0  0  0  0  0  0  0  0  0  0  0
  139.9510   69.6450  224.0300 C   0  0  1  0  0  0  0  0  0  0  0  0
  138.7100   69.1740  223.4060 C   0  0  0  0  0  0  0  0  0  0  0  0
  138.6710   68.5570  222.1600 C   0  0  0  0  0  0  0  0  0  0  0  0
  137.3990   68.2460  221.8460 N   0  0  0  0  0  0  0  0  0  0  0  0
  136.6040   68.6460  222.8590 C   0  0  0  0  0  0  0  0  0  0  0  0
  135.2290   68.5520  223.0200 C   0  0  0  0  0  0  0  0  0  0  0  0
  134.6550   69.0430  224.1730 C   0  0  0  0  0  0  0  0  0  0  0  0
  135.4620   69.6210  225.1510 C   0  0  0  0  0  0  0  0  0  0  0  0
  136.8280   69.7120  224.9820 C   0  0  0  0  0  0  0  0  0  0  0  0
  137.3990   69.2210  223.8280 C   0  0  0  0  0  0  0  0  0  0  0  0
  141.2889   70.2148  221.5558 H   0  0  0  0  0  0  0  0  0  0  0  0
  140.3361   71.0752  220.2782 H   0  0  0  0  0  0  0  0  0  0  0  0
  140.9015   73.8614  220.5190 H   0  0  0  0  0  0  0  0  0  0  0  0
  142.8939   75.2584  220.1171 H   0  0  0  0  0  0  0  0  0  0  0  0
  145.1666   74.3016  220.3217 H   0  0  0  0  0  0  0  0  0  0  0  0
  145.4365   71.9133  220.9405 H   0  0  0  0  0  0  0  0  0  0  0  0
  143.4523   70.5152  221.3386 H   0  0  0  0  0  0  0  0  0  0  0  0
  140.6435   72.9787  224.8722 H   0  0  0  0  0  0  0  0  0  0  0  0
  141.1073   72.0672  227.0632 H   0  0  0  0  0  0  0  0  0  0  0  0
  141.2193   70.1811  228.4878 H   0  0  0  0  0  0  0  0  0  0  0  0
  140.9981   67.7466  228.9818 H   0  0  0  0  0  0  0  0  0  0  0  0
  140.2839   66.2431  227.1306 H   0  0  0  0  0  0  0  0  0  0  0  0
  139.8076   67.1306  224.8697 H   0  0  0  0  0  0  0  0  0  0  0  0
  140.6964   69.1543  223.3869 H   0  0  0  0  0  0  0  0  0  0  0  0
  139.5471   68.3538  221.5267 H   0  0  0  0  0  0  0  0  0  0  0  0
  137.0350   67.7790  220.9860 H   0  0  0  0  0  0  0  0  0  0  0  0
  134.6060   68.0922  222.2387 H   0  0  0  0  0  0  0  0  0  0  0  0
  133.5668   68.9790  224.3202 H   0  0  0  0  0  0  0  0  0  0  0  0
  135.0029   70.0105  226.0716 H   0  0  0  0  0  0  0  0  0  0  0  0
  137.4549   70.1717  225.7603 H   0  0  0  0  0  0  0  0  0  0  0  0
  1  2  2  0
  2  3  2  0
  2  4  1  0
  4  5  1  0
  5  6  2  0
  6  7  1  0
  7  8  2  0
  8  9  1  0
  9 10  2  0
  2 11  1  0
 11 12  1  0
 12 13  2  0
 13 14  1  0
 14 15  2  0
 15 16  1  0
 16 17  2  0
 17 18  1  0
 18 19  2  0
 19 20  1  0
 20 21  1  0
 21 22  2  0
 22 23  1  0
 23 24  1  0
 24 25  2  0
 25 26  1  0
 26 27  2  0
 27 28  1  0
 28 29  2  0
 10  5  1  0
 20 11  1  0
 29 21  1  0
 19 14  1  0
 29 24  1  0
  4 30  1  0
  4 31  1  0
  6 32  1  0
  7 33  1  0
  8 34  1  0
  9 35  1  0
 10 36  1  0
 12 37  1  0
 13 38  1  0
 15 39  1  0
 16 40  1  0
 17 41  1  0
 18 42  1  0
 20 43  1  6
 22 44  1  0
 23 45  1  0
 25 46  1  0
 26 47  1  0
 27 48  1  0
 28 49  1  0
M  END
>  <smiles>  (81) 
O=S(=O)(Cc1ccccc1)N1C=Cc2ccccc2C1c1c[nH]c2ccccc12

>  <score_type>  (81) 
oracle

>  <origin>  (81) 
autodockgpu

>  <m_score__min__energy>  (81) 
-7.8499999999999996

>  <m_primary>  (81) 
energy

>  <rmsd>  (81) 
11.551774378071633

>  <m_score__min__rmsd>  (81) 
11.551774378071633

>  <meeko>  (81) 
{"free_energy": -7.81, "intermolecular_energy": -9.0, "internal_energy": -1.75, "cluster_size": 5, "cluster_id": 1, "rank_in_cluster": 4}

>  <energy>  (81) 
-7.3

>  <cluster_rmsd>  (81) 
0.71

>  <cluster>  (81) 
4

$$$$

     RDKit          3D

 49 53  0  0  1  0  0  0  0  0999 V2000
  139.6620   76.0710  219.3170 O   0  0  0  0  0  0  0  0  0  0  0  0
  140.5270   77.1140  218.6950 S   0  0  0  0  0  0  0  0  0  0  0  0
  139.7820   77.8060  217.5870 O   0  0  0  0  0  0  0  0  0  0  0  0
  141.9510   76.3000  218.0150 C   0  0  0  0  0  0  0  0  0  0  0  0
  142.5520   75.3700  218.9850 C   0  0  0  0  0  0  0  0  0  0  0  0
  141.9690   74.1750  219.3700 C   0  0  0  0  0  0  0  0  0  0  0  0
  142.5950   73.3570  220.2850 C   0  0  0  0  0  0  0  0  0  0  0  0
  143.8060   73.7090  220.8320 C   0  0  0  0  0  0  0  0  0  0  0  0
  144.3950   74.8920  220.4570 C   0  0  0  0  0  0  0  0  0  0  0  0
  143.7720   75.7070  219.5460 C   0  0  0  0  0  0  0  0  0  0  0  0
  141.0330   78.2880  219.8550 N   0  0  0  0  0  0  0  0  0  0  0  0
  141.1740   79.6230  219.4040 C   0  0  0  0  0  0  0  0  0  0  0  0
  141.5460   80.6000  220.2070 C   0  0  0  0  0  0  0  0  0  0  0  0
  141.8150   80.2680  221.5990 C   0  0  0  0  0  0  0  0  0  0  0  0
  142.1980   81.3010  222.4230 C   0  0  0  0  0  0  0  0  0  0  0  0
  142.4720   81.0870  223.7570 C   0  0  0  0  0  0  0  0  0  0  0  0
  142.3410   79.7950  224.2190 C   0  0  0  0  0  0  0  0  0  0  0  0
  141.9500   78.7450  223.3760 C   0  0  0  0  0  0  0  0  0  0  0  0
  141.6760   78.9580  222.0370 C   0  0  0  0  0  0  0  0  0  0  0  0
  141.2770   77.8350  221.2000 C   0  0  1  0  0  0  0  0  0  0  0  0
  140.2310   76.9480  221.7230 C   0  0  0  0  0  0  0  0  0  0  0  0
  140.4390   75.5980  221.9830 C   0  0  0  0  0  0  0  0  0  0  0  0
  139.3020   75.0430  222.4430 N   0  0  0  0  0  0  0  0  0  0  0  0
  138.3540   76.0010  222.4910 C   0  0  0  0  0  0  0  0  0  0  0  0
  137.0270   75.9400  222.8930 C   0  0  0  0  0  0  0  0  0  0  0  0
  136.2610   77.0860  222.8480 C   0  0  0  0  0  0  0  0  0  0  0  0
  136.8300   78.2770  222.4030 C   0  0  0  0  0  0  0  0  0  0  0  0
  138.1500   78.3280  222.0040 C   0  0  0  0  0  0  0  0  0  0  0  0
  138.9130   77.1810  222.0490 C   0  0  0  0  0  0  0  0  0  0  0  0
  141.6481   75.7371  217.1198 H   0  0  0  0  0  0  0  0  0  0  0  0
  142.6987   77.0655  217.7601 H   0  0  0  0  0  0  0  0  0  0  0  0
  141.0002   73.8767  218.9429 H   0  0  0  0  0  0  0  0  0  0  0  0
  142.1198   72.4103  220.5816 H   0  0  0  0  0  0  0  0  0  0  0  0
  144.2983   73.0502  221.5625 H   0  0  0  0  0  0  0  0  0  0  0  0
  145.3644   75.1853  220.8863 H   0  0  0  0  0  0  0  0  0  0  0  0
  144.2539   76.6518  219.2541 H   0  0  0  0  0  0  0  0  0  0  0  0
  140.9662   79.8523  218.3484 H   0  0  0  0  0  0  0  0  0  0  0  0
  141.6497   81.6311  219.8380 H   0  0  0  0  0  0  0  0  0  0  0  0
  142.2872   82.3165  222.0097 H   0  0  0  0  0  0  0  0  0  0  0  0
  142.7804   81.9080  224.4210 H   0  0  0  0  0  0  0  0  0  0  0  0
  142.5489   79.5818  225.2779 H   0  0  0  0  0  0  0  0  0  0  0  0
  141.8591   77.7294  223.7886 H   0  0  0  0  0  0  0  0  0  0  0  0
  142.1395   77.1523  221.2042 H   0  0  0  0  0  0  0  0  0  0  0  0
  141.3893   75.0640  221.8351 H   0  0  0  0  0  0  0  0  0  0  0  0
  139.1270   74.0540  222.7270 H   0  0  0  0  0  0  0  0  0  0  0  0
  136.5926   74.9917  223.2423 H   0  0  0  0  0  0  0  0  0  0  0  0
  135.2070   77.0597  223.1617 H   0  0  0  0  0  0  0  0  0  0  0  0
  136.2180   79.1904  222.3691 H   0  0  0  0  0  0  0  0  0  0  0  0
  138.5886   79.2740  221.6537 H   0  0  0  0  0  0  0  0  0  0  0  0
  1  2  2  0
  2  3  2  0
  2  4  1  0
  4  5  1  0
  5  6  2  0
  6  7  1  0
  7  8  2  0
  8  9  1  0
  9 10  2  0
  2 11  1  0
 11 12  1  0
 12 13  2  0
 13 14  1  0
 14 15  2  0
 15 16  1  0
 16 17  2  0
 17 18  1  0
 18 19  2  0
 19 20  1  0
 20 21  1  0
 21 22  2  0
 22 23  1  0
 23 24  1  0
 24 25  2  0
 25 26  1  0
 26 27  2  0
 27 28  1  0
 28 29  2  0
 10  5  1  0
 20 11  1  0
 29 21  1  0
 19 14  1  0
 29 24  1  0
  4 30  1  0
  4 31  1  0
  6 32  1  0
  7 33  1  0
  8 34  1  0
  9 35  1  0
 10 36  1  0
 12 37  1  0
 13 38  1  0
 15 39  1  0
 16 40  1  0
 17 41  1  0
 18 42  1  0
 20 43  1  6
 22 44  1  0
 23 45  1  0
 25 46  1  0
 26 47  1  0
 27 48  1  0
 28 49  1  0
M  END
>  <smiles>  (82) 
O=S(=O)(Cc1ccccc1)N1C=Cc2ccccc2C1c1c[nH]c2ccccc12

>  <score_type>  (82) 
oracle

>  <origin>  (82) 
autodockgpu

>  <m_score__min__energy>  (82) 
-7.8499999999999996

>  <m_primary>  (82) 
energy

>  <rmsd>  (82) 
4.99957031388369

>  <m_score__min__rmsd>  (82) 
4.99957031388369

>  <meeko>  (82) 
{"free_energy": -7.3, "intermolecular_energy": -8.5, "internal_energy": -2.23, "cluster_size": 35, "cluster_id": 4, "rank_in_cluster": 13}

>  <energy>  (82) 
-7.29

>  <cluster_rmsd>  (82) 
0.7

>  <cluster>  (82) 
4

$$$$

     RDKit          3D

 49 53  0  0  1  0  0  0  0  0999 V2000
  138.5160   71.8500  221.7150 O   0  0  0  0  0  0  0  0  0  0  0  0
  139.9080   71.9970  222.2280 S   0  0  0  0  0  0  0  0  0  0  0  0
  140.2310   73.4520  222.4280 O   0  0  0  0  0  0  0  0  0  0  0  0
  141.0080   71.3220  221.0090 C   0  0  0  0  0  0  0  0  0  0  0  0
  142.1860   72.1820  220.8120 C   0  0  0  0  0  0  0  0  0  0  0  0
  143.4860   71.7760  221.0590 C   0  0  0  0  0  0  0  0  0  0  0  0
  144.5380   72.6400  220.8510 C   0  0  0  0  0  0  0  0  0  0  0  0
  144.3190   73.9200  220.3950 C   0  0  0  0  0  0  0  0  0  0  0  0
  143.0330   74.3340  220.1460 C   0  0  0  0  0  0  0  0  0  0  0  0
  141.9860   73.4720  220.3540 C   0  0  0  0  0  0  0  0  0  0  0  0
  140.1210   71.1610  223.7230 N   0  0  0  0  0  0  0  0  0  0  0  0
  140.6960   71.8870  224.7950 C   0  0  0  0  0  0  0  0  0  0  0  0
  140.8950   71.3490  225.9810 C   0  0  0  0  0  0  0  0  0  0  0  0
  140.5020   69.9600  226.1700 C   0  0  0  0  0  0  0  0  0  0  0  0
  140.7140   69.4160  227.4160 C   0  0  0  0  0  0  0  0  0  0  0  0
  140.3710   68.1100  227.6940 C   0  0  0  0  0  0  0  0  0  0  0  0
  139.8090   67.3840  226.6670 C   0  0  0  0  0  0  0  0  0  0  0  0
  139.5940   67.9410  225.3980 C   0  0  0  0  0  0  0  0  0  0  0  0
  139.9380   69.2510  225.1180 C   0  0  0  0  0  0  0  0  0  0  0  0
  139.6990   69.7850  223.7840 C   0  0  1  0  0  0  0  0  0  0  0  0
  138.3780   69.5460  223.1930 C   0  0  0  0  0  0  0  0  0  0  0  0
  138.1390   68.5690  222.2330 C   0  0  0  0  0  0  0  0  0  0  0  0
  136.8420   68.5910  221.8740 N   0  0  0  0  0  0  0  0  0  0  0  0
  136.2250   69.5600  222.5800 C   0  0  0  0  0  0  0  0  0  0  0  0
  134.9010   69.9760  222.5780 C   0  0  0  0  0  0  0  0  0  0  0  0
  134.5220   71.0060  223.4140 C   0  0  0  0  0  0  0  0  0  0  0  0
  135.4700   71.6050  224.2400 C   0  0  0  0  0  0  0  0  0  0  0  0
  136.7840   71.1860  224.2340 C   0  0  0  0  0  0  0  0  0  0  0  0
  137.1600   70.1580  223.3970 C   0  0  0  0  0  0  0  0  0  0  0  0
  141.3424   70.3278  221.3404 H   0  0  0  0  0  0  0  0  0  0  0  0
  140.4660   71.2541  220.0542 H   0  0  0  0  0  0  0  0  0  0  0  0
  143.6801   70.7566  221.4238 H   0  0  0  0  0  0  0  0  0  0  0  0
  145.5657   72.3031  221.0517 H   0  0  0  0  0  0  0  0  0  0  0  0
  145.1647   74.6042  220.2317 H   0  0  0  0  0  0  0  0  0  0  0  0
  142.8431   75.3541  219.7807 H   0  0  0  0  0  0  0  0  0  0  0  0
  140.9609   73.8156  220.1513 H   0  0  0  0  0  0  0  0  0  0  0  0
  140.9861   72.9354  224.6316 H   0  0  0  0  0  0  0  0  0  0  0  0
  141.3430   71.9297  226.8008 H   0  0  0  0  0  0  0  0  0  0  0  0
  141.1657   70.0349  228.2052 H   0  0  0  0  0  0  0  0  0  0  0  0
  140.5380   67.6690  228.6878 H   0  0  0  0  0  0  0  0  0  0  0  0
  139.5207   66.3379  226.8474 H   0  0  0  0  0  0  0  0  0  0  0  0
  139.1420   67.3227  224.6084 H   0  0  0  0  0  0  0  0  0  0  0  0
  140.3293   69.1802  223.1154 H   0  0  0  0  0  0  0  0  0  0  0  0
  138.8961   67.8815  221.8278 H   0  0  0  0  0  0  0  0  0  0  0  0
  136.3460   67.9890  221.1790 H   0  0  0  0  0  0  0  0  0  0  0  0
  134.1647   69.4917  221.9197 H   0  0  0  0  0  0  0  0  0  0  0  0
  133.4779   71.3519  223.4281 H   0  0  0  0  0  0  0  0  0  0  0  0
  135.1661   72.4249  224.9074 H   0  0  0  0  0  0  0  0  0  0  0  0
  137.5239   71.6673  224.8904 H   0  0  0  0  0  0  0  0  0  0  0  0
  1  2  2  0
  2  3  2  0
  2  4  1  0
  4  5  1  0
  5  6  2  0
  6  7  1  0
  7  8  2  0
  8  9  1  0
  9 10  2  0
  2 11  1  0
 11 12  1  0
 12 13  2  0
 13 14  1  0
 14 15  2  0
 15 16  1  0
 16 17  2  0
 17 18  1  0
 18 19  2  0
 19 20  1  0
 20 21  1  0
 21 22  2  0
 22 23  1  0
 23 24  1  0
 24 25  2  0
 25 26  1  0
 26 27  2  0
 27 28  1  0
 28 29  2  0
 10  5  1  0
 20 11  1  0
 29 21  1  0
 19 14  1  0
 29 24  1  0
  4 30  1  0
  4 31  1  0
  6 32  1  0
  7 33  1  0
  8 34  1  0
  9 35  1  0
 10 36  1  0
 12 37  1  0
 13 38  1  0
 15 39  1  0
 16 40  1  0
 17 41  1  0
 18 42  1  0
 20 43  1  6
 22 44  1  0
 23 45  1  0
 25 46  1  0
 26 47  1  0
 27 48  1  0
 28 49  1  0
M  END
>  <smiles>  (83) 
O=S(=O)(Cc1ccccc1)N1C=Cc2ccccc2C1c1c[nH]c2ccccc12

>  <score_type>  (83) 
oracle

>  <origin>  (83) 
autodockgpu

>  <m_score__min__energy>  (83) 
-7.8499999999999996

>  <m_primary>  (83) 
energy

>  <rmsd>  (83) 
10.966922432252016

>  <m_score__min__rmsd>  (83) 
10.966922432252016

>  <meeko>  (83) 
{"free_energy": -7.68, "intermolecular_energy": -8.88, "internal_energy": -1.64, "cluster_size": 5, "cluster_id": 1, "rank_in_cluster": 5}

>  <energy>  (83) 
-7.29

>  <cluster_rmsd>  (83) 
0.72

>  <cluster>  (83) 
4

$$$$

     RDKit          3D

 49 53  0  0  1  0  0  0  0  0999 V2000
  139.9790   75.9010  219.2920 O   0  0  0  0  0  0  0  0  0  0  0  0
  140.8250   76.9630  218.6760 S   0  0  0  0  0  0  0  0  0  0  0  0
  140.0950   77.5980  217.5260 O   0  0  0  0  0  0  0  0  0  0  0  0
  142.3040   76.1910  218.0690 C   0  0  0  0  0  0  0  0  0  0  0  0
  142.8020   75.1710  219.0060 C   0  0  0  0  0  0  0  0  0  0  0  0
  142.1700   73.9620  219.2370 C   0  0  0  0  0  0  0  0  0  0  0  0
  142.6990   73.0580  220.1310 C   0  0  0  0  0  0  0  0  0  0  0  0
  143.8610   73.3370  220.8120 C   0  0  0  0  0  0  0  0  0  0  0  0
  144.4980   74.5340  220.5920 C   0  0  0  0  0  0  0  0  0  0  0  0
  143.9710   75.4350  219.7000 C   0  0  0  0  0  0  0  0  0  0  0  0
  141.2410   78.1830  219.8240 N   0  0  0  0  0  0  0  0  0  0  0  0
  141.3940   79.5040  219.3360 C   0  0  0  0  0  0  0  0  0  0  0  0
  141.7020   80.5130  220.1270 C   0  0  0  0  0  0  0  0  0  0  0  0
  141.8850   80.2330  221.5430 C   0  0  0  0  0  0  0  0  0  0  0  0
  142.2020   81.2990  222.3540 C   0  0  0  0  0  0  0  0  0  0  0  0
  142.3910   81.1350  223.7090 C   0  0  0  0  0  0  0  0  0  0  0  0
  142.2470   79.8580  224.2070 C   0  0  0  0  0  0  0  0  0  0  0  0
  141.9230   78.7740  223.3780 C   0  0  0  0  0  0  0  0  0  0  0  0
  141.7340   78.9370  222.0180 C   0  0  0  0  0  0  0  0  0  0  0  0
  141.4030   77.7800  221.1980 C   0  0  1  0  0  0  0  0  0  0  0  0
  140.3360   76.8970  221.6830 C   0  0  0  0  0  0  0  0  0  0  0  0
  140.5320   75.5480  221.9580 C   0  0  0  0  0  0  0  0  0  0  0  0
  139.3770   74.9970  222.3750 N   0  0  0  0  0  0  0  0  0  0  0  0
  138.4290   75.9560  222.3810 C   0  0  0  0  0  0  0  0  0  0  0  0
  137.0870   75.8990  222.7310 C   0  0  0  0  0  0  0  0  0  0  0  0
  136.3250   77.0450  222.6510 C   0  0  0  0  0  0  0  0  0  0  0  0
  136.9130   78.2330  222.2220 C   0  0  0  0  0  0  0  0  0  0  0  0
  138.2470   78.2810  221.8760 C   0  0  0  0  0  0  0  0  0  0  0  0
  139.0060   77.1330  221.9560 C   0  0  0  0  0  0  0  0  0  0  0  0
  142.0872   75.7132  217.1022 H   0  0  0  0  0  0  0  0  0  0  0  0
  143.0774   76.9652  217.9576 H   0  0  0  0  0  0  0  0  0  0  0  0
  141.2389   73.7214  218.7030 H   0  0  0  0  0  0  0  0  0  0  0  0
  142.1857   72.1004  220.3027 H   0  0  0  0  0  0  0  0  0  0  0  0
  144.2757   72.6094  221.5252 H   0  0  0  0  0  0  0  0  0  0  0  0
  145.4283   74.7702  221.1293 H   0  0  0  0  0  0  0  0  0  0  0  0
  144.4902   76.3902  219.5325 H   0  0  0  0  0  0  0  0  0  0  0  0
  141.2512   79.6943  218.2620 H   0  0  0  0  0  0  0  0  0  0  0  0
  141.8167   81.5323  219.7297 H   0  0  0  0  0  0  0  0  0  0  0  0
  142.3064   82.3009  221.9120 H   0  0  0  0  0  0  0  0  0  0  0  0
  142.6448   81.9829  224.3622 H   0  0  0  0  0  0  0  0  0  0  0  0
  142.3900   79.6842  225.2837 H   0  0  0  0  0  0  0  0  0  0  0  0
  141.8169   77.7721  223.8195 H   0  0  0  0  0  0  0  0  0  0  0  0
  142.2713   77.1100  221.2829 H   0  0  0  0  0  0  0  0  0  0  0  0
  141.4867   75.0122  221.8509 H   0  0  0  0  0  0  0  0  0  0  0  0
  139.1890   74.0090  222.6580 H   0  0  0  0  0  0  0  0  0  0  0  0
  136.6379   74.9529  223.0674 H   0  0  0  0  0  0  0  0  0  0  0  0
  135.2597   77.0216  222.9241 H   0  0  0  0  0  0  0  0  0  0  0  0
  136.3038   79.1467  222.1583 H   0  0  0  0  0  0  0  0  0  0  0  0
  138.7006   79.2251  221.5398 H   0  0  0  0  0  0  0  0  0  0  0  0
  1  2  2  0
  2  3  2  0
  2  4  1  0
  4  5  1  0
  5  6  2  0
  6  7  1  0
  7  8  2  0
  8  9  1  0
  9 10  2  0
  2 11  1  0
 11 12  1  0
 12 13  2  0
 13 14  1  0
 14 15  2  0
 15 16  1  0
 16 17  2  0
 17 18  1  0
 18 19  2  0
 19 20  1  0
 20 21  1  0
 21 22  2  0
 22 23  1  0
 23 24  1  0
 24 25  2  0
 25 26  1  0
 26 27  2  0
 27 28  1  0
 28 29  2  0
 10  5  1  0
 20 11  1  0
 29 21  1  0
 19 14  1  0
 29 24  1  0
  4 30  1  0
  4 31  1  0
  6 32  1  0
  7 33  1  0
  8 34  1  0
  9 35  1  0
 10 36  1  0
 12 37  1  0
 13 38  1  0
 15 39  1  0
 16 40  1  0
 17 41  1  0
 18 42  1  0
 20 43  1  6
 22 44  1  0
 23 45  1  0
 25 46  1  0
 26 47  1  0
 27 48  1  0
 28 49  1  0
M  END
>  <smiles>  (84) 
O=S(=O)(Cc1ccccc1)N1C=Cc2ccccc2C1c1c[nH]c2ccccc12

>  <score_type>  (84) 
oracle

>  <origin>  (84) 
autodockgpu

>  <m_score__min__energy>  (84) 
-7.8499999999999996

>  <m_primary>  (84) 
energy

>  <rmsd>  (84) 
4.950807286988005

>  <m_score__min__rmsd>  (84) 
4.950807286988005

>  <meeko>  (84) 
{"free_energy": -7.41, "intermolecular_energy": -8.6, "internal_energy": -2.09, "cluster_size": 35, "cluster_id": 4, "rank_in_cluster": 4}

>  <energy>  (84) 
-7.29

>  <cluster_rmsd>  (84) 
0.73

>  <cluster>  (84) 
4

$$$$

     RDKit          3D

 49 53  0  0  1  0  0  0  0  0999 V2000
  138.3810   71.7080  221.9720 O   0  0  0  0  0  0  0  0  0  0  0  0
  139.7840   71.9000  222.4400 S   0  0  0  0  0  0  0  0  0  0  0  0
  140.0700   73.3640  222.6180 O   0  0  0  0  0  0  0  0  0  0  0  0
  140.8640   71.2450  221.1920 C   0  0  0  0  0  0  0  0  0  0  0  0
  141.9960   72.1480  220.9330 C   0  0  0  0  0  0  0  0  0  0  0  0
  141.8540   73.4770  220.5720 C   0  0  0  0  0  0  0  0  0  0  0  0
  142.9640   74.2610  220.3460 C   0  0  0  0  0  0  0  0  0  0  0  0
  144.2310   73.7410  220.4710 C   0  0  0  0  0  0  0  0  0  0  0  0
  144.3850   72.4230  220.8290 C   0  0  0  0  0  0  0  0  0  0  0  0
  143.2790   71.6430  221.0550 C   0  0  0  0  0  0  0  0  0  0  0  0
  140.0670   71.0830  223.9340 N   0  0  0  0  0  0  0  0  0  0  0  0
  140.5240   71.8660  225.0220 C   0  0  0  0  0  0  0  0  0  0  0  0
  140.7640   71.3460  226.2100 C   0  0  0  0  0  0  0  0  0  0  0  0
  140.5430   69.9170  226.3810 C   0  0  0  0  0  0  0  0  0  0  0  0
  140.7940   69.3930  227.6290 C   0  0  0  0  0  0  0  0  0  0  0  0
  140.6110   68.0520  227.8900 C   0  0  0  0  0  0  0  0  0  0  0  0
  140.1660   67.2710  226.8470 C   0  0  0  0  0  0  0  0  0  0  0  0
  139.9100   67.8080  225.5770 C   0  0  0  0  0  0  0  0  0  0  0  0
  140.0940   69.1530  225.3130 C   0  0  0  0  0  0  0  0  0  0  0  0
  139.8190   69.6640  223.9770 C   0  0  1  0  0  0  0  0  0  0  0  0
  138.5500   69.2680  223.3560 C   0  0  0  0  0  0  0  0  0  0  0  0
  138.4680   68.7000  222.0890 C   0  0  0  0  0  0  0  0  0  0  0  0
  137.1810   68.4530  221.7840 N   0  0  0  0  0  0  0  0  0  0  0  0
  136.4180   68.8450  222.8240 C   0  0  0  0  0  0  0  0  0  0  0  0
  135.0420   68.8000  223.0030 C   0  0  0  0  0  0  0  0  0  0  0  0
  134.5050   69.2700  224.1840 C   0  0  0  0  0  0  0  0  0  0  0  0
  135.3490   69.7780  225.1690 C   0  0  0  0  0  0  0  0  0  0  0  0
  136.7150   69.8200  224.9810 C   0  0  0  0  0  0  0  0  0  0  0  0
  137.2490   69.3510  223.8000 C   0  0  0  0  0  0  0  0  0  0  0  0
  141.2520   70.2725  221.5292 H   0  0  0  0  0  0  0  0  0  0  0  0
  140.2894   71.1347  220.2605 H   0  0  0  0  0  0  0  0  0  0  0  0
  140.8484   73.9097  220.4650 H   0  0  0  0  0  0  0  0  0  0  0  0
  142.8353   75.3159  220.0621 H   0  0  0  0  0  0  0  0  0  0  0  0
  145.1120   74.3733  220.2864 H   0  0  0  0  0  0  0  0  0  0  0  0
  145.3926   71.9944  220.9341 H   0  0  0  0  0  0  0  0  0  0  0  0
  143.4154   70.5895  221.3404 H   0  0  0  0  0  0  0  0  0  0  0  0
  140.6841   72.9438  224.8712 H   0  0  0  0  0  0  0  0  0  0  0  0
  141.1190   71.9704  227.0431 H   0  0  0  0  0  0  0  0  0  0  0  0
  141.1470   70.0564  228.4323 H   0  0  0  0  0  0  0  0  0  0  0  0
  140.8109   67.6260  228.8843 H   0  0  0  0  0  0  0  0  0  0  0  0
  140.0068   66.1956  227.0146 H   0  0  0  0  0  0  0  0  0  0  0  0
  139.5553   67.1453  224.7738 H   0  0  0  0  0  0  0  0  0  0  0  0
  140.5336   69.1480  223.3189 H   0  0  0  0  0  0  0  0  0  0  0  0
  139.3259   68.4851  221.4350 H   0  0  0  0  0  0  0  0  0  0  0  0
  136.7850   68.0340  220.9130 H   0  0  0  0  0  0  0  0  0  0  0  0
  134.3896   68.3957  222.2151 H   0  0  0  0  0  0  0  0  0  0  0  0
  133.4174   69.2437  224.3467 H   0  0  0  0  0  0  0  0  0  0  0  0
  134.9199   70.1512  226.1106 H   0  0  0  0  0  0  0  0  0  0  0  0
  137.3715   70.2238  225.7658 H   0  0  0  0  0  0  0  0  0  0  0  0
  1  2  2  0
  2  3  2  0
  2  4  1  0
  4  5  1  0
  5  6  2  0
  6  7  1  0
  7  8  2  0
  8  9  1  0
  9 10  2  0
  2 11  1  0
 11 12  1  0
 12 13  2  0
 13 14  1  0
 14 15  2  0
 15 16  1  0
 16 17  2  0
 17 18  1  0
 18 19  2  0
 19 20  1  0
 20 21  1  0
 21 22  2  0
 22 23  1  0
 23 24  1  0
 24 25  2  0
 25 26  1  0
 26 27  2  0
 27 28  1  0
 28 29  2  0
 10  5  1  0
 20 11  1  0
 29 21  1  0
 19 14  1  0
 29 24  1  0
  4 30  1  0
  4 31  1  0
  6 32  1  0
  7 33  1  0
  8 34  1  0
  9 35  1  0
 10 36  1  0
 12 37  1  0
 13 38  1  0
 15 39  1  0
 16 40  1  0
 17 41  1  0
 18 42  1  0
 20 43  1  6
 22 44  1  0
 23 45  1  0
 25 46  1  0
 26 47  1  0
 27 48  1  0
 28 49  1  0
M  END
>  <smiles>  (85) 
O=S(=O)(Cc1ccccc1)N1C=Cc2ccccc2C1c1c[nH]c2ccccc12

>  <score_type>  (85) 
oracle

>  <origin>  (85) 
autodockgpu

>  <m_score__min__energy>  (85) 
-7.8499999999999996

>  <m_primary>  (85) 
energy

>  <rmsd>  (85) 
11.507679842324078

>  <m_score__min__rmsd>  (85) 
11.507679842324078

>  <meeko>  (85) 
{"free_energy": -7.82, "intermolecular_energy": -9.02, "internal_energy": -1.74, "cluster_size": 5, "cluster_id": 1, "rank_in_cluster": 2}

>  <energy>  (85) 
-7.29

>  <cluster_rmsd>  (85) 
0.72

>  <cluster>  (85) 
4

$$$$

     RDKit          3D

 49 53  0  0  1  0  0  0  0  0999 V2000
  139.6160   76.1850  219.2910 O   0  0  0  0  0  0  0  0  0  0  0  0
  140.4910   77.2250  218.6770 S   0  0  0  0  0  0  0  0  0  0  0  0
  139.7530   77.9320  217.5740 O   0  0  0  0  0  0  0  0  0  0  0  0
  141.9090   76.4040  217.9930 C   0  0  0  0  0  0  0  0  0  0  0  0
  142.4810   75.4370  218.9440 C   0  0  0  0  0  0  0  0  0  0  0  0
  141.8700   74.2460  219.2930 C   0  0  0  0  0  0  0  0  0  0  0  0
  142.4700   73.3920  220.1920 C   0  0  0  0  0  0  0  0  0  0  0  0
  143.6830   73.7040  220.7600 C   0  0  0  0  0  0  0  0  0  0  0  0
  144.2990   74.8850  220.4210 C   0  0  0  0  0  0  0  0  0  0  0  0
  143.7020   75.7350  219.5250 C   0  0  0  0  0  0  0  0  0  0  0  0
  141.0060   78.3860  219.8460 N   0  0  0  0  0  0  0  0  0  0  0  0
  141.1390   79.7270  219.4110 C   0  0  0  0  0  0  0  0  0  0  0  0
  141.5170   80.6950  220.2220 C   0  0  0  0  0  0  0  0  0  0  0  0
  141.8020   80.3460  221.6070 C   0  0  0  0  0  0  0  0  0  0  0  0
  142.1900   81.3700  222.4400 C   0  0  0  0  0  0  0  0  0  0  0  0
  142.4780   81.1400  223.7680 C   0  0  0  0  0  0  0  0  0  0  0  0
  142.3550   79.8420  224.2150 C   0  0  0  0  0  0  0  0  0  0  0  0
  141.9580   78.8020  223.3630 C   0  0  0  0  0  0  0  0  0  0  0  0
  141.6700   79.0300  222.0300 C   0  0  0  0  0  0  0  0  0  0  0  0
  141.2650   77.9170  221.1840 C   0  0  1  0  0  0  0  0  0  0  0  0
  140.2270   77.0210  221.7060 C   0  0  0  0  0  0  0  0  0  0  0  0
  140.4470   75.6740  221.9710 C   0  0  0  0  0  0  0  0  0  0  0  0
  139.3150   75.1080  222.4290 N   0  0  0  0  0  0  0  0  0  0  0  0
  138.3570   76.0570  222.4710 C   0  0  0  0  0  0  0  0  0  0  0  0
  137.0300   75.9840  222.8700 C   0  0  0  0  0  0  0  0  0  0  0  0
  136.2520   77.1220  222.8190 C   0  0  0  0  0  0  0  0  0  0  0  0
  136.8110   78.3170  222.3720 C   0  0  0  0  0  0  0  0  0  0  0  0
  138.1310   78.3800  221.9770 C   0  0  0  0  0  0  0  0  0  0  0  0
  138.9050   77.2410  222.0270 C   0  0  0  0  0  0  0  0  0  0  0  0
  141.6077   75.8714  217.0789 H   0  0  0  0  0  0  0  0  0  0  0  0
  142.6734   77.1626  217.7691 H   0  0  0  0  0  0  0  0  0  0  0  0
  140.8991   73.9793  218.8499 H   0  0  0  0  0  0  0  0  0  0  0  0
  141.9724   72.4481  220.4591 H   0  0  0  0  0  0  0  0  0  0  0  0
  144.1548   73.0163  221.4773 H   0  0  0  0  0  0  0  0  0  0  0  0
  145.2692   75.1482  220.8675 H   0  0  0  0  0  0  0  0  0  0  0  0
  144.2058   76.6767  219.2615 H   0  0  0  0  0  0  0  0  0  0  0  0
  140.9195   79.9691  218.3607 H   0  0  0  0  0  0  0  0  0  0  0  0
  141.6139   81.7309  219.8649 H   0  0  0  0  0  0  0  0  0  0  0  0
  142.2718   82.3909  222.0387 H   0  0  0  0  0  0  0  0  0  0  0  0
  142.7910   81.9534  224.4391 H   0  0  0  0  0  0  0  0  0  0  0  0
  142.5743   79.6160  225.2690 H   0  0  0  0  0  0  0  0  0  0  0  0
  141.8737   77.7812  223.7641 H   0  0  0  0  0  0  0  0  0  0  0  0
  142.1292   77.2366  221.1717 H   0  0  0  0  0  0  0  0  0  0  0  0
  141.4032   75.1494  221.8278 H   0  0  0  0  0  0  0  0  0  0  0  0
  139.1490   74.1190  222.7160 H   0  0  0  0  0  0  0  0  0  0  0  0
  136.6046   75.0325  223.2218 H   0  0  0  0  0  0  0  0  0  0  0  0
  135.1973   77.0860  223.1292 H   0  0  0  0  0  0  0  0  0  0  0  0
  136.1902   79.2243  222.3334 H   0  0  0  0  0  0  0  0  0  0  0  0
  138.5613   79.3294  221.6258 H   0  0  0  0  0  0  0  0  0  0  0  0
  1  2  2  0
  2  3  2  0
  2  4  1  0
  4  5  1  0
  5  6  2  0
  6  7  1  0
  7  8  2  0
  8  9  1  0
  9 10  2  0
  2 11  1  0
 11 12  1  0
 12 13  2  0
 13 14  1  0
 14 15  2  0
 15 16  1  0
 16 17  2  0
 17 18  1  0
 18 19  2  0
 19 20  1  0
 20 21  1  0
 21 22  2  0
 22 23  1  0
 23 24  1  0
 24 25  2  0
 25 26  1  0
 26 27  2  0
 27 28  1  0
 28 29  2  0
 10  5  1  0
 20 11  1  0
 29 21  1  0
 19 14  1  0
 29 24  1  0
  4 30  1  0
  4 31  1  0
  6 32  1  0
  7 33  1  0
  8 34  1  0
  9 35  1  0
 10 36  1  0
 12 37  1  0
 13 38  1  0
 15 39  1  0
 16 40  1  0
 17 41  1  0
 18 42  1  0
 20 43  1  6
 22 44  1  0
 23 45  1  0
 25 46  1  0
 26 47  1  0
 27 48  1  0
 28 49  1  0
M  END
>  <smiles>  (86) 
O=S(=O)(Cc1ccccc1)N1C=Cc2ccccc2C1c1c[nH]c2ccccc12

>  <score_type>  (86) 
oracle

>  <origin>  (86) 
autodockgpu

>  <m_score__min__energy>  (86) 
-7.8499999999999996

>  <m_primary>  (86) 
energy

>  <rmsd>  (86) 
4.9646154353697085

>  <m_score__min__rmsd>  (86) 
4.9646154353697085

>  <meeko>  (86) 
{"free_energy": -7.29, "intermolecular_energy": -8.48, "internal_energy": -2.25, "cluster_size": 35, "cluster_id": 4, "rank_in_cluster": 23}

>  <energy>  (86) 
-7.29

>  <cluster_rmsd>  (86) 
0.73

>  <cluster>  (86) 
4

$$$$

     RDKit          3D

 49 53  0  0  1  0  0  0  0  0999 V2000
  139.6540   76.1750  219.3240 O   0  0  0  0  0  0  0  0  0  0  0  0
  140.5020   77.2290  218.6970 S   0  0  0  0  0  0  0  0  0  0  0  0
  139.7350   77.9260  217.6080 O   0  0  0  0  0  0  0  0  0  0  0  0
  141.9210   76.4310  217.9880 C   0  0  0  0  0  0  0  0  0  0  0  0
  142.5500   75.5060  218.9430 C   0  0  0  0  0  0  0  0  0  0  0  0
  143.7490   75.7610  219.5880 C   0  0  0  0  0  0  0  0  0  0  0  0
  144.2750   74.8440  220.4700 C   0  0  0  0  0  0  0  0  0  0  0  0
  143.6250   73.6590  220.7280 C   0  0  0  0  0  0  0  0  0  0  0  0
  142.4350   73.3940  220.0940 C   0  0  0  0  0  0  0  0  0  0  0  0
  141.9110   74.3090  219.2150 C   0  0  0  0  0  0  0  0  0  0  0  0
  141.0190   78.3970  219.8590 N   0  0  0  0  0  0  0  0  0  0  0  0
  141.1430   79.7370  219.4190 C   0  0  0  0  0  0  0  0  0  0  0  0
  141.5210   80.7090  220.2240 C   0  0  0  0  0  0  0  0  0  0  0  0
  141.8160   80.3670  221.6080 C   0  0  0  0  0  0  0  0  0  0  0  0
  142.2050   81.3950  222.4350 C   0  0  0  0  0  0  0  0  0  0  0  0
  142.5010   81.1710  223.7630 C   0  0  0  0  0  0  0  0  0  0  0  0
  142.3870   79.8750  224.2150 C   0  0  0  0  0  0  0  0  0  0  0  0
  141.9900   78.8290  223.3690 C   0  0  0  0  0  0  0  0  0  0  0  0
  141.6930   79.0520  222.0370 C   0  0  0  0  0  0  0  0  0  0  0  0
  141.2880   77.9340  221.1970 C   0  0  1  0  0  0  0  0  0  0  0  0
  140.2570   77.0350  221.7280 C   0  0  0  0  0  0  0  0  0  0  0  0
  140.4770   75.6830  221.9700 C   0  0  0  0  0  0  0  0  0  0  0  0
  139.3520   75.1160  222.4440 N   0  0  0  0  0  0  0  0  0  0  0  0
  138.3990   76.0680  222.5190 C   0  0  0  0  0  0  0  0  0  0  0  0
  137.0800   75.9940  222.9440 C   0  0  0  0  0  0  0  0  0  0  0  0
  136.3060   77.1360  222.9240 C   0  0  0  0  0  0  0  0  0  0  0  0
  136.8600   78.3350  222.4820 C   0  0  0  0  0  0  0  0  0  0  0  0
  138.1720   78.3980  222.0610 C   0  0  0  0  0  0  0  0  0  0  0  0
  138.9430   77.2560  222.0800 C   0  0  0  0  0  0  0  0  0  0  0  0
  141.6066   75.8668  217.0976 H   0  0  0  0  0  0  0  0  0  0  0  0
  142.6557   77.2049  217.7208 H   0  0  0  0  0  0  0  0  0  0  0  0
  144.2843   76.7022  219.3943 H   0  0  0  0  0  0  0  0  0  0  0  0
  145.2276   75.0616  220.9752 H   0  0  0  0  0  0  0  0  0  0  0  0
  144.0531   72.9320  221.4338 H   0  0  0  0  0  0  0  0  0  0  0  0
  141.9036   72.4511  220.2903 H   0  0  0  0  0  0  0  0  0  0  0  0
  140.9579   74.0848  218.7136 H   0  0  0  0  0  0  0  0  0  0  0  0
  140.9160   79.9746  218.3692 H   0  0  0  0  0  0  0  0  0  0  0  0
  141.6107   81.7441  219.8626 H   0  0  0  0  0  0  0  0  0  0  0  0
  142.2814   82.4147  222.0295 H   0  0  0  0  0  0  0  0  0  0  0  0
  142.8133   81.9884  224.4296 H   0  0  0  0  0  0  0  0  0  0  0  0
  142.6135   79.6541  225.2685 H   0  0  0  0  0  0  0  0  0  0  0  0
  141.9133   77.8091  223.7739 H   0  0  0  0  0  0  0  0  0  0  0  0
  142.1554   77.2576  221.1822 H   0  0  0  0  0  0  0  0  0  0  0  0
  141.4276   75.1563  221.7996 H   0  0  0  0  0  0  0  0  0  0  0  0
  139.1880   74.1230  222.7210 H   0  0  0  0  0  0  0  0  0  0  0  0
  136.6580   75.0395  223.2915 H   0  0  0  0  0  0  0  0  0  0  0  0
  135.2577   77.0997  223.2551 H   0  0  0  0  0  0  0  0  0  0  0  0
  136.2422   79.2450  222.4684 H   0  0  0  0  0  0  0  0  0  0  0  0
  138.5987   79.3505  221.7135 H   0  0  0  0  0  0  0  0  0  0  0  0
  1  2  2  0
  2  3  2  0
  2  4  1  0
  4  5  1  0
  5  6  2  0
  6  7  1  0
  7  8  2  0
  8  9  1  0
  9 10  2  0
  2 11  1  0
 11 12  1  0
 12 13  2  0
 13 14  1  0
 14 15  2  0
 15 16  1  0
 16 17  2  0
 17 18  1  0
 18 19  2  0
 19 20  1  0
 20 21  1  0
 21 22  2  0
 22 23  1  0
 23 24  1  0
 24 25  2  0
 25 26  1  0
 26 27  2  0
 27 28  1  0
 28 29  2  0
 10  5  1  0
 20 11  1  0
 29 21  1  0
 19 14  1  0
 29 24  1  0
  4 30  1  0
  4 31  1  0
  6 32  1  0
  7 33  1  0
  8 34  1  0
  9 35  1  0
 10 36  1  0
 12 37  1  0
 13 38  1  0
 15 39  1  0
 16 40  1  0
 17 41  1  0
 18 42  1  0
 20 43  1  6
 22 44  1  0
 23 45  1  0
 25 46  1  0
 26 47  1  0
 27 48  1  0
 28 49  1  0
M  END
>  <smiles>  (87) 
O=S(=O)(Cc1ccccc1)N1C=Cc2ccccc2C1c1c[nH]c2ccccc12

>  <score_type>  (87) 
oracle

>  <origin>  (87) 
autodockgpu

>  <m_score__min__energy>  (87) 
-7.8499999999999996

>  <m_primary>  (87) 
energy

>  <rmsd>  (87) 
4.980578878961957

>  <m_score__min__rmsd>  (87) 
4.980578878961957

>  <meeko>  (87) 
{"free_energy": -7.28, "intermolecular_energy": -8.47, "internal_energy": -2.22, "cluster_size": 35, "cluster_id": 4, "rank_in_cluster": 25}

>  <energy>  (87) 
-7.29

>  <cluster_rmsd>  (87) 
0.73

>  <cluster>  (87) 
4

$$$$

     RDKit          3D

 49 53  0  0  1  0  0  0  0  0999 V2000
  139.1820   76.5130  219.3650 O   0  0  0  0  0  0  0  0  0  0  0  0
  140.0140   77.5790  218.7370 S   0  0  0  0  0  0  0  0  0  0  0  0
  139.1920   78.3600  217.7510 O   0  0  0  0  0  0  0  0  0  0  0  0
  141.3500   76.7850  217.8780 C   0  0  0  0  0  0  0  0  0  0  0  0
  142.1050   75.8880  218.7680 C   0  0  0  0  0  0  0  0  0  0  0  0
  141.6720   74.6260  219.1350 C   0  0  0  0  0  0  0  0  0  0  0  0
  142.4360   73.8440  219.9740 C   0  0  0  0  0  0  0  0  0  0  0  0
  143.6380   74.3000  220.4620 C   0  0  0  0  0  0  0  0  0  0  0  0
  144.0780   75.5510  220.1040 C   0  0  0  0  0  0  0  0  0  0  0  0
  143.3170   76.3300  219.2680 C   0  0  0  0  0  0  0  0  0  0  0  0
  140.6530   78.6600  219.9220 N   0  0  0  0  0  0  0  0  0  0  0  0
  140.7450   80.0280  219.5670 C   0  0  0  0  0  0  0  0  0  0  0  0
  141.2090   80.9400  220.3980 C   0  0  0  0  0  0  0  0  0  0  0  0
  141.6350   80.4990  221.7180 C   0  0  0  0  0  0  0  0  0  0  0  0
  142.1130   81.4660  222.5740 C   0  0  0  0  0  0  0  0  0  0  0  0
  142.5360   81.1480  223.8460 C   0  0  0  0  0  0  0  0  0  0  0  0
  142.4550   79.8220  224.2150 C   0  0  0  0  0  0  0  0  0  0  0  0
  141.9670   78.8400  223.3410 C   0  0  0  0  0  0  0  0  0  0  0  0
  141.5430   79.1580  222.0630 C   0  0  0  0  0  0  0  0  0  0  0  0
  141.0480   78.1020  221.1910 C   0  0  1  0  0  0  0  0  0  0  0  0
  140.0660   77.1700  221.7560 C   0  0  0  0  0  0  0  0  0  0  0  0
  140.3370   75.8250  221.9830 C   0  0  0  0  0  0  0  0  0  0  0  0
  139.2490   75.2220  222.4960 N   0  0  0  0  0  0  0  0  0  0  0  0
  138.2710   76.1430  222.6130 C   0  0  0  0  0  0  0  0  0  0  0  0
  136.9720   76.0280  223.0870 C   0  0  0  0  0  0  0  0  0  0  0  0
  136.1630   77.1450  223.1040 C   0  0  0  0  0  0  0  0  0  0  0  0
  136.6630   78.3620  222.6470 C   0  0  0  0  0  0  0  0  0  0  0  0
  137.9550   78.4670  222.1760 C   0  0  0  0  0  0  0  0  0  0  0  0
  138.7610   77.3490  222.1590 C   0  0  0  0  0  0  0  0  0  0  0  0
  140.9397   76.1980  217.0431 H   0  0  0  0  0  0  0  0  0  0  0  0
  142.0349   77.5630  217.5097 H   0  0  0  0  0  0  0  0  0  0  0  0
  140.7127   74.2449  218.7549 H   0  0  0  0  0  0  0  0  0  0  0  0
  142.0798   72.8424  220.2569 H   0  0  0  0  0  0  0  0  0  0  0  0
  144.2409   73.6695  221.1321 H   0  0  0  0  0  0  0  0  0  0  0  0
  145.0381   75.9279  220.4863 H   0  0  0  0  0  0  0  0  0  0  0  0
  143.6798   77.3302  218.9888 H   0  0  0  0  0  0  0  0  0  0  0  0
  140.4182   80.3399  218.5640 H   0  0  0  0  0  0  0  0  0  0  0  0
  141.2721   81.9981  220.1039 H   0  0  0  0  0  0  0  0  0  0  0  0
  142.1579   82.5118  222.2359 H   0  0  0  0  0  0  0  0  0  0  0  0
  142.9200   81.9153  224.5343 H   0  0  0  0  0  0  0  0  0  0  0  0
  142.7822   79.5263  225.2227 H   0  0  0  0  0  0  0  0  0  0  0  0
  141.9203   77.7942  223.6788 H   0  0  0  0  0  0  0  0  0  0  0  0
  141.9033   77.4260  221.0442 H   0  0  0  0  0  0  0  0  0  0  0  0
  141.2964   75.3288  221.7746 H   0  0  0  0  0  0  0  0  0  0  0  0
  139.1260   74.2230  222.7740 H   0  0  0  0  0  0  0  0  0  0  0  0
  136.5926   75.0593  223.4443 H   0  0  0  0  0  0  0  0  0  0  0  0
  135.1301   77.0752  223.4759 H   0  0  0  0  0  0  0  0  0  0  0  0
  136.0177   79.2527  222.6620 H   0  0  0  0  0  0  0  0  0  0  0  0
  138.3385   79.4336  221.8174 H   0  0  0  0  0  0  0  0  0  0  0  0
  1  2  2  0
  2  3  2  0
  2  4  1  0
  4  5  1  0
  5  6  2  0
  6  7  1  0
  7  8  2  0
  8  9  1  0
  9 10  2  0
  2 11  1  0
 11 12  1  0
 12 13  2  0
 13 14  1  0
 14 15  2  0
 15 16  1  0
 16 17  2  0
 17 18  1  0
 18 19  2  0
 19 20  1  0
 20 21  1  0
 21 22  2  0
 22 23  1  0
 23 24  1  0
 24 25  2  0
 25 26  1  0
 26 27  2  0
 27 28  1  0
 28 29  2  0
 10  5  1  0
 20 11  1  0
 29 21  1  0
 19 14  1  0
 29 24  1  0
  4 30  1  0
  4 31  1  0
  6 32  1  0
  7 33  1  0
  8 34  1  0
  9 35  1  0
 10 36  1  0
 12 37  1  0
 13 38  1  0
 15 39  1  0
 16 40  1  0
 17 41  1  0
 18 42  1  0
 20 43  1  6
 22 44  1  0
 23 45  1  0
 25 46  1  0
 26 47  1  0
 27 48  1  0
 28 49  1  0
M  END
>  <smiles>  (88) 
O=S(=O)(Cc1ccccc1)N1C=Cc2ccccc2C1c1c[nH]c2ccccc12

>  <score_type>  (88) 
oracle

>  <origin>  (88) 
autodockgpu

>  <m_score__min__energy>  (88) 
-7.8499999999999996

>  <m_primary>  (88) 
energy

>  <rmsd>  (88) 
5.005380199183999

>  <m_score__min__rmsd>  (88) 
5.005380199183999

>  <meeko>  (88) 
{"free_energy": -7.06, "intermolecular_energy": -8.25, "internal_energy": -2.36, "cluster_size": 35, "cluster_id": 4, "rank_in_cluster": 34}

>  <energy>  (88) 
-7.28

>  <cluster_rmsd>  (88) 
0.73

>  <cluster>  (88) 
4

$$$$

     RDKit          3D

 49 53  0  0  1  0  0  0  0  0999 V2000
  139.6550   76.1580  219.2940 O   0  0  0  0  0  0  0  0  0  0  0  0
  140.5310   77.1950  218.6770 S   0  0  0  0  0  0  0  0  0  0  0  0
  139.7980   77.8900  217.5640 O   0  0  0  0  0  0  0  0  0  0  0  0
  141.9550   76.3720  218.0090 C   0  0  0  0  0  0  0  0  0  0  0  0
  142.5240   75.4150  218.9710 C   0  0  0  0  0  0  0  0  0  0  0  0
  141.9110   74.2260  219.3290 C   0  0  0  0  0  0  0  0  0  0  0  0
  142.5070   73.3810  220.2390 C   0  0  0  0  0  0  0  0  0  0  0  0
  143.7180   73.6990  220.8080 C   0  0  0  0  0  0  0  0  0  0  0  0
  144.3360   74.8750  220.4610 C   0  0  0  0  0  0  0  0  0  0  0  0
  143.7420   75.7170  219.5540 C   0  0  0  0  0  0  0  0  0  0  0  0
  141.0340   78.3680  219.8400 N   0  0  0  0  0  0  0  0  0  0  0  0
  141.1640   79.7060  219.3940 C   0  0  0  0  0  0  0  0  0  0  0  0
  141.5340   80.6810  220.2000 C   0  0  0  0  0  0  0  0  0  0  0  0
  141.8120   80.3450  221.5890 C   0  0  0  0  0  0  0  0  0  0  0  0
  142.1930   81.3780  222.4150 C   0  0  0  0  0  0  0  0  0  0  0  0
  142.4730   81.1600  223.7470 C   0  0  0  0  0  0  0  0  0  0  0  0
  142.3530   79.8650  224.2040 C   0  0  0  0  0  0  0  0  0  0  0  0
  141.9650   78.8160  223.3590 C   0  0  0  0  0  0  0  0  0  0  0  0
  141.6840   79.0330  222.0220 C   0  0  0  0  0  0  0  0  0  0  0  0
  141.2880   77.9110  221.1830 C   0  0  1  0  0  0  0  0  0  0  0  0
  140.2500   77.0150  221.7060 C   0  0  0  0  0  0  0  0  0  0  0  0
  140.4710   75.6670  221.9710 C   0  0  0  0  0  0  0  0  0  0  0  0
  139.3390   75.1030  222.4310 N   0  0  0  0  0  0  0  0  0  0  0  0
  138.3810   76.0510  222.4740 C   0  0  0  0  0  0  0  0  0  0  0  0
  137.0540   75.9780  222.8740 C   0  0  0  0  0  0  0  0  0  0  0  0
  136.2770   77.1160  222.8240 C   0  0  0  0  0  0  0  0  0  0  0  0
  136.8350   78.3110  222.3760 C   0  0  0  0  0  0  0  0  0  0  0  0
  138.1540   78.3740  221.9790 C   0  0  0  0  0  0  0  0  0  0  0  0
  138.9290   77.2350  222.0290 C   0  0  0  0  0  0  0  0  0  0  0  0
  141.6606   75.8308  217.0977 H   0  0  0  0  0  0  0  0  0  0  0  0
  142.7187   77.1309  217.7836 H   0  0  0  0  0  0  0  0  0  0  0  0
  140.9423   73.9547  218.8840 H   0  0  0  0  0  0  0  0  0  0  0  0
  142.0081   72.4400  220.5141 H   0  0  0  0  0  0  0  0  0  0  0  0
  144.1868   73.0181  221.5337 H   0  0  0  0  0  0  0  0  0  0  0  0
  145.3047   75.1418  220.9087 H   0  0  0  0  0  0  0  0  0  0  0  0
  144.2473   76.6560  219.2837 H   0  0  0  0  0  0  0  0  0  0  0  0
  140.9492   79.9390  218.3406 H   0  0  0  0  0  0  0  0  0  0  0  0
  141.6296   81.7144  219.8353 H   0  0  0  0  0  0  0  0  0  0  0  0
  142.2755   82.3954  222.0050 H   0  0  0  0  0  0  0  0  0  0  0  0
  142.7777   81.9803  224.4135 H   0  0  0  0  0  0  0  0  0  0  0  0
  142.5676   79.6488  225.2610 H   0  0  0  0  0  0  0  0  0  0  0  0
  141.8822   77.7982  223.7679 H   0  0  0  0  0  0  0  0  0  0  0  0
  142.1552   77.2343  221.1819 H   0  0  0  0  0  0  0  0  0  0  0  0
  141.4266   75.1417  221.8263 H   0  0  0  0  0  0  0  0  0  0  0  0
  139.1730   74.1130  222.7190 H   0  0  0  0  0  0  0  0  0  0  0  0
  136.6285   75.0265  223.2256 H   0  0  0  0  0  0  0  0  0  0  0  0
  135.2228   77.0803  223.1361 H   0  0  0  0  0  0  0  0  0  0  0  0
  136.2141   79.2182  222.3383 H   0  0  0  0  0  0  0  0  0  0  0  0
  138.5834   79.3232  221.6261 H   0  0  0  0  0  0  0  0  0  0  0  0
  1  2  2  0
  2  3  2  0
  2  4  1  0
  4  5  1  0
  5  6  2  0
  6  7  1  0
  7  8  2  0
  8  9  1  0
  9 10  2  0
  2 11  1  0
 11 12  1  0
 12 13  2  0
 13 14  1  0
 14 15  2  0
 15 16  1  0
 16 17  2  0
 17 18  1  0
 18 19  2  0
 19 20  1  0
 20 21  1  0
 21 22  2  0
 22 23  1  0
 23 24  1  0
 24 25  2  0
 25 26  1  0
 26 27  2  0
 27 28  1  0
 28 29  2  0
 10  5  1  0
 20 11  1  0
 29 21  1  0
 19 14  1  0
 29 24  1  0
  4 30  1  0
  4 31  1  0
  6 32  1  0
  7 33  1  0
  8 34  1  0
  9 35  1  0
 10 36  1  0
 12 37  1  0
 13 38  1  0
 15 39  1  0
 16 40  1  0
 17 41  1  0
 18 42  1  0
 20 43  1  6
 22 44  1  0
 23 45  1  0
 25 46  1  0
 26 47  1  0
 27 48  1  0
 28 49  1  0
M  END
>  <smiles>  (89) 
O=S(=O)(Cc1ccccc1)N1C=Cc2ccccc2C1c1c[nH]c2ccccc12

>  <score_type>  (89) 
oracle

>  <origin>  (89) 
autodockgpu

>  <m_score__min__energy>  (89) 
-7.8499999999999996

>  <m_primary>  (89) 
energy

>  <rmsd>  (89) 
4.9616626478075485

>  <m_score__min__rmsd>  (89) 
4.9616626478075485

>  <meeko>  (89) 
{"free_energy": -7.3, "intermolecular_energy": -8.49, "internal_energy": -2.25, "cluster_size": 35, "cluster_id": 4, "rank_in_cluster": 16}

>  <energy>  (89) 
-7.28

>  <cluster_rmsd>  (89) 
0.73

>  <cluster>  (89) 
4

$$$$

     RDKit          3D

 49 53  0  0  1  0  0  0  0  0999 V2000
  139.6430   76.1290  219.3100 O   0  0  0  0  0  0  0  0  0  0  0  0
  140.5130   77.1690  218.6900 S   0  0  0  0  0  0  0  0  0  0  0  0
  139.7740   77.8630  217.5800 O   0  0  0  0  0  0  0  0  0  0  0  0
  141.9370   76.3500  218.0150 C   0  0  0  0  0  0  0  0  0  0  0  0
  142.5170   75.4000  218.9770 C   0  0  0  0  0  0  0  0  0  0  0  0
  141.9180   74.2060  219.3390 C   0  0  0  0  0  0  0  0  0  0  0  0
  142.5240   73.3690  220.2480 C   0  0  0  0  0  0  0  0  0  0  0  0
  143.7340   73.7000  220.8140 C   0  0  0  0  0  0  0  0  0  0  0  0
  144.3390   74.8820  220.4630 C   0  0  0  0  0  0  0  0  0  0  0  0
  143.7340   75.7160  219.5570 C   0  0  0  0  0  0  0  0  0  0  0  0
  141.0190   78.3420  219.8520 N   0  0  0  0  0  0  0  0  0  0  0  0
  141.1600   79.6770  219.4030 C   0  0  0  0  0  0  0  0  0  0  0  0
  141.5320   80.6530  220.2070 C   0  0  0  0  0  0  0  0  0  0  0  0
  141.8010   80.3190  221.5980 C   0  0  0  0  0  0  0  0  0  0  0  0
  142.1840   81.3510  222.4240 C   0  0  0  0  0  0  0  0  0  0  0  0
  142.4570   81.1360  223.7580 C   0  0  0  0  0  0  0  0  0  0  0  0
  142.3260   79.8430  224.2180 C   0  0  0  0  0  0  0  0  0  0  0  0
  141.9340   78.7940  223.3740 C   0  0  0  0  0  0  0  0  0  0  0  0
  141.6610   79.0090  222.0350 C   0  0  0  0  0  0  0  0  0  0  0  0
  141.2620   77.8870  221.1970 C   0  0  1  0  0  0  0  0  0  0  0  0
  140.2160   77.0000  221.7180 C   0  0  0  0  0  0  0  0  0  0  0  0
  140.4220   75.6480  221.9730 C   0  0  0  0  0  0  0  0  0  0  0  0
  139.2850   75.0930  222.4320 N   0  0  0  0  0  0  0  0  0  0  0  0
  138.3390   76.0530  222.4860 C   0  0  0  0  0  0  0  0  0  0  0  0
  137.0120   75.9920  222.8900 C   0  0  0  0  0  0  0  0  0  0  0  0
  136.2480   77.1390  222.8510 C   0  0  0  0  0  0  0  0  0  0  0  0
  136.8180   78.3310  222.4090 C   0  0  0  0  0  0  0  0  0  0  0  0
  138.1370   78.3820  222.0080 C   0  0  0  0  0  0  0  0  0  0  0  0
  138.8980   77.2330  222.0470 C   0  0  0  0  0  0  0  0  0  0  0  0
  141.6390   75.8036  217.1080 H   0  0  0  0  0  0  0  0  0  0  0  0
  142.6954   77.1116  217.7809 H   0  0  0  0  0  0  0  0  0  0  0  0
  140.9509   73.9241  218.8971 H   0  0  0  0  0  0  0  0  0  0  0  0
  142.0351   72.4236  220.5256 H   0  0  0  0  0  0  0  0  0  0  0  0
  144.2114   73.0252  221.5397 H   0  0  0  0  0  0  0  0  0  0  0  0
  145.3063   75.1594  220.9072 H   0  0  0  0  0  0  0  0  0  0  0  0
  144.2285   76.6600  219.2844 H   0  0  0  0  0  0  0  0  0  0  0  0
  140.9522   79.9077  218.3477 H   0  0  0  0  0  0  0  0  0  0  0  0
  141.6356   81.6846  219.8394 H   0  0  0  0  0  0  0  0  0  0  0  0
  142.2740   82.3669  222.0118 H   0  0  0  0  0  0  0  0  0  0  0  0
  142.7645   81.9564  224.4232 H   0  0  0  0  0  0  0  0  0  0  0  0
  142.5348   79.6282  225.2764 H   0  0  0  0  0  0  0  0  0  0  0  0
  141.8416   77.7781  223.7856 H   0  0  0  0  0  0  0  0  0  0  0  0
  142.1239   77.2036  221.2014 H   0  0  0  0  0  0  0  0  0  0  0  0
  141.3713   75.1131  221.8222 H   0  0  0  0  0  0  0  0  0  0  0  0
  139.1090   74.1030  222.7140 H   0  0  0  0  0  0  0  0  0  0  0  0
  136.5768   75.0428  223.2360 H   0  0  0  0  0  0  0  0  0  0  0  0
  135.1947   77.1132  223.1670 H   0  0  0  0  0  0  0  0  0  0  0  0
  136.2071   79.2453  222.3793 H   0  0  0  0  0  0  0  0  0  0  0  0
  138.5766   79.3288  221.6610 H   0  0  0  0  0  0  0  0  0  0  0  0
  1  2  2  0
  2  3  2  0
  2  4  1  0
  4  5  1  0
  5  6  2  0
  6  7  1  0
  7  8  2  0
  8  9  1  0
  9 10  2  0
  2 11  1  0
 11 12  1  0
 12 13  2  0
 13 14  1  0
 14 15  2  0
 15 16  1  0
 16 17  2  0
 17 18  1  0
 18 19  2  0
 19 20  1  0
 20 21  1  0
 21 22  2  0
 22 23  1  0
 23 24  1  0
 24 25  2  0
 25 26  1  0
 26 27  2  0
 27 28  1  0
 28 29  2  0
 10  5  1  0
 20 11  1  0
 29 21  1  0
 19 14  1  0
 29 24  1  0
  4 30  1  0
  4 31  1  0
  6 32  1  0
  7 33  1  0
  8 34  1  0
  9 35  1  0
 10 36  1  0
 12 37  1  0
 13 38  1  0
 15 39  1  0
 16 40  1  0
 17 41  1  0
 18 42  1  0
 20 43  1  6
 22 44  1  0
 23 45  1  0
 25 46  1  0
 26 47  1  0
 27 48  1  0
 28 49  1  0
M  END
>  <smiles>  (90) 
O=S(=O)(Cc1ccccc1)N1C=Cc2ccccc2C1c1c[nH]c2ccccc12

>  <score_type>  (90) 
oracle

>  <origin>  (90) 
autodockgpu

>  <m_score__min__energy>  (90) 
-7.8499999999999996

>  <m_primary>  (90) 
energy

>  <rmsd>  (90) 
4.990540234729198

>  <m_score__min__rmsd>  (90) 
4.990540234729198

>  <meeko>  (90) 
{"free_energy": -7.32, "intermolecular_energy": -8.51, "internal_energy": -2.22, "cluster_size": 35, "cluster_id": 4, "rank_in_cluster": 7}

>  <energy>  (90) 
-7.28

>  <cluster_rmsd>  (90) 
0.75

>  <cluster>  (90) 
4

$$$$

     RDKit          3D

 49 53  0  0  1  0  0  0  0  0999 V2000
  140.5460   76.1270  218.8850 O   0  0  0  0  0  0  0  0  0  0  0  0
  141.4820   77.2100  218.4680 S   0  0  0  0  0  0  0  0  0  0  0  0
  140.9860   77.8600  217.2070 O   0  0  0  0  0  0  0  0  0  0  0  0
  143.0640   76.4670  218.1530 C   0  0  0  0  0  0  0  0  0  0  0  0
  143.2830   75.2880  219.0060 C   0  0  0  0  0  0  0  0  0  0  0  0
  144.1520   75.2680  220.0840 C   0  0  0  0  0  0  0  0  0  0  0  0
  144.3030   74.1240  220.8360 C   0  0  0  0  0  0  0  0  0  0  0  0
  143.5980   72.9820  220.5320 C   0  0  0  0  0  0  0  0  0  0  0  0
  142.7330   72.9900  219.4650 C   0  0  0  0  0  0  0  0  0  0  0  0
  142.5820   74.1300  218.7160 C   0  0  0  0  0  0  0  0  0  0  0  0
  141.6430   78.4110  219.6970 N   0  0  0  0  0  0  0  0  0  0  0  0
  141.5890   79.7660  219.2880 C   0  0  0  0  0  0  0  0  0  0  0  0
  141.6930   80.7630  220.1450 C   0  0  0  0  0  0  0  0  0  0  0  0
  141.8690   80.4320  221.5510 C   0  0  0  0  0  0  0  0  0  0  0  0
  141.9710   81.4860  222.4310 C   0  0  0  0  0  0  0  0  0  0  0  0
  142.1350   81.2740  223.7830 C   0  0  0  0  0  0  0  0  0  0  0  0
  142.1900   79.9630  224.2050 C   0  0  0  0  0  0  0  0  0  0  0  0
  142.0850   78.8920  223.3060 C   0  0  0  0  0  0  0  0  0  0  0  0
  141.9210   79.1030  221.9480 C   0  0  0  0  0  0  0  0  0  0  0  0
  141.8200   77.9590  221.0530 C   0  0  1  0  0  0  0  0  0  0  0  0
  140.9010   76.8830  221.4410 C   0  0  0  0  0  0  0  0  0  0  0  0
  141.3010   75.5610  221.6010 C   0  0  0  0  0  0  0  0  0  0  0  0
  140.2440   74.8040  221.9480 N   0  0  0  0  0  0  0  0  0  0  0  0
  139.1590   75.6020  222.0210 C   0  0  0  0  0  0  0  0  0  0  0  0
  137.8410   75.3090  222.3410 C   0  0  0  0  0  0  0  0  0  0  0  0
  136.9110   76.3270  222.3460 C   0  0  0  0  0  0  0  0  0  0  0  0
  137.3100   77.6240  222.0330 C   0  0  0  0  0  0  0  0  0  0  0  0
  138.6220   77.9070  221.7160 C   0  0  0  0  0  0  0  0  0  0  0  0
  139.5490   76.8870  221.7100 C   0  0  0  0  0  0  0  0  0  0  0  0
  143.1111   76.1592  217.0980 H   0  0  0  0  0  0  0  0  0  0  0  0
  143.8454   77.2076  218.3788 H   0  0  0  0  0  0  0  0  0  0  0  0
  144.7250   76.1710  220.3412 H   0  0  0  0  0  0  0  0  0  0  0  0
  144.9959   74.1232  221.6904 H   0  0  0  0  0  0  0  0  0  0  0  0
  143.7258   72.0723  221.1371 H   0  0  0  0  0  0  0  0  0  0  0  0
  142.1624   72.0844  219.2114 H   0  0  0  0  0  0  0  0  0  0  0  0
  141.8865   74.1234  217.8638 H   0  0  0  0  0  0  0  0  0  0  0  0
  141.4559   79.9943  218.2202 H   0  0  0  0  0  0  0  0  0  0  0  0
  141.6482   81.8093  219.8084 H   0  0  0  0  0  0  0  0  0  0  0  0
  141.9207   82.5160  222.0481 H   0  0  0  0  0  0  0  0  0  0  0  0
  142.2180   82.1113  224.4916 H   0  0  0  0  0  0  0  0  0  0  0  0
  142.3198   79.7511  225.2766 H   0  0  0  0  0  0  0  0  0  0  0  0
  142.1341   77.8618  223.6884 H   0  0  0  0  0  0  0  0  0  0  0  0
  142.7853   77.4390  221.1415 H   0  0  0  0  0  0  0  0  0  0  0  0
  142.3274   75.1897  221.4644 H   0  0  0  0  0  0  0  0  0  0  0  0
  140.2100   73.7780  222.1410 H   0  0  0  0  0  0  0  0  0  0  0  0
  137.5424   74.2793  222.5872 H   0  0  0  0  0  0  0  0  0  0  0  0
  135.8607   76.1160  222.5956 H   0  0  0  0  0  0  0  0  0  0  0  0
  136.5672   78.4353  222.0387 H   0  0  0  0  0  0  0  0  0  0  0  0
  138.9253   78.9355  221.4706 H   0  0  0  0  0  0  0  0  0  0  0  0
  1  2  2  0
  2  3  2  0
  2  4  1  0
  4  5  1  0
  5  6  2  0
  6  7  1  0
  7  8  2  0
  8  9  1  0
  9 10  2  0
  2 11  1  0
 11 12  1  0
 12 13  2  0
 13 14  1  0
 14 15  2  0
 15 16  1  0
 16 17  2  0
 17 18  1  0
 18 19  2  0
 19 20  1  0
 20 21  1  0
 21 22  2  0
 22 23  1  0
 23 24  1  0
 24 25  2  0
 25 26  1  0
 26 27  2  0
 27 28  1  0
 28 29  2  0
 10  5  1  0
 20 11  1  0
 29 21  1  0
 19 14  1  0
 29 24  1  0
  4 30  1  0
  4 31  1  0
  6 32  1  0
  7 33  1  0
  8 34  1  0
  9 35  1  0
 10 36  1  0
 12 37  1  0
 13 38  1  0
 15 39  1  0
 16 40  1  0
 17 41  1  0
 18 42  1  0
 20 43  1  6
 22 44  1  0
 23 45  1  0
 25 46  1  0
 26 47  1  0
 27 48  1  0
 28 49  1  0
M  END
>  <smiles>  (91) 
O=S(=O)(Cc1ccccc1)N1C=Cc2ccccc2C1c1c[nH]c2ccccc12

>  <score_type>  (91) 
oracle

>  <origin>  (91) 
autodockgpu

>  <m_score__min__energy>  (91) 
-7.8499999999999996

>  <m_primary>  (91) 
energy

>  <rmsd>  (91) 
4.647583605246869

>  <m_score__min__rmsd>  (91) 
4.647583605246869

>  <meeko>  (91) 
{"free_energy": -7.14, "intermolecular_energy": -8.33, "internal_energy": -2.25, "cluster_size": 35, "cluster_id": 4, "rank_in_cluster": 33}

>  <energy>  (91) 
-7.28

>  <cluster_rmsd>  (91) 
0.72

>  <cluster>  (91) 
4

$$$$

     RDKit          3D

 49 53  0  0  1  0  0  0  0  0999 V2000
  140.1190   75.8630  219.3030 O   0  0  0  0  0  0  0  0  0  0  0  0
  140.9740   76.9230  218.6980 S   0  0  0  0  0  0  0  0  0  0  0  0
  140.2790   77.5290  217.5120 O   0  0  0  0  0  0  0  0  0  0  0  0
  142.4820   76.1570  218.1560 C   0  0  0  0  0  0  0  0  0  0  0  0
  142.9110   75.0980  219.0840 C   0  0  0  0  0  0  0  0  0  0  0  0
  143.9970   75.2130  219.9350 C   0  0  0  0  0  0  0  0  0  0  0  0
  144.3360   74.1750  220.7750 C   0  0  0  0  0  0  0  0  0  0  0  0
  143.6060   73.0090  220.7860 C   0  0  0  0  0  0  0  0  0  0  0  0
  142.5270   72.8840  219.9460 C   0  0  0  0  0  0  0  0  0  0  0  0
  142.1890   73.9180  219.1090 C   0  0  0  0  0  0  0  0  0  0  0  0
  141.3370   78.1680  219.8370 N   0  0  0  0  0  0  0  0  0  0  0  0
  141.4820   79.4830  219.3340 C   0  0  0  0  0  0  0  0  0  0  0  0
  141.7500   80.5100  220.1160 C   0  0  0  0  0  0  0  0  0  0  0  0
  141.8980   80.2540  221.5420 C   0  0  0  0  0  0  0  0  0  0  0  0
  142.1730   81.3390  222.3440 C   0  0  0  0  0  0  0  0  0  0  0  0
  142.3260   81.1980  223.7060 C   0  0  0  0  0  0  0  0  0  0  0  0
  142.1890   79.9270  224.2200 C   0  0  0  0  0  0  0  0  0  0  0  0
  141.9080   78.8250  223.4000 C   0  0  0  0  0  0  0  0  0  0  0  0
  141.7540   78.9640  222.0320 C   0  0  0  0  0  0  0  0  0  0  0  0
  141.4660   77.7890  221.2210 C   0  0  1  0  0  0  0  0  0  0  0  0
  140.4010   76.8950  221.6900 C   0  0  0  0  0  0  0  0  0  0  0  0
  140.6030   75.5450  221.9570 C   0  0  0  0  0  0  0  0  0  0  0  0
  139.4480   74.9830  222.3600 N   0  0  0  0  0  0  0  0  0  0  0  0
  138.4940   75.9370  222.3640 C   0  0  0  0  0  0  0  0  0  0  0  0
  137.1490   75.8680  222.7010 C   0  0  0  0  0  0  0  0  0  0  0  0
  136.3800   77.0090  222.6210 C   0  0  0  0  0  0  0  0  0  0  0  0
  136.9640   78.2040  222.2060 C   0  0  0  0  0  0  0  0  0  0  0  0
  138.3010   78.2630  221.8730 C   0  0  0  0  0  0  0  0  0  0  0  0
  139.0670   77.1200  221.9520 C   0  0  0  0  0  0  0  0  0  0  0  0
  142.3222   75.7172  217.1605 H   0  0  0  0  0  0  0  0  0  0  0  0
  143.2677   76.9261  218.1218 H   0  0  0  0  0  0  0  0  0  0  0  0
  144.5923   76.1380  219.9405 H   0  0  0  0  0  0  0  0  0  0  0  0
  145.2016   74.2799  221.4456 H   0  0  0  0  0  0  0  0  0  0  0  0
  143.8837   72.1856  221.4605 H   0  0  0  0  0  0  0  0  0  0  0  0
  141.9347   71.9571  219.9439 H   0  0  0  0  0  0  0  0  0  0  0  0
  141.3222   73.8057  218.4412 H   0  0  0  0  0  0  0  0  0  0  0  0
  141.3671   79.6540  218.2535 H   0  0  0  0  0  0  0  0  0  0  0  0
  141.8581   81.5249  219.7057 H   0  0  0  0  0  0  0  0  0  0  0  0
  142.2723   82.3357  221.8894 H   0  0  0  0  0  0  0  0  0  0  0  0
  142.5472   82.0598  224.3528 H   0  0  0  0  0  0  0  0  0  0  0  0
  142.3032   79.7727  225.3031 H   0  0  0  0  0  0  0  0  0  0  0  0
  141.8078   77.8281  223.8541 H   0  0  0  0  0  0  0  0  0  0  0  0
  142.3425   77.1352  221.3405 H   0  0  0  0  0  0  0  0  0  0  0  0
  141.5621   75.0162  221.8543 H   0  0  0  0  0  0  0  0  0  0  0  0
  139.2650   73.9930  222.6340 H   0  0  0  0  0  0  0  0  0  0  0  0
  136.7035   74.9166  223.0271 H   0  0  0  0  0  0  0  0  0  0  0  0
  135.3122   76.9764  222.8831 H   0  0  0  0  0  0  0  0  0  0  0  0
  136.3494   79.1141  222.1430 H   0  0  0  0  0  0  0  0  0  0  0  0
  138.7513   79.2124  221.5477 H   0  0  0  0  0  0  0  0  0  0  0  0
  1  2  2  0
  2  3  2  0
  2  4  1  0
  4  5  1  0
  5  6  2  0
  6  7  1  0
  7  8  2  0
  8  9  1  0
  9 10  2  0
  2 11  1  0
 11 12  1  0
 12 13  2  0
 13 14  1  0
 14 15  2  0
 15 16  1  0
 16 17  2  0
 17 18  1  0
 18 19  2  0
 19 20  1  0
 20 21  1  0
 21 22  2  0
 22 23  1  0
 23 24  1  0
 24 25  2  0
 25 26  1  0
 26 27  2  0
 27 28  1  0
 28 29  2  0
 10  5  1  0
 20 11  1  0
 29 21  1  0
 19 14  1  0
 29 24  1  0
  4 30  1  0
  4 31  1  0
  6 32  1  0
  7 33  1  0
  8 34  1  0
  9 35  1  0
 10 36  1  0
 12 37  1  0
 13 38  1  0
 15 39  1  0
 16 40  1  0
 17 41  1  0
 18 42  1  0
 20 43  1  6
 22 44  1  0
 23 45  1  0
 25 46  1  0
 26 47  1  0
 27 48  1  0
 28 49  1  0
M  END
>  <smiles>  (92) 
O=S(=O)(Cc1ccccc1)N1C=Cc2ccccc2C1c1c[nH]c2ccccc12

>  <score_type>  (92) 
oracle

>  <origin>  (92) 
autodockgpu

>  <m_score__min__energy>  (92) 
-7.8499999999999996

>  <m_primary>  (92) 
energy

>  <rmsd>  (92) 
4.928693397197181

>  <m_score__min__rmsd>  (92) 
4.928693397197181

>  <meeko>  (92) 
{"free_energy": -7.43, "intermolecular_energy": -8.62, "internal_energy": -2.04, "cluster_size": 35, "cluster_id": 4, "rank_in_cluster": 3}

>  <energy>  (92) 
-7.27

>  <cluster_rmsd>  (92) 
0.75

>  <cluster>  (92) 
4

$$$$

     RDKit          3D

 49 53  0  0  1  0  0  0  0  0999 V2000
  139.6420   76.1200  219.3150 O   0  0  0  0  0  0  0  0  0  0  0  0
  140.4940   77.1730  218.6920 S   0  0  0  0  0  0  0  0  0  0  0  0
  139.7340   77.8650  217.5940 O   0  0  0  0  0  0  0  0  0  0  0  0
  141.9190   76.3740  217.9960 C   0  0  0  0  0  0  0  0  0  0  0  0
  142.5100   75.4130  218.9400 C   0  0  0  0  0  0  0  0  0  0  0  0
  141.9450   74.1870  219.2460 C   0  0  0  0  0  0  0  0  0  0  0  0
  142.5600   73.3400  220.1420 C   0  0  0  0  0  0  0  0  0  0  0  0
  143.7430   73.6930  220.7480 C   0  0  0  0  0  0  0  0  0  0  0  0
  144.3140   74.9070  220.4520 C   0  0  0  0  0  0  0  0  0  0  0  0
  143.7010   75.7510  219.5590 C   0  0  0  0  0  0  0  0  0  0  0  0
  141.0000   78.3450  219.8540 N   0  0  0  0  0  0  0  0  0  0  0  0
  141.1310   79.6830  219.4080 C   0  0  0  0  0  0  0  0  0  0  0  0
  141.5020   80.6590  220.2130 C   0  0  0  0  0  0  0  0  0  0  0  0
  141.7810   80.3220  221.6020 C   0  0  0  0  0  0  0  0  0  0  0  0
  142.1630   81.3540  222.4280 C   0  0  0  0  0  0  0  0  0  0  0  0
  142.4450   81.1360  223.7600 C   0  0  0  0  0  0  0  0  0  0  0  0
  142.3240   79.8420  224.2170 C   0  0  0  0  0  0  0  0  0  0  0  0
  141.9330   78.7930  223.3720 C   0  0  0  0  0  0  0  0  0  0  0  0
  141.6510   79.0100  222.0350 C   0  0  0  0  0  0  0  0  0  0  0  0
  141.2530   77.8880  221.1960 C   0  0  1  0  0  0  0  0  0  0  0  0
  140.2150   76.9940  221.7210 C   0  0  0  0  0  0  0  0  0  0  0  0
  140.4310   75.6430  221.9740 C   0  0  0  0  0  0  0  0  0  0  0  0
  139.2990   75.0810  222.4380 N   0  0  0  0  0  0  0  0  0  0  0  0
  138.3470   76.0340  222.4950 C   0  0  0  0  0  0  0  0  0  0  0  0
  137.0220   75.9640  222.9040 C   0  0  0  0  0  0  0  0  0  0  0  0
  136.2500   77.1060  222.8680 C   0  0  0  0  0  0  0  0  0  0  0  0
  136.8110   78.3020  222.4240 C   0  0  0  0  0  0  0  0  0  0  0  0
  138.1280   78.3610  222.0190 C   0  0  0  0  0  0  0  0  0  0  0  0
  138.8970   77.2180  222.0550 C   0  0  0  0  0  0  0  0  0  0  0  0
  141.6193   75.8399  217.0822 H   0  0  0  0  0  0  0  0  0  0  0  0
  142.6713   77.1438  217.7692 H   0  0  0  0  0  0  0  0  0  0  0  0
  140.9993   73.8871  218.7710 H   0  0  0  0  0  0  0  0  0  0  0  0
  142.0989   72.3690  220.3756 H   0  0  0  0  0  0  0  0  0  0  0  0
  144.2269   73.0105  221.4622 H   0  0  0  0  0  0  0  0  0  0  0  0
  145.2601   75.2022  220.9293 H   0  0  0  0  0  0  0  0  0  0  0  0
  144.1682   76.7201  219.3298 H   0  0  0  0  0  0  0  0  0  0  0  0
  140.9160   79.9156  218.3546 H   0  0  0  0  0  0  0  0  0  0  0  0
  141.5975   81.6923  219.8480 H   0  0  0  0  0  0  0  0  0  0  0  0
  142.2449   82.3715  222.0182 H   0  0  0  0  0  0  0  0  0  0  0  0
  142.7519   81.9560  224.4258 H   0  0  0  0  0  0  0  0  0  0  0  0
  142.5400   79.6255  225.2736 H   0  0  0  0  0  0  0  0  0  0  0  0
  141.8487   77.7755  223.7813 H   0  0  0  0  0  0  0  0  0  0  0  0
  142.1186   77.2092  221.1931 H   0  0  0  0  0  0  0  0  0  0  0  0
  141.3828   75.1140  221.8184 H   0  0  0  0  0  0  0  0  0  0  0  0
  139.1310   74.0900  222.7190 H   0  0  0  0  0  0  0  0  0  0  0  0
  136.5946   75.0119  223.2515 H   0  0  0  0  0  0  0  0  0  0  0  0
  135.1980   77.0732  223.1877 H   0  0  0  0  0  0  0  0  0  0  0  0
  136.1942   79.2124  222.3962 H   0  0  0  0  0  0  0  0  0  0  0  0
  138.5602   79.3107  221.6708 H   0  0  0  0  0  0  0  0  0  0  0  0
  1  2  2  0
  2  3  2  0
  2  4  1  0
  4  5  1  0
  5  6  2  0
  6  7  1  0
  7  8  2  0
  8  9  1  0
  9 10  2  0
  2 11  1  0
 11 12  1  0
 12 13  2  0
 13 14  1  0
 14 15  2  0
 15 16  1  0
 16 17  2  0
 17 18  1  0
 18 19  2  0
 19 20  1  0
 20 21  1  0
 21 22  2  0
 22 23  1  0
 23 24  1  0
 24 25  2  0
 25 26  1  0
 26 27  2  0
 27 28  1  0
 28 29  2  0
 10  5  1  0
 20 11  1  0
 29 21  1  0
 19 14  1  0
 29 24  1  0
  4 30  1  0
  4 31  1  0
  6 32  1  0
  7 33  1  0
  8 34  1  0
  9 35  1  0
 10 36  1  0
 12 37  1  0
 13 38  1  0
 15 39  1  0
 16 40  1  0
 17 41  1  0
 18 42  1  0
 20 43  1  6
 22 44  1  0
 23 45  1  0
 25 46  1  0
 26 47  1  0
 27 48  1  0
 28 49  1  0
M  END
>  <smiles>  (93) 
O=S(=O)(Cc1ccccc1)N1C=Cc2ccccc2C1c1c[nH]c2ccccc12

>  <score_type>  (93) 
oracle

>  <origin>  (93) 
autodockgpu

>  <m_score__min__energy>  (93) 
-7.8499999999999996

>  <m_primary>  (93) 
energy

>  <rmsd>  (93) 
4.989695618372592

>  <m_score__min__rmsd>  (93) 
4.989695618372592

>  <meeko>  (93) 
{"free_energy": -7.3, "intermolecular_energy": -8.5, "internal_energy": -2.23, "cluster_size": 35, "cluster_id": 4, "rank_in_cluster": 12}

>  <energy>  (93) 
-7.26

>  <cluster_rmsd>  (93) 
0.73

>  <cluster>  (93) 
4

$$$$

     RDKit          3D

 49 53  0  0  1  0  0  0  0  0999 V2000
  139.6460   76.1330  219.3030 O   0  0  0  0  0  0  0  0  0  0  0  0
  140.5110   77.1760  218.6810 S   0  0  0  0  0  0  0  0  0  0  0  0
  139.7670   77.8680  217.5740 O   0  0  0  0  0  0  0  0  0  0  0  0
  141.9360   76.3620  218.0020 C   0  0  0  0  0  0  0  0  0  0  0  0
  142.5180   75.4090  218.9600 C   0  0  0  0  0  0  0  0  0  0  0  0
  141.9180   74.2140  219.3190 C   0  0  0  0  0  0  0  0  0  0  0  0
  142.5270   73.3730  220.2240 C   0  0  0  0  0  0  0  0  0  0  0  0
  143.7370   73.7020  220.7890 C   0  0  0  0  0  0  0  0  0  0  0  0
  144.3420   74.8850  220.4410 C   0  0  0  0  0  0  0  0  0  0  0  0
  143.7360   75.7220  219.5390 C   0  0  0  0  0  0  0  0  0  0  0  0
  141.0170   78.3500  219.8420 N   0  0  0  0  0  0  0  0  0  0  0  0
  141.1470   79.6880  219.3940 C   0  0  0  0  0  0  0  0  0  0  0  0
  141.5180   80.6640  220.1980 C   0  0  0  0  0  0  0  0  0  0  0  0
  141.7980   80.3300  221.5870 C   0  0  0  0  0  0  0  0  0  0  0  0
  142.1790   81.3630  222.4120 C   0  0  0  0  0  0  0  0  0  0  0  0
  142.4610   81.1470  223.7440 C   0  0  0  0  0  0  0  0  0  0  0  0
  142.3410   79.8530  224.2020 C   0  0  0  0  0  0  0  0  0  0  0  0
  141.9520   78.8030  223.3590 C   0  0  0  0  0  0  0  0  0  0  0  0
  141.6690   79.0180  222.0220 C   0  0  0  0  0  0  0  0  0  0  0  0
  141.2720   77.8950  221.1850 C   0  0  1  0  0  0  0  0  0  0  0  0
  140.2340   77.0000  221.7110 C   0  0  0  0  0  0  0  0  0  0  0  0
  140.4520   75.6510  221.9680 C   0  0  0  0  0  0  0  0  0  0  0  0
  139.3210   75.0880  222.4320 N   0  0  0  0  0  0  0  0  0  0  0  0
  138.3670   76.0390  222.4850 C   0  0  0  0  0  0  0  0  0  0  0  0
  137.0420   75.9680  222.8930 C   0  0  0  0  0  0  0  0  0  0  0  0
  136.2680   77.1090  222.8530 C   0  0  0  0  0  0  0  0  0  0  0  0
  136.8270   78.3040  222.4070 C   0  0  0  0  0  0  0  0  0  0  0  0
  138.1450   78.3650  222.0020 C   0  0  0  0  0  0  0  0  0  0  0  0
  138.9160   77.2230  222.0430 C   0  0  0  0  0  0  0  0  0  0  0  0
  141.6384   75.8188  217.0929 H   0  0  0  0  0  0  0  0  0  0  0  0
  142.6931   77.1257  217.7706 H   0  0  0  0  0  0  0  0  0  0  0  0
  140.9494   73.9346  218.8789 H   0  0  0  0  0  0  0  0  0  0  0  0
  142.0393   72.4260  220.4984 H   0  0  0  0  0  0  0  0  0  0  0  0
  144.2152   73.0248  221.5120 H   0  0  0  0  0  0  0  0  0  0  0  0
  145.3102   75.1605  220.8846 H   0  0  0  0  0  0  0  0  0  0  0  0
  144.2306   76.6666  219.2686 H   0  0  0  0  0  0  0  0  0  0  0  0
  140.9312   79.9196  218.3405 H   0  0  0  0  0  0  0  0  0  0  0  0
  141.6130   81.6969  219.8317 H   0  0  0  0  0  0  0  0  0  0  0  0
  142.2601   82.3802  222.0011 H   0  0  0  0  0  0  0  0  0  0  0  0
  142.7670   81.9680  224.4091 H   0  0  0  0  0  0  0  0  0  0  0  0
  142.5566   79.6380  225.2590 H   0  0  0  0  0  0  0  0  0  0  0  0
  141.8699   77.7858  223.7694 H   0  0  0  0  0  0  0  0  0  0  0  0
  142.1389   77.2178  221.1835 H   0  0  0  0  0  0  0  0  0  0  0  0
  141.4051   75.1235  221.8151 H   0  0  0  0  0  0  0  0  0  0  0  0
  139.1540   74.0970  222.7170 H   0  0  0  0  0  0  0  0  0  0  0  0
  136.6158   75.0162  223.2429 H   0  0  0  0  0  0  0  0  0  0  0  0
  135.2156   77.0752  223.1714 H   0  0  0  0  0  0  0  0  0  0  0  0
  136.2086   79.2132  222.3770 H   0  0  0  0  0  0  0  0  0  0  0  0
  138.5754   79.3143  221.6504 H   0  0  0  0  0  0  0  0  0  0  0  0
  1  2  2  0
  2  3  2  0
  2  4  1  0
  4  5  1  0
  5  6  2  0
  6  7  1  0
  7  8  2  0
  8  9  1  0
  9 10  2  0
  2 11  1  0
 11 12  1  0
 12 13  2  0
 13 14  1  0
 14 15  2  0
 15 16  1  0
 16 17  2  0
 17 18  1  0
 18 19  2  0
 19 20  1  0
 20 21  1  0
 21 22  2  0
 22 23  1  0
 23 24  1  0
 24 25  2  0
 25 26  1  0
 26 27  2  0
 27 28  1  0
 28 29  2  0
 10  5  1  0
 20 11  1  0
 29 21  1  0
 19 14  1  0
 29 24  1  0
  4 30  1  0
  4 31  1  0
  6 32  1  0
  7 33  1  0
  8 34  1  0
  9 35  1  0
 10 36  1  0
 12 37  1  0
 13 38  1  0
 15 39  1  0
 16 40  1  0
 17 41  1  0
 18 42  1  0
 20 43  1  6
 22 44  1  0
 23 45  1  0
 25 46  1  0
 26 47  1  0
 27 48  1  0
 28 49  1  0
M  END
>  <smiles>  (94) 
O=S(=O)(Cc1ccccc1)N1C=Cc2ccccc2C1c1c[nH]c2ccccc12

>  <score_type>  (94) 
oracle

>  <origin>  (94) 
autodockgpu

>  <m_score__min__energy>  (94) 
-7.8499999999999996

>  <m_primary>  (94) 
energy

>  <rmsd>  (94) 
4.9777729995631645

>  <m_score__min__rmsd>  (94) 
4.9777729995631645

>  <meeko>  (94) 
{"free_energy": -7.3, "intermolecular_energy": -8.49, "internal_energy": -2.24, "cluster_size": 35, "cluster_id": 4, "rank_in_cluster": 15}

>  <energy>  (94) 
-7.25

>  <cluster_rmsd>  (94) 
0.74

>  <cluster>  (94) 
4

$$$$

     RDKit          3D

 49 53  0  0  1  0  0  0  0  0999 V2000
  139.6650   76.0540  219.3290 O   0  0  0  0  0  0  0  0  0  0  0  0
  140.4870   77.1220  218.6920 S   0  0  0  0  0  0  0  0  0  0  0  0
  139.6950   77.8050  217.6120 O   0  0  0  0  0  0  0  0  0  0  0  0
  141.9100   76.3480  217.9640 C   0  0  0  0  0  0  0  0  0  0  0  0
  142.5840   75.4550  218.9200 C   0  0  0  0  0  0  0  0  0  0  0  0
  143.7540   75.7790  219.5850 C   0  0  0  0  0  0  0  0  0  0  0  0
  144.3250   74.8880  220.4660 C   0  0  0  0  0  0  0  0  0  0  0  0
  143.7480   73.6620  220.7020 C   0  0  0  0  0  0  0  0  0  0  0  0
  142.5870   73.3280  220.0480 C   0  0  0  0  0  0  0  0  0  0  0  0
  142.0180   74.2170  219.1710 C   0  0  0  0  0  0  0  0  0  0  0  0
  140.9990   78.2980  219.8470 N   0  0  0  0  0  0  0  0  0  0  0  0
  141.1630   79.6280  219.3870 C   0  0  0  0  0  0  0  0  0  0  0  0
  141.5420   80.6050  220.1860 C   0  0  0  0  0  0  0  0  0  0  0  0
  141.7930   80.2800  221.5830 C   0  0  0  0  0  0  0  0  0  0  0  0
  142.1830   81.3150  222.4030 C   0  0  0  0  0  0  0  0  0  0  0  0
  142.4400   81.1070  223.7410 C   0  0  0  0  0  0  0  0  0  0  0  0
  142.2860   79.8220  224.2120 C   0  0  0  0  0  0  0  0  0  0  0  0
  141.8880   78.7700  223.3730 C   0  0  0  0  0  0  0  0  0  0  0  0
  141.6300   78.9760  222.0300 C   0  0  0  0  0  0  0  0  0  0  0  0
  141.2230   77.8520  221.1990 C   0  0  1  0  0  0  0  0  0  0  0  0
  140.1590   76.9850  221.7180 C   0  0  0  0  0  0  0  0  0  0  0  0
  140.3390   75.6290  221.9710 C   0  0  0  0  0  0  0  0  0  0  0  0
  139.1910   75.0960  222.4290 N   0  0  0  0  0  0  0  0  0  0  0  0
  138.2630   76.0740  222.4830 C   0  0  0  0  0  0  0  0  0  0  0  0
  136.9360   76.0390  222.8860 C   0  0  0  0  0  0  0  0  0  0  0  0
  136.1940   77.2000  222.8470 C   0  0  0  0  0  0  0  0  0  0  0  0
  136.7880   78.3810  222.4070 C   0  0  0  0  0  0  0  0  0  0  0  0
  138.1080   78.4070  222.0080 C   0  0  0  0  0  0  0  0  0  0  0  0
  138.8460   77.2440  222.0460 C   0  0  0  0  0  0  0  0  0  0  0  0
  141.5903   75.7611  217.0903 H   0  0  0  0  0  0  0  0  0  0  0  0
  142.6185   77.1355  217.6675 H   0  0  0  0  0  0  0  0  0  0  0  0
  144.2307   76.7545  219.4085 H   0  0  0  0  0  0  0  0  0  0  0  0
  145.2544   75.1602  220.9877 H   0  0  0  0  0  0  0  0  0  0  0  0
  144.2114   72.9562  221.4071 H   0  0  0  0  0  0  0  0  0  0  0  0
  142.1148   72.3507  220.2268 H   0  0  0  0  0  0  0  0  0  0  0  0
  141.0879   73.9385  218.6540 H   0  0  0  0  0  0  0  0  0  0  0  0
  140.9675   79.8525  218.3280 H   0  0  0  0  0  0  0  0  0  0  0  0
  141.6646   81.6315  219.8102 H   0  0  0  0  0  0  0  0  0  0  0  0
  142.2914   82.3258  221.9828 H   0  0  0  0  0  0  0  0  0  0  0  0
  142.7534   81.9288  224.4017 H   0  0  0  0  0  0  0  0  0  0  0  0
  142.4802   79.6147  225.2747 H   0  0  0  0  0  0  0  0  0  0  0  0
  141.7788   77.7591  223.7928 H   0  0  0  0  0  0  0  0  0  0  0  0
  142.0750   77.1565  221.2183 H   0  0  0  0  0  0  0  0  0  0  0  0
  141.2777   75.0759  221.8196 H   0  0  0  0  0  0  0  0  0  0  0  0
  138.9950   74.1100  222.7090 H   0  0  0  0  0  0  0  0  0  0  0  0
  136.4825   75.0983  223.2317 H   0  0  0  0  0  0  0  0  0  0  0  0
  135.1398   77.1941  223.1612 H   0  0  0  0  0  0  0  0  0  0  0  0
  136.1950   79.3070  222.3774 H   0  0  0  0  0  0  0  0  0  0  0  0
  138.5665   79.3456  221.6633 H   0  0  0  0  0  0  0  0  0  0  0  0
  1  2  2  0
  2  3  2  0
  2  4  1  0
  4  5  1  0
  5  6  2  0
  6  7  1  0
  7  8  2  0
  8  9  1  0
  9 10  2  0
  2 11  1  0
 11 12  1  0
 12 13  2  0
 13 14  1  0
 14 15  2  0
 15 16  1  0
 16 17  2  0
 17 18  1  0
 18 19  2  0
 19 20  1  0
 20 21  1  0
 21 22  2  0
 22 23  1  0
 23 24  1  0
 24 25  2  0
 25 26  1  0
 26 27  2  0
 27 28  1  0
 28 29  2  0
 10  5  1  0
 20 11  1  0
 29 21  1  0
 19 14  1  0
 29 24  1  0
  4 30  1  0
  4 31  1  0
  6 32  1  0
  7 33  1  0
  8 34  1  0
  9 35  1  0
 10 36  1  0
 12 37  1  0
 13 38  1  0
 15 39  1  0
 16 40  1  0
 17 41  1  0
 18 42  1  0
 20 43  1  6
 22 44  1  0
 23 45  1  0
 25 46  1  0
 26 47  1  0
 27 48  1  0
 28 49  1  0
M  END
>  <smiles>  (95) 
O=S(=O)(Cc1ccccc1)N1C=Cc2ccccc2C1c1c[nH]c2ccccc12

>  <score_type>  (95) 
oracle

>  <origin>  (95) 
autodockgpu

>  <m_score__min__energy>  (95) 
-7.8499999999999996

>  <m_primary>  (95) 
energy

>  <rmsd>  (95) 
5.0234021514575815

>  <m_score__min__rmsd>  (95) 
5.0234021514575815

>  <meeko>  (95) 
{"free_energy": -7.32, "intermolecular_energy": -8.51, "internal_energy": -2.18, "cluster_size": 35, "cluster_id": 4, "rank_in_cluster": 8}

>  <energy>  (95) 
-7.24

>  <cluster_rmsd>  (95) 
0.73

>  <cluster>  (95) 
4

$$$$

     RDKit          3D

 49 53  0  0  1  0  0  0  0  0999 V2000
  140.3960   75.6790  219.3040 O   0  0  0  0  0  0  0  0  0  0  0  0
  140.9150   76.9110  218.6430 S   0  0  0  0  0  0  0  0  0  0  0  0
  139.8920   77.4480  217.6830 O   0  0  0  0  0  0  0  0  0  0  0  0
  142.3780   76.4650  217.7410 C   0  0  0  0  0  0  0  0  0  0  0  0
  143.2190   75.5320  218.5080 C   0  0  0  0  0  0  0  0  0  0  0  0
  143.6870   75.7880  219.7860 C   0  0  0  0  0  0  0  0  0  0  0  0
  144.4710   74.8640  220.4400 C   0  0  0  0  0  0  0  0  0  0  0  0
  144.8050   73.6720  219.8400 C   0  0  0  0  0  0  0  0  0  0  0  0
  144.3470   73.4060  218.5720 C   0  0  0  0  0  0  0  0  0  0  0  0
  143.5650   74.3270  217.9210 C   0  0  0  0  0  0  0  0  0  0  0  0
  141.3010   78.1320  219.8010 N   0  0  0  0  0  0  0  0  0  0  0  0
  141.4720   79.4520  219.3150 C   0  0  0  0  0  0  0  0  0  0  0  0
  141.7590   80.4620  220.1120 C   0  0  0  0  0  0  0  0  0  0  0  0
  141.9010   80.1830  221.5340 C   0  0  0  0  0  0  0  0  0  0  0  0
  142.1970   81.2510  222.3510 C   0  0  0  0  0  0  0  0  0  0  0  0
  142.3470   81.0880  223.7120 C   0  0  0  0  0  0  0  0  0  0  0  0
  142.1850   79.8130  224.2070 C   0  0  0  0  0  0  0  0  0  0  0  0
  141.8830   78.7280  223.3720 C   0  0  0  0  0  0  0  0  0  0  0  0
  141.7330   78.8890  222.0060 C   0  0  0  0  0  0  0  0  0  0  0  0
  141.4230   77.7310  221.1790 C   0  0  1  0  0  0  0  0  0  0  0  0
  140.3410   76.8520  221.6350 C   0  0  0  0  0  0  0  0  0  0  0  0
  140.5360   75.5170  221.9740 C   0  0  0  0  0  0  0  0  0  0  0  0
  139.3660   74.9650  222.3440 N   0  0  0  0  0  0  0  0  0  0  0  0
  138.4080   75.9100  222.2570 C   0  0  0  0  0  0  0  0  0  0  0  0
  137.0480   75.8460  222.5300 C   0  0  0  0  0  0  0  0  0  0  0  0
  136.2780   76.9770  222.3600 C   0  0  0  0  0  0  0  0  0  0  0  0
  136.8750   78.1560  221.9200 C   0  0  0  0  0  0  0  0  0  0  0  0
  138.2270   78.2100  221.6510 C   0  0  0  0  0  0  0  0  0  0  0  0
  138.9940   77.0780  221.8200 C   0  0  0  0  0  0  0  0  0  0  0  0
  142.0833   75.9864  216.7954 H   0  0  0  0  0  0  0  0  0  0  0  0
  142.9597   77.3792  217.5515 H   0  0  0  0  0  0  0  0  0  0  0  0
  143.4307   76.7358  220.2820 H   0  0  0  0  0  0  0  0  0  0  0  0
  144.8348   75.0818  221.4550 H   0  0  0  0  0  0  0  0  0  0  0  0
  145.4320   72.9396  220.3696 H   0  0  0  0  0  0  0  0  0  0  0  0
  144.6066   72.4571  218.0799 H   0  0  0  0  0  0  0  0  0  0  0  0
  143.2039   74.1019  216.9067 H   0  0  0  0  0  0  0  0  0  0  0  0
  141.3616   79.6402  218.2369 H   0  0  0  0  0  0  0  0  0  0  0  0
  141.8868   81.4804  219.7164 H   0  0  0  0  0  0  0  0  0  0  0  0
  142.3159   82.2518  221.9103 H   0  0  0  0  0  0  0  0  0  0  0  0
  142.5847   81.9360  224.3711 H   0  0  0  0  0  0  0  0  0  0  0  0
  142.2957   79.6411  225.2878 H   0  0  0  0  0  0  0  0  0  0  0  0
  141.7627   77.7272  223.8123 H   0  0  0  0  0  0  0  0  0  0  0  0
  142.2868   77.0589  221.2895 H   0  0  0  0  0  0  0  0  0  0  0  0
  141.5019   74.9914  221.9441 H   0  0  0  0  0  0  0  0  0  0  0  0
  139.1750   73.9860  222.6540 H   0  0  0  0  0  0  0  0  0  0  0  0
  136.5918   74.9070  222.8767 H   0  0  0  0  0  0  0  0  0  0  0  0
  135.1987   76.9484  222.5706 H   0  0  0  0  0  0  0  0  0  0  0  0
  136.2593   79.0575  221.7850 H   0  0  0  0  0  0  0  0  0  0  0  0
  138.6879   79.1470  221.3052 H   0  0  0  0  0  0  0  0  0  0  0  0
  1  2  2  0
  2  3  2  0
  2  4  1  0
  4  5  1  0
  5  6  2  0
  6  7  1  0
  7  8  2  0
  8  9  1  0
  9 10  2  0
  2 11  1  0
 11 12  1  0
 12 13  2  0
 13 14  1  0
 14 15  2  0
 15 16  1  0
 16 17  2  0
 17 18  1  0
 18 19  2  0
 19 20  1  0
 20 21  1  0
 21 22  2  0
 22 23  1  0
 23 24  1  0
 24 25  2  0
 25 26  1  0
 26 27  2  0
 27 28  1  0
 28 29  2  0
 10  5  1  0
 20 11  1  0
 29 21  1  0
 19 14  1  0
 29 24  1  0
  4 30  1  0
  4 31  1  0
  6 32  1  0
  7 33  1  0
  8 34  1  0
  9 35  1  0
 10 36  1  0
 12 37  1  0
 13 38  1  0
 15 39  1  0
 16 40  1  0
 17 41  1  0
 18 42  1  0
 20 43  1  6
 22 44  1  0
 23 45  1  0
 25 46  1  0
 26 47  1  0
 27 48  1  0
 28 49  1  0
M  END
>  <smiles>  (96) 
O=S(=O)(Cc1ccccc1)N1C=Cc2ccccc2C1c1c[nH]c2ccccc12

>  <score_type>  (96) 
oracle

>  <origin>  (96) 
autodockgpu

>  <m_score__min__energy>  (96) 
-7.8499999999999996

>  <m_primary>  (96) 
energy

>  <rmsd>  (96) 
4.890423376100315

>  <m_score__min__rmsd>  (96) 
4.890423376100315

>  <meeko>  (96) 
{"free_energy": -7.5, "intermolecular_energy": -8.69, "internal_energy": -1.89, "cluster_size": 35, "cluster_id": 4, "rank_in_cluster": 1}

>  <energy>  (96) 
-7.14

>  <cluster_rmsd>  (96) 
0.78

>  <cluster>  (96) 
4

$$$$

     RDKit          3D

 49 53  0  0  1  0  0  0  0  0999 V2000
  137.9080   68.2560  225.7240 O   0  0  0  0  0  0  0  0  0  0  0  0
  139.0690   68.4990  224.8210 S   0  0  0  0  0  0  0  0  0  0  0  0
  139.2060   67.3650  223.8440 O   0  0  0  0  0  0  0  0  0  0  0  0
  140.5300   68.5750  225.8280 C   0  0  0  0  0  0  0  0  0  0  0  0
  140.6390   69.8700  226.5200 C   0  0  0  0  0  0  0  0  0  0  0  0
  141.3900   70.9330  226.0510 C   0  0  0  0  0  0  0  0  0  0  0  0
  141.4430   72.1150  226.7560 C   0  0  0  0  0  0  0  0  0  0  0  0
  140.7530   72.2630  227.9370 C   0  0  0  0  0  0  0  0  0  0  0  0
  140.0030   71.2140  228.4130 C   0  0  0  0  0  0  0  0  0  0  0  0
  139.9510   70.0370  227.7090 C   0  0  0  0  0  0  0  0  0  0  0  0
  138.8910   69.9780  223.9500 N   0  0  0  0  0  0  0  0  0  0  0  0
  140.0160   70.4400  223.2230 C   0  0  0  0  0  0  0  0  0  0  0  0
  139.9880   71.5520  222.5160 C   0  0  0  0  0  0  0  0  0  0  0  0
  138.7470   72.3130  222.5000 C   0  0  0  0  0  0  0  0  0  0  0  0
  138.7340   73.4690  221.7530 C   0  0  0  0  0  0  0  0  0  0  0  0
  137.6050   74.2550  221.6720 C   0  0  0  0  0  0  0  0  0  0  0  0
  136.4970   73.8260  222.3710 C   0  0  0  0  0  0  0  0  0  0  0  0
  136.5130   72.6470  223.1300 C   0  0  0  0  0  0  0  0  0  0  0  0
  137.6460   71.8570  223.2130 C   0  0  0  0  0  0  0  0  0  0  0  0
  137.6150   70.6440  224.0170 C   0  0  1  0  0  0  0  0  0  0  0  0
  136.4710   69.7450  223.8300 C   0  0  0  0  0  0  0  0  0  0  0  0
  136.3510   68.8800  222.7470 C   0  0  0  0  0  0  0  0  0  0  0  0
  135.1980   68.1920  222.8400 N   0  0  0  0  0  0  0  0  0  0  0  0
  134.5600   68.5860  223.9610 C   0  0  0  0  0  0  0  0  0  0  0  0
  133.3480   68.1790  224.5020 C   0  0  0  0  0  0  0  0  0  0  0  0
  132.9180   68.7470  225.6820 C   0  0  0  0  0  0  0  0  0  0  0  0
  133.7040   69.7130  226.3070 C   0  0  0  0  0  0  0  0  0  0  0  0
  134.9060   70.1120  225.7620 C   0  0  0  0  0  0  0  0  0  0  0  0
  135.3330   69.5430  224.5810 C   0  0  0  0  0  0  0  0  0  0  0  0
  140.4902   67.7709  226.5776 H   0  0  0  0  0  0  0  0  0  0  0  0
  141.4071   68.4567  225.1748 H   0  0  0  0  0  0  0  0  0  0  0  0
  141.9486   70.8335  225.1086 H   0  0  0  0  0  0  0  0  0  0  0  0
  142.0445   72.9511  226.3700 H   0  0  0  0  0  0  0  0  0  0  0  0
  140.8010   73.2102  228.4942 H   0  0  0  0  0  0  0  0  0  0  0  0
  139.4459   71.3176  229.3558 H   0  0  0  0  0  0  0  0  0  0  0  0
  139.3469   69.2050  228.0999 H   0  0  0  0  0  0  0  0  0  0  0  0
  140.9444   69.8506  223.2496 H   0  0  0  0  0  0  0  0  0  0  0  0
  140.8719   71.8933  221.9573 H   0  0  0  0  0  0  0  0  0  0  0  0
  139.6419   73.7711  221.2105 H   0  0  0  0  0  0  0  0  0  0  0  0
  137.5887   75.1806  221.0779 H   0  0  0  0  0  0  0  0  0  0  0  0
  135.5751   74.4249  222.3323 H   0  0  0  0  0  0  0  0  0  0  0  0
  135.6048   72.3435  223.6714 H   0  0  0  0  0  0  0  0  0  0  0  0
  137.4350   70.9866  225.0467 H   0  0  0  0  0  0  0  0  0  0  0  0
  137.0875   68.7743  221.9368 H   0  0  0  0  0  0  0  0  0  0  0  0
  134.8150   67.4700  222.1900 H   0  0  0  0  0  0  0  0  0  0  0  0
  132.7398   67.4145  223.9964 H   0  0  0  0  0  0  0  0  0  0  0  0
  131.9604   68.4396  226.1275 H   0  0  0  0  0  0  0  0  0  0  0  0
  133.3603   70.1641  227.2495 H   0  0  0  0  0  0  0  0  0  0  0  0
  135.5177   70.8761  226.2640 H   0  0  0  0  0  0  0  0  0  0  0  0
  1  2  2  0
  2  3  2  0
  2  4  1  0
  4  5  1  0
  5  6  2  0
  6  7  1  0
  7  8  2  0
  8  9  1  0
  9 10  2  0
  2 11  1  0
 11 12  1  0
 12 13  2  0
 13 14  1  0
 14 15  2  0
 15 16  1  0
 16 17  2  0
 17 18  1  0
 18 19  2  0
 19 20  1  0
 20 21  1  0
 21 22  2  0
 22 23  1  0
 23 24  1  0
 24 25  2  0
 25 26  1  0
 26 27  2  0
 27 28  1  0
 28 29  2  0
 10  5  1  0
 20 11  1  0
 29 21  1  0
 19 14  1  0
 29 24  1  0
  4 30  1  0
  4 31  1  0
  6 32  1  0
  7 33  1  0
  8 34  1  0
  9 35  1  0
 10 36  1  0
 12 37  1  0
 13 38  1  0
 15 39  1  0
 16 40  1  0
 17 41  1  0
 18 42  1  0
 20 43  1  1
 22 44  1  0
 23 45  1  0
 25 46  1  0
 26 47  1  0
 27 48  1  0
 28 49  1  0
M  END
>  <smiles>  (97) 
O=S(=O)(Cc1ccccc1)N1C=Cc2ccccc2C1c1c[nH]c2ccccc12

>  <score_type>  (97) 
oracle

>  <origin>  (97) 
autodockgpu

>  <m_score__min__energy>  (97) 
-7.8499999999999996

>  <m_primary>  (97) 
energy

>  <rmsd>  (97) 
11.934871285346045

>  <m_score__min__rmsd>  (97) 
11.934871285346045

>  <meeko>  (97) 
{"free_energy": -7.53, "intermolecular_energy": -8.72, "internal_energy": -2.1, "cluster_size": 2, "cluster_id": 3, "rank_in_cluster": 1}

>  <energy>  (97) 
-7.14

>  <cluster_rmsd>  (97) 
0.8

>  <cluster>  (97) 
4

$$$$

     RDKit          3D

 49 53  0  0  1  0  0  0  0  0999 V2000
  136.1570   68.1730  223.1220 O   0  0  0  0  0  0  0  0  0  0  0  0
  136.1150   69.4370  223.9120 S   0  0  0  0  0  0  0  0  0  0  0  0
  136.5030   69.1640  225.3390 O   0  0  0  0  0  0  0  0  0  0  0  0
  134.4480   70.0460  223.8700 C   0  0  0  0  0  0  0  0  0  0  0  0
  134.1450   70.8650  225.0550 C   0  0  0  0  0  0  0  0  0  0  0  0
  134.0400   70.3550  226.3380 C   0  0  0  0  0  0  0  0  0  0  0  0
  133.7530   71.1870  227.3970 C   0  0  0  0  0  0  0  0  0  0  0  0
  133.5640   72.5360  227.2030 C   0  0  0  0  0  0  0  0  0  0  0  0
  133.6650   73.0530  225.9340 C   0  0  0  0  0  0  0  0  0  0  0  0
  133.9520   72.2240  224.8790 C   0  0  0  0  0  0  0  0  0  0  0  0
  137.1800   70.6260  223.2550 N   0  0  0  0  0  0  0  0  0  0  0  0
  136.6090   71.8640  222.8700 C   0  0  0  0  0  0  0  0  0  0  0  0
  137.3310   72.8440  222.3660 C   0  0  0  0  0  0  0  0  0  0  0  0
  138.7610   72.6210  222.2090 C   0  0  0  0  0  0  0  0  0  0  0  0
  139.5000   73.6580  221.6850 C   0  0  0  0  0  0  0  0  0  0  0  0
  140.8610   73.5440  221.5030 C   0  0  0  0  0  0  0  0  0  0  0  0
  141.4400   72.3490  221.8710 C   0  0  0  0  0  0  0  0  0  0  0  0
  140.6840   71.2950  222.4050 C   0  0  0  0  0  0  0  0  0  0  0  0
  139.3180   71.4070  222.5880 C   0  0  0  0  0  0  0  0  0  0  0  0
  138.5750   70.2840  223.1430 C   0  0  1  0  0  0  0  0  0  0  0  0
  139.1250   69.6460  224.3440 C   0  0  0  0  0  0  0  0  0  0  0  0
  139.0890   68.2720  224.5600 C   0  0  0  0  0  0  0  0  0  0  0  0
  139.6560   67.9820  225.7460 N   0  0  0  0  0  0  0  0  0  0  0  0
  140.0640   69.1370  226.3110 C   0  0  0  0  0  0  0  0  0  0  0  0
  140.7030   69.3740  227.5200 C   0  0  0  0  0  0  0  0  0  0  0  0
  141.0200   70.6700  227.8660 C   0  0  0  0  0  0  0  0  0  0  0  0
  140.6940   71.7120  227.0010 C   0  0  0  0  0  0  0  0  0  0  0  0
  140.0580   71.4670  225.8020 C   0  0  0  0  0  0  0  0  0  0  0  0
  139.7420   70.1710  225.4590 C   0  0  0  0  0  0  0  0  0  0  0  0
  134.3139   70.6597  222.9670 H   0  0  0  0  0  0  0  0  0  0  0  0
  133.7648   69.1839  223.8613 H   0  0  0  0  0  0  0  0  0  0  0  0
  134.1867   69.2789  226.5123 H   0  0  0  0  0  0  0  0  0  0  0  0
  133.6738   70.7678  228.4109 H   0  0  0  0  0  0  0  0  0  0  0  0
  133.3345   73.1934  228.0546 H   0  0  0  0  0  0  0  0  0  0  0  0
  133.5160   74.1296  225.7642 H   0  0  0  0  0  0  0  0  0  0  0  0
  134.0306   72.6503  223.8680 H   0  0  0  0  0  0  0  0  0  0  0  0
  135.5263   72.0120  222.9961 H   0  0  0  0  0  0  0  0  0  0  0  0
  136.8689   73.7985  222.0737 H   0  0  0  0  0  0  0  0  0  0  0  0
  138.9946   74.5945  221.4066 H   0  0  0  0  0  0  0  0  0  0  0  0
  141.4571   74.3680  221.0838 H   0  0  0  0  0  0  0  0  0  0  0  0
  142.5246   72.2180  221.7425 H   0  0  0  0  0  0  0  0  0  0  0  0
  141.1890   70.3586  222.6844 H   0  0  0  0  0  0  0  0  0  0  0  0
  138.6930   69.4705  222.4120 H   0  0  0  0  0  0  0  0  0  0  0  0
  138.6614   67.5335  223.8659 H   0  0  0  0  0  0  0  0  0  0  0  0
  139.7850   67.0500  226.1970 H   0  0  0  0  0  0  0  0  0  0  0  0
  140.9528   68.5399  228.1922 H   0  0  0  0  0  0  0  0  0  0  0  0
  141.5272   70.8801  228.8192 H   0  0  0  0  0  0  0  0  0  0  0  0
  140.9476   72.7458  227.2784 H   0  0  0  0  0  0  0  0  0  0  0  0
  139.8058   72.2979  225.1267 H   0  0  0  0  0  0  0  0  0  0  0  0
  1  2  2  0
  2  3  2  0
  2  4  1  0
  4  5  1  0
  5  6  2  0
  6  7  1  0
  7  8  2  0
  8  9  1  0
  9 10  2  0
  2 11  1  0
 11 12  1  0
 12 13  2  0
 13 14  1  0
 14 15  2  0
 15 16  1  0
 16 17  2  0
 17 18  1  0
 18 19  2  0
 19 20  1  0
 20 21  1  0
 21 22  2  0
 22 23  1  0
 23 24  1  0
 24 25  2  0
 25 26  1  0
 26 27  2  0
 27 28  1  0
 28 29  2  0
 10  5  1  0
 20 11  1  0
 29 21  1  0
 19 14  1  0
 29 24  1  0
  4 30  1  0
  4 31  1  0
  6 32  1  0
  7 33  1  0
  8 34  1  0
  9 35  1  0
 10 36  1  0
 12 37  1  0
 13 38  1  0
 15 39  1  0
 16 40  1  0
 17 41  1  0
 18 42  1  0
 20 43  1  6
 22 44  1  0
 23 45  1  0
 25 46  1  0
 26 47  1  0
 27 48  1  0
 28 49  1  0
M  END
>  <smiles>  (98) 
O=S(=O)(Cc1ccccc1)N1C=Cc2ccccc2C1c1c[nH]c2ccccc12

>  <score_type>  (98) 
oracle

>  <origin>  (98) 
autodockgpu

>  <m_score__min__energy>  (98) 
-7.8499999999999996

>  <m_primary>  (98) 
energy

>  <rmsd>  (98) 
10.830326556886137

>  <m_score__min__rmsd>  (98) 
10.830326556886137

>  <meeko>  (98) 
{"free_energy": -7.61, "intermolecular_energy": -8.8, "internal_energy": -1.91, "cluster_size": 7, "cluster_id": 2, "rank_in_cluster": 3}

>  <energy>  (98) 
-7.06

>  <cluster_rmsd>  (98) 
0.9

>  <cluster>  (98) 
4

$$$$

     RDKit          3D

 49 53  0  0  1  0  0  0  0  0999 V2000
  139.5580   76.0600  219.3240 O   0  0  0  0  0  0  0  0  0  0  0  0
  140.4080   77.1080  218.6900 S   0  0  0  0  0  0  0  0  0  0  0  0
  139.6390   77.8050  217.6030 O   0  0  0  0  0  0  0  0  0  0  0  0
  141.8190   76.3010  217.9760 C   0  0  0  0  0  0  0  0  0  0  0  0
  142.4910   75.4280  218.9530 C   0  0  0  0  0  0  0  0  0  0  0  0
  143.6940   75.7360  219.5630 C   0  0  0  0  0  0  0  0  0  0  0  0
  144.2610   74.8660  220.4680 C   0  0  0  0  0  0  0  0  0  0  0  0
  143.6450   73.6770  220.7830 C   0  0  0  0  0  0  0  0  0  0  0  0
  142.4500   73.3600  220.1840 C   0  0  0  0  0  0  0  0  0  0  0  0
  141.8860   74.2270  219.2830 C   0  0  0  0  0  0  0  0  0  0  0  0
  140.9360   78.2760  219.8470 N   0  0  0  0  0  0  0  0  0  0  0  0
  141.0830   79.6110  219.3960 C   0  0  0  0  0  0  0  0  0  0  0  0
  141.4720   80.5840  220.1960 C   0  0  0  0  0  0  0  0  0  0  0  0
  141.7520   80.2470  221.5850 C   0  0  0  0  0  0  0  0  0  0  0  0
  142.1520   81.2760  222.4070 C   0  0  0  0  0  0  0  0  0  0  0  0
  142.4370   81.0580  223.7380 C   0  0  0  0  0  0  0  0  0  0  0  0
  142.3000   79.7670  224.1990 C   0  0  0  0  0  0  0  0  0  0  0  0
  141.8910   78.7210  223.3590 C   0  0  0  0  0  0  0  0  0  0  0  0
  141.6060   78.9380  222.0230 C   0  0  0  0  0  0  0  0  0  0  0  0
  141.1890   77.8200  221.1890 C   0  0  1  0  0  0  0  0  0  0  0  0
  140.1410   76.9410  221.7210 C   0  0  0  0  0  0  0  0  0  0  0  0
  140.3340   75.5860  221.9630 C   0  0  0  0  0  0  0  0  0  0  0  0
  139.1980   75.0410  222.4370 N   0  0  0  0  0  0  0  0  0  0  0  0
  138.2650   76.0120  222.5130 C   0  0  0  0  0  0  0  0  0  0  0  0
  136.9440   75.9640  222.9380 C   0  0  0  0  0  0  0  0  0  0  0  0
  136.1940   77.1200  222.9190 C   0  0  0  0  0  0  0  0  0  0  0  0
  136.7710   78.3080  222.4760 C   0  0  0  0  0  0  0  0  0  0  0  0
  138.0840   78.3460  222.0550 C   0  0  0  0  0  0  0  0  0  0  0  0
  138.8320   77.1880  222.0730 C   0  0  0  0  0  0  0  0  0  0  0  0
  141.4887   75.6931  217.1208 H   0  0  0  0  0  0  0  0  0  0  0  0
  142.5329   77.0734  217.6538 H   0  0  0  0  0  0  0  0  0  0  0  0
  144.2012   76.6823  219.3236 H   0  0  0  0  0  0  0  0  0  0  0  0
  145.2179   75.1251  220.9446 H   0  0  0  0  0  0  0  0  0  0  0  0
  144.1043   72.9875  221.5067 H   0  0  0  0  0  0  0  0  0  0  0  0
  141.9463   72.4126  220.4265 H   0  0  0  0  0  0  0  0  0  0  0  0
  140.9288   73.9614  218.8106 H   0  0  0  0  0  0  0  0  0  0  0  0
  140.8653   79.8434  218.3431 H   0  0  0  0  0  0  0  0  0  0  0  0
  141.5813   81.6146  219.8273 H   0  0  0  0  0  0  0  0  0  0  0  0
  142.2460   82.2912  221.9941 H   0  0  0  0  0  0  0  0  0  0  0  0
  142.7583   81.8755  224.4001 H   0  0  0  0  0  0  0  0  0  0  0  0
  142.5175   79.5506  225.2554 H   0  0  0  0  0  0  0  0  0  0  0  0
  141.7948   77.7059  223.7716 H   0  0  0  0  0  0  0  0  0  0  0  0
  142.0458   77.1302  221.1844 H   0  0  0  0  0  0  0  0  0  0  0  0
  141.2740   75.0407  221.7927 H   0  0  0  0  0  0  0  0  0  0  0  0
  139.0150   74.0510  222.7150 H   0  0  0  0  0  0  0  0  0  0  0  0
  136.5029   75.0178  223.2845 H   0  0  0  0  0  0  0  0  0  0  0  0
  135.1457   77.1047  223.2518 H   0  0  0  0  0  0  0  0  0  0  0  0
  136.1706   79.2296  222.4617 H   0  0  0  0  0  0  0  0  0  0  0  0
  138.5295   79.2902  221.7086 H   0  0  0  0  0  0  0  0  0  0  0  0
  1  2  2  0
  2  3  2  0
  2  4  1  0
  4  5  1  0
  5  6  2  0
  6  7  1  0
  7  8  2  0
  8  9  1  0
  9 10  2  0
  2 11  1  0
 11 12  1  0
 12 13  2  0
 13 14  1  0
 14 15  2  0
 15 16  1  0
 16 17  2  0
 17 18  1  0
 18 19  2  0
 19 20  1  0
 20 21  1  0
 21 22  2  0
 22 23  1  0
 23 24  1  0
 24 25  2  0
 25 26  1  0
 26 27  2  0
 27 28  1  0
 28 29  2  0
 10  5  1  0
 20 11  1  0
 29 21  1  0
 19 14  1  0
 29 24  1  0
  4 30  1  0
  4 31  1  0
  6 32  1  0
  7 33  1  0
  8 34  1  0
  9 35  1  0
 10 36  1  0
 12 37  1  0
 13 38  1  0
 15 39  1  0
 16 40  1  0
 17 41  1  0
 18 42  1  0
 20 43  1  6
 22 44  1  0
 23 45  1  0
 25 46  1  0
 26 47  1  0
 27 48  1  0
 28 49  1  0
M  END
>  <smiles>  (99) 
O=S(=O)(Cc1ccccc1)N1C=Cc2ccccc2C1c1c[nH]c2ccccc12

>  <score_type>  (99) 
oracle

>  <origin>  (99) 
autodockgpu

>  <m_score__min__energy>  (99) 
-7.8499999999999996

>  <m_primary>  (99) 
energy

>  <rmsd>  (99) 
5.045939372385875

>  <m_score__min__rmsd>  (99) 
5.045939372385875

>  <meeko>  (99) 
{"free_energy": -7.28, "intermolecular_energy": -8.47, "internal_energy": -2.23, "cluster_size": 35, "cluster_id": 4, "rank_in_cluster": 26}

>  <energy>  (99) 
-7.04

>  <cluster_rmsd>  (99) 
0.93

>  <cluster>  (99) 
4

$$$$

     RDKit          3D

 49 53  0  0  1  0  0  0  0  0999 V2000
  139.6810   76.1050  219.2940 O   0  0  0  0  0  0  0  0  0  0  0  0
  140.5380   77.1570  218.6760 S   0  0  0  0  0  0  0  0  0  0  0  0
  139.7880   77.8480  217.5710 O   0  0  0  0  0  0  0  0  0  0  0  0
  141.9690   76.3580  217.9940 C   0  0  0  0  0  0  0  0  0  0  0  0
  142.5450   75.3880  218.9390 C   0  0  0  0  0  0  0  0  0  0  0  0
  141.9560   74.1760  219.2540 C   0  0  0  0  0  0  0  0  0  0  0  0
  142.5570   73.3200  220.1500 C   0  0  0  0  0  0  0  0  0  0  0  0
  143.7500   73.6510  220.7490 C   0  0  0  0  0  0  0  0  0  0  0  0
  144.3450   74.8510  220.4440 C   0  0  0  0  0  0  0  0  0  0  0  0
  143.7460   75.7030  219.5510 C   0  0  0  0  0  0  0  0  0  0  0  0
  141.0340   78.3310  219.8410 N   0  0  0  0  0  0  0  0  0  0  0  0
  141.1610   79.6700  219.3970 C   0  0  0  0  0  0  0  0  0  0  0  0
  141.5240   80.6460  220.2050 C   0  0  0  0  0  0  0  0  0  0  0  0
  141.7990   80.3090  221.5940 C   0  0  0  0  0  0  0  0  0  0  0  0
  142.1730   81.3420  222.4240 C   0  0  0  0  0  0  0  0  0  0  0  0
  142.4500   81.1240  223.7560 C   0  0  0  0  0  0  0  0  0  0  0  0
  142.3340   79.8290  224.2110 C   0  0  0  0  0  0  0  0  0  0  0  0
  141.9520   78.7790  223.3630 C   0  0  0  0  0  0  0  0  0  0  0  0
  141.6740   78.9960  222.0260 C   0  0  0  0  0  0  0  0  0  0  0  0
  141.2840   77.8730  221.1840 C   0  0  1  0  0  0  0  0  0  0  0  0
  140.2480   76.9740  221.7040 C   0  0  0  0  0  0  0  0  0  0  0  0
  140.4730   75.6270  221.9700 C   0  0  0  0  0  0  0  0  0  0  0  0
  139.3420   75.0580  222.4250 N   0  0  0  0  0  0  0  0  0  0  0  0
  138.3800   76.0030  222.4640 C   0  0  0  0  0  0  0  0  0  0  0  0
  137.0520   75.9240  222.8590 C   0  0  0  0  0  0  0  0  0  0  0  0
  136.2700   77.0590  222.8060 C   0  0  0  0  0  0  0  0  0  0  0  0
  136.8250   78.2560  222.3600 C   0  0  0  0  0  0  0  0  0  0  0  0
  138.1460   78.3240  221.9680 C   0  0  0  0  0  0  0  0  0  0  0  0
  138.9250   77.1890  222.0220 C   0  0  0  0  0  0  0  0  0  0  0  0
  141.6796   75.8313  217.0727 H   0  0  0  0  0  0  0  0  0  0  0  0
  142.7267   77.1270  217.7830 H   0  0  0  0  0  0  0  0  0  0  0  0
  141.0014   73.8944  218.7856 H   0  0  0  0  0  0  0  0  0  0  0  0
  142.0770   72.3597  220.3895 H   0  0  0  0  0  0  0  0  0  0  0  0
  144.2226   72.9622  221.4646 H   0  0  0  0  0  0  0  0  0  0  0  0
  145.2997   75.1282  220.9148 H   0  0  0  0  0  0  0  0  0  0  0  0
  144.2326   76.6610  219.3153 H   0  0  0  0  0  0  0  0  0  0  0  0
  140.9497   79.9031  218.3430 H   0  0  0  0  0  0  0  0  0  0  0  0
  141.6160   81.6803  219.8419 H   0  0  0  0  0  0  0  0  0  0  0  0
  142.2521   82.3605  222.0160 H   0  0  0  0  0  0  0  0  0  0  0  0
  142.7495   81.9449  224.4242 H   0  0  0  0  0  0  0  0  0  0  0  0
  142.5468   79.6124  225.2683 H   0  0  0  0  0  0  0  0  0  0  0  0
  141.8718   77.7605  223.7706 H   0  0  0  0  0  0  0  0  0  0  0  0
  142.1524   77.1978  221.1835 H   0  0  0  0  0  0  0  0  0  0  0  0
  141.4314   75.1057  221.8294 H   0  0  0  0  0  0  0  0  0  0  0  0
  139.1790   74.0670  222.7120 H   0  0  0  0  0  0  0  0  0  0  0  0
  136.6294   74.9707  223.2090 H   0  0  0  0  0  0  0  0  0  0  0  0
  135.2148   77.0190  223.1140 H   0  0  0  0  0  0  0  0  0  0  0  0
  136.2007   79.1608  222.3197 H   0  0  0  0  0  0  0  0  0  0  0  0
  138.5729   79.2747  221.6159 H   0  0  0  0  0  0  0  0  0  0  0  0
  1  2  2  0
  2  3  2  0
  2  4  1  0
  4  5  1  0
  5  6  2  0
  6  7  1  0
  7  8  2  0
  8  9  1  0
  9 10  2  0
  2 11  1  0
 11 12  1  0
 12 13  2  0
 13 14  1  0
 14 15  2  0
 15 16  1  0
 16 17  2  0
 17 18  1  0
 18 19  2  0
 19 20  1  0
 20 21  1  0
 21 22  2  0
 22 23  1  0
 23 24  1  0
 24 25  2  0
 25 26  1  0
 26 27  2  0
 27 28  1  0
 28 29  2  0
 10  5  1  0
 20 11  1  0
 29 21  1  0
 19 14  1  0
 29 24  1  0
  4 30  1  0
  4 31  1  0
  6 32  1  0
  7 33  1  0
  8 34  1  0
  9 35  1  0
 10 36  1  0
 12 37  1  0
 13 38  1  0
 15 39  1  0
 16 40  1  0
 17 41  1  0
 18 42  1  0
 20 43  1  6
 22 44  1  0
 23 45  1  0
 25 46  1  0
 26 47  1  0
 27 48  1  0
 28 49  1  0
M  END
>  <smiles>  (100) 
O=S(=O)(Cc1ccccc1)N1C=Cc2ccccc2C1c1c[nH]c2ccccc12

>  <score_type>  (100) 
oracle

>  <origin>  (100) 
autodockgpu

>  <m_score__min__energy>  (100) 
-7.8499999999999996

>  <m_primary>  (100) 
energy

>  <rmsd>  (100) 
4.965831955524034

>  <m_score__min__rmsd>  (100) 
4.965831955524034

>  <meeko>  (100) 
{"free_energy": -7.29, "intermolecular_energy": -8.49, "internal_energy": -2.23, "cluster_size": 35, "cluster_id": 4, "rank_in_cluster": 18}

>  <energy>  (100) 
-7.21

>  <cluster_rmsd>  (100) 
0.0

>  <cluster>  (100) 
5

$$$$
