
     RDKit          3D

 67 71  0  0  0  0  0  0  0  0999 V2000
  140.3130   74.9370  222.3330 O   0  0  0  0  0  0  0  0  0  0  0  0
  141.0060   75.6480  221.5270 C   0  0  0  0  0  0  0  0  0  0  0  0
  141.6590   74.9240  220.4940 N   0  0  0  0  0  0  0  0  0  0  0  0
  141.4560   73.4940  220.4650 C   0  0  0  0  0  0  0  0  0  0  0  0
  140.9450   73.0280  219.1530 C   0  0  0  0  0  0  0  0  0  0  0  0
  141.6590   72.5780  218.2340 O   0  0  0  0  0  0  0  0  0  0  0  0
  139.5160   73.1170  218.9680 N   0  0  0  0  0  0  0  0  0  0  0  0
  138.7090   72.3820  217.9920 C   0  0  0  0  0  0  0  0  0  0  0  0
  137.5980   73.3340  217.6890 C   0  0  0  0  0  0  0  0  0  0  0  0
  137.8240   74.5770  218.5290 C   0  0  0  0  0  0  0  0  0  0  0  0
  138.6000   73.9710  219.6960 C   0  0  1  0  0  0  0  0  0  0  0  0
  137.6460   73.2510  220.5950 C   0  0  0  0  0  0  0  0  0  0  0  0
  138.1970   73.3690  221.9540 N   0  0  0  0  0  0  0  0  0  0  0  0
  138.6310   72.2700  222.7090 C   0  0  0  0  0  0  0  0  0  0  0  0
  139.9470   71.8800  222.8500 C   0  0  0  0  0  0  0  0  0  0  0  0
  140.2850   70.7630  223.6200 C   0  0  0  0  0  0  0  0  0  0  0  0
  139.3120   70.0240  224.2550 C   0  0  0  0  0  0  0  0  0  0  0  0
  139.5880   68.8510  225.0710 C   0  0  0  0  0  0  0  0  0  0  0  0
  139.2110   67.7210  224.6150 O   0  0  0  0  0  0  0  0  0  0  0  0
  140.2530   68.9670  226.3250 N   0  0  0  0  0  0  0  0  0  0  0  0
  140.7350   70.2090  226.9310 C   0  0  0  0  0  0  0  0  0  0  0  0
  141.2470   69.7520  228.3090 C   0  0  0  0  0  0  0  0  0  0  0  0
  140.4150   68.4890  228.5750 C   0  0  0  0  0  0  0  0  0  0  0  0
  140.5480   67.8340  227.1960 C   0  0  0  0  0  0  0  0  0  0  0  0
  137.9940   70.4000  224.1250 C   0  0  0  0  0  0  0  0  0  0  0  0
  137.6720   71.4990  223.3670 C   0  0  0  0  0  0  0  0  0  0  0  0
  141.0920   77.0890  221.6930 C   0  0  0  0  0  0  0  0  0  0  0  0
  141.0680   77.5640  223.0130 C   0  0  0  0  0  0  0  0  0  0  0  0
  141.1550   78.9200  223.2880 C   0  0  0  0  0  0  0  0  0  0  0  0
  141.2640   79.7660  222.2070 C   0  0  0  0  0  0  0  0  0  0  0  0
  141.3380   81.1310  222.4830 C   0  0  0  0  0  0  0  0  0  0  0  0
  141.4360   82.0060  221.3950 C   0  0  0  0  0  0  0  0  0  0  0  0
  141.5080   83.3520  221.6750 F   0  0  0  0  0  0  0  0  0  0  0  0
  141.4580   81.5330  220.1020 C   0  0  0  0  0  0  0  0  0  0  0  0
  141.3850   80.1840  219.8290 C   0  0  0  0  0  0  0  0  0  0  0  0
  141.2880   79.3030  220.9090 C   0  0  0  0  0  0  0  0  0  0  0  0
  141.2000   77.9580  220.6740 N   0  0  0  0  0  0  0  0  0  0  0  0
  142.2550   75.4450  219.7990 H   0  0  0  0  0  0  0  0  0  0  0  0
  142.4152   72.9957  220.6690 H   0  0  0  0  0  0  0  0  0  0  0  0
  140.7048   73.2436  221.2286 H   0  0  0  0  0  0  0  0  0  0  0  0
  139.2925   72.1547  217.0876 H   0  0  0  0  0  0  0  0  0  0  0  0
  138.3564   71.4094  218.3658 H   0  0  0  0  0  0  0  0  0  0  0  0
  137.6077   73.5954  216.6205 H   0  0  0  0  0  0  0  0  0  0  0  0
  136.6233   72.8801  217.9213 H   0  0  0  0  0  0  0  0  0  0  0  0
  138.4180   75.3306  217.9913 H   0  0  0  0  0  0  0  0  0  0  0  0
  136.9088   75.1175  218.8122 H   0  0  0  0  0  0  0  0  0  0  0  0
  139.1244   74.6590  220.3755 H   0  0  0  0  0  0  0  0  0  0  0  0
  136.6502   73.7156  220.5453 H   0  0  0  0  0  0  0  0  0  0  0  0
  137.5314   72.1980  220.2981 H   0  0  0  0  0  0  0  0  0  0  0  0
  138.2720   74.3210  222.3900 H   0  0  0  0  0  0  0  0  0  0  0  0
  140.7403   72.4552  222.3503 H   0  0  0  0  0  0  0  0  0  0  0  0
  141.3409   70.4710  223.7197 H   0  0  0  0  0  0  0  0  0  0  0  0
  141.5475   70.6496  226.3345 H   0  0  0  0  0  0  0  0  0  0  0  0
  139.9601   70.9871  226.9949 H   0  0  0  0  0  0  0  0  0  0  0  0
  142.3217   69.5196  228.2760 H   0  0  0  0  0  0  0  0  0  0  0  0
  141.1403   70.5183  229.0910 H   0  0  0  0  0  0  0  0  0  0  0  0
  140.8485   67.8676  229.3724 H   0  0  0  0  0  0  0  0  0  0  0  0
  139.3863   68.6599  228.9252 H   0  0  0  0  0  0  0  0  0  0  0  0
  141.5642   67.4479  227.0276 H   0  0  0  0  0  0  0  0  0  0  0  0
  139.8976   66.9603  227.0424 H   0  0  0  0  0  0  0  0  0  0  0  0
  137.2027   69.8230  224.6258 H   0  0  0  0  0  0  0  0  0  0  0  0
  136.6134   71.7835  223.2747 H   0  0  0  0  0  0  0  0  0  0  0  0
  140.9786   76.8484  223.8437 H   0  0  0  0  0  0  0  0  0  0  0  0
  141.1378   79.3016  224.3196 H   0  0  0  0  0  0  0  0  0  0  0  0
  141.3200   81.5059  223.5170 H   0  0  0  0  0  0  0  0  0  0  0  0
  141.5355   82.2472  219.2690 H   0  0  0  0  0  0  0  0  0  0  0  0
  141.4025   79.8128  218.7937 H   0  0  0  0  0  0  0  0  0  0  0  0
  1  2  2  0
  2  3  1  0
  3  4  1  0
  4  5  1  0
  5  6  2  0
  5  7  1  0
  7  8  1  0
  8  9  1  0
  9 10  1  0
 10 11  1  0
 11 12  1  0
 12 13  1  0
 13 14  1  0
 14 15  2  0
 15 16  1  0
 16 17  2  0
 17 18  1  0
 18 19  2  0
 18 20  1  0
 20 21  1  0
 21 22  1  0
 22 23  1  0
 23 24  1  0
 17 25  1  0
 25 26  2  0
  2 27  1  0
 27 28  2  0
 28 29  1  0
 29 30  2  0
 30 31  1  0
 31 32  2  0
 32 33  1  0
 32 34  1  0
 34 35  2  0
 35 36  1  0
 36 37  2  0
 11  7  1  0
 26 14  1  0
 37 27  1  0
 24 20  1  0
 36 30  1  0
  3 38  1  0
  4 39  1  0
  4 40  1  0
  8 41  1  0
  8 42  1  0
  9 43  1  0
  9 44  1  0
 10 45  1  0
 10 46  1  0
 11 47  1  1
 12 48  1  0
 12 49  1  0
 13 50  1  0
 15 51  1  0
 16 52  1  0
 21 53  1  0
 21 54  1  0
 22 55  1  0
 22 56  1  0
 23 57  1  0
 23 58  1  0
 24 59  1  0
 24 60  1  0
 25 61  1  0
 26 62  1  0
 28 63  1  0
 29 64  1  0
 31 65  1  0
 34 66  1  0
 35 67  1  0
M  END
