
 63 67  0  0  0  0  0  0  0  0999 V2000
  138.0360   73.9400  222.2610 N   0  0  0  0  0  0  0  0  0  0  0  0
  138.1670   73.3720  220.9360 C   0  0  1  0  0  0  0  0  0  0  0  0
  138.1320   74.4730  219.9000 C   0  0  0  0  0  0  0  0  0  0  0  0
  139.5700   74.9610  219.9550 C   0  0  1  0  0  0  0  0  0  0  0  0
  139.7320   75.6550  221.2590 C   0  0  0  0  0  0  0  0  0  0  0  0
  140.2660   75.1150  222.2670 O   0  0  0  0  0  0  0  0  0  0  0  0
  139.2770   76.9940  221.4270 N   0  0  0  0  0  0  0  0  0  0  0  0
  138.9350   77.8530  220.3090 C   0  0  0  0  0  0  0  0  0  0  0  0
  138.0220   78.8750  220.9470 C   0  0  0  0  0  0  0  0  0  0  0  0
  137.7470   78.4040  222.3430 C   0  0  2  0  0  0  0  0  0  0  0  0
  137.3830   79.4520  223.2950 C   0  0  0  0  0  0  0  0  0  0  0  0
  136.0740   79.7130  223.6040 C   0  0  0  0  0  0  0  0  0  0  0  0
  135.7210   80.7110  224.5120 C   0  0  0  0  0  0  0  0  0  0  0  0
  136.6850   81.4870  225.1440 C   0  0  0  0  0  0  0  0  0  0  0  0
  138.0060   81.2250  224.8340 C   0  0  0  0  0  0  0  0  0  0  0  0
  138.3480   80.2360  223.9350 C   0  0  0  0  0  0  0  0  0  0  0  0
  139.0790   77.7230  222.6850 C   0  0  0  0  0  0  0  0  0  0  0  0
  140.3070   73.7030  220.0090 N   0  0  0  0  0  0  0  0  0  0  0  0
  141.5830   73.4020  219.4450 C   0  0  0  0  0  0  0  0  0  0  0  0
  141.7340   72.6260  218.4660 O   0  0  0  0  0  0  0  0  0  0  0  0
  142.7700   74.0490  220.0620 C   0  0  0  0  0  0  0  0  0  0  0  0
  142.4740   75.3940  220.5090 N   0  0  0  0  0  0  0  0  0  0  0  0
  142.4920   76.4450  219.5370 C   0  0  0  0  0  0  0  0  0  0  0  0
  142.7660   76.1630  218.3230 O   0  0  0  0  0  0  0  0  0  0  0  0
  142.1960   77.8140  219.9610 C   0  0  0  0  0  0  0  0  0  0  0  0
  142.0230   78.7710  218.9580 C   0  0  0  0  0  0  0  0  0  0  0  0
  141.7430   80.0720  219.3230 C   0  0  0  0  0  0  0  0  0  0  0  0
  141.6360   80.4200  220.6440 C   0  0  0  0  0  0  0  0  0  0  0  0
  141.3520   81.7370  221.0040 C   0  0  0  0  0  0  0  0  0  0  0  0
  141.2540   82.0420  222.3430 C   0  0  0  0  0  0  0  0  0  0  0  0
  141.4370   81.0420  223.2860 C   0  0  0  0  0  0  0  0  0  0  0  0
  141.7090   79.7890  222.8780 N   0  0  0  0  0  0  0  0  0  0  0  0
  141.8180   79.4240  221.5830 C   0  0  0  0  0  0  0  0  0  0  0  0
  142.0930   78.1480  221.2610 N   0  0  0  0  0  0  0  0  0  0  0  0
  139.5290   72.7510  220.7490 C   0  0  0  0  0  0  0  0  0  0  0  0
  138.0430   74.9970  222.2450 H   0  0  0  0  0  0  0  0  0  0  0  0
  138.8270   73.6110  222.8760 H   0  0  0  0  0  0  0  0  0  0  0  0
  137.3527   72.6407  220.8264 H   0  0  0  0  0  0  0  0  0  0  0  0
  137.8744   74.0837  218.9040 H   0  0  0  0  0  0  0  0  0  0  0  0
  137.3789   75.2523  220.0886 H   0  0  0  0  0  0  0  0  0  0  0  0
  139.8794   75.6282  219.1370 H   0  0  0  0  0  0  0  0  0  0  0  0
  139.8313   78.3302  219.8860 H   0  0  0  0  0  0  0  0  0  0  0  0
  138.4709   77.3149  219.4693 H   0  0  0  0  0  0  0  0  0  0  0  0
  138.5135   79.8588  220.9699 H   0  0  0  0  0  0  0  0  0  0  0  0
  137.0877   78.9784  220.3758 H   0  0  0  0  0  0  0  0  0  0  0  0
  136.8608   77.7554  222.4063 H   0  0  0  0  0  0  0  0  0  0  0  0
  135.2814   79.1204  223.1238 H   0  0  0  0  0  0  0  0  0  0  0  0
  134.6578   80.8874  224.7323 H   0  0  0  0  0  0  0  0  0  0  0  0
  136.4087   82.2753  225.8597 H   0  0  0  0  0  0  0  0  0  0  0  0
  138.8001   81.8164  225.3133 H   0  0  0  0  0  0  0  0  0  0  0  0
  139.4112   80.0589  223.7151 H   0  0  0  0  0  0  0  0  0  0  0  0
  139.8813   78.4517  222.8729 H   0  0  0  0  0  0  0  0  0  0  0  0
  139.0827   77.1106  223.5988 H   0  0  0  0  0  0  0  0  0  0  0  0
  143.0945   73.4496  220.9254 H   0  0  0  0  0  0  0  0  0  0  0  0
  143.5633   74.1066  219.3021 H   0  0  0  0  0  0  0  0  0  0  0  0
  142.2460   75.6360  221.5070 H   0  0  0  0  0  0  0  0  0  0  0  0
  142.1084   78.4927  217.8972 H   0  0  0  0  0  0  0  0  0  0  0  0
  141.6043   80.8376  218.5455 H   0  0  0  0  0  0  0  0  0  0  0  0
  141.2098   82.5128  220.2373 H   0  0  0  0  0  0  0  0  0  0  0  0
  141.0322   83.0710  222.6623 H   0  0  0  0  0  0  0  0  0  0  0  0
  141.3604   81.2712  224.3591 H   0  0  0  0  0  0  0  0  0  0  0  0
  139.4444   71.8091  220.1871 H   0  0  0  0  0  0  0  0  0  0  0  0
  139.9979   72.5165  221.7160 H   0  0  0  0  0  0  0  0  0  0  0  0
  1  2  1  0
  2  3  1  0
  3  4  1  0
  4  5  1  0
  5  6  2  0
  5  7  1  0
  7  8  1  0
  8  9  1  0
  9 10  1  0
 10 11  1  0
 11 12  2  0
 12 13  1  0
 13 14  2  0
 14 15  1  0
 15 16  2  0
 10 17  1  0
  4 18  1  0
 18 19  1  0
 19 20  2  0
 19 21  1  0
 21 22  1  0
 22 23  1  0
 23 24  2  0
 23 25  1  0
 25 26  2  0
 26 27  1  0
 27 28  2  0
 28 29  1  0
 29 30  2  0
 30 31  1  0
 31 32  2  0
 32 33  1  0
 33 34  2  0
 18 35  1  0
 35  2  1  0
 17  7  1  0
 34 25  1  0
 16 11  1  0
 33 28  1  0
  1 36  1  0
  1 37  1  0
  2 38  1  6
  3 39  1  0
  3 40  1  0
  4 41  1  6
  8 42  1  0
  8 43  1  0
  9 44  1  0
  9 45  1  0
 10 46  1  6
 12 47  1  0
 13 48  1  0
 14 49  1  0
 15 50  1  0
 16 51  1  0
 17 52  1  0
 17 53  1  0
 21 54  1  0
 21 55  1  0
 22 56  1  0
 26 57  1  0
 27 58  1  0
 29 59  1  0
 30 60  1  0
 31 61  1  0
 35 62  1  0
 35 63  1  0
M  END
