@<TRIPOS>MOLECULE
*****
 72 78 0 0 0
SMALL
GASTEIGER

@<TRIPOS>ATOM
      1 C         141.7810   81.8370  221.5940 C.ar    1  UNL1       -0.0615
      2 C         142.6240   80.9010  222.1750 C.ar    1  UNL1       -0.0614
      3 C         142.1390   79.6890  222.6570 C.ar    1  UNL1       -0.0568
      4 C         140.7930   79.4210  222.5520 C.ar    1  UNL1       -0.0269
      5 C         139.9210   80.3250  221.9800 C.ar    1  UNL1       -0.0412
      6 C         140.4410   81.5170  221.5150 C.ar    1  UNL1       -0.0582
      7 C         138.4630   80.0590  221.8560 C.3     1  UNL1       -0.0115
      8 C         138.0700   79.1860  223.0300 C.3     1  UNL1        0.0192
      9 N         138.8780   77.9840  222.9550 N.pl3   1  UNL1       -0.2948
     10 C         138.2720   76.7120  222.7610 C.ar    1  UNL1        0.2240
     11 N         138.8160   75.7710  221.9740 N.ar    1  UNL1       -0.1809
     12 C         138.2520   74.5650  221.7830 C.ar    1  UNL1        0.2211
     13 N         138.8660   73.5990  220.9390 N.pl3   1  UNL1       -0.3133
     14 C         139.7800   72.6300  221.4430 C.3     1  UNL1        0.0134
     15 C         139.6150   72.2780  222.8900 C.3     1  UNL1       -0.0193
     16 C         140.0790   70.8470  223.0550 C.3     1  UNL1        0.0247
     17 N         139.7270   70.2910  224.3460 N.ar    1  UNL1       -0.3466
     18 C         138.9270   69.2480  224.6330 C.ar    1  UNL1        0.0057
     19 C         138.9110   69.1110  226.0260 C.ar    1  UNL1       -0.0364
     20 C         139.7280   70.1060  226.5760 C.ar    1  UNL1       -0.0002
     21 C         140.0640   70.4240  227.8790 C.ar    1  UNL1       -0.0526
     22 C         140.9150   71.4900  228.1160 C.ar    1  UNL1       -0.0611
     23 C         141.4260   72.2280  227.0670 C.ar    1  UNL1       -0.0598
     24 C         141.0730   71.8880  225.7600 C.ar    1  UNL1       -0.0376
     25 C         140.2180   70.8200  225.5010 C.ar    1  UNL1        0.0491
     26 N         137.0980   74.3250  222.4210 N.ar    1  UNL1       -0.1809
     27 C         136.4990   75.2230  223.2230 C.ar    1  UNL1        0.2240
     28 N         135.2720   74.9270  223.8830 N.pl3   1  UNL1       -0.2948
     29 C         134.1610   75.8600  223.9250 C.3     1  UNL1        0.0192
     30 C         133.8350   76.1180  225.3890 C.3     1  UNL1       -0.0115
     31 C         133.4350   74.8120  225.9930 C.ar    1  UNL1       -0.0412
     32 C         132.4560   74.7210  226.9590 C.ar    1  UNL1       -0.0582
     33 C         132.0950   73.5010  227.5100 C.ar    1  UNL1       -0.0615
     34 C         132.7210   72.3690  227.0890 C.ar    1  UNL1       -0.0614
     35 C         133.7130   72.4290  226.1150 C.ar    1  UNL1       -0.0568
     36 C         134.0610   73.6440  225.5770 C.ar    1  UNL1       -0.0269
     37 C         135.1310   73.6410  224.5390 C.3     1  UNL1        0.0402
     38 N         137.1170   76.4090  223.3700 N.ar    1  UNL1       -0.1807
     39 C         140.3020   78.1020  223.0820 C.3     1  UNL1        0.0402
     40 H         142.1648   82.7945  221.2121 H       1  UNL1        0.0618
     41 H         143.6986   81.1215  222.2564 H       1  UNL1        0.0618
     42 H         142.8205   78.9568  223.1146 H       1  UNL1        0.0621
     43 H         139.7543   82.2460  221.0600 H       1  UNL1        0.0620
     44 H         137.9027   81.0052  221.8847 H       1  UNL1        0.0328
     45 H         138.2349   79.5602  220.9025 H       1  UNL1        0.0328
     46 H         138.2653   79.7139  223.9751 H       1  UNL1        0.0468
     47 H         136.9982   78.9409  222.9950 H       1  UNL1        0.0468
     48 H         138.6120   73.6300  219.9070 H       1  UNL1        0.1489
     49 H         139.6563   71.7092  220.8541 H       1  UNL1        0.0463
     50 H         140.7787   73.0826  221.3546 H       1  UNL1        0.0463
     51 H         140.2263   72.9472  223.5133 H       1  UNL1        0.0297
     52 H         138.5662   72.3883  223.2029 H       1  UNL1        0.0297
     53 H         139.6145   70.2335  222.2690 H       1  UNL1        0.0492
     54 H         141.1764   70.8424  222.9789 H       1  UNL1        0.0492
     55 H         138.3868   68.6206  223.9088 H       1  UNL1        0.0809
     56 H         138.3519   68.3513  226.5919 H       1  UNL1        0.0639
     57 H         139.6601   69.8371  228.7171 H       1  UNL1        0.0624
     58 H         141.1865   71.7513  229.1494 H       1  UNL1        0.0618
     59 H         142.1030   73.0735  227.2588 H       1  UNL1        0.0618
     60 H         141.4769   72.4734  224.9209 H       1  UNL1        0.0638
     61 H         134.4427   76.8018  223.4314 H       1  UNL1        0.0468
     62 H         133.2872   75.4456  223.4008 H       1  UNL1        0.0468
     63 H         134.7198   76.5167  225.9069 H       1  UNL1        0.0328
     64 H         133.0235   76.8547  225.4828 H       1  UNL1        0.0328
     65 H         131.9501   75.6362  227.3002 H       1  UNL1        0.0620
     66 H         131.3107   73.4490  228.2795 H       1  UNL1        0.0618
     67 H         132.4405   71.3976  227.5224 H       1  UNL1        0.0618
     68 H         134.2149   71.5099  225.7783 H       1  UNL1        0.0621
     69 H         136.0868   73.3828  225.0184 H       1  UNL1        0.0514
     70 H         134.8509   72.9036  223.7723 H       1  UNL1        0.0514
     71 H         140.5746   78.0195  224.1445 H       1  UNL1        0.0514
     72 H         140.7696   77.2976  222.4953 H       1  UNL1        0.0514
@<TRIPOS>BOND
     1     1     2   ar
     2     2     3   ar
     3     3     4   ar
     4     4     5   ar
     5     5     6   ar
     6     5     7    1
     7     7     8    1
     8     8     9    1
     9     9    10    1
    10    10    11   ar
    11    11    12   ar
    12    12    13    1
    13    13    14    1
    14    14    15    1
    15    15    16    1
    16    16    17    1
    17    17    18   ar
    18    18    19   ar
    19    19    20   ar
    20    20    21   ar
    21    21    22   ar
    22    22    23   ar
    23    23    24   ar
    24    24    25   ar
    25    12    26   ar
    26    26    27   ar
    27    27    28    1
    28    28    29    1
    29    29    30    1
    30    30    31    1
    31    31    32   ar
    32    32    33   ar
    33    33    34   ar
    34    34    35   ar
    35    35    36   ar
    36    36    37    1
    37    27    38   ar
    38     9    39    1
    39     6     1   ar
    40    38    10   ar
    41    39     4    1
    42    25    17   ar
    43    37    28    1
    44    25    20   ar
    45    36    31   ar
    46     1    40    1
    47     2    41    1
    48     3    42    1
    49     6    43    1
    50     7    44    1
    51     7    45    1
    52     8    46    1
    53     8    47    1
    54    13    48    1
    55    14    49    1
    56    14    50    1
    57    15    51    1
    58    15    52    1
    59    16    53    1
    60    16    54    1
    61    18    55    1
    62    19    56    1
    63    21    57    1
    64    22    58    1
    65    23    59    1
    66    24    60    1
    67    29    61    1
    68    29    62    1
    69    30    63    1
    70    30    64    1
    71    32    65    1
    72    33    66    1
    73    34    67    1
    74    35    68    1
    75    37    69    1
    76    37    70    1
    77    39    71    1
    78    39    72    1
