
     RDKit          3D

 78 83  0  0  0  0  0  0  0  0999 V2000
  145.9500   72.7860  217.0410 C   0  0  0  0  0  0  0  0  0  0  0  0
  145.8930   71.8500  218.1170 N   0  0  0  0  0  0  0  0  0  0  0  0
  145.6930   70.4980  217.7100 C   0  0  0  0  0  0  0  0  0  0  0  0
  145.1530   72.2570  219.2660 C   0  0  0  0  0  0  0  0  0  0  0  0
  144.8320   73.7030  219.2400 C   0  0  0  0  0  0  0  0  0  0  0  0
  143.7500   74.1860  220.1220 C   0  0  0  0  0  0  0  0  0  0  0  0
  142.9080   73.2170  220.7340 N   0  0  0  0  0  0  0  0  0  0  0  0
  141.6240   73.6150  221.2320 C   0  0  0  0  0  0  0  0  0  0  0  0
  140.7130   72.6940  221.6720 N   0  0  0  0  0  0  0  0  0  0  0  0
  139.5350   73.0800  222.1630 C   0  0  0  0  0  0  0  0  0  0  0  0
  138.5000   72.2720  222.6450 N   0  0  0  0  0  0  0  0  0  0  0  0
  137.8930   71.0990  222.0640 C   0  0  0  0  0  0  0  0  0  0  0  0
  138.4940   69.9010  222.6660 C   0  0  0  0  0  0  0  0  0  0  0  0
  138.8130   69.8660  224.0670 N   0  0  0  0  0  0  0  0  0  0  0  0
  138.8880   68.5690  224.6180 C   0  0  0  0  0  0  0  0  0  0  0  0
  139.2440   68.5650  226.0720 C   0  0  0  0  0  0  0  0  0  0  0  0
  140.0220   69.7110  226.5560 C   0  0  0  0  0  0  0  0  0  0  0  0
  140.3770   69.7950  227.8720 C   0  0  0  0  0  0  0  0  0  0  0  0
  141.1080   70.8940  228.3390 C   0  0  0  0  0  0  0  0  0  0  0  0
  141.4790   71.9090  227.4660 C   0  0  0  0  0  0  0  0  0  0  0  0
  141.0960   71.7780  226.1450 C   0  0  0  0  0  0  0  0  0  0  0  0
  140.3720   70.6920  225.6760 C   0  0  0  0  0  0  0  0  0  0  0  0
  140.0500   70.6670  224.2470 C   0  0  0  0  0  0  0  0  0  0  0  0
  139.2940   74.4140  222.2030 N   0  0  0  0  0  0  0  0  0  0  0  0
  140.1490   75.3580  221.7840 C   0  0  0  0  0  0  0  0  0  0  0  0
  139.7200   76.7000  221.9260 N   0  0  0  0  0  0  0  0  0  0  0  0
  140.7240   77.7490  221.6830 C   0  0  0  0  0  0  0  0  0  0  0  0
  140.9760   78.5060  222.9880 C   0  0  0  0  0  0  0  0  0  0  0  0
  139.6350   79.1170  223.3160 C   0  0  0  0  0  0  0  0  0  0  0  0
  139.6970   80.3500  223.9470 C   0  0  0  0  0  0  0  0  0  0  0  0
  138.5220   81.0040  224.2830 C   0  0  0  0  0  0  0  0  0  0  0  0
  137.3490   80.3830  223.9670 C   0  0  0  0  0  0  0  0  0  0  0  0
  137.2860   79.1370  223.3290 C   0  0  0  0  0  0  0  0  0  0  0  0
  138.4560   78.4850  222.9930 C   0  0  0  0  0  0  0  0  0  0  0  0
  138.4140   77.1500  222.3050 C   0  0  0  0  0  0  0  0  0  0  0  0
  141.3180   74.9530  221.2970 N   0  0  0  0  0  0  0  0  0  0  0  0
  143.3510   71.8540  220.8350 C   0  0  0  0  0  0  0  0  0  0  0  0
  143.8870   71.4470  219.4680 C   0  0  0  0  0  0  0  0  0  0  0  0
  146.0122   73.8069  217.4460 H   0  0  0  0  0  0  0  0  0  0  0  0
  146.8374   72.5817  216.4239 H   0  0  0  0  0  0  0  0  0  0  0  0
  145.0444   72.6908  216.4239 H   0  0  0  0  0  0  0  0  0  0  0  0
  145.5982   69.8576  218.5993 H   0  0  0  0  0  0  0  0  0  0  0  0
  144.7747   70.4282  217.1084 H   0  0  0  0  0  0  0  0  0  0  0  0
  146.5517   70.1653  217.1084 H   0  0  0  0  0  0  0  0  0  0  0  0
  145.8145   72.0626  220.1231 H   0  0  0  0  0  0  0  0  0  0  0  0
  145.7474   74.2469  219.5162 H   0  0  0  0  0  0  0  0  0  0  0  0
  144.4597   73.8850  218.2211 H   0  0  0  0  0  0  0  0  0  0  0  0
  144.2200   74.7678  220.9286 H   0  0  0  0  0  0  0  0  0  0  0  0
  143.0817   74.7504  219.4551 H   0  0  0  0  0  0  0  0  0  0  0  0
  138.0950   72.5660  223.5920 H   0  0  0  0  0  0  0  0  0  0  0  0
  136.8109   71.1076  222.2614 H   0  0  0  0  0  0  0  0  0  0  0  0
  138.0618   71.0931  220.9770 H   0  0  0  0  0  0  0  0  0  0  0  0
  137.7946   69.0722  222.4821 H   0  0  0  0  0  0  0  0  0  0  0  0
  139.4835   69.8559  222.1877 H   0  0  0  0  0  0  0  0  0  0  0  0
  137.9100   68.0805  224.4963 H   0  0  0  0  0  0  0  0  0  0  0  0
  139.6871   68.0333  224.0846 H   0  0  0  0  0  0  0  0  0  0  0  0
  138.3063   68.5305  226.6461 H   0  0  0  0  0  0  0  0  0  0  0  0
  139.8955   67.6897  226.2111 H   0  0  0  0  0  0  0  0  0  0  0  0
  140.0870   68.9949  228.5689 H   0  0  0  0  0  0  0  0  0  0  0  0
  141.3895   70.9540  229.4007 H   0  0  0  0  0  0  0  0  0  0  0  0
  142.0538   72.7807  227.8121 H   0  0  0  0  0  0  0  0  0  0  0  0
  141.3774   72.5692  225.4346 H   0  0  0  0  0  0  0  0  0  0  0  0
  139.8865   71.6923  223.8836 H   0  0  0  0  0  0  0  0  0  0  0  0
  140.8788   70.2215  223.6773 H   0  0  0  0  0  0  0  0  0  0  0  0
  141.6612   77.2897  221.3358 H   0  0  0  0  0  0  0  0  0  0  0  0
  140.3574   78.4445  220.9137 H   0  0  0  0  0  0  0  0  0  0  0  0
  141.2982   77.8183  223.7838 H   0  0  0  0  0  0  0  0  0  0  0  0
  141.7742   79.2573  222.8961 H   0  0  0  0  0  0  0  0  0  0  0  0
  140.6709   80.8056  224.1791 H   0  0  0  0  0  0  0  0  0  0  0  0
  138.5347   81.9833  224.7838 H   0  0  0  0  0  0  0  0  0  0  0  0
  136.4055   80.8856  224.2260 H   0  0  0  0  0  0  0  0  0  0  0  0
  136.3118   78.6816  223.0975 H   0  0  0  0  0  0  0  0  0  0  0  0
  137.9687   76.4121  222.9885 H   0  0  0  0  0  0  0  0  0  0  0  0
  137.8133   77.2583  221.3899 H   0  0  0  0  0  0  0  0  0  0  0  0
  144.1464   71.7721  221.5904 H   0  0  0  0  0  0  0  0  0  0  0  0
  142.5222   71.1976  221.1386 H   0  0  0  0  0  0  0  0  0  0  0  0
  144.1133   70.3707  219.4497 H   0  0  0  0  0  0  0  0  0  0  0  0
  143.1526   71.6360  218.6712 H   0  0  0  0  0  0  0  0  0  0  0  0
  1  2  1  0
  2  3  1  0
  2  4  1  0
  4  5  1  0
  5  6  1  0
  6  7  1  0
  7  8  1  0
  8  9  2  0
  9 10  1  0
 10 11  1  0
 11 12  1  0
 12 13  1  0
 13 14  1  0
 14 15  1  0
 15 16  1  0
 16 17  1  0
 17 18  2  0
 18 19  1  0
 19 20  2  0
 20 21  1  0
 21 22  2  0
 22 23  1  0
 10 24  2  0
 24 25  1  0
 25 26  1  0
 26 27  1  0
 27 28  1  0
 28 29  1  0
 29 30  2  0
 30 31  1  0
 31 32  2  0
 32 33  1  0
 33 34  2  0
 34 35  1  0
 25 36  2  0
  7 37  1  0
 37 38  1  0
 38  4  1  0
 36  8  1  0
 23 14  1  0
 35 26  1  0
 22 17  1  0
 34 29  1  0
  1 39  1  0
  1 40  1  0
  1 41  1  0
  3 42  1  0
  3 43  1  0
  3 44  1  0
  4 45  1  0
  5 46  1  0
  5 47  1  0
  6 48  1  0
  6 49  1  0
 11 50  1  0
 12 51  1  0
 12 52  1  0
 13 53  1  0
 13 54  1  0
 15 55  1  0
 15 56  1  0
 16 57  1  0
 16 58  1  0
 18 59  1  0
 19 60  1  0
 20 61  1  0
 21 62  1  0
 23 63  1  0
 23 64  1  0
 27 65  1  0
 27 66  1  0
 28 67  1  0
 28 68  1  0
 30 69  1  0
 31 70  1  0
 32 71  1  0
 33 72  1  0
 35 73  1  0
 35 74  1  0
 37 75  1  0
 37 76  1  0
 38 77  1  0
 38 78  1  0
M  END
>  <smiles>  (1) 
CN(C)C1CCN(c2nc(NCCN3CCc4ccccc4C3)nc(N3CCc4ccccc4C3)n2)CC1

>  <score_type>  (1) 
oracle

>  <origin>  (1) 
autodockgpu

>  <m_score__min__energy>  (1) 
-11.130000000000001

>  <m_primary>  (1) 
energy

>  <rmsd>  (1) 
4.180061325802875

>  <m_score__min__rmsd>  (1) 
4.180061325802875

>  <meeko>  (1) 
{"free_energy": -10.59, "intermolecular_energy": -12.68, "internal_energy": -1.37, "cluster_size": 16, "cluster_id": 1, "rank_in_cluster": 10}

>  <energy>  (1) 
-11.13

>  <cluster_rmsd>  (1) 
0.0

>  <cluster>  (1) 
1

$$$$

     RDKit          3D

 78 83  0  0  0  0  0  0  0  0999 V2000
  132.0500   74.4910  227.9550 C   0  0  0  0  0  0  0  0  0  0  0  0
  132.3610   73.6410  226.8520 N   0  0  0  0  0  0  0  0  0  0  0  0
  132.8890   72.3680  227.2220 C   0  0  0  0  0  0  0  0  0  0  0  0
  132.9950   74.2630  225.7360 C   0  0  0  0  0  0  0  0  0  0  0  0
  134.0220   75.2450  226.1550 C   0  0  0  0  0  0  0  0  0  0  0  0
  135.0280   75.6610  225.1560 C   0  0  0  0  0  0  0  0  0  0  0  0
  135.1210   74.9070  223.9530 N   0  0  0  0  0  0  0  0  0  0  0  0
  136.3170   74.9840  223.1660 C   0  0  0  0  0  0  0  0  0  0  0  0
  136.7430   73.9270  222.4100 N   0  0  0  0  0  0  0  0  0  0  0  0
  137.8390   74.0230  221.6570 C   0  0  0  0  0  0  0  0  0  0  0  0
  138.4070   73.0410  220.8380 N   0  0  0  0  0  0  0  0  0  0  0  0
  138.7960   71.6870  221.1490 C   0  0  0  0  0  0  0  0  0  0  0  0
  139.8420   71.7150  222.1810 C   0  0  0  0  0  0  0  0  0  0  0  0
  139.5920   71.1800  223.4920 N   0  0  0  0  0  0  0  0  0  0  0  0
  139.3470   69.7900  223.5190 C   0  0  0  0  0  0  0  0  0  0  0  0
  139.1120   69.2590  224.8980 C   0  0  0  0  0  0  0  0  0  0  0  0
  139.7300   70.0080  225.9990 C   0  0  0  0  0  0  0  0  0  0  0  0
  139.5550   69.6010  227.2910 C   0  0  0  0  0  0  0  0  0  0  0  0
  140.1330   70.3200  228.3440 C   0  0  0  0  0  0  0  0  0  0  0  0
  140.8900   71.4550  228.0820 C   0  0  0  0  0  0  0  0  0  0  0  0
  141.0380   71.8260  226.7590 C   0  0  0  0  0  0  0  0  0  0  0  0
  140.4690   71.1180  225.7120 C   0  0  0  0  0  0  0  0  0  0  0  0
  140.7220   71.6060  224.3550 C   0  0  0  0  0  0  0  0  0  0  0  0
  138.4970   75.2080  221.6810 N   0  0  0  0  0  0  0  0  0  0  0  0
  138.1260   76.2760  222.4030 C   0  0  0  0  0  0  0  0  0  0  0  0
  138.9360   77.4290  222.2780 N   0  0  0  0  0  0  0  0  0  0  0  0
  139.9550   77.4160  221.2150 C   0  0  0  0  0  0  0  0  0  0  0  0
  141.3420   77.4570  221.8590 C   0  0  0  0  0  0  0  0  0  0  0  0
  141.3590   78.7750  222.5960 C   0  0  0  0  0  0  0  0  0  0  0  0
  142.5960   79.3980  222.6420 C   0  0  0  0  0  0  0  0  0  0  0  0
  142.7200   80.6190  223.2870 C   0  0  0  0  0  0  0  0  0  0  0  0
  141.5940   81.1460  223.8490 C   0  0  0  0  0  0  0  0  0  0  0  0
  140.3450   80.5160  223.8020 C   0  0  0  0  0  0  0  0  0  0  0  0
  140.2190   79.3000  223.1600 C   0  0  0  0  0  0  0  0  0  0  0  0
  138.8880   78.6070  223.0930 C   0  0  0  0  0  0  0  0  0  0  0  0
  137.0300   76.1590  223.1480 N   0  0  0  0  0  0  0  0  0  0  0  0
  134.0230   74.0740  223.5500 C   0  0  0  0  0  0  0  0  0  0  0  0
  133.5950   73.2640  224.7670 C   0  0  0  0  0  0  0  0  0  0  0  0
  132.2456   73.9565  228.8963 H   0  0  0  0  0  0  0  0  0  0  0  0
  132.6758   75.3945  227.9095 H   0  0  0  0  0  0  0  0  0  0  0  0
  130.9889   74.7773  227.9095 H   0  0  0  0  0  0  0  0  0  0  0  0
  132.9217   72.2893  228.3187 H   0  0  0  0  0  0  0  0  0  0  0  0
  132.2466   71.5726  226.8163 H   0  0  0  0  0  0  0  0  0  0  0  0
  133.9058   72.2608  226.8163 H   0  0  0  0  0  0  0  0  0  0  0  0
  132.1941   74.8002  225.2068 H   0  0  0  0  0  0  0  0  0  0  0  0
  133.4934   76.1515  226.4849 H   0  0  0  0  0  0  0  0  0  0  0  0
  134.6022   74.7239  226.9307 H   0  0  0  0  0  0  0  0  0  0  0  0
  134.8009   76.7000  224.8750 H   0  0  0  0  0  0  0  0  0  0  0  0
  135.9953   75.5045  225.6559 H   0  0  0  0  0  0  0  0  0  0  0  0
  138.5790   73.3370  219.8230 H   0  0  0  0  0  0  0  0  0  0  0  0
  137.9244   71.1293  221.5223 H   0  0  0  0  0  0  0  0  0  0  0  0
  139.1798   71.1933  220.2440 H   0  0  0  0  0  0  0  0  0  0  0  0
  140.7006   71.1610  221.7737 H   0  0  0  0  0  0  0  0  0  0  0  0
  139.9682   72.7905  222.3742 H   0  0  0  0  0  0  0  0  0  0  0  0
  138.4572   69.5800  222.9073 H   0  0  0  0  0  0  0  0  0  0  0  0
  140.2458   69.2922  223.1261 H   0  0  0  0  0  0  0  0  0  0  0  0
  138.0257   69.2450  225.0708 H   0  0  0  0  0  0  0  0  0  0  0  0
  139.5883   68.2676  224.9149 H   0  0  0  0  0  0  0  0  0  0  0  0
  138.9566   68.7033  227.5053 H   0  0  0  0  0  0  0  0  0  0  0  0
  139.9874   69.9853  229.3817 H   0  0  0  0  0  0  0  0  0  0  0  0
  141.3527   72.0347  228.8943 H   0  0  0  0  0  0  0  0  0  0  0  0
  141.6329   72.7216  226.5269 H   0  0  0  0  0  0  0  0  0  0  0  0
  140.7930   72.7037  224.3610 H   0  0  0  0  0  0  0  0  0  0  0  0
  141.6682   71.1951  223.9732 H   0  0  0  0  0  0  0  0  0  0  0  0
  139.8526   76.4989  220.6163 H   0  0  0  0  0  0  0  0  0  0  0  0
  139.8219   78.2895  220.5598 H   0  0  0  0  0  0  0  0  0  0  0  0
  141.4752   76.6166  222.5561 H   0  0  0  0  0  0  0  0  0  0  0  0
  142.1551   77.3709  221.1231 H   0  0  0  0  0  0  0  0  0  0  0  0
  143.4718   78.9279  222.1709 H   0  0  0  0  0  0  0  0  0  0  0  0
  143.6864   81.1413  223.3433 H   0  0  0  0  0  0  0  0  0  0  0  0
  141.6716   82.1144  224.3648 H   0  0  0  0  0  0  0  0  0  0  0  0
  139.4695   80.9865  224.2734 H   0  0  0  0  0  0  0  0  0  0  0  0
  138.5843   78.3222  224.1112 H   0  0  0  0  0  0  0  0  0  0  0  0
  138.1652   79.3028  222.6420 H   0  0  0  0  0  0  0  0  0  0  0  0
  133.1868   74.6973  223.2002 H   0  0  0  0  0  0  0  0  0  0  0  0
  134.3219   73.4089  222.7264 H   0  0  0  0  0  0  0  0  0  0  0  0
  132.8467   72.5099  224.4817 H   0  0  0  0  0  0  0  0  0  0  0  0
  134.4433   72.7249  225.2140 H   0  0  0  0  0  0  0  0  0  0  0  0
  1  2  1  0
  2  3  1  0
  2  4  1  0
  4  5  1  0
  5  6  1  0
  6  7  1  0
  7  8  1  0
  8  9  2  0
  9 10  1  0
 10 11  1  0
 11 12  1  0
 12 13  1  0
 13 14  1  0
 14 15  1  0
 15 16  1  0
 16 17  1  0
 17 18  2  0
 18 19  1  0
 19 20  2  0
 20 21  1  0
 21 22  2  0
 22 23  1  0
 10 24  2  0
 24 25  1  0
 25 26  1  0
 26 27  1  0
 27 28  1  0
 28 29  1  0
 29 30  2  0
 30 31  1  0
 31 32  2  0
 32 33  1  0
 33 34  2  0
 34 35  1  0
 25 36  2  0
  7 37  1  0
 37 38  1  0
 38  4  1  0
 36  8  1  0
 23 14  1  0
 35 26  1  0
 22 17  1  0
 34 29  1  0
  1 39  1  0
  1 40  1  0
  1 41  1  0
  3 42  1  0
  3 43  1  0
  3 44  1  0
  4 45  1  0
  5 46  1  0
  5 47  1  0
  6 48  1  0
  6 49  1  0
 11 50  1  0
 12 51  1  0
 12 52  1  0
 13 53  1  0
 13 54  1  0
 15 55  1  0
 15 56  1  0
 16 57  1  0
 16 58  1  0
 18 59  1  0
 19 60  1  0
 20 61  1  0
 21 62  1  0
 23 63  1  0
 23 64  1  0
 27 65  1  0
 27 66  1  0
 28 67  1  0
 28 68  1  0
 30 69  1  0
 31 70  1  0
 32 71  1  0
 33 72  1  0
 35 73  1  0
 35 74  1  0
 37 75  1  0
 37 76  1  0
 38 77  1  0
 38 78  1  0
M  END
>  <smiles>  (2) 
CN(C)C1CCN(c2nc(NCCN3CCc4ccccc4C3)nc(N3CCc4ccccc4C3)n2)CC1

>  <score_type>  (2) 
oracle

>  <origin>  (2) 
autodockgpu

>  <m_score__min__energy>  (2) 
-11.130000000000001

>  <m_primary>  (2) 
energy

>  <rmsd>  (2) 
3.9076027928924595

>  <m_score__min__rmsd>  (2) 
3.9076027928924595

>  <meeko>  (2) 
{"free_energy": -10.05, "intermolecular_energy": -12.13, "internal_energy": -1.31, "cluster_size": 7, "cluster_id": 3, "rank_in_cluster": 3}

>  <energy>  (2) 
-11.1

>  <cluster_rmsd>  (2) 
0.35

>  <cluster>  (2) 
1

$$$$

     RDKit          3D

 78 83  0  0  0  0  0  0  0  0999 V2000
  131.7110   73.2360  227.5960 C   0  0  0  0  0  0  0  0  0  0  0  0
  132.3880   74.4770  227.4080 N   0  0  0  0  0  0  0  0  0  0  0  0
  131.7270   75.6010  227.9870 C   0  0  0  0  0  0  0  0  0  0  0  0
  132.9480   74.6990  226.1160 C   0  0  0  0  0  0  0  0  0  0  0  0
  133.6680   75.9920  226.0340 C   0  0  0  0  0  0  0  0  0  0  0  0
  134.6280   76.1800  224.9270 C   0  0  0  0  0  0  0  0  0  0  0  0
  135.0050   75.0340  224.1730 N   0  0  0  0  0  0  0  0  0  0  0  0
  136.2110   75.0680  223.3980 C   0  0  0  0  0  0  0  0  0  0  0  0
  136.6490   73.9690  222.7130 N   0  0  0  0  0  0  0  0  0  0  0  0
  137.7560   74.0230  221.9700 C   0  0  0  0  0  0  0  0  0  0  0  0
  138.3370   72.9950  221.2200 N   0  0  0  0  0  0  0  0  0  0  0  0
  138.2310   71.5650  221.3700 C   0  0  0  0  0  0  0  0  0  0  0  0
  139.4110   71.0710  222.0940 C   0  0  0  0  0  0  0  0  0  0  0  0
  139.3250   70.7300  223.4890 N   0  0  0  0  0  0  0  0  0  0  0  0
  139.1670   69.3510  223.7440 C   0  0  0  0  0  0  0  0  0  0  0  0
  139.1020   69.0250  225.2030 C   0  0  0  0  0  0  0  0  0  0  0  0
  139.7810   69.9580  226.1100 C   0  0  0  0  0  0  0  0  0  0  0  0
  139.7600   69.7440  227.4590 C   0  0  0  0  0  0  0  0  0  0  0  0
  140.3960   70.6390  228.3280 C   0  0  0  0  0  0  0  0  0  0  0  0
  141.0550   71.7530  227.8230 C   0  0  0  0  0  0  0  0  0  0  0  0
  141.0480   71.9260  226.4520 C   0  0  0  0  0  0  0  0  0  0  0  0
  140.4200   71.0430  225.5870 C   0  0  0  0  0  0  0  0  0  0  0  0
  140.5080   71.3310  224.1530 C   0  0  0  0  0  0  0  0  0  0  0  0
  138.4100   75.2100  221.9310 N   0  0  0  0  0  0  0  0  0  0  0  0
  138.0260   76.3170  222.5830 C   0  0  0  0  0  0  0  0  0  0  0  0
  138.8350   77.4640  222.4010 N   0  0  0  0  0  0  0  0  0  0  0  0
  139.8280   77.4120  221.3140 C   0  0  0  0  0  0  0  0  0  0  0  0
  141.2300   77.4720  221.9220 C   0  0  0  0  0  0  0  0  0  0  0  0
  141.2670   78.8130  222.6140 C   0  0  0  0  0  0  0  0  0  0  0  0
  142.5060   79.4350  222.6100 C   0  0  0  0  0  0  0  0  0  0  0  0
  142.6480   80.6770  223.2100 C   0  0  0  0  0  0  0  0  0  0  0  0
  141.5370   81.2250  223.7810 C   0  0  0  0  0  0  0  0  0  0  0  0
  140.2860   80.5970  223.7850 C   0  0  0  0  0  0  0  0  0  0  0  0
  140.1420   79.3600  223.1880 C   0  0  0  0  0  0  0  0  0  0  0  0
  138.8090   78.6690  223.1760 C   0  0  0  0  0  0  0  0  0  0  0  0
  136.9210   76.2420  223.3190 N   0  0  0  0  0  0  0  0  0  0  0  0
  134.1790   73.8600  224.2050 C   0  0  0  0  0  0  0  0  0  0  0  0
  133.8550   73.5700  225.6650 C   0  0  0  0  0  0  0  0  0  0  0  0
  131.6024   73.0369  228.6724 H   0  0  0  0  0  0  0  0  0  0  0  0
  130.7157   73.2870  227.1303 H   0  0  0  0  0  0  0  0  0  0  0  0
  132.2926   72.4268  227.1303 H   0  0  0  0  0  0  0  0  0  0  0  0
  131.7705   75.5271  229.0837 H   0  0  0  0  0  0  0  0  0  0  0  0
  132.2247   76.5265  227.6619 H   0  0  0  0  0  0  0  0  0  0  0  0
  130.6763   75.6160  227.6619 H   0  0  0  0  0  0  0  0  0  0  0  0
  132.0900   74.7334  225.4284 H   0  0  0  0  0  0  0  0  0  0  0  0
  132.9097   76.7842  225.9480 H   0  0  0  0  0  0  0  0  0  0  0  0
  134.2865   76.0213  226.9432 H   0  0  0  0  0  0  0  0  0  0  0  0
  134.1832   76.9018  224.2262 H   0  0  0  0  0  0  0  0  0  0  0  0
  135.5567   76.5055  225.4185 H   0  0  0  0  0  0  0  0  0  0  0  0
  138.9550   73.3190  220.4060 H   0  0  0  0  0  0  0  0  0  0  0  0
  137.3210   71.3201  221.9374 H   0  0  0  0  0  0  0  0  0  0  0  0
  138.1773   71.0904  220.3791 H   0  0  0  0  0  0  0  0  0  0  0  0
  139.7457   70.1644  221.5686 H   0  0  0  0  0  0  0  0  0  0  0  0
  140.0820   71.9426  222.0946 H   0  0  0  0  0  0  0  0  0  0  0  0
  138.2350   69.0120  223.2682 H   0  0  0  0  0  0  0  0  0  0  0  0
  140.0502   68.8394  223.3338 H   0  0  0  0  0  0  0  0  0  0  0  0
  138.0411   68.9900  225.4914 H   0  0  0  0  0  0  0  0  0  0  0  0
  139.6352   68.0692  225.3134 H   0  0  0  0  0  0  0  0  0  0  0  0
  139.2404   68.8635  227.8650 H   0  0  0  0  0  0  0  0  0  0  0  0
  140.3738   70.4597  229.4131 H   0  0  0  0  0  0  0  0  0  0  0  0
  141.5617   72.4683  228.4875 H   0  0  0  0  0  0  0  0  0  0  0  0
  141.5625   72.8014  226.0290 H   0  0  0  0  0  0  0  0  0  0  0  0
  140.5140   72.4190  223.9908 H   0  0  0  0  0  0  0  0  0  0  0  0
  141.4344   70.9096  223.7357 H   0  0  0  0  0  0  0  0  0  0  0  0
  139.7097   76.4750  220.7500 H   0  0  0  0  0  0  0  0  0  0  0  0
  139.6801   78.2627  220.6325 H   0  0  0  0  0  0  0  0  0  0  0  0
  141.3794   76.6549  222.6432 H   0  0  0  0  0  0  0  0  0  0  0  0
  142.0245   77.3603  221.1695 H   0  0  0  0  0  0  0  0  0  0  0  0
  143.3697   78.9471  222.1346 H   0  0  0  0  0  0  0  0  0  0  0  0
  143.6163   81.1987  223.2249 H   0  0  0  0  0  0  0  0  0  0  0  0
  141.6288   82.2098  224.2625 H   0  0  0  0  0  0  0  0  0  0  0  0
  139.4230   81.0857  224.2607 H   0  0  0  0  0  0  0  0  0  0  0  0
  138.5290   78.4199  224.2102 H   0  0  0  0  0  0  0  0  0  0  0  0
  138.0773   79.3511  222.7184 H   0  0  0  0  0  0  0  0  0  0  0  0
  133.2508   74.0380  223.6422 H   0  0  0  0  0  0  0  0  0  0  0  0
  134.6995   73.0065  223.7459 H   0  0  0  0  0  0  0  0  0  0  0  0
  133.3393   72.6029  225.7587 H   0  0  0  0  0  0  0  0  0  0  0  0
  134.7657   73.5108  226.2791 H   0  0  0  0  0  0  0  0  0  0  0  0
  1  2  1  0
  2  3  1  0
  2  4  1  0
  4  5  1  0
  5  6  1  0
  6  7  1  0
  7  8  1  0
  8  9  2  0
  9 10  1  0
 10 11  1  0
 11 12  1  0
 12 13  1  0
 13 14  1  0
 14 15  1  0
 15 16  1  0
 16 17  1  0
 17 18  2  0
 18 19  1  0
 19 20  2  0
 20 21  1  0
 21 22  2  0
 22 23  1  0
 10 24  2  0
 24 25  1  0
 25 26  1  0
 26 27  1  0
 27 28  1  0
 28 29  1  0
 29 30  2  0
 30 31  1  0
 31 32  2  0
 32 33  1  0
 33 34  2  0
 34 35  1  0
 25 36  2  0
  7 37  1  0
 37 38  1  0
 38  4  1  0
 36  8  1  0
 23 14  1  0
 35 26  1  0
 22 17  1  0
 34 29  1  0
  1 39  1  0
  1 40  1  0
  1 41  1  0
  3 42  1  0
  3 43  1  0
  3 44  1  0
  4 45  1  0
  5 46  1  0
  5 47  1  0
  6 48  1  0
  6 49  1  0
 11 50  1  0
 12 51  1  0
 12 52  1  0
 13 53  1  0
 13 54  1  0
 15 55  1  0
 15 56  1  0
 16 57  1  0
 16 58  1  0
 18 59  1  0
 19 60  1  0
 20 61  1  0
 21 62  1  0
 23 63  1  0
 23 64  1  0
 27 65  1  0
 27 66  1  0
 28 67  1  0
 28 68  1  0
 30 69  1  0
 31 70  1  0
 32 71  1  0
 33 72  1  0
 35 73  1  0
 35 74  1  0
 37 75  1  0
 37 76  1  0
 38 77  1  0
 38 78  1  0
M  END
>  <smiles>  (3) 
CN(C)C1CCN(c2nc(NCCN3CCc4ccccc4C3)nc(N3CCc4ccccc4C3)n2)CC1

>  <score_type>  (3) 
oracle

>  <origin>  (3) 
autodockgpu

>  <m_score__min__energy>  (3) 
-11.130000000000001

>  <m_primary>  (3) 
energy

>  <rmsd>  (3) 
3.9559555888299176

>  <m_score__min__rmsd>  (3) 
3.9559555888299176

>  <meeko>  (3) 
{"free_energy": -10.3, "intermolecular_energy": -12.39, "internal_energy": -1.23, "cluster_size": 7, "cluster_id": 3, "rank_in_cluster": 1}

>  <energy>  (3) 
-11.06

>  <cluster_rmsd>  (3) 
0.34

>  <cluster>  (3) 
1

$$$$

     RDKit          3D

 78 83  0  0  0  0  0  0  0  0999 V2000
  143.0710   80.1300  222.8570 C   0  0  0  0  0  0  0  0  0  0  0  0
  141.7030   80.2910  222.4850 N   0  0  0  0  0  0  0  0  0  0  0  0
  140.9370   81.0820  223.3920 C   0  0  0  0  0  0  0  0  0  0  0  0
  141.0450   79.1280  221.9850 C   0  0  0  0  0  0  0  0  0  0  0  0
  141.8190   78.4710  220.9070 C   0  0  0  0  0  0  0  0  0  0  0  0
  141.4900   77.0680  220.5780 C   0  0  0  0  0  0  0  0  0  0  0  0
  140.6530   76.3530  221.4780 N   0  0  0  0  0  0  0  0  0  0  0  0
  140.6490   74.9190  221.4460 C   0  0  0  0  0  0  0  0  0  0  0  0
  139.7090   74.1940  222.1240 N   0  0  0  0  0  0  0  0  0  0  0  0
  139.6970   72.8620  222.0610 C   0  0  0  0  0  0  0  0  0  0  0  0
  138.8150   71.9790  222.6940 N   0  0  0  0  0  0  0  0  0  0  0  0
  138.1700   70.7930  222.1880 C   0  0  0  0  0  0  0  0  0  0  0  0
  138.3760   69.6920  223.1400 C   0  0  0  0  0  0  0  0  0  0  0  0
  138.7200   69.9640  224.5100 N   0  0  0  0  0  0  0  0  0  0  0  0
  138.5660   68.8630  225.3800 C   0  0  0  0  0  0  0  0  0  0  0  0
  138.9510   69.1700  226.7930 C   0  0  0  0  0  0  0  0  0  0  0  0
  139.9420   70.2370  226.9810 C   0  0  0  0  0  0  0  0  0  0  0  0
  140.3410   70.5910  228.2380 C   0  0  0  0  0  0  0  0  0  0  0  0
  141.2760   71.6160  228.4220 C   0  0  0  0  0  0  0  0  0  0  0  0
  141.8070   72.2820  227.3240 C   0  0  0  0  0  0  0  0  0  0  0  0
  141.3720   71.8870  226.0730 C   0  0  0  0  0  0  0  0  0  0  0  0
  140.4460   70.8720  225.8850 C   0  0  0  0  0  0  0  0  0  0  0  0
  140.0880   70.5370  224.5050 C   0  0  0  0  0  0  0  0  0  0  0  0
  140.6520   72.2760  221.2960 N   0  0  0  0  0  0  0  0  0  0  0  0
  141.5970   72.9380  220.6120 C   0  0  0  0  0  0  0  0  0  0  0  0
  142.4950   72.1460  219.8570 N   0  0  0  0  0  0  0  0  0  0  0  0
  141.9060   71.0840  219.0230 C   0  0  0  0  0  0  0  0  0  0  0  0
  142.3680   69.7250  219.5530 C   0  0  0  0  0  0  0  0  0  0  0  0
  143.8680   69.7640  219.3860 C   0  0  0  0  0  0  0  0  0  0  0  0
  144.4510   68.5420  219.0880 C   0  0  0  0  0  0  0  0  0  0  0  0
  145.8230   68.4670  218.9040 C   0  0  0  0  0  0  0  0  0  0  0  0
  146.5340   69.6250  219.0300 C   0  0  0  0  0  0  0  0  0  0  0  0
  145.9450   70.8590  219.3300 C   0  0  0  0  0  0  0  0  0  0  0  0
  144.5780   70.9360  219.5140 C   0  0  0  0  0  0  0  0  0  0  0  0
  143.9240   72.2490  219.8330 C   0  0  0  0  0  0  0  0  0  0  0  0
  141.5930   74.2650  220.6900 N   0  0  0  0  0  0  0  0  0  0  0  0
  139.8320   77.0740  222.4100 C   0  0  0  0  0  0  0  0  0  0  0  0
  140.7130   78.1260  223.0730 C   0  0  0  0  0  0  0  0  0  0  0  0
  143.1540   80.1202  223.9538 H   0  0  0  0  0  0  0  0  0  0  0  0
  143.4518   79.1808  222.4520 H   0  0  0  0  0  0  0  0  0  0  0  0
  143.6618   80.9648  222.4520 H   0  0  0  0  0  0  0  0  0  0  0  0
  141.1988   80.8116  224.4256 H   0  0  0  0  0  0  0  0  0  0  0  0
  141.1560   82.1470  223.2249 H   0  0  0  0  0  0  0  0  0  0  0  0
  139.8656   80.8973  223.2249 H   0  0  0  0  0  0  0  0  0  0  0  0
  140.0951   79.4875  221.5625 H   0  0  0  0  0  0  0  0  0  0  0  0
  141.6759   79.0646  219.9920 H   0  0  0  0  0  0  0  0  0  0  0  0
  142.8490   78.4308  221.2910 H   0  0  0  0  0  0  0  0  0  0  0  0
  140.9912   77.0696  219.5976 H   0  0  0  0  0  0  0  0  0  0  0  0
  142.4546   76.5410  220.6201 H   0  0  0  0  0  0  0  0  0  0  0  0
  138.5830   72.2190  223.7120 H   0  0  0  0  0  0  0  0  0  0  0  0
  137.0927   70.9813  222.0696 H   0  0  0  0  0  0  0  0  0  0  0  0
  138.5995   70.5247  221.2115 H   0  0  0  0  0  0  0  0  0  0  0  0
  137.4407   69.1133  223.1592 H   0  0  0  0  0  0  0  0  0  0  0  0
  139.2788   69.1969  222.7528 H   0  0  0  0  0  0  0  0  0  0  0  0
  137.5115   68.5504  225.3650 H   0  0  0  0  0  0  0  0  0  0  0  0
  139.2377   68.0682  225.0235 H   0  0  0  0  0  0  0  0  0  0  0  0
  138.0382   69.4617  227.3331 H   0  0  0  0  0  0  0  0  0  0  0  0
  139.4304   68.2551  227.1713 H   0  0  0  0  0  0  0  0  0  0  0  0
  139.9250   70.0673  229.1113 H   0  0  0  0  0  0  0  0  0  0  0  0
  141.5913   71.8951  229.4382 H   0  0  0  0  0  0  0  0  0  0  0  0
  142.5432   73.0902  227.4455 H   0  0  0  0  0  0  0  0  0  0  0  0
  141.7777   72.3998  225.1885 H   0  0  0  0  0  0  0  0  0  0  0  0
  140.1099   71.4443  223.8834 H   0  0  0  0  0  0  0  0  0  0  0  0
  140.8036   69.8113  224.0911 H   0  0  0  0  0  0  0  0  0  0  0  0
  140.8086   71.1445  219.0684 H   0  0  0  0  0  0  0  0  0  0  0  0
  142.2299   71.2069  217.9790 H   0  0  0  0  0  0  0  0  0  0  0  0
  142.0946   69.6037  220.6116 H   0  0  0  0  0  0  0  0  0  0  0  0
  141.9028   68.8811  219.0224 H   0  0  0  0  0  0  0  0  0  0  0  0
  143.8296   67.6388  218.9982 H   0  0  0  0  0  0  0  0  0  0  0  0
  146.3179   67.5138  218.6664 H   0  0  0  0  0  0  0  0  0  0  0  0
  147.6242   69.5868  218.8888 H   0  0  0  0  0  0  0  0  0  0  0  0
  146.5669   71.7620  219.4187 H   0  0  0  0  0  0  0  0  0  0  0  0
  144.2720   72.5885  220.8197 H   0  0  0  0  0  0  0  0  0  0  0  0
  144.1994   72.9656  219.0452 H   0  0  0  0  0  0  0  0  0  0  0  0
  138.9995   77.5601  221.8802 H   0  0  0  0  0  0  0  0  0  0  0  0
  139.4072   76.3927  223.1619 H   0  0  0  0  0  0  0  0  0  0  0  0
  140.1713   78.6174  223.8946 H   0  0  0  0  0  0  0  0  0  0  0  0
  141.6211   77.6809  223.5058 H   0  0  0  0  0  0  0  0  0  0  0  0
  1  2  1  0
  2  3  1  0
  2  4  1  0
  4  5  1  0
  5  6  1  0
  6  7  1  0
  7  8  1  0
  8  9  2  0
  9 10  1  0
 10 11  1  0
 11 12  1  0
 12 13  1  0
 13 14  1  0
 14 15  1  0
 15 16  1  0
 16 17  1  0
 17 18  2  0
 18 19  1  0
 19 20  2  0
 20 21  1  0
 21 22  2  0
 22 23  1  0
 10 24  2  0
 24 25  1  0
 25 26  1  0
 26 27  1  0
 27 28  1  0
 28 29  1  0
 29 30  2  0
 30 31  1  0
 31 32  2  0
 32 33  1  0
 33 34  2  0
 34 35  1  0
 25 36  2  0
  7 37  1  0
 37 38  1  0
 38  4  1  0
 36  8  1  0
 23 14  1  0
 35 26  1  0
 22 17  1  0
 34 29  1  0
  1 39  1  0
  1 40  1  0
  1 41  1  0
  3 42  1  0
  3 43  1  0
  3 44  1  0
  4 45  1  0
  5 46  1  0
  5 47  1  0
  6 48  1  0
  6 49  1  0
 11 50  1  0
 12 51  1  0
 12 52  1  0
 13 53  1  0
 13 54  1  0
 15 55  1  0
 15 56  1  0
 16 57  1  0
 16 58  1  0
 18 59  1  0
 19 60  1  0
 20 61  1  0
 21 62  1  0
 23 63  1  0
 23 64  1  0
 27 65  1  0
 27 66  1  0
 28 67  1  0
 28 68  1  0
 30 69  1  0
 31 70  1  0
 32 71  1  0
 33 72  1  0
 35 73  1  0
 35 74  1  0
 37 75  1  0
 37 76  1  0
 38 77  1  0
 38 78  1  0
M  END
>  <smiles>  (4) 
CN(C)C1CCN(c2nc(NCCN3CCc4ccccc4C3)nc(N3CCc4ccccc4C3)n2)CC1

>  <score_type>  (4) 
oracle

>  <origin>  (4) 
autodockgpu

>  <m_score__min__energy>  (4) 
-11.130000000000001

>  <m_primary>  (4) 
energy

>  <rmsd>  (4) 
4.361097841344872

>  <m_score__min__rmsd>  (4) 
4.361097841344872

>  <meeko>  (4) 
{"free_energy": -10.15, "intermolecular_energy": -12.23, "internal_energy": -1.53, "cluster_size": 13, "cluster_id": 2, "rank_in_cluster": 8}

>  <energy>  (4) 
-10.9

>  <cluster_rmsd>  (4) 
0.27

>  <cluster>  (4) 
1

$$$$

     RDKit          3D

 78 83  0  0  0  0  0  0  0  0999 V2000
  143.7320   80.5100  223.1860 C   0  0  0  0  0  0  0  0  0  0  0  0
  142.3640   80.8780  223.0140 N   0  0  0  0  0  0  0  0  0  0  0  0
  141.8140   81.6210  224.1000 C   0  0  0  0  0  0  0  0  0  0  0  0
  141.5080   79.8800  222.4630 C   0  0  0  0  0  0  0  0  0  0  0  0
  142.1020   79.2310  221.2710 C   0  0  0  0  0  0  0  0  0  0  0  0
  141.5440   77.9320  220.8420 C   0  0  0  0  0  0  0  0  0  0  0  0
  140.6690   77.2560  221.7370 N   0  0  0  0  0  0  0  0  0  0  0  0
  140.4470   75.8490  221.5740 C   0  0  0  0  0  0  0  0  0  0  0  0
  139.3230   75.2430  222.0650 N   0  0  0  0  0  0  0  0  0  0  0  0
  139.1130   73.9390  221.8790 C   0  0  0  0  0  0  0  0  0  0  0  0
  138.0280   73.1730  222.3180 N   0  0  0  0  0  0  0  0  0  0  0  0
  137.7210   71.7840  222.0830 C   0  0  0  0  0  0  0  0  0  0  0  0
  138.8970   70.9690  222.4220 C   0  0  0  0  0  0  0  0  0  0  0  0
  139.1380   70.5600  223.7790 N   0  0  0  0  0  0  0  0  0  0  0  0
  139.3030   69.1680  223.9490 C   0  0  0  0  0  0  0  0  0  0  0  0
  139.5740   68.7750  225.3670 C   0  0  0  0  0  0  0  0  0  0  0  0
  140.2120   69.7900  226.2150 C   0  0  0  0  0  0  0  0  0  0  0  0
  140.4820   69.5200  227.5250 C   0  0  0  0  0  0  0  0  0  0  0  0
  141.0790   70.4900  228.3400 C   0  0  0  0  0  0  0  0  0  0  0  0
  141.4020   71.7370  227.8190 C   0  0  0  0  0  0  0  0  0  0  0  0
  141.1080   71.9620  226.4870 C   0  0  0  0  0  0  0  0  0  0  0  0
  140.5170   71.0050  225.6760 C   0  0  0  0  0  0  0  0  0  0  0  0
  140.2810   71.3650  224.2760 C   0  0  0  0  0  0  0  0  0  0  0  0
  140.0600   73.2590  221.1860 N   0  0  0  0  0  0  0  0  0  0  0  0
  141.1790   73.8010  220.6840 C   0  0  0  0  0  0  0  0  0  0  0  0
  142.0350   72.9270  219.9740 N   0  0  0  0  0  0  0  0  0  0  0  0
  141.4080   71.7660  219.3190 C   0  0  0  0  0  0  0  0  0  0  0  0
  141.9220   70.4860  219.9800 C   0  0  0  0  0  0  0  0  0  0  0  0
  143.4070   70.5120  219.7090 C   0  0  0  0  0  0  0  0  0  0  0  0
  143.9850   69.2660  219.5260 C   0  0  0  0  0  0  0  0  0  0  0  0
  145.3430   69.1760  219.2610 C   0  0  0  0  0  0  0  0  0  0  0  0
  146.0450   70.3450  219.1950 C   0  0  0  0  0  0  0  0  0  0  0  0
  145.4600   71.6030  219.3800 C   0  0  0  0  0  0  0  0  0  0  0  0
  144.1080   71.6940  219.6440 C   0  0  0  0  0  0  0  0  0  0  0  0
  143.4580   73.0340  219.8420 C   0  0  0  0  0  0  0  0  0  0  0  0
  141.3700   75.1020  220.8820 N   0  0  0  0  0  0  0  0  0  0  0  0
  140.0290   77.9890  222.7930 C   0  0  0  0  0  0  0  0  0  0  0  0
  141.0990   78.8290  223.4780 C   0  0  0  0  0  0  0  0  0  0  0  0
  143.9628   80.4479  224.2597 H   0  0  0  0  0  0  0  0  0  0  0  0
  143.9105   79.5319  222.7154 H   0  0  0  0  0  0  0  0  0  0  0  0
  144.3772   81.2665  222.7154 H   0  0  0  0  0  0  0  0  0  0  0  0
  142.1425   81.1773  225.0514 H   0  0  0  0  0  0  0  0  0  0  0  0
  142.1595   82.6638  224.0431 H   0  0  0  0  0  0  0  0  0  0  0  0
  140.7158   81.5950  224.0431 H   0  0  0  0  0  0  0  0  0  0  0  0
  140.5988   80.4151  222.1513 H   0  0  0  0  0  0  0  0  0  0  0  0
  141.9917   79.9294  220.4284 H   0  0  0  0  0  0  0  0  0  0  0  0
  143.1365   79.0029  221.5674 H   0  0  0  0  0  0  0  0  0  0  0  0
  140.9879   78.1062  219.9090 H   0  0  0  0  0  0  0  0  0  0  0  0
  142.4185   77.2700  220.7580 H   0  0  0  0  0  0  0  0  0  0  0  0
  137.3150   73.6970  222.9230 H   0  0  0  0  0  0  0  0  0  0  0  0
  136.8702   71.4830  222.7119 H   0  0  0  0  0  0  0  0  0  0  0  0
  137.4588   71.6355  221.0251 H   0  0  0  0  0  0  0  0  0  0  0  0
  138.8247   70.0485  221.8241 H   0  0  0  0  0  0  0  0  0  0  0  0
  139.7359   71.6506  222.2178 H   0  0  0  0  0  0  0  0  0  0  0  0
  138.3837   68.6638  223.6162 H   0  0  0  0  0  0  0  0  0  0  0  0
  140.1779   68.8676  223.3538 H   0  0  0  0  0  0  0  0  0  0  0  0
  138.6125   68.5083  225.8300 H   0  0  0  0  0  0  0  0  0  0  0  0
  140.2962   67.9474  225.3081 H   0  0  0  0  0  0  0  0  0  0  0  0
  140.2292   68.5346  227.9434 H   0  0  0  0  0  0  0  0  0  0  0  0
  141.2927   70.2641  229.3951 H   0  0  0  0  0  0  0  0  0  0  0  0
  141.8722   72.5131  228.4407 H   0  0  0  0  0  0  0  0  0  0  0  0
  141.3534   72.9420  226.0519 H   0  0  0  0  0  0  0  0  0  0  0  0
  140.0427   72.4363  224.2016 H   0  0  0  0  0  0  0  0  0  0  0  0
  141.1793   71.1631  223.6741 H   0  0  0  0  0  0  0  0  0  0  0  0
  140.3152   71.8254  219.4296 H   0  0  0  0  0  0  0  0  0  0  0  0
  141.6618   71.7602  218.2487 H   0  0  0  0  0  0  0  0  0  0  0  0
  141.7208   70.4954  221.0614 H   0  0  0  0  0  0  0  0  0  0  0  0
  141.4342   69.5804  219.5901 H   0  0  0  0  0  0  0  0  0  0  0  0
  143.3713   68.3554  219.5905 H   0  0  0  0  0  0  0  0  0  0  0  0
  145.8342   68.2034  219.1102 H   0  0  0  0  0  0  0  0  0  0  0  0
  147.1239   70.2958  218.9861 H   0  0  0  0  0  0  0  0  0  0  0  0
  146.0737   72.5136  219.3154 H   0  0  0  0  0  0  0  0  0  0  0  0
  143.8654   73.4949  220.7539 H   0  0  0  0  0  0  0  0  0  0  0  0
  143.6713   73.6491  218.9553 H   0  0  0  0  0  0  0  0  0  0  0  0
  139.2474   78.6419  222.3773 H   0  0  0  0  0  0  0  0  0  0  0  0
  139.5557   77.3027  223.5106 H   0  0  0  0  0  0  0  0  0  0  0  0
  140.6918   79.3063  224.3815 H   0  0  0  0  0  0  0  0  0  0  0  0
  141.9554   78.2158  223.7950 H   0  0  0  0  0  0  0  0  0  0  0  0
  1  2  1  0
  2  3  1  0
  2  4  1  0
  4  5  1  0
  5  6  1  0
  6  7  1  0
  7  8  1  0
  8  9  2  0
  9 10  1  0
 10 11  1  0
 11 12  1  0
 12 13  1  0
 13 14  1  0
 14 15  1  0
 15 16  1  0
 16 17  1  0
 17 18  2  0
 18 19  1  0
 19 20  2  0
 20 21  1  0
 21 22  2  0
 22 23  1  0
 10 24  2  0
 24 25  1  0
 25 26  1  0
 26 27  1  0
 27 28  1  0
 28 29  1  0
 29 30  2  0
 30 31  1  0
 31 32  2  0
 32 33  1  0
 33 34  2  0
 34 35  1  0
 25 36  2  0
  7 37  1  0
 37 38  1  0
 38  4  1  0
 36  8  1  0
 23 14  1  0
 35 26  1  0
 22 17  1  0
 34 29  1  0
  1 39  1  0
  1 40  1  0
  1 41  1  0
  3 42  1  0
  3 43  1  0
  3 44  1  0
  4 45  1  0
  5 46  1  0
  5 47  1  0
  6 48  1  0
  6 49  1  0
 11 50  1  0
 12 51  1  0
 12 52  1  0
 13 53  1  0
 13 54  1  0
 15 55  1  0
 15 56  1  0
 16 57  1  0
 16 58  1  0
 18 59  1  0
 19 60  1  0
 20 61  1  0
 21 62  1  0
 23 63  1  0
 23 64  1  0
 27 65  1  0
 27 66  1  0
 28 67  1  0
 28 68  1  0
 30 69  1  0
 31 70  1  0
 32 71  1  0
 33 72  1  0
 35 73  1  0
 35 74  1  0
 37 75  1  0
 37 76  1  0
 38 77  1  0
 38 78  1  0
M  END
>  <smiles>  (5) 
CN(C)C1CCN(c2nc(NCCN3CCc4ccccc4C3)nc(N3CCc4ccccc4C3)n2)CC1

>  <score_type>  (5) 
oracle

>  <origin>  (5) 
autodockgpu

>  <m_score__min__energy>  (5) 
-11.130000000000001

>  <m_primary>  (5) 
energy

>  <rmsd>  (5) 
3.94699184647942

>  <m_score__min__rmsd>  (5) 
3.94699184647942

>  <meeko>  (5) 
{"free_energy": -9.75, "intermolecular_energy": -11.84, "internal_energy": -1.54, "cluster_size": 13, "cluster_id": 2, "rank_in_cluster": 11}

>  <energy>  (5) 
-10.82

>  <cluster_rmsd>  (5) 
0.63

>  <cluster>  (5) 
1

$$$$

     RDKit          3D

 78 83  0  0  0  0  0  0  0  0999 V2000
  145.4380   71.8620  217.0950 C   0  0  0  0  0  0  0  0  0  0  0  0
  145.8690   71.3770  218.3660 N   0  0  0  0  0  0  0  0  0  0  0  0
  146.2790   70.0110  218.3660 C   0  0  0  0  0  0  0  0  0  0  0  0
  145.0910   71.7800  219.4910 C   0  0  0  0  0  0  0  0  0  0  0  0
  144.9310   73.2510  219.5600 C   0  0  0  0  0  0  0  0  0  0  0  0
  143.8420   73.7890  220.4020 C   0  0  0  0  0  0  0  0  0  0  0  0
  142.8560   72.8790  220.8740 N   0  0  0  0  0  0  0  0  0  0  0  0
  141.5880   73.3830  221.3140 C   0  0  0  0  0  0  0  0  0  0  0  0
  140.5950   72.5430  221.7360 N   0  0  0  0  0  0  0  0  0  0  0  0
  139.4310   73.0260  222.1730 C   0  0  0  0  0  0  0  0  0  0  0  0
  138.3210   72.3090  222.6300 N   0  0  0  0  0  0  0  0  0  0  0  0
  137.7560   71.0720  222.1490 C   0  0  0  0  0  0  0  0  0  0  0  0
  138.4970   69.9460  222.7360 C   0  0  0  0  0  0  0  0  0  0  0  0
  138.8170   69.9320  224.1380 N   0  0  0  0  0  0  0  0  0  0  0  0
  138.9190   68.6410  224.7010 C   0  0  0  0  0  0  0  0  0  0  0  0
  139.2730   68.6580  226.1550 C   0  0  0  0  0  0  0  0  0  0  0  0
  140.0270   69.8250  226.6290 C   0  0  0  0  0  0  0  0  0  0  0  0
  140.3800   69.9280  227.9440 C   0  0  0  0  0  0  0  0  0  0  0  0
  141.0880   71.0460  228.4020 C   0  0  0  0  0  0  0  0  0  0  0  0
  141.4380   72.0610  227.5190 C   0  0  0  0  0  0  0  0  0  0  0  0
  141.0580   71.9100  226.1990 C   0  0  0  0  0  0  0  0  0  0  0  0
  140.3570   70.8050  225.7400 C   0  0  0  0  0  0  0  0  0  0  0  0
  140.0360   70.7590  224.3110 C   0  0  0  0  0  0  0  0  0  0  0  0
  139.2900   74.3750  222.1760 N   0  0  0  0  0  0  0  0  0  0  0  0
  140.2290   75.2440  221.7720 C   0  0  0  0  0  0  0  0  0  0  0  0
  139.8960   76.6160  221.8700 N   0  0  0  0  0  0  0  0  0  0  0  0
  140.9890   77.5820  221.6660 C   0  0  0  0  0  0  0  0  0  0  0  0
  141.2290   78.3420  222.9710 C   0  0  0  0  0  0  0  0  0  0  0  0
  139.9230   79.0590  223.2160 C   0  0  0  0  0  0  0  0  0  0  0  0
  140.0460   80.2960  223.8310 C   0  0  0  0  0  0  0  0  0  0  0  0
  138.9080   81.0430  224.0930 C   0  0  0  0  0  0  0  0  0  0  0  0
  137.7090   80.5070  223.7230 C   0  0  0  0  0  0  0  0  0  0  0  0
  137.5860   79.2580  223.1020 C   0  0  0  0  0  0  0  0  0  0  0  0
  138.7180   78.5120  222.8400 C   0  0  0  0  0  0  0  0  0  0  0  0
  138.6100   77.1710  222.1710 C   0  0  0  0  0  0  0  0  0  0  0  0
  141.3810   74.7420  221.3390 N   0  0  0  0  0  0  0  0  0  0  0  0
  143.1410   71.4720  220.8950 C   0  0  0  0  0  0  0  0  0  0  0  0
  143.7340   71.1070  219.5400 C   0  0  0  0  0  0  0  0  0  0  0  0
  144.7137   72.6771  217.2400 H   0  0  0  0  0  0  0  0  0  0  0  0
  146.3054   72.2380  216.5327 H   0  0  0  0  0  0  0  0  0  0  0  0
  144.9627   71.0448  216.5327 H   0  0  0  0  0  0  0  0  0  0  0  0
  146.3844   69.6598  219.4031 H   0  0  0  0  0  0  0  0  0  0  0  0
  145.5242   69.4016  217.8475 H   0  0  0  0  0  0  0  0  0  0  0  0
  147.2446   69.9180  217.8475 H   0  0  0  0  0  0  0  0  0  0  0  0
  145.6595   71.4492  220.3727 H   0  0  0  0  0  0  0  0  0  0  0  0
  145.8756   73.6658  219.9416 H   0  0  0  0  0  0  0  0  0  0  0  0
  144.6603   73.5476  218.5359 H   0  0  0  0  0  0  0  0  0  0  0  0
  144.3081   74.2537  221.2834 H   0  0  0  0  0  0  0  0  0  0  0  0
  143.2921   74.4731  219.7390 H   0  0  0  0  0  0  0  0  0  0  0  0
  137.8110   72.7420  223.4670 H   0  0  0  0  0  0  0  0  0  0  0  0
  136.6980   71.0107  222.4438 H   0  0  0  0  0  0  0  0  0  0  0  0
  137.8285   71.0326  221.0521 H   0  0  0  0  0  0  0  0  0  0  0  0
  137.9024   69.0415  222.5398 H   0  0  0  0  0  0  0  0  0  0  0  0
  139.4848   70.0254  222.2586 H   0  0  0  0  0  0  0  0  0  0  0  0
  137.9518   68.1306  224.5826 H   0  0  0  0  0  0  0  0  0  0  0  0
  139.7299   68.1175  224.1733 H   0  0  0  0  0  0  0  0  0  0  0  0
  138.3355   68.6097  226.7284 H   0  0  0  0  0  0  0  0  0  0  0  0
  139.9421   67.7976  226.3032 H   0  0  0  0  0  0  0  0  0  0  0  0
  140.1066   69.1280  228.6478 H   0  0  0  0  0  0  0  0  0  0  0  0
  141.3679   71.1212  229.4631 H   0  0  0  0  0  0  0  0  0  0  0  0
  141.9944   72.9476  227.8570 H   0  0  0  0  0  0  0  0  0  0  0  0
  141.3230   72.7004  225.4814 H   0  0  0  0  0  0  0  0  0  0  0  0
  139.8517   71.7771  223.9375 H   0  0  0  0  0  0  0  0  0  0  0  0
  140.8741   70.3245  223.7464 H   0  0  0  0  0  0  0  0  0  0  0  0
  141.9054   77.0468  221.3766 H   0  0  0  0  0  0  0  0  0  0  0  0
  140.7174   78.2887  220.8679 H   0  0  0  0  0  0  0  0  0  0  0  0
  141.4548   77.6471  223.7933 H   0  0  0  0  0  0  0  0  0  0  0  0
  142.0864   79.0285  222.9118 H   0  0  0  0  0  0  0  0  0  0  0  0
  141.0383   80.6811  224.1085 H   0  0  0  0  0  0  0  0  0  0  0  0
  138.9691   82.0277  224.5794 H   0  0  0  0  0  0  0  0  0  0  0  0
  136.7942   81.0844  223.9223 H   0  0  0  0  0  0  0  0  0  0  0  0
  136.5935   78.8734  222.8245 H   0  0  0  0  0  0  0  0  0  0  0  0
  138.0739   76.4823  222.8406 H   0  0  0  0  0  0  0  0  0  0  0  0
  138.0684   77.3069  221.2233 H   0  0  0  0  0  0  0  0  0  0  0  0
  143.8624   71.2464  221.6942 H   0  0  0  0  0  0  0  0  0  0  0  0
  142.2256   70.8931  221.0870 H   0  0  0  0  0  0  0  0  0  0  0  0
  143.8435   70.0161  219.4507 H   0  0  0  0  0  0  0  0  0  0  0  0
  143.0880   71.4355  218.7125 H   0  0  0  0  0  0  0  0  0  0  0  0
  1  2  1  0
  2  3  1  0
  2  4  1  0
  4  5  1  0
  5  6  1  0
  6  7  1  0
  7  8  1  0
  8  9  2  0
  9 10  1  0
 10 11  1  0
 11 12  1  0
 12 13  1  0
 13 14  1  0
 14 15  1  0
 15 16  1  0
 16 17  1  0
 17 18  2  0
 18 19  1  0
 19 20  2  0
 20 21  1  0
 21 22  2  0
 22 23  1  0
 10 24  2  0
 24 25  1  0
 25 26  1  0
 26 27  1  0
 27 28  1  0
 28 29  1  0
 29 30  2  0
 30 31  1  0
 31 32  2  0
 32 33  1  0
 33 34  2  0
 34 35  1  0
 25 36  2  0
  7 37  1  0
 37 38  1  0
 38  4  1  0
 36  8  1  0
 23 14  1  0
 35 26  1  0
 22 17  1  0
 34 29  1  0
  1 39  1  0
  1 40  1  0
  1 41  1  0
  3 42  1  0
  3 43  1  0
  3 44  1  0
  4 45  1  0
  5 46  1  0
  5 47  1  0
  6 48  1  0
  6 49  1  0
 11 50  1  0
 12 51  1  0
 12 52  1  0
 13 53  1  0
 13 54  1  0
 15 55  1  0
 15 56  1  0
 16 57  1  0
 16 58  1  0
 18 59  1  0
 19 60  1  0
 20 61  1  0
 21 62  1  0
 23 63  1  0
 23 64  1  0
 27 65  1  0
 27 66  1  0
 28 67  1  0
 28 68  1  0
 30 69  1  0
 31 70  1  0
 32 71  1  0
 33 72  1  0
 35 73  1  0
 35 74  1  0
 37 75  1  0
 37 76  1  0
 38 77  1  0
 38 78  1  0
M  END
>  <smiles>  (6) 
CN(C)C1CCN(c2nc(NCCN3CCc4ccccc4C3)nc(N3CCc4ccccc4C3)n2)CC1

>  <score_type>  (6) 
oracle

>  <origin>  (6) 
autodockgpu

>  <m_score__min__energy>  (6) 
-11.130000000000001

>  <m_primary>  (6) 
energy

>  <rmsd>  (6) 
4.206645458301112

>  <m_score__min__rmsd>  (6) 
4.206645458301112

>  <meeko>  (6) 
{"free_energy": -10.71, "intermolecular_energy": -12.8, "internal_energy": -1.45, "cluster_size": 16, "cluster_id": 1, "rank_in_cluster": 8}

>  <energy>  (6) 
-10.77

>  <cluster_rmsd>  (6) 
0.71

>  <cluster>  (6) 
1

$$$$

     RDKit          3D

 78 83  0  0  0  0  0  0  0  0999 V2000
  143.5130   80.1490  223.0610 C   0  0  0  0  0  0  0  0  0  0  0  0
  142.1420   80.4550  222.8100 N   0  0  0  0  0  0  0  0  0  0  0  0
  141.5220   81.2480  223.8210 C   0  0  0  0  0  0  0  0  0  0  0  0
  141.3440   79.3920  222.2940 C   0  0  0  0  0  0  0  0  0  0  0  0
  141.9590   78.7610  221.1030 C   0  0  0  0  0  0  0  0  0  0  0  0
  141.4810   77.4190  220.7090 C   0  0  0  0  0  0  0  0  0  0  0  0
  140.6680   76.7050  221.6320 N   0  0  0  0  0  0  0  0  0  0  0  0
  140.5360   75.2830  221.4990 C   0  0  0  0  0  0  0  0  0  0  0  0
  139.4740   74.6120  222.0390 N   0  0  0  0  0  0  0  0  0  0  0  0
  139.3470   73.2940  221.8820 C   0  0  0  0  0  0  0  0  0  0  0  0
  138.3320   72.4650  222.3710 N   0  0  0  0  0  0  0  0  0  0  0  0
  137.9160   71.1550  221.9340 C   0  0  0  0  0  0  0  0  0  0  0  0
  138.8650   70.1560  222.4450 C   0  0  0  0  0  0  0  0  0  0  0  0
  139.0960   70.0200  223.8580 N   0  0  0  0  0  0  0  0  0  0  0  0
  139.1990   68.6860  224.3070 C   0  0  0  0  0  0  0  0  0  0  0  0
  139.4610   68.5780  225.7770 C   0  0  0  0  0  0  0  0  0  0  0  0
  140.1500   69.7140  226.4020 C   0  0  0  0  0  0  0  0  0  0  0  0
  140.4170   69.7040  227.7410 C   0  0  0  0  0  0  0  0  0  0  0  0
  141.0620   70.7910  228.3430 C   0  0  0  0  0  0  0  0  0  0  0  0
  141.4380   71.8900  227.5790 C   0  0  0  0  0  0  0  0  0  0  0  0
  141.1470   71.8510  226.2290 C   0  0  0  0  0  0  0  0  0  0  0  0
  140.5070   70.7780  225.6280 C   0  0  0  0  0  0  0  0  0  0  0  0
  140.2790   70.8560  224.1830 C   0  0  0  0  0  0  0  0  0  0  0  0
  140.3130   72.6670  221.1660 N   0  0  0  0  0  0  0  0  0  0  0  0
  141.3750   73.2740  220.6170 C   0  0  0  0  0  0  0  0  0  0  0  0
  142.2640   72.4460  219.8910 N   0  0  0  0  0  0  0  0  0  0  0  0
  141.6690   71.3310  219.1350 C   0  0  0  0  0  0  0  0  0  0  0  0
  142.1560   70.0110  219.7350 C   0  0  0  0  0  0  0  0  0  0  0  0
  143.6520   70.0530  219.5330 C   0  0  0  0  0  0  0  0  0  0  0  0
  144.2400   68.8200  219.2950 C   0  0  0  0  0  0  0  0  0  0  0  0
  145.6090   68.7470  219.0860 C   0  0  0  0  0  0  0  0  0  0  0  0
  146.3100   69.9170  219.1260 C   0  0  0  0  0  0  0  0  0  0  0  0
  145.7150   71.1620  219.3660 C   0  0  0  0  0  0  0  0  0  0  0  0
  144.3520   71.2360  219.5740 C   0  0  0  0  0  0  0  0  0  0  0  0
  143.6910   72.5610  219.8290 C   0  0  0  0  0  0  0  0  0  0  0  0
  141.4840   74.5880  220.7870 N   0  0  0  0  0  0  0  0  0  0  0  0
  139.9990   77.4150  222.6860 C   0  0  0  0  0  0  0  0  0  0  0  0
  141.0240   78.3370  223.3350 C   0  0  0  0  0  0  0  0  0  0  0  0
  143.6872   80.1101  224.1464 H   0  0  0  0  0  0  0  0  0  0  0  0
  143.7587   79.1739  222.6150 H   0  0  0  0  0  0  0  0  0  0  0  0
  144.1500   80.9271  222.6150 H   0  0  0  0  0  0  0  0  0  0  0  0
  141.8153   80.8728  224.8126 H   0  0  0  0  0  0  0  0  0  0  0  0
  141.8439   82.2945  223.7150 H   0  0  0  0  0  0  0  0  0  0  0  0
  140.4288   81.1881  223.7150 H   0  0  0  0  0  0  0  0  0  0  0  0
  140.3955   79.8591  221.9903 H   0  0  0  0  0  0  0  0  0  0  0  0
  141.7872   79.4338  220.2499 H   0  0  0  0  0  0  0  0  0  0  0  0
  143.0117   78.6085  221.3833 H   0  0  0  0  0  0  0  0  0  0  0  0
  140.8991   77.5373  219.7831 H   0  0  0  0  0  0  0  0  0  0  0  0
  142.3960   76.8146  220.6221 H   0  0  0  0  0  0  0  0  0  0  0  0
  137.7780   72.8610  223.1980 H   0  0  0  0  0  0  0  0  0  0  0  0
  136.9094   70.9394  222.3216 H   0  0  0  0  0  0  0  0  0  0  0  0
  137.8951   71.1193  220.8348 H   0  0  0  0  0  0  0  0  0  0  0  0
  138.5133   69.1767  222.0882 H   0  0  0  0  0  0  0  0  0  0  0  0
  139.8326   70.5227  222.0719 H   0  0  0  0  0  0  0  0  0  0  0  0
  138.2559   68.1670  224.0808 H   0  0  0  0  0  0  0  0  0  0  0  0
  140.0554   68.2311  223.7877 H   0  0  0  0  0  0  0  0  0  0  0  0
  138.4913   68.4557  226.2818 H   0  0  0  0  0  0  0  0  0  0  0  0
  140.1442   67.7233  225.8903 H   0  0  0  0  0  0  0  0  0  0  0  0
  140.1235   68.8366  228.3505 H   0  0  0  0  0  0  0  0  0  0  0  0
  141.2717   70.7755  229.4227 H   0  0  0  0  0  0  0  0  0  0  0  0
  141.9461   72.7547  228.0307 H   0  0  0  0  0  0  0  0  0  0  0  0
  141.4357   72.7087  225.6037 H   0  0  0  0  0  0  0  0  0  0  0  0
  140.0899   71.8995  223.8910 H   0  0  0  0  0  0  0  0  0  0  0  0
  141.1631   70.4947  223.6372 H   0  0  0  0  0  0  0  0  0  0  0  0
  140.5722   71.3841  219.2003 H   0  0  0  0  0  0  0  0  0  0  0  0
  141.9696   71.3941  218.0788 H   0  0  0  0  0  0  0  0  0  0  0  0
  141.9066   69.9513  220.8047 H   0  0  0  0  0  0  0  0  0  0  0  0
  141.6882   69.1327  219.2663 H   0  0  0  0  0  0  0  0  0  0  0  0
  143.6259   67.9077  219.2722 H   0  0  0  0  0  0  0  0  0  0  0  0
  146.1090   67.7858  218.8959 H   0  0  0  0  0  0  0  0  0  0  0  0
  147.3970   69.8806  218.9615 H   0  0  0  0  0  0  0  0  0  0  0  0
  146.3291   72.0743  219.3886 H   0  0  0  0  0  0  0  0  0  0  0  0
  144.0568   72.9621  220.7857 H   0  0  0  0  0  0  0  0  0  0  0  0
  143.9418   73.2320  218.9942 H   0  0  0  0  0  0  0  0  0  0  0  0
  139.1689   78.0069  222.2730 H   0  0  0  0  0  0  0  0  0  0  0  0
  139.5840   76.7136  223.4249 H   0  0  0  0  0  0  0  0  0  0  0  0
  140.6027   78.8040  224.2375 H   0  0  0  0  0  0  0  0  0  0  0  0
  141.9246   77.7876  223.6464 H   0  0  0  0  0  0  0  0  0  0  0  0
  1  2  1  0
  2  3  1  0
  2  4  1  0
  4  5  1  0
  5  6  1  0
  6  7  1  0
  7  8  1  0
  8  9  2  0
  9 10  1  0
 10 11  1  0
 11 12  1  0
 12 13  1  0
 13 14  1  0
 14 15  1  0
 15 16  1  0
 16 17  1  0
 17 18  2  0
 18 19  1  0
 19 20  2  0
 20 21  1  0
 21 22  2  0
 22 23  1  0
 10 24  2  0
 24 25  1  0
 25 26  1  0
 26 27  1  0
 27 28  1  0
 28 29  1  0
 29 30  2  0
 30 31  1  0
 31 32  2  0
 32 33  1  0
 33 34  2  0
 34 35  1  0
 25 36  2  0
  7 37  1  0
 37 38  1  0
 38  4  1  0
 36  8  1  0
 23 14  1  0
 35 26  1  0
 22 17  1  0
 34 29  1  0
  1 39  1  0
  1 40  1  0
  1 41  1  0
  3 42  1  0
  3 43  1  0
  3 44  1  0
  4 45  1  0
  5 46  1  0
  5 47  1  0
  6 48  1  0
  6 49  1  0
 11 50  1  0
 12 51  1  0
 12 52  1  0
 13 53  1  0
 13 54  1  0
 15 55  1  0
 15 56  1  0
 16 57  1  0
 16 58  1  0
 18 59  1  0
 19 60  1  0
 20 61  1  0
 21 62  1  0
 23 63  1  0
 23 64  1  0
 27 65  1  0
 27 66  1  0
 28 67  1  0
 28 68  1  0
 30 69  1  0
 31 70  1  0
 32 71  1  0
 33 72  1  0
 35 73  1  0
 35 74  1  0
 37 75  1  0
 37 76  1  0
 38 77  1  0
 38 78  1  0
M  END
>  <smiles>  (7) 
CN(C)C1CCN(c2nc(NCCN3CCc4ccccc4C3)nc(N3CCc4ccccc4C3)n2)CC1

>  <score_type>  (7) 
oracle

>  <origin>  (7) 
autodockgpu

>  <m_score__min__energy>  (7) 
-11.130000000000001

>  <m_primary>  (7) 
energy

>  <rmsd>  (7) 
4.106331721875465

>  <m_score__min__rmsd>  (7) 
4.106331721875465

>  <meeko>  (7) 
{"free_energy": -10.21, "intermolecular_energy": -12.3, "internal_energy": -1.62, "cluster_size": 13, "cluster_id": 2, "rank_in_cluster": 5}

>  <energy>  (7) 
-10.73

>  <cluster_rmsd>  (7) 
1.39

>  <cluster>  (7) 
1

$$$$

     RDKit          3D

 78 83  0  0  0  0  0  0  0  0999 V2000
  142.3090   81.2320  223.8340 C   0  0  0  0  0  0  0  0  0  0  0  0
  141.9200   81.1580  222.4640 N   0  0  0  0  0  0  0  0  0  0  0  0
  141.4340   82.3860  221.9240 C   0  0  0  0  0  0  0  0  0  0  0  0
  141.1950   79.9930  222.0760 C   0  0  0  0  0  0  0  0  0  0  0  0
  141.8080   79.3170  220.9090 C   0  0  0  0  0  0  0  0  0  0  0  0
  141.4310   77.9130  220.6480 C   0  0  0  0  0  0  0  0  0  0  0  0
  140.7270   77.2130  221.6670 N   0  0  0  0  0  0  0  0  0  0  0  0
  140.7140   75.7790  221.6550 C   0  0  0  0  0  0  0  0  0  0  0  0
  139.5870   75.0740  221.9750 N   0  0  0  0  0  0  0  0  0  0  0  0
  139.5790   73.7410  221.9300 C   0  0  0  0  0  0  0  0  0  0  0  0
  138.5200   72.8780  222.2300 N   0  0  0  0  0  0  0  0  0  0  0  0
  138.2570   71.5390  221.7640 C   0  0  0  0  0  0  0  0  0  0  0  0
  139.2060   70.6140  222.4020 C   0  0  0  0  0  0  0  0  0  0  0  0
  139.2770   70.5100  223.8340 N   0  0  0  0  0  0  0  0  0  0  0  0
  139.1740   69.1930  224.3300 C   0  0  0  0  0  0  0  0  0  0  0  0
  139.2730   69.1150  225.8210 C   0  0  0  0  0  0  0  0  0  0  0  0
  140.0270   70.1870  226.4820 C   0  0  0  0  0  0  0  0  0  0  0  0
  140.1560   70.2000  227.8410 C   0  0  0  0  0  0  0  0  0  0  0  0
  140.8640   71.2280  228.4750 C   0  0  0  0  0  0  0  0  0  0  0  0
  141.4430   72.2440  227.7240 C   0  0  0  0  0  0  0  0  0  0  0  0
  141.2850   72.1850  226.3530 C   0  0  0  0  0  0  0  0  0  0  0  0
  140.5850   71.1700  225.7190 C   0  0  0  0  0  0  0  0  0  0  0  0
  140.5130   71.2150  224.2570 C   0  0  0  0  0  0  0  0  0  0  0  0
  140.7320   73.1340  221.5520 N   0  0  0  0  0  0  0  0  0  0  0  0
  141.8640   73.7760  221.2290 C   0  0  0  0  0  0  0  0  0  0  0  0
  142.9570   72.9630  220.8430 N   0  0  0  0  0  0  0  0  0  0  0  0
  144.1820   73.6560  220.4090 C   0  0  0  0  0  0  0  0  0  0  0  0
  144.4280   73.3470  218.9310 C   0  0  0  0  0  0  0  0  0  0  0  0
  144.6240   71.8500  218.9030 C   0  0  0  0  0  0  0  0  0  0  0  0
  145.5230   71.4000  217.9480 C   0  0  0  0  0  0  0  0  0  0  0  0
  145.7840   70.0430  217.8440 C   0  0  0  0  0  0  0  0  0  0  0  0
  145.1280   69.2120  218.7050 C   0  0  0  0  0  0  0  0  0  0  0  0
  144.2210   69.6670  219.6700 C   0  0  0  0  0  0  0  0  0  0  0  0
  143.9600   71.0190  219.7750 C   0  0  0  0  0  0  0  0  0  0  0  0
  142.9930   71.5310  220.8050 C   0  0  0  0  0  0  0  0  0  0  0  0
  141.8520   75.1040  221.2820 N   0  0  0  0  0  0  0  0  0  0  0  0
  140.0480   77.9510  222.6950 C   0  0  0  0  0  0  0  0  0  0  0  0
  141.0160   79.0060  223.2140 C   0  0  0  0  0  0  0  0  0  0  0  0
  141.4303   81.0648  224.4742 H   0  0  0  0  0  0  0  0  0  0  0  0
  143.0663   80.4618  224.0423 H   0  0  0  0  0  0  0  0  0  0  0  0
  142.7305   82.2265  224.0423 H   0  0  0  0  0  0  0  0  0  0  0  0
  141.1647   83.0665  222.7452 H   0  0  0  0  0  0  0  0  0  0  0  0
  142.2165   82.8496  221.3052 H   0  0  0  0  0  0  0  0  0  0  0  0
  140.5462   82.1886  221.3052 H   0  0  0  0  0  0  0  0  0  0  0  0
  140.1971   80.3528  221.7850 H   0  0  0  0  0  0  0  0  0  0  0  0
  141.5408   79.8997  220.0151 H   0  0  0  0  0  0  0  0  0  0  0  0
  142.8813   79.2753  221.1463 H   0  0  0  0  0  0  0  0  0  0  0  0
  140.7983   77.9054  219.7482 H   0  0  0  0  0  0  0  0  0  0  0  0
  142.3900   77.3814  220.5598 H   0  0  0  0  0  0  0  0  0  0  0  0
  137.7920   73.2690  222.9120 H   0  0  0  0  0  0  0  0  0  0  0  0
  137.2285   71.2521  222.0282 H   0  0  0  0  0  0  0  0  0  0  0  0
  138.3748   71.4964  220.6712 H   0  0  0  0  0  0  0  0  0  0  0  0
  138.9669   69.6086  222.0251 H   0  0  0  0  0  0  0  0  0  0  0  0
  140.1836   71.0436  222.1378 H   0  0  0  0  0  0  0  0  0  0  0  0
  138.2028   68.7784  224.0220 H   0  0  0  0  0  0  0  0  0  0  0  0
  140.0175   68.6210  223.9161 H   0  0  0  0  0  0  0  0  0  0  0  0
  138.2501   69.1269  226.2254 H   0  0  0  0  0  0  0  0  0  0  0  0
  139.8343   68.1921  226.0287 H   0  0  0  0  0  0  0  0  0  0  0  0
  139.7011   69.3983  228.4413 H   0  0  0  0  0  0  0  0  0  0  0  0
  140.9623   71.2316  229.5706 H   0  0  0  0  0  0  0  0  0  0  0  0
  142.0037   73.0611  228.2015 H   0  0  0  0  0  0  0  0  0  0  0  0
  141.7343   72.9781  225.7372 H   0  0  0  0  0  0  0  0  0  0  0  0
  140.4805   72.2607  223.9174 H   0  0  0  0  0  0  0  0  0  0  0  0
  141.3973   70.7309  223.8169 H   0  0  0  0  0  0  0  0  0  0  0  0
  144.0604   74.7408  220.5443 H   0  0  0  0  0  0  0  0  0  0  0  0
  145.0374   73.3126  221.0093 H   0  0  0  0  0  0  0  0  0  0  0  0
  143.5615   73.6401  218.3200 H   0  0  0  0  0  0  0  0  0  0  0  0
  145.2876   73.8961  218.5193 H   0  0  0  0  0  0  0  0  0  0  0  0
  146.0248   72.1142  217.2786 H   0  0  0  0  0  0  0  0  0  0  0  0
  146.4911   69.6516  217.0978 H   0  0  0  0  0  0  0  0  0  0  0  0
  145.3213   68.1312  218.6377 H   0  0  0  0  0  0  0  0  0  0  0  0
  143.7199   68.9525  220.3397 H   0  0  0  0  0  0  0  0  0  0  0  0
  141.9869   71.1568  220.5645 H   0  0  0  0  0  0  0  0  0  0  0  0
  143.3257   71.1734  221.7906 H   0  0  0  0  0  0  0  0  0  0  0  0
  139.1514   78.4350  222.2805 H   0  0  0  0  0  0  0  0  0  0  0  0
  139.7308   77.2817  223.5082 H   0  0  0  0  0  0  0  0  0  0  0  0
  140.5965   79.5104  224.0969 H   0  0  0  0  0  0  0  0  0  0  0  0
  141.9744   78.5620  223.5213 H   0  0  0  0  0  0  0  0  0  0  0  0
  1  2  1  0
  2  3  1  0
  2  4  1  0
  4  5  1  0
  5  6  1  0
  6  7  1  0
  7  8  1  0
  8  9  2  0
  9 10  1  0
 10 11  1  0
 11 12  1  0
 12 13  1  0
 13 14  1  0
 14 15  1  0
 15 16  1  0
 16 17  1  0
 17 18  2  0
 18 19  1  0
 19 20  2  0
 20 21  1  0
 21 22  2  0
 22 23  1  0
 10 24  2  0
 24 25  1  0
 25 26  1  0
 26 27  1  0
 27 28  1  0
 28 29  1  0
 29 30  2  0
 30 31  1  0
 31 32  2  0
 32 33  1  0
 33 34  2  0
 34 35  1  0
 25 36  2  0
  7 37  1  0
 37 38  1  0
 38  4  1  0
 36  8  1  0
 23 14  1  0
 35 26  1  0
 22 17  1  0
 34 29  1  0
  1 39  1  0
  1 40  1  0
  1 41  1  0
  3 42  1  0
  3 43  1  0
  3 44  1  0
  4 45  1  0
  5 46  1  0
  5 47  1  0
  6 48  1  0
  6 49  1  0
 11 50  1  0
 12 51  1  0
 12 52  1  0
 13 53  1  0
 13 54  1  0
 15 55  1  0
 15 56  1  0
 16 57  1  0
 16 58  1  0
 18 59  1  0
 19 60  1  0
 20 61  1  0
 21 62  1  0
 23 63  1  0
 23 64  1  0
 27 65  1  0
 27 66  1  0
 28 67  1  0
 28 68  1  0
 30 69  1  0
 31 70  1  0
 32 71  1  0
 33 72  1  0
 35 73  1  0
 35 74  1  0
 37 75  1  0
 37 76  1  0
 38 77  1  0
 38 78  1  0
M  END
>  <smiles>  (8) 
CN(C)C1CCN(c2nc(NCCN3CCc4ccccc4C3)nc(N3CCc4ccccc4C3)n2)CC1

>  <score_type>  (8) 
oracle

>  <origin>  (8) 
autodockgpu

>  <m_score__min__energy>  (8) 
-11.130000000000001

>  <m_primary>  (8) 
energy

>  <rmsd>  (8) 
4.078245661381468

>  <m_score__min__rmsd>  (8) 
4.078245661381468

>  <meeko>  (8) 
{"free_energy": -10.45, "intermolecular_energy": -12.54, "internal_energy": -1.6, "cluster_size": 13, "cluster_id": 2, "rank_in_cluster": 3}

>  <energy>  (8) 
-10.71

>  <cluster_rmsd>  (8) 
1.33

>  <cluster>  (8) 
1

$$$$

     RDKit          3D

 78 83  0  0  0  0  0  0  0  0999 V2000
  131.9120   74.5690  227.9620 C   0  0  0  0  0  0  0  0  0  0  0  0
  132.1360   73.6990  226.8540 N   0  0  0  0  0  0  0  0  0  0  0  0
  132.5530   72.3840  227.2140 C   0  0  0  0  0  0  0  0  0  0  0  0
  132.8110   74.2680  225.7340 C   0  0  0  0  0  0  0  0  0  0  0  0
  133.8040   75.2890  226.1410 C   0  0  0  0  0  0  0  0  0  0  0  0
  134.8480   75.6650  225.1650 C   0  0  0  0  0  0  0  0  0  0  0  0
  135.0070   74.8460  224.0130 N   0  0  0  0  0  0  0  0  0  0  0  0
  136.2360   74.8990  223.2770 C   0  0  0  0  0  0  0  0  0  0  0  0
  136.7240   73.8000  222.6240 N   0  0  0  0  0  0  0  0  0  0  0  0
  137.8520   73.8720  221.9160 C   0  0  0  0  0  0  0  0  0  0  0  0
  138.4830   72.8480  221.2010 N   0  0  0  0  0  0  0  0  0  0  0  0
  139.6340   72.0510  221.5460 C   0  0  0  0  0  0  0  0  0  0  0  0
  139.9580   72.2650  222.9640 C   0  0  0  0  0  0  0  0  0  0  0  0
  139.6760   71.2490  223.9410 N   0  0  0  0  0  0  0  0  0  0  0  0
  139.4600   69.9630  223.4010 C   0  0  0  0  0  0  0  0  0  0  0  0
  139.1910   68.9230  224.4430 C   0  0  0  0  0  0  0  0  0  0  0  0
  139.7560   69.1730  225.7750 C   0  0  0  0  0  0  0  0  0  0  0  0
  139.5470   68.2830  226.7890 C   0  0  0  0  0  0  0  0  0  0  0  0
  140.0740   68.5240  228.0630 C   0  0  0  0  0  0  0  0  0  0  0  0
  140.8160   69.6740  228.3060 C   0  0  0  0  0  0  0  0  0  0  0  0
  140.9990   70.5440  227.2480 C   0  0  0  0  0  0  0  0  0  0  0  0
  140.4800   70.3100  225.9840 C   0  0  0  0  0  0  0  0  0  0  0  0
  140.7670   71.3020  224.9450 C   0  0  0  0  0  0  0  0  0  0  0  0
  138.4770   75.0740  221.8790 N   0  0  0  0  0  0  0  0  0  0  0  0
  138.0450   76.1810  222.5000 C   0  0  0  0  0  0  0  0  0  0  0  0
  138.8300   77.3460  222.3240 N   0  0  0  0  0  0  0  0  0  0  0  0
  139.8300   77.3170  221.2430 C   0  0  0  0  0  0  0  0  0  0  0  0
  141.2270   77.4050  221.8600 C   0  0  0  0  0  0  0  0  0  0  0  0
  141.2320   78.7460  222.5550 C   0  0  0  0  0  0  0  0  0  0  0  0
  142.4570   79.3940  222.5590 C   0  0  0  0  0  0  0  0  0  0  0  0
  142.5690   80.6370  223.1620 C   0  0  0  0  0  0  0  0  0  0  0  0
  141.4430   81.1600  223.7280 C   0  0  0  0  0  0  0  0  0  0  0  0
  140.2060   80.5050  223.7240 C   0  0  0  0  0  0  0  0  0  0  0  0
  140.0920   79.2670  223.1230 C   0  0  0  0  0  0  0  0  0  0  0  0
  138.7740   78.5480  223.1020 C   0  0  0  0  0  0  0  0  0  0  0  0
  136.9190   76.0890  223.2020 N   0  0  0  0  0  0  0  0  0  0  0  0
  133.9400   73.9730  223.6100 C   0  0  0  0  0  0  0  0  0  0  0  0
  133.4700   73.2250  224.8510 C   0  0  0  0  0  0  0  0  0  0  0  0
  132.0553   74.0125  228.9000 H   0  0  0  0  0  0  0  0  0  0  0  0
  132.6238   75.4066  227.9202 H   0  0  0  0  0  0  0  0  0  0  0  0
  130.8842   74.9588  227.9202 H   0  0  0  0  0  0  0  0  0  0  0  0
  132.5811   72.2954  228.3101 H   0  0  0  0  0  0  0  0  0  0  0  0
  131.8437   71.6495  226.8048 H   0  0  0  0  0  0  0  0  0  0  0  0
  133.5559   72.1925  226.8048 H   0  0  0  0  0  0  0  0  0  0  0  0
  132.0271   74.7611  225.1404 H   0  0  0  0  0  0  0  0  0  0  0  0
  133.2483   76.2037  226.3951 H   0  0  0  0  0  0  0  0  0  0  0  0
  134.3562   74.8221  226.9699 H   0  0  0  0  0  0  0  0  0  0  0  0
  134.6182   76.6821  224.8148 H   0  0  0  0  0  0  0  0  0  0  0  0
  135.7938   75.5538  225.7156 H   0  0  0  0  0  0  0  0  0  0  0  0
  138.0440   72.6180  220.2510 H   0  0  0  0  0  0  0  0  0  0  0  0
  139.4105   70.9875  221.3754 H   0  0  0  0  0  0  0  0  0  0  0  0
  140.4901   72.3453  220.9211 H   0  0  0  0  0  0  0  0  0  0  0  0
  141.0398   72.4577  223.0139 H   0  0  0  0  0  0  0  0  0  0  0  0
  139.2765   73.0790  223.2519 H   0  0  0  0  0  0  0  0  0  0  0  0
  138.5956   70.0096  222.7223 H   0  0  0  0  0  0  0  0  0  0  0  0
  140.3817   69.6697  222.8771 H   0  0  0  0  0  0  0  0  0  0  0  0
  138.1002   68.8339  224.5533 H   0  0  0  0  0  0  0  0  0  0  0  0
  139.6878   68.0108  224.0810 H   0  0  0  0  0  0  0  0  0  0  0  0
  138.9608   67.3709  226.6036 H   0  0  0  0  0  0  0  0  0  0  0  0
  139.9006   67.8015  228.8741 H   0  0  0  0  0  0  0  0  0  0  0  0
  141.2399   69.8829  229.2993 H   0  0  0  0  0  0  0  0  0  0  0  0
  141.5816   71.4618  227.4161 H   0  0  0  0  0  0  0  0  0  0  0  0
  140.8140   72.3062  225.3915 H   0  0  0  0  0  0  0  0  0  0  0  0
  141.7340   71.0843  224.4679 H   0  0  0  0  0  0  0  0  0  0  0  0
  139.7347   76.3789  220.6765 H   0  0  0  0  0  0  0  0  0  0  0  0
  139.6685   78.1657  220.5621 H   0  0  0  0  0  0  0  0  0  0  0  0
  141.3888   76.5899  222.5807 H   0  0  0  0  0  0  0  0  0  0  0  0
  142.0282   77.3112  221.1122 H   0  0  0  0  0  0  0  0  0  0  0  0
  143.3335   78.9256  222.0874 H   0  0  0  0  0  0  0  0  0  0  0  0
  143.5258   81.1793  223.1834 H   0  0  0  0  0  0  0  0  0  0  0  0
  141.5107   82.1457  224.2116 H   0  0  0  0  0  0  0  0  0  0  0  0
  139.3302   80.9735  224.1967 H   0  0  0  0  0  0  0  0  0  0  0  0
  138.4937   78.2902  224.1340 H   0  0  0  0  0  0  0  0  0  0  0  0
  138.0303   79.2156  222.6424 H   0  0  0  0  0  0  0  0  0  0  0  0
  133.1113   74.5615  223.1893 H   0  0  0  0  0  0  0  0  0  0  0  0
  134.2850   73.2682  222.8391 H   0  0  0  0  0  0  0  0  0  0  0  0
  132.7470   72.4427  224.5765 H   0  0  0  0  0  0  0  0  0  0  0  0
  134.3050   72.7267  225.3652 H   0  0  0  0  0  0  0  0  0  0  0  0
  1  2  1  0
  2  3  1  0
  2  4  1  0
  4  5  1  0
  5  6  1  0
  6  7  1  0
  7  8  1  0
  8  9  2  0
  9 10  1  0
 10 11  1  0
 11 12  1  0
 12 13  1  0
 13 14  1  0
 14 15  1  0
 15 16  1  0
 16 17  1  0
 17 18  2  0
 18 19  1  0
 19 20  2  0
 20 21  1  0
 21 22  2  0
 22 23  1  0
 10 24  2  0
 24 25  1  0
 25 26  1  0
 26 27  1  0
 27 28  1  0
 28 29  1  0
 29 30  2  0
 30 31  1  0
 31 32  2  0
 32 33  1  0
 33 34  2  0
 34 35  1  0
 25 36  2  0
  7 37  1  0
 37 38  1  0
 38  4  1  0
 36  8  1  0
 23 14  1  0
 35 26  1  0
 22 17  1  0
 34 29  1  0
  1 39  1  0
  1 40  1  0
  1 41  1  0
  3 42  1  0
  3 43  1  0
  3 44  1  0
  4 45  1  0
  5 46  1  0
  5 47  1  0
  6 48  1  0
  6 49  1  0
 11 50  1  0
 12 51  1  0
 12 52  1  0
 13 53  1  0
 13 54  1  0
 15 55  1  0
 15 56  1  0
 16 57  1  0
 16 58  1  0
 18 59  1  0
 19 60  1  0
 20 61  1  0
 21 62  1  0
 23 63  1  0
 23 64  1  0
 27 65  1  0
 27 66  1  0
 28 67  1  0
 28 68  1  0
 30 69  1  0
 31 70  1  0
 32 71  1  0
 33 72  1  0
 35 73  1  0
 35 74  1  0
 37 75  1  0
 37 76  1  0
 38 77  1  0
 38 78  1  0
M  END
>  <smiles>  (9) 
CN(C)C1CCN(c2nc(NCCN3CCc4ccccc4C3)nc(N3CCc4ccccc4C3)n2)CC1

>  <score_type>  (9) 
oracle

>  <origin>  (9) 
autodockgpu

>  <m_score__min__energy>  (9) 
-11.130000000000001

>  <m_primary>  (9) 
energy

>  <rmsd>  (9) 
3.858606842046598

>  <m_score__min__rmsd>  (9) 
3.858606842046598

>  <meeko>  (9) 
{"free_energy": -9.9, "intermolecular_energy": -11.99, "internal_energy": -1.29, "cluster_size": 7, "cluster_id": 3, "rank_in_cluster": 4}

>  <energy>  (9) 
-10.69

>  <cluster_rmsd>  (9) 
1.36

>  <cluster>  (9) 
1

$$$$

     RDKit          3D

 78 83  0  0  0  0  0  0  0  0999 V2000
  141.4330   81.6100  222.6790 C   0  0  0  0  0  0  0  0  0  0  0  0
  141.3410   80.3160  223.2740 N   0  0  0  0  0  0  0  0  0  0  0  0
  142.5730   79.8210  223.7970 C   0  0  0  0  0  0  0  0  0  0  0  0
  140.5450   79.3580  222.5790 C   0  0  0  0  0  0  0  0  0  0  0  0
  141.2410   78.0590  222.4290 C   0  0  0  0  0  0  0  0  0  0  0  0
  140.4230   76.8710  222.1090 C   0  0  0  0  0  0  0  0  0  0  0  0
  139.0100   76.9840  222.2310 N   0  0  0  0  0  0  0  0  0  0  0  0
  138.2170   75.7950  222.3530 C   0  0  0  0  0  0  0  0  0  0  0  0
  138.6250   74.6080  221.8100 N   0  0  0  0  0  0  0  0  0  0  0  0
  137.8930   73.5030  221.9580 C   0  0  0  0  0  0  0  0  0  0  0  0
  138.1640   72.2220  221.4650 N   0  0  0  0  0  0  0  0  0  0  0  0
  137.6560   70.9400  221.8890 C   0  0  0  0  0  0  0  0  0  0  0  0
  138.7620   70.1460  222.4420 C   0  0  0  0  0  0  0  0  0  0  0  0
  138.9720   70.0740  223.8630 N   0  0  0  0  0  0  0  0  0  0  0  0
  138.9640   68.7650  224.3890 C   0  0  0  0  0  0  0  0  0  0  0  0
  139.2080   68.7210  225.8650 C   0  0  0  0  0  0  0  0  0  0  0  0
  139.9820   69.8320  226.4320 C   0  0  0  0  0  0  0  0  0  0  0  0
  140.2380   69.8780  227.7720 C   0  0  0  0  0  0  0  0  0  0  0  0
  140.9650   70.9430  228.3180 C   0  0  0  0  0  0  0  0  0  0  0  0
  141.4330   71.9620  227.4970 C   0  0  0  0  0  0  0  0  0  0  0  0
  141.1480   71.8700  226.1480 C   0  0  0  0  0  0  0  0  0  0  0  0
  140.4280   70.8180  225.6020 C   0  0  0  0  0  0  0  0  0  0  0  0
  140.2160   70.8300  224.1530 C   0  0  0  0  0  0  0  0  0  0  0  0
  136.7420   73.6200  222.6660 N   0  0  0  0  0  0  0  0  0  0  0  0
  136.2950   74.7570  223.2170 C   0  0  0  0  0  0  0  0  0  0  0  0
  135.0780   74.6700  223.9350 N   0  0  0  0  0  0  0  0  0  0  0  0
  134.2830   75.9040  224.0490 C   0  0  0  0  0  0  0  0  0  0  0  0
  134.2230   76.3210  225.5190 C   0  0  0  0  0  0  0  0  0  0  0  0
  133.5170   75.1680  226.1930 C   0  0  0  0  0  0  0  0  0  0  0  0
  132.7130   75.5260  227.2630 C   0  0  0  0  0  0  0  0  0  0  0  0
  132.0120   74.5440  227.9470 C   0  0  0  0  0  0  0  0  0  0  0  0
  132.1570   73.2580  227.5160 C   0  0  0  0  0  0  0  0  0  0  0  0
  132.9700   72.8970  226.4340 C   0  0  0  0  0  0  0  0  0  0  0  0
  133.6690   73.8740  225.7520 C   0  0  0  0  0  0  0  0  0  0  0  0
  134.5440   73.5110  224.5860 C   0  0  0  0  0  0  0  0  0  0  0  0
  137.0380   75.8480  223.0570 N   0  0  0  0  0  0  0  0  0  0  0  0
  138.4000   78.2840  222.2390 C   0  0  0  0  0  0  0  0  0  0  0  0
  139.1850   79.1500  223.2170 C   0  0  0  0  0  0  0  0  0  0  0  0
  141.4873   82.3737  223.4688 H   0  0  0  0  0  0  0  0  0  0  0  0
  142.3372   81.6631  222.0548 H   0  0  0  0  0  0  0  0  0  0  0  0
  140.5454   81.7905  222.0548 H   0  0  0  0  0  0  0  0  0  0  0  0
  142.5369   79.8355  224.8963 H   0  0  0  0  0  0  0  0  0  0  0  0
  142.7311   78.7896  223.4489 H   0  0  0  0  0  0  0  0  0  0  0  0
  143.4007   80.4563  223.4489 H   0  0  0  0  0  0  0  0  0  0  0  0
  140.3822   79.7831  221.5776 H   0  0  0  0  0  0  0  0  0  0  0  0
  141.9807   78.1745  221.6231 H   0  0  0  0  0  0  0  0  0  0  0  0
  141.6540   77.8497  223.4268 H   0  0  0  0  0  0  0  0  0  0  0  0
  140.6409   76.5941  221.0669 H   0  0  0  0  0  0  0  0  0  0  0  0
  140.7072   76.1274  222.8681 H   0  0  0  0  0  0  0  0  0  0  0  0
  138.8530   72.1850  220.6450 H   0  0  0  0  0  0  0  0  0  0  0  0
  136.8850   71.0855  222.6600 H   0  0  0  0  0  0  0  0  0  0  0  0
  137.2135   70.4134  221.0306 H   0  0  0  0  0  0  0  0  0  0  0  0
  138.6134   69.1135  222.0931 H   0  0  0  0  0  0  0  0  0  0  0  0
  139.6533   70.6849  222.0881 H   0  0  0  0  0  0  0  0  0  0  0  0
  137.9832   68.3115  224.1832 H   0  0  0  0  0  0  0  0  0  0  0  0
  139.7839   68.2136  223.9057 H   0  0  0  0  0  0  0  0  0  0  0  0
  138.2287   68.7055  226.3658 H   0  0  0  0  0  0  0  0  0  0  0  0
  139.8200   67.8226  226.0334 H   0  0  0  0  0  0  0  0  0  0  0  0
  139.8711   69.0738  228.4267 H   0  0  0  0  0  0  0  0  0  0  0  0
  141.1661   70.9731  229.3990 H   0  0  0  0  0  0  0  0  0  0  0  0
  142.0069   72.8073  227.9044 H   0  0  0  0  0  0  0  0  0  0  0  0
  141.5076   72.6653  225.4785 H   0  0  0  0  0  0  0  0  0  0  0  0
  140.1133   71.8667  223.7997 H   0  0  0  0  0  0  0  0  0  0  0  0
  141.0716   70.3679  223.6387 H   0  0  0  0  0  0  0  0  0  0  0  0
  134.7544   76.7028  223.4576 H   0  0  0  0  0  0  0  0  0  0  0  0
  133.2655   75.7280  223.6699 H   0  0  0  0  0  0  0  0  0  0  0  0
  135.2346   76.4550  225.9298 H   0  0  0  0  0  0  0  0  0  0  0  0
  133.7069   77.2809  225.6678 H   0  0  0  0  0  0  0  0  0  0  0  0
  132.6313   76.5799  227.5674 H   0  0  0  0  0  0  0  0  0  0  0  0
  131.3657   74.7920  228.8019 H   0  0  0  0  0  0  0  0  0  0  0  0
  131.6080   72.4648  228.0446 H   0  0  0  0  0  0  0  0  0  0  0  0
  133.0513   71.8431  226.1296 H   0  0  0  0  0  0  0  0  0  0  0  0
  135.3776   72.8906  224.9470 H   0  0  0  0  0  0  0  0  0  0  0  0
  133.9285   72.9645  223.8563 H   0  0  0  0  0  0  0  0  0  0  0  0
  138.4396   78.7241  221.2316 H   0  0  0  0  0  0  0  0  0  0  0  0
  137.3446   78.2158  222.5414 H   0  0  0  0  0  0  0  0  0  0  0  0
  138.6793   80.1155  223.3659 H   0  0  0  0  0  0  0  0  0  0  0  0
  139.2682   78.6739  224.2051 H   0  0  0  0  0  0  0  0  0  0  0  0
  1  2  1  0
  2  3  1  0
  2  4  1  0
  4  5  1  0
  5  6  1  0
  6  7  1  0
  7  8  1  0
  8  9  2  0
  9 10  1  0
 10 11  1  0
 11 12  1  0
 12 13  1  0
 13 14  1  0
 14 15  1  0
 15 16  1  0
 16 17  1  0
 17 18  2  0
 18 19  1  0
 19 20  2  0
 20 21  1  0
 21 22  2  0
 22 23  1  0
 10 24  2  0
 24 25  1  0
 25 26  1  0
 26 27  1  0
 27 28  1  0
 28 29  1  0
 29 30  2  0
 30 31  1  0
 31 32  2  0
 32 33  1  0
 33 34  2  0
 34 35  1  0
 25 36  2  0
  7 37  1  0
 37 38  1  0
 38  4  1  0
 36  8  1  0
 23 14  1  0
 35 26  1  0
 22 17  1  0
 34 29  1  0
  1 39  1  0
  1 40  1  0
  1 41  1  0
  3 42  1  0
  3 43  1  0
  3 44  1  0
  4 45  1  0
  5 46  1  0
  5 47  1  0
  6 48  1  0
  6 49  1  0
 11 50  1  0
 12 51  1  0
 12 52  1  0
 13 53  1  0
 13 54  1  0
 15 55  1  0
 15 56  1  0
 16 57  1  0
 16 58  1  0
 18 59  1  0
 19 60  1  0
 20 61  1  0
 21 62  1  0
 23 63  1  0
 23 64  1  0
 27 65  1  0
 27 66  1  0
 28 67  1  0
 28 68  1  0
 30 69  1  0
 31 70  1  0
 32 71  1  0
 33 72  1  0
 35 73  1  0
 35 74  1  0
 37 75  1  0
 37 76  1  0
 38 77  1  0
 38 78  1  0
M  END
>  <smiles>  (10) 
CN(C)C1CCN(c2nc(NCCN3CCc4ccccc4C3)nc(N3CCc4ccccc4C3)n2)CC1

>  <score_type>  (10) 
oracle

>  <origin>  (10) 
autodockgpu

>  <m_score__min__energy>  (10) 
-11.130000000000001

>  <m_primary>  (10) 
energy

>  <rmsd>  (10) 
4.131006955855293

>  <m_score__min__rmsd>  (10) 
4.131006955855293

>  <meeko>  (10) 
{"free_energy": -9.84, "intermolecular_energy": -11.93, "internal_energy": -1.29, "cluster_size": 6, "cluster_id": 4, "rank_in_cluster": 2}

>  <energy>  (10) 
-10.59

>  <cluster_rmsd>  (10) 
1.44

>  <cluster>  (10) 
1

$$$$

     RDKit          3D

 78 83  0  0  0  0  0  0  0  0999 V2000
  139.1830   81.2640  223.0530 C   0  0  0  0  0  0  0  0  0  0  0  0
  140.5420   81.2850  222.6200 N   0  0  0  0  0  0  0  0  0  0  0  0
  140.8660   82.3690  221.7510 C   0  0  0  0  0  0  0  0  0  0  0  0
  141.1080   80.0260  222.2620 C   0  0  0  0  0  0  0  0  0  0  0  0
  141.2730   79.1350  223.4330 C   0  0  0  0  0  0  0  0  0  0  0  0
  141.4530   77.6900  223.1810 C   0  0  0  0  0  0  0  0  0  0  0  0
  141.1920   77.2060  221.8700 N   0  0  0  0  0  0  0  0  0  0  0  0
  140.9370   75.8080  221.6740 C   0  0  0  0  0  0  0  0  0  0  0  0
  139.7910   75.2210  222.1340 N   0  0  0  0  0  0  0  0  0  0  0  0
  139.5520   73.9270  221.9170 C   0  0  0  0  0  0  0  0  0  0  0  0
  138.4400   73.1800  222.3230 N   0  0  0  0  0  0  0  0  0  0  0  0
  137.9970   71.8760  221.8960 C   0  0  0  0  0  0  0  0  0  0  0  0
  138.9800   70.8710  222.3260 C   0  0  0  0  0  0  0  0  0  0  0  0
  139.1230   70.5340  223.7170 N   0  0  0  0  0  0  0  0  0  0  0  0
  139.1580   69.1480  223.9810 C   0  0  0  0  0  0  0  0  0  0  0  0
  139.3290   68.8290  225.4330 C   0  0  0  0  0  0  0  0  0  0  0  0
  140.0150   69.8410  226.2470 C   0  0  0  0  0  0  0  0  0  0  0  0
  140.2020   69.6370  227.5840 C   0  0  0  0  0  0  0  0  0  0  0  0
  140.8450   70.6050  228.3650 C   0  0  0  0  0  0  0  0  0  0  0  0
  141.2990   71.7830  227.7830 C   0  0  0  0  0  0  0  0  0  0  0  0
  141.0860   71.9420  226.4270 C   0  0  0  0  0  0  0  0  0  0  0  0
  140.4500   70.9860  225.6480 C   0  0  0  0  0  0  0  0  0  0  0  0
  140.3100   71.2710  224.2190 C   0  0  0  0  0  0  0  0  0  0  0  0
  140.4920   73.2380  221.2250 N   0  0  0  0  0  0  0  0  0  0  0  0
  141.6320   73.7620  220.7530 C   0  0  0  0  0  0  0  0  0  0  0  0
  142.4780   72.8810  220.0380 N   0  0  0  0  0  0  0  0  0  0  0  0
  141.8250   71.8070  219.2700 C   0  0  0  0  0  0  0  0  0  0  0  0
  142.2180   70.4570  219.8730 C   0  0  0  0  0  0  0  0  0  0  0  0
  143.7160   70.4050  219.6930 C   0  0  0  0  0  0  0  0  0  0  0  0
  144.2280   69.1380  219.4610 C   0  0  0  0  0  0  0  0  0  0  0  0
  145.5930   68.9780  219.2730 C   0  0  0  0  0  0  0  0  0  0  0  0
  146.3670   70.1010  219.3270 C   0  0  0  0  0  0  0  0  0  0  0  0
  145.8480   71.3800  219.5610 C   0  0  0  0  0  0  0  0  0  0  0  0
  144.4890   71.5410  219.7500 C   0  0  0  0  0  0  0  0  0  0  0  0
  143.9100   72.9050  219.9980 C   0  0  0  0  0  0  0  0  0  0  0  0
  141.8530   75.0530  220.9810 N   0  0  0  0  0  0  0  0  0  0  0  0
  141.1780   78.1230  220.7640 C   0  0  0  0  0  0  0  0  0  0  0  0
  140.3260   79.3170  221.1740 C   0  0  0  0  0  0  0  0  0  0  0  0
  139.1484   81.2635  224.1525 H   0  0  0  0  0  0  0  0  0  0  0  0
  138.6624   82.1542  222.6702 H   0  0  0  0  0  0  0  0  0  0  0  0
  138.6902   80.3581  222.6702 H   0  0  0  0  0  0  0  0  0  0  0  0
  141.1302   83.2529  222.3501 H   0  0  0  0  0  0  0  0  0  0  0  0
  141.7193   82.0878  221.1164 H   0  0  0  0  0  0  0  0  0  0  0  0
  139.9983   82.6022  221.1164 H   0  0  0  0  0  0  0  0  0  0  0  0
  142.1048   80.2581  221.8587 H   0  0  0  0  0  0  0  0  0  0  0  0
  142.1563   79.4835  223.9882 H   0  0  0  0  0  0  0  0  0  0  0  0
  140.3157   79.2047  223.9704 H   0  0  0  0  0  0  0  0  0  0  0  0
  142.4983   77.4436  223.4191 H   0  0  0  0  0  0  0  0  0  0  0  0
  140.6939   77.2034  223.8110 H   0  0  0  0  0  0  0  0  0  0  0  0
  137.8240   73.6460  223.0650 H   0  0  0  0  0  0  0  0  0  0  0  0
  137.0194   71.6525  222.3481 H   0  0  0  0  0  0  0  0  0  0  0  0
  137.9014   71.8568  220.8003 H   0  0  0  0  0  0  0  0  0  0  0  0
  138.7265   69.9383  221.8009 H   0  0  0  0  0  0  0  0  0  0  0  0
  139.9414   71.3502  222.0890 H   0  0  0  0  0  0  0  0  0  0  0  0
  138.2144   68.7020  223.6338 H   0  0  0  0  0  0  0  0  0  0  0  0
  140.0293   68.7360  223.4508 H   0  0  0  0  0  0  0  0  0  0  0  0
  138.3278   68.6764  225.8624 H   0  0  0  0  0  0  0  0  0  0  0  0
  139.9774   67.9409  225.4630 H   0  0  0  0  0  0  0  0  0  0  0  0
  139.8454   68.7067  228.0503 H   0  0  0  0  0  0  0  0  0  0  0  0
  140.9913   70.4330  229.4416 H   0  0  0  0  0  0  0  0  0  0  0  0
  141.8069   72.5567  228.3775 H   0  0  0  0  0  0  0  0  0  0  0  0
  141.4358   72.8664  225.9442 H   0  0  0  0  0  0  0  0  0  0  0  0
  140.1705   72.3513  224.0660 H   0  0  0  0  0  0  0  0  0  0  0  0
  141.2131   70.9546  223.6765 H   0  0  0  0  0  0  0  0  0  0  0  0
  140.7329   71.9295  219.3191 H   0  0  0  0  0  0  0  0  0  0  0  0
  142.1453   71.8529  218.2187 H   0  0  0  0  0  0  0  0  0  0  0  0
  141.9495   70.4107  220.9387 H   0  0  0  0  0  0  0  0  0  0  0  0
  141.7023   69.6111  219.3949 H   0  0  0  0  0  0  0  0  0  0  0  0
  143.5575   68.2667  219.4263 H   0  0  0  0  0  0  0  0  0  0  0  0
  146.0334   67.9871  219.0880 H   0  0  0  0  0  0  0  0  0  0  0  0
  147.4520   69.9959  219.1794 H   0  0  0  0  0  0  0  0  0  0  0  0
  146.5183   72.2515  219.5942 H   0  0  0  0  0  0  0  0  0  0  0  0
  144.2859   73.2807  220.9611 H   0  0  0  0  0  0  0  0  0  0  0  0
  144.2158   73.5599  219.1688 H   0  0  0  0  0  0  0  0  0  0  0  0
  142.2023   78.4526  220.5357 H   0  0  0  0  0  0  0  0  0  0  0  0
  140.7655   77.6415  219.8651 H   0  0  0  0  0  0  0  0  0  0  0  0
  140.1679   79.9876  220.3165 H   0  0  0  0  0  0  0  0  0  0  0  0
  139.3323   79.0040  221.5271 H   0  0  0  0  0  0  0  0  0  0  0  0
  1  2  1  0
  2  3  1  0
  2  4  1  0
  4  5  1  0
  5  6  1  0
  6  7  1  0
  7  8  1  0
  8  9  2  0
  9 10  1  0
 10 11  1  0
 11 12  1  0
 12 13  1  0
 13 14  1  0
 14 15  1  0
 15 16  1  0
 16 17  1  0
 17 18  2  0
 18 19  1  0
 19 20  2  0
 20 21  1  0
 21 22  2  0
 22 23  1  0
 10 24  2  0
 24 25  1  0
 25 26  1  0
 26 27  1  0
 27 28  1  0
 28 29  1  0
 29 30  2  0
 30 31  1  0
 31 32  2  0
 32 33  1  0
 33 34  2  0
 34 35  1  0
 25 36  2  0
  7 37  1  0
 37 38  1  0
 38  4  1  0
 36  8  1  0
 23 14  1  0
 35 26  1  0
 22 17  1  0
 34 29  1  0
  1 39  1  0
  1 40  1  0
  1 41  1  0
  3 42  1  0
  3 43  1  0
  3 44  1  0
  4 45  1  0
  5 46  1  0
  5 47  1  0
  6 48  1  0
  6 49  1  0
 11 50  1  0
 12 51  1  0
 12 52  1  0
 13 53  1  0
 13 54  1  0
 15 55  1  0
 15 56  1  0
 16 57  1  0
 16 58  1  0
 18 59  1  0
 19 60  1  0
 20 61  1  0
 21 62  1  0
 23 63  1  0
 23 64  1  0
 27 65  1  0
 27 66  1  0
 28 67  1  0
 28 68  1  0
 30 69  1  0
 31 70  1  0
 32 71  1  0
 33 72  1  0
 35 73  1  0
 35 74  1  0
 37 75  1  0
 37 76  1  0
 38 77  1  0
 38 78  1  0
M  END
>  <smiles>  (11) 
CN(C)C1CCN(c2nc(NCCN3CCc4ccccc4C3)nc(N3CCc4ccccc4C3)n2)CC1

>  <score_type>  (11) 
oracle

>  <origin>  (11) 
autodockgpu

>  <m_score__min__energy>  (11) 
-11.130000000000001

>  <m_primary>  (11) 
energy

>  <rmsd>  (11) 
3.93657135163548

>  <m_score__min__rmsd>  (11) 
3.93657135163548

>  <meeko>  (11) 
{"free_energy": -9.85, "intermolecular_energy": -11.93, "internal_energy": -1.58, "cluster_size": 13, "cluster_id": 2, "rank_in_cluster": 10}

>  <energy>  (11) 
-10.49

>  <cluster_rmsd>  (11) 
1.38

>  <cluster>  (11) 
1

$$$$

     RDKit          3D

 78 83  0  0  0  0  0  0  0  0999 V2000
  142.2200   79.3800  223.2770 C   0  0  0  0  0  0  0  0  0  0  0  0
  142.0260   79.1900  221.8760 N   0  0  0  0  0  0  0  0  0  0  0  0
  141.8490   80.3990  221.1390 C   0  0  0  0  0  0  0  0  0  0  0  0
  141.1700   78.1140  221.4990 C   0  0  0  0  0  0  0  0  0  0  0  0
  141.7730   77.2650  220.4460 C   0  0  0  0  0  0  0  0  0  0  0  0
  141.2120   75.9130  220.2440 C   0  0  0  0  0  0  0  0  0  0  0  0
  140.3240   75.4070  221.2330 N   0  0  0  0  0  0  0  0  0  0  0  0
  140.0950   73.9940  221.3170 C   0  0  0  0  0  0  0  0  0  0  0  0
  139.9890   73.2210  220.1930 N   0  0  0  0  0  0  0  0  0  0  0  0
  139.8080   71.9040  220.2860 C   0  0  0  0  0  0  0  0  0  0  0  0
  139.6760   70.9800  219.2430 N   0  0  0  0  0  0  0  0  0  0  0  0
  140.3420   69.7180  219.0340 C   0  0  0  0  0  0  0  0  0  0  0  0
  141.6030   69.9560  218.3170 C   0  0  0  0  0  0  0  0  0  0  0  0
  142.7230   70.5610  218.9850 N   0  0  0  0  0  0  0  0  0  0  0  0
  143.9690   69.9700  218.6890 C   0  0  0  0  0  0  0  0  0  0  0  0
  145.1180   70.6350  219.3810 C   0  0  0  0  0  0  0  0  0  0  0  0
  144.9390   72.0500  219.7270 C   0  0  0  0  0  0  0  0  0  0  0  0
  145.9310   72.7310  220.3730 C   0  0  0  0  0  0  0  0  0  0  0  0
  145.7590   74.0780  220.7160 C   0  0  0  0  0  0  0  0  0  0  0  0
  144.5740   74.7330  220.3990 C   0  0  0  0  0  0  0  0  0  0  0  0
  143.6010   74.0010  219.7460 C   0  0  0  0  0  0  0  0  0  0  0  0
  143.7660   72.6670  219.4040 C   0  0  0  0  0  0  0  0  0  0  0  0
  142.6640   72.0150  218.6930 C   0  0  0  0  0  0  0  0  0  0  0  0
  139.7370   71.3810  221.5350 N   0  0  0  0  0  0  0  0  0  0  0  0
  139.8320   72.0910  222.6690 C   0  0  0  0  0  0  0  0  0  0  0  0
  139.7520   71.3570  223.8760 N   0  0  0  0  0  0  0  0  0  0  0  0
  140.5790   71.8310  224.9990 C   0  0  0  0  0  0  0  0  0  0  0  0
  141.6270   70.7660  225.3260 C   0  0  0  0  0  0  0  0  0  0  0  0
  140.8070   69.5670  225.7370 C   0  0  0  0  0  0  0  0  0  0  0  0
  141.3870   68.7740  226.7150 C   0  0  0  0  0  0  0  0  0  0  0  0
  140.7130   67.6520  227.1720 C   0  0  0  0  0  0  0  0  0  0  0  0
  139.4930   67.3880  226.6210 C   0  0  0  0  0  0  0  0  0  0  0  0
  138.9070   68.1900  225.6330 C   0  0  0  0  0  0  0  0  0  0  0  0
  139.5770   69.3080  225.1770 C   0  0  0  0  0  0  0  0  0  0  0  0
  138.9660   70.1840  224.1200 C   0  0  0  0  0  0  0  0  0  0  0  0
  140.0110   73.4030  222.5550 N   0  0  0  0  0  0  0  0  0  0  0  0
  139.6770   76.3170  222.1370 C   0  0  0  0  0  0  0  0  0  0  0  0
  140.7440   77.2600  222.6770 C   0  0  0  0  0  0  0  0  0  0  0  0
  141.5424   78.7164  223.8343 H   0  0  0  0  0  0  0  0  0  0  0  0
  143.2620   79.1433  223.5383 H   0  0  0  0  0  0  0  0  0  0  0  0
  142.0051   80.4267  223.5383 H   0  0  0  0  0  0  0  0  0  0  0  0
  141.7259   81.2397  221.8377 H   0  0  0  0  0  0  0  0  0  0  0  0
  142.7310   80.5748  220.5056 H   0  0  0  0  0  0  0  0  0  0  0  0
  140.9536   80.3146  220.5056 H   0  0  0  0  0  0  0  0  0  0  0  0
  140.2667   78.5887  221.0882 H   0  0  0  0  0  0  0  0  0  0  0  0
  141.6758   77.8060  219.4932 H   0  0  0  0  0  0  0  0  0  0  0  0
  142.8029   77.0884  220.7895 H   0  0  0  0  0  0  0  0  0  0  0  0
  140.6667   75.9238  219.2887 H   0  0  0  0  0  0  0  0  0  0  0  0
  142.0835   75.2432  220.2868 H   0  0  0  0  0  0  0  0  0  0  0  0
  138.9700   71.2480  218.4830 H   0  0  0  0  0  0  0  0  0  0  0  0
  140.5532   69.2470  220.0054 H   0  0  0  0  0  0  0  0  0  0  0  0
  139.6978   69.0511  218.4422 H   0  0  0  0  0  0  0  0  0  0  0  0
  141.9464   68.9770  217.9513 H   0  0  0  0  0  0  0  0  0  0  0  0
  141.3224   70.7147  217.5716 H   0  0  0  0  0  0  0  0  0  0  0  0
  143.9377   68.9150  218.9990 H   0  0  0  0  0  0  0  0  0  0  0  0
  144.1328   70.0787  217.6067 H   0  0  0  0  0  0  0  0  0  0  0  0
  145.3118   70.0841  220.3132 H   0  0  0  0  0  0  0  0  0  0  0  0
  145.9474   70.6127  218.6588 H   0  0  0  0  0  0  0  0  0  0  0  0
  146.8709   72.2184  220.6255 H   0  0  0  0  0  0  0  0  0  0  0  0
  146.5628   74.6188  221.2371 H   0  0  0  0  0  0  0  0  0  0  0  0
  144.4177   75.7907  220.6576 H   0  0  0  0  0  0  0  0  0  0  0  0
  142.6545   74.4977  219.4861 H   0  0  0  0  0  0  0  0  0  0  0  0
  141.7034   72.4257  219.0372 H   0  0  0  0  0  0  0  0  0  0  0  0
  142.7522   72.1902  217.6106 H   0  0  0  0  0  0  0  0  0  0  0  0
  141.0806   72.7688  224.7182 H   0  0  0  0  0  0  0  0  0  0  0  0
  139.9443   72.0122  225.8790 H   0  0  0  0  0  0  0  0  0  0  0  0
  142.2411   70.5365  224.4427 H   0  0  0  0  0  0  0  0  0  0  0  0
  142.3306   71.0880  226.1078 H   0  0  0  0  0  0  0  0  0  0  0  0
  142.3742   69.0330  227.1252 H   0  0  0  0  0  0  0  0  0  0  0  0
  141.1441   67.0013  227.9470 H   0  0  0  0  0  0  0  0  0  0  0  0
  138.9424   66.5018  226.9697 H   0  0  0  0  0  0  0  0  0  0  0  0
  137.9196   67.9308  225.2232 H   0  0  0  0  0  0  0  0  0  0  0  0
  138.8854   69.6095  223.1854 H   0  0  0  0  0  0  0  0  0  0  0  0
  137.9759   70.5057  224.4753 H   0  0  0  0  0  0  0  0  0  0  0  0
  138.9039   76.8900  221.6041 H   0  0  0  0  0  0  0  0  0  0  0  0
  139.1921   75.7689  222.9582 H   0  0  0  0  0  0  0  0  0  0  0  0
  140.3295   77.8901  223.4777 H   0  0  0  0  0  0  0  0  0  0  0  0
  141.5931   76.7089  223.1074 H   0  0  0  0  0  0  0  0  0  0  0  0
  1  2  1  0
  2  3  1  0
  2  4  1  0
  4  5  1  0
  5  6  1  0
  6  7  1  0
  7  8  1  0
  8  9  2  0
  9 10  1  0
 10 11  1  0
 11 12  1  0
 12 13  1  0
 13 14  1  0
 14 15  1  0
 15 16  1  0
 16 17  1  0
 17 18  2  0
 18 19  1  0
 19 20  2  0
 20 21  1  0
 21 22  2  0
 22 23  1  0
 10 24  2  0
 24 25  1  0
 25 26  1  0
 26 27  1  0
 27 28  1  0
 28 29  1  0
 29 30  2  0
 30 31  1  0
 31 32  2  0
 32 33  1  0
 33 34  2  0
 34 35  1  0
 25 36  2  0
  7 37  1  0
 37 38  1  0
 38  4  1  0
 36  8  1  0
 23 14  1  0
 35 26  1  0
 22 17  1  0
 34 29  1  0
  1 39  1  0
  1 40  1  0
  1 41  1  0
  3 42  1  0
  3 43  1  0
  3 44  1  0
  4 45  1  0
  5 46  1  0
  5 47  1  0
  6 48  1  0
  6 49  1  0
 11 50  1  0
 12 51  1  0
 12 52  1  0
 13 53  1  0
 13 54  1  0
 15 55  1  0
 15 56  1  0
 16 57  1  0
 16 58  1  0
 18 59  1  0
 19 60  1  0
 20 61  1  0
 21 62  1  0
 23 63  1  0
 23 64  1  0
 27 65  1  0
 27 66  1  0
 28 67  1  0
 28 68  1  0
 30 69  1  0
 31 70  1  0
 32 71  1  0
 33 72  1  0
 35 73  1  0
 35 74  1  0
 37 75  1  0
 37 76  1  0
 38 77  1  0
 38 78  1  0
M  END
>  <smiles>  (12) 
CN(C)C1CCN(c2nc(NCCN3CCc4ccccc4C3)nc(N3CCc4ccccc4C3)n2)CC1

>  <score_type>  (12) 
oracle

>  <origin>  (12) 
autodockgpu

>  <m_score__min__energy>  (12) 
-11.130000000000001

>  <m_primary>  (12) 
energy

>  <rmsd>  (12) 
7.833004864109358

>  <m_score__min__rmsd>  (12) 
7.833004864109358

>  <meeko>  (12) 
{"free_energy": -9.06, "intermolecular_energy": -11.15, "internal_energy": -2.09, "cluster_size": 4, "cluster_id": 6, "rank_in_cluster": 2}

>  <energy>  (12) 
-10.4

>  <cluster_rmsd>  (12) 
1.26

>  <cluster>  (12) 
1

$$$$

     RDKit          3D

 78 83  0  0  0  0  0  0  0  0999 V2000
  131.9970   74.4880  227.8660 C   0  0  0  0  0  0  0  0  0  0  0  0
  132.3700   73.6150  226.8020 N   0  0  0  0  0  0  0  0  0  0  0  0
  132.9450   72.3810  227.2280 C   0  0  0  0  0  0  0  0  0  0  0  0
  133.0010   74.2250  225.6780 C   0  0  0  0  0  0  0  0  0  0  0  0
  134.0020   75.2380  226.0830 C   0  0  0  0  0  0  0  0  0  0  0  0
  135.0080   75.6530  225.0830 C   0  0  0  0  0  0  0  0  0  0  0  0
  135.1280   74.8750  223.8990 N   0  0  0  0  0  0  0  0  0  0  0  0
  136.3290   74.9610  223.1200 C   0  0  0  0  0  0  0  0  0  0  0  0
  136.7750   73.9010  222.3780 N   0  0  0  0  0  0  0  0  0  0  0  0
  137.8760   74.0050  221.6330 C   0  0  0  0  0  0  0  0  0  0  0  0
  138.4640   73.0220  220.8280 N   0  0  0  0  0  0  0  0  0  0  0  0
  139.5470   72.1160  221.1170 C   0  0  0  0  0  0  0  0  0  0  0  0
  140.0700   72.4060  222.4590 C   0  0  0  0  0  0  0  0  0  0  0  0
  139.6860   71.5980  223.5850 N   0  0  0  0  0  0  0  0  0  0  0  0
  139.4730   70.2370  223.2820 C   0  0  0  0  0  0  0  0  0  0  0  0
  139.0970   69.4180  224.4770 C   0  0  0  0  0  0  0  0  0  0  0  0
  139.5680   69.9080  225.7780 C   0  0  0  0  0  0  0  0  0  0  0  0
  139.2580   69.2300  226.9220 C   0  0  0  0  0  0  0  0  0  0  0  0
  139.6950   69.7020  228.1650 C   0  0  0  0  0  0  0  0  0  0  0  0
  140.4490   70.8660  228.2450 C   0  0  0  0  0  0  0  0  0  0  0  0
  140.7370   71.5160  227.0600 C   0  0  0  0  0  0  0  0  0  0  0  0
  140.3070   71.0530  225.8250 C   0  0  0  0  0  0  0  0  0  0  0  0
  140.7010   71.8250  224.6440 C   0  0  0  0  0  0  0  0  0  0  0  0
  138.5180   75.1990  221.6500 N   0  0  0  0  0  0  0  0  0  0  0  0
  138.1260   76.2680  222.3580 C   0  0  0  0  0  0  0  0  0  0  0  0
  138.9220   77.4320  222.2280 N   0  0  0  0  0  0  0  0  0  0  0  0
  139.9390   77.4280  221.1630 C   0  0  0  0  0  0  0  0  0  0  0  0
  141.3270   77.4880  221.8030 C   0  0  0  0  0  0  0  0  0  0  0  0
  141.3290   78.8080  222.5360 C   0  0  0  0  0  0  0  0  0  0  0  0
  142.5580   79.4460  222.5780 C   0  0  0  0  0  0  0  0  0  0  0  0
  142.6700   80.6710  223.2190 C   0  0  0  0  0  0  0  0  0  0  0  0
  141.5380   81.1860  223.7820 C   0  0  0  0  0  0  0  0  0  0  0  0
  140.2970   80.5400  223.7400 C   0  0  0  0  0  0  0  0  0  0  0  0
  140.1840   79.3200  223.1020 C   0  0  0  0  0  0  0  0  0  0  0  0
  138.8610   78.6110  223.0400 C   0  0  0  0  0  0  0  0  0  0  0  0
  137.0270   76.1440  223.0960 N   0  0  0  0  0  0  0  0  0  0  0  0
  134.0510   74.0100  223.5050 C   0  0  0  0  0  0  0  0  0  0  0  0
  133.6310   73.2170  224.7370 C   0  0  0  0  0  0  0  0  0  0  0  0
  132.2051   74.0009  228.8300 H   0  0  0  0  0  0  0  0  0  0  0  0
  132.5750   75.4212  227.7944 H   0  0  0  0  0  0  0  0  0  0  0  0
  130.9231   74.7154  227.7944 H   0  0  0  0  0  0  0  0  0  0  0  0
  132.9620   72.3445  228.3273 H   0  0  0  0  0  0  0  0  0  0  0  0
  132.3441   71.5441  226.8426 H   0  0  0  0  0  0  0  0  0  0  0  0
  133.9723   72.3028  226.8426 H   0  0  0  0  0  0  0  0  0  0  0  0
  132.1939   74.7328  225.1296 H   0  0  0  0  0  0  0  0  0  0  0  0
  133.4509   76.1400  226.3873 H   0  0  0  0  0  0  0  0  0  0  0  0
  134.5862   74.7477  226.8756 H   0  0  0  0  0  0  0  0  0  0  0  0
  134.7612   76.6802  224.7766 H   0  0  0  0  0  0  0  0  0  0  0  0
  135.9738   75.5284  225.5945 H   0  0  0  0  0  0  0  0  0  0  0  0
  138.0440   72.9260  219.8470 H   0  0  0  0  0  0  0  0  0  0  0  0
  139.1802   71.0796  221.0805 H   0  0  0  0  0  0  0  0  0  0  0  0
  140.3461   72.2434  220.3719 H   0  0  0  0  0  0  0  0  0  0  0  0
  141.1662   72.3473  222.3889 H   0  0  0  0  0  0  0  0  0  0  0  0
  139.6210   73.3827  222.6924 H   0  0  0  0  0  0  0  0  0  0  0  0
  138.6630   70.1665  222.5411 H   0  0  0  0  0  0  0  0  0  0  0  0
  140.4220   69.8358  222.8966 H   0  0  0  0  0  0  0  0  0  0  0  0
  137.9989   69.3673  224.5160 H   0  0  0  0  0  0  0  0  0  0  0  0
  139.5928   68.4466  224.3335 H   0  0  0  0  0  0  0  0  0  0  0  0
  138.6614   68.3075  226.8663 H   0  0  0  0  0  0  0  0  0  0  0  0
  139.4406   69.1495  229.0815 H   0  0  0  0  0  0  0  0  0  0  0  0
  140.8022   71.2543  229.2117 H   0  0  0  0  0  0  0  0  0  0  0  0
  141.3326   72.4400  227.0976 H   0  0  0  0  0  0  0  0  0  0  0  0
  140.7446   72.8950  224.8955 H   0  0  0  0  0  0  0  0  0  0  0  0
  141.6942   71.5065  224.2945 H   0  0  0  0  0  0  0  0  0  0  0  0
  139.8464   76.5078  220.5675 H   0  0  0  0  0  0  0  0  0  0  0  0
  139.7938   78.2980  220.5058 H   0  0  0  0  0  0  0  0  0  0  0  0
  141.4726   76.6513  222.5021 H   0  0  0  0  0  0  0  0  0  0  0  0
  142.1392   77.4099  221.0653 H   0  0  0  0  0  0  0  0  0  0  0  0
  143.4383   78.9846  222.1066 H   0  0  0  0  0  0  0  0  0  0  0  0
  143.6303   81.2049  223.2714 H   0  0  0  0  0  0  0  0  0  0  0  0
  141.6045   82.1572  224.2942 H   0  0  0  0  0  0  0  0  0  0  0  0
  139.4170   81.0011  224.2122 H   0  0  0  0  0  0  0  0  0  0  0  0
  138.5630   78.3251  224.0595 H   0  0  0  0  0  0  0  0  0  0  0  0
  138.1285   79.2968  222.5892 H   0  0  0  0  0  0  0  0  0  0  0  0
  133.2045   74.6075  223.1356 H   0  0  0  0  0  0  0  0  0  0  0  0
  134.3702   73.3344  222.6978 H   0  0  0  0  0  0  0  0  0  0  0  0
  132.9020   72.4402  224.4630 H   0  0  0  0  0  0  0  0  0  0  0  0
  134.4868   72.7064  225.2026 H   0  0  0  0  0  0  0  0  0  0  0  0
  1  2  1  0
  2  3  1  0
  2  4  1  0
  4  5  1  0
  5  6  1  0
  6  7  1  0
  7  8  1  0
  8  9  2  0
  9 10  1  0
 10 11  1  0
 11 12  1  0
 12 13  1  0
 13 14  1  0
 14 15  1  0
 15 16  1  0
 16 17  1  0
 17 18  2  0
 18 19  1  0
 19 20  2  0
 20 21  1  0
 21 22  2  0
 22 23  1  0
 10 24  2  0
 24 25  1  0
 25 26  1  0
 26 27  1  0
 27 28  1  0
 28 29  1  0
 29 30  2  0
 30 31  1  0
 31 32  2  0
 32 33  1  0
 33 34  2  0
 34 35  1  0
 25 36  2  0
  7 37  1  0
 37 38  1  0
 38  4  1  0
 36  8  1  0
 23 14  1  0
 35 26  1  0
 22 17  1  0
 34 29  1  0
  1 39  1  0
  1 40  1  0
  1 41  1  0
  3 42  1  0
  3 43  1  0
  3 44  1  0
  4 45  1  0
  5 46  1  0
  5 47  1  0
  6 48  1  0
  6 49  1  0
 11 50  1  0
 12 51  1  0
 12 52  1  0
 13 53  1  0
 13 54  1  0
 15 55  1  0
 15 56  1  0
 16 57  1  0
 16 58  1  0
 18 59  1  0
 19 60  1  0
 20 61  1  0
 21 62  1  0
 23 63  1  0
 23 64  1  0
 27 65  1  0
 27 66  1  0
 28 67  1  0
 28 68  1  0
 30 69  1  0
 31 70  1  0
 32 71  1  0
 33 72  1  0
 35 73  1  0
 35 74  1  0
 37 75  1  0
 37 76  1  0
 38 77  1  0
 38 78  1  0
M  END
>  <smiles>  (13) 
CN(C)C1CCN(c2nc(NCCN3CCc4ccccc4C3)nc(N3CCc4ccccc4C3)n2)CC1

>  <score_type>  (13) 
oracle

>  <origin>  (13) 
autodockgpu

>  <m_score__min__energy>  (13) 
-11.130000000000001

>  <m_primary>  (13) 
energy

>  <rmsd>  (13) 
3.8472839187313785

>  <m_score__min__rmsd>  (13) 
3.8472839187313785

>  <meeko>  (13) 
{"free_energy": -9.83, "intermolecular_energy": -11.92, "internal_energy": -1.43, "cluster_size": 7, "cluster_id": 3, "rank_in_cluster": 5}

>  <energy>  (13) 
-10.34

>  <cluster_rmsd>  (13) 
0.58

>  <cluster>  (13) 
1

$$$$

     RDKit          3D

 78 83  0  0  0  0  0  0  0  0999 V2000
  140.3490   70.8810  227.9790 C   0  0  0  0  0  0  0  0  0  0  0  0
  139.8140   69.8990  227.0920 N   0  0  0  0  0  0  0  0  0  0  0  0
  140.0500   68.5520  227.4970 C   0  0  0  0  0  0  0  0  0  0  0  0
  139.9750   70.1550  225.6990 C   0  0  0  0  0  0  0  0  0  0  0  0
  138.6970   70.0380  224.9590 C   0  0  0  0  0  0  0  0  0  0  0  0
  138.6150   70.6570  223.6200 C   0  0  0  0  0  0  0  0  0  0  0  0
  139.6540   71.5490  223.2350 N   0  0  0  0  0  0  0  0  0  0  0  0
  139.4220   72.4810  222.1700 C   0  0  0  0  0  0  0  0  0  0  0  0
  138.9040   72.0780  220.9700 N   0  0  0  0  0  0  0  0  0  0  0  0
  138.6640   72.9600  219.9990 C   0  0  0  0  0  0  0  0  0  0  0  0
  138.1470   72.7130  218.7230 N   0  0  0  0  0  0  0  0  0  0  0  0
  138.7600   72.0780  217.5820 C   0  0  0  0  0  0  0  0  0  0  0  0
  140.0590   71.5200  217.9860 C   0  0  0  0  0  0  0  0  0  0  0  0
  141.1720   72.3860  218.2670 N   0  0  0  0  0  0  0  0  0  0  0  0
  140.9020   73.7600  218.0940 C   0  0  0  0  0  0  0  0  0  0  0  0
  142.0720   74.6360  218.4150 C   0  0  0  0  0  0  0  0  0  0  0  0
  143.0410   74.1020  219.3800 C   0  0  0  0  0  0  0  0  0  0  0  0
  144.1450   74.8300  219.7200 C   0  0  0  0  0  0  0  0  0  0  0  0
  145.0780   74.3180  220.6300 C   0  0  0  0  0  0  0  0  0  0  0  0
  144.8860   73.0630  221.1960 C   0  0  0  0  0  0  0  0  0  0  0  0
  143.7530   72.3660  220.8210 C   0  0  0  0  0  0  0  0  0  0  0  0
  142.8260   72.8680  219.9200 C   0  0  0  0  0  0  0  0  0  0  0  0
  141.6570   72.0360  219.6250 C   0  0  0  0  0  0  0  0  0  0  0  0
  138.9550   74.2580  220.2650 N   0  0  0  0  0  0  0  0  0  0  0  0
  139.4650   74.7070  221.4210 C   0  0  0  0  0  0  0  0  0  0  0  0
  139.6830   76.1030  221.5090 N   0  0  0  0  0  0  0  0  0  0  0  0
  140.3340   76.7490  220.3570 C   0  0  0  0  0  0  0  0  0  0  0  0
  141.6950   77.2900  220.7980 C   0  0  0  0  0  0  0  0  0  0  0  0
  141.3520   78.3100  221.8570 C   0  0  0  0  0  0  0  0  0  0  0  0
  142.2030   79.4030  221.9070 C   0  0  0  0  0  0  0  0  0  0  0  0
  141.9720   80.4050  222.8380 C   0  0  0  0  0  0  0  0  0  0  0  0
  140.8990   80.2520  223.6670 C   0  0  0  0  0  0  0  0  0  0  0  0
  140.0400   79.1470  223.6160 C   0  0  0  0  0  0  0  0  0  0  0  0
  140.2690   78.1490  222.6890 C   0  0  0  0  0  0  0  0  0  0  0  0
  139.3580   76.9570  222.6130 C   0  0  0  0  0  0  0  0  0  0  0  0
  139.6980   73.8110  222.3750 N   0  0  0  0  0  0  0  0  0  0  0  0
  140.9140   71.5090  223.9230 C   0  0  0  0  0  0  0  0  0  0  0  0
  140.6180   71.4990  225.4170 C   0  0  0  0  0  0  0  0  0  0  0  0
  140.1781   70.5673  229.0194 H   0  0  0  0  0  0  0  0  0  0  0  0
  141.4293   70.9865  227.8006 H   0  0  0  0  0  0  0  0  0  0  0  0
  139.8519   71.8459  227.8006 H   0  0  0  0  0  0  0  0  0  0  0  0
  140.0599   68.4958  228.5955 H   0  0  0  0  0  0  0  0  0  0  0  0
  139.2514   67.9057  227.1039 H   0  0  0  0  0  0  0  0  0  0  0  0
  141.0208   68.2157  227.1039 H   0  0  0  0  0  0  0  0  0  0  0  0
  140.6605   69.3748  225.3365 H   0  0  0  0  0  0  0  0  0  0  0  0
  138.4856   68.9653  224.8377 H   0  0  0  0  0  0  0  0  0  0  0  0
  137.9731   70.5997  225.5676 H   0  0  0  0  0  0  0  0  0  0  0  0
  138.5936   69.8411  222.8825 H   0  0  0  0  0  0  0  0  0  0  0  0
  137.7129   71.2851  223.6609 H   0  0  0  0  0  0  0  0  0  0  0  0
  137.1390   73.0430  218.5680 H   0  0  0  0  0  0  0  0  0  0  0  0
  138.1094   71.2703  217.2156 H   0  0  0  0  0  0  0  0  0  0  0  0
  138.9056   72.8160  216.7794 H   0  0  0  0  0  0  0  0  0  0  0  0
  139.8791   70.9326  218.8985 H   0  0  0  0  0  0  0  0  0  0  0  0
  140.3871   70.9819  217.0844 H   0  0  0  0  0  0  0  0  0  0  0  0
  140.6148   73.9305  217.0459 H   0  0  0  0  0  0  0  0  0  0  0  0
  140.0943   74.0247  218.7923 H   0  0  0  0  0  0  0  0  0  0  0  0
  142.6093   74.8344  217.4759 H   0  0  0  0  0  0  0  0  0  0  0  0
  141.6455   75.5302  218.8930 H   0  0  0  0  0  0  0  0  0  0  0  0
  144.3023   75.8243  219.2765 H   0  0  0  0  0  0  0  0  0  0  0  0
  145.9653   74.9105  220.8977 H   0  0  0  0  0  0  0  0  0  0  0  0
  145.6062   72.6419  221.9129 H   0  0  0  0  0  0  0  0  0  0  0  0
  143.5791   71.3706  221.2557 H   0  0  0  0  0  0  0  0  0  0  0  0
  141.9382   70.9731  219.6579 H   0  0  0  0  0  0  0  0  0  0  0  0
  140.8663   72.2128  220.3690 H   0  0  0  0  0  0  0  0  0  0  0  0
  140.4723   76.0138  219.5506 H   0  0  0  0  0  0  0  0  0  0  0  0
  139.7065   77.5735  219.9876 H   0  0  0  0  0  0  0  0  0  0  0  0
  142.3193   76.4864  221.2157 H   0  0  0  0  0  0  0  0  0  0  0  0
  142.2719   77.7191  219.9655 H   0  0  0  0  0  0  0  0  0  0  0  0
  143.0544   79.4752  221.2142 H   0  0  0  0  0  0  0  0  0  0  0  0
  142.6267   81.2864  222.9052 H   0  0  0  0  0  0  0  0  0  0  0  0
  140.6987   81.0356  224.4125 H   0  0  0  0  0  0  0  0  0  0  0  0
  139.1890   79.0744  224.3092 H   0  0  0  0  0  0  0  0  0  0  0  0
  139.4478   76.3812  223.5460 H   0  0  0  0  0  0  0  0  0  0  0  0
  138.3307   77.3229  222.4689 H   0  0  0  0  0  0  0  0  0  0  0  0
  141.4663   70.5998  223.6432 H   0  0  0  0  0  0  0  0  0  0  0  0
  141.5301   72.3801  223.6553 H   0  0  0  0  0  0  0  0  0  0  0  0
  141.5488   71.6073  225.9931 H   0  0  0  0  0  0  0  0  0  0  0  0
  139.9606   72.3322  225.7062 H   0  0  0  0  0  0  0  0  0  0  0  0
  1  2  1  0
  2  3  1  0
  2  4  1  0
  4  5  1  0
  5  6  1  0
  6  7  1  0
  7  8  1  0
  8  9  2  0
  9 10  1  0
 10 11  1  0
 11 12  1  0
 12 13  1  0
 13 14  1  0
 14 15  1  0
 15 16  1  0
 16 17  1  0
 17 18  2  0
 18 19  1  0
 19 20  2  0
 20 21  1  0
 21 22  2  0
 22 23  1  0
 10 24  2  0
 24 25  1  0
 25 26  1  0
 26 27  1  0
 27 28  1  0
 28 29  1  0
 29 30  2  0
 30 31  1  0
 31 32  2  0
 32 33  1  0
 33 34  2  0
 34 35  1  0
 25 36  2  0
  7 37  1  0
 37 38  1  0
 38  4  1  0
 36  8  1  0
 23 14  1  0
 35 26  1  0
 22 17  1  0
 34 29  1  0
  1 39  1  0
  1 40  1  0
  1 41  1  0
  3 42  1  0
  3 43  1  0
  3 44  1  0
  4 45  1  0
  5 46  1  0
  5 47  1  0
  6 48  1  0
  6 49  1  0
 11 50  1  0
 12 51  1  0
 12 52  1  0
 13 53  1  0
 13 54  1  0
 15 55  1  0
 15 56  1  0
 16 57  1  0
 16 58  1  0
 18 59  1  0
 19 60  1  0
 20 61  1  0
 21 62  1  0
 23 63  1  0
 23 64  1  0
 27 65  1  0
 27 66  1  0
 28 67  1  0
 28 68  1  0
 30 69  1  0
 31 70  1  0
 32 71  1  0
 33 72  1  0
 35 73  1  0
 35 74  1  0
 37 75  1  0
 37 76  1  0
 38 77  1  0
 38 78  1  0
M  END
>  <smiles>  (14) 
CN(C)C1CCN(c2nc(NCCN3CCc4ccccc4C3)nc(N3CCc4ccccc4C3)n2)CC1

>  <score_type>  (14) 
oracle

>  <origin>  (14) 
autodockgpu

>  <m_score__min__energy>  (14) 
-11.130000000000001

>  <m_primary>  (14) 
energy

>  <rmsd>  (14) 
7.668203860493363

>  <m_score__min__rmsd>  (14) 
7.668203860493363

>  <meeko>  (14) 
{"free_energy": -8.17, "intermolecular_energy": -10.26, "internal_energy": -2.58, "cluster_size": 2, "cluster_id": 7, "rank_in_cluster": 2}

>  <energy>  (14) 
-10.24

>  <cluster_rmsd>  (14) 
0.75

>  <cluster>  (14) 
1

$$$$

     RDKit          3D

 78 83  0  0  0  0  0  0  0  0999 V2000
  142.1960   79.4360  223.2280 C   0  0  0  0  0  0  0  0  0  0  0  0
  142.0170   79.2020  221.8320 N   0  0  0  0  0  0  0  0  0  0  0  0
  141.7600   80.3790  221.0670 C   0  0  0  0  0  0  0  0  0  0  0  0
  141.2350   78.0630  221.4800 C   0  0  0  0  0  0  0  0  0  0  0  0
  141.8960   77.2290  220.4500 C   0  0  0  0  0  0  0  0  0  0  0  0
  141.4260   75.8390  220.2810 C   0  0  0  0  0  0  0  0  0  0  0  0
  140.5690   75.3010  221.2800 N   0  0  0  0  0  0  0  0  0  0  0  0
  140.4320   73.8780  221.3980 C   0  0  0  0  0  0  0  0  0  0  0  0
  140.5320   73.0590  220.3070 N   0  0  0  0  0  0  0  0  0  0  0  0
  140.4350   71.7350  220.4360 C   0  0  0  0  0  0  0  0  0  0  0  0
  140.5080   70.7670  219.4290 N   0  0  0  0  0  0  0  0  0  0  0  0
  140.4100   70.9110  217.9970 C   0  0  0  0  0  0  0  0  0  0  0  0
  141.7590   71.0770  217.4380 C   0  0  0  0  0  0  0  0  0  0  0  0
  142.8910   71.2770  218.3030 N   0  0  0  0  0  0  0  0  0  0  0  0
  144.0420   70.5490  217.9370 C   0  0  0  0  0  0  0  0  0  0  0  0
  145.2090   70.7940  218.8420 C   0  0  0  0  0  0  0  0  0  0  0  0
  145.2380   72.0900  219.5300 C   0  0  0  0  0  0  0  0  0  0  0  0
  146.2590   72.3920  220.3850 C   0  0  0  0  0  0  0  0  0  0  0  0
  146.2840   73.6230  221.0530 C   0  0  0  0  0  0  0  0  0  0  0  0
  145.2680   74.5480  220.8480 C   0  0  0  0  0  0  0  0  0  0  0  0
  144.2580   74.1970  219.9740 C   0  0  0  0  0  0  0  0  0  0  0  0
  144.2280   72.9800  219.3100 C   0  0  0  0  0  0  0  0  0  0  0  0
  143.1110   72.7420  218.3920 C   0  0  0  0  0  0  0  0  0  0  0  0
  140.2370   71.2540  221.6880 N   0  0  0  0  0  0  0  0  0  0  0  0
  140.1310   72.0100  222.7910 C   0  0  0  0  0  0  0  0  0  0  0  0
  139.9440   71.3170  224.0100 N   0  0  0  0  0  0  0  0  0  0  0  0
  140.6400   71.8510  225.1930 C   0  0  0  0  0  0  0  0  0  0  0  0
  141.6740   70.8270  225.6640 C   0  0  0  0  0  0  0  0  0  0  0  0
  140.8440   69.6210  226.0340 C   0  0  0  0  0  0  0  0  0  0  0  0
  141.3390   68.8780  227.0950 C   0  0  0  0  0  0  0  0  0  0  0  0
  140.6480   67.7550  227.5220 C   0  0  0  0  0  0  0  0  0  0  0  0
  139.4970   67.4400  226.8600 C   0  0  0  0  0  0  0  0  0  0  0  0
  138.9980   68.1900  225.7890 C   0  0  0  0  0  0  0  0  0  0  0  0
  139.6850   69.3100  225.3610 C   0  0  0  0  0  0  0  0  0  0  0  0
  139.1650   70.1320  224.2170 C   0  0  0  0  0  0  0  0  0  0  0  0
  140.2290   73.3280  222.6410 N   0  0  0  0  0  0  0  0  0  0  0  0
  139.8600   76.1870  222.1590 C   0  0  0  0  0  0  0  0  0  0  0  0
  140.8610   77.2120  222.6770 C   0  0  0  0  0  0  0  0  0  0  0  0
  141.6255   78.6902  223.8009 H   0  0  0  0  0  0  0  0  0  0  0  0
  143.2636   79.3534  223.4797 H   0  0  0  0  0  0  0  0  0  0  0  0
  141.8369   80.4448  223.4797 H   0  0  0  0  0  0  0  0  0  0  0  0
  141.5754   81.2245  221.7459 H   0  0  0  0  0  0  0  0  0  0  0  0
  142.6307   80.6014  220.4327 H   0  0  0  0  0  0  0  0  0  0  0  0
  140.8758   80.2182  220.4327 H   0  0  0  0  0  0  0  0  0  0  0  0
  140.3046   78.4682  221.0556 H   0  0  0  0  0  0  0  0  0  0  0  0
  141.7670   77.7383  219.4836 H   0  0  0  0  0  0  0  0  0  0  0  0
  142.9340   77.1289  220.8002 H   0  0  0  0  0  0  0  0  0  0  0  0
  140.8853   75.7899  219.3243 H   0  0  0  0  0  0  0  0  0  0  0  0
  142.3394   75.2292  220.3431 H   0  0  0  0  0  0  0  0  0  0  0  0
  140.6630   69.7640  219.7710 H   0  0  0  0  0  0  0  0  0  0  0  0
  139.9410   70.0134  217.5676 H   0  0  0  0  0  0  0  0  0  0  0  0
  139.7967   71.7911  217.7537 H   0  0  0  0  0  0  0  0  0  0  0  0
  141.9691   70.1720  216.8491 H   0  0  0  0  0  0  0  0  0  0  0  0
  141.6870   72.0346  216.9016 H   0  0  0  0  0  0  0  0  0  0  0  0
  143.7996   69.4763  217.9622 H   0  0  0  0  0  0  0  0  0  0  0  0
  144.3336   70.8840  216.9306 H   0  0  0  0  0  0  0  0  0  0  0  0
  145.2083   70.0068  219.6103 H   0  0  0  0  0  0  0  0  0  0  0  0
  146.0933   70.7896  218.1877 H   0  0  0  0  0  0  0  0  0  0  0  0
  147.0669   71.6640  220.5502 H   0  0  0  0  0  0  0  0  0  0  0  0
  147.1095   73.8576  221.7411 H   0  0  0  0  0  0  0  0  0  0  0  0
  145.2680   75.5209  221.3612 H   0  0  0  0  0  0  0  0  0  0  0  0
  143.4424   74.9135  219.7970 H   0  0  0  0  0  0  0  0  0  0  0  0
  142.2036   73.2327  218.7739 H   0  0  0  0  0  0  0  0  0  0  0  0
  143.3403   73.1538  217.3981 H   0  0  0  0  0  0  0  0  0  0  0  0
  141.1454   72.7921  224.9305 H   0  0  0  0  0  0  0  0  0  0  0  0
  139.9142   72.0443  225.9966 H   0  0  0  0  0  0  0  0  0  0  0  0
  142.3805   70.5838  224.8567 H   0  0  0  0  0  0  0  0  0  0  0  0
  142.2864   71.1948  226.5005 H   0  0  0  0  0  0  0  0  0  0  0  0
  142.2726   69.1775  227.5938 H   0  0  0  0  0  0  0  0  0  0  0  0
  141.0124   67.1428  228.3601 H   0  0  0  0  0  0  0  0  0  0  0  0
  138.9335   66.5527  227.1842 H   0  0  0  0  0  0  0  0  0  0  0  0
  138.0644   67.8897  225.2908 H   0  0  0  0  0  0  0  0  0  0  0  0
  139.1933   69.5238  223.3009 H   0  0  0  0  0  0  0  0  0  0  0  0
  138.1368   70.4391  224.4589 H   0  0  0  0  0  0  0  0  0  0  0  0
  139.0524   76.6940  221.6106 H   0  0  0  0  0  0  0  0  0  0  0  0
  139.4093   75.6285  222.9926 H   0  0  0  0  0  0  0  0  0  0  0  0
  140.4028   77.8331  223.4608 H   0  0  0  0  0  0  0  0  0  0  0  0
  141.7430   76.7284  223.1222 H   0  0  0  0  0  0  0  0  0  0  0  0
  1  2  1  0
  2  3  1  0
  2  4  1  0
  4  5  1  0
  5  6  1  0
  6  7  1  0
  7  8  1  0
  8  9  2  0
  9 10  1  0
 10 11  1  0
 11 12  1  0
 12 13  1  0
 13 14  1  0
 14 15  1  0
 15 16  1  0
 16 17  1  0
 17 18  2  0
 18 19  1  0
 19 20  2  0
 20 21  1  0
 21 22  2  0
 22 23  1  0
 10 24  2  0
 24 25  1  0
 25 26  1  0
 26 27  1  0
 27 28  1  0
 28 29  1  0
 29 30  2  0
 30 31  1  0
 31 32  2  0
 32 33  1  0
 33 34  2  0
 34 35  1  0
 25 36  2  0
  7 37  1  0
 37 38  1  0
 38  4  1  0
 36  8  1  0
 23 14  1  0
 35 26  1  0
 22 17  1  0
 34 29  1  0
  1 39  1  0
  1 40  1  0
  1 41  1  0
  3 42  1  0
  3 43  1  0
  3 44  1  0
  4 45  1  0
  5 46  1  0
  5 47  1  0
  6 48  1  0
  6 49  1  0
 11 50  1  0
 12 51  1  0
 12 52  1  0
 13 53  1  0
 13 54  1  0
 15 55  1  0
 15 56  1  0
 16 57  1  0
 16 58  1  0
 18 59  1  0
 19 60  1  0
 20 61  1  0
 21 62  1  0
 23 63  1  0
 23 64  1  0
 27 65  1  0
 27 66  1  0
 28 67  1  0
 28 68  1  0
 30 69  1  0
 31 70  1  0
 32 71  1  0
 33 72  1  0
 35 73  1  0
 35 74  1  0
 37 75  1  0
 37 76  1  0
 38 77  1  0
 38 78  1  0
M  END
>  <smiles>  (15) 
CN(C)C1CCN(c2nc(NCCN3CCc4ccccc4C3)nc(N3CCc4ccccc4C3)n2)CC1

>  <score_type>  (15) 
oracle

>  <origin>  (15) 
autodockgpu

>  <m_score__min__energy>  (15) 
-11.130000000000001

>  <m_primary>  (15) 
energy

>  <rmsd>  (15) 
8.084361334415672

>  <m_score__min__rmsd>  (15) 
8.084361334415672

>  <meeko>  (15) 
{"free_energy": -9.08, "intermolecular_energy": -11.16, "internal_energy": -2.12, "cluster_size": 4, "cluster_id": 6, "rank_in_cluster": 1}

>  <energy>  (15) 
-10.19

>  <cluster_rmsd>  (15) 
0.62

>  <cluster>  (15) 
1

$$$$

     RDKit          3D

 78 83  0  0  0  0  0  0  0  0999 V2000
  140.3320   67.0790  226.3570 C   0  0  0  0  0  0  0  0  0  0  0  0
  140.7020   68.3850  226.7960 N   0  0  0  0  0  0  0  0  0  0  0  0
  140.7660   68.5320  228.2140 C   0  0  0  0  0  0  0  0  0  0  0  0
  140.1080   69.4760  226.0960 C   0  0  0  0  0  0  0  0  0  0  0  0
  141.0540   70.6020  225.9130 C   0  0  0  0  0  0  0  0  0  0  0  0
  140.7370   71.6090  224.8790 C   0  0  0  0  0  0  0  0  0  0  0  0
  139.7060   71.3040  223.9490 N   0  0  0  0  0  0  0  0  0  0  0  0
  139.6450   72.0180  222.7070 C   0  0  0  0  0  0  0  0  0  0  0  0
  139.3990   71.3750  221.5250 N   0  0  0  0  0  0  0  0  0  0  0  0
  139.3150   72.0560  220.3820 C   0  0  0  0  0  0  0  0  0  0  0  0
  139.0770   71.5520  219.0980 N   0  0  0  0  0  0  0  0  0  0  0  0
  139.5430   70.3350  218.4800 C   0  0  0  0  0  0  0  0  0  0  0  0
  140.9160   70.5390  217.9970 C   0  0  0  0  0  0  0  0  0  0  0  0
  141.9380   71.0320  218.8810 N   0  0  0  0  0  0  0  0  0  0  0  0
  142.9890   70.1220  219.1230 C   0  0  0  0  0  0  0  0  0  0  0  0
  144.0470   70.6700  220.0290 C   0  0  0  0  0  0  0  0  0  0  0  0
  144.2010   72.1300  220.0410 C   0  0  0  0  0  0  0  0  0  0  0  0
  145.1340   72.7160  220.8480 C   0  0  0  0  0  0  0  0  0  0  0  0
  145.2750   74.1090  220.8720 C   0  0  0  0  0  0  0  0  0  0  0  0
  144.4670   74.9070  220.0710 C   0  0  0  0  0  0  0  0  0  0  0  0
  143.5390   74.2660  219.2720 C   0  0  0  0  0  0  0  0  0  0  0  0
  143.3940   72.8880  219.2440 C   0  0  0  0  0  0  0  0  0  0  0  0
  142.3870   72.3360  218.3350 C   0  0  0  0  0  0  0  0  0  0  0  0
  139.4810   73.3990  220.4540 N   0  0  0  0  0  0  0  0  0  0  0  0
  139.7250   74.0800  221.5840 C   0  0  0  0  0  0  0  0  0  0  0  0
  139.8510   75.4840  221.4540 N   0  0  0  0  0  0  0  0  0  0  0  0
  140.4820   75.9850  220.2210 C   0  0  0  0  0  0  0  0  0  0  0  0
  141.7960   76.6790  220.5860 C   0  0  0  0  0  0  0  0  0  0  0  0
  141.3670   77.8260  221.4680 C   0  0  0  0  0  0  0  0  0  0  0  0
  142.1440   78.9680  221.3550 C   0  0  0  0  0  0  0  0  0  0  0  0
  141.8300   80.0850  222.1150 C   0  0  0  0  0  0  0  0  0  0  0  0
  140.7520   79.9910  222.9460 C   0  0  0  0  0  0  0  0  0  0  0  0
  139.9680   78.8370  223.0600 C   0  0  0  0  0  0  0  0  0  0  0  0
  140.2790   77.7240  222.3040 C   0  0  0  0  0  0  0  0  0  0  0  0
  139.4490   76.4760  222.4070 C   0  0  0  0  0  0  0  0  0  0  0  0
  139.8080   73.3830  222.7130 N   0  0  0  0  0  0  0  0  0  0  0  0
  138.7460   70.2820  224.2610 C   0  0  0  0  0  0  0  0  0  0  0  0
  139.5210   69.0680  224.7590 C   0  0  0  0  0  0  0  0  0  0  0  0
  140.1499   66.4363  227.2309 H   0  0  0  0  0  0  0  0  0  0  0  0
  139.4163   67.1417  225.7508 H   0  0  0  0  0  0  0  0  0  0  0  0
  141.1445   66.6521  225.7508 H   0  0  0  0  0  0  0  0  0  0  0  0
  140.3710   67.6249  228.6949 H   0  0  0  0  0  0  0  0  0  0  0  0
  141.8116   68.6836  228.5201 H   0  0  0  0  0  0  0  0  0  0  0  0
  140.1647   69.4008  228.5201 H   0  0  0  0  0  0  0  0  0  0  0  0
  139.2794   69.8166  226.7343 H   0  0  0  0  0  0  0  0  0  0  0  0
  141.1241   71.1308  226.8750 H   0  0  0  0  0  0  0  0  0  0  0  0
  141.9827   70.1284  225.5619 H   0  0  0  0  0  0  0  0  0  0  0  0
  140.4459   72.5331  225.3998 H   0  0  0  0  0  0  0  0  0  0  0  0
  141.6495   71.6748  224.2683 H   0  0  0  0  0  0  0  0  0  0  0  0
  138.4500   72.1610  218.4780 H   0  0  0  0  0  0  0  0  0  0  0  0
  139.5287   69.5183  219.2168 H   0  0  0  0  0  0  0  0  0  0  0  0
  138.8876   70.0718  217.6367 H   0  0  0  0  0  0  0  0  0  0  0  0
  141.2660   69.5653  217.6235 H   0  0  0  0  0  0  0  0  0  0  0  0
  140.8024   71.3578  217.2713 H   0  0  0  0  0  0  0  0  0  0  0  0
  142.5681   69.2166  219.5847 H   0  0  0  0  0  0  0  0  0  0  0  0
  143.4661   69.9089  218.1550 H   0  0  0  0  0  0  0  0  0  0  0  0
  143.8092   70.3497  221.0541 H   0  0  0  0  0  0  0  0  0  0  0  0
  144.9982   70.2780  219.6397 H   0  0  0  0  0  0  0  0  0  0  0  0
  145.7784   72.0901  221.4828 H   0  0  0  0  0  0  0  0  0  0  0  0
  146.0274   74.5729  221.5267 H   0  0  0  0  0  0  0  0  0  0  0  0
  144.5620   76.0029  220.0728 H   0  0  0  0  0  0  0  0  0  0  0  0
  142.8869   74.8765  218.6301 H   0  0  0  0  0  0  0  0  0  0  0  0
  141.5320   73.0244  218.2635 H   0  0  0  0  0  0  0  0  0  0  0  0
  142.8138   72.2015  217.3302 H   0  0  0  0  0  0  0  0  0  0  0  0
  140.6844   75.1441  219.5414 H   0  0  0  0  0  0  0  0  0  0  0  0
  139.8098   76.6973  219.7201 H   0  0  0  0  0  0  0  0  0  0  0  0
  142.4623   75.9941  221.1309 H   0  0  0  0  0  0  0  0  0  0  0  0
  142.3604   77.0112  219.7022 H   0  0  0  0  0  0  0  0  0  0  0  0
  143.0029   78.9884  220.6680 H   0  0  0  0  0  0  0  0  0  0  0  0
  142.4251   81.0079  222.0505 H   0  0  0  0  0  0  0  0  0  0  0  0
  140.4856   80.8660  223.5571 H   0  0  0  0  0  0  0  0  0  0  0  0
  139.1095   78.8168  223.7475 H   0  0  0  0  0  0  0  0  0  0  0  0
  139.5571   76.0601  223.4196 H   0  0  0  0  0  0  0  0  0  0  0  0
  138.4033   76.7450  222.1970 H   0  0  0  0  0  0  0  0  0  0  0  0
  138.0593   70.6370  225.0436 H   0  0  0  0  0  0  0  0  0  0  0  0
  138.1488   70.0252  223.3737 H   0  0  0  0  0  0  0  0  0  0  0  0
  138.8474   68.2072  224.8826 H   0  0  0  0  0  0  0  0  0  0  0  0
  140.3035   68.7660  224.0473 H   0  0  0  0  0  0  0  0  0  0  0  0
  1  2  1  0
  2  3  1  0
  2  4  1  0
  4  5  1  0
  5  6  1  0
  6  7  1  0
  7  8  1  0
  8  9  2  0
  9 10  1  0
 10 11  1  0
 11 12  1  0
 12 13  1  0
 13 14  1  0
 14 15  1  0
 15 16  1  0
 16 17  1  0
 17 18  2  0
 18 19  1  0
 19 20  2  0
 20 21  1  0
 21 22  2  0
 22 23  1  0
 10 24  2  0
 24 25  1  0
 25 26  1  0
 26 27  1  0
 27 28  1  0
 28 29  1  0
 29 30  2  0
 30 31  1  0
 31 32  2  0
 32 33  1  0
 33 34  2  0
 34 35  1  0
 25 36  2  0
  7 37  1  0
 37 38  1  0
 38  4  1  0
 36  8  1  0
 23 14  1  0
 35 26  1  0
 22 17  1  0
 34 29  1  0
  1 39  1  0
  1 40  1  0
  1 41  1  0
  3 42  1  0
  3 43  1  0
  3 44  1  0
  4 45  1  0
  5 46  1  0
  5 47  1  0
  6 48  1  0
  6 49  1  0
 11 50  1  0
 12 51  1  0
 12 52  1  0
 13 53  1  0
 13 54  1  0
 15 55  1  0
 15 56  1  0
 16 57  1  0
 16 58  1  0
 18 59  1  0
 19 60  1  0
 20 61  1  0
 21 62  1  0
 23 63  1  0
 23 64  1  0
 27 65  1  0
 27 66  1  0
 28 67  1  0
 28 68  1  0
 30 69  1  0
 31 70  1  0
 32 71  1  0
 33 72  1  0
 35 73  1  0
 35 74  1  0
 37 75  1  0
 37 76  1  0
 38 77  1  0
 38 78  1  0
M  END
>  <smiles>  (16) 
CN(C)C1CCN(c2nc(NCCN3CCc4ccccc4C3)nc(N3CCc4ccccc4C3)n2)CC1

>  <score_type>  (16) 
oracle

>  <origin>  (16) 
autodockgpu

>  <m_score__min__energy>  (16) 
-11.130000000000001

>  <m_primary>  (16) 
energy

>  <rmsd>  (16) 
7.43122194912128

>  <m_score__min__rmsd>  (16) 
7.43122194912128

>  <meeko>  (16) 
{"free_energy": -8.37, "intermolecular_energy": -10.46, "internal_energy": -2.27, "cluster_size": 2, "cluster_id": 7, "rank_in_cluster": 1}

>  <energy>  (16) 
-10.02

>  <cluster_rmsd>  (16) 
1.03

>  <cluster>  (16) 
1

$$$$

     RDKit          3D

 78 83  0  0  0  0  0  0  0  0999 V2000
  141.5120   79.7910  219.8320 C   0  0  0  0  0  0  0  0  0  0  0  0
  141.0780   79.3700  221.1240 N   0  0  0  0  0  0  0  0  0  0  0  0
  142.0340   79.5770  222.1620 C   0  0  0  0  0  0  0  0  0  0  0  0
  140.3770   78.1290  221.1790 C   0  0  0  0  0  0  0  0  0  0  0  0
  140.5520   77.3340  219.9420 C   0  0  0  0  0  0  0  0  0  0  0  0
  140.2420   75.8900  219.9990 C   0  0  0  0  0  0  0  0  0  0  0  0
  140.0600   75.3000  221.2800 N   0  0  0  0  0  0  0  0  0  0  0  0
  140.1830   73.8790  221.4230 C   0  0  0  0  0  0  0  0  0  0  0  0
  140.5760   73.0880  220.3780 N   0  0  0  0  0  0  0  0  0  0  0  0
  140.7170   71.7710  220.5340 C   0  0  0  0  0  0  0  0  0  0  0  0
  141.1030   70.8300  219.5730 N   0  0  0  0  0  0  0  0  0  0  0  0
  142.2870   70.0090  219.5040 C   0  0  0  0  0  0  0  0  0  0  0  0
  143.4470   70.8660  219.2180 C   0  0  0  0  0  0  0  0  0  0  0  0
  143.3960   72.2790  219.4800 N   0  0  0  0  0  0  0  0  0  0  0  0
  144.2690   72.7160  220.4990 C   0  0  0  0  0  0  0  0  0  0  0  0
  144.2100   74.1930  220.7330 C   0  0  0  0  0  0  0  0  0  0  0  0
  143.7980   75.0180  219.5910 C   0  0  0  0  0  0  0  0  0  0  0  0
  143.7040   76.3740  219.7210 C   0  0  0  0  0  0  0  0  0  0  0  0
  143.3000   77.1630  218.6380 C   0  0  0  0  0  0  0  0  0  0  0  0
  142.9910   76.5710  217.4190 C   0  0  0  0  0  0  0  0  0  0  0  0
  143.1020   75.1960  217.3380 C   0  0  0  0  0  0  0  0  0  0  0  0
  143.5020   74.4090  218.4080 C   0  0  0  0  0  0  0  0  0  0  0  0
  143.6000   72.9660  218.1800 C   0  0  0  0  0  0  0  0  0  0  0  0
  140.4560   71.2680  221.7660 N   0  0  0  0  0  0  0  0  0  0  0  0
  140.0670   71.9950  222.8230 C   0  0  0  0  0  0  0  0  0  0  0  0
  139.8600   71.2860  224.0300 N   0  0  0  0  0  0  0  0  0  0  0  0
  140.4080   71.8870  225.2580 C   0  0  0  0  0  0  0  0  0  0  0  0
  141.5020   70.9720  225.8110 C   0  0  0  0  0  0  0  0  0  0  0  0
  140.7730   69.6880  226.1260 C   0  0  0  0  0  0  0  0  0  0  0  0
  141.2600   68.9990  227.2260 C   0  0  0  0  0  0  0  0  0  0  0  0
  140.6570   67.8110  227.6090 C   0  0  0  0  0  0  0  0  0  0  0  0
  139.5960   67.3810  226.8650 C   0  0  0  0  0  0  0  0  0  0  0  0
  139.1050   68.0780  225.7540 C   0  0  0  0  0  0  0  0  0  0  0  0
  139.7050   69.2620  225.3720 C   0  0  0  0  0  0  0  0  0  0  0  0
  139.1920   70.0280  224.1860 C   0  0  0  0  0  0  0  0  0  0  0  0
  139.9300   73.3060  222.6470 N   0  0  0  0  0  0  0  0  0  0  0  0
  139.7640   76.1350  222.4100 C   0  0  0  0  0  0  0  0  0  0  0  0
  140.7500   77.2960  222.3900 C   0  0  0  0  0  0  0  0  0  0  0  0
  142.2978   80.5532  219.9395 H   0  0  0  0  0  0  0  0  0  0  0  0
  141.9118   78.9275  219.2801 H   0  0  0  0  0  0  0  0  0  0  0  0
  140.6611   80.2169  219.2801 H   0  0  0  0  0  0  0  0  0  0  0  0
  141.5421   79.4705  223.1401 H   0  0  0  0  0  0  0  0  0  0  0  0
  142.8387   78.8323  222.0732 H   0  0  0  0  0  0  0  0  0  0  0  0
  142.4585   80.5879  222.0732 H   0  0  0  0  0  0  0  0  0  0  0  0
  139.3144   78.3974  221.2726 H   0  0  0  0  0  0  0  0  0  0  0  0
  139.9036   77.7782  219.1725 H   0  0  0  0  0  0  0  0  0  0  0  0
  141.6318   77.3767  219.7368 H   0  0  0  0  0  0  0  0  0  0  0  0
  139.3141   75.7312  219.4300 H   0  0  0  0  0  0  0  0  0  0  0  0
  141.1384   75.3985  219.5930 H   0  0  0  0  0  0  0  0  0  0  0  0
  140.4130   70.6950  218.7650 H   0  0  0  0  0  0  0  0  0  0  0  0
  142.4361   69.4950  220.4650 H   0  0  0  0  0  0  0  0  0  0  0  0
  142.1735   69.2588  218.7076 H   0  0  0  0  0  0  0  0  0  0  0  0
  144.2858   70.4669  219.8072 H   0  0  0  0  0  0  0  0  0  0  0  0
  143.5214   70.8216  218.1214 H   0  0  0  0  0  0  0  0  0  0  0  0
  143.9995   72.2029  221.4340 H   0  0  0  0  0  0  0  0  0  0  0  0
  145.2932   72.4769  220.1766 H   0  0  0  0  0  0  0  0  0  0  0  0
  143.4975   74.3742  221.5513 H   0  0  0  0  0  0  0  0  0  0  0  0
  145.2441   74.4956  220.9546 H   0  0  0  0  0  0  0  0  0  0  0  0
  143.9473   76.8491  220.6828 H   0  0  0  0  0  0  0  0  0  0  0  0
  143.2268   78.2546  218.7518 H   0  0  0  0  0  0  0  0  0  0  0  0
  142.6714   77.1719  216.5549 H   0  0  0  0  0  0  0  0  0  0  0  0
  142.8628   74.7042  216.3836 H   0  0  0  0  0  0  0  0  0  0  0  0
  142.8270   72.6481  217.4649 H   0  0  0  0  0  0  0  0  0  0  0  0
  144.5866   72.7118  217.7652 H   0  0  0  0  0  0  0  0  0  0  0  0
  140.8340   72.8746  225.0276 H   0  0  0  0  0  0  0  0  0  0  0  0
  139.6085   72.0056  226.0041 H   0  0  0  0  0  0  0  0  0  0  0  0
  142.2876   70.8024  225.0600 H   0  0  0  0  0  0  0  0  0  0  0  0
  142.0100   71.3988  226.6884 H   0  0  0  0  0  0  0  0  0  0  0  0
  142.1184   69.3920  227.7906 H   0  0  0  0  0  0  0  0  0  0  0  0
  141.0182   67.2386  228.4761 H   0  0  0  0  0  0  0  0  0  0  0  0
  139.1026   66.4408  227.1524 H   0  0  0  0  0  0  0  0  0  0  0  0
  138.2468   67.6850  225.1891 H   0  0  0  0  0  0  0  0  0  0  0  0
  139.3510   69.4265  223.2789 H   0  0  0  0  0  0  0  0  0  0  0  0
  138.1226   70.2288  224.3477 H   0  0  0  0  0  0  0  0  0  0  0  0
  138.7343   76.5150  222.3371 H   0  0  0  0  0  0  0  0  0  0  0  0
  139.8534   75.5659  223.3471 H   0  0  0  0  0  0  0  0  0  0  0  0
  140.6585   77.8930  223.3093 H   0  0  0  0  0  0  0  0  0  0  0  0
  141.7909   76.9443  222.3364 H   0  0  0  0  0  0  0  0  0  0  0  0
  1  2  1  0
  2  3  1  0
  2  4  1  0
  4  5  1  0
  5  6  1  0
  6  7  1  0
  7  8  1  0
  8  9  2  0
  9 10  1  0
 10 11  1  0
 11 12  1  0
 12 13  1  0
 13 14  1  0
 14 15  1  0
 15 16  1  0
 16 17  1  0
 17 18  2  0
 18 19  1  0
 19 20  2  0
 20 21  1  0
 21 22  2  0
 22 23  1  0
 10 24  2  0
 24 25  1  0
 25 26  1  0
 26 27  1  0
 27 28  1  0
 28 29  1  0
 29 30  2  0
 30 31  1  0
 31 32  2  0
 32 33  1  0
 33 34  2  0
 34 35  1  0
 25 36  2  0
  7 37  1  0
 37 38  1  0
 38  4  1  0
 36  8  1  0
 23 14  1  0
 35 26  1  0
 22 17  1  0
 34 29  1  0
  1 39  1  0
  1 40  1  0
  1 41  1  0
  3 42  1  0
  3 43  1  0
  3 44  1  0
  4 45  1  0
  5 46  1  0
  5 47  1  0
  6 48  1  0
  6 49  1  0
 11 50  1  0
 12 51  1  0
 12 52  1  0
 13 53  1  0
 13 54  1  0
 15 55  1  0
 15 56  1  0
 16 57  1  0
 16 58  1  0
 18 59  1  0
 19 60  1  0
 20 61  1  0
 21 62  1  0
 23 63  1  0
 23 64  1  0
 27 65  1  0
 27 66  1  0
 28 67  1  0
 28 68  1  0
 30 69  1  0
 31 70  1  0
 32 71  1  0
 33 72  1  0
 35 73  1  0
 35 74  1  0
 37 75  1  0
 37 76  1  0
 38 77  1  0
 38 78  1  0
M  END
>  <smiles>  (17) 
CN(C)C1CCN(c2nc(NCCN3CCc4ccccc4C3)nc(N3CCc4ccccc4C3)n2)CC1

>  <score_type>  (17) 
oracle

>  <origin>  (17) 
autodockgpu

>  <m_score__min__energy>  (17) 
-11.130000000000001

>  <m_primary>  (17) 
energy

>  <rmsd>  (17) 
8.570629538876268

>  <m_score__min__rmsd>  (17) 
8.570629538876268

>  <meeko>  (17) 
{"free_energy": -8.34, "intermolecular_energy": -10.43, "internal_energy": -2.76, "cluster_size": 4, "cluster_id": 6, "rank_in_cluster": 3}

>  <energy>  (17) 
-10.58

>  <cluster_rmsd>  (17) 
0.0

>  <cluster>  (17) 
2

$$$$

     RDKit          3D

 78 83  0  0  0  0  0  0  0  0999 V2000
  145.5650   71.8600  217.2070 C   0  0  0  0  0  0  0  0  0  0  0  0
  145.8240   71.2740  218.4820 N   0  0  0  0  0  0  0  0  0  0  0  0
  146.0390   69.8640  218.4480 C   0  0  0  0  0  0  0  0  0  0  0  0
  145.0240   71.7420  219.5650 C   0  0  0  0  0  0  0  0  0  0  0  0
  145.0390   73.2200  219.6710 C   0  0  0  0  0  0  0  0  0  0  0  0
  143.9670   73.8670  220.4560 C   0  0  0  0  0  0  0  0  0  0  0  0
  142.8470   73.0750  220.8300 N   0  0  0  0  0  0  0  0  0  0  0  0
  141.6210   73.7210  221.2000 C   0  0  0  0  0  0  0  0  0  0  0  0
  140.4280   73.0520  221.1790 N   0  0  0  0  0  0  0  0  0  0  0  0
  139.3010   73.6560  221.5560 C   0  0  0  0  0  0  0  0  0  0  0  0
  138.0090   73.1200  221.5870 N   0  0  0  0  0  0  0  0  0  0  0  0
  137.3770   72.2840  222.5780 C   0  0  0  0  0  0  0  0  0  0  0  0
  138.1880   71.0740  222.7710 C   0  0  0  0  0  0  0  0  0  0  0  0
  138.5740   70.6540  224.0920 N   0  0  0  0  0  0  0  0  0  0  0  0
  138.6540   69.2550  224.2600 C   0  0  0  0  0  0  0  0  0  0  0  0
  139.0780   68.8500  225.6370 C   0  0  0  0  0  0  0  0  0  0  0  0
  139.8980   69.8170  226.3770 C   0  0  0  0  0  0  0  0  0  0  0  0
  140.3180   69.5340  227.6450 C   0  0  0  0  0  0  0  0  0  0  0  0
  141.0900   70.4600  228.3590 C   0  0  0  0  0  0  0  0  0  0  0  0
  141.4350   71.6750  227.7800 C   0  0  0  0  0  0  0  0  0  0  0  0
  140.9870   71.9140  226.4950 C   0  0  0  0  0  0  0  0  0  0  0  0
  140.2220   71.0010  225.7830 C   0  0  0  0  0  0  0  0  0  0  0  0
  139.8320   71.3700  224.4210 C   0  0  0  0  0  0  0  0  0  0  0  0
  139.4010   74.9470  221.9570 N   0  0  0  0  0  0  0  0  0  0  0  0
  140.5430   75.6500  221.9970 C   0  0  0  0  0  0  0  0  0  0  0  0
  140.4430   76.9820  222.4640 N   0  0  0  0  0  0  0  0  0  0  0  0
  139.1880   77.6970  222.1740 C   0  0  0  0  0  0  0  0  0  0  0  0
  139.4890   78.8670  221.2360 C   0  0  0  0  0  0  0  0  0  0  0  0
  140.4260   79.7390  222.0370 C   0  0  0  0  0  0  0  0  0  0  0  0
  140.2960   81.0990  221.8030 C   0  0  0  0  0  0  0  0  0  0  0  0
  141.1020   81.9900  222.4940 C   0  0  0  0  0  0  0  0  0  0  0  0
  141.9950   81.4660  223.3830 C   0  0  0  0  0  0  0  0  0  0  0  0
  142.1260   80.0910  223.6190 C   0  0  0  0  0  0  0  0  0  0  0  0
  141.3240   79.2020  222.9310 C   0  0  0  0  0  0  0  0  0  0  0  0
  141.4440   77.7240  223.1710 C   0  0  0  0  0  0  0  0  0  0  0  0
  141.6560   75.0310  221.6150 N   0  0  0  0  0  0  0  0  0  0  0  0
  142.9560   71.6430  220.8240 C   0  0  0  0  0  0  0  0  0  0  0  0
  143.5940   71.2410  219.5000 C   0  0  0  0  0  0  0  0  0  0  0  0
  145.1238   72.8582  217.3450 H   0  0  0  0  0  0  0  0  0  0  0  0
  146.5072   71.9499  216.6465 H   0  0  0  0  0  0  0  0  0  0  0  0
  144.8643   71.2237  216.6465 H   0  0  0  0  0  0  0  0  0  0  0  0
  146.0980   69.4772  219.4761 H   0  0  0  0  0  0  0  0  0  0  0  0
  145.2045   69.3785  217.9209 H   0  0  0  0  0  0  0  0  0  0  0  0
  146.9803   69.6492  217.9209 H   0  0  0  0  0  0  0  0  0  0  0  0
  145.4846   71.3221  220.4714 H   0  0  0  0  0  0  0  0  0  0  0  0
  145.9979   73.5061  220.1277 H   0  0  0  0  0  0  0  0  0  0  0  0
  144.8786   73.5725  218.6414 H   0  0  0  0  0  0  0  0  0  0  0  0
  144.4229   74.2479  221.3818 H   0  0  0  0  0  0  0  0  0  0  0  0
  143.5526   74.6303  219.7810 H   0  0  0  0  0  0  0  0  0  0  0  0
  137.3920   73.3680  220.7470 H   0  0  0  0  0  0  0  0  0  0  0  0
  137.3007   72.8323  223.5286 H   0  0  0  0  0  0  0  0  0  0  0  0
  136.3681   72.0050  222.2400 H   0  0  0  0  0  0  0  0  0  0  0  0
  137.6210   70.2414  222.3292 H   0  0  0  0  0  0  0  0  0  0  0  0
  139.1484   71.3448  222.3082 H   0  0  0  0  0  0  0  0  0  0  0  0
  137.6636   68.8213  224.0574 H   0  0  0  0  0  0  0  0  0  0  0  0
  139.4180   68.8849  223.5605 H   0  0  0  0  0  0  0  0  0  0  0  0
  138.1681   68.6624  226.2260 H   0  0  0  0  0  0  0  0  0  0  0  0
  139.7199   67.9676  225.4980 H   0  0  0  0  0  0  0  0  0  0  0  0
  140.0487   68.5735  228.1087 H   0  0  0  0  0  0  0  0  0  0  0  0
  141.4237   70.2245  229.3803 H   0  0  0  0  0  0  0  0  0  0  0  0
  142.0401   72.4164  228.3225 H   0  0  0  0  0  0  0  0  0  0  0  0
  141.2480   72.8691  226.0157 H   0  0  0  0  0  0  0  0  0  0  0  0
  139.6695   72.4563  224.3610 H   0  0  0  0  0  0  0  0  0  0  0  0
  140.6246   71.0947  223.7097 H   0  0  0  0  0  0  0  0  0  0  0  0
  138.4755   77.0114  221.6921 H   0  0  0  0  0  0  0  0  0  0  0  0
  138.7490   78.0733  223.1098 H   0  0  0  0  0  0  0  0  0  0  0  0
  139.9738   78.5150  220.3135 H   0  0  0  0  0  0  0  0  0  0  0  0
  138.5815   79.3998  220.9157 H   0  0  0  0  0  0  0  0  0  0  0  0
  139.5590   81.4682  221.0746 H   0  0  0  0  0  0  0  0  0  0  0  0
  141.0250   83.0753  222.3324 H   0  0  0  0  0  0  0  0  0  0  0  0
  142.6437   82.1568  223.9416 H   0  0  0  0  0  0  0  0  0  0  0  0
  142.8629   79.7222  224.3476 H   0  0  0  0  0  0  0  0  0  0  0  0
  142.4368   77.3893  222.8359 H   0  0  0  0  0  0  0  0  0  0  0  0
  141.3047   77.5423  224.2469 H   0  0  0  0  0  0  0  0  0  0  0  0
  143.5865   71.3103  221.6617 H   0  0  0  0  0  0  0  0  0  0  0  0
  141.9657   71.1773  220.9356 H   0  0  0  0  0  0  0  0  0  0  0  0
  143.5756   70.1475  219.3817 H   0  0  0  0  0  0  0  0  0  0  0  0
  143.0529   71.6674  218.6424 H   0  0  0  0  0  0  0  0  0  0  0  0
  1  2  1  0
  2  3  1  0
  2  4  1  0
  4  5  1  0
  5  6  1  0
  6  7  1  0
  7  8  1  0
  8  9  2  0
  9 10  1  0
 10 11  1  0
 11 12  1  0
 12 13  1  0
 13 14  1  0
 14 15  1  0
 15 16  1  0
 16 17  1  0
 17 18  2  0
 18 19  1  0
 19 20  2  0
 20 21  1  0
 21 22  2  0
 22 23  1  0
 10 24  2  0
 24 25  1  0
 25 26  1  0
 26 27  1  0
 27 28  1  0
 28 29  1  0
 29 30  2  0
 30 31  1  0
 31 32  2  0
 32 33  1  0
 33 34  2  0
 34 35  1  0
 25 36  2  0
  7 37  1  0
 37 38  1  0
 38  4  1  0
 36  8  1  0
 23 14  1  0
 35 26  1  0
 22 17  1  0
 34 29  1  0
  1 39  1  0
  1 40  1  0
  1 41  1  0
  3 42  1  0
  3 43  1  0
  3 44  1  0
  4 45  1  0
  5 46  1  0
  5 47  1  0
  6 48  1  0
  6 49  1  0
 11 50  1  0
 12 51  1  0
 12 52  1  0
 13 53  1  0
 13 54  1  0
 15 55  1  0
 15 56  1  0
 16 57  1  0
 16 58  1  0
 18 59  1  0
 19 60  1  0
 20 61  1  0
 21 62  1  0
 23 63  1  0
 23 64  1  0
 27 65  1  0
 27 66  1  0
 28 67  1  0
 28 68  1  0
 30 69  1  0
 31 70  1  0
 32 71  1  0
 33 72  1  0
 35 73  1  0
 35 74  1  0
 37 75  1  0
 37 76  1  0
 38 77  1  0
 38 78  1  0
M  END
>  <smiles>  (18) 
CN(C)C1CCN(c2nc(NCCN3CCc4ccccc4C3)nc(N3CCc4ccccc4C3)n2)CC1

>  <score_type>  (18) 
oracle

>  <origin>  (18) 
autodockgpu

>  <m_score__min__energy>  (18) 
-11.130000000000001

>  <m_primary>  (18) 
energy

>  <rmsd>  (18) 
3.923521040517851

>  <m_score__min__rmsd>  (18) 
3.923521040517851

>  <meeko>  (18) 
{"free_energy": -10.19, "intermolecular_energy": -12.28, "internal_energy": -1.41, "cluster_size": 16, "cluster_id": 1, "rank_in_cluster": 15}

>  <energy>  (18) 
-10.56

>  <cluster_rmsd>  (18) 
0.04

>  <cluster>  (18) 
2

$$$$

     RDKit          3D

 78 83  0  0  0  0  0  0  0  0999 V2000
  142.3820   79.8490  223.6570 C   0  0  0  0  0  0  0  0  0  0  0  0
  142.1930   79.6770  222.2540 N   0  0  0  0  0  0  0  0  0  0  0  0
  142.1600   80.8950  221.5120 C   0  0  0  0  0  0  0  0  0  0  0  0
  141.2320   78.6990  221.8640 C   0  0  0  0  0  0  0  0  0  0  0  0
  141.6180   78.0060  220.6130 C   0  0  0  0  0  0  0  0  0  0  0  0
  140.9610   76.7180  220.3050 C   0  0  0  0  0  0  0  0  0  0  0  0
  140.2100   76.0920  221.3380 N   0  0  0  0  0  0  0  0  0  0  0  0
  139.9220   74.6900  221.2460 C   0  0  0  0  0  0  0  0  0  0  0  0
  139.4100   74.1410  220.1030 N   0  0  0  0  0  0  0  0  0  0  0  0
  139.1750   72.8310  220.0200 C   0  0  0  0  0  0  0  0  0  0  0  0
  138.6530   72.1190  218.9350 N   0  0  0  0  0  0  0  0  0  0  0  0
  139.3310   71.4910  217.8280 C   0  0  0  0  0  0  0  0  0  0  0  0
  140.3640   70.5850  218.3510 C   0  0  0  0  0  0  0  0  0  0  0  0
  141.4430   71.0910  219.1550 N   0  0  0  0  0  0  0  0  0  0  0  0
  142.4950   70.1740  219.3650 C   0  0  0  0  0  0  0  0  0  0  0  0
  143.6120   70.7370  220.1860 C   0  0  0  0  0  0  0  0  0  0  0  0
  143.7860   72.1930  220.1400 C   0  0  0  0  0  0  0  0  0  0  0  0
  144.7730   72.7920  220.8700 C   0  0  0  0  0  0  0  0  0  0  0  0
  144.9340   74.1820  220.8370 C   0  0  0  0  0  0  0  0  0  0  0  0
  144.0890   74.9650  220.0590 C   0  0  0  0  0  0  0  0  0  0  0  0
  143.1070   74.3130  219.3390 C   0  0  0  0  0  0  0  0  0  0  0  0
  142.9430   72.9360  219.3670 C   0  0  0  0  0  0  0  0  0  0  0  0
  141.8760   72.3700  218.5380 C   0  0  0  0  0  0  0  0  0  0  0  0
  139.4700   72.0850  221.1140 N   0  0  0  0  0  0  0  0  0  0  0  0
  139.9710   72.5710  222.2590 C   0  0  0  0  0  0  0  0  0  0  0  0
  140.2280   71.6260  223.2810 N   0  0  0  0  0  0  0  0  0  0  0  0
  139.9150   70.2190  222.9810 C   0  0  0  0  0  0  0  0  0  0  0  0
  138.7870   69.7550  223.9040 C   0  0  0  0  0  0  0  0  0  0  0  0
  139.3750   69.8860  225.2880 C   0  0  0  0  0  0  0  0  0  0  0  0
  138.9400   68.9350  226.1960 C   0  0  0  0  0  0  0  0  0  0  0  0
  139.4260   68.9580  227.4950 C   0  0  0  0  0  0  0  0  0  0  0  0
  140.3240   69.9370  227.8080 C   0  0  0  0  0  0  0  0  0  0  0  0
  140.7640   70.8980  226.8890 C   0  0  0  0  0  0  0  0  0  0  0  0
  140.2800   70.8760  225.5950 C   0  0  0  0  0  0  0  0  0  0  0  0
  140.7410   71.8940  224.5920 C   0  0  0  0  0  0  0  0  0  0  0  0
  140.1960   73.8800  222.3220 N   0  0  0  0  0  0  0  0  0  0  0  0
  139.7610   76.8680  222.4600 C   0  0  0  0  0  0  0  0  0  0  0  0
  140.9480   77.6840  222.9540 C   0  0  0  0  0  0  0  0  0  0  0  0
  141.6760   79.2065  224.2036 H   0  0  0  0  0  0  0  0  0  0  0  0
  143.4124   79.5723  223.9248 H   0  0  0  0  0  0  0  0  0  0  0  0
  142.2034   80.9008  223.9248 H   0  0  0  0  0  0  0  0  0  0  0  0
  142.1369   81.7473  222.2071 H   0  0  0  0  0  0  0  0  0  0  0  0
  143.0566   80.9628  220.8784 H   0  0  0  0  0  0  0  0  0  0  0  0
  141.2610   80.9141  220.8784 H   0  0  0  0  0  0  0  0  0  0  0  0
  140.3035   79.2595  221.6802 H   0  0  0  0  0  0  0  0  0  0  0  0
  141.4033   78.6909  219.7794 H   0  0  0  0  0  0  0  0  0  0  0  0
  142.6777   77.7479  220.7562 H   0  0  0  0  0  0  0  0  0  0  0  0
  140.2766   76.8924  219.4616 H   0  0  0  0  0  0  0  0  0  0  0  0
  141.7914   76.0242  220.1074 H   0  0  0  0  0  0  0  0  0  0  0  0
  137.5860   72.0240  218.9230 H   0  0  0  0  0  0  0  0  0  0  0  0
  138.6073   70.9186  217.2291 H   0  0  0  0  0  0  0  0  0  0  0  0
  139.7971   72.2593  217.1936 H   0  0  0  0  0  0  0  0  0  0  0  0
  139.8429   69.8328  218.9614 H   0  0  0  0  0  0  0  0  0  0  0  0
  140.8759   70.2432  217.4393 H   0  0  0  0  0  0  0  0  0  0  0  0
  142.0913   69.2912  219.8824 H   0  0  0  0  0  0  0  0  0  0  0  0
  142.9099   69.9206  218.3783 H   0  0  0  0  0  0  0  0  0  0  0  0
  143.4325   70.4544  221.2338 H   0  0  0  0  0  0  0  0  0  0  0  0
  144.5325   70.3190  219.7526 H   0  0  0  0  0  0  0  0  0  0  0  0
  145.4453   72.1783  221.4875 H   0  0  0  0  0  0  0  0  0  0  0  0
  145.7313   74.6560  221.4283 H   0  0  0  0  0  0  0  0  0  0  0  0
  144.1979   76.0588  220.0184 H   0  0  0  0  0  0  0  0  0  0  0  0
  142.4256   74.9116  218.7166 H   0  0  0  0  0  0  0  0  0  0  0  0
  141.0276   73.0688  218.4937 H   0  0  0  0  0  0  0  0  0  0  0  0
  142.2398   72.1959  217.5146 H   0  0  0  0  0  0  0  0  0  0  0  0
  139.5955   70.1272  221.9324 H   0  0  0  0  0  0  0  0  0  0  0  0
  140.8075   69.5962  223.1409 H   0  0  0  0  0  0  0  0  0  0  0  0
  137.9008   70.3971  223.7927 H   0  0  0  0  0  0  0  0  0  0  0  0
  138.4494   68.7321  223.6811 H   0  0  0  0  0  0  0  0  0  0  0  0
  138.2145   68.1671  225.8893 H   0  0  0  0  0  0  0  0  0  0  0  0
  139.1013   68.2183  228.2415 H   0  0  0  0  0  0  0  0  0  0  0  0
  140.7219   69.9731  228.8329 H   0  0  0  0  0  0  0  0  0  0  0  0
  141.4902   71.6653  227.1954 H   0  0  0  0  0  0  0  0  0  0  0  0
  140.3969   72.8887  224.9116 H   0  0  0  0  0  0  0  0  0  0  0  0
  141.8390   71.8498  224.5429 H   0  0  0  0  0  0  0  0  0  0  0  0
  138.9460   77.5391  222.1509 H   0  0  0  0  0  0  0  0  0  0  0  0
  139.3811   76.2130  223.2579 H   0  0  0  0  0  0  0  0  0  0  0  0
  140.6974   78.1934  223.8962 H   0  0  0  0  0  0  0  0  0  0  0  0
  141.8228   77.0475  223.1532 H   0  0  0  0  0  0  0  0  0  0  0  0
  1  2  1  0
  2  3  1  0
  2  4  1  0
  4  5  1  0
  5  6  1  0
  6  7  1  0
  7  8  1  0
  8  9  2  0
  9 10  1  0
 10 11  1  0
 11 12  1  0
 12 13  1  0
 13 14  1  0
 14 15  1  0
 15 16  1  0
 16 17  1  0
 17 18  2  0
 18 19  1  0
 19 20  2  0
 20 21  1  0
 21 22  2  0
 22 23  1  0
 10 24  2  0
 24 25  1  0
 25 26  1  0
 26 27  1  0
 27 28  1  0
 28 29  1  0
 29 30  2  0
 30 31  1  0
 31 32  2  0
 32 33  1  0
 33 34  2  0
 34 35  1  0
 25 36  2  0
  7 37  1  0
 37 38  1  0
 38  4  1  0
 36  8  1  0
 23 14  1  0
 35 26  1  0
 22 17  1  0
 34 29  1  0
  1 39  1  0
  1 40  1  0
  1 41  1  0
  3 42  1  0
  3 43  1  0
  3 44  1  0
  4 45  1  0
  5 46  1  0
  5 47  1  0
  6 48  1  0
  6 49  1  0
 11 50  1  0
 12 51  1  0
 12 52  1  0
 13 53  1  0
 13 54  1  0
 15 55  1  0
 15 56  1  0
 16 57  1  0
 16 58  1  0
 18 59  1  0
 19 60  1  0
 20 61  1  0
 21 62  1  0
 23 63  1  0
 23 64  1  0
 27 65  1  0
 27 66  1  0
 28 67  1  0
 28 68  1  0
 30 69  1  0
 31 70  1  0
 32 71  1  0
 33 72  1  0
 35 73  1  0
 35 74  1  0
 37 75  1  0
 37 76  1  0
 38 77  1  0
 38 78  1  0
M  END
>  <smiles>  (19) 
CN(C)C1CCN(c2nc(NCCN3CCc4ccccc4C3)nc(N3CCc4ccccc4C3)n2)CC1

>  <score_type>  (19) 
oracle

>  <origin>  (19) 
autodockgpu

>  <m_score__min__energy>  (19) 
-11.130000000000001

>  <m_primary>  (19) 
energy

>  <rmsd>  (19) 
7.150707988650846

>  <m_score__min__rmsd>  (19) 
7.150707988650846

>  <meeko>  (19) 
{"free_energy": -8.29, "intermolecular_energy": -10.38, "internal_energy": -2.71, "cluster_size": 13, "cluster_id": 2, "rank_in_cluster": 13}

>  <energy>  (19) 
-10.45

>  <cluster_rmsd>  (19) 
0.79

>  <cluster>  (19) 
2

$$$$

     RDKit          3D

 78 83  0  0  0  0  0  0  0  0999 V2000
  144.8590   68.4860  219.6880 C   0  0  0  0  0  0  0  0  0  0  0  0
  145.3400   69.6700  219.0540 N   0  0  0  0  0  0  0  0  0  0  0  0
  146.7100   69.9650  219.3230 C   0  0  0  0  0  0  0  0  0  0  0  0
  144.4610   70.7920  219.0650 C   0  0  0  0  0  0  0  0  0  0  0  0
  143.0610   70.4070  218.7740 C   0  0  0  0  0  0  0  0  0  0  0  0
  141.9920   71.3570  219.1440 C   0  0  0  0  0  0  0  0  0  0  0  0
  142.3360   72.4480  219.9900 N   0  0  0  0  0  0  0  0  0  0  0  0
  141.3020   73.1320  220.7100 C   0  0  0  0  0  0  0  0  0  0  0  0
  140.2200   72.4630  221.2120 N   0  0  0  0  0  0  0  0  0  0  0  0
  139.2820   73.1070  221.9080 C   0  0  0  0  0  0  0  0  0  0  0  0
  138.1210   72.5750  222.4800 N   0  0  0  0  0  0  0  0  0  0  0  0
  137.4370   71.3360  222.2040 C   0  0  0  0  0  0  0  0  0  0  0  0
  138.2360   70.2200  222.7300 C   0  0  0  0  0  0  0  0  0  0  0  0
  138.5890   70.1660  224.1230 N   0  0  0  0  0  0  0  0  0  0  0  0
  138.5790   68.8680  224.6780 C   0  0  0  0  0  0  0  0  0  0  0  0
  138.9720   68.8410  226.1220 C   0  0  0  0  0  0  0  0  0  0  0  0
  139.8490   69.9260  226.5790 C   0  0  0  0  0  0  0  0  0  0  0  0
  140.2450   69.9850  227.8850 C   0  0  0  0  0  0  0  0  0  0  0  0
  141.0700   71.0260  228.3280 C   0  0  0  0  0  0  0  0  0  0  0  0
  141.4950   72.0070  227.4400 C   0  0  0  0  0  0  0  0  0  0  0  0
  141.0670   71.9020  226.1290 C   0  0  0  0  0  0  0  0  0  0  0  0
  140.2500   70.8740  225.6850 C   0  0  0  0  0  0  0  0  0  0  0  0
  139.8880   70.8690  224.2660 C   0  0  0  0  0  0  0  0  0  0  0  0
  139.4580   74.4390  222.0890 N   0  0  0  0  0  0  0  0  0  0  0  0
  140.4970   75.1440  221.6180 C   0  0  0  0  0  0  0  0  0  0  0  0
  140.5100   76.5250  221.9290 N   0  0  0  0  0  0  0  0  0  0  0  0
  139.9050   77.4350  220.9410 C   0  0  0  0  0  0  0  0  0  0  0  0
  140.9960   78.3440  220.3720 C   0  0  0  0  0  0  0  0  0  0  0  0
  141.4890   79.1130  221.5740 C   0  0  0  0  0  0  0  0  0  0  0  0
  141.8910   80.4120  221.3070 C   0  0  0  0  0  0  0  0  0  0  0  0
  142.3520   81.2100  222.3430 C   0  0  0  0  0  0  0  0  0  0  0  0
  142.3820   80.6590  223.5900 C   0  0  0  0  0  0  0  0  0  0  0  0
  141.9750   79.3460  223.8600 C   0  0  0  0  0  0  0  0  0  0  0  0
  141.5160   78.5500  222.8290 C   0  0  0  0  0  0  0  0  0  0  0  0
  141.0700   77.1400  223.0950 C   0  0  0  0  0  0  0  0  0  0  0  0
  141.4210   74.4850  220.9260 N   0  0  0  0  0  0  0  0  0  0  0  0
  143.7110   72.8420  220.1160 C   0  0  0  0  0  0  0  0  0  0  0  0
  144.5260   71.5790  220.3590 C   0  0  0  0  0  0  0  0  0  0  0  0
  144.9088   68.6087  220.7800 H   0  0  0  0  0  0  0  0  0  0  0  0
  143.8165   68.3062  219.3864 H   0  0  0  0  0  0  0  0  0  0  0  0
  145.4807   67.6301  219.3864 H   0  0  0  0  0  0  0  0  0  0  0  0
  146.8709   69.9996  220.4106 H   0  0  0  0  0  0  0  0  0  0  0  0
  147.3467   69.1834  218.8829 H   0  0  0  0  0  0  0  0  0  0  0  0
  146.9685   70.9394  218.8829 H   0  0  0  0  0  0  0  0  0  0  0  0
  144.8165   71.4487  218.2573 H   0  0  0  0  0  0  0  0  0  0  0  0
  142.9868   70.2362  217.6899 H   0  0  0  0  0  0  0  0  0  0  0  0
  142.8794   69.5266  219.4080 H   0  0  0  0  0  0  0  0  0  0  0  0
  141.5914   71.7795  218.2107 H   0  0  0  0  0  0  0  0  0  0  0  0
  141.2844   70.7594  219.7375 H   0  0  0  0  0  0  0  0  0  0  0  0
  137.6700   73.1790  223.2410 H   0  0  0  0  0  0  0  0  0  0  0  0
  136.4500   71.3437  222.6895 H   0  0  0  0  0  0  0  0  0  0  0  0
  137.3048   71.2187  221.1183 H   0  0  0  0  0  0  0  0  0  0  0  0
  137.6738   69.3000  222.5118 H   0  0  0  0  0  0  0  0  0  0  0  0
  139.2083   70.3577  222.2344 H   0  0  0  0  0  0  0  0  0  0  0  0
  137.5636   68.4555  224.5843 H   0  0  0  0  0  0  0  0  0  0  0  0
  139.3201   68.2709  224.1263 H   0  0  0  0  0  0  0  0  0  0  0  0
  138.0501   68.8808  226.7208 H   0  0  0  0  0  0  0  0  0  0  0  0
  139.5573   67.9183  226.2489 H   0  0  0  0  0  0  0  0  0  0  0  0
  139.9140   69.2105  228.5925 H   0  0  0  0  0  0  0  0  0  0  0  0
  141.3826   71.0675  229.3818 H   0  0  0  0  0  0  0  0  0  0  0  0
  142.1447   72.8325  227.7662 H   0  0  0  0  0  0  0  0  0  0  0  0
  141.3889   72.6674  225.4075 H   0  0  0  0  0  0  0  0  0  0  0  0
  139.7944   71.9027  223.9016 H   0  0  0  0  0  0  0  0  0  0  0  0
  140.6641   70.3583  223.6770 H   0  0  0  0  0  0  0  0  0  0  0  0
  139.4515   76.8488  220.1281 H   0  0  0  0  0  0  0  0  0  0  0  0
  139.1260   78.0441  221.4229 H   0  0  0  0  0  0  0  0  0  0  0  0
  141.8080   77.7501  219.9270 H   0  0  0  0  0  0  0  0  0  0  0  0
  140.6268   79.0001  219.5700 H   0  0  0  0  0  0  0  0  0  0  0  0
  141.8448   80.8069  220.2814 H   0  0  0  0  0  0  0  0  0  0  0  0
  142.6800   82.2450  222.1662 H   0  0  0  0  0  0  0  0  0  0  0  0
  142.7438   81.2763  224.4255 H   0  0  0  0  0  0  0  0  0  0  0  0
  142.0207   78.9518  224.8859 H   0  0  0  0  0  0  0  0  0  0  0  0
  141.9372   76.5497  223.4260 H   0  0  0  0  0  0  0  0  0  0  0  0
  140.2903   77.1710  223.8703 H   0  0  0  0  0  0  0  0  0  0  0  0
  144.0472   73.3344  219.1916 H   0  0  0  0  0  0  0  0  0  0  0  0
  143.8372   73.5516  220.9470 H   0  0  0  0  0  0  0  0  0  0  0  0
  145.5682   71.8357  220.5996 H   0  0  0  0  0  0  0  0  0  0  0  0
  144.1320   70.9990  221.2066 H   0  0  0  0  0  0  0  0  0  0  0  0
  1  2  1  0
  2  3  1  0
  2  4  1  0
  4  5  1  0
  5  6  1  0
  6  7  1  0
  7  8  1  0
  8  9  2  0
  9 10  1  0
 10 11  1  0
 11 12  1  0
 12 13  1  0
 13 14  1  0
 14 15  1  0
 15 16  1  0
 16 17  1  0
 17 18  2  0
 18 19  1  0
 19 20  2  0
 20 21  1  0
 21 22  2  0
 22 23  1  0
 10 24  2  0
 24 25  1  0
 25 26  1  0
 26 27  1  0
 27 28  1  0
 28 29  1  0
 29 30  2  0
 30 31  1  0
 31 32  2  0
 32 33  1  0
 33 34  2  0
 34 35  1  0
 25 36  2  0
  7 37  1  0
 37 38  1  0
 38  4  1  0
 36  8  1  0
 23 14  1  0
 35 26  1  0
 22 17  1  0
 34 29  1  0
  1 39  1  0
  1 40  1  0
  1 41  1  0
  3 42  1  0
  3 43  1  0
  3 44  1  0
  4 45  1  0
  5 46  1  0
  5 47  1  0
  6 48  1  0
  6 49  1  0
 11 50  1  0
 12 51  1  0
 12 52  1  0
 13 53  1  0
 13 54  1  0
 15 55  1  0
 15 56  1  0
 16 57  1  0
 16 58  1  0
 18 59  1  0
 19 60  1  0
 20 61  1  0
 21 62  1  0
 23 63  1  0
 23 64  1  0
 27 65  1  0
 27 66  1  0
 28 67  1  0
 28 68  1  0
 30 69  1  0
 31 70  1  0
 32 71  1  0
 33 72  1  0
 35 73  1  0
 35 74  1  0
 37 75  1  0
 37 76  1  0
 38 77  1  0
 38 78  1  0
M  END
>  <smiles>  (20) 
CN(C)C1CCN(c2nc(NCCN3CCc4ccccc4C3)nc(N3CCc4ccccc4C3)n2)CC1

>  <score_type>  (20) 
oracle

>  <origin>  (20) 
autodockgpu

>  <m_score__min__energy>  (20) 
-11.130000000000001

>  <m_primary>  (20) 
energy

>  <rmsd>  (20) 
4.123396804694205

>  <m_score__min__rmsd>  (20) 
4.123396804694205

>  <meeko>  (20) 
{"free_energy": -10.02, "intermolecular_energy": -12.11, "internal_energy": -1.46, "cluster_size": 16, "cluster_id": 1, "rank_in_cluster": 16}

>  <energy>  (20) 
-10.41

>  <cluster_rmsd>  (20) 
0.8

>  <cluster>  (20) 
2

$$$$

     RDKit          3D

 78 83  0  0  0  0  0  0  0  0999 V2000
  145.6020   71.8590  216.6460 C   0  0  0  0  0  0  0  0  0  0  0  0
  145.9570   71.1960  217.8580 N   0  0  0  0  0  0  0  0  0  0  0  0
  146.1240   69.7850  217.7290 C   0  0  0  0  0  0  0  0  0  0  0  0
  145.2730   71.6240  219.0340 C   0  0  0  0  0  0  0  0  0  0  0  0
  145.2400   73.1000  219.1530 C   0  0  0  0  0  0  0  0  0  0  0  0
  144.2440   73.6970  220.0670 C   0  0  0  0  0  0  0  0  0  0  0  0
  143.2100   72.8560  220.5640 N   0  0  0  0  0  0  0  0  0  0  0  0
  142.0120   73.4470  221.0850 C   0  0  0  0  0  0  0  0  0  0  0  0
  140.9520   72.6790  221.4810 N   0  0  0  0  0  0  0  0  0  0  0  0
  139.8560   73.2400  221.9930 C   0  0  0  0  0  0  0  0  0  0  0  0
  138.6920   72.6020  222.4370 N   0  0  0  0  0  0  0  0  0  0  0  0
  138.2160   71.2650  222.1830 C   0  0  0  0  0  0  0  0  0  0  0  0
  137.4530   70.7990  223.3510 C   0  0  0  0  0  0  0  0  0  0  0  0
  138.1220   70.1860  224.4660 N   0  0  0  0  0  0  0  0  0  0  0  0
  138.5700   68.8700  224.2270 C   0  0  0  0  0  0  0  0  0  0  0  0
  139.2820   68.2670  225.3970 C   0  0  0  0  0  0  0  0  0  0  0  0
  139.9360   69.2060  226.3160 C   0  0  0  0  0  0  0  0  0  0  0  0
  140.5970   68.7420  227.4180 C   0  0  0  0  0  0  0  0  0  0  0  0
  141.2120   69.6350  228.3030 C   0  0  0  0  0  0  0  0  0  0  0  0
  141.1550   71.0030  228.0660 C   0  0  0  0  0  0  0  0  0  0  0  0
  140.4760   71.4230  226.9380 C   0  0  0  0  0  0  0  0  0  0  0  0
  139.8650   70.5430  226.0580 C   0  0  0  0  0  0  0  0  0  0  0  0
  139.1970   71.1180  224.8880 C   0  0  0  0  0  0  0  0  0  0  0  0
  139.8520   74.5920  222.0990 N   0  0  0  0  0  0  0  0  0  0  0  0
  140.8610   75.3920  221.7260 C   0  0  0  0  0  0  0  0  0  0  0  0
  140.6710   76.7790  221.9350 N   0  0  0  0  0  0  0  0  0  0  0  0
  140.0140   77.5320  220.8530 C   0  0  0  0  0  0  0  0  0  0  0  0
  141.0090   78.5410  220.2770 C   0  0  0  0  0  0  0  0  0  0  0  0
  141.3190   79.4480  221.4440 C   0  0  0  0  0  0  0  0  0  0  0  0
  141.5620   80.7690  221.1040 C   0  0  0  0  0  0  0  0  0  0  0  0
  141.8480   81.6890  222.1020 C   0  0  0  0  0  0  0  0  0  0  0  0
  141.8730   81.2290  223.3870 C   0  0  0  0  0  0  0  0  0  0  0  0
  141.6270   79.8940  223.7290 C   0  0  0  0  0  0  0  0  0  0  0  0
  141.3430   78.9770  222.7370 C   0  0  0  0  0  0  0  0  0  0  0  0
  141.0720   77.5400  223.0810 C   0  0  0  0  0  0  0  0  0  0  0  0
  141.9440   74.8140  221.2170 N   0  0  0  0  0  0  0  0  0  0  0  0
  143.3770   71.4300  220.5300 C   0  0  0  0  0  0  0  0  0  0  0  0
  143.8690   71.0630  219.1350 C   0  0  0  0  0  0  0  0  0  0  0  0
  145.0948   72.8063  216.8812 H   0  0  0  0  0  0  0  0  0  0  0  0
  146.5105   72.0650  216.0610 H   0  0  0  0  0  0  0  0  0  0  0  0
  144.9269   71.2170  216.0610 H   0  0  0  0  0  0  0  0  0  0  0  0
  146.1779   69.3293  218.7287 H   0  0  0  0  0  0  0  0  0  0  0  0
  145.2695   69.3634  217.1794 H   0  0  0  0  0  0  0  0  0  0  0  0
  147.0533   69.5745  217.1794 H   0  0  0  0  0  0  0  0  0  0  0  0
  145.8553   71.2192  219.8749 H   0  0  0  0  0  0  0  0  0  0  0  0
  146.2341   73.4236  219.4951 H   0  0  0  0  0  0  0  0  0  0  0  0
  144.9434   73.4512  218.1537 H   0  0  0  0  0  0  0  0  0  0  0  0
  144.7914   74.0918  220.9356 H   0  0  0  0  0  0  0  0  0  0  0  0
  143.7206   74.4459  219.4544 H   0  0  0  0  0  0  0  0  0  0  0  0
  138.0570   73.1960  223.0630 H   0  0  0  0  0  0  0  0  0  0  0  0
  137.5667   71.2670  221.2951 H   0  0  0  0  0  0  0  0  0  0  0  0
  139.0692   70.5941  222.0044 H   0  0  0  0  0  0  0  0  0  0  0  0
  136.9189   71.6750  223.7476 H   0  0  0  0  0  0  0  0  0  0  0  0
  136.8537   69.9734  222.9397 H   0  0  0  0  0  0  0  0  0  0  0  0
  137.6990   68.2426  223.9868 H   0  0  0  0  0  0  0  0  0  0  0  0
  139.2888   68.9158  223.3956 H   0  0  0  0  0  0  0  0  0  0  0  0
  138.5459   67.6897  225.9758 H   0  0  0  0  0  0  0  0  0  0  0  0
  140.0953   67.6646  224.9661 H   0  0  0  0  0  0  0  0  0  0  0  0
  140.6461   67.6601  227.6108 H   0  0  0  0  0  0  0  0  0  0  0  0
  141.7417   69.2530  229.1882 H   0  0  0  0  0  0  0  0  0  0  0  0
  141.6310   71.7224  228.7485 H   0  0  0  0  0  0  0  0  0  0  0  0
  140.4178   72.5015  226.7295 H   0  0  0  0  0  0  0  0  0  0  0  0
  138.7627   72.0943  225.1491 H   0  0  0  0  0  0  0  0  0  0  0  0
  139.9184   71.2627  224.0703 H   0  0  0  0  0  0  0  0  0  0  0  0
  139.6925   76.8379  220.0625 H   0  0  0  0  0  0  0  0  0  0  0  0
  139.1336   78.0603  221.2477 H   0  0  0  0  0  0  0  0  0  0  0  0
  141.9187   78.0350  219.9215 H   0  0  0  0  0  0  0  0  0  0  0  0
  140.6081   79.0859  219.4096 H   0  0  0  0  0  0  0  0  0  0  0  0
  141.5284   81.0857  220.0511 H   0  0  0  0  0  0  0  0  0  0  0  0
  142.0464   82.7453  221.8677 H   0  0  0  0  0  0  0  0  0  0  0  0
  142.0975   81.9425  224.1935 H   0  0  0  0  0  0  0  0  0  0  0  0
  141.6598   79.5776  224.7820 H   0  0  0  0  0  0  0  0  0  0  0  0
  141.9877   77.0963  223.4990 H   0  0  0  0  0  0  0  0  0  0  0  0
  140.2485   77.5151  223.8099 H   0  0  0  0  0  0  0  0  0  0  0  0
  144.1161   71.1197  221.2833 H   0  0  0  0  0  0  0  0  0  0  0  0
  142.4274   70.9218  220.7536 H   0  0  0  0  0  0  0  0  0  0  0  0
  143.8826   69.9704  219.0083 H   0  0  0  0  0  0  0  0  0  0  0  0
  143.2119   71.4707  218.3527 H   0  0  0  0  0  0  0  0  0  0  0  0
  1  2  1  0
  2  3  1  0
  2  4  1  0
  4  5  1  0
  5  6  1  0
  6  7  1  0
  7  8  1  0
  8  9  2  0
  9 10  1  0
 10 11  1  0
 11 12  1  0
 12 13  1  0
 13 14  1  0
 14 15  1  0
 15 16  1  0
 16 17  1  0
 17 18  2  0
 18 19  1  0
 19 20  2  0
 20 21  1  0
 21 22  2  0
 22 23  1  0
 10 24  2  0
 24 25  1  0
 25 26  1  0
 26 27  1  0
 27 28  1  0
 28 29  1  0
 29 30  2  0
 30 31  1  0
 31 32  2  0
 32 33  1  0
 33 34  2  0
 34 35  1  0
 25 36  2  0
  7 37  1  0
 37 38  1  0
 38  4  1  0
 36  8  1  0
 23 14  1  0
 35 26  1  0
 22 17  1  0
 34 29  1  0
  1 39  1  0
  1 40  1  0
  1 41  1  0
  3 42  1  0
  3 43  1  0
  3 44  1  0
  4 45  1  0
  5 46  1  0
  5 47  1  0
  6 48  1  0
  6 49  1  0
 11 50  1  0
 12 51  1  0
 12 52  1  0
 13 53  1  0
 13 54  1  0
 15 55  1  0
 15 56  1  0
 16 57  1  0
 16 58  1  0
 18 59  1  0
 19 60  1  0
 20 61  1  0
 21 62  1  0
 23 63  1  0
 23 64  1  0
 27 65  1  0
 27 66  1  0
 28 67  1  0
 28 68  1  0
 30 69  1  0
 31 70  1  0
 32 71  1  0
 33 72  1  0
 35 73  1  0
 35 74  1  0
 37 75  1  0
 37 76  1  0
 38 77  1  0
 38 78  1  0
M  END
>  <smiles>  (21) 
CN(C)C1CCN(c2nc(NCCN3CCc4ccccc4C3)nc(N3CCc4ccccc4C3)n2)CC1

>  <score_type>  (21) 
oracle

>  <origin>  (21) 
autodockgpu

>  <m_score__min__energy>  (21) 
-11.130000000000001

>  <m_primary>  (21) 
energy

>  <rmsd>  (21) 
4.1093032953651445

>  <m_score__min__rmsd>  (21) 
4.1093032953651445

>  <meeko>  (21) 
{"free_energy": -10.77, "intermolecular_energy": -12.86, "internal_energy": -1.21, "cluster_size": 16, "cluster_id": 1, "rank_in_cluster": 6}

>  <energy>  (21) 
-10.21

>  <cluster_rmsd>  (21) 
0.37

>  <cluster>  (21) 
2

$$$$

     RDKit          3D

 78 83  0  0  0  0  0  0  0  0999 V2000
  146.3050   69.4910  218.3120 C   0  0  0  0  0  0  0  0  0  0  0  0
  145.2950   69.4890  219.3200 N   0  0  0  0  0  0  0  0  0  0  0  0
  144.8530   68.1880  219.7060 C   0  0  0  0  0  0  0  0  0  0  0  0
  144.2660   70.4660  219.1820 C   0  0  0  0  0  0  0  0  0  0  0  0
  142.9140   69.8760  219.3180 C   0  0  0  0  0  0  0  0  0  0  0  0
  141.7880   70.7880  219.6060 C   0  0  0  0  0  0  0  0  0  0  0  0
  142.0950   72.1200  220.0000 N   0  0  0  0  0  0  0  0  0  0  0  0
  141.1040   72.8970  220.6860 C   0  0  0  0  0  0  0  0  0  0  0  0
  140.0450   72.3050  221.3170 N   0  0  0  0  0  0  0  0  0  0  0  0
  139.1480   73.0370  221.9780 C   0  0  0  0  0  0  0  0  0  0  0  0
  138.0140   72.5910  222.6650 N   0  0  0  0  0  0  0  0  0  0  0  0
  137.3320   71.3210  222.6000 C   0  0  0  0  0  0  0  0  0  0  0  0
  138.2590   70.2580  223.0150 C   0  0  0  0  0  0  0  0  0  0  0  0
  138.7270   70.1830  224.3730 N   0  0  0  0  0  0  0  0  0  0  0  0
  138.9480   68.8710  224.8430 C   0  0  0  0  0  0  0  0  0  0  0  0
  139.4550   68.8260  226.2500 C   0  0  0  0  0  0  0  0  0  0  0  0
  140.2010   70.0030  226.7120 C   0  0  0  0  0  0  0  0  0  0  0  0
  140.6880   70.0520  227.9860 C   0  0  0  0  0  0  0  0  0  0  0  0
  141.3890   71.1780  228.4340 C   0  0  0  0  0  0  0  0  0  0  0  0
  141.5960   72.2560  227.5820 C   0  0  0  0  0  0  0  0  0  0  0  0
  141.0840   72.1590  226.3020 C   0  0  0  0  0  0  0  0  0  0  0  0
  140.3890   71.0460  225.8530 C   0  0  0  0  0  0  0  0  0  0  0  0
  139.9190   71.0620  224.4660 C   0  0  0  0  0  0  0  0  0  0  0  0
  139.3420   74.3790  221.9920 N   0  0  0  0  0  0  0  0  0  0  0  0
  140.3600   75.0110  221.3900 C   0  0  0  0  0  0  0  0  0  0  0  0
  140.3980   76.4190  221.5360 N   0  0  0  0  0  0  0  0  0  0  0  0
  140.8130   77.1990  220.3570 C   0  0  0  0  0  0  0  0  0  0  0  0
  142.1320   77.9060  220.6720 C   0  0  0  0  0  0  0  0  0  0  0  0
  141.7860   78.8210  221.8220 C   0  0  0  0  0  0  0  0  0  0  0  0
  142.4820   80.0200  221.8390 C   0  0  0  0  0  0  0  0  0  0  0  0
  142.2330   80.9380  222.8480 C   0  0  0  0  0  0  0  0  0  0  0  0
  141.2970   80.6010  223.7830 C   0  0  0  0  0  0  0  0  0  0  0  0
  140.5950   79.3900  223.7640 C   0  0  0  0  0  0  0  0  0  0  0  0
  140.8420   78.4740  222.7600 C   0  0  0  0  0  0  0  0  0  0  0  0
  140.0970   77.1700  222.7180 C   0  0  0  0  0  0  0  0  0  0  0  0
  141.2430   74.2630  220.7350 N   0  0  0  0  0  0  0  0  0  0  0  0
  143.3940   72.6630  219.7130 C   0  0  0  0  0  0  0  0  0  0  0  0
  144.4250   71.6280  220.1430 C   0  0  0  0  0  0  0  0  0  0  0  0
  147.2971   69.4930  218.7870 H   0  0  0  0  0  0  0  0  0  0  0  0
  146.2000   68.5926  217.6860 H   0  0  0  0  0  0  0  0  0  0  0  0
  146.1964   70.3889  217.6860 H   0  0  0  0  0  0  0  0  0  0  0  0
  144.8297   68.1193  220.8036 H   0  0  0  0  0  0  0  0  0  0  0  0
  143.8439   68.0099  219.3059 H   0  0  0  0  0  0  0  0  0  0  0  0
  145.5447   67.4321  219.3059 H   0  0  0  0  0  0  0  0  0  0  0  0
  144.3728   70.8600  218.1606 H   0  0  0  0  0  0  0  0  0  0  0  0
  142.6849   69.3606  218.3736 H   0  0  0  0  0  0  0  0  0  0  0  0
  142.9820   69.2320  220.2072 H   0  0  0  0  0  0  0  0  0  0  0  0
  141.1744   70.8489  218.6951 H   0  0  0  0  0  0  0  0  0  0  0  0
  141.2934   70.3473  220.4842 H   0  0  0  0  0  0  0  0  0  0  0  0
  137.5850   73.2980  223.3460 H   0  0  0  0  0  0  0  0  0  0  0  0
  136.4618   71.3348  223.2728 H   0  0  0  0  0  0  0  0  0  0  0  0
  136.9900   71.1351  221.5712 H   0  0  0  0  0  0  0  0  0  0  0  0
  137.7575   69.3024  222.8019 H   0  0  0  0  0  0  0  0  0  0  0  0
  139.1738   70.4958  222.4523 H   0  0  0  0  0  0  0  0  0  0  0  0
  137.9981   68.3182  224.7959 H   0  0  0  0  0  0  0  0  0  0  0  0
  139.7207   68.4205  224.2028 H   0  0  0  0  0  0  0  0  0  0  0  0
  138.5879   68.6971  226.9144 H   0  0  0  0  0  0  0  0  0  0  0  0
  140.1750   67.9948  226.2752 H   0  0  0  0  0  0  0  0  0  0  0  0
  140.5287   69.2014  228.6651 H   0  0  0  0  0  0  0  0  0  0  0  0
  141.7768   71.2094  229.4629 H   0  0  0  0  0  0  0  0  0  0  0  0
  142.1449   73.1500  227.9128 H   0  0  0  0  0  0  0  0  0  0  0  0
  141.2341   73.0006  225.6097 H   0  0  0  0  0  0  0  0  0  0  0  0
  139.6492   72.0881  224.1756 H   0  0  0  0  0  0  0  0  0  0  0  0
  140.7104   70.7036  223.7913 H   0  0  0  0  0  0  0  0  0  0  0  0
  140.9506   76.5256  219.4981 H   0  0  0  0  0  0  0  0  0  0  0  0
  140.0406   77.9423  220.1103 H   0  0  0  0  0  0  0  0  0  0  0  0
  142.9044   77.1806  220.9674 H   0  0  0  0  0  0  0  0  0  0  0  0
  142.5411   78.4476  219.8064 H   0  0  0  0  0  0  0  0  0  0  0  0
  143.2253   80.2411  221.0588 H   0  0  0  0  0  0  0  0  0  0  0  0
  142.7676   81.8983  222.8932 H   0  0  0  0  0  0  0  0  0  0  0  0
  141.0840   81.3163  224.5911 H   0  0  0  0  0  0  0  0  0  0  0  0
  139.8513   79.1692  224.5438 H   0  0  0  0  0  0  0  0  0  0  0  0
  140.3757   76.5730  223.5989 H   0  0  0  0  0  0  0  0  0  0  0  0
  139.0199   77.3935  222.7140 H   0  0  0  0  0  0  0  0  0  0  0  0
  143.4884   72.8626  218.6354 H   0  0  0  0  0  0  0  0  0  0  0  0
  143.5467   73.6103  220.2510 H   0  0  0  0  0  0  0  0  0  0  0  0
  145.4400   72.0463  220.0743 H   0  0  0  0  0  0  0  0  0  0  0  0
  144.2748   71.3149  221.1867 H   0  0  0  0  0  0  0  0  0  0  0  0
  1  2  1  0
  2  3  1  0
  2  4  1  0
  4  5  1  0
  5  6  1  0
  6  7  1  0
  7  8  1  0
  8  9  2  0
  9 10  1  0
 10 11  1  0
 11 12  1  0
 12 13  1  0
 13 14  1  0
 14 15  1  0
 15 16  1  0
 16 17  1  0
 17 18  2  0
 18 19  1  0
 19 20  2  0
 20 21  1  0
 21 22  2  0
 22 23  1  0
 10 24  2  0
 24 25  1  0
 25 26  1  0
 26 27  1  0
 27 28  1  0
 28 29  1  0
 29 30  2  0
 30 31  1  0
 31 32  2  0
 32 33  1  0
 33 34  2  0
 34 35  1  0
 25 36  2  0
  7 37  1  0
 37 38  1  0
 38  4  1  0
 36  8  1  0
 23 14  1  0
 35 26  1  0
 22 17  1  0
 34 29  1  0
  1 39  1  0
  1 40  1  0
  1 41  1  0
  3 42  1  0
  3 43  1  0
  3 44  1  0
  4 45  1  0
  5 46  1  0
  5 47  1  0
  6 48  1  0
  6 49  1  0
 11 50  1  0
 12 51  1  0
 12 52  1  0
 13 53  1  0
 13 54  1  0
 15 55  1  0
 15 56  1  0
 16 57  1  0
 16 58  1  0
 18 59  1  0
 19 60  1  0
 20 61  1  0
 21 62  1  0
 23 63  1  0
 23 64  1  0
 27 65  1  0
 27 66  1  0
 28 67  1  0
 28 68  1  0
 30 69  1  0
 31 70  1  0
 32 71  1  0
 33 72  1  0
 35 73  1  0
 35 74  1  0
 37 75  1  0
 37 76  1  0
 38 77  1  0
 38 78  1  0
M  END
>  <smiles>  (22) 
CN(C)C1CCN(c2nc(NCCN3CCc4ccccc4C3)nc(N3CCc4ccccc4C3)n2)CC1

>  <score_type>  (22) 
oracle

>  <origin>  (22) 
autodockgpu

>  <m_score__min__energy>  (22) 
-11.130000000000001

>  <m_primary>  (22) 
energy

>  <rmsd>  (22) 
4.214376776298234

>  <m_score__min__rmsd>  (22) 
4.214376776298234

>  <meeko>  (22) 
{"free_energy": -10.4, "intermolecular_energy": -12.48, "internal_energy": -1.46, "cluster_size": 16, "cluster_id": 1, "rank_in_cluster": 12}

>  <energy>  (22) 
-10.2

>  <cluster_rmsd>  (22) 
1.05

>  <cluster>  (22) 
2

$$$$

     RDKit          3D

 78 83  0  0  0  0  0  0  0  0999 V2000
  145.5260   72.1750  217.0520 C   0  0  0  0  0  0  0  0  0  0  0  0
  145.7820   71.5000  218.2830 N   0  0  0  0  0  0  0  0  0  0  0  0
  145.9190   70.0850  218.1610 C   0  0  0  0  0  0  0  0  0  0  0  0
  145.0330   71.9450  219.4120 C   0  0  0  0  0  0  0  0  0  0  0  0
  145.0460   73.4200  219.5440 C   0  0  0  0  0  0  0  0  0  0  0  0
  144.0100   74.0470  220.3920 C   0  0  0  0  0  0  0  0  0  0  0  0
  142.9130   73.2410  220.8060 N   0  0  0  0  0  0  0  0  0  0  0  0
  141.7040   73.8730  221.2470 C   0  0  0  0  0  0  0  0  0  0  0  0
  140.5380   73.1700  221.3760 N   0  0  0  0  0  0  0  0  0  0  0  0
  139.4280   73.7620  221.8180 C   0  0  0  0  0  0  0  0  0  0  0  0
  138.1640   73.1910  222.0000 N   0  0  0  0  0  0  0  0  0  0  0  0
  137.7990   71.8320  222.3160 C   0  0  0  0  0  0  0  0  0  0  0  0
  139.0050   70.9930  222.2850 C   0  0  0  0  0  0  0  0  0  0  0  0
  139.7180   70.6900  223.4970 N   0  0  0  0  0  0  0  0  0  0  0  0
  140.1680   71.8230  224.2080 C   0  0  0  0  0  0  0  0  0  0  0  0
  140.8870   71.4770  225.4750 C   0  0  0  0  0  0  0  0  0  0  0  0
  140.5240   70.2000  226.1020 C   0  0  0  0  0  0  0  0  0  0  0  0
  141.1400   69.8000  227.2530 C   0  0  0  0  0  0  0  0  0  0  0  0
  140.8050   68.5770  227.8480 C   0  0  0  0  0  0  0  0  0  0  0  0
  139.8400   67.7610  227.2700 C   0  0  0  0  0  0  0  0  0  0  0  0
  139.2450   68.2100  226.1060 C   0  0  0  0  0  0  0  0  0  0  0  0
  139.5730   69.4200  225.5130 C   0  0  0  0  0  0  0  0  0  0  0  0
  138.8500   69.7870  224.2930 C   0  0  0  0  0  0  0  0  0  0  0  0
  139.5190   75.0790  222.1290 N   0  0  0  0  0  0  0  0  0  0  0  0
  140.6340   75.8160  222.0200 C   0  0  0  0  0  0  0  0  0  0  0  0
  140.5290   77.1720  222.4120 N   0  0  0  0  0  0  0  0  0  0  0  0
  139.3840   77.9320  221.8830 C   0  0  0  0  0  0  0  0  0  0  0  0
  139.9060   79.0410  220.9680 C   0  0  0  0  0  0  0  0  0  0  0  0
  140.7380   79.9040  221.8860 C   0  0  0  0  0  0  0  0  0  0  0  0
  140.7250   81.2560  221.5820 C   0  0  0  0  0  0  0  0  0  0  0  0
  141.4500   82.1390  222.3680 C   0  0  0  0  0  0  0  0  0  0  0  0
  142.1470   81.6140  223.4170 C   0  0  0  0  0  0  0  0  0  0  0  0
  142.1590   80.2470  223.7240 C   0  0  0  0  0  0  0  0  0  0  0  0
  141.4390   79.3670  222.9410 C   0  0  0  0  0  0  0  0  0  0  0  0
  141.4340   77.8970  223.2540 C   0  0  0  0  0  0  0  0  0  0  0  0
  141.7290   75.2070  221.5770 N   0  0  0  0  0  0  0  0  0  0  0  0
  143.0290   71.8100  220.7690 C   0  0  0  0  0  0  0  0  0  0  0  0
  143.6040   71.4350  219.4090 C   0  0  0  0  0  0  0  0  0  0  0  0
  145.1430   73.1849  217.2604 H   0  0  0  0  0  0  0  0  0  0  0  0
  146.4586   72.2487  216.4734 H   0  0  0  0  0  0  0  0  0  0  0  0
  144.7791   71.6117  216.4734 H   0  0  0  0  0  0  0  0  0  0  0  0
  145.9628   69.6331  219.1629 H   0  0  0  0  0  0  0  0  0  0  0  0
  145.0560   69.6789  217.6130 H   0  0  0  0  0  0  0  0  0  0  0  0
  146.8439   69.8521  217.6130 H   0  0  0  0  0  0  0  0  0  0  0  0
  145.5398   71.5128  220.2875 H   0  0  0  0  0  0  0  0  0  0  0  0
  146.0246   73.7033  219.9588 H   0  0  0  0  0  0  0  0  0  0  0  0
  144.8340   73.7899  218.5300 H   0  0  0  0  0  0  0  0  0  0  0  0
  144.5086   74.4142  221.3012 H   0  0  0  0  0  0  0  0  0  0  0  0
  143.5593   74.8198  219.7520 H   0  0  0  0  0  0  0  0  0  0  0  0
  137.3390   73.8660  221.8890 H   0  0  0  0  0  0  0  0  0  0  0  0
  137.3495   71.7947  223.3193 H   0  0  0  0  0  0  0  0  0  0  0  0
  137.0701   71.4623  221.5798 H   0  0  0  0  0  0  0  0  0  0  0  0
  138.7067   70.0294  221.8463 H   0  0  0  0  0  0  0  0  0  0  0  0
  139.7217   71.6128  221.7263 H   0  0  0  0  0  0  0  0  0  0  0  0
  140.8525   72.3921  223.5618 H   0  0  0  0  0  0  0  0  0  0  0  0
  139.2794   72.4087  224.4859 H   0  0  0  0  0  0  0  0  0  0  0  0
  141.9636   71.4464  225.2515 H   0  0  0  0  0  0  0  0  0  0  0  0
  140.5947   72.2521  226.1987 H   0  0  0  0  0  0  0  0  0  0  0  0
  141.9039   70.4420  227.7158 H   0  0  0  0  0  0  0  0  0  0  0  0
  141.3068   68.2618  228.7747 H   0  0  0  0  0  0  0  0  0  0  0  0
  139.5610   66.7970  227.7205 H   0  0  0  0  0  0  0  0  0  0  0  0
  138.4787   67.5808  225.6297 H   0  0  0  0  0  0  0  0  0  0  0  0
  138.6186   68.8831  223.7105 H   0  0  0  0  0  0  0  0  0  0  0  0
  137.9059   70.2914  224.5465 H   0  0  0  0  0  0  0  0  0  0  0  0
  138.7272   77.2600  221.3111 H   0  0  0  0  0  0  0  0  0  0  0  0
  138.8128   78.3721  222.7137 H   0  0  0  0  0  0  0  0  0  0  0  0
  140.5220   78.6232  220.1581 H   0  0  0  0  0  0  0  0  0  0  0  0
  139.0978   79.6009  220.4747 H   0  0  0  0  0  0  0  0  0  0  0  0
  140.1443   81.6258  220.7241 H   0  0  0  0  0  0  0  0  0  0  0  0
  141.4627   83.2180  222.1546 H   0  0  0  0  0  0  0  0  0  0  0  0
  142.7282   82.2978  224.0531 H   0  0  0  0  0  0  0  0  0  0  0  0
  142.7382   79.8775  224.5831 H   0  0  0  0  0  0  0  0  0  0  0  0
  142.4494   77.4996  223.1092 H   0  0  0  0  0  0  0  0  0  0  0  0
  141.1028   77.7725  224.2955 H   0  0  0  0  0  0  0  0  0  0  0  0
  143.7011   71.4664  221.5691 H   0  0  0  0  0  0  0  0  0  0  0  0
  142.0476   71.3366  220.9199 H   0  0  0  0  0  0  0  0  0  0  0  0
  143.5867   70.3436  219.2731 H   0  0  0  0  0  0  0  0  0  0  0  0
  143.0189   71.8722  218.5865 H   0  0  0  0  0  0  0  0  0  0  0  0
  1  2  1  0
  2  3  1  0
  2  4  1  0
  4  5  1  0
  5  6  1  0
  6  7  1  0
  7  8  1  0
  8  9  2  0
  9 10  1  0
 10 11  1  0
 11 12  1  0
 12 13  1  0
 13 14  1  0
 14 15  1  0
 15 16  1  0
 16 17  1  0
 17 18  2  0
 18 19  1  0
 19 20  2  0
 20 21  1  0
 21 22  2  0
 22 23  1  0
 10 24  2  0
 24 25  1  0
 25 26  1  0
 26 27  1  0
 27 28  1  0
 28 29  1  0
 29 30  2  0
 30 31  1  0
 31 32  2  0
 32 33  1  0
 33 34  2  0
 34 35  1  0
 25 36  2  0
  7 37  1  0
 37 38  1  0
 38  4  1  0
 36  8  1  0
 23 14  1  0
 35 26  1  0
 22 17  1  0
 34 29  1  0
  1 39  1  0
  1 40  1  0
  1 41  1  0
  3 42  1  0
  3 43  1  0
  3 44  1  0
  4 45  1  0
  5 46  1  0
  5 47  1  0
  6 48  1  0
  6 49  1  0
 11 50  1  0
 12 51  1  0
 12 52  1  0
 13 53  1  0
 13 54  1  0
 15 55  1  0
 15 56  1  0
 16 57  1  0
 16 58  1  0
 18 59  1  0
 19 60  1  0
 20 61  1  0
 21 62  1  0
 23 63  1  0
 23 64  1  0
 27 65  1  0
 27 66  1  0
 28 67  1  0
 28 68  1  0
 30 69  1  0
 31 70  1  0
 32 71  1  0
 33 72  1  0
 35 73  1  0
 35 74  1  0
 37 75  1  0
 37 76  1  0
 38 77  1  0
 38 78  1  0
M  END
>  <smiles>  (23) 
CN(C)C1CCN(c2nc(NCCN3CCc4ccccc4C3)nc(N3CCc4ccccc4C3)n2)CC1

>  <score_type>  (23) 
oracle

>  <origin>  (23) 
autodockgpu

>  <m_score__min__energy>  (23) 
-11.130000000000001

>  <m_primary>  (23) 
energy

>  <rmsd>  (23) 
3.063862185172372

>  <m_score__min__rmsd>  (23) 
3.063862185172372

>  <meeko>  (23) 
{"free_energy": -10.24, "intermolecular_energy": -12.33, "internal_energy": -1.39, "cluster_size": 16, "cluster_id": 1, "rank_in_cluster": 14}

>  <energy>  (23) 
-10.18

>  <cluster_rmsd>  (23) 
1.1

>  <cluster>  (23) 
2

$$$$

     RDKit          3D

 78 83  0  0  0  0  0  0  0  0999 V2000
  141.4200   81.7190  222.6760 C   0  0  0  0  0  0  0  0  0  0  0  0
  141.2940   80.4270  223.2680 N   0  0  0  0  0  0  0  0  0  0  0  0
  142.5040   79.9150  223.8230 C   0  0  0  0  0  0  0  0  0  0  0  0
  140.5020   79.4810  222.5520 C   0  0  0  0  0  0  0  0  0  0  0  0
  141.2360   78.2200  222.2970 C   0  0  0  0  0  0  0  0  0  0  0  0
  140.4480   77.0210  221.9430 C   0  0  0  0  0  0  0  0  0  0  0  0
  139.0390   77.0740  222.1300 N   0  0  0  0  0  0  0  0  0  0  0  0
  138.2950   75.8510  222.2150 C   0  0  0  0  0  0  0  0  0  0  0  0
  138.7560   74.6950  221.6470 N   0  0  0  0  0  0  0  0  0  0  0  0
  138.0690   73.5580  221.7610 C   0  0  0  0  0  0  0  0  0  0  0  0
  138.3960   72.3020  221.2380 N   0  0  0  0  0  0  0  0  0  0  0  0
  139.4430   71.3850  221.6180 C   0  0  0  0  0  0  0  0  0  0  0  0
  138.8520   70.2660  222.3670 C   0  0  0  0  0  0  0  0  0  0  0  0
  139.0020   70.1790  223.7940 N   0  0  0  0  0  0  0  0  0  0  0  0
  138.9310   68.8680  224.3100 C   0  0  0  0  0  0  0  0  0  0  0  0
  139.1130   68.8070  225.7940 C   0  0  0  0  0  0  0  0  0  0  0  0
  139.8990   69.8890  226.4000 C   0  0  0  0  0  0  0  0  0  0  0  0
  140.1020   69.9190  227.7490 C   0  0  0  0  0  0  0  0  0  0  0  0
  140.8410   70.9570  228.3310 C   0  0  0  0  0  0  0  0  0  0  0  0
  141.3750   71.9650  227.5370 C   0  0  0  0  0  0  0  0  0  0  0  0
  141.1420   71.8890  226.1770 C   0  0  0  0  0  0  0  0  0  0  0  0
  140.4110   70.8650  225.5950 C   0  0  0  0  0  0  0  0  0  0  0  0
  140.2570   70.8920  224.1390 C   0  0  0  0  0  0  0  0  0  0  0  0
  136.9090   73.6090  222.4610 N   0  0  0  0  0  0  0  0  0  0  0  0
  136.4110   74.7130  223.0370 C   0  0  0  0  0  0  0  0  0  0  0  0
  135.1930   74.5570  223.7410 N   0  0  0  0  0  0  0  0  0  0  0  0
  134.3590   75.7610  223.9030 C   0  0  0  0  0  0  0  0  0  0  0  0
  134.2790   76.1110  225.3900 C   0  0  0  0  0  0  0  0  0  0  0  0
  133.6050   74.9090  226.0070 C   0  0  0  0  0  0  0  0  0  0  0  0
  132.7840   75.1950  227.0870 C   0  0  0  0  0  0  0  0  0  0  0  0
  132.1090   74.1630  227.7220 C   0  0  0  0  0  0  0  0  0  0  0  0
  132.2960   72.9020  227.2370 C   0  0  0  0  0  0  0  0  0  0  0  0
  133.1250   72.6140  226.1460 C   0  0  0  0  0  0  0  0  0  0  0  0
  133.7990   73.6400  225.5120 C   0  0  0  0  0  0  0  0  0  0  0  0
  134.6910   73.3550  224.3370 C   0  0  0  0  0  0  0  0  0  0  0  0
  137.1100   75.8370  222.9110 N   0  0  0  0  0  0  0  0  0  0  0  0
  138.3840   78.3470  222.2400 C   0  0  0  0  0  0  0  0  0  0  0  0
  139.1800   79.1850  223.2330 C   0  0  0  0  0  0  0  0  0  0  0  0
  141.4941   82.4793  223.4675 H   0  0  0  0  0  0  0  0  0  0  0  0
  142.3254   81.7497  222.0521 H   0  0  0  0  0  0  0  0  0  0  0  0
  140.5376   81.9241  222.0521 H   0  0  0  0  0  0  0  0  0  0  0  0
  142.4434   79.9406  224.9210 H   0  0  0  0  0  0  0  0  0  0  0  0
  142.6509   78.8776  223.4880 H   0  0  0  0  0  0  0  0  0  0  0  0
  143.3509   80.5319  223.4880 H   0  0  0  0  0  0  0  0  0  0  0  0
  140.2800   79.9568  221.5854 H   0  0  0  0  0  0  0  0  0  0  0  0
  141.9345   78.4093  221.4686 H   0  0  0  0  0  0  0  0  0  0  0  0
  141.6995   77.9703  223.2628 H   0  0  0  0  0  0  0  0  0  0  0  0
  140.6300   76.8114  220.8786 H   0  0  0  0  0  0  0  0  0  0  0  0
  140.7915   76.2468  222.6449 H   0  0  0  0  0  0  0  0  0  0  0  0
  137.7740   71.9660  220.4330 H   0  0  0  0  0  0  0  0  0  0  0  0
  139.9427   71.0018  220.7161 H   0  0  0  0  0  0  0  0  0  0  0  0
  140.1810   71.9042  222.2471 H   0  0  0  0  0  0  0  0  0  0  0  0
  137.7709   70.2887  222.1653 H   0  0  0  0  0  0  0  0  0  0  0  0
  139.4250   69.3990  222.0064 H   0  0  0  0  0  0  0  0  0  0  0  0
  137.9455   68.4475  224.0612 H   0  0  0  0  0  0  0  0  0  0  0  0
  139.7523   68.2937  223.8565 H   0  0  0  0  0  0  0  0  0  0  0  0
  138.1142   68.8204  226.2546 H   0  0  0  0  0  0  0  0  0  0  0  0
  139.6881   67.8880  225.9805 H   0  0  0  0  0  0  0  0  0  0  0  0
  139.6830   69.1237  228.3830 H   0  0  0  0  0  0  0  0  0  0  0  0
  140.9991   70.9744  229.4194 H   0  0  0  0  0  0  0  0  0  0  0  0
  141.9588   72.7890  227.9730 H   0  0  0  0  0  0  0  0  0  0  0  0
  141.5546   72.6754  225.5279 H   0  0  0  0  0  0  0  0  0  0  0  0
  140.2022   71.9335  223.7893 H   0  0  0  0  0  0  0  0  0  0  0  0
  141.1168   70.4047  223.6561 H   0  0  0  0  0  0  0  0  0  0  0  0
  134.8085   76.5989  223.3500 H   0  0  0  0  0  0  0  0  0  0  0  0
  133.3494   75.5711  223.5096 H   0  0  0  0  0  0  0  0  0  0  0  0
  135.2839   76.2569  225.8129 H   0  0  0  0  0  0  0  0  0  0  0  0
  133.7337   77.0477  225.5779 H   0  0  0  0  0  0  0  0  0  0  0  0
  132.6689   76.2314  227.4373 H   0  0  0  0  0  0  0  0  0  0  0  0
  131.4498   74.3538  228.5817 H   0  0  0  0  0  0  0  0  0  0  0  0
  131.7694   72.0700  227.7273 H   0  0  0  0  0  0  0  0  0  0  0  0
  133.2389   71.5775  225.7959 H   0  0  0  0  0  0  0  0  0  0  0  0
  135.5411   72.7448  224.6761 H   0  0  0  0  0  0  0  0  0  0  0  0
  134.0964   72.8227  223.5799 H   0  0  0  0  0  0  0  0  0  0  0  0
  138.3632   78.8451  221.2594 H   0  0  0  0  0  0  0  0  0  0  0  0
  137.3461   78.2214  222.5821 H   0  0  0  0  0  0  0  0  0  0  0  0
  138.6472   80.1203  223.4595 H   0  0  0  0  0  0  0  0  0  0  0  0
  139.3238   78.6567  224.1870 H   0  0  0  0  0  0  0  0  0  0  0  0
  1  2  1  0
  2  3  1  0
  2  4  1  0
  4  5  1  0
  5  6  1  0
  6  7  1  0
  7  8  1  0
  8  9  2  0
  9 10  1  0
 10 11  1  0
 11 12  1  0
 12 13  1  0
 13 14  1  0
 14 15  1  0
 15 16  1  0
 16 17  1  0
 17 18  2  0
 18 19  1  0
 19 20  2  0
 20 21  1  0
 21 22  2  0
 22 23  1  0
 10 24  2  0
 24 25  1  0
 25 26  1  0
 26 27  1  0
 27 28  1  0
 28 29  1  0
 29 30  2  0
 30 31  1  0
 31 32  2  0
 32 33  1  0
 33 34  2  0
 34 35  1  0
 25 36  2  0
  7 37  1  0
 37 38  1  0
 38  4  1  0
 36  8  1  0
 23 14  1  0
 35 26  1  0
 22 17  1  0
 34 29  1  0
  1 39  1  0
  1 40  1  0
  1 41  1  0
  3 42  1  0
  3 43  1  0
  3 44  1  0
  4 45  1  0
  5 46  1  0
  5 47  1  0
  6 48  1  0
  6 49  1  0
 11 50  1  0
 12 51  1  0
 12 52  1  0
 13 53  1  0
 13 54  1  0
 15 55  1  0
 15 56  1  0
 16 57  1  0
 16 58  1  0
 18 59  1  0
 19 60  1  0
 20 61  1  0
 21 62  1  0
 23 63  1  0
 23 64  1  0
 27 65  1  0
 27 66  1  0
 28 67  1  0
 28 68  1  0
 30 69  1  0
 31 70  1  0
 32 71  1  0
 33 72  1  0
 35 73  1  0
 35 74  1  0
 37 75  1  0
 37 76  1  0
 38 77  1  0
 38 78  1  0
M  END
>  <smiles>  (24) 
CN(C)C1CCN(c2nc(NCCN3CCc4ccccc4C3)nc(N3CCc4ccccc4C3)n2)CC1

>  <score_type>  (24) 
oracle

>  <origin>  (24) 
autodockgpu

>  <m_score__min__energy>  (24) 
-11.130000000000001

>  <m_primary>  (24) 
energy

>  <rmsd>  (24) 
4.077211574845218

>  <m_score__min__rmsd>  (24) 
4.077211574845218

>  <meeko>  (24) 
{"free_energy": -9.86, "intermolecular_energy": -11.94, "internal_energy": -1.31, "cluster_size": 6, "cluster_id": 4, "rank_in_cluster": 1}

>  <energy>  (24) 
-10.15

>  <cluster_rmsd>  (24) 
0.6

>  <cluster>  (24) 
2

$$$$

     RDKit          3D

 78 83  0  0  0  0  0  0  0  0999 V2000
  139.9130   70.0720  226.8880 C   0  0  0  0  0  0  0  0  0  0  0  0
  139.2590   69.5180  225.7480 N   0  0  0  0  0  0  0  0  0  0  0  0
  139.2250   68.0920  225.7250 C   0  0  0  0  0  0  0  0  0  0  0  0
  139.5380   70.1420  224.4960 C   0  0  0  0  0  0  0  0  0  0  0  0
  138.3410   70.7960  223.9200 C   0  0  0  0  0  0  0  0  0  0  0  0
  138.5480   71.8080  222.8630 C   0  0  0  0  0  0  0  0  0  0  0  0
  139.8700   72.2900  222.6540 N   0  0  0  0  0  0  0  0  0  0  0  0
  140.0650   73.5360  221.9730 C   0  0  0  0  0  0  0  0  0  0  0  0
  140.9690   73.6580  220.9540 N   0  0  0  0  0  0  0  0  0  0  0  0
  141.1180   74.8150  220.3080 C   0  0  0  0  0  0  0  0  0  0  0  0
  141.9960   75.1040  219.2570 N   0  0  0  0  0  0  0  0  0  0  0  0
  142.9280   76.1940  219.1030 C   0  0  0  0  0  0  0  0  0  0  0  0
  142.2020   77.3820  218.6330 C   0  0  0  0  0  0  0  0  0  0  0  0
  142.1440   78.5710  219.4400 N   0  0  0  0  0  0  0  0  0  0  0  0
  141.2430   79.5510  218.9710 C   0  0  0  0  0  0  0  0  0  0  0  0
  141.1880   80.7670  219.8430 C   0  0  0  0  0  0  0  0  0  0  0  0
  141.5300   80.5710  221.2570 C   0  0  0  0  0  0  0  0  0  0  0  0
  141.5180   81.6290  222.1200 C   0  0  0  0  0  0  0  0  0  0  0  0
  141.8560   81.4480  223.4670 C   0  0  0  0  0  0  0  0  0  0  0  0
  142.2050   80.1870  223.9360 C   0  0  0  0  0  0  0  0  0  0  0  0
  142.2010   79.1490  223.0240 C   0  0  0  0  0  0  0  0  0  0  0  0
  141.8680   79.3220  221.6890 C   0  0  0  0  0  0  0  0  0  0  0  0
  141.8820   78.1330  220.8330 C   0  0  0  0  0  0  0  0  0  0  0  0
  140.3340   75.8460  220.7080 N   0  0  0  0  0  0  0  0  0  0  0  0
  139.4340   75.7830  221.7000 C   0  0  0  0  0  0  0  0  0  0  0  0
  138.6990   76.9650  221.9560 N   0  0  0  0  0  0  0  0  0  0  0  0
  137.7120   77.3690  220.9390 C   0  0  0  0  0  0  0  0  0  0  0  0
  138.1520   78.6980  220.3240 C   0  0  0  0  0  0  0  0  0  0  0  0
  138.1390   79.6580  221.4890 C   0  0  0  0  0  0  0  0  0  0  0  0
  137.7840   80.9580  221.1670 C   0  0  0  0  0  0  0  0  0  0  0  0
  137.7310   81.9180  222.1650 C   0  0  0  0  0  0  0  0  0  0  0  0
  138.0370   81.5180  223.4340 C   0  0  0  0  0  0  0  0  0  0  0  0
  138.3950   80.2040  223.7590 C   0  0  0  0  0  0  0  0  0  0  0  0
  138.4490   79.2460  222.7650 C   0  0  0  0  0  0  0  0  0  0  0  0
  138.8260   77.8290  223.0910 C   0  0  0  0  0  0  0  0  0  0  0  0
  139.3020   74.6210  222.3330 N   0  0  0  0  0  0  0  0  0  0  0  0
  140.9870   71.5260  223.1350 C   0  0  0  0  0  0  0  0  0  0  0  0
  140.6840   71.1320  224.5750 C   0  0  0  0  0  0  0  0  0  0  0  0
  139.4486   69.6786  227.8043 H   0  0  0  0  0  0  0  0  0  0  0  0
  140.9779   69.7970  226.8695 H   0  0  0  0  0  0  0  0  0  0  0  0
  139.8168   71.1676  226.8695 H   0  0  0  0  0  0  0  0  0  0  0  0
  139.2159   67.7088  226.7561 H   0  0  0  0  0  0  0  0  0  0  0  0
  138.3186   67.7552  225.2006 H   0  0  0  0  0  0  0  0  0  0  0  0
  140.1144   67.7124  225.2006 H   0  0  0  0  0  0  0  0  0  0  0  0
  139.8461   69.3267  223.8250 H   0  0  0  0  0  0  0  0  0  0  0  0
  137.7070   70.0037  223.4954 H   0  0  0  0  0  0  0  0  0  0  0  0
  137.9030   71.3578  224.7582 H   0  0  0  0  0  0  0  0  0  0  0  0
  138.2064   71.3666  221.9151 H   0  0  0  0  0  0  0  0  0  0  0  0
  137.9846   72.6874  223.2083 H   0  0  0  0  0  0  0  0  0  0  0  0
  141.9740   74.4100  218.4410 H   0  0  0  0  0  0  0  0  0  0  0  0
  143.4040   76.4116  220.0705 H   0  0  0  0  0  0  0  0  0  0  0  0
  143.7033   75.9194  218.3726 H   0  0  0  0  0  0  0  0  0  0  0  0
  142.6604   77.6730  217.6764 H   0  0  0  0  0  0  0  0  0  0  0  0
  141.1559   77.0421  218.6194 H   0  0  0  0  0  0  0  0  0  0  0  0
  141.5548   79.8582  217.9618 H   0  0  0  0  0  0  0  0  0  0  0  0
  140.2394   79.1007  218.9741 H   0  0  0  0  0  0  0  0  0  0  0  0
  141.8876   81.5080  219.4289 H   0  0  0  0  0  0  0  0  0  0  0  0
  140.1345   81.0834  219.8379 H   0  0  0  0  0  0  0  0  0  0  0  0
  141.2413   82.6292  221.7552 H   0  0  0  0  0  0  0  0  0  0  0  0
  141.8452   82.3059  224.1554 H   0  0  0  0  0  0  0  0  0  0  0  0
  142.4734   80.0221  224.9900 H   0  0  0  0  0  0  0  0  0  0  0  0
  142.4738   78.1418  223.3720 H   0  0  0  0  0  0  0  0  0  0  0  0
  142.6746   77.4454  221.1629 H   0  0  0  0  0  0  0  0  0  0  0  0
  140.9166   77.6092  220.8926 H   0  0  0  0  0  0  0  0  0  0  0  0
  137.6540   76.6001  220.1545 H   0  0  0  0  0  0  0  0  0  0  0  0
  136.7218   77.4828  221.4044 H   0  0  0  0  0  0  0  0  0  0  0  0
  139.1618   78.6159  219.8956 H   0  0  0  0  0  0  0  0  0  0  0  0
  137.4990   79.0214  219.5000 H   0  0  0  0  0  0  0  0  0  0  0  0
  137.5460   81.2260  220.1270 H   0  0  0  0  0  0  0  0  0  0  0  0
  137.4538   82.9593  221.9439 H   0  0  0  0  0  0  0  0  0  0  0  0
  138.0005   82.2648  224.2408 H   0  0  0  0  0  0  0  0  0  0  0  0
  138.6318   79.9361  224.7993 H   0  0  0  0  0  0  0  0  0  0  0  0
  139.8701   77.8099  223.4367 H   0  0  0  0  0  0  0  0  0  0  0  0
  138.1414   77.4666  223.8720 H   0  0  0  0  0  0  0  0  0  0  0  0
  141.1192   70.6246  222.5186 H   0  0  0  0  0  0  0  0  0  0  0  0
  141.9134   72.1167  223.0809 H   0  0  0  0  0  0  0  0  0  0  0  0
  141.5648   70.6632  225.0380 H   0  0  0  0  0  0  0  0  0  0  0  0
  140.4240   72.0065  225.1895 H   0  0  0  0  0  0  0  0  0  0  0  0
  1  2  1  0
  2  3  1  0
  2  4  1  0
  4  5  1  0
  5  6  1  0
  6  7  1  0
  7  8  1  0
  8  9  2  0
  9 10  1  0
 10 11  1  0
 11 12  1  0
 12 13  1  0
 13 14  1  0
 14 15  1  0
 15 16  1  0
 16 17  1  0
 17 18  2  0
 18 19  1  0
 19 20  2  0
 20 21  1  0
 21 22  2  0
 22 23  1  0
 10 24  2  0
 24 25  1  0
 25 26  1  0
 26 27  1  0
 27 28  1  0
 28 29  1  0
 29 30  2  0
 30 31  1  0
 31 32  2  0
 32 33  1  0
 33 34  2  0
 34 35  1  0
 25 36  2  0
  7 37  1  0
 37 38  1  0
 38  4  1  0
 36  8  1  0
 23 14  1  0
 35 26  1  0
 22 17  1  0
 34 29  1  0
  1 39  1  0
  1 40  1  0
  1 41  1  0
  3 42  1  0
  3 43  1  0
  3 44  1  0
  4 45  1  0
  5 46  1  0
  5 47  1  0
  6 48  1  0
  6 49  1  0
 11 50  1  0
 12 51  1  0
 12 52  1  0
 13 53  1  0
 13 54  1  0
 15 55  1  0
 15 56  1  0
 16 57  1  0
 16 58  1  0
 18 59  1  0
 19 60  1  0
 20 61  1  0
 21 62  1  0
 23 63  1  0
 23 64  1  0
 27 65  1  0
 27 66  1  0
 28 67  1  0
 28 68  1  0
 30 69  1  0
 31 70  1  0
 32 71  1  0
 33 72  1  0
 35 73  1  0
 35 74  1  0
 37 75  1  0
 37 76  1  0
 38 77  1  0
 38 78  1  0
M  END
>  <smiles>  (25) 
CN(C)C1CCN(c2nc(NCCN3CCc4ccccc4C3)nc(N3CCc4ccccc4C3)n2)CC1

>  <score_type>  (25) 
oracle

>  <origin>  (25) 
autodockgpu

>  <m_score__min__energy>  (25) 
-11.130000000000001

>  <m_primary>  (25) 
energy

>  <rmsd>  (25) 
10.380482448673082

>  <m_score__min__rmsd>  (25) 
10.380482448673082

>  <meeko>  (25) 
{"free_energy": -7.79, "intermolecular_energy": -9.88, "internal_energy": -3.22, "cluster_size": 1, "cluster_id": 8, "rank_in_cluster": 1}

>  <energy>  (25) 
-10.06

>  <cluster_rmsd>  (25) 
0.61

>  <cluster>  (25) 
2

$$$$

     RDKit          3D

 78 83  0  0  0  0  0  0  0  0999 V2000
  145.5750   72.5570  217.0550 C   0  0  0  0  0  0  0  0  0  0  0  0
  145.6900   71.6610  218.1590 N   0  0  0  0  0  0  0  0  0  0  0  0
  145.6680   70.2810  217.8010 C   0  0  0  0  0  0  0  0  0  0  0  0
  144.9430   72.0000  219.3250 C   0  0  0  0  0  0  0  0  0  0  0  0
  145.0100   73.4490  219.6290 C   0  0  0  0  0  0  0  0  0  0  0  0
  143.9870   74.0130  220.5340 C   0  0  0  0  0  0  0  0  0  0  0  0
  142.8560   73.2080  220.8420 N   0  0  0  0  0  0  0  0  0  0  0  0
  141.6650   73.8310  221.3430 C   0  0  0  0  0  0  0  0  0  0  0  0
  140.5150   73.1180  221.5370 N   0  0  0  0  0  0  0  0  0  0  0  0
  139.4240   73.7030  222.0330 C   0  0  0  0  0  0  0  0  0  0  0  0
  138.1770   73.1210  222.2850 N   0  0  0  0  0  0  0  0  0  0  0  0
  137.7170   71.7760  222.0430 C   0  0  0  0  0  0  0  0  0  0  0  0
  138.7780   70.8310  222.4230 C   0  0  0  0  0  0  0  0  0  0  0  0
  138.9960   70.4920  223.8040 N   0  0  0  0  0  0  0  0  0  0  0  0
  139.0340   69.1050  224.0650 C   0  0  0  0  0  0  0  0  0  0  0  0
  139.2840   68.7830  225.5050 C   0  0  0  0  0  0  0  0  0  0  0  0
  140.0230   69.7880  226.2790 C   0  0  0  0  0  0  0  0  0  0  0  0
  140.2820   69.5820  227.6030 C   0  0  0  0  0  0  0  0  0  0  0  0
  140.9750   70.5440  228.3480 C   0  0  0  0  0  0  0  0  0  0  0  0
  141.4050   71.7190  227.7430 C   0  0  0  0  0  0  0  0  0  0  0  0
  141.1190   71.8810  226.4010 C   0  0  0  0  0  0  0  0  0  0  0  0
  140.4330   70.9310  225.6580 C   0  0  0  0  0  0  0  0  0  0  0  0
  140.2140   71.2180  224.2390 C   0  0  0  0  0  0  0  0  0  0  0  0
  139.5180   75.0230  222.3320 N   0  0  0  0  0  0  0  0  0  0  0  0
  140.6180   75.7700  222.1600 C   0  0  0  0  0  0  0  0  0  0  0  0
  140.5220   77.1270  222.5490 N   0  0  0  0  0  0  0  0  0  0  0  0
  139.3570   77.8800  222.0540 C   0  0  0  0  0  0  0  0  0  0  0  0
  139.8450   78.9870  221.1180 C   0  0  0  0  0  0  0  0  0  0  0  0
  140.7040   79.8570  222.0040 C   0  0  0  0  0  0  0  0  0  0  0  0
  140.6760   81.2070  221.6950 C   0  0  0  0  0  0  0  0  0  0  0  0
  141.4220   82.0960  222.4530 C   0  0  0  0  0  0  0  0  0  0  0  0
  142.1550   81.5790  223.4810 C   0  0  0  0  0  0  0  0  0  0  0  0
  142.1820   80.2140  223.7940 C   0  0  0  0  0  0  0  0  0  0  0  0
  141.4390   79.3270  223.0390 C   0  0  0  0  0  0  0  0  0  0  0  0
  141.4500   77.8590  223.3580 C   0  0  0  0  0  0  0  0  0  0  0  0
  141.6950   75.1680  221.6630 N   0  0  0  0  0  0  0  0  0  0  0  0
  142.9180   71.7880  220.6390 C   0  0  0  0  0  0  0  0  0  0  0  0
  143.4970   71.5520  219.2490 C   0  0  0  0  0  0  0  0  0  0  0  0
  145.4433   73.5834  217.4280 H   0  0  0  0  0  0  0  0  0  0  0  0
  146.4874   72.5036  216.4428 H   0  0  0  0  0  0  0  0  0  0  0  0
  144.7057   72.2749  216.4428 H   0  0  0  0  0  0  0  0  0  0  0  0
  145.6582   69.6658  218.7128 H   0  0  0  0  0  0  0  0  0  0  0  0
  144.7664   70.0706  217.2070 H   0  0  0  0  0  0  0  0  0  0  0  0
  146.5624   70.0420  217.2070 H   0  0  0  0  0  0  0  0  0  0  0  0
  145.4208   71.4483  220.1480 H   0  0  0  0  0  0  0  0  0  0  0  0
  145.9926   73.6434  220.0835 H   0  0  0  0  0  0  0  0  0  0  0  0
  144.8266   73.9425  218.6632 H   0  0  0  0  0  0  0  0  0  0  0  0
  144.4866   74.2536  221.4840 H   0  0  0  0  0  0  0  0  0  0  0  0
  143.5738   74.8710  219.9834 H   0  0  0  0  0  0  0  0  0  0  0  0
  137.4510   73.7730  222.7280 H   0  0  0  0  0  0  0  0  0  0  0  0
  136.8166   71.5805  222.6439 H   0  0  0  0  0  0  0  0  0  0  0  0
  137.4739   71.6527  220.9773 H   0  0  0  0  0  0  0  0  0  0  0  0
  138.5632   69.8887  221.8977 H   0  0  0  0  0  0  0  0  0  0  0  0
  139.6975   71.3715  222.1538 H   0  0  0  0  0  0  0  0  0  0  0  0
  138.0685   68.6674  223.7714 H   0  0  0  0  0  0  0  0  0  0  0  0
  139.8704   68.6861  223.4863 H   0  0  0  0  0  0  0  0  0  0  0  0
  138.3074   68.6383  225.9902 H   0  0  0  0  0  0  0  0  0  0  0  0
  139.9254   67.8894  225.4979 H   0  0  0  0  0  0  0  0  0  0  0  0
  139.9442   68.6543  228.0880 H   0  0  0  0  0  0  0  0  0  0  0  0
  141.1796   70.3693  229.4146 H   0  0  0  0  0  0  0  0  0  0  0  0
  141.9505   72.4883  228.3092 H   0  0  0  0  0  0  0  0  0  0  0  0
  141.4494   72.8029  225.9000 H   0  0  0  0  0  0  0  0  0  0  0  0
  140.0748   72.2996  224.0946 H   0  0  0  0  0  0  0  0  0  0  0  0
  141.0824   70.8941  223.6465 H   0  0  0  0  0  0  0  0  0  0  0  0
  138.6849   77.2028  221.5065 H   0  0  0  0  0  0  0  0  0  0  0  0
  138.8108   78.3212  222.9007 H   0  0  0  0  0  0  0  0  0  0  0  0
  140.4353   78.5677  220.2899 H   0  0  0  0  0  0  0  0  0  0  0  0
  139.0189   79.5422  220.6497 H   0  0  0  0  0  0  0  0  0  0  0  0
  140.0665   81.5707  220.8546 H   0  0  0  0  0  0  0  0  0  0  0  0
  141.4230   83.1741  222.2346 H   0  0  0  0  0  0  0  0  0  0  0  0
  142.7543   82.2681  224.0942 H   0  0  0  0  0  0  0  0  0  0  0  0
  142.7906   79.8507  224.6352 H   0  0  0  0  0  0  0  0  0  0  0  0
  142.4619   77.4650  223.1824 H   0  0  0  0  0  0  0  0  0  0  0  0
  141.1527   77.7378  224.4101 H   0  0  0  0  0  0  0  0  0  0  0  0
  143.5657   71.3273  221.3994 H   0  0  0  0  0  0  0  0  0  0  0  0
  141.9175   71.3390  220.7247 H   0  0  0  0  0  0  0  0  0  0  0  0
  143.4393   70.4856  218.9856 H   0  0  0  0  0  0  0  0  0  0  0  0
  142.9406   72.1056  218.4783 H   0  0  0  0  0  0  0  0  0  0  0  0
  1  2  1  0
  2  3  1  0
  2  4  1  0
  4  5  1  0
  5  6  1  0
  6  7  1  0
  7  8  1  0
  8  9  2  0
  9 10  1  0
 10 11  1  0
 11 12  1  0
 12 13  1  0
 13 14  1  0
 14 15  1  0
 15 16  1  0
 16 17  1  0
 17 18  2  0
 18 19  1  0
 19 20  2  0
 20 21  1  0
 21 22  2  0
 22 23  1  0
 10 24  2  0
 24 25  1  0
 25 26  1  0
 26 27  1  0
 27 28  1  0
 28 29  1  0
 29 30  2  0
 30 31  1  0
 31 32  2  0
 32 33  1  0
 33 34  2  0
 34 35  1  0
 25 36  2  0
  7 37  1  0
 37 38  1  0
 38  4  1  0
 36  8  1  0
 23 14  1  0
 35 26  1  0
 22 17  1  0
 34 29  1  0
  1 39  1  0
  1 40  1  0
  1 41  1  0
  3 42  1  0
  3 43  1  0
  3 44  1  0
  4 45  1  0
  5 46  1  0
  5 47  1  0
  6 48  1  0
  6 49  1  0
 11 50  1  0
 12 51  1  0
 12 52  1  0
 13 53  1  0
 13 54  1  0
 15 55  1  0
 15 56  1  0
 16 57  1  0
 16 58  1  0
 18 59  1  0
 19 60  1  0
 20 61  1  0
 21 62  1  0
 23 63  1  0
 23 64  1  0
 27 65  1  0
 27 66  1  0
 28 67  1  0
 28 68  1  0
 30 69  1  0
 31 70  1  0
 32 71  1  0
 33 72  1  0
 35 73  1  0
 35 74  1  0
 37 75  1  0
 37 76  1  0
 38 77  1  0
 38 78  1  0
M  END
>  <smiles>  (26) 
CN(C)C1CCN(c2nc(NCCN3CCc4ccccc4C3)nc(N3CCc4ccccc4C3)n2)CC1

>  <score_type>  (26) 
oracle

>  <origin>  (26) 
autodockgpu

>  <m_score__min__energy>  (26) 
-11.130000000000001

>  <m_primary>  (26) 
energy

>  <rmsd>  (26) 
3.9541683402132426

>  <m_score__min__rmsd>  (26) 
3.9541683402132426

>  <meeko>  (26) 
{"free_energy": -10.9, "intermolecular_energy": -12.99, "internal_energy": -1.48, "cluster_size": 16, "cluster_id": 1, "rank_in_cluster": 4}

>  <energy>  (26) 
-9.85

>  <cluster_rmsd>  (26) 
0.76

>  <cluster>  (26) 
2

$$$$

     RDKit          3D

 78 83  0  0  0  0  0  0  0  0999 V2000
  145.6200   72.1650  216.9260 C   0  0  0  0  0  0  0  0  0  0  0  0
  145.9370   71.5080  218.1530 N   0  0  0  0  0  0  0  0  0  0  0  0
  146.1350   70.1010  218.0320 C   0  0  0  0  0  0  0  0  0  0  0  0
  145.1970   71.9240  219.2990 C   0  0  0  0  0  0  0  0  0  0  0  0
  144.9590   73.3860  219.3100 C   0  0  0  0  0  0  0  0  0  0  0  0
  143.8870   73.9050  220.1840 C   0  0  0  0  0  0  0  0  0  0  0  0
  142.9790   72.9680  220.7500 N   0  0  0  0  0  0  0  0  0  0  0  0
  141.7090   73.4240  221.2350 C   0  0  0  0  0  0  0  0  0  0  0  0
  140.7620   72.5480  221.6890 N   0  0  0  0  0  0  0  0  0  0  0  0
  139.5980   72.9880  222.1660 C   0  0  0  0  0  0  0  0  0  0  0  0
  138.5300   72.2290  222.6600 N   0  0  0  0  0  0  0  0  0  0  0  0
  137.9390   71.0180  222.1450 C   0  0  0  0  0  0  0  0  0  0  0  0
  138.4680   69.8710  222.8970 C   0  0  0  0  0  0  0  0  0  0  0  0
  138.7910   69.9950  224.2920 N   0  0  0  0  0  0  0  0  0  0  0  0
  138.7890   68.7760  225.0030 C   0  0  0  0  0  0  0  0  0  0  0  0
  139.1500   68.9350  226.4470 C   0  0  0  0  0  0  0  0  0  0  0  0
  139.9980   70.0840  226.7840 C   0  0  0  0  0  0  0  0  0  0  0  0
  140.3640   70.3120  228.0800 C   0  0  0  0  0  0  0  0  0  0  0  0
  141.1630   71.4150  228.4070 C   0  0  0  0  0  0  0  0  0  0  0  0
  141.5920   72.2860  227.4130 C   0  0  0  0  0  0  0  0  0  0  0  0
  141.1950   72.0120  226.1180 C   0  0  0  0  0  0  0  0  0  0  0  0
  140.4040   70.9220  225.7880 C   0  0  0  0  0  0  0  0  0  0  0  0
  140.0750   70.7350  224.3730 C   0  0  0  0  0  0  0  0  0  0  0  0
  139.4080   74.3300  222.1790 N   0  0  0  0  0  0  0  0  0  0  0  0
  140.3000   75.2330  221.7450 C   0  0  0  0  0  0  0  0  0  0  0  0
  139.9210   76.5920  221.8590 N   0  0  0  0  0  0  0  0  0  0  0  0
  140.9740   77.5980  221.6350 C   0  0  0  0  0  0  0  0  0  0  0  0
  141.2160   78.3590  222.9400 C   0  0  0  0  0  0  0  0  0  0  0  0
  139.8910   79.0280  223.2180 C   0  0  0  0  0  0  0  0  0  0  0  0
  139.9840   80.2650  223.8370 C   0  0  0  0  0  0  0  0  0  0  0  0
  138.8270   80.9700  224.1290 C   0  0  0  0  0  0  0  0  0  0  0  0
  137.6400   80.3930  223.7820 C   0  0  0  0  0  0  0  0  0  0  0  0
  137.5470   79.1440  223.1570 C   0  0  0  0  0  0  0  0  0  0  0  0
  138.6990   78.4400  222.8660 C   0  0  0  0  0  0  0  0  0  0  0  0
  138.6230   77.1000  222.1910 C   0  0  0  0  0  0  0  0  0  0  0  0
  141.4540   74.7740  221.2710 N   0  0  0  0  0  0  0  0  0  0  0  0
  143.3420   71.5800  220.8190 C   0  0  0  0  0  0  0  0  0  0  0  0
  143.8830   71.1820  219.4520 C   0  0  0  0  0  0  0  0  0  0  0  0
  145.1512   73.1366  217.1408 H   0  0  0  0  0  0  0  0  0  0  0  0
  146.5412   72.3226  216.3458 H   0  0  0  0  0  0  0  0  0  0  0  0
  144.9234   71.5420  216.3458 H   0  0  0  0  0  0  0  0  0  0  0  0
  146.1982   69.6521  219.0342 H   0  0  0  0  0  0  0  0  0  0  0  0
  145.2904   69.6576  217.4842 H   0  0  0  0  0  0  0  0  0  0  0  0
  147.0692   69.9079  217.4842 H   0  0  0  0  0  0  0  0  0  0  0  0
  145.8282   71.6680  220.1627 H   0  0  0  0  0  0  0  0  0  0  0  0
  145.8975   73.8684  219.6208 H   0  0  0  0  0  0  0  0  0  0  0  0
  144.6198   73.6181  218.2897 H   0  0  0  0  0  0  0  0  0  0  0  0
  144.3713   74.4362  221.0167 H   0  0  0  0  0  0  0  0  0  0  0  0
  143.2662   74.5255  219.5211 H   0  0  0  0  0  0  0  0  0  0  0  0
  138.0830   72.6020  223.5590 H   0  0  0  0  0  0  0  0  0  0  0  0
  136.8460   71.0627  222.2607 H   0  0  0  0  0  0  0  0  0  0  0  0
  138.1844   70.9087  221.0783 H   0  0  0  0  0  0  0  0  0  0  0  0
  137.7178   69.0704  222.8180 H   0  0  0  0  0  0  0  0  0  0  0  0
  139.4505   69.7042  222.4314 H   0  0  0  0  0  0  0  0  0  0  0  0
  137.7825   68.3365  224.9406 H   0  0  0  0  0  0  0  0  0  0  0  0
  139.5515   68.1290  224.5447 H   0  0  0  0  0  0  0  0  0  0  0  0
  138.2144   69.0307  227.0175 H   0  0  0  0  0  0  0  0  0  0  0  0
  139.7476   68.0465  226.6987 H   0  0  0  0  0  0  0  0  0  0  0  0
  140.0293   69.6254  228.8716 H   0  0  0  0  0  0  0  0  0  0  0  0
  141.4516   71.5922  229.4536 H   0  0  0  0  0  0  0  0  0  0  0  0
  142.2213   73.1573  227.6471 H   0  0  0  0  0  0  0  0  0  0  0  0
  141.5207   72.6882  225.3138 H   0  0  0  0  0  0  0  0  0  0  0  0
  139.9729   71.7138  223.8815 H   0  0  0  0  0  0  0  0  0  0  0  0
  140.8726   70.1707  223.8677 H   0  0  0  0  0  0  0  0  0  0  0  0
  141.9022   77.0978  221.3213 H   0  0  0  0  0  0  0  0  0  0  0  0
  140.6596   78.2984  220.8472 H   0  0  0  0  0  0  0  0  0  0  0  0
  141.4842   77.6679  223.7527 H   0  0  0  0  0  0  0  0  0  0  0  0
  142.0473   79.0757  222.8666 H   0  0  0  0  0  0  0  0  0  0  0  0
  140.9681   80.6836  224.0943 H   0  0  0  0  0  0  0  0  0  0  0  0
  138.8640   81.9536  224.6200 H   0  0  0  0  0  0  0  0  0  0  0  0
  136.7099   80.9365  224.0046 H   0  0  0  0  0  0  0  0  0  0  0  0
  136.5627   78.7259  222.8993 H   0  0  0  0  0  0  0  0  0  0  0  0
  138.1258   76.3892  222.8675 H   0  0  0  0  0  0  0  0  0  0  0  0
  138.0565   77.2221  221.2560 H   0  0  0  0  0  0  0  0  0  0  0  0
  144.1152   71.4314  221.5871 H   0  0  0  0  0  0  0  0  0  0  0  0
  142.4710   70.9637  221.0864 H   0  0  0  0  0  0  0  0  0  0  0  0
  144.0485   70.0955  219.4065 H   0  0  0  0  0  0  0  0  0  0  0  0
  143.1776   71.4350  218.6467 H   0  0  0  0  0  0  0  0  0  0  0  0
  1  2  1  0
  2  3  1  0
  2  4  1  0
  4  5  1  0
  5  6  1  0
  6  7  1  0
  7  8  1  0
  8  9  2  0
  9 10  1  0
 10 11  1  0
 11 12  1  0
 12 13  1  0
 13 14  1  0
 14 15  1  0
 15 16  1  0
 16 17  1  0
 17 18  2  0
 18 19  1  0
 19 20  2  0
 20 21  1  0
 21 22  2  0
 22 23  1  0
 10 24  2  0
 24 25  1  0
 25 26  1  0
 26 27  1  0
 27 28  1  0
 28 29  1  0
 29 30  2  0
 30 31  1  0
 31 32  2  0
 32 33  1  0
 33 34  2  0
 34 35  1  0
 25 36  2  0
  7 37  1  0
 37 38  1  0
 38  4  1  0
 36  8  1  0
 23 14  1  0
 35 26  1  0
 22 17  1  0
 34 29  1  0
  1 39  1  0
  1 40  1  0
  1 41  1  0
  3 42  1  0
  3 43  1  0
  3 44  1  0
  4 45  1  0
  5 46  1  0
  5 47  1  0
  6 48  1  0
  6 49  1  0
 11 50  1  0
 12 51  1  0
 12 52  1  0
 13 53  1  0
 13 54  1  0
 15 55  1  0
 15 56  1  0
 16 57  1  0
 16 58  1  0
 18 59  1  0
 19 60  1  0
 20 61  1  0
 21 62  1  0
 23 63  1  0
 23 64  1  0
 27 65  1  0
 27 66  1  0
 28 67  1  0
 28 68  1  0
 30 69  1  0
 31 70  1  0
 32 71  1  0
 33 72  1  0
 35 73  1  0
 35 74  1  0
 37 75  1  0
 37 76  1  0
 38 77  1  0
 38 78  1  0
M  END
>  <smiles>  (27) 
CN(C)C1CCN(c2nc(NCCN3CCc4ccccc4C3)nc(N3CCc4ccccc4C3)n2)CC1

>  <score_type>  (27) 
oracle

>  <origin>  (27) 
autodockgpu

>  <m_score__min__energy>  (27) 
-11.130000000000001

>  <m_primary>  (27) 
energy

>  <rmsd>  (27) 
4.2686586936789475

>  <m_score__min__rmsd>  (27) 
4.2686586936789475

>  <meeko>  (27) 
{"free_energy": -10.69, "intermolecular_energy": -12.78, "internal_energy": -1.42, "cluster_size": 16, "cluster_id": 1, "rank_in_cluster": 9}

>  <energy>  (27) 
-9.75

>  <cluster_rmsd>  (27) 
0.7

>  <cluster>  (27) 
2

$$$$

     RDKit          3D

 78 83  0  0  0  0  0  0  0  0999 V2000
  141.7700   81.8370  222.4920 C   0  0  0  0  0  0  0  0  0  0  0  0
  141.4730   80.6230  223.1800 N   0  0  0  0  0  0  0  0  0  0  0  0
  142.5890   80.0380  223.8490 C   0  0  0  0  0  0  0  0  0  0  0  0
  140.6210   79.7050  222.4990 C   0  0  0  0  0  0  0  0  0  0  0  0
  141.3830   78.6150  221.8480 C   0  0  0  0  0  0  0  0  0  0  0  0
  140.6480   77.3920  221.4630 C   0  0  0  0  0  0  0  0  0  0  0  0
  139.3320   77.2190  221.9740 N   0  0  0  0  0  0  0  0  0  0  0  0
  138.7520   75.9080  221.9940 C   0  0  0  0  0  0  0  0  0  0  0  0
  139.3750   74.8440  221.4010 N   0  0  0  0  0  0  0  0  0  0  0  0
  138.8390   73.6240  221.4540 C   0  0  0  0  0  0  0  0  0  0  0  0
  139.3420   72.4410  220.9000 N   0  0  0  0  0  0  0  0  0  0  0  0
  139.9350   71.2960  221.5450 C   0  0  0  0  0  0  0  0  0  0  0  0
  138.8980   70.5850  222.3070 C   0  0  0  0  0  0  0  0  0  0  0  0
  138.9940   70.4630  223.7370 N   0  0  0  0  0  0  0  0  0  0  0  0
  138.7660   69.1600  224.2280 C   0  0  0  0  0  0  0  0  0  0  0  0
  138.8950   69.0600  225.7160 C   0  0  0  0  0  0  0  0  0  0  0  0
  139.7740   70.0420  226.3620 C   0  0  0  0  0  0  0  0  0  0  0  0
  139.9380   70.0320  227.7170 C   0  0  0  0  0  0  0  0  0  0  0  0
  140.7670   70.9750  228.3380 C   0  0  0  0  0  0  0  0  0  0  0  0
  141.4300   71.9300  227.5770 C   0  0  0  0  0  0  0  0  0  0  0  0
  141.2320   71.8990  226.2090 C   0  0  0  0  0  0  0  0  0  0  0  0
  140.4130   70.9670  225.5890 C   0  0  0  0  0  0  0  0  0  0  0  0
  140.3080   71.0310  224.1300 C   0  0  0  0  0  0  0  0  0  0  0  0
  137.6640   73.4980  222.1180 N   0  0  0  0  0  0  0  0  0  0  0  0
  137.0110   74.5060  222.7150 C   0  0  0  0  0  0  0  0  0  0  0  0
  135.8050   74.1670  223.3740 N   0  0  0  0  0  0  0  0  0  0  0  0
  134.7720   75.2150  223.4520 C   0  0  0  0  0  0  0  0  0  0  0  0
  134.5620   75.5950  224.9180 C   0  0  0  0  0  0  0  0  0  0  0  0
  134.0730   74.3170  225.5560 C   0  0  0  0  0  0  0  0  0  0  0  0
  133.1650   74.4940  226.5880 C   0  0  0  0  0  0  0  0  0  0  0  0
  132.6450   73.3840  227.2370 C   0  0  0  0  0  0  0  0  0  0  0  0
  133.0670   72.1580  226.8120 C   0  0  0  0  0  0  0  0  0  0  0  0
  133.9840   71.9800  225.7690 C   0  0  0  0  0  0  0  0  0  0  0  0
  134.5030   73.0850  225.1220 C   0  0  0  0  0  0  0  0  0  0  0  0
  135.4850   72.9180  223.9980 C   0  0  0  0  0  0  0  0  0  0  0  0
  137.5600   75.7150  222.6500 N   0  0  0  0  0  0  0  0  0  0  0  0
  138.6080   78.3560  222.4700 C   0  0  0  0  0  0  0  0  0  0  0  0
  139.5440   79.1240  223.3950 C   0  0  0  0  0  0  0  0  0  0  0  0
  141.9652   82.6348  223.2237 H   0  0  0  0  0  0  0  0  0  0  0  0
  142.6593   81.6927  221.8609 H   0  0  0  0  0  0  0  0  0  0  0  0
  140.9145   82.1195  221.8609 H   0  0  0  0  0  0  0  0  0  0  0  0
  142.4451   80.1134  224.9369 H   0  0  0  0  0  0  0  0  0  0  0  0
  142.6742   78.9793  223.5630 H   0  0  0  0  0  0  0  0  0  0  0  0
  143.5082   80.5702  223.5630 H   0  0  0  0  0  0  0  0  0  0  0  0
  140.1211   80.2958  221.7173 H   0  0  0  0  0  0  0  0  0  0  0  0
  141.8311   79.0297  220.9330 H   0  0  0  0  0  0  0  0  0  0  0  0
  142.0947   78.2788  222.6164 H   0  0  0  0  0  0  0  0  0  0  0  0
  140.5771   77.3841  220.3653 H   0  0  0  0  0  0  0  0  0  0  0  0
  141.2275   76.5697  221.9080 H   0  0  0  0  0  0  0  0  0  0  0  0
  139.2750   72.3730  219.8330 H   0  0  0  0  0  0  0  0  0  0  0  0
  140.3602   70.6239  220.7851 H   0  0  0  0  0  0  0  0  0  0  0  0
  140.7351   71.6253  222.2243 H   0  0  0  0  0  0  0  0  0  0  0  0
  137.9472   71.0972  222.0981 H   0  0  0  0  0  0  0  0  0  0  0  0
  139.0089   69.5460  221.9633 H   0  0  0  0  0  0  0  0  0  0  0  0
  137.7489   68.8522  223.9437 H   0  0  0  0  0  0  0  0  0  0  0  0
  139.5335   68.5059  223.7885 H   0  0  0  0  0  0  0  0  0  0  0  0
  137.8898   69.1755  226.1476 H   0  0  0  0  0  0  0  0  0  0  0  0
  139.3616   68.0818  225.9039 H   0  0  0  0  0  0  0  0  0  0  0  0
  139.4159   69.2787  228.3252 H   0  0  0  0  0  0  0  0  0  0  0  0
  140.8934   70.9595  229.4306 H   0  0  0  0  0  0  0  0  0  0  0  0
  142.0855   72.6799  228.0438 H   0  0  0  0  0  0  0  0  0  0  0  0
  141.7460   72.6455  225.5856 H   0  0  0  0  0  0  0  0  0  0  0  0
  140.3768   72.0770  223.7967 H   0  0  0  0  0  0  0  0  0  0  0  0
  141.1247   70.4604  223.6637 H   0  0  0  0  0  0  0  0  0  0  0  0
  135.0990   76.0988  222.8846 H   0  0  0  0  0  0  0  0  0  0  0  0
  133.8295   74.8419  223.0249 H   0  0  0  0  0  0  0  0  0  0  0  0
  135.5060   75.9252  225.3761 H   0  0  0  0  0  0  0  0  0  0  0  0
  133.8567   76.4297  225.0438 H   0  0  0  0  0  0  0  0  0  0  0  0
  132.8592   75.5066  226.8899 H   0  0  0  0  0  0  0  0  0  0  0  0
  131.9226   73.4877  228.0600 H   0  0  0  0  0  0  0  0  0  0  0  0
  132.6667   71.2648  227.3139 H   0  0  0  0  0  0  0  0  0  0  0  0
  134.2891   70.9673  225.4667 H   0  0  0  0  0  0  0  0  0  0  0  0
  136.4088   72.4735  224.3968 H   0  0  0  0  0  0  0  0  0  0  0  0
  135.0252   72.2675  223.2394 H   0  0  0  0  0  0  0  0  0  0  0  0
  138.2966   78.9979  221.6328 H   0  0  0  0  0  0  0  0  0  0  0  0
  137.7047   78.0359  223.0100 H   0  0  0  0  0  0  0  0  0  0  0  0
  138.9988   79.9284  223.9105 H   0  0  0  0  0  0  0  0  0  0  0  0
  139.9703   78.4732  224.1726 H   0  0  0  0  0  0  0  0  0  0  0  0
  1  2  1  0
  2  3  1  0
  2  4  1  0
  4  5  1  0
  5  6  1  0
  6  7  1  0
  7  8  1  0
  8  9  2  0
  9 10  1  0
 10 11  1  0
 11 12  1  0
 12 13  1  0
 13 14  1  0
 14 15  1  0
 15 16  1  0
 16 17  1  0
 17 18  2  0
 18 19  1  0
 19 20  2  0
 20 21  1  0
 21 22  2  0
 22 23  1  0
 10 24  2  0
 24 25  1  0
 25 26  1  0
 26 27  1  0
 27 28  1  0
 28 29  1  0
 29 30  2  0
 30 31  1  0
 31 32  2  0
 32 33  1  0
 33 34  2  0
 34 35  1  0
 25 36  2  0
  7 37  1  0
 37 38  1  0
 38  4  1  0
 36  8  1  0
 23 14  1  0
 35 26  1  0
 22 17  1  0
 34 29  1  0
  1 39  1  0
  1 40  1  0
  1 41  1  0
  3 42  1  0
  3 43  1  0
  3 44  1  0
  4 45  1  0
  5 46  1  0
  5 47  1  0
  6 48  1  0
  6 49  1  0
 11 50  1  0
 12 51  1  0
 12 52  1  0
 13 53  1  0
 13 54  1  0
 15 55  1  0
 15 56  1  0
 16 57  1  0
 16 58  1  0
 18 59  1  0
 19 60  1  0
 20 61  1  0
 21 62  1  0
 23 63  1  0
 23 64  1  0
 27 65  1  0
 27 66  1  0
 28 67  1  0
 28 68  1  0
 30 69  1  0
 31 70  1  0
 32 71  1  0
 33 72  1  0
 35 73  1  0
 35 74  1  0
 37 75  1  0
 37 76  1  0
 38 77  1  0
 38 78  1  0
M  END
>  <smiles>  (28) 
CN(C)C1CCN(c2nc(NCCN3CCc4ccccc4C3)nc(N3CCc4ccccc4C3)n2)CC1

>  <score_type>  (28) 
oracle

>  <origin>  (28) 
autodockgpu

>  <m_score__min__energy>  (28) 
-11.130000000000001

>  <m_primary>  (28) 
energy

>  <rmsd>  (28) 
3.98231935520765

>  <m_score__min__rmsd>  (28) 
3.98231935520765

>  <meeko>  (28) 
{"free_energy": -9.49, "intermolecular_energy": -11.58, "internal_energy": -1.59, "cluster_size": 6, "cluster_id": 4, "rank_in_cluster": 5}

>  <energy>  (28) 
-9.73

>  <cluster_rmsd>  (28) 
0.65

>  <cluster>  (28) 
2

$$$$

     RDKit          3D

 78 83  0  0  0  0  0  0  0  0999 V2000
  139.1030   78.7710  222.6830 C   0  0  0  0  0  0  0  0  0  0  0  0
  140.1430   77.7970  222.7450 N   0  0  0  0  0  0  0  0  0  0  0  0
  141.4560   78.3460  222.8470 C   0  0  0  0  0  0  0  0  0  0  0  0
  140.0150   76.6810  221.8670 C   0  0  0  0  0  0  0  0  0  0  0  0
  141.3170   76.0250  221.6060 C   0  0  0  0  0  0  0  0  0  0  0  0
  141.3010   74.6490  221.0660 C   0  0  0  0  0  0  0  0  0  0  0  0
  140.0660   73.9430  221.0820 N   0  0  0  0  0  0  0  0  0  0  0  0
  140.0730   72.5130  220.9800 C   0  0  0  0  0  0  0  0  0  0  0  0
  139.0470   71.7580  221.4780 N   0  0  0  0  0  0  0  0  0  0  0  0
  139.0500   70.4310  221.3480 C   0  0  0  0  0  0  0  0  0  0  0  0
  138.0890   69.5210  221.8020 N   0  0  0  0  0  0  0  0  0  0  0  0
  137.4270   69.4350  223.0810 C   0  0  0  0  0  0  0  0  0  0  0  0
  138.1460   68.4730  223.9290 C   0  0  0  0  0  0  0  0  0  0  0  0
  138.7450   68.8930  225.1660 N   0  0  0  0  0  0  0  0  0  0  0  0
  139.3190   67.8480  225.9210 C   0  0  0  0  0  0  0  0  0  0  0  0
  139.9540   68.3180  227.1920 C   0  0  0  0  0  0  0  0  0  0  0  0
  140.4350   69.7050  227.2060 C   0  0  0  0  0  0  0  0  0  0  0  0
  141.0150   70.2210  228.3300 C   0  0  0  0  0  0  0  0  0  0  0  0
  141.4630   71.5470  228.3510 C   0  0  0  0  0  0  0  0  0  0  0  0
  141.3220   72.3500  227.2260 C   0  0  0  0  0  0  0  0  0  0  0  0
  140.7290   71.7820  226.1140 C   0  0  0  0  0  0  0  0  0  0  0  0
  140.2830   70.4700  226.0870 C   0  0  0  0  0  0  0  0  0  0  0  0
  139.6940   69.9860  224.8370 C   0  0  0  0  0  0  0  0  0  0  0  0
  140.1090   69.8810  220.7040 N   0  0  0  0  0  0  0  0  0  0  0  0
  141.1400   70.5720  220.1980 C   0  0  0  0  0  0  0  0  0  0  0  0
  142.1420   69.8150  219.5440 N   0  0  0  0  0  0  0  0  0  0  0  0
  141.6840   68.7590  218.6240 C   0  0  0  0  0  0  0  0  0  0  0  0
  142.1090   67.3990  219.1810 C   0  0  0  0  0  0  0  0  0  0  0  0
  143.6170   67.4730  219.1990 C   0  0  0  0  0  0  0  0  0  0  0  0
  144.2600   66.2700  218.9520 C   0  0  0  0  0  0  0  0  0  0  0  0
  145.6450   66.2270  218.9360 C   0  0  0  0  0  0  0  0  0  0  0  0
  146.3090   67.3970  219.1700 C   0  0  0  0  0  0  0  0  0  0  0  0
  145.6590   68.6120  219.4190 C   0  0  0  0  0  0  0  0  0  0  0  0
  144.2790   68.6560  219.4350 C   0  0  0  0  0  0  0  0  0  0  0  0
  143.5600   69.9490  219.6960 C   0  0  0  0  0  0  0  0  0  0  0  0
  141.1190   71.8940  220.3390 N   0  0  0  0  0  0  0  0  0  0  0  0
  138.8340   74.6700  221.2100 C   0  0  0  0  0  0  0  0  0  0  0  0
  139.0060   75.6600  222.3550 C   0  0  0  0  0  0  0  0  0  0  0  0
  138.8027   79.0522  223.7032 H   0  0  0  0  0  0  0  0  0  0  0  0
  139.4660   79.6615  222.1490 H   0  0  0  0  0  0  0  0  0  0  0  0
  138.2381   78.3505  222.1490 H   0  0  0  0  0  0  0  0  0  0  0  0
  141.7250   78.4585  223.9077 H   0  0  0  0  0  0  0  0  0  0  0  0
  142.1741   77.6728  222.3560 H   0  0  0  0  0  0  0  0  0  0  0  0
  141.4811   79.3300  222.3560 H   0  0  0  0  0  0  0  0  0  0  0  0
  139.6379   77.0956  220.9205 H   0  0  0  0  0  0  0  0  0  0  0  0
  141.8622   76.6533  220.8863 H   0  0  0  0  0  0  0  0  0  0  0  0
  141.7810   75.9270  222.5985 H   0  0  0  0  0  0  0  0  0  0  0  0
  141.6336   74.7039  220.0189 H   0  0  0  0  0  0  0  0  0  0  0  0
  141.9540   74.0788  221.7431 H   0  0  0  0  0  0  0  0  0  0  0  0
  137.7970   68.7740  221.0920 H   0  0  0  0  0  0  0  0  0  0  0  0
  137.4269   70.4236  223.5633 H   0  0  0  0  0  0  0  0  0  0  0  0
  136.3882   69.1018  222.9399 H   0  0  0  0  0  0  0  0  0  0  0  0
  137.4287   67.6779  224.1807 H   0  0  0  0  0  0  0  0  0  0  0  0
  139.0165   68.2040  223.3127 H   0  0  0  0  0  0  0  0  0  0  0  0
  138.5300   67.1237  226.1716 H   0  0  0  0  0  0  0  0  0  0  0  0
  140.1127   67.3987  225.3061 H   0  0  0  0  0  0  0  0  0  0  0  0
  139.2110   68.2131  227.9963 H   0  0  0  0  0  0  0  0  0  0  0  0
  140.8520   67.6954  227.3183 H   0  0  0  0  0  0  0  0  0  0  0  0
  141.1307   69.5907  229.2240 H   0  0  0  0  0  0  0  0  0  0  0  0
  141.9280   71.9544  229.2608 H   0  0  0  0  0  0  0  0  0  0  0  0
  141.6678   73.3942  227.2204 H   0  0  0  0  0  0  0  0  0  0  0  0
  140.6057   72.3982  225.2111 H   0  0  0  0  0  0  0  0  0  0  0  0
  139.1589   70.8057  224.3353 H   0  0  0  0  0  0  0  0  0  0  0  0
  140.4812   69.6167  224.1632 H   0  0  0  0  0  0  0  0  0  0  0  0
  140.5882   68.7959  218.5356 H   0  0  0  0  0  0  0  0  0  0  0  0
  142.1301   68.9109  217.6301 H   0  0  0  0  0  0  0  0  0  0  0  0
  141.7118   67.2496  220.1958 H   0  0  0  0  0  0  0  0  0  0  0  0
  141.7313   66.5570  218.5823 H   0  0  0  0  0  0  0  0  0  0  0  0
  143.6751   65.3563  218.7700 H   0  0  0  0  0  0  0  0  0  0  0  0
  146.1869   65.2894  218.7429 H   0  0  0  0  0  0  0  0  0  0  0  0
  147.4089   67.3844  219.1625 H   0  0  0  0  0  0  0  0  0  0  0  0
  146.2440   69.5256  219.6007 H   0  0  0  0  0  0  0  0  0  0  0  0
  143.7777   70.2751  220.7237 H   0  0  0  0  0  0  0  0  0  0  0  0
  143.9120   70.6877  218.9609 H   0  0  0  0  0  0  0  0  0  0  0  0
  138.6169   75.2092  220.2762 H   0  0  0  0  0  0  0  0  0  0  0  0
  137.9977   73.9845  221.4117 H   0  0  0  0  0  0  0  0  0  0  0  0
  138.0480   76.1482  222.5870 H   0  0  0  0  0  0  0  0  0  0  0  0
  139.3455   75.1615  223.2749 H   0  0  0  0  0  0  0  0  0  0  0  0
  1  2  1  0
  2  3  1  0
  2  4  1  0
  4  5  1  0
  5  6  1  0
  6  7  1  0
  7  8  1  0
  8  9  2  0
  9 10  1  0
 10 11  1  0
 11 12  1  0
 12 13  1  0
 13 14  1  0
 14 15  1  0
 15 16  1  0
 16 17  1  0
 17 18  2  0
 18 19  1  0
 19 20  2  0
 20 21  1  0
 21 22  2  0
 22 23  1  0
 10 24  2  0
 24 25  1  0
 25 26  1  0
 26 27  1  0
 27 28  1  0
 28 29  1  0
 29 30  2  0
 30 31  1  0
 31 32  2  0
 32 33  1  0
 33 34  2  0
 34 35  1  0
 25 36  2  0
  7 37  1  0
 37 38  1  0
 38  4  1  0
 36  8  1  0
 23 14  1  0
 35 26  1  0
 22 17  1  0
 34 29  1  0
  1 39  1  0
  1 40  1  0
  1 41  1  0
  3 42  1  0
  3 43  1  0
  3 44  1  0
  4 45  1  0
  5 46  1  0
  5 47  1  0
  6 48  1  0
  6 49  1  0
 11 50  1  0
 12 51  1  0
 12 52  1  0
 13 53  1  0
 13 54  1  0
 15 55  1  0
 15 56  1  0
 16 57  1  0
 16 58  1  0
 18 59  1  0
 19 60  1  0
 20 61  1  0
 21 62  1  0
 23 63  1  0
 23 64  1  0
 27 65  1  0
 27 66  1  0
 28 67  1  0
 28 68  1  0
 30 69  1  0
 31 70  1  0
 32 71  1  0
 33 72  1  0
 35 73  1  0
 35 74  1  0
 37 75  1  0
 37 76  1  0
 38 77  1  0
 38 78  1  0
M  END
>  <smiles>  (29) 
CN(C)C1CCN(c2nc(NCCN3CCc4ccccc4C3)nc(N3CCc4ccccc4C3)n2)CC1

>  <score_type>  (29) 
oracle

>  <origin>  (29) 
autodockgpu

>  <m_score__min__energy>  (29) 
-11.130000000000001

>  <m_primary>  (29) 
energy

>  <rmsd>  (29) 
4.933439653270046

>  <m_score__min__rmsd>  (29) 
4.933439653270046

>  <meeko>  (29) 
{"free_energy": -9.26, "intermolecular_energy": -11.35, "internal_energy": -1.42, "cluster_size": 1, "cluster_id": 5, "rank_in_cluster": 1}

>  <energy>  (29) 
-8.29

>  <cluster_rmsd>  (29) 
1.79

>  <cluster>  (29) 
2

$$$$

     RDKit          3D

 78 83  0  0  0  0  0  0  0  0999 V2000
  145.5810   71.7870  217.0060 C   0  0  0  0  0  0  0  0  0  0  0  0
  145.9440   71.2250  218.2660 N   0  0  0  0  0  0  0  0  0  0  0  0
  146.2180   69.8260  218.2280 C   0  0  0  0  0  0  0  0  0  0  0  0
  145.1930   71.6690  219.3930 C   0  0  0  0  0  0  0  0  0  0  0  0
  145.2040   73.1450  219.5240 C   0  0  0  0  0  0  0  0  0  0  0  0
  144.1660   73.7700  220.3700 C   0  0  0  0  0  0  0  0  0  0  0  0
  143.0710   72.9630  220.7850 N   0  0  0  0  0  0  0  0  0  0  0  0
  141.8600   73.5930  221.2240 C   0  0  0  0  0  0  0  0  0  0  0  0
  140.7440   72.8610  221.5230 N   0  0  0  0  0  0  0  0  0  0  0  0
  139.6340   73.4570  221.9610 C   0  0  0  0  0  0  0  0  0  0  0  0
  138.4160   72.8590  222.3030 N   0  0  0  0  0  0  0  0  0  0  0  0
  137.8450   71.6080  221.8680 C   0  0  0  0  0  0  0  0  0  0  0  0
  138.6400   70.5010  222.4180 C   0  0  0  0  0  0  0  0  0  0  0  0
  138.8340   70.3730  223.8370 N   0  0  0  0  0  0  0  0  0  0  0  0
  138.7170   69.0550  224.3270 C   0  0  0  0  0  0  0  0  0  0  0  0
  138.9460   68.9500  225.8020 C   0  0  0  0  0  0  0  0  0  0  0  0
  139.8030   69.9790  226.4030 C   0  0  0  0  0  0  0  0  0  0  0  0
  140.0530   69.9680  227.7450 C   0  0  0  0  0  0  0  0  0  0  0  0
  140.8610   70.9540  228.3240 C   0  0  0  0  0  0  0  0  0  0  0  0
  141.4150   71.9550  227.5340 C   0  0  0  0  0  0  0  0  0  0  0  0
  141.1330   71.9230  226.1820 C   0  0  0  0  0  0  0  0  0  0  0  0
  140.3340   70.9480  225.6030 C   0  0  0  0  0  0  0  0  0  0  0  0
  140.1330   71.0170  224.1540 C   0  0  0  0  0  0  0  0  0  0  0  0
  139.6730   74.8060  222.0930 N   0  0  0  0  0  0  0  0  0  0  0  0
  140.7380   75.5710  221.8140 C   0  0  0  0  0  0  0  0  0  0  0  0
  140.5870   76.9610  222.0340 N   0  0  0  0  0  0  0  0  0  0  0  0
  139.7590   77.7020  221.0670 C   0  0  0  0  0  0  0  0  0  0  0  0
  140.6440   78.7030  220.3220 C   0  0  0  0  0  0  0  0  0  0  0  0
  141.1450   79.6220  221.4100 C   0  0  0  0  0  0  0  0  0  0  0  0
  141.3290   80.9390  221.0180 C   0  0  0  0  0  0  0  0  0  0  0  0
  141.7770   81.8690  221.9430 C   0  0  0  0  0  0  0  0  0  0  0  0
  142.0150   81.4250  223.2110 C   0  0  0  0  0  0  0  0  0  0  0  0
  141.8290   80.0950  223.6060 C   0  0  0  0  0  0  0  0  0  0  0  0
  141.3830   79.1660  222.6860 C   0  0  0  0  0  0  0  0  0  0  0  0
  141.1730   77.7340  223.0890 C   0  0  0  0  0  0  0  0  0  0  0  0
  141.8340   74.9590  221.3770 N   0  0  0  0  0  0  0  0  0  0  0  0
  143.1890   71.5320  220.7490 C   0  0  0  0  0  0  0  0  0  0  0  0
  143.7660   71.1570  219.3890 C   0  0  0  0  0  0  0  0  0  0  0  0
  144.9907   72.7009  217.1685 H   0  0  0  0  0  0  0  0  0  0  0  0
  146.4906   72.0340  216.4390 H   0  0  0  0  0  0  0  0  0  0  0  0
  144.9817   71.0594  216.4390 H   0  0  0  0  0  0  0  0  0  0  0  0
  146.2938   69.4392  219.2549 H   0  0  0  0  0  0  0  0  0  0  0  0
  145.4044   69.3072  217.6999 H   0  0  0  0  0  0  0  0  0  0  0  0
  147.1672   69.6525  217.6999 H   0  0  0  0  0  0  0  0  0  0  0  0
  145.6988   71.2378  220.2695 H   0  0  0  0  0  0  0  0  0  0  0  0
  146.1816   73.4300  219.9400 H   0  0  0  0  0  0  0  0  0  0  0  0
  144.9935   73.5144  218.5095 H   0  0  0  0  0  0  0  0  0  0  0  0
  144.6631   74.1401  221.2788 H   0  0  0  0  0  0  0  0  0  0  0  0
  143.7134   74.5399  219.7278 H   0  0  0  0  0  0  0  0  0  0  0  0
  137.8140   73.4130  222.9950 H   0  0  0  0  0  0  0  0  0  0  0  0
  136.8082   71.5313  222.2274 H   0  0  0  0  0  0  0  0  0  0  0  0
  137.8513   71.5593  220.7691 H   0  0  0  0  0  0  0  0  0  0  0  0
  138.1593   69.5707  222.0811 H   0  0  0  0  0  0  0  0  0  0  0  0
  139.6533   70.7191  222.0498 H   0  0  0  0  0  0  0  0  0  0  0  0
  137.7043   68.6880  224.1038 H   0  0  0  0  0  0  0  0  0  0  0  0
  139.4939   68.4532  223.8328 H   0  0  0  0  0  0  0  0  0  0  0  0
  137.9652   68.9996  226.2976 H   0  0  0  0  0  0  0  0  0  0  0  0
  139.4819   68.0006  225.9482 H   0  0  0  0  0  0  0  0  0  0  0  0
  139.6168   69.1793  228.3756 H   0  0  0  0  0  0  0  0  0  0  0  0
  141.0579   70.9367  229.4061 H   0  0  0  0  0  0  0  0  0  0  0  0
  142.0517   72.7402  227.9677 H   0  0  0  0  0  0  0  0  0  0  0  0
  141.5605   72.7045  225.5367 H   0  0  0  0  0  0  0  0  0  0  0  0
  140.1170   72.0679  223.8295 H   0  0  0  0  0  0  0  0  0  0  0  0
  140.9516   70.5010  223.6309 H   0  0  0  0  0  0  0  0  0  0  0  0
  139.3114   76.9990  220.3491 H   0  0  0  0  0  0  0  0  0  0  0  0
  138.9558   78.2360  221.5960 H   0  0  0  0  0  0  0  0  0  0  0  0
  141.4814   78.1914  219.8251 H   0  0  0  0  0  0  0  0  0  0  0  0
  140.1035   79.2394  219.5282 H   0  0  0  0  0  0  0  0  0  0  0  0
  141.1212   81.2434  219.9816 H   0  0  0  0  0  0  0  0  0  0  0  0
  141.9342   82.9219  221.6661 H   0  0  0  0  0  0  0  0  0  0  0  0
  142.3706   82.1479  223.9599 H   0  0  0  0  0  0  0  0  0  0  0  0
  142.0367   79.7915  224.6427 H   0  0  0  0  0  0  0  0  0  0  0  0
  142.1453   77.2933  223.3546 H   0  0  0  0  0  0  0  0  0  0  0  0
  140.4829   77.7192  223.9455 H   0  0  0  0  0  0  0  0  0  0  0  0
  143.8608   71.1897  221.5499 H   0  0  0  0  0  0  0  0  0  0  0  0
  142.2082   71.0572  220.8994 H   0  0  0  0  0  0  0  0  0  0  0  0
  143.7506   70.0655  219.2537 H   0  0  0  0  0  0  0  0  0  0  0  0
  143.1808   71.5927  218.5658 H   0  0  0  0  0  0  0  0  0  0  0  0
  1  2  1  0
  2  3  1  0
  2  4  1  0
  4  5  1  0
  5  6  1  0
  6  7  1  0
  7  8  1  0
  8  9  2  0
  9 10  1  0
 10 11  1  0
 11 12  1  0
 12 13  1  0
 13 14  1  0
 14 15  1  0
 15 16  1  0
 16 17  1  0
 17 18  2  0
 18 19  1  0
 19 20  2  0
 20 21  1  0
 21 22  2  0
 22 23  1  0
 10 24  2  0
 24 25  1  0
 25 26  1  0
 26 27  1  0
 27 28  1  0
 28 29  1  0
 29 30  2  0
 30 31  1  0
 31 32  2  0
 32 33  1  0
 33 34  2  0
 34 35  1  0
 25 36  2  0
  7 37  1  0
 37 38  1  0
 38  4  1  0
 36  8  1  0
 23 14  1  0
 35 26  1  0
 22 17  1  0
 34 29  1  0
  1 39  1  0
  1 40  1  0
  1 41  1  0
  3 42  1  0
  3 43  1  0
  3 44  1  0
  4 45  1  0
  5 46  1  0
  5 47  1  0
  6 48  1  0
  6 49  1  0
 11 50  1  0
 12 51  1  0
 12 52  1  0
 13 53  1  0
 13 54  1  0
 15 55  1  0
 15 56  1  0
 16 57  1  0
 16 58  1  0
 18 59  1  0
 19 60  1  0
 20 61  1  0
 21 62  1  0
 23 63  1  0
 23 64  1  0
 27 65  1  0
 27 66  1  0
 28 67  1  0
 28 68  1  0
 30 69  1  0
 31 70  1  0
 32 71  1  0
 33 72  1  0
 35 73  1  0
 35 74  1  0
 37 75  1  0
 37 76  1  0
 38 77  1  0
 38 78  1  0
M  END
>  <smiles>  (30) 
CN(C)C1CCN(c2nc(NCCN3CCc4ccccc4C3)nc(N3CCc4ccccc4C3)n2)CC1

>  <score_type>  (30) 
oracle

>  <origin>  (30) 
autodockgpu

>  <m_score__min__energy>  (30) 
-11.130000000000001

>  <m_primary>  (30) 
energy

>  <rmsd>  (30) 
4.0176261577748

>  <m_score__min__rmsd>  (30) 
4.0176261577748

>  <meeko>  (30) 
{"free_energy": -11.06, "intermolecular_energy": -13.15, "internal_energy": -1.51, "cluster_size": 16, "cluster_id": 1, "rank_in_cluster": 3}

>  <energy>  (30) 
-10.3

>  <cluster_rmsd>  (30) 
0.0

>  <cluster>  (30) 
3

$$$$

     RDKit          3D

 78 83  0  0  0  0  0  0  0  0999 V2000
  142.9120   80.4400  223.6780 C   0  0  0  0  0  0  0  0  0  0  0  0
  142.1790   80.5720  222.4610 N   0  0  0  0  0  0  0  0  0  0  0  0
  141.5850   81.8540  222.2690 C   0  0  0  0  0  0  0  0  0  0  0  0
  141.3640   79.4610  222.0940 C   0  0  0  0  0  0  0  0  0  0  0  0
  141.8150   78.8330  220.8300 C   0  0  0  0  0  0  0  0  0  0  0  0
  141.3490   77.4610  220.5360 C   0  0  0  0  0  0  0  0  0  0  0  0
  140.7280   76.7300  221.5860 N   0  0  0  0  0  0  0  0  0  0  0  0
  140.6490   75.3020  221.4970 C   0  0  0  0  0  0  0  0  0  0  0  0
  139.6170   74.6080  222.0660 N   0  0  0  0  0  0  0  0  0  0  0  0
  139.5380   73.2820  221.9480 C   0  0  0  0  0  0  0  0  0  0  0  0
  138.5590   72.4300  222.4710 N   0  0  0  0  0  0  0  0  0  0  0  0
  138.0320   71.1940  221.9470 C   0  0  0  0  0  0  0  0  0  0  0  0
  138.7840   70.0700  222.5240 C   0  0  0  0  0  0  0  0  0  0  0  0
  139.0220   70.0000  223.9410 N   0  0  0  0  0  0  0  0  0  0  0  0
  139.0910   68.6880  224.4560 C   0  0  0  0  0  0  0  0  0  0  0  0
  139.3610   68.6460  225.9280 C   0  0  0  0  0  0  0  0  0  0  0  0
  140.0860   69.7920  226.4900 C   0  0  0  0  0  0  0  0  0  0  0  0
  140.3630   69.8420  227.8270 C   0  0  0  0  0  0  0  0  0  0  0  0
  141.0430   70.9390  228.3680 C   0  0  0  0  0  0  0  0  0  0  0  0
  141.4440   71.9870  227.5480 C   0  0  0  0  0  0  0  0  0  0  0  0
  141.1410   71.8890  226.2030 C   0  0  0  0  0  0  0  0  0  0  0  0
  140.4670   70.8050  225.6610 C   0  0  0  0  0  0  0  0  0  0  0  0
  140.2300   70.8170  224.2160 C   0  0  0  0  0  0  0  0  0  0  0  0
  140.5220   72.6700  221.2440 N   0  0  0  0  0  0  0  0  0  0  0  0
  141.5560   73.2990  220.6670 C   0  0  0  0  0  0  0  0  0  0  0  0
  142.4700   72.4840  219.9590 N   0  0  0  0  0  0  0  0  0  0  0  0
  141.9010   71.3920  219.1510 C   0  0  0  0  0  0  0  0  0  0  0  0
  142.3550   70.0540  219.7370 C   0  0  0  0  0  0  0  0  0  0  0  0
  143.8580   70.0910  219.5980 C   0  0  0  0  0  0  0  0  0  0  0  0
  144.4490   68.8610  219.3550 C   0  0  0  0  0  0  0  0  0  0  0  0
  145.8250   68.7840  219.2010 C   0  0  0  0  0  0  0  0  0  0  0  0
  146.5310   69.9480  219.3000 C   0  0  0  0  0  0  0  0  0  0  0  0
  145.9330   71.1900  219.5460 C   0  0  0  0  0  0  0  0  0  0  0  0
  144.5630   71.2680  219.6990 C   0  0  0  0  0  0  0  0  0  0  0  0
  143.8990   72.5910  219.9590 C   0  0  0  0  0  0  0  0  0  0  0  0
  141.6170   74.6210  220.7970 N   0  0  0  0  0  0  0  0  0  0  0  0
  140.1990   77.4320  222.7220 C   0  0  0  0  0  0  0  0  0  0  0  0
  141.2650   78.4160  223.1880 C   0  0  0  0  0  0  0  0  0  0  0  0
  142.2298   80.5629  224.5321 H   0  0  0  0  0  0  0  0  0  0  0  0
  143.3765   79.4438  223.7201 H   0  0  0  0  0  0  0  0  0  0  0  0
  143.6948   81.2116  223.7201 H   0  0  0  0  0  0  0  0  0  0  0  0
  141.3736   82.3104  223.2473 H   0  0  0  0  0  0  0  0  0  0  0  0
  142.2765   82.4979  221.7058 H   0  0  0  0  0  0  0  0  0  0  0  0
  140.6467   81.7427  221.7058 H   0  0  0  0  0  0  0  0  0  0  0  0
  140.3572   79.8757  221.9376 H   0  0  0  0  0  0  0  0  0  0  0  0
  141.4777   79.4777  220.0050 H   0  0  0  0  0  0  0  0  0  0  0  0
  142.9050   78.7366  220.9427 H   0  0  0  0  0  0  0  0  0  0  0  0
  140.6237   77.5309  219.7120 H   0  0  0  0  0  0  0  0  0  0  0  0
  142.2682   76.8989  220.3146 H   0  0  0  0  0  0  0  0  0  0  0  0
  138.1340   72.7420  223.4040 H   0  0  0  0  0  0  0  0  0  0  0  0
  136.9691   71.1031  222.2154 H   0  0  0  0  0  0  0  0  0  0  0  0
  138.1299   71.1832  220.8514 H   0  0  0  0  0  0  0  0  0  0  0  0
  138.2401   69.1538  222.2504 H   0  0  0  0  0  0  0  0  0  0  0  0
  139.7937   70.2107  222.1108 H   0  0  0  0  0  0  0  0  0  0  0  0
  138.1320   68.1853  224.2619 H   0  0  0  0  0  0  0  0  0  0  0  0
  139.9305   68.1838  223.9550 H   0  0  0  0  0  0  0  0  0  0  0  0
  138.3922   68.5766  226.4444 H   0  0  0  0  0  0  0  0  0  0  0  0
  140.0205   67.7789  226.0802 H   0  0  0  0  0  0  0  0  0  0  0  0
  140.0498   69.0155  228.4818 H   0  0  0  0  0  0  0  0  0  0  0  0
  141.2608   70.9719  229.4457 H   0  0  0  0  0  0  0  0  0  0  0  0
  141.9802   72.8581  227.9525 H   0  0  0  0  0  0  0  0  0  0  0  0
  141.4478   72.7062  225.5336 H   0  0  0  0  0  0  0  0  0  0  0  0
  140.0679   71.8496  223.8732 H   0  0  0  0  0  0  0  0  0  0  0  0
  141.0993   70.4038  223.6834 H   0  0  0  0  0  0  0  0  0  0  0  0
  140.8028   71.4507  219.1719 H   0  0  0  0  0  0  0  0  0  0  0  0
  142.2461   71.4795  218.1102 H   0  0  0  0  0  0  0  0  0  0  0  0
  142.0612   69.9692  220.7936 H   0  0  0  0  0  0  0  0  0  0  0  0
  141.9019   69.1909  219.2274 H   0  0  0  0  0  0  0  0  0  0  0  0
  143.8316   67.9533  219.2849 H   0  0  0  0  0  0  0  0  0  0  0  0
  146.3268   67.8245  219.0071 H   0  0  0  0  0  0  0  0  0  0  0  0
  147.6238   69.9084  219.1806 H   0  0  0  0  0  0  0  0  0  0  0  0
  146.5506   72.0975  219.6169 H   0  0  0  0  0  0  0  0  0  0  0  0
  144.2270   72.9663  220.9396 H   0  0  0  0  0  0  0  0  0  0  0  0
  144.1879   73.2804  219.1520 H   0  0  0  0  0  0  0  0  0  0  0  0
  139.2858   77.9747  222.4365 H   0  0  0  0  0  0  0  0  0  0  0  0
  139.9419   76.7284  223.5275 H   0  0  0  0  0  0  0  0  0  0  0  0
  140.9671   78.8827  224.1385 H   0  0  0  0  0  0  0  0  0  0  0  0
  142.2299   77.9174  223.3621 H   0  0  0  0  0  0  0  0  0  0  0  0
  1  2  1  0
  2  3  1  0
  2  4  1  0
  4  5  1  0
  5  6  1  0
  6  7  1  0
  7  8  1  0
  8  9  2  0
  9 10  1  0
 10 11  1  0
 11 12  1  0
 12 13  1  0
 13 14  1  0
 14 15  1  0
 15 16  1  0
 16 17  1  0
 17 18  2  0
 18 19  1  0
 19 20  2  0
 20 21  1  0
 21 22  2  0
 22 23  1  0
 10 24  2  0
 24 25  1  0
 25 26  1  0
 26 27  1  0
 27 28  1  0
 28 29  1  0
 29 30  2  0
 30 31  1  0
 31 32  2  0
 32 33  1  0
 33 34  2  0
 34 35  1  0
 25 36  2  0
  7 37  1  0
 37 38  1  0
 38  4  1  0
 36  8  1  0
 23 14  1  0
 35 26  1  0
 22 17  1  0
 34 29  1  0
  1 39  1  0
  1 40  1  0
  1 41  1  0
  3 42  1  0
  3 43  1  0
  3 44  1  0
  4 45  1  0
  5 46  1  0
  5 47  1  0
  6 48  1  0
  6 49  1  0
 11 50  1  0
 12 51  1  0
 12 52  1  0
 13 53  1  0
 13 54  1  0
 15 55  1  0
 15 56  1  0
 16 57  1  0
 16 58  1  0
 18 59  1  0
 19 60  1  0
 20 61  1  0
 21 62  1  0
 23 63  1  0
 23 64  1  0
 27 65  1  0
 27 66  1  0
 28 67  1  0
 28 68  1  0
 30 69  1  0
 31 70  1  0
 32 71  1  0
 33 72  1  0
 35 73  1  0
 35 74  1  0
 37 75  1  0
 37 76  1  0
 38 77  1  0
 38 78  1  0
M  END
>  <smiles>  (31) 
CN(C)C1CCN(c2nc(NCCN3CCc4ccccc4C3)nc(N3CCc4ccccc4C3)n2)CC1

>  <score_type>  (31) 
oracle

>  <origin>  (31) 
autodockgpu

>  <m_score__min__energy>  (31) 
-11.130000000000001

>  <m_primary>  (31) 
energy

>  <rmsd>  (31) 
4.132548227133692

>  <m_score__min__rmsd>  (31) 
4.132548227133692

>  <meeko>  (31) 
{"free_energy": -10.56, "intermolecular_energy": -12.65, "internal_energy": -1.57, "cluster_size": 13, "cluster_id": 2, "rank_in_cluster": 2}

>  <energy>  (31) 
-10.27

>  <cluster_rmsd>  (31) 
0.32

>  <cluster>  (31) 
3

$$$$

     RDKit          3D

 78 83  0  0  0  0  0  0  0  0999 V2000
  141.4230   81.5570  222.9260 C   0  0  0  0  0  0  0  0  0  0  0  0
  141.5690   80.1580  223.1680 N   0  0  0  0  0  0  0  0  0  0  0  0
  142.9160   79.6910  223.1140 C   0  0  0  0  0  0  0  0  0  0  0  0
  140.6030   79.3090  222.5520 C   0  0  0  0  0  0  0  0  0  0  0  0
  141.1980   78.0340  222.0880 C   0  0  0  0  0  0  0  0  0  0  0  0
  140.2840   76.9060  221.8110 C   0  0  0  0  0  0  0  0  0  0  0  0
  138.9380   77.0160  222.2560 N   0  0  0  0  0  0  0  0  0  0  0  0
  138.1460   75.8300  222.4000 C   0  0  0  0  0  0  0  0  0  0  0  0
  138.5590   74.6310  221.8900 N   0  0  0  0  0  0  0  0  0  0  0  0
  137.8270   73.5290  222.0580 C   0  0  0  0  0  0  0  0  0  0  0  0
  138.1030   72.2360  221.5980 N   0  0  0  0  0  0  0  0  0  0  0  0
  139.3550   71.5240  221.5340 C   0  0  0  0  0  0  0  0  0  0  0  0
  139.2120   70.2390  222.2340 C   0  0  0  0  0  0  0  0  0  0  0  0
  139.2110   70.1840  223.6710 N   0  0  0  0  0  0  0  0  0  0  0  0
  139.0440   68.8880  224.2050 C   0  0  0  0  0  0  0  0  0  0  0  0
  139.0700   68.8590  225.7010 C   0  0  0  0  0  0  0  0  0  0  0  0
  139.8250   69.9320  226.3610 C   0  0  0  0  0  0  0  0  0  0  0  0
  139.8890   69.9900  227.7240 C   0  0  0  0  0  0  0  0  0  0  0  0
  140.5970   71.0180  228.3570 C   0  0  0  0  0  0  0  0  0  0  0  0
  141.2430   71.9890  227.6000 C   0  0  0  0  0  0  0  0  0  0  0  0
  141.1490   71.8870  226.2260 C   0  0  0  0  0  0  0  0  0  0  0  0
  140.4480   70.8710  225.5930 C   0  0  0  0  0  0  0  0  0  0  0  0
  140.4470   70.8660  224.1290 C   0  0  0  0  0  0  0  0  0  0  0  0
  136.6700   73.6610  222.7530 N   0  0  0  0  0  0  0  0  0  0  0  0
  136.2170   74.8110  223.2740 C   0  0  0  0  0  0  0  0  0  0  0  0
  134.9950   74.7390  223.9830 N   0  0  0  0  0  0  0  0  0  0  0  0
  134.1900   75.9710  224.0480 C   0  0  0  0  0  0  0  0  0  0  0  0
  134.1140   76.4370  225.5030 C   0  0  0  0  0  0  0  0  0  0  0  0
  133.4100   75.3030  226.2090 C   0  0  0  0  0  0  0  0  0  0  0  0
  132.5940   75.6900  227.2600 C   0  0  0  0  0  0  0  0  0  0  0  0
  131.8930   74.7280  227.9700 C   0  0  0  0  0  0  0  0  0  0  0  0
  132.0510   73.4280  227.5840 C   0  0  0  0  0  0  0  0  0  0  0  0
  132.8750   73.0370  226.5220 C   0  0  0  0  0  0  0  0  0  0  0  0
  133.5750   73.9950  225.8140 C   0  0  0  0  0  0  0  0  0  0  0  0
  134.4620   73.5990  224.6680 C   0  0  0  0  0  0  0  0  0  0  0  0
  136.9610   75.8980  223.0940 N   0  0  0  0  0  0  0  0  0  0  0  0
  138.3960   78.3100  222.5640 C   0  0  0  0  0  0  0  0  0  0  0  0
  139.4090   79.0310  223.4440 C   0  0  0  0  0  0  0  0  0  0  0  0
  141.3672   82.0913  223.8859 H   0  0  0  0  0  0  0  0  0  0  0  0
  142.2879   81.9222  222.3528 H   0  0  0  0  0  0  0  0  0  0  0  0
  140.5013   81.7357  222.3528 H   0  0  0  0  0  0  0  0  0  0  0  0
  143.2993   79.5581  224.1365 H   0  0  0  0  0  0  0  0  0  0  0  0
  142.9494   78.7288  222.5819 H   0  0  0  0  0  0  0  0  0  0  0  0
  143.5378   80.4260  222.5819 H   0  0  0  0  0  0  0  0  0  0  0  0
  140.2414   79.8655  221.6748 H   0  0  0  0  0  0  0  0  0  0  0  0
  141.7465   78.2473  221.1587 H   0  0  0  0  0  0  0  0  0  0  0  0
  141.8115   77.6912  222.9342 H   0  0  0  0  0  0  0  0  0  0  0  0
  140.2581   76.7655  220.7203 H   0  0  0  0  0  0  0  0  0  0  0  0
  140.6981   76.0668  222.3892 H   0  0  0  0  0  0  0  0  0  0  0  0
  137.2540   71.6890  221.2390 H   0  0  0  0  0  0  0  0  0  0  0  0
  139.6230   71.3432  220.4826 H   0  0  0  0  0  0  0  0  0  0  0  0
  140.1464   72.1207  222.0111 H   0  0  0  0  0  0  0  0  0  0  0  0
  138.2577   69.8043  221.9019 H   0  0  0  0  0  0  0  0  0  0  0  0
  140.1387   69.7094  221.9681 H   0  0  0  0  0  0  0  0  0  0  0  0
  138.0761   68.4916  223.8644 H   0  0  0  0  0  0  0  0  0  0  0  0
  139.8880   68.2775  223.8515 H   0  0  0  0  0  0  0  0  0  0  0  0
  138.0301   68.9146  226.0551 H   0  0  0  0  0  0  0  0  0  0  0  0
  139.5919   67.9279  225.9666 H   0  0  0  0  0  0  0  0  0  0  0  0
  139.3809   69.2239  228.3281 H   0  0  0  0  0  0  0  0  0  0  0  0
  140.6425   71.0578  229.4553 H   0  0  0  0  0  0  0  0  0  0  0  0
  141.8060   72.8052  228.0762 H   0  0  0  0  0  0  0  0  0  0  0  0
  141.6518   72.6443  225.6066 H   0  0  0  0  0  0  0  0  0  0  0  0
  140.4639   71.8995  223.7526 H   0  0  0  0  0  0  0  0  0  0  0  0
  141.3354   70.3402  223.7491 H   0  0  0  0  0  0  0  0  0  0  0  0
  134.6611   76.7527  223.4340 H   0  0  0  0  0  0  0  0  0  0  0  0
  133.1772   75.7751  223.6660 H   0  0  0  0  0  0  0  0  0  0  0  0
  135.1209   76.5918  225.9179 H   0  0  0  0  0  0  0  0  0  0  0  0
  133.5902   77.3978  225.6148 H   0  0  0  0  0  0  0  0  0  0  0  0
  132.5033   76.7528  227.5288 H   0  0  0  0  0  0  0  0  0  0  0  0
  131.2367   75.0006  228.8096 H   0  0  0  0  0  0  0  0  0  0  0  0
  131.5035   72.6490  228.1349 H   0  0  0  0  0  0  0  0  0  0  0  0
  132.9646   71.9742  226.2530 H   0  0  0  0  0  0  0  0  0  0  0  0
  135.2961   72.9961  225.0564 H   0  0  0  0  0  0  0  0  0  0  0  0
  133.8558   73.0250  223.9517 H   0  0  0  0  0  0  0  0  0  0  0  0
  138.2311   78.8788  221.6370 H   0  0  0  0  0  0  0  0  0  0  0  0
  137.4307   78.2132  223.0825 H   0  0  0  0  0  0  0  0  0  0  0  0
  138.9859   79.9729  223.8231 H   0  0  0  0  0  0  0  0  0  0  0  0
  139.6885   78.4271  224.3199 H   0  0  0  0  0  0  0  0  0  0  0  0
  1  2  1  0
  2  3  1  0
  2  4  1  0
  4  5  1  0
  5  6  1  0
  6  7  1  0
  7  8  1  0
  8  9  2  0
  9 10  1  0
 10 11  1  0
 11 12  1  0
 12 13  1  0
 13 14  1  0
 14 15  1  0
 15 16  1  0
 16 17  1  0
 17 18  2  0
 18 19  1  0
 19 20  2  0
 20 21  1  0
 21 22  2  0
 22 23  1  0
 10 24  2  0
 24 25  1  0
 25 26  1  0
 26 27  1  0
 27 28  1  0
 28 29  1  0
 29 30  2  0
 30 31  1  0
 31 32  2  0
 32 33  1  0
 33 34  2  0
 34 35  1  0
 25 36  2  0
  7 37  1  0
 37 38  1  0
 38  4  1  0
 36  8  1  0
 23 14  1  0
 35 26  1  0
 22 17  1  0
 34 29  1  0
  1 39  1  0
  1 40  1  0
  1 41  1  0
  3 42  1  0
  3 43  1  0
  3 44  1  0
  4 45  1  0
  5 46  1  0
  5 47  1  0
  6 48  1  0
  6 49  1  0
 11 50  1  0
 12 51  1  0
 12 52  1  0
 13 53  1  0
 13 54  1  0
 15 55  1  0
 15 56  1  0
 16 57  1  0
 16 58  1  0
 18 59  1  0
 19 60  1  0
 20 61  1  0
 21 62  1  0
 23 63  1  0
 23 64  1  0
 27 65  1  0
 27 66  1  0
 28 67  1  0
 28 68  1  0
 30 69  1  0
 31 70  1  0
 32 71  1  0
 33 72  1  0
 35 73  1  0
 35 74  1  0
 37 75  1  0
 37 76  1  0
 38 77  1  0
 38 78  1  0
M  END
>  <smiles>  (32) 
CN(C)C1CCN(c2nc(NCCN3CCc4ccccc4C3)nc(N3CCc4ccccc4C3)n2)CC1

>  <score_type>  (32) 
oracle

>  <origin>  (32) 
autodockgpu

>  <m_score__min__energy>  (32) 
-11.130000000000001

>  <m_primary>  (32) 
energy

>  <rmsd>  (32) 
4.135392311280257

>  <m_score__min__rmsd>  (32) 
4.135392311280257

>  <meeko>  (32) 
{"free_energy": -9.8, "intermolecular_energy": -11.89, "internal_energy": -1.29, "cluster_size": 6, "cluster_id": 4, "rank_in_cluster": 4}

>  <energy>  (32) 
-10.05

>  <cluster_rmsd>  (32) 
0.54

>  <cluster>  (32) 
3

$$$$

     RDKit          3D

 78 83  0  0  0  0  0  0  0  0999 V2000
  142.9230   80.4480  223.6550 C   0  0  0  0  0  0  0  0  0  0  0  0
  142.1670   80.5940  222.4530 N   0  0  0  0  0  0  0  0  0  0  0  0
  141.5550   81.8730  222.2960 C   0  0  0  0  0  0  0  0  0  0  0  0
  141.3600   79.4800  222.0780 C   0  0  0  0  0  0  0  0  0  0  0  0
  141.8240   78.8530  220.8190 C   0  0  0  0  0  0  0  0  0  0  0  0
  141.3650   77.4810  220.5210 C   0  0  0  0  0  0  0  0  0  0  0  0
  140.7370   76.7480  221.5650 N   0  0  0  0  0  0  0  0  0  0  0  0
  140.6630   75.3190  221.4760 C   0  0  0  0  0  0  0  0  0  0  0  0
  139.6330   74.6220  222.0430 N   0  0  0  0  0  0  0  0  0  0  0  0
  139.5590   73.2950  221.9260 C   0  0  0  0  0  0  0  0  0  0  0  0
  138.5820   72.4400  222.4470 N   0  0  0  0  0  0  0  0  0  0  0  0
  138.0480   71.2110  221.9140 C   0  0  0  0  0  0  0  0  0  0  0  0
  138.7820   70.0780  222.4940 C   0  0  0  0  0  0  0  0  0  0  0  0
  139.0140   70.0040  223.9110 N   0  0  0  0  0  0  0  0  0  0  0  0
  139.0840   68.6910  224.4240 C   0  0  0  0  0  0  0  0  0  0  0  0
  139.3480   68.6470  225.8970 C   0  0  0  0  0  0  0  0  0  0  0  0
  140.0690   69.7930  226.4650 C   0  0  0  0  0  0  0  0  0  0  0  0
  140.3400   69.8410  227.8020 C   0  0  0  0  0  0  0  0  0  0  0  0
  141.0160   70.9380  228.3490 C   0  0  0  0  0  0  0  0  0  0  0  0
  141.4180   71.9880  227.5330 C   0  0  0  0  0  0  0  0  0  0  0  0
  141.1210   71.8930  226.1860 C   0  0  0  0  0  0  0  0  0  0  0  0
  140.4510   70.8090  225.6390 C   0  0  0  0  0  0  0  0  0  0  0  0
  140.2190   70.8230  224.1930 C   0  0  0  0  0  0  0  0  0  0  0  0
  140.5460   72.6870  221.2220 N   0  0  0  0  0  0  0  0  0  0  0  0
  141.5780   73.3200  220.6470 C   0  0  0  0  0  0  0  0  0  0  0  0
  142.4960   72.5080  219.9390 N   0  0  0  0  0  0  0  0  0  0  0  0
  141.9310   71.4180  219.1250 C   0  0  0  0  0  0  0  0  0  0  0  0
  142.3840   70.0790  219.7080 C   0  0  0  0  0  0  0  0  0  0  0  0
  143.8880   70.1180  219.5750 C   0  0  0  0  0  0  0  0  0  0  0  0
  144.4810   68.8890  219.3300 C   0  0  0  0  0  0  0  0  0  0  0  0
  145.8570   68.8140  219.1820 C   0  0  0  0  0  0  0  0  0  0  0  0
  146.5610   69.9780  219.2880 C   0  0  0  0  0  0  0  0  0  0  0  0
  145.9610   71.2190  219.5350 C   0  0  0  0  0  0  0  0  0  0  0  0
  144.5900   71.2960  219.6830 C   0  0  0  0  0  0  0  0  0  0  0  0
  143.9250   72.6160  219.9450 C   0  0  0  0  0  0  0  0  0  0  0  0
  141.6340   74.6420  220.7770 N   0  0  0  0  0  0  0  0  0  0  0  0
  140.1950   77.4480  222.6960 C   0  0  0  0  0  0  0  0  0  0  0  0
  141.2530   78.4350  223.1710 C   0  0  0  0  0  0  0  0  0  0  0  0
  142.2598   80.5761  224.5232 H   0  0  0  0  0  0  0  0  0  0  0  0
  143.3756   79.4458  223.6841 H   0  0  0  0  0  0  0  0  0  0  0  0
  143.7162   81.2095  223.6841 H   0  0  0  0  0  0  0  0  0  0  0  0
  141.3484   82.3047  223.2864 H   0  0  0  0  0  0  0  0  0  0  0  0
  142.2325   82.5379  221.7403 H   0  0  0  0  0  0  0  0  0  0  0  0
  140.6121   81.7626  221.7403 H   0  0  0  0  0  0  0  0  0  0  0  0
  140.3539   79.8923  221.9114 H   0  0  0  0  0  0  0  0  0  0  0  0
  141.4926   79.4966  219.9908 H   0  0  0  0  0  0  0  0  0  0  0  0
  142.9131   78.7593  220.9421 H   0  0  0  0  0  0  0  0  0  0  0  0
  140.6468   77.5490  219.6906 H   0  0  0  0  0  0  0  0  0  0  0  0
  142.2879   76.9216  220.3078 H   0  0  0  0  0  0  0  0  0  0  0  0
  138.1670   72.7410  223.3880 H   0  0  0  0  0  0  0  0  0  0  0  0
  136.9817   71.1301  222.1716 H   0  0  0  0  0  0  0  0  0  0  0  0
  138.1571   71.2027  220.8195 H   0  0  0  0  0  0  0  0  0  0  0  0
  138.2269   69.1693  222.2183 H   0  0  0  0  0  0  0  0  0  0  0  0
  139.7951   70.2060  222.0852 H   0  0  0  0  0  0  0  0  0  0  0  0
  138.1270   68.1864  224.2250 H   0  0  0  0  0  0  0  0  0  0  0  0
  139.9267   68.1896  223.9256 H   0  0  0  0  0  0  0  0  0  0  0  0
  138.3771   68.5751  226.4091 H   0  0  0  0  0  0  0  0  0  0  0  0
  140.0086   67.7809  226.0500 H   0  0  0  0  0  0  0  0  0  0  0  0
  140.0252   69.0126  228.4536 H   0  0  0  0  0  0  0  0  0  0  0  0
  141.2294   70.9687  229.4277 H   0  0  0  0  0  0  0  0  0  0  0  0
  141.9507   72.8593  227.9418 H   0  0  0  0  0  0  0  0  0  0  0  0
  141.4293   72.7122  225.5198 H   0  0  0  0  0  0  0  0  0  0  0  0
  140.0559   71.8559  223.8516 H   0  0  0  0  0  0  0  0  0  0  0  0
  141.0912   70.4123  223.6633 H   0  0  0  0  0  0  0  0  0  0  0  0
  140.8326   71.4755  219.1420 H   0  0  0  0  0  0  0  0  0  0  0  0
  142.2799   71.5093  218.0858 H   0  0  0  0  0  0  0  0  0  0  0  0
  142.0862   69.9903  220.7632 H   0  0  0  0  0  0  0  0  0  0  0  0
  141.9338   69.2172  219.1936 H   0  0  0  0  0  0  0  0  0  0  0  0
  143.8646   67.9811  219.2537 H   0  0  0  0  0  0  0  0  0  0  0  0
  146.3607   67.8557  218.9872 H   0  0  0  0  0  0  0  0  0  0  0  0
  147.6544   69.9397  219.1737 H   0  0  0  0  0  0  0  0  0  0  0  0
  146.5777   72.1267  219.6107 H   0  0  0  0  0  0  0  0  0  0  0  0
  144.2489   72.9878  220.9283 H   0  0  0  0  0  0  0  0  0  0  0  0
  144.2167   73.3086  219.1418 H   0  0  0  0  0  0  0  0  0  0  0  0
  139.2825   77.9875  222.4022 H   0  0  0  0  0  0  0  0  0  0  0  0
  139.9327   76.7437  223.4992 H   0  0  0  0  0  0  0  0  0  0  0  0
  140.9447   78.9012  224.1184 H   0  0  0  0  0  0  0  0  0  0  0  0
  142.2176   77.9390  223.3541 H   0  0  0  0  0  0  0  0  0  0  0  0
  1  2  1  0
  2  3  1  0
  2  4  1  0
  4  5  1  0
  5  6  1  0
  6  7  1  0
  7  8  1  0
  8  9  2  0
  9 10  1  0
 10 11  1  0
 11 12  1  0
 12 13  1  0
 13 14  1  0
 14 15  1  0
 15 16  1  0
 16 17  1  0
 17 18  2  0
 18 19  1  0
 19 20  2  0
 20 21  1  0
 21 22  2  0
 22 23  1  0
 10 24  2  0
 24 25  1  0
 25 26  1  0
 26 27  1  0
 27 28  1  0
 28 29  1  0
 29 30  2  0
 30 31  1  0
 31 32  2  0
 32 33  1  0
 33 34  2  0
 34 35  1  0
 25 36  2  0
  7 37  1  0
 37 38  1  0
 38  4  1  0
 36  8  1  0
 23 14  1  0
 35 26  1  0
 22 17  1  0
 34 29  1  0
  1 39  1  0
  1 40  1  0
  1 41  1  0
  3 42  1  0
  3 43  1  0
  3 44  1  0
  4 45  1  0
  5 46  1  0
  5 47  1  0
  6 48  1  0
  6 49  1  0
 11 50  1  0
 12 51  1  0
 12 52  1  0
 13 53  1  0
 13 54  1  0
 15 55  1  0
 15 56  1  0
 16 57  1  0
 16 58  1  0
 18 59  1  0
 19 60  1  0
 20 61  1  0
 21 62  1  0
 23 63  1  0
 23 64  1  0
 27 65  1  0
 27 66  1  0
 28 67  1  0
 28 68  1  0
 30 69  1  0
 31 70  1  0
 32 71  1  0
 33 72  1  0
 35 73  1  0
 35 74  1  0
 37 75  1  0
 37 76  1  0
 38 77  1  0
 38 78  1  0
M  END
>  <smiles>  (33) 
CN(C)C1CCN(c2nc(NCCN3CCc4ccccc4C3)nc(N3CCc4ccccc4C3)n2)CC1

>  <score_type>  (33) 
oracle

>  <origin>  (33) 
autodockgpu

>  <m_score__min__energy>  (33) 
-11.130000000000001

>  <m_primary>  (33) 
energy

>  <rmsd>  (33) 
4.121706561761142

>  <m_score__min__rmsd>  (33) 
4.121706561761142

>  <meeko>  (33) 
{"free_energy": -10.58, "intermolecular_energy": -12.67, "internal_energy": -1.56, "cluster_size": 13, "cluster_id": 2, "rank_in_cluster": 1}

>  <energy>  (33) 
-9.9

>  <cluster_rmsd>  (33) 
0.77

>  <cluster>  (33) 
3

$$$$

     RDKit          3D

 78 83  0  0  0  0  0  0  0  0999 V2000
  141.7430   79.8610  219.6070 C   0  0  0  0  0  0  0  0  0  0  0  0
  141.0760   79.6190  220.8450 N   0  0  0  0  0  0  0  0  0  0  0  0
  141.7580   80.1280  221.9900 C   0  0  0  0  0  0  0  0  0  0  0  0
  140.4950   78.3270  221.0050 C   0  0  0  0  0  0  0  0  0  0  0  0
  140.6190   77.5040  219.7790 C   0  0  0  0  0  0  0  0  0  0  0  0
  140.4440   76.0420  219.9080 C   0  0  0  0  0  0  0  0  0  0  0  0
  140.4390   75.4870  221.2170 N   0  0  0  0  0  0  0  0  0  0  0  0
  140.6990   74.0870  221.3880 C   0  0  0  0  0  0  0  0  0  0  0  0
  141.3850   73.3690  220.4470 N   0  0  0  0  0  0  0  0  0  0  0  0
  141.6480   72.0760  220.6330 C   0  0  0  0  0  0  0  0  0  0  0  0
  142.3270   71.2050  219.7730 N   0  0  0  0  0  0  0  0  0  0  0  0
  143.7340   70.9030  219.6840 C   0  0  0  0  0  0  0  0  0  0  0  0
  144.5050   72.1310  219.9270 C   0  0  0  0  0  0  0  0  0  0  0  0
  144.0040   73.4070  219.4920 N   0  0  0  0  0  0  0  0  0  0  0  0
  144.2860   74.4750  220.3690 C   0  0  0  0  0  0  0  0  0  0  0  0
  143.7720   75.7930  219.8790 C   0  0  0  0  0  0  0  0  0  0  0  0
  143.6300   75.9370  218.4260 C   0  0  0  0  0  0  0  0  0  0  0  0
  143.1550   77.1010  217.8930 C   0  0  0  0  0  0  0  0  0  0  0  0
  143.0050   77.2380  216.5080 C   0  0  0  0  0  0  0  0  0  0  0  0
  143.3410   76.1870  215.6630 C   0  0  0  0  0  0  0  0  0  0  0  0
  143.8170   75.0300  216.2490 C   0  0  0  0  0  0  0  0  0  0  0  0
  143.9670   74.8890  217.6210 C   0  0  0  0  0  0  0  0  0  0  0  0
  144.5040   73.6180  218.1100 C   0  0  0  0  0  0  0  0  0  0  0  0
  141.2080   71.5200  221.7890 N   0  0  0  0  0  0  0  0  0  0  0  0
  140.5310   72.1760  222.7440 C   0  0  0  0  0  0  0  0  0  0  0  0
  140.1730   71.4230  223.8880 N   0  0  0  0  0  0  0  0  0  0  0  0
  140.6950   71.8910  225.1830 C   0  0  0  0  0  0  0  0  0  0  0  0
  141.6520   70.8370  225.7420 C   0  0  0  0  0  0  0  0  0  0  0  0
  140.7790   69.6190  225.9280 C   0  0  0  0  0  0  0  0  0  0  0  0
  141.1190   68.8210  227.0090 C   0  0  0  0  0  0  0  0  0  0  0  0
  140.3740   67.6820  227.2770 C   0  0  0  0  0  0  0  0  0  0  0  0
  139.3290   67.4090  226.4430 C   0  0  0  0  0  0  0  0  0  0  0  0
  138.9850   68.2170  225.3520 C   0  0  0  0  0  0  0  0  0  0  0  0
  139.7260   69.3510  225.0840 C   0  0  0  0  0  0  0  0  0  0  0  0
  139.3740   70.2340  223.9210 C   0  0  0  0  0  0  0  0  0  0  0  0
  140.2770   73.4650  222.5390 N   0  0  0  0  0  0  0  0  0  0  0  0
  140.1810   76.3350  222.3480 C   0  0  0  0  0  0  0  0  0  0  0  0
  141.0540   77.5740  222.1960 C   0  0  0  0  0  0  0  0  0  0  0  0
  142.7602   80.2301  219.8046 H   0  0  0  0  0  0  0  0  0  0  0  0
  141.7978   78.9254  219.0310 H   0  0  0  0  0  0  0  0  0  0  0  0
  141.1851   80.6140  219.0310 H   0  0  0  0  0  0  0  0  0  0  0  0
  141.2662   79.7610  222.9029 H   0  0  0  0  0  0  0  0  0  0  0  0
  142.8040   79.7880  221.9750 H   0  0  0  0  0  0  0  0  0  0  0  0
  141.7296   81.2275  221.9750 H   0  0  0  0  0  0  0  0  0  0  0  0
  139.4270   78.5082  221.1962 H   0  0  0  0  0  0  0  0  0  0  0  0
  139.8628   77.8629  219.0654 H   0  0  0  0  0  0  0  0  0  0  0  0
  141.6660   77.6304  219.4661 H   0  0  0  0  0  0  0  0  0  0  0  0
  139.4831   75.7841  219.4388 H   0  0  0  0  0  0  0  0  0  0  0  0
  141.3367   75.6133  219.4292 H   0  0  0  0  0  0  0  0  0  0  0  0
  141.7080   70.6800  219.0740 H   0  0  0  0  0  0  0  0  0  0  0  0
  143.9971   70.1472  220.4387 H   0  0  0  0  0  0  0  0  0  0  0  0
  143.9667   70.5109  218.6830 H   0  0  0  0  0  0  0  0  0  0  0  0
  144.6476   72.2031  221.0153 H   0  0  0  0  0  0  0  0  0  0  0  0
  145.3979   71.9898  219.3003 H   0  0  0  0  0  0  0  0  0  0  0  0
  143.8222   74.2593  221.3429 H   0  0  0  0  0  0  0  0  0  0  0  0
  145.3805   74.5578  220.4413 H   0  0  0  0  0  0  0  0  0  0  0  0
  142.7818   75.9549  220.3300 H   0  0  0  0  0  0  0  0  0  0  0  0
  144.5322   76.5315  220.1735 H   0  0  0  0  0  0  0  0  0  0  0  0
  142.8884   77.9368  218.5566 H   0  0  0  0  0  0  0  0  0  0  0  0
  142.6206   78.1791  216.0878 H   0  0  0  0  0  0  0  0  0  0  0  0
  143.2323   76.2729  214.5718 H   0  0  0  0  0  0  0  0  0  0  0  0
  144.0887   74.1844  215.6000 H   0  0  0  0  0  0  0  0  0  0  0  0
  144.1658   72.7963  217.4616 H   0  0  0  0  0  0  0  0  0  0  0  0
  145.6037   73.6407  218.1020 H   0  0  0  0  0  0  0  0  0  0  0  0
  141.2325   72.8405  225.0430 H   0  0  0  0  0  0  0  0  0  0  0  0
  139.8630   72.0484  225.8851 H   0  0  0  0  0  0  0  0  0  0  0  0
  142.4659   70.6307  225.0314 H   0  0  0  0  0  0  0  0  0  0  0  0
  142.1391   71.1573  226.6748 H   0  0  0  0  0  0  0  0  0  0  0  0
  141.9726   69.0887  227.6491 H   0  0  0  0  0  0  0  0  0  0  0  0
  140.6155   67.0262  228.1264 H   0  0  0  0  0  0  0  0  0  0  0  0
  138.7267   66.5093  226.6373 H   0  0  0  0  0  0  0  0  0  0  0  0
  138.1304   67.9501  224.7130 H   0  0  0  0  0  0  0  0  0  0  0  0
  139.5335   69.6731  222.9883 H   0  0  0  0  0  0  0  0  0  0  0  0
  138.3216   70.5351  224.0296 H   0  0  0  0  0  0  0  0  0  0  0  0
  139.1195   76.6229  222.3678 H   0  0  0  0  0  0  0  0  0  0  0  0
  140.4105   75.8106  223.2873 H   0  0  0  0  0  0  0  0  0  0  0  0
  140.9994   78.1950  223.1023 H   0  0  0  0  0  0  0  0  0  0  0  0
  142.1115   77.3096  222.0488 H   0  0  0  0  0  0  0  0  0  0  0  0
  1  2  1  0
  2  3  1  0
  2  4  1  0
  4  5  1  0
  5  6  1  0
  6  7  1  0
  7  8  1  0
  8  9  2  0
  9 10  1  0
 10 11  1  0
 11 12  1  0
 12 13  1  0
 13 14  1  0
 14 15  1  0
 15 16  1  0
 16 17  1  0
 17 18  2  0
 18 19  1  0
 19 20  2  0
 20 21  1  0
 21 22  2  0
 22 23  1  0
 10 24  2  0
 24 25  1  0
 25 26  1  0
 26 27  1  0
 27 28  1  0
 28 29  1  0
 29 30  2  0
 30 31  1  0
 31 32  2  0
 32 33  1  0
 33 34  2  0
 34 35  1  0
 25 36  2  0
  7 37  1  0
 37 38  1  0
 38  4  1  0
 36  8  1  0
 23 14  1  0
 35 26  1  0
 22 17  1  0
 34 29  1  0
  1 39  1  0
  1 40  1  0
  1 41  1  0
  3 42  1  0
  3 43  1  0
  3 44  1  0
  4 45  1  0
  5 46  1  0
  5 47  1  0
  6 48  1  0
  6 49  1  0
 11 50  1  0
 12 51  1  0
 12 52  1  0
 13 53  1  0
 13 54  1  0
 15 55  1  0
 15 56  1  0
 16 57  1  0
 16 58  1  0
 18 59  1  0
 19 60  1  0
 20 61  1  0
 21 62  1  0
 23 63  1  0
 23 64  1  0
 27 65  1  0
 27 66  1  0
 28 67  1  0
 28 68  1  0
 30 69  1  0
 31 70  1  0
 32 71  1  0
 33 72  1  0
 35 73  1  0
 35 74  1  0
 37 75  1  0
 37 76  1  0
 38 77  1  0
 38 78  1  0
M  END
>  <smiles>  (34) 
CN(C)C1CCN(c2nc(NCCN3CCc4ccccc4C3)nc(N3CCc4ccccc4C3)n2)CC1

>  <score_type>  (34) 
oracle

>  <origin>  (34) 
autodockgpu

>  <m_score__min__energy>  (34) 
-11.130000000000001

>  <m_primary>  (34) 
energy

>  <rmsd>  (34) 
9.488208919447704

>  <m_score__min__rmsd>  (34) 
9.488208919447704

>  <meeko>  (34) 
{"free_energy": -8.29, "intermolecular_energy": -10.38, "internal_energy": -2.5, "cluster_size": 4, "cluster_id": 6, "rank_in_cluster": 4}

>  <energy>  (34) 
-9.83

>  <cluster_rmsd>  (34) 
0.71

>  <cluster>  (34) 
3

$$$$

     RDKit          3D

 78 83  0  0  0  0  0  0  0  0999 V2000
  145.5600   72.3740  217.0900 C   0  0  0  0  0  0  0  0  0  0  0  0
  145.7650   71.5870  218.2620 N   0  0  0  0  0  0  0  0  0  0  0  0
  145.8890   70.1870  218.0160 C   0  0  0  0  0  0  0  0  0  0  0  0
  144.9830   71.9390  219.4010 C   0  0  0  0  0  0  0  0  0  0  0  0
  144.8110   73.4050  219.5280 C   0  0  0  0  0  0  0  0  0  0  0  0
  143.7170   73.9000  220.3900 C   0  0  0  0  0  0  0  0  0  0  0  0
  142.7380   72.9640  220.8250 N   0  0  0  0  0  0  0  0  0  0  0  0
  141.4650   73.4400  221.2830 C   0  0  0  0  0  0  0  0  0  0  0  0
  140.4940   72.5770  221.7100 N   0  0  0  0  0  0  0  0  0  0  0  0
  139.3260   73.0350  222.1630 C   0  0  0  0  0  0  0  0  0  0  0  0
  138.2350   72.2920  222.6270 N   0  0  0  0  0  0  0  0  0  0  0  0
  137.7320   71.0130  222.1900 C   0  0  0  0  0  0  0  0  0  0  0  0
  138.5460   69.9470  222.7900 C   0  0  0  0  0  0  0  0  0  0  0  0
  138.8560   69.9650  224.1940 N   0  0  0  0  0  0  0  0  0  0  0  0
  138.9640   68.6880  224.7850 C   0  0  0  0  0  0  0  0  0  0  0  0
  139.3080   68.7380  226.2410 C   0  0  0  0  0  0  0  0  0  0  0  0
  140.0510   69.9210  226.6940 C   0  0  0  0  0  0  0  0  0  0  0  0
  140.3940   70.0550  228.0090 C   0  0  0  0  0  0  0  0  0  0  0  0
  141.0910   71.1870  228.4470 C   0  0  0  0  0  0  0  0  0  0  0  0
  141.4400   72.1850  227.5450 C   0  0  0  0  0  0  0  0  0  0  0  0
  141.0700   72.0030  226.2250 C   0  0  0  0  0  0  0  0  0  0  0  0
  140.3800   70.8840  225.7860 C   0  0  0  0  0  0  0  0  0  0  0  0
  140.0690   70.8050  224.3570 C   0  0  0  0  0  0  0  0  0  0  0  0
  139.1590   74.3800  222.1800 N   0  0  0  0  0  0  0  0  0  0  0  0
  140.0760   75.2700  221.7730 C   0  0  0  0  0  0  0  0  0  0  0  0
  139.7190   76.6350  221.8860 N   0  0  0  0  0  0  0  0  0  0  0  0
  140.7830   77.6240  221.6440 C   0  0  0  0  0  0  0  0  0  0  0  0
  141.0530   78.3870  222.9420 C   0  0  0  0  0  0  0  0  0  0  0  0
  139.7420   79.0760  223.2350 C   0  0  0  0  0  0  0  0  0  0  0  0
  139.8610   80.3140  223.8480 C   0  0  0  0  0  0  0  0  0  0  0  0
  138.7180   81.0360  224.1530 C   0  0  0  0  0  0  0  0  0  0  0  0
  137.5180   80.4750  223.8250 C   0  0  0  0  0  0  0  0  0  0  0  0
  137.3990   79.2250  223.2060 C   0  0  0  0  0  0  0  0  0  0  0  0
  138.5370   78.5040  222.9020 C   0  0  0  0  0  0  0  0  0  0  0  0
  138.4330   77.1620  222.2340 C   0  0  0  0  0  0  0  0  0  0  0  0
  141.2330   74.7940  221.3220 N   0  0  0  0  0  0  0  0  0  0  0  0
  143.0340   71.5590  220.7900 C   0  0  0  0  0  0  0  0  0  0  0  0
  143.6310   71.2530  219.4220 C   0  0  0  0  0  0  0  0  0  0  0  0
  145.2925   73.4008  217.3800 H   0  0  0  0  0  0  0  0  0  0  0  0
  146.4838   72.3904  216.4931 H   0  0  0  0  0  0  0  0  0  0  0  0
  144.7456   71.9376  216.4931 H   0  0  0  0  0  0  0  0  0  0  0  0
  145.9366   69.6491  218.9744 H   0  0  0  0  0  0  0  0  0  0  0  0
  145.0183   69.8370  217.4420 H   0  0  0  0  0  0  0  0  0  0  0  0
  146.8076   69.9955  217.4420 H   0  0  0  0  0  0  0  0  0  0  0  0
  145.5535   71.5785  220.2697 H   0  0  0  0  0  0  0  0  0  0  0  0
  145.7520   73.8121  219.9264 H   0  0  0  0  0  0  0  0  0  0  0  0
  144.5386   73.7399  218.5162 H   0  0  0  0  0  0  0  0  0  0  0  0
  144.1789   74.3331  221.2895 H   0  0  0  0  0  0  0  0  0  0  0  0
  143.1617   74.6051  219.7540 H   0  0  0  0  0  0  0  0  0  0  0  0
  137.6880   72.7390  223.4330 H   0  0  0  0  0  0  0  0  0  0  0  0
  136.6850   70.9005  222.5081 H   0  0  0  0  0  0  0  0  0  0  0  0
  137.7857   70.9482  221.0932 H   0  0  0  0  0  0  0  0  0  0  0  0
  138.0184   69.0014  222.5963 H   0  0  0  0  0  0  0  0  0  0  0  0
  139.5292   70.0932  222.3188 H   0  0  0  0  0  0  0  0  0  0  0  0
  138.0015   68.1677  224.6711 H   0  0  0  0  0  0  0  0  0  0  0  0
  139.7828   68.1601  224.2741 H   0  0  0  0  0  0  0  0  0  0  0  0
  138.3671   68.6953  226.8093 H   0  0  0  0  0  0  0  0  0  0  0  0
  139.9814   67.8853  226.4126 H   0  0  0  0  0  0  0  0  0  0  0  0
  140.1209   69.2687  228.7282 H   0  0  0  0  0  0  0  0  0  0  0  0
  141.3633   71.2870  229.5081 H   0  0  0  0  0  0  0  0  0  0  0  0
  141.9879   73.0826  227.8677 H   0  0  0  0  0  0  0  0  0  0  0  0
  141.3346   72.7795  225.4922 H   0  0  0  0  0  0  0  0  0  0  0  0
  139.8800   71.8135  223.9604 H   0  0  0  0  0  0  0  0  0  0  0  0
  140.9138   70.3646  223.8072 H   0  0  0  0  0  0  0  0  0  0  0  0
  141.6996   77.1089  221.3207 H   0  0  0  0  0  0  0  0  0  0  0  0
  140.4686   78.3255  220.8572 H   0  0  0  0  0  0  0  0  0  0  0  0
  141.3222   77.6956  223.7541 H   0  0  0  0  0  0  0  0  0  0  0  0
  141.8931   79.0916  222.8540 H   0  0  0  0  0  0  0  0  0  0  0  0
  140.8543   80.7197  224.0902 H   0  0  0  0  0  0  0  0  0  0  0  0
  138.7757   82.0209  224.6395 H   0  0  0  0  0  0  0  0  0  0  0  0
  136.5989   81.0325  224.0585 H   0  0  0  0  0  0  0  0  0  0  0  0
  136.4056   78.8197  222.9633 H   0  0  0  0  0  0  0  0  0  0  0  0
  137.9358   76.4610  222.9206 H   0  0  0  0  0  0  0  0  0  0  0  0
  137.8549   77.2878  221.3066 H   0  0  0  0  0  0  0  0  0  0  0  0
  143.7564   71.3072  221.5803 H   0  0  0  0  0  0  0  0  0  0  0  0
  142.1229   70.9659  220.9576 H   0  0  0  0  0  0  0  0  0  0  0  0
  143.7497   70.1675  219.2896 H   0  0  0  0  0  0  0  0  0  0  0  0
  142.9828   71.6088  218.6076 H   0  0  0  0  0  0  0  0  0  0  0  0
  1  2  1  0
  2  3  1  0
  2  4  1  0
  4  5  1  0
  5  6  1  0
  6  7  1  0
  7  8  1  0
  8  9  2  0
  9 10  1  0
 10 11  1  0
 11 12  1  0
 12 13  1  0
 13 14  1  0
 14 15  1  0
 15 16  1  0
 16 17  1  0
 17 18  2  0
 18 19  1  0
 19 20  2  0
 20 21  1  0
 21 22  2  0
 22 23  1  0
 10 24  2  0
 24 25  1  0
 25 26  1  0
 26 27  1  0
 27 28  1  0
 28 29  1  0
 29 30  2  0
 30 31  1  0
 31 32  2  0
 32 33  1  0
 33 34  2  0
 34 35  1  0
 25 36  2  0
  7 37  1  0
 37 38  1  0
 38  4  1  0
 36  8  1  0
 23 14  1  0
 35 26  1  0
 22 17  1  0
 34 29  1  0
  1 39  1  0
  1 40  1  0
  1 41  1  0
  3 42  1  0
  3 43  1  0
  3 44  1  0
  4 45  1  0
  5 46  1  0
  5 47  1  0
  6 48  1  0
  6 49  1  0
 11 50  1  0
 12 51  1  0
 12 52  1  0
 13 53  1  0
 13 54  1  0
 15 55  1  0
 15 56  1  0
 16 57  1  0
 16 58  1  0
 18 59  1  0
 19 60  1  0
 20 61  1  0
 21 62  1  0
 23 63  1  0
 23 64  1  0
 27 65  1  0
 27 66  1  0
 28 67  1  0
 28 68  1  0
 30 69  1  0
 31 70  1  0
 32 71  1  0
 33 72  1  0
 35 73  1  0
 35 74  1  0
 37 75  1  0
 37 76  1  0
 38 77  1  0
 38 78  1  0
M  END
>  <smiles>  (35) 
CN(C)C1CCN(c2nc(NCCN3CCc4ccccc4C3)nc(N3CCc4ccccc4C3)n2)CC1

>  <score_type>  (35) 
oracle

>  <origin>  (35) 
autodockgpu

>  <m_score__min__energy>  (35) 
-11.130000000000001

>  <m_primary>  (35) 
energy

>  <rmsd>  (35) 
4.236880591139234

>  <m_score__min__rmsd>  (35) 
4.236880591139234

>  <meeko>  (35) 
{"free_energy": -10.73, "intermolecular_energy": -12.81, "internal_energy": -1.48, "cluster_size": 16, "cluster_id": 1, "rank_in_cluster": 7}

>  <energy>  (35) 
-9.74

>  <cluster_rmsd>  (35) 
0.6

>  <cluster>  (35) 
3

$$$$

     RDKit          3D

 78 83  0  0  0  0  0  0  0  0999 V2000
  145.9570   73.4350  217.0390 C   0  0  0  0  0  0  0  0  0  0  0  0
  145.9170   72.1600  217.6780 N   0  0  0  0  0  0  0  0  0  0  0  0
  145.9490   71.0510  216.7810 C   0  0  0  0  0  0  0  0  0  0  0  0
  145.0110   72.0320  218.7720 C   0  0  0  0  0  0  0  0  0  0  0  0
  145.1510   73.1410  219.7440 C   0  0  0  0  0  0  0  0  0  0  0  0
  144.0400   73.3750  220.6900 C   0  0  0  0  0  0  0  0  0  0  0  0
  142.8060   72.7120  220.4430 N   0  0  0  0  0  0  0  0  0  0  0  0
  141.6060   73.2110  221.0480 C   0  0  0  0  0  0  0  0  0  0  0  0
  140.6890   72.3690  221.6150 N   0  0  0  0  0  0  0  0  0  0  0  0
  139.5930   72.8490  222.2020 C   0  0  0  0  0  0  0  0  0  0  0  0
  138.5630   72.1290  222.8180 N   0  0  0  0  0  0  0  0  0  0  0  0
  138.0140   70.8360  222.4920 C   0  0  0  0  0  0  0  0  0  0  0  0
  138.8200   69.7940  223.1450 C   0  0  0  0  0  0  0  0  0  0  0  0
  139.1390   69.8850  224.5440 N   0  0  0  0  0  0  0  0  0  0  0  0
  139.2790   68.6390  225.1920 C   0  0  0  0  0  0  0  0  0  0  0  0
  139.6320   68.7650  226.6410 C   0  0  0  0  0  0  0  0  0  0  0  0
  140.3500   69.9840  227.0340 C   0  0  0  0  0  0  0  0  0  0  0  0
  140.6990   70.1860  228.3380 C   0  0  0  0  0  0  0  0  0  0  0  0
  141.3730   71.3540  228.7180 C   0  0  0  0  0  0  0  0  0  0  0  0
  141.6930   72.3160  227.7680 C   0  0  0  0  0  0  0  0  0  0  0  0
  141.3190   72.0640  226.4620 C   0  0  0  0  0  0  0  0  0  0  0  0
  140.6510   70.9100  226.0800 C   0  0  0  0  0  0  0  0  0  0  0  0
  140.3330   70.7580  224.6580 C   0  0  0  0  0  0  0  0  0  0  0  0
  139.4400   74.1960  222.2080 N   0  0  0  0  0  0  0  0  0  0  0  0
  140.3050   75.0670  221.6660 C   0  0  0  0  0  0  0  0  0  0  0  0
  139.9750   76.4380  221.7910 N   0  0  0  0  0  0  0  0  0  0  0  0
  141.0600   77.4070  221.5620 C   0  0  0  0  0  0  0  0  0  0  0  0
  141.3420   78.1520  222.8680 C   0  0  0  0  0  0  0  0  0  0  0  0
  140.0450   78.8650  223.1640 C   0  0  0  0  0  0  0  0  0  0  0  0
  140.1880   80.0940  223.7890 C   0  0  0  0  0  0  0  0  0  0  0  0
  139.0590   80.8370  224.0980 C   0  0  0  0  0  0  0  0  0  0  0  0
  137.8490   80.3040  223.7620 C   0  0  0  0  0  0  0  0  0  0  0  0
  137.7050   79.0630  223.1310 C   0  0  0  0  0  0  0  0  0  0  0  0
  138.8290   78.3210  222.8220 C   0  0  0  0  0  0  0  0  0  0  0  0
  138.6990   76.9880  222.1410 C   0  0  0  0  0  0  0  0  0  0  0  0
  141.3910   74.5680  221.0840 N   0  0  0  0  0  0  0  0  0  0  0  0
  142.7790   71.5590  219.5860 C   0  0  0  0  0  0  0  0  0  0  0  0
  143.5660   71.9070  218.3300 C   0  0  0  0  0  0  0  0  0  0  0  0
  145.9818   74.2269  217.8020 H   0  0  0  0  0  0  0  0  0  0  0  0
  146.8577   73.5024  216.4111 H   0  0  0  0  0  0  0  0  0  0  0  0
  145.0623   73.5587  216.4111 H   0  0  0  0  0  0  0  0  0  0  0  0
  145.9760   70.1142  217.3570 H   0  0  0  0  0  0  0  0  0  0  0  0
  145.0501   71.0660  216.1472 H   0  0  0  0  0  0  0  0  0  0  0  0
  146.8456   71.1178  216.1472 H   0  0  0  0  0  0  0  0  0  0  0  0
  145.2885   71.0924  219.2722 H   0  0  0  0  0  0  0  0  0  0  0  0
  146.0532   72.9416  220.3409 H   0  0  0  0  0  0  0  0  0  0  0  0
  145.1818   74.0492  219.1241 H   0  0  0  0  0  0  0  0  0  0  0  0
  144.3864   73.0625  221.6862 H   0  0  0  0  0  0  0  0  0  0  0  0
  143.8056   74.4443  220.5819 H   0  0  0  0  0  0  0  0  0  0  0  0
  138.1140   72.6090  223.6640 H   0  0  0  0  0  0  0  0  0  0  0  0
  136.9752   70.7761  222.8487 H   0  0  0  0  0  0  0  0  0  0  0  0
  138.0310   70.6897  221.4019 H   0  0  0  0  0  0  0  0  0  0  0  0
  138.2803   68.8456  223.0063 H   0  0  0  0  0  0  0  0  0  0  0  0
  139.8018   69.9024  222.6609 H   0  0  0  0  0  0  0  0  0  0  0  0
  138.3274   68.0933  225.1100 H   0  0  0  0  0  0  0  0  0  0  0  0
  140.1049   68.1050  224.6993 H   0  0  0  0  0  0  0  0  0  0  0  0
  138.6963   68.7269  227.2180 H   0  0  0  0  0  0  0  0  0  0  0  0
  140.3271   67.9374  226.8457 H   0  0  0  0  0  0  0  0  0  0  0  0
  140.4497   69.4276  229.0947 H   0  0  0  0  0  0  0  0  0  0  0  0
  141.6495   71.5098  229.7712 H   0  0  0  0  0  0  0  0  0  0  0  0
  142.2222   73.2400  228.0442 H   0  0  0  0  0  0  0  0  0  0  0  0
  141.5615   72.8110  225.6918 H   0  0  0  0  0  0  0  0  0  0  0  0
  140.1187   71.7425  224.2165 H   0  0  0  0  0  0  0  0  0  0  0  0
  141.1840   70.3119  224.1225 H   0  0  0  0  0  0  0  0  0  0  0  0
  141.9667   76.8761  221.2364 H   0  0  0  0  0  0  0  0  0  0  0  0
  140.7624   78.1225  220.7813 H   0  0  0  0  0  0  0  0  0  0  0  0
  141.5946   77.4475  223.6742 H   0  0  0  0  0  0  0  0  0  0  0  0
  142.1968   78.8398  222.7890 H   0  0  0  0  0  0  0  0  0  0  0  0
  141.1889   80.4766  224.0377 H   0  0  0  0  0  0  0  0  0  0  0  0
  139.1357   81.8160  224.5937 H   0  0  0  0  0  0  0  0  0  0  0  0
  136.9412   80.8782  223.9988 H   0  0  0  0  0  0  0  0  0  0  0  0
  136.7038   78.6809  222.8827 H   0  0  0  0  0  0  0  0  0  0  0  0
  138.1858   76.2909  222.8197 H   0  0  0  0  0  0  0  0  0  0  0  0
  138.1259   77.1344  221.2136 H   0  0  0  0  0  0  0  0  0  0  0  0
  143.2430   70.7013  220.0949 H   0  0  0  0  0  0  0  0  0  0  0  0
  141.7436   71.2873  219.3328 H   0  0  0  0  0  0  0  0  0  0  0  0
  143.4623   71.1097  217.5793 H   0  0  0  0  0  0  0  0  0  0  0  0
  143.2015   72.8359  217.8671 H   0  0  0  0  0  0  0  0  0  0  0  0
  1  2  1  0
  2  3  1  0
  2  4  1  0
  4  5  1  0
  5  6  1  0
  6  7  1  0
  7  8  1  0
  8  9  2  0
  9 10  1  0
 10 11  1  0
 11 12  1  0
 12 13  1  0
 13 14  1  0
 14 15  1  0
 15 16  1  0
 16 17  1  0
 17 18  2  0
 18 19  1  0
 19 20  2  0
 20 21  1  0
 21 22  2  0
 22 23  1  0
 10 24  2  0
 24 25  1  0
 25 26  1  0
 26 27  1  0
 27 28  1  0
 28 29  1  0
 29 30  2  0
 30 31  1  0
 31 32  2  0
 32 33  1  0
 33 34  2  0
 34 35  1  0
 25 36  2  0
  7 37  1  0
 37 38  1  0
 38  4  1  0
 36  8  1  0
 23 14  1  0
 35 26  1  0
 22 17  1  0
 34 29  1  0
  1 39  1  0
  1 40  1  0
  1 41  1  0
  3 42  1  0
  3 43  1  0
  3 44  1  0
  4 45  1  0
  5 46  1  0
  5 47  1  0
  6 48  1  0
  6 49  1  0
 11 50  1  0
 12 51  1  0
 12 52  1  0
 13 53  1  0
 13 54  1  0
 15 55  1  0
 15 56  1  0
 16 57  1  0
 16 58  1  0
 18 59  1  0
 19 60  1  0
 20 61  1  0
 21 62  1  0
 23 63  1  0
 23 64  1  0
 27 65  1  0
 27 66  1  0
 28 67  1  0
 28 68  1  0
 30 69  1  0
 31 70  1  0
 32 71  1  0
 33 72  1  0
 35 73  1  0
 35 74  1  0
 37 75  1  0
 37 76  1  0
 38 77  1  0
 38 78  1  0
M  END
>  <smiles>  (36) 
CN(C)C1CCN(c2nc(NCCN3CCc4ccccc4C3)nc(N3CCc4ccccc4C3)n2)CC1

>  <score_type>  (36) 
oracle

>  <origin>  (36) 
autodockgpu

>  <m_score__min__energy>  (36) 
-11.130000000000001

>  <m_primary>  (36) 
energy

>  <rmsd>  (36) 
4.405959486121887

>  <m_score__min__rmsd>  (36) 
4.405959486121887

>  <meeko>  (36) 
{"free_energy": -10.49, "intermolecular_energy": -12.58, "internal_energy": -1.4, "cluster_size": 16, "cluster_id": 1, "rank_in_cluster": 11}

>  <energy>  (36) 
-9.64

>  <cluster_rmsd>  (36) 
0.77

>  <cluster>  (36) 
3

$$$$

     RDKit          3D

 78 83  0  0  0  0  0  0  0  0999 V2000
  145.5890   71.8920  217.0440 C   0  0  0  0  0  0  0  0  0  0  0  0
  145.9230   71.3010  218.2990 N   0  0  0  0  0  0  0  0  0  0  0  0
  146.1660   69.8970  218.2400 C   0  0  0  0  0  0  0  0  0  0  0  0
  145.1660   71.7420  219.4240 C   0  0  0  0  0  0  0  0  0  0  0  0
  145.1850   73.2160  219.5660 C   0  0  0  0  0  0  0  0  0  0  0  0
  144.1450   73.8430  220.4080 C   0  0  0  0  0  0  0  0  0  0  0  0
  143.0410   73.0410  220.8080 N   0  0  0  0  0  0  0  0  0  0  0  0
  141.8310   73.6760  221.2430 C   0  0  0  0  0  0  0  0  0  0  0  0
  140.7140   72.9480  221.5460 N   0  0  0  0  0  0  0  0  0  0  0  0
  139.6050   73.5490  221.9800 C   0  0  0  0  0  0  0  0  0  0  0  0
  138.3860   72.9560  222.3250 N   0  0  0  0  0  0  0  0  0  0  0  0
  137.8610   71.6560  221.9870 C   0  0  0  0  0  0  0  0  0  0  0  0
  138.8310   70.6280  222.3900 C   0  0  0  0  0  0  0  0  0  0  0  0
  139.0610   70.3420  223.7810 N   0  0  0  0  0  0  0  0  0  0  0  0
  139.1740   68.9690  224.0840 C   0  0  0  0  0  0  0  0  0  0  0  0
  139.4350   68.7040  225.5340 C   0  0  0  0  0  0  0  0  0  0  0  0
  140.1130   69.7720  226.2790 C   0  0  0  0  0  0  0  0  0  0  0  0
  140.3780   69.6200  227.6100 C   0  0  0  0  0  0  0  0  0  0  0  0
  141.0130   70.6410  228.3280 C   0  0  0  0  0  0  0  0  0  0  0  0
  141.3810   71.8190  227.6880 C   0  0  0  0  0  0  0  0  0  0  0  0
  141.0920   71.9240  226.3410 C   0  0  0  0  0  0  0  0  0  0  0  0
  140.4630   70.9160  225.6260 C   0  0  0  0  0  0  0  0  0  0  0  0
  140.2350   71.1480  224.1970 C   0  0  0  0  0  0  0  0  0  0  0  0
  139.6470   74.8990  222.1030 N   0  0  0  0  0  0  0  0  0  0  0  0
  140.7140   75.6600  221.8190 C   0  0  0  0  0  0  0  0  0  0  0  0
  140.5650   77.0520  222.0300 N   0  0  0  0  0  0  0  0  0  0  0  0
  139.8130   77.8040  221.0100 C   0  0  0  0  0  0  0  0  0  0  0  0
  140.7590   78.7930  220.3280 C   0  0  0  0  0  0  0  0  0  0  0  0
  141.1970   79.7060  221.4480 C   0  0  0  0  0  0  0  0  0  0  0  0
  141.4230   81.0200  221.0700 C   0  0  0  0  0  0  0  0  0  0  0  0
  141.8190   81.9450  222.0250 C   0  0  0  0  0  0  0  0  0  0  0  0
  141.9650   81.4980  223.3050 C   0  0  0  0  0  0  0  0  0  0  0  0
  141.7370   80.1690  223.6860 C   0  0  0  0  0  0  0  0  0  0  0  0
  141.3420   79.2470  222.7360 C   0  0  0  0  0  0  0  0  0  0  0  0
  141.0870   77.8180  223.1220 C   0  0  0  0  0  0  0  0  0  0  0  0
  141.8090   75.0430  221.3860 N   0  0  0  0  0  0  0  0  0  0  0  0
  143.1500   71.6090  220.7620 C   0  0  0  0  0  0  0  0  0  0  0  0
  143.7350   71.2400  219.4050 C   0  0  0  0  0  0  0  0  0  0  0  0
  145.0544   72.8380  217.2149 H   0  0  0  0  0  0  0  0  0  0  0  0
  146.5095   72.0887  216.4748 H   0  0  0  0  0  0  0  0  0  0  0  0
  144.9457   71.2049  216.4748 H   0  0  0  0  0  0  0  0  0  0  0  0
  146.2358   69.4938  219.2610 H   0  0  0  0  0  0  0  0  0  0  0  0
  145.3398   69.4040  217.7067 H   0  0  0  0  0  0  0  0  0  0  0  0
  147.1098   69.7103  217.7067 H   0  0  0  0  0  0  0  0  0  0  0  0
  145.6628   71.3009  220.3007 H   0  0  0  0  0  0  0  0  0  0  0  0
  146.1612   73.4915  219.9916 H   0  0  0  0  0  0  0  0  0  0  0  0
  144.9839   73.5934  218.5525 H   0  0  0  0  0  0  0  0  0  0  0  0
  144.6374   74.2028  221.3235 H   0  0  0  0  0  0  0  0  0  0  0  0
  143.7036   74.6212  219.7681 H   0  0  0  0  0  0  0  0  0  0  0  0
  137.7420   73.5570  222.9350 H   0  0  0  0  0  0  0  0  0  0  0  0
  136.9103   71.4934  222.5159 H   0  0  0  0  0  0  0  0  0  0  0  0
  137.6859   71.5966  220.9026 H   0  0  0  0  0  0  0  0  0  0  0  0
  138.5026   69.6865  221.9255 H   0  0  0  0  0  0  0  0  0  0  0  0
  139.7911   71.0551  222.0649 H   0  0  0  0  0  0  0  0  0  0  0  0
  138.2353   68.4703  223.8010 H   0  0  0  0  0  0  0  0  0  0  0  0
  140.0351   68.5800  223.5207 H   0  0  0  0  0  0  0  0  0  0  0  0
  138.4659   68.5192  226.0206 H   0  0  0  0  0  0  0  0  0  0  0  0
  140.1251   67.8477  225.5559 H   0  0  0  0  0  0  0  0  0  0  0  0
  140.0908   68.6895  228.1215 H   0  0  0  0  0  0  0  0  0  0  0  0
  141.2210   70.5107  229.4003 H   0  0  0  0  0  0  0  0  0  0  0  0
  141.8816   72.6338  228.2316 H   0  0  0  0  0  0  0  0  0  0  0  0
  141.3730   72.8471  225.8129 H   0  0  0  0  0  0  0  0  0  0  0  0
  140.0364   72.2153  224.0195 H   0  0  0  0  0  0  0  0  0  0  0  0
  141.1228   70.8558  223.6170 H   0  0  0  0  0  0  0  0  0  0  0  0
  139.4057   77.1071  220.2627 H   0  0  0  0  0  0  0  0  0  0  0  0
  138.9827   78.3480  221.4840 H   0  0  0  0  0  0  0  0  0  0  0  0
  141.6216   78.2705  219.8888 H   0  0  0  0  0  0  0  0  0  0  0  0
  140.2805   79.3362  219.4998 H   0  0  0  0  0  0  0  0  0  0  0  0
  141.2896   81.3268  220.0221 H   0  0  0  0  0  0  0  0  0  0  0  0
  142.0075   82.9960  221.7606 H   0  0  0  0  0  0  0  0  0  0  0  0
  142.2774   82.2166  224.0770 H   0  0  0  0  0  0  0  0  0  0  0  0
  141.8715   79.8621  224.7337 H   0  0  0  0  0  0  0  0  0  0  0  0
  142.0333   77.3653  223.4530 H   0  0  0  0  0  0  0  0  0  0  0  0
  140.3394   77.8123  223.9289 H   0  0  0  0  0  0  0  0  0  0  0  0
  143.8131   71.2564  221.5657 H   0  0  0  0  0  0  0  0  0  0  0  0
  142.1648   71.1399  220.9007 H   0  0  0  0  0  0  0  0  0  0  0  0
  143.7131   70.1496  219.2617 H   0  0  0  0  0  0  0  0  0  0  0  0
  143.1596   71.6858  218.5803 H   0  0  0  0  0  0  0  0  0  0  0  0
  1  2  1  0
  2  3  1  0
  2  4  1  0
  4  5  1  0
  5  6  1  0
  6  7  1  0
  7  8  1  0
  8  9  2  0
  9 10  1  0
 10 11  1  0
 11 12  1  0
 12 13  1  0
 13 14  1  0
 14 15  1  0
 15 16  1  0
 16 17  1  0
 17 18  2  0
 18 19  1  0
 19 20  2  0
 20 21  1  0
 21 22  2  0
 22 23  1  0
 10 24  2  0
 24 25  1  0
 25 26  1  0
 26 27  1  0
 27 28  1  0
 28 29  1  0
 29 30  2  0
 30 31  1  0
 31 32  2  0
 32 33  1  0
 33 34  2  0
 34 35  1  0
 25 36  2  0
  7 37  1  0
 37 38  1  0
 38  4  1  0
 36  8  1  0
 23 14  1  0
 35 26  1  0
 22 17  1  0
 34 29  1  0
  1 39  1  0
  1 40  1  0
  1 41  1  0
  3 42  1  0
  3 43  1  0
  3 44  1  0
  4 45  1  0
  5 46  1  0
  5 47  1  0
  6 48  1  0
  6 49  1  0
 11 50  1  0
 12 51  1  0
 12 52  1  0
 13 53  1  0
 13 54  1  0
 15 55  1  0
 15 56  1  0
 16 57  1  0
 16 58  1  0
 18 59  1  0
 19 60  1  0
 20 61  1  0
 21 62  1  0
 23 63  1  0
 23 64  1  0
 27 65  1  0
 27 66  1  0
 28 67  1  0
 28 68  1  0
 30 69  1  0
 31 70  1  0
 32 71  1  0
 33 72  1  0
 35 73  1  0
 35 74  1  0
 37 75  1  0
 37 76  1  0
 38 77  1  0
 38 78  1  0
M  END
>  <smiles>  (37) 
CN(C)C1CCN(c2nc(NCCN3CCc4ccccc4C3)nc(N3CCc4ccccc4C3)n2)CC1

>  <score_type>  (37) 
oracle

>  <origin>  (37) 
autodockgpu

>  <m_score__min__energy>  (37) 
-11.130000000000001

>  <m_primary>  (37) 
energy

>  <rmsd>  (37) 
3.9877522660898532

>  <m_score__min__rmsd>  (37) 
3.9877522660898532

>  <meeko>  (37) 
{"free_energy": -11.1, "intermolecular_energy": -13.19, "internal_energy": -1.48, "cluster_size": 16, "cluster_id": 1, "rank_in_cluster": 2}

>  <energy>  (37) 
-9.86

>  <cluster_rmsd>  (37) 
0.0

>  <cluster>  (37) 
4

$$$$

     RDKit          3D

 78 83  0  0  0  0  0  0  0  0999 V2000
  141.4620   81.7440  222.6510 C   0  0  0  0  0  0  0  0  0  0  0  0
  141.3360   80.4620  223.2650 N   0  0  0  0  0  0  0  0  0  0  0  0
  142.5540   79.9450  223.7990 C   0  0  0  0  0  0  0  0  0  0  0  0
  140.5190   79.5150  222.5820 C   0  0  0  0  0  0  0  0  0  0  0  0
  141.2420   78.2520  222.3040 C   0  0  0  0  0  0  0  0  0  0  0  0
  140.4400   77.0530  221.9830 C   0  0  0  0  0  0  0  0  0  0  0  0
  139.0390   77.1070  222.2220 N   0  0  0  0  0  0  0  0  0  0  0  0
  138.2980   75.8850  222.3380 C   0  0  0  0  0  0  0  0  0  0  0  0
  138.7720   74.7120  221.8200 N   0  0  0  0  0  0  0  0  0  0  0  0
  138.0870   73.5760  221.9630 C   0  0  0  0  0  0  0  0  0  0  0  0
  138.4280   72.3030  221.4920 N   0  0  0  0  0  0  0  0  0  0  0  0
  137.8300   71.0220  221.7740 C   0  0  0  0  0  0  0  0  0  0  0  0
  138.8300   70.1570  222.4160 C   0  0  0  0  0  0  0  0  0  0  0  0
  138.9720   70.1390  223.8470 N   0  0  0  0  0  0  0  0  0  0  0  0
  138.8880   68.8550  224.4260 C   0  0  0  0  0  0  0  0  0  0  0  0
  139.0610   68.8660  225.9130 C   0  0  0  0  0  0  0  0  0  0  0  0
  139.8530   69.9700  226.4680 C   0  0  0  0  0  0  0  0  0  0  0  0
  140.0500   70.0650  227.8160 C   0  0  0  0  0  0  0  0  0  0  0  0
  140.7940   71.1240  228.3510 C   0  0  0  0  0  0  0  0  0  0  0  0
  141.3400   72.0880  227.5110 C   0  0  0  0  0  0  0  0  0  0  0  0
  141.1130   71.9470  226.1550 C   0  0  0  0  0  0  0  0  0  0  0  0
  140.3770   70.9010  225.6200 C   0  0  0  0  0  0  0  0  0  0  0  0
  140.2310   70.8580  224.1630 C   0  0  0  0  0  0  0  0  0  0  0  0
  136.9150   73.6480  222.6400 N   0  0  0  0  0  0  0  0  0  0  0  0
  136.4030   74.7700  223.1670 C   0  0  0  0  0  0  0  0  0  0  0  0
  135.1730   74.6360  223.8550 N   0  0  0  0  0  0  0  0  0  0  0  0
  134.3750   75.8600  224.0360 C   0  0  0  0  0  0  0  0  0  0  0  0
  134.2880   76.1780  225.5300 C   0  0  0  0  0  0  0  0  0  0  0  0
  133.5720   74.9830  226.1120 C   0  0  0  0  0  0  0  0  0  0  0  0
  132.7480   75.2690  227.1890 C   0  0  0  0  0  0  0  0  0  0  0  0
  132.0350   74.2440  227.7930 C   0  0  0  0  0  0  0  0  0  0  0  0
  132.1900   72.9890  227.2810 C   0  0  0  0  0  0  0  0  0  0  0  0
  133.0220   72.7010  226.1920 C   0  0  0  0  0  0  0  0  0  0  0  0
  133.7330   73.7210  225.5890 C   0  0  0  0  0  0  0  0  0  0  0  0
  134.6280   73.4360  224.4180 C   0  0  0  0  0  0  0  0  0  0  0  0
  137.1000   75.8920  223.0120 N   0  0  0  0  0  0  0  0  0  0  0  0
  138.3900   78.3820  222.3510 C   0  0  0  0  0  0  0  0  0  0  0  0
  139.2220   79.2220  223.3110 C   0  0  0  0  0  0  0  0  0  0  0  0
  141.5380   82.5175  223.4294 H   0  0  0  0  0  0  0  0  0  0  0  0
  142.3664   81.7635  222.0251 H   0  0  0  0  0  0  0  0  0  0  0  0
  140.5787   81.9392  222.0251 H   0  0  0  0  0  0  0  0  0  0  0  0
  142.5097   79.9638  224.8979 H   0  0  0  0  0  0  0  0  0  0  0  0
  142.6947   78.9096  223.4554 H   0  0  0  0  0  0  0  0  0  0  0  0
  143.3966   80.5631  223.4554 H   0  0  0  0  0  0  0  0  0  0  0  0
  140.2631   79.9884  221.6226 H   0  0  0  0  0  0  0  0  0  0  0  0
  141.9098   78.4379  221.4499 H   0  0  0  0  0  0  0  0  0  0  0  0
  141.7406   78.0047  223.2528 H   0  0  0  0  0  0  0  0  0  0  0  0
  140.5820   76.8404  220.9131 H   0  0  0  0  0  0  0  0  0  0  0  0
  140.8086   76.2808  222.6743 H   0  0  0  0  0  0  0  0  0  0  0  0
  139.2600   72.2740  220.8170 H   0  0  0  0  0  0  0  0  0  0  0  0
  136.9715   71.1564  222.4484 H   0  0  0  0  0  0  0  0  0  0  0  0
  137.4851   70.5591  220.8376 H   0  0  0  0  0  0  0  0  0  0  0  0
  138.5974   69.1264  222.1099 H   0  0  0  0  0  0  0  0  0  0  0  0
  139.7832   70.5908  222.0795 H   0  0  0  0  0  0  0  0  0  0  0  0
  137.9008   68.4299  224.1920 H   0  0  0  0  0  0  0  0  0  0  0  0
  139.7072   68.2529  224.0061 H   0  0  0  0  0  0  0  0  0  0  0  0
  138.0598   68.9109  226.3664 H   0  0  0  0  0  0  0  0  0  0  0  0
  139.6263   67.9523  226.1490 H   0  0  0  0  0  0  0  0  0  0  0  0
  139.6216   69.3049  228.4858 H   0  0  0  0  0  0  0  0  0  0  0  0
  140.9467   71.1933  229.4381 H   0  0  0  0  0  0  0  0  0  0  0  0
  141.9282   72.9280  227.9091 H   0  0  0  0  0  0  0  0  0  0  0  0
  141.5348   72.6975  225.4703 H   0  0  0  0  0  0  0  0  0  0  0  0
  140.1865   71.8815  223.7623 H   0  0  0  0  0  0  0  0  0  0  0  0
  141.0893   70.3411  223.7090 H   0  0  0  0  0  0  0  0  0  0  0  0
  134.8564   76.6962  223.5078 H   0  0  0  0  0  0  0  0  0  0  0  0
  133.3648   75.7103  223.6272 H   0  0  0  0  0  0  0  0  0  0  0  0
  135.2918   76.2844  225.9670 H   0  0  0  0  0  0  0  0  0  0  0  0
  133.7680   77.1258  225.7334 H   0  0  0  0  0  0  0  0  0  0  0  0
  132.6602   76.3002  227.5617 H   0  0  0  0  0  0  0  0  0  0  0  0
  131.3719   74.4351  228.6496 H   0  0  0  0  0  0  0  0  0  0  0  0
  131.6338   72.1622  227.7468 H   0  0  0  0  0  0  0  0  0  0  0  0
  133.1090   71.6698  225.8191 H   0  0  0  0  0  0  0  0  0  0  0  0
  135.4554   72.7925  224.7516 H   0  0  0  0  0  0  0  0  0  0  0  0
  134.0259   72.9396  223.6427 H   0  0  0  0  0  0  0  0  0  0  0  0
  138.3346   78.8765  221.3700 H   0  0  0  0  0  0  0  0  0  0  0  0
  137.3650   78.2592  222.7309 H   0  0  0  0  0  0  0  0  0  0  0  0
  138.6985   80.1585  223.5537 H   0  0  0  0  0  0  0  0  0  0  0  0
  139.4000   78.6962  224.2607 H   0  0  0  0  0  0  0  0  0  0  0  0
  1  2  1  0
  2  3  1  0
  2  4  1  0
  4  5  1  0
  5  6  1  0
  6  7  1  0
  7  8  1  0
  8  9  2  0
  9 10  1  0
 10 11  1  0
 11 12  1  0
 12 13  1  0
 13 14  1  0
 14 15  1  0
 15 16  1  0
 16 17  1  0
 17 18  2  0
 18 19  1  0
 19 20  2  0
 20 21  1  0
 21 22  2  0
 22 23  1  0
 10 24  2  0
 24 25  1  0
 25 26  1  0
 26 27  1  0
 27 28  1  0
 28 29  1  0
 29 30  2  0
 30 31  1  0
 31 32  2  0
 32 33  1  0
 33 34  2  0
 34 35  1  0
 25 36  2  0
  7 37  1  0
 37 38  1  0
 38  4  1  0
 36  8  1  0
 23 14  1  0
 35 26  1  0
 22 17  1  0
 34 29  1  0
  1 39  1  0
  1 40  1  0
  1 41  1  0
  3 42  1  0
  3 43  1  0
  3 44  1  0
  4 45  1  0
  5 46  1  0
  5 47  1  0
  6 48  1  0
  6 49  1  0
 11 50  1  0
 12 51  1  0
 12 52  1  0
 13 53  1  0
 13 54  1  0
 15 55  1  0
 15 56  1  0
 16 57  1  0
 16 58  1  0
 18 59  1  0
 19 60  1  0
 20 61  1  0
 21 62  1  0
 23 63  1  0
 23 64  1  0
 27 65  1  0
 27 66  1  0
 28 67  1  0
 28 68  1  0
 30 69  1  0
 31 70  1  0
 32 71  1  0
 33 72  1  0
 35 73  1  0
 35 74  1  0
 37 75  1  0
 37 76  1  0
 38 77  1  0
 38 78  1  0
M  END
>  <smiles>  (38) 
CN(C)C1CCN(c2nc(NCCN3CCc4ccccc4C3)nc(N3CCc4ccccc4C3)n2)CC1

>  <score_type>  (38) 
oracle

>  <origin>  (38) 
autodockgpu

>  <m_score__min__energy>  (38) 
-11.130000000000001

>  <m_primary>  (38) 
energy

>  <rmsd>  (38) 
4.131977646108404

>  <m_score__min__rmsd>  (38) 
4.131977646108404

>  <meeko>  (38) 
{"free_energy": -9.82, "intermolecular_energy": -11.91, "internal_energy": -1.33, "cluster_size": 6, "cluster_id": 4, "rank_in_cluster": 3}

>  <energy>  (38) 
-9.84

>  <cluster_rmsd>  (38) 
0.37

>  <cluster>  (38) 
4

$$$$

     RDKit          3D

 78 83  0  0  0  0  0  0  0  0999 V2000
  132.5590   72.5650  227.2330 C   0  0  0  0  0  0  0  0  0  0  0  0
  131.9060   73.6630  226.5990 N   0  0  0  0  0  0  0  0  0  0  0  0
  130.5640   73.3950  226.1960 C   0  0  0  0  0  0  0  0  0  0  0  0
  132.6860   74.4060  225.6650 C   0  0  0  0  0  0  0  0  0  0  0  0
  133.8780   75.0180  226.2970 C   0  0  0  0  0  0  0  0  0  0  0  0
  134.9770   75.4600  225.4130 C   0  0  0  0  0  0  0  0  0  0  0  0
  134.9510   75.0360  224.0560 N   0  0  0  0  0  0  0  0  0  0  0  0
  136.1600   75.0660  223.2860 C   0  0  0  0  0  0  0  0  0  0  0  0
  136.5860   73.9720  222.5850 N   0  0  0  0  0  0  0  0  0  0  0  0
  137.6960   74.0230  221.8480 C   0  0  0  0  0  0  0  0  0  0  0  0
  138.2670   73.0000  221.0830 N   0  0  0  0  0  0  0  0  0  0  0  0
  139.3110   72.0640  221.4200 C   0  0  0  0  0  0  0  0  0  0  0  0
  139.7860   72.3470  222.7820 C   0  0  0  0  0  0  0  0  0  0  0  0
  139.5640   71.4040  223.8450 N   0  0  0  0  0  0  0  0  0  0  0  0
  139.3660   70.0750  223.4150 C   0  0  0  0  0  0  0  0  0  0  0  0
  139.1590   69.1140  224.5440 C   0  0  0  0  0  0  0  0  0  0  0  0
  139.7610   69.4830  225.8310 C   0  0  0  0  0  0  0  0  0  0  0  0
  139.6100   68.6700  226.9180 C   0  0  0  0  0  0  0  0  0  0  0  0
  140.1720   69.0240  228.1510 C   0  0  0  0  0  0  0  0  0  0  0  0
  140.8900   70.2080  228.2770 C   0  0  0  0  0  0  0  0  0  0  0  0
  141.0140   70.9960  227.1480 C   0  0  0  0  0  0  0  0  0  0  0  0
  140.4600   70.6500  225.9250 C   0  0  0  0  0  0  0  0  0  0  0  0
  140.6860   71.5640  224.8030 C   0  0  0  0  0  0  0  0  0  0  0  0
  138.3660   75.2020  221.8300 N   0  0  0  0  0  0  0  0  0  0  0  0
  137.9950   76.3040  222.4980 C   0  0  0  0  0  0  0  0  0  0  0  0
  138.8190   77.4430  222.3360 N   0  0  0  0  0  0  0  0  0  0  0  0
  139.8620   77.3680  221.2980 C   0  0  0  0  0  0  0  0  0  0  0  0
  141.2340   77.4280  221.9710 C   0  0  0  0  0  0  0  0  0  0  0  0
  141.2480   78.7800  222.6430 C   0  0  0  0  0  0  0  0  0  0  0  0
  142.4900   79.3930  222.6880 C   0  0  0  0  0  0  0  0  0  0  0  0
  142.6130   80.6430  223.2750 C   0  0  0  0  0  0  0  0  0  0  0  0
  141.4800   81.2070  223.7850 C   0  0  0  0  0  0  0  0  0  0  0  0
  140.2260   80.5870  223.7400 C   0  0  0  0  0  0  0  0  0  0  0  0
  140.1020   79.3420  223.1550 C   0  0  0  0  0  0  0  0  0  0  0  0
  138.7650   78.6590  223.0910 C   0  0  0  0  0  0  0  0  0  0  0  0
  136.8860   76.2320  223.2290 N   0  0  0  0  0  0  0  0  0  0  0  0
  133.7180   74.5760  223.4800 C   0  0  0  0  0  0  0  0  0  0  0  0
  133.0990   73.5860  224.4590 C   0  0  0  0  0  0  0  0  0  0  0  0
  132.4912   72.6790  228.3250 H   0  0  0  0  0  0  0  0  0  0  0  0
  132.0728   71.6255  226.9315 H   0  0  0  0  0  0  0  0  0  0  0  0
  133.6167   72.5437  226.9315 H   0  0  0  0  0  0  0  0  0  0  0  0
  129.9318   73.2687  227.0873 H   0  0  0  0  0  0  0  0  0  0  0  0
  130.1868   74.2356  225.5950 H   0  0  0  0  0  0  0  0  0  0  0  0
  130.5386   72.4740  225.5950 H   0  0  0  0  0  0  0  0  0  0  0  0
  132.0276   75.2123  225.3096 H   0  0  0  0  0  0  0  0  0  0  0  0
  133.5351   75.8989  226.8595 H   0  0  0  0  0  0  0  0  0  0  0  0
  134.3166   74.2100  226.9009 H   0  0  0  0  0  0  0  0  0  0  0  0
  134.9748   76.5600  225.4126 H   0  0  0  0  0  0  0  0  0  0  0  0
  135.8763   74.9858  225.8329 H   0  0  0  0  0  0  0  0  0  0  0  0
  137.8670   72.8920  220.0950 H   0  0  0  0  0  0  0  0  0  0  0  0
  138.9162   71.0384  221.3727 H   0  0  0  0  0  0  0  0  0  0  0  0
  140.1435   72.1635  220.7079 H   0  0  0  0  0  0  0  0  0  0  0  0
  140.8741   72.4921  222.7121 H   0  0  0  0  0  0  0  0  0  0  0  0
  139.1711   73.2077  223.0836 H   0  0  0  0  0  0  0  0  0  0  0  0
  138.4793   70.0465  222.7647 H   0  0  0  0  0  0  0  0  0  0  0  0
  140.2780   69.7640  222.8844 H   0  0  0  0  0  0  0  0  0  0  0  0
  138.0752   69.0077  224.6992 H   0  0  0  0  0  0  0  0  0  0  0  0
  139.6670   68.1877  224.2375 H   0  0  0  0  0  0  0  0  0  0  0  0
  139.0437   67.7316  226.8245 H   0  0  0  0  0  0  0  0  0  0  0  0
  140.0451   68.3639  229.0217 H   0  0  0  0  0  0  0  0  0  0  0  0
  141.3407   70.5053  229.2354 H   0  0  0  0  0  0  0  0  0  0  0  0
  141.5765   71.9383  227.2232 H   0  0  0  0  0  0  0  0  0  0  0  0
  140.7197   72.6012  225.1679 H   0  0  0  0  0  0  0  0  0  0  0  0
  141.6428   71.3345  224.3112 H   0  0  0  0  0  0  0  0  0  0  0  0
  139.7637   76.4234  220.7430 H   0  0  0  0  0  0  0  0  0  0  0  0
  139.7527   78.2091  220.5976 H   0  0  0  0  0  0  0  0  0  0  0  0
  141.3428   76.6216  222.7112 H   0  0  0  0  0  0  0  0  0  0  0  0
  142.0625   77.2987  221.2591 H   0  0  0  0  0  0  0  0  0  0  0  0
  143.3713   78.8918  222.2614 H   0  0  0  0  0  0  0  0  0  0  0  0
  143.5833   81.1585  223.3274 H   0  0  0  0  0  0  0  0  0  0  0  0
  141.5560   82.1986  224.2551 H   0  0  0  0  0  0  0  0  0  0  0  0
  139.3450   81.0880  224.1677 H   0  0  0  0  0  0  0  0  0  0  0  0
  138.4354   78.4271  224.1145 H   0  0  0  0  0  0  0  0  0  0  0  0
  138.0600   79.3388  222.5902 H   0  0  0  0  0  0  0  0  0  0  0  0
  133.0367   75.4251  223.3227 H   0  0  0  0  0  0  0  0  0  0  0  0
  133.8990   74.0975  222.5062 H   0  0  0  0  0  0  0  0  0  0  0  0
  132.2221   73.0982  224.0083 H   0  0  0  0  0  0  0  0  0  0  0  0
  133.8063   72.7892  224.7326 H   0  0  0  0  0  0  0  0  0  0  0  0
  1  2  1  0
  2  3  1  0
  2  4  1  0
  4  5  1  0
  5  6  1  0
  6  7  1  0
  7  8  1  0
  8  9  2  0
  9 10  1  0
 10 11  1  0
 11 12  1  0
 12 13  1  0
 13 14  1  0
 14 15  1  0
 15 16  1  0
 16 17  1  0
 17 18  2  0
 18 19  1  0
 19 20  2  0
 20 21  1  0
 21 22  2  0
 22 23  1  0
 10 24  2  0
 24 25  1  0
 25 26  1  0
 26 27  1  0
 27 28  1  0
 28 29  1  0
 29 30  2  0
 30 31  1  0
 31 32  2  0
 32 33  1  0
 33 34  2  0
 34 35  1  0
 25 36  2  0
  7 37  1  0
 37 38  1  0
 38  4  1  0
 36  8  1  0
 23 14  1  0
 35 26  1  0
 22 17  1  0
 34 29  1  0
  1 39  1  0
  1 40  1  0
  1 41  1  0
  3 42  1  0
  3 43  1  0
  3 44  1  0
  4 45  1  0
  5 46  1  0
  5 47  1  0
  6 48  1  0
  6 49  1  0
 11 50  1  0
 12 51  1  0
 12 52  1  0
 13 53  1  0
 13 54  1  0
 15 55  1  0
 15 56  1  0
 16 57  1  0
 16 58  1  0
 18 59  1  0
 19 60  1  0
 20 61  1  0
 21 62  1  0
 23 63  1  0
 23 64  1  0
 27 65  1  0
 27 66  1  0
 28 67  1  0
 28 68  1  0
 30 69  1  0
 31 70  1  0
 32 71  1  0
 33 72  1  0
 35 73  1  0
 35 74  1  0
 37 75  1  0
 37 76  1  0
 38 77  1  0
 38 78  1  0
M  END
>  <smiles>  (39) 
CN(C)C1CCN(c2nc(NCCN3CCc4ccccc4C3)nc(N3CCc4ccccc4C3)n2)CC1

>  <score_type>  (39) 
oracle

>  <origin>  (39) 
autodockgpu

>  <m_score__min__energy>  (39) 
-11.130000000000001

>  <m_primary>  (39) 
energy

>  <rmsd>  (39) 
3.8278722237892775

>  <m_score__min__rmsd>  (39) 
3.8278722237892775

>  <meeko>  (39) 
{"free_energy": -9.64, "intermolecular_energy": -11.72, "internal_energy": -1.29, "cluster_size": 7, "cluster_id": 3, "rank_in_cluster": 7}

>  <energy>  (39) 
-9.82

>  <cluster_rmsd>  (39) 
0.36

>  <cluster>  (39) 
4

$$$$

     RDKit          3D

 78 83  0  0  0  0  0  0  0  0999 V2000
  141.4770   82.2790  222.1300 C   0  0  0  0  0  0  0  0  0  0  0  0
  141.4080   81.1250  222.9660 N   0  0  0  0  0  0  0  0  0  0  0  0
  142.5780   80.8960  223.7500 C   0  0  0  0  0  0  0  0  0  0  0  0
  140.8260   79.9600  222.3850 C   0  0  0  0  0  0  0  0  0  0  0  0
  141.7470   79.2900  221.4380 C   0  0  0  0  0  0  0  0  0  0  0  0
  141.4640   77.8860  221.0750 C   0  0  0  0  0  0  0  0  0  0  0  0
  140.5010   77.1810  221.8490 N   0  0  0  0  0  0  0  0  0  0  0  0
  140.4960   75.7470  221.8290 C   0  0  0  0  0  0  0  0  0  0  0  0
  139.3660   75.0340  222.1190 N   0  0  0  0  0  0  0  0  0  0  0  0
  139.3660   73.7020  222.0660 C   0  0  0  0  0  0  0  0  0  0  0  0
  138.3050   72.8310  222.3360 N   0  0  0  0  0  0  0  0  0  0  0  0
  138.0000   71.5390  221.7720 C   0  0  0  0  0  0  0  0  0  0  0  0
  138.9360   70.5460  222.3190 C   0  0  0  0  0  0  0  0  0  0  0  0
  139.0660   70.3670  223.7390 N   0  0  0  0  0  0  0  0  0  0  0  0
  138.9780   69.0260  224.1700 C   0  0  0  0  0  0  0  0  0  0  0  0
  139.1390   68.8690  225.6500 C   0  0  0  0  0  0  0  0  0  0  0  0
  139.9260   69.9030  226.3320 C   0  0  0  0  0  0  0  0  0  0  0  0
  140.1110   69.8460  227.6840 C   0  0  0  0  0  0  0  0  0  0  0  0
  140.8510   70.8370  228.3410 C   0  0  0  0  0  0  0  0  0  0  0  0
  141.4030   71.8890  227.6190 C   0  0  0  0  0  0  0  0  0  0  0  0
  141.1870   71.9030  226.2550 C   0  0  0  0  0  0  0  0  0  0  0  0
  140.4560   70.9240  225.5990 C   0  0  0  0  0  0  0  0  0  0  0  0
  140.3220   71.0450  224.1460 C   0  0  0  0  0  0  0  0  0  0  0  0
  140.5300   73.1030  221.7120 N   0  0  0  0  0  0  0  0  0  0  0  0
  141.6670   73.7520  221.4200 C   0  0  0  0  0  0  0  0  0  0  0  0
  142.7720   72.9470  221.0550 N   0  0  0  0  0  0  0  0  0  0  0  0
  144.0440   73.6420  220.7930 C   0  0  0  0  0  0  0  0  0  0  0  0
  144.4130   73.4600  219.3190 C   0  0  0  0  0  0  0  0  0  0  0  0
  144.5810   71.9670  219.1710 C   0  0  0  0  0  0  0  0  0  0  0  0
  145.5500   71.5800  218.2590 C   0  0  0  0  0  0  0  0  0  0  0  0
  145.7930   70.2300  218.0530 C   0  0  0  0  0  0  0  0  0  0  0  0
  145.0480   69.3440  218.7750 C   0  0  0  0  0  0  0  0  0  0  0  0
  144.0690   69.7360  219.6970 C   0  0  0  0  0  0  0  0  0  0  0  0
  143.8260   71.0800  219.9030 C   0  0  0  0  0  0  0  0  0  0  0  0
  142.7840   71.5230  220.8890 C   0  0  0  0  0  0  0  0  0  0  0  0
  141.6460   75.0800  221.4800 N   0  0  0  0  0  0  0  0  0  0  0  0
  139.5560   77.9130  222.6440 C   0  0  0  0  0  0  0  0  0  0  0  0
  140.3340   78.9680  223.4200 C   0  0  0  0  0  0  0  0  0  0  0  0
  141.5310   83.1822  222.7555 H   0  0  0  0  0  0  0  0  0  0  0  0
  142.3731   82.2187  221.4950 H   0  0  0  0  0  0  0  0  0  0  0  0
  140.5801   82.3259  221.4950 H   0  0  0  0  0  0  0  0  0  0  0  0
  142.3194   80.9466  224.8180 H   0  0  0  0  0  0  0  0  0  0  0  0
  142.9858   79.9010  223.5182 H   0  0  0  0  0  0  0  0  0  0  0  0
  143.3308   81.6639  223.5182 H   0  0  0  0  0  0  0  0  0  0  0  0
  139.9502   80.3199  221.8251 H   0  0  0  0  0  0  0  0  0  0  0  0
  141.7432   79.8762  220.5072 H   0  0  0  0  0  0  0  0  0  0  0  0
  142.7085   79.2488  221.9707 H   0  0  0  0  0  0  0  0  0  0  0  0
  141.1138   77.8812  220.0323 H   0  0  0  0  0  0  0  0  0  0  0  0
  142.4099   77.3562  221.2611 H   0  0  0  0  0  0  0  0  0  0  0  0
  137.6110   73.1750  223.0760 H   0  0  0  0  0  0  0  0  0  0  0  0
  136.9691   71.2569  222.0322 H   0  0  0  0  0  0  0  0  0  0  0  0
  138.0975   71.5786  220.6771 H   0  0  0  0  0  0  0  0  0  0  0  0
  138.6380   69.5714  221.9051 H   0  0  0  0  0  0  0  0  0  0  0  0
  139.9182   70.9488  222.0309 H   0  0  0  0  0  0  0  0  0  0  0  0
  137.9929   68.6304  223.8819 H   0  0  0  0  0  0  0  0  0  0  0  0
  139.8013   68.4750  223.6920 H   0  0  0  0  0  0  0  0  0  0  0  0
  138.1342   68.8630  226.0976 H   0  0  0  0  0  0  0  0  0  0  0  0
  139.7026   67.9342  225.7860 H   0  0  0  0  0  0  0  0  0  0  0  0
  139.6759   69.0164  228.2606 H   0  0  0  0  0  0  0  0  0  0  0  0
  140.9957   70.7829  229.4301 H   0  0  0  0  0  0  0  0  0  0  0  0
  141.9880   72.6781  228.1140 H   0  0  0  0  0  0  0  0  0  0  0  0
  141.6133   72.7265  225.6632 H   0  0  0  0  0  0  0  0  0  0  0  0
  140.2806   72.1071  223.8629 H   0  0  0  0  0  0  0  0  0  0  0  0
  141.1843   70.5813  223.6446 H   0  0  0  0  0  0  0  0  0  0  0  0
  143.9324   74.7133  221.0163 H   0  0  0  0  0  0  0  0  0  0  0  0
  144.8364   73.2226  221.4304 H   0  0  0  0  0  0  0  0  0  0  0  0
  143.6096   73.8306  218.6654 H   0  0  0  0  0  0  0  0  0  0  0  0
  145.3162   74.0198  219.0345 H   0  0  0  0  0  0  0  0  0  0  0  0
  146.1219   72.3374  217.7029 H   0  0  0  0  0  0  0  0  0  0  0  0
  146.5549   69.8879  217.3371 H   0  0  0  0  0  0  0  0  0  0  0  0
  145.2249   68.2686  218.6257 H   0  0  0  0  0  0  0  0  0  0  0  0
  143.4975   68.9785  220.2533 H   0  0  0  0  0  0  0  0  0  0  0  0
  141.7957   71.1990  220.5308 H   0  0  0  0  0  0  0  0  0  0  0  0
  143.0230   71.0697  221.8623 H   0  0  0  0  0  0  0  0  0  0  0  0
  138.8125   78.3969  221.9936 H   0  0  0  0  0  0  0  0  0  0  0  0
  139.0228   77.2398  223.3314 H   0  0  0  0  0  0  0  0  0  0  0  0
  139.6795   79.4678  224.1493 H   0  0  0  0  0  0  0  0  0  0  0  0
  141.1672   78.5240  223.9845 H   0  0  0  0  0  0  0  0  0  0  0  0
  1  2  1  0
  2  3  1  0
  2  4  1  0
  4  5  1  0
  5  6  1  0
  6  7  1  0
  7  8  1  0
  8  9  2  0
  9 10  1  0
 10 11  1  0
 11 12  1  0
 12 13  1  0
 13 14  1  0
 14 15  1  0
 15 16  1  0
 16 17  1  0
 17 18  2  0
 18 19  1  0
 19 20  2  0
 20 21  1  0
 21 22  2  0
 22 23  1  0
 10 24  2  0
 24 25  1  0
 25 26  1  0
 26 27  1  0
 27 28  1  0
 28 29  1  0
 29 30  2  0
 30 31  1  0
 31 32  2  0
 32 33  1  0
 33 34  2  0
 34 35  1  0
 25 36  2  0
  7 37  1  0
 37 38  1  0
 38  4  1  0
 36  8  1  0
 23 14  1  0
 35 26  1  0
 22 17  1  0
 34 29  1  0
  1 39  1  0
  1 40  1  0
  1 41  1  0
  3 42  1  0
  3 43  1  0
  3 44  1  0
  4 45  1  0
  5 46  1  0
  5 47  1  0
  6 48  1  0
  6 49  1  0
 11 50  1  0
 12 51  1  0
 12 52  1  0
 13 53  1  0
 13 54  1  0
 15 55  1  0
 15 56  1  0
 16 57  1  0
 16 58  1  0
 18 59  1  0
 19 60  1  0
 20 61  1  0
 21 62  1  0
 23 63  1  0
 23 64  1  0
 27 65  1  0
 27 66  1  0
 28 67  1  0
 28 68  1  0
 30 69  1  0
 31 70  1  0
 32 71  1  0
 33 72  1  0
 35 73  1  0
 35 74  1  0
 37 75  1  0
 37 76  1  0
 38 77  1  0
 38 78  1  0
M  END
>  <smiles>  (40) 
CN(C)C1CCN(c2nc(NCCN3CCc4ccccc4C3)nc(N3CCc4ccccc4C3)n2)CC1

>  <score_type>  (40) 
oracle

>  <origin>  (40) 
autodockgpu

>  <m_score__min__energy>  (40) 
-11.130000000000001

>  <m_primary>  (40) 
energy

>  <rmsd>  (40) 
4.0154164267008365

>  <m_score__min__rmsd>  (40) 
4.0154164267008365

>  <meeko>  (40) 
{"free_energy": -10.41, "intermolecular_energy": -12.5, "internal_energy": -1.65, "cluster_size": 13, "cluster_id": 2, "rank_in_cluster": 4}

>  <energy>  (40) 
-9.8

>  <cluster_rmsd>  (40) 
0.4

>  <cluster>  (40) 
4

$$$$

     RDKit          3D

 78 83  0  0  0  0  0  0  0  0999 V2000
  141.3260   81.8700  222.2360 C   0  0  0  0  0  0  0  0  0  0  0  0
  141.7330   80.5890  221.7590 N   0  0  0  0  0  0  0  0  0  0  0  0
  141.8400   80.4970  220.3390 C   0  0  0  0  0  0  0  0  0  0  0  0
  141.1420   79.4600  222.4000 C   0  0  0  0  0  0  0  0  0  0  0  0
  139.7060   79.6760  222.6940 C   0  0  0  0  0  0  0  0  0  0  0  0
  138.8720   78.4880  222.9710 C   0  0  0  0  0  0  0  0  0  0  0  0
  139.4200   77.2080  222.6780 N   0  0  0  0  0  0  0  0  0  0  0  0
  138.5410   76.0870  222.5210 C   0  0  0  0  0  0  0  0  0  0  0  0
  138.8740   75.0260  221.7240 N   0  0  0  0  0  0  0  0  0  0  0  0
  138.0610   73.9750  221.6110 C   0  0  0  0  0  0  0  0  0  0  0  0
  138.2490   72.8220  220.8410 N   0  0  0  0  0  0  0  0  0  0  0  0
  139.0800   71.6690  221.0880 C   0  0  0  0  0  0  0  0  0  0  0  0
  139.9110   71.9220  222.2740 C   0  0  0  0  0  0  0  0  0  0  0  0
  139.5840   71.3220  223.5390 N   0  0  0  0  0  0  0  0  0  0  0  0
  139.2520   69.9530  223.4670 C   0  0  0  0  0  0  0  0  0  0  0  0
  138.9380   69.3510  224.8010 C   0  0  0  0  0  0  0  0  0  0  0  0
  139.5640   69.9870  225.9670 C   0  0  0  0  0  0  0  0  0  0  0  0
  139.3210   69.5120  227.2230 C   0  0  0  0  0  0  0  0  0  0  0  0
  139.9060   70.1240  228.3380 C   0  0  0  0  0  0  0  0  0  0  0  0
  140.7420   71.2220  228.1730 C   0  0  0  0  0  0  0  0  0  0  0  0
  140.9570   71.6650  226.8820 C   0  0  0  0  0  0  0  0  0  0  0  0
  140.3800   71.0630  225.7740 C   0  0  0  0  0  0  0  0  0  0  0  0
  140.7090   71.6190  224.4600 C   0  0  0  0  0  0  0  0  0  0  0  0
  136.9060   74.0140  222.3210 N   0  0  0  0  0  0  0  0  0  0  0  0
  136.5290   75.0270  223.1150 C   0  0  0  0  0  0  0  0  0  0  0  0
  135.2930   74.8720  223.7860 N   0  0  0  0  0  0  0  0  0  0  0  0
  134.4370   76.0660  223.8910 C   0  0  0  0  0  0  0  0  0  0  0  0
  134.3060   76.4530  225.3640 C   0  0  0  0  0  0  0  0  0  0  0  0
  133.6320   75.2580  225.9940 C   0  0  0  0  0  0  0  0  0  0  0  0
  132.7750   75.5590  227.0400 C   0  0  0  0  0  0  0  0  0  0  0  0
  132.0960   74.5350  227.6820 C   0  0  0  0  0  0  0  0  0  0  0  0
  132.3160   73.2640  227.2370 C   0  0  0  0  0  0  0  0  0  0  0  0
  133.1830   72.9610  226.1790 C   0  0  0  0  0  0  0  0  0  0  0  0
  133.8600   73.9800  225.5390 C   0  0  0  0  0  0  0  0  0  0  0  0
  134.7910   73.6780  224.3990 C   0  0  0  0  0  0  0  0  0  0  0  0
  137.3530   76.0670  223.2120 N   0  0  0  0  0  0  0  0  0  0  0  0
  140.8410   77.0600  222.5350 C   0  0  0  0  0  0  0  0  0  0  0  0
  141.3250   78.1750  221.6170 C   0  0  0  0  0  0  0  0  0  0  0  0
  141.3264   81.8688  223.3360 H   0  0  0  0  0  0  0  0  0  0  0  0
  142.0248   82.6366  221.8699 H   0  0  0  0  0  0  0  0  0  0  0  0
  140.3129   82.0927  221.8699 H   0  0  0  0  0  0  0  0  0  0  0  0
  142.6500   79.8005  220.0767 H   0  0  0  0  0  0  0  0  0  0  0  0
  140.8907   80.1288  219.9229 H   0  0  0  0  0  0  0  0  0  0  0  0
  142.0618   81.4908  219.9229 H   0  0  0  0  0  0  0  0  0  0  0  0
  141.6809   79.3489  223.3525 H   0  0  0  0  0  0  0  0  0  0  0  0
  139.6468   80.3310  223.5758 H   0  0  0  0  0  0  0  0  0  0  0  0
  139.2930   80.0929  221.7636 H   0  0  0  0  0  0  0  0  0  0  0  0
  138.6273   78.5021  224.0433 H   0  0  0  0  0  0  0  0  0  0  0  0
  138.0163   78.5855  222.2866 H   0  0  0  0  0  0  0  0  0  0  0  0
  137.6910   72.7880  219.9270 H   0  0  0  0  0  0  0  0  0  0  0  0
  138.4453   70.7880  221.2638 H   0  0  0  0  0  0  0  0  0  0  0  0
  139.7243   71.4822  220.2162 H   0  0  0  0  0  0  0  0  0  0  0  0
  140.9287   71.5893  222.0218 H   0  0  0  0  0  0  0  0  0  0  0  0
  139.7518   72.9941  222.4618 H   0  0  0  0  0  0  0  0  0  0  0  0
  138.3718   69.8405  222.8169 H   0  0  0  0  0  0  0  0  0  0  0  0
  140.1305   69.4243  223.0686 H   0  0  0  0  0  0  0  0  0  0  0  0
  137.8478   69.3957  224.9403 H   0  0  0  0  0  0  0  0  0  0  0  0
  139.3510   68.3320  224.7667 H   0  0  0  0  0  0  0  0  0  0  0  0
  138.6612   68.6426  227.3603 H   0  0  0  0  0  0  0  0  0  0  0  0
  139.7036   69.7350  229.3468 H   0  0  0  0  0  0  0  0  0  0  0  0
  141.2130   71.7178  229.0346 H   0  0  0  0  0  0  0  0  0  0  0  0
  141.6145   72.5330  226.7264 H   0  0  0  0  0  0  0  0  0  0  0  0
  140.8482   72.7072  224.5398 H   0  0  0  0  0  0  0  0  0  0  0  0
  141.6403   71.1737  224.0801 H   0  0  0  0  0  0  0  0  0  0  0  0
  134.8908   76.8963  223.3300 H   0  0  0  0  0  0  0  0  0  0  0  0
  133.4429   75.8500  223.4725 H   0  0  0  0  0  0  0  0  0  0  0  0
  135.2953   76.6262  225.8127 H   0  0  0  0  0  0  0  0  0  0  0  0
  133.7402   77.3851  225.5094 H   0  0  0  0  0  0  0  0  0  0  0  0
  132.6344   76.6024  227.3586 H   0  0  0  0  0  0  0  0  0  0  0  0
  131.4081   74.7387  228.5159 H   0  0  0  0  0  0  0  0  0  0  0  0
  131.7869   72.4370  227.7331 H   0  0  0  0  0  0  0  0  0  0  0  0
  133.3235   71.9176  225.8602 H   0  0  0  0  0  0  0  0  0  0  0  0
  135.6394   73.0902  224.7794 H   0  0  0  0  0  0  0  0  0  0  0  0
  134.2274   73.1168  223.6392 H   0  0  0  0  0  0  0  0  0  0  0  0
  141.3285   77.1437  223.5175 H   0  0  0  0  0  0  0  0  0  0  0  0
  141.0884   76.0747  222.1131 H   0  0  0  0  0  0  0  0  0  0  0  0
  142.3850   78.0289  221.3622 H   0  0  0  0  0  0  0  0  0  0  0  0
  140.7649   78.1933  220.6705 H   0  0  0  0  0  0  0  0  0  0  0  0
  1  2  1  0
  2  3  1  0
  2  4  1  0
  4  5  1  0
  5  6  1  0
  6  7  1  0
  7  8  1  0
  8  9  2  0
  9 10  1  0
 10 11  1  0
 11 12  1  0
 12 13  1  0
 13 14  1  0
 14 15  1  0
 15 16  1  0
 16 17  1  0
 17 18  2  0
 18 19  1  0
 19 20  2  0
 20 21  1  0
 21 22  2  0
 22 23  1  0
 10 24  2  0
 24 25  1  0
 25 26  1  0
 26 27  1  0
 27 28  1  0
 28 29  1  0
 29 30  2  0
 30 31  1  0
 31 32  2  0
 32 33  1  0
 33 34  2  0
 34 35  1  0
 25 36  2  0
  7 37  1  0
 37 38  1  0
 38  4  1  0
 36  8  1  0
 23 14  1  0
 35 26  1  0
 22 17  1  0
 34 29  1  0
  1 39  1  0
  1 40  1  0
  1 41  1  0
  3 42  1  0
  3 43  1  0
  3 44  1  0
  4 45  1  0
  5 46  1  0
  5 47  1  0
  6 48  1  0
  6 49  1  0
 11 50  1  0
 12 51  1  0
 12 52  1  0
 13 53  1  0
 13 54  1  0
 15 55  1  0
 15 56  1  0
 16 57  1  0
 16 58  1  0
 18 59  1  0
 19 60  1  0
 20 61  1  0
 21 62  1  0
 23 63  1  0
 23 64  1  0
 27 65  1  0
 27 66  1  0
 28 67  1  0
 28 68  1  0
 30 69  1  0
 31 70  1  0
 32 71  1  0
 33 72  1  0
 35 73  1  0
 35 74  1  0
 37 75  1  0
 37 76  1  0
 38 77  1  0
 38 78  1  0
M  END
>  <smiles>  (41) 
CN(C)C1CCN(c2nc(NCCN3CCc4ccccc4C3)nc(N3CCc4ccccc4C3)n2)CC1

>  <score_type>  (41) 
oracle

>  <origin>  (41) 
autodockgpu

>  <m_score__min__energy>  (41) 
-11.130000000000001

>  <m_primary>  (41) 
energy

>  <rmsd>  (41) 
3.8962873400764426

>  <m_score__min__rmsd>  (41) 
3.8962873400764426

>  <meeko>  (41) 
{"free_energy": -9.4, "intermolecular_energy": -11.49, "internal_energy": -1.42, "cluster_size": 6, "cluster_id": 4, "rank_in_cluster": 6}

>  <energy>  (41) 
-9.49

>  <cluster_rmsd>  (41) 
0.65

>  <cluster>  (41) 
4

$$$$

     RDKit          3D

 78 83  0  0  0  0  0  0  0  0999 V2000
  141.3600   81.5640  220.2560 C   0  0  0  0  0  0  0  0  0  0  0  0
  140.9650   80.8320  221.4160 N   0  0  0  0  0  0  0  0  0  0  0  0
  140.9710   81.5940  222.6210 C   0  0  0  0  0  0  0  0  0  0  0  0
  141.4800   79.5070  221.5290 C   0  0  0  0  0  0  0  0  0  0  0  0
  140.9590   78.8080  222.7270 C   0  0  0  0  0  0  0  0  0  0  0  0
  141.0640   77.3340  222.7670 C   0  0  0  0  0  0  0  0  0  0  0  0
  141.4030   76.6590  221.5610 N   0  0  0  0  0  0  0  0  0  0  0  0
  141.1080   75.2620  221.4310 C   0  0  0  0  0  0  0  0  0  0  0  0
  139.9690   74.7220  221.9610 N   0  0  0  0  0  0  0  0  0  0  0  0
  139.6920   73.4270  221.8050 C   0  0  0  0  0  0  0  0  0  0  0  0
  138.5820   72.7230  222.2850 N   0  0  0  0  0  0  0  0  0  0  0  0
  138.0410   71.4520  221.8710 C   0  0  0  0  0  0  0  0  0  0  0  0
  138.9000   70.3760  222.3850 C   0  0  0  0  0  0  0  0  0  0  0  0
  139.0890   70.2020  223.8000 N   0  0  0  0  0  0  0  0  0  0  0  0
  139.1440   68.8570  224.2220 C   0  0  0  0  0  0  0  0  0  0  0  0
  139.3620   68.7080  225.6950 C   0  0  0  0  0  0  0  0  0  0  0  0
  140.0640   69.8110  226.3640 C   0  0  0  0  0  0  0  0  0  0  0  0
  140.2940   69.7640  227.7090 C   0  0  0  0  0  0  0  0  0  0  0  0
  140.9510   70.8190  228.3530 C   0  0  0  0  0  0  0  0  0  0  0  0
  141.3770   71.9240  227.6250 C   0  0  0  0  0  0  0  0  0  0  0  0
  141.1220   71.9240  226.2670 C   0  0  0  0  0  0  0  0  0  0  0  0
  140.4710   70.8820  225.6240 C   0  0  0  0  0  0  0  0  0  0  0  0
  140.2840   70.9980  224.1760 C   0  0  0  0  0  0  0  0  0  0  0  0
  140.5850   72.6880  221.1020 N   0  0  0  0  0  0  0  0  0  0  0  0
  141.7170   73.1660  220.5630 C   0  0  0  0  0  0  0  0  0  0  0  0
  142.5110   72.2370  219.8480 N   0  0  0  0  0  0  0  0  0  0  0  0
  141.8020   71.1450  219.1600 C   0  0  0  0  0  0  0  0  0  0  0  0
  142.1980   69.8150  219.8030 C   0  0  0  0  0  0  0  0  0  0  0  0
  143.6850   69.7240  219.5560 C   0  0  0  0  0  0  0  0  0  0  0  0
  144.1630   68.4380  219.3560 C   0  0  0  0  0  0  0  0  0  0  0  0
  145.5130   68.2420  219.1110 C   0  0  0  0  0  0  0  0  0  0  0  0
  146.3090   69.3500  219.0790 C   0  0  0  0  0  0  0  0  0  0  0  0
  145.8260   70.6490  219.2810 C   0  0  0  0  0  0  0  0  0  0  0  0
  144.4810   70.8460  219.5250 C   0  0  0  0  0  0  0  0  0  0  0  0
  143.9400   72.2300  219.7400 C   0  0  0  0  0  0  0  0  0  0  0  0
  141.9760   74.4590  220.7310 N   0  0  0  0  0  0  0  0  0  0  0  0
  142.0270   77.3870  220.4920 C   0  0  0  0  0  0  0  0  0  0  0  0
  141.2310   78.6700  220.2890 C   0  0  0  0  0  0  0  0  0  0  0  0
  141.8617   82.4937  220.5624 H   0  0  0  0  0  0  0  0  0  0  0  0
  142.0518   80.9547  219.6558 H   0  0  0  0  0  0  0  0  0  0  0  0
  140.4709   81.8077  219.6558 H   0  0  0  0  0  0  0  0  0  0  0  0
  140.9656   80.9135  223.4852 H   0  0  0  0  0  0  0  0  0  0  0  0
  141.8741   82.2212  222.6538 H   0  0  0  0  0  0  0  0  0  0  0  0
  140.0779   82.2353  222.6538 H   0  0  0  0  0  0  0  0  0  0  0  0
  142.5682   79.6243  221.6386 H   0  0  0  0  0  0  0  0  0  0  0  0
  141.5050   79.1992  223.5981 H   0  0  0  0  0  0  0  0  0  0  0  0
  139.8773   79.0077  222.7148 H   0  0  0  0  0  0  0  0  0  0  0  0
  141.8325   77.0801  223.5120 H   0  0  0  0  0  0  0  0  0  0  0  0
  140.0451   76.9904  222.9992 H   0  0  0  0  0  0  0  0  0  0  0  0
  138.0510   73.1990  223.0850 H   0  0  0  0  0  0  0  0  0  0  0  0
  137.0237   71.3356  222.2730 H   0  0  0  0  0  0  0  0  0  0  0  0
  138.0028   71.4044  220.7727 H   0  0  0  0  0  0  0  0  0  0  0  0
  138.4827   69.4318  222.0050 H   0  0  0  0  0  0  0  0  0  0  0  0
  139.9006   70.6731  222.0379 H   0  0  0  0  0  0  0  0  0  0  0  0
  138.1940   68.3691  223.9584 H   0  0  0  0  0  0  0  0  0  0  0  0
  140.0029   68.3914  223.7165 H   0  0  0  0  0  0  0  0  0  0  0  0
  138.3759   68.6010  226.1706 H   0  0  0  0  0  0  0  0  0  0  0  0
  140.0179   67.8321  225.8072 H   0  0  0  0  0  0  0  0  0  0  0  0
  139.9609   68.8915  228.2902 H   0  0  0  0  0  0  0  0  0  0  0  0
  141.1306   70.7736  229.4373 H   0  0  0  0  0  0  0  0  0  0  0  0
  141.8958   72.7639  228.1101 H   0  0  0  0  0  0  0  0  0  0  0  0
  141.4496   72.7880  225.6701 H   0  0  0  0  0  0  0  0  0  0  0  0
  140.1305   72.0525  223.9032 H   0  0  0  0  0  0  0  0  0  0  0  0
  141.1727   70.6248  223.6459 H   0  0  0  0  0  0  0  0  0  0  0  0
  140.7160   71.2922  219.2550 H   0  0  0  0  0  0  0  0  0  0  0  0
  142.0722   71.1386  218.0937 H   0  0  0  0  0  0  0  0  0  0  0  0
  141.9795   69.8205  220.8811 H   0  0  0  0  0  0  0  0  0  0  0  0
  141.6446   68.9601  219.3872 H   0  0  0  0  0  0  0  0  0  0  0  0
  143.4759   67.5797  219.3915 H   0  0  0  0  0  0  0  0  0  0  0  0
  145.9256   67.2353  218.9491 H   0  0  0  0  0  0  0  0  0  0  0  0
  147.3834   69.2162  218.8849 H   0  0  0  0  0  0  0  0  0  0  0  0
  146.5136   71.5069  219.2456 H   0  0  0  0  0  0  0  0  0  0  0  0
  144.3682   72.6386  220.6672 H   0  0  0  0  0  0  0  0  0  0  0  0
  144.2180   72.8425  218.8696 H   0  0  0  0  0  0  0  0  0  0  0  0
  143.0668   77.6278  220.7579 H   0  0  0  0  0  0  0  0  0  0  0  0
  142.0396   76.7878  219.5696 H   0  0  0  0  0  0  0  0  0  0  0  0
  141.5810   79.2007  219.3913 H   0  0  0  0  0  0  0  0  0  0  0  0
  140.1598   78.4652  220.1454 H   0  0  0  0  0  0  0  0  0  0  0  0
  1  2  1  0
  2  3  1  0
  2  4  1  0
  4  5  1  0
  5  6  1  0
  6  7  1  0
  7  8  1  0
  8  9  2  0
  9 10  1  0
 10 11  1  0
 11 12  1  0
 12 13  1  0
 13 14  1  0
 14 15  1  0
 15 16  1  0
 16 17  1  0
 17 18  2  0
 18 19  1  0
 19 20  2  0
 20 21  1  0
 21 22  2  0
 22 23  1  0
 10 24  2  0
 24 25  1  0
 25 26  1  0
 26 27  1  0
 27 28  1  0
 28 29  1  0
 29 30  2  0
 30 31  1  0
 31 32  2  0
 32 33  1  0
 33 34  2  0
 34 35  1  0
 25 36  2  0
  7 37  1  0
 37 38  1  0
 38  4  1  0
 36  8  1  0
 23 14  1  0
 35 26  1  0
 22 17  1  0
 34 29  1  0
  1 39  1  0
  1 40  1  0
  1 41  1  0
  3 42  1  0
  3 43  1  0
  3 44  1  0
  4 45  1  0
  5 46  1  0
  5 47  1  0
  6 48  1  0
  6 49  1  0
 11 50  1  0
 12 51  1  0
 12 52  1  0
 13 53  1  0
 13 54  1  0
 15 55  1  0
 15 56  1  0
 16 57  1  0
 16 58  1  0
 18 59  1  0
 19 60  1  0
 20 61  1  0
 21 62  1  0
 23 63  1  0
 23 64  1  0
 27 65  1  0
 27 66  1  0
 28 67  1  0
 28 68  1  0
 30 69  1  0
 31 70  1  0
 32 71  1  0
 33 72  1  0
 35 73  1  0
 35 74  1  0
 37 75  1  0
 37 76  1  0
 38 77  1  0
 38 78  1  0
M  END
>  <smiles>  (42) 
CN(C)C1CCN(c2nc(NCCN3CCc4ccccc4C3)nc(N3CCc4ccccc4C3)n2)CC1

>  <score_type>  (42) 
oracle

>  <origin>  (42) 
autodockgpu

>  <m_score__min__energy>  (42) 
-11.130000000000001

>  <m_primary>  (42) 
energy

>  <rmsd>  (42) 
4.040029849599812

>  <m_score__min__rmsd>  (42) 
4.040029849599812

>  <meeko>  (42) 
{"free_energy": -10.06, "intermolecular_energy": -12.15, "internal_energy": -1.58, "cluster_size": 13, "cluster_id": 2, "rank_in_cluster": 9}

>  <energy>  (42) 
-9.4

>  <cluster_rmsd>  (42) 
0.8

>  <cluster>  (42) 
4

$$$$

     RDKit          3D

 78 83  0  0  0  0  0  0  0  0999 V2000
  132.0610   72.7910  227.3540 C   0  0  0  0  0  0  0  0  0  0  0  0
  132.6680   74.0750  227.2210 N   0  0  0  0  0  0  0  0  0  0  0  0
  131.9400   75.1360  227.8370 C   0  0  0  0  0  0  0  0  0  0  0  0
  133.2250   74.3790  225.9440 C   0  0  0  0  0  0  0  0  0  0  0  0
  133.9160   75.6890  225.9350 C   0  0  0  0  0  0  0  0  0  0  0  0
  134.8730   75.9580  224.8410 C   0  0  0  0  0  0  0  0  0  0  0  0
  135.2760   74.8630  224.0270 N   0  0  0  0  0  0  0  0  0  0  0  0
  136.4820   74.9660  223.2590 C   0  0  0  0  0  0  0  0  0  0  0  0
  136.9700   73.9010  222.5520 N   0  0  0  0  0  0  0  0  0  0  0  0
  138.0760   74.0190  221.8160 C   0  0  0  0  0  0  0  0  0  0  0  0
  138.7030   73.0340  221.0450 N   0  0  0  0  0  0  0  0  0  0  0  0
  138.6770   71.5980  221.1780 C   0  0  0  0  0  0  0  0  0  0  0  0
  139.7840   71.1780  222.0490 C   0  0  0  0  0  0  0  0  0  0  0  0
  139.5440   70.8390  223.4260 N   0  0  0  0  0  0  0  0  0  0  0  0
  139.2530   69.4760  223.6500 C   0  0  0  0  0  0  0  0  0  0  0  0
  139.0300   69.1500  225.0930 C   0  0  0  0  0  0  0  0  0  0  0  0
  139.6970   70.0210  226.0690 C   0  0  0  0  0  0  0  0  0  0  0  0
  139.5370   69.8030  227.4070 C   0  0  0  0  0  0  0  0  0  0  0  0
  140.1610   70.6400  228.3410 C   0  0  0  0  0  0  0  0  0  0  0  0
  140.9510   71.6990  227.9100 C   0  0  0  0  0  0  0  0  0  0  0  0
  141.0830   71.8770  226.5460 C   0  0  0  0  0  0  0  0  0  0  0  0
  140.4660   71.0520  225.6170 C   0  0  0  0  0  0  0  0  0  0  0  0
  140.7070   71.3380  224.2010 C   0  0  0  0  0  0  0  0  0  0  0  0
  138.6790   75.2330  221.8050 N   0  0  0  0  0  0  0  0  0  0  0  0
  138.2460   76.3090  222.4790 C   0  0  0  0  0  0  0  0  0  0  0  0
  139.0050   77.4930  222.3250 N   0  0  0  0  0  0  0  0  0  0  0  0
  139.9570   77.5320  221.2020 C   0  0  0  0  0  0  0  0  0  0  0  0
  141.3790   77.6140  221.7600 C   0  0  0  0  0  0  0  0  0  0  0  0
  141.3940   78.9200  222.5170 C   0  0  0  0  0  0  0  0  0  0  0  0
  142.6090   79.5870  222.4980 C   0  0  0  0  0  0  0  0  0  0  0  0
  142.7300   80.8030  223.1540 C   0  0  0  0  0  0  0  0  0  0  0  0
  141.6230   81.2810  223.7930 C   0  0  0  0  0  0  0  0  0  0  0  0
  140.3960   80.6060  223.8110 C   0  0  0  0  0  0  0  0  0  0  0  0
  140.2740   79.3950  223.1580 C   0  0  0  0  0  0  0  0  0  0  0  0
  138.9660   78.6560  223.1610 C   0  0  0  0  0  0  0  0  0  0  0  0
  137.1430   76.1700  223.2090 N   0  0  0  0  0  0  0  0  0  0  0  0
  134.4770   73.6710  223.9940 C   0  0  0  0  0  0  0  0  0  0  0  0
  134.1570   73.2960  225.4350 C   0  0  0  0  0  0  0  0  0  0  0  0
  131.9463   72.5484  228.4208 H   0  0  0  0  0  0  0  0  0  0  0  0
  131.0723   72.8011  226.8719 H   0  0  0  0  0  0  0  0  0  0  0  0
  132.6963   72.0334  226.8719 H   0  0  0  0  0  0  0  0  0  0  0  0
  132.0063   75.0394  228.9308 H   0  0  0  0  0  0  0  0  0  0  0  0
  132.3668   76.1015  227.5276 H   0  0  0  0  0  0  0  0  0  0  0  0
  130.8856   75.0852  227.5276 H   0  0  0  0  0  0  0  0  0  0  0  0
  132.3680   74.4320  225.2565 H   0  0  0  0  0  0  0  0  0  0  0  0
  133.1407   76.4681  225.8912 H   0  0  0  0  0  0  0  0  0  0  0  0
  134.5327   75.6822  226.8459 H   0  0  0  0  0  0  0  0  0  0  0  0
  134.4127   76.7065  224.1793 H   0  0  0  0  0  0  0  0  0  0  0  0
  135.7938   76.2771  225.3512 H   0  0  0  0  0  0  0  0  0  0  0  0
  139.2930   73.4000  220.2290 H   0  0  0  0  0  0  0  0  0  0  0  0
  137.7200   71.2860  221.6215 H   0  0  0  0  0  0  0  0  0  0  0  0
  138.7854   71.1310  220.1879 H   0  0  0  0  0  0  0  0  0  0  0  0
  140.2339   70.2904  221.5802 H   0  0  0  0  0  0  0  0  0  0  0  0
  140.3981   72.0876  222.1227 H   0  0  0  0  0  0  0  0  0  0  0  0
  138.3437   69.2158  223.0883 H   0  0  0  0  0  0  0  0  0  0  0  0
  140.1258   68.8963  223.3152 H   0  0  0  0  0  0  0  0  0  0  0  0
  137.9479   69.2000  225.2842 H   0  0  0  0  0  0  0  0  0  0  0  0
  139.4725   68.1537  225.2396 H   0  0  0  0  0  0  0  0  0  0  0  0
  138.9144   68.9651  227.7538 H   0  0  0  0  0  0  0  0  0  0  0  0
  140.0254   70.4587  229.4175 H   0  0  0  0  0  0  0  0  0  0  0  0
  141.4509   72.3683  228.6256 H   0  0  0  0  0  0  0  0  0  0  0  0
  141.7039   72.7085  226.1813 H   0  0  0  0  0  0  0  0  0  0  0  0
  140.8163   72.4225  224.0529 H   0  0  0  0  0  0  0  0  0  0  0  0
  141.6302   70.8439  223.8639 H   0  0  0  0  0  0  0  0  0  0  0  0
  139.8503   76.6204  220.5957 H   0  0  0  0  0  0  0  0  0  0  0  0
  139.7532   78.4098  220.5711 H   0  0  0  0  0  0  0  0  0  0  0  0
  141.5853   76.7686  222.4329 H   0  0  0  0  0  0  0  0  0  0  0  0
  142.1475   77.5689  220.9743 H   0  0  0  0  0  0  0  0  0  0  0  0
  143.4702   79.1554  221.9670 H   0  0  0  0  0  0  0  0  0  0  0  0
  143.6790   81.3591  223.1590 H   0  0  0  0  0  0  0  0  0  0  0  0
  141.6981   82.2437  224.3198 H   0  0  0  0  0  0  0  0  0  0  0  0
  139.5347   81.0376  224.3419 H   0  0  0  0  0  0  0  0  0  0  0  0
  138.7358   78.3456  224.1909 H   0  0  0  0  0  0  0  0  0  0  0  0
  138.1928   79.3320  222.7671 H   0  0  0  0  0  0  0  0  0  0  0  0
  133.5460   73.8579  223.4387 H   0  0  0  0  0  0  0  0  0  0  0  0
  135.0177   72.8553  223.4917 H   0  0  0  0  0  0  0  0  0  0  0  0
  133.6622   72.3144  225.4750 H   0  0  0  0  0  0  0  0  0  0  0  0
  135.0679   73.2236  226.0474 H   0  0  0  0  0  0  0  0  0  0  0  0
  1  2  1  0
  2  3  1  0
  2  4  1  0
  4  5  1  0
  5  6  1  0
  6  7  1  0
  7  8  1  0
  8  9  2  0
  9 10  1  0
 10 11  1  0
 11 12  1  0
 12 13  1  0
 13 14  1  0
 14 15  1  0
 15 16  1  0
 16 17  1  0
 17 18  2  0
 18 19  1  0
 19 20  2  0
 20 21  1  0
 21 22  2  0
 22 23  1  0
 10 24  2  0
 24 25  1  0
 25 26  1  0
 26 27  1  0
 27 28  1  0
 28 29  1  0
 29 30  2  0
 30 31  1  0
 31 32  2  0
 32 33  1  0
 33 34  2  0
 34 35  1  0
 25 36  2  0
  7 37  1  0
 37 38  1  0
 38  4  1  0
 36  8  1  0
 23 14  1  0
 35 26  1  0
 22 17  1  0
 34 29  1  0
  1 39  1  0
  1 40  1  0
  1 41  1  0
  3 42  1  0
  3 43  1  0
  3 44  1  0
  4 45  1  0
  5 46  1  0
  5 47  1  0
  6 48  1  0
  6 49  1  0
 11 50  1  0
 12 51  1  0
 12 52  1  0
 13 53  1  0
 13 54  1  0
 15 55  1  0
 15 56  1  0
 16 57  1  0
 16 58  1  0
 18 59  1  0
 19 60  1  0
 20 61  1  0
 21 62  1  0
 23 63  1  0
 23 64  1  0
 27 65  1  0
 27 66  1  0
 28 67  1  0
 28 68  1  0
 30 69  1  0
 31 70  1  0
 32 71  1  0
 33 72  1  0
 35 73  1  0
 35 74  1  0
 37 75  1  0
 37 76  1  0
 38 77  1  0
 38 78  1  0
M  END
>  <smiles>  (43) 
CN(C)C1CCN(c2nc(NCCN3CCc4ccccc4C3)nc(N3CCc4ccccc4C3)n2)CC1

>  <score_type>  (43) 
oracle

>  <origin>  (43) 
autodockgpu

>  <m_score__min__energy>  (43) 
-11.130000000000001

>  <m_primary>  (43) 
energy

>  <rmsd>  (43) 
3.9600653247469415

>  <m_score__min__rmsd>  (43) 
3.9600653247469415

>  <meeko>  (43) 
{"free_energy": -10.27, "intermolecular_energy": -12.36, "internal_energy": -1.28, "cluster_size": 7, "cluster_id": 3, "rank_in_cluster": 2}

>  <energy>  (43) 
-9.26

>  <cluster_rmsd>  (43) 
0.0

>  <cluster>  (43) 
5

$$$$

     RDKit          3D

 78 83  0  0  0  0  0  0  0  0999 V2000
  141.4400   82.2270  221.8440 C   0  0  0  0  0  0  0  0  0  0  0  0
  141.3460   81.1090  222.7250 N   0  0  0  0  0  0  0  0  0  0  0  0
  142.4660   80.9480  223.5930 C   0  0  0  0  0  0  0  0  0  0  0  0
  140.8330   79.9040  222.1610 C   0  0  0  0  0  0  0  0  0  0  0  0
  141.8050   79.2580  221.2490 C   0  0  0  0  0  0  0  0  0  0  0  0
  141.5980   77.8330  220.9150 C   0  0  0  0  0  0  0  0  0  0  0  0
  140.6550   77.1000  221.6870 N   0  0  0  0  0  0  0  0  0  0  0  0
  140.7190   75.6680  221.7010 C   0  0  0  0  0  0  0  0  0  0  0  0
  139.6590   74.9110  222.1170 N   0  0  0  0  0  0  0  0  0  0  0  0
  139.7210   73.5790  222.0960 C   0  0  0  0  0  0  0  0  0  0  0  0
  138.7360   72.6670  222.4890 N   0  0  0  0  0  0  0  0  0  0  0  0
  138.6000   71.2630  222.1880 C   0  0  0  0  0  0  0  0  0  0  0  0
  139.8620   70.5800  222.5090 C   0  0  0  0  0  0  0  0  0  0  0  0
  140.3410   70.5270  223.8640 N   0  0  0  0  0  0  0  0  0  0  0  0
  140.5420   71.7890  224.4630 C   0  0  0  0  0  0  0  0  0  0  0  0
  141.0200   71.7000  225.8780 C   0  0  0  0  0  0  0  0  0  0  0  0
  140.6490   70.4870  226.6170 C   0  0  0  0  0  0  0  0  0  0  0  0
  141.0540   70.3180  227.9100 C   0  0  0  0  0  0  0  0  0  0  0  0
  140.7130   69.1570  228.6130 C   0  0  0  0  0  0  0  0  0  0  0  0
  139.9560   68.1660  228.0000 C   0  0  0  0  0  0  0  0  0  0  0  0
  139.5690   68.3840  226.6910 C   0  0  0  0  0  0  0  0  0  0  0  0
  139.9050   69.5320  225.9890 C   0  0  0  0  0  0  0  0  0  0  0  0
  139.4120   69.6470  224.6150 C   0  0  0  0  0  0  0  0  0  0  0  0
  140.8740   73.0260  221.6450 N   0  0  0  0  0  0  0  0  0  0  0  0
  141.9440   73.7200  221.2270 C   0  0  0  0  0  0  0  0  0  0  0  0
  143.0480   72.9580  220.7750 N   0  0  0  0  0  0  0  0  0  0  0  0
  144.2350   73.7060  220.3290 C   0  0  0  0  0  0  0  0  0  0  0  0
  144.4420   73.4600  218.8330 C   0  0  0  0  0  0  0  0  0  0  0  0
  144.6840   71.9730  218.7420 C   0  0  0  0  0  0  0  0  0  0  0  0
  145.5640   71.5890  217.7430 C   0  0  0  0  0  0  0  0  0  0  0  0
  145.8650   70.2450  217.5790 C   0  0  0  0  0  0  0  0  0  0  0  0
  145.2650   69.3620  218.4290 C   0  0  0  0  0  0  0  0  0  0  0  0
  144.3760   69.7510  219.4380 C   0  0  0  0  0  0  0  0  0  0  0  0
  144.0750   71.0890  219.6030 C   0  0  0  0  0  0  0  0  0  0  0  0
  143.1280   71.5300  220.6830 C   0  0  0  0  0  0  0  0  0  0  0  0
  141.8620   75.0460  221.2580 N   0  0  0  0  0  0  0  0  0  0  0  0
  139.6580   77.8040  222.4450 C   0  0  0  0  0  0  0  0  0  0  0  0
  140.3680   78.9130  223.2110 C   0  0  0  0  0  0  0  0  0  0  0  0
  141.5178   83.1526  222.4332 H   0  0  0  0  0  0  0  0  0  0  0  0
  142.3323   82.1200  221.2097 H   0  0  0  0  0  0  0  0  0  0  0  0
  140.5423   82.2705  221.2097 H   0  0  0  0  0  0  0  0  0  0  0  0
  142.1292   80.9964  224.6390 H   0  0  0  0  0  0  0  0  0  0  0  0
  142.9386   79.9727  223.4047 H   0  0  0  0  0  0  0  0  0  0  0  0
  143.1942   81.7507  223.4047 H   0  0  0  0  0  0  0  0  0  0  0  0
  139.9527   80.2073  221.5753 H   0  0  0  0  0  0  0  0  0  0  0  0
  141.7921   79.8212  220.3042 H   0  0  0  0  0  0  0  0  0  0  0  0
  142.7561   79.2767  221.8012 H   0  0  0  0  0  0  0  0  0  0  0  0
  141.2699   77.7864  219.8661 H   0  0  0  0  0  0  0  0  0  0  0  0
  142.5645   77.3549  221.1324 H   0  0  0  0  0  0  0  0  0  0  0  0
  137.9630   73.0710  223.1110 H   0  0  0  0  0  0  0  0  0  0  0  0
  137.7852   70.8341  222.7897 H   0  0  0  0  0  0  0  0  0  0  0  0
  138.3680   71.1326  221.1207 H   0  0  0  0  0  0  0  0  0  0  0  0
  139.7503   69.5383  222.1736 H   0  0  0  0  0  0  0  0  0  0  0  0
  140.6151   71.2040  222.0055 H   0  0  0  0  0  0  0  0  0  0  0  0
  141.2908   72.3399  223.8750 H   0  0  0  0  0  0  0  0  0  0  0  0
  139.5693   72.3025  224.4781 H   0  0  0  0  0  0  0  0  0  0  0  0
  142.1182   71.7611  225.8648 H   0  0  0  0  0  0  0  0  0  0  0  0
  140.5242   72.5275  226.4066 H   0  0  0  0  0  0  0  0  0  0  0  0
  141.6520   71.0992  228.4021 H   0  0  0  0  0  0  0  0  0  0  0  0
  141.0451   69.0285  229.6538 H   0  0  0  0  0  0  0  0  0  0  0  0
  139.6763   67.2461  228.5343 H   0  0  0  0  0  0  0  0  0  0  0  0
  138.9688   67.6139  226.1843 H   0  0  0  0  0  0  0  0  0  0  0  0
  139.3795   68.6525  224.1461 H   0  0  0  0  0  0  0  0  0  0  0  0
  138.3969   70.0707  224.6086 H   0  0  0  0  0  0  0  0  0  0  0  0
  144.0836   74.7805  220.5091 H   0  0  0  0  0  0  0  0  0  0  0  0
  145.1201   73.3688  220.8883 H   0  0  0  0  0  0  0  0  0  0  0  0
  143.5471   73.7470  218.2613 H   0  0  0  0  0  0  0  0  0  0  0  0
  145.2699   74.0518  218.4154 H   0  0  0  0  0  0  0  0  0  0  0  0
  146.0201   72.3437  217.0854 H   0  0  0  0  0  0  0  0  0  0  0  0
  146.5588   69.9049  216.7960 H   0  0  0  0  0  0  0  0  0  0  0  0
  145.4911   68.2915  218.3157 H   0  0  0  0  0  0  0  0  0  0  0  0
  143.9201   68.9960  220.0953 H   0  0  0  0  0  0  0  0  0  0  0  0
  142.1268   71.1315  220.4622 H   0  0  0  0  0  0  0  0  0  0  0  0
  143.5049   71.1477  221.6431 H   0  0  0  0  0  0  0  0  0  0  0  0
  138.9064   78.2362  221.7680 H   0  0  0  0  0  0  0  0  0  0  0  0
  139.1426   77.1220  223.1372 H   0  0  0  0  0  0  0  0  0  0  0  0
  139.6753   79.3970  223.9152 H   0  0  0  0  0  0  0  0  0  0  0  0
  141.2095   78.5234  223.8027 H   0  0  0  0  0  0  0  0  0  0  0  0
  1  2  1  0
  2  3  1  0
  2  4  1  0
  4  5  1  0
  5  6  1  0
  6  7  1  0
  7  8  1  0
  8  9  2  0
  9 10  1  0
 10 11  1  0
 11 12  1  0
 12 13  1  0
 13 14  1  0
 14 15  1  0
 15 16  1  0
 16 17  1  0
 17 18  2  0
 18 19  1  0
 19 20  2  0
 20 21  1  0
 21 22  2  0
 22 23  1  0
 10 24  2  0
 24 25  1  0
 25 26  1  0
 26 27  1  0
 27 28  1  0
 28 29  1  0
 29 30  2  0
 30 31  1  0
 31 32  2  0
 32 33  1  0
 33 34  2  0
 34 35  1  0
 25 36  2  0
  7 37  1  0
 37 38  1  0
 38  4  1  0
 36  8  1  0
 23 14  1  0
 35 26  1  0
 22 17  1  0
 34 29  1  0
  1 39  1  0
  1 40  1  0
  1 41  1  0
  3 42  1  0
  3 43  1  0
  3 44  1  0
  4 45  1  0
  5 46  1  0
  5 47  1  0
  6 48  1  0
  6 49  1  0
 11 50  1  0
 12 51  1  0
 12 52  1  0
 13 53  1  0
 13 54  1  0
 15 55  1  0
 15 56  1  0
 16 57  1  0
 16 58  1  0
 18 59  1  0
 19 60  1  0
 20 61  1  0
 21 62  1  0
 23 63  1  0
 23 64  1  0
 27 65  1  0
 27 66  1  0
 28 67  1  0
 28 68  1  0
 30 69  1  0
 31 70  1  0
 32 71  1  0
 33 72  1  0
 35 73  1  0
 35 74  1  0
 37 75  1  0
 37 76  1  0
 38 77  1  0
 38 78  1  0
M  END
>  <smiles>  (44) 
CN(C)C1CCN(c2nc(NCCN3CCc4ccccc4C3)nc(N3CCc4ccccc4C3)n2)CC1

>  <score_type>  (44) 
oracle

>  <origin>  (44) 
autodockgpu

>  <m_score__min__energy>  (44) 
-11.130000000000001

>  <m_primary>  (44) 
energy

>  <rmsd>  (44) 
3.4581424732281745

>  <m_score__min__rmsd>  (44) 
3.4581424732281745

>  <meeko>  (44) 
{"free_energy": -10.2, "intermolecular_energy": -12.29, "internal_energy": -1.26, "cluster_size": 13, "cluster_id": 2, "rank_in_cluster": 6}

>  <energy>  (44) 
-9.08

>  <cluster_rmsd>  (44) 
0.0

>  <cluster>  (44) 
6

$$$$

     RDKit          3D

 78 83  0  0  0  0  0  0  0  0999 V2000
  141.8410   81.0220  220.4090 C   0  0  0  0  0  0  0  0  0  0  0  0
  141.5270   80.4310  221.6690 N   0  0  0  0  0  0  0  0  0  0  0  0
  142.5970   80.4580  222.6130 C   0  0  0  0  0  0  0  0  0  0  0  0
  140.7810   79.2170  221.6270 C   0  0  0  0  0  0  0  0  0  0  0  0
  140.8860   78.5440  220.3110 C   0  0  0  0  0  0  0  0  0  0  0  0
  140.5230   77.1130  220.2370 C   0  0  0  0  0  0  0  0  0  0  0  0
  140.3590   76.4040  221.4590 N   0  0  0  0  0  0  0  0  0  0  0  0
  140.4330   74.9720  221.4570 C   0  0  0  0  0  0  0  0  0  0  0  0
  139.5130   74.2100  222.1230 N   0  0  0  0  0  0  0  0  0  0  0  0
  139.5740   72.8790  222.0860 C   0  0  0  0  0  0  0  0  0  0  0  0
  138.7210   71.9620  222.7120 N   0  0  0  0  0  0  0  0  0  0  0  0
  138.2110   70.7000  222.2370 C   0  0  0  0  0  0  0  0  0  0  0  0
  138.7640   69.6180  223.0640 C   0  0  0  0  0  0  0  0  0  0  0  0
  139.0180   69.8240  224.4650 N   0  0  0  0  0  0  0  0  0  0  0  0
  138.9810   68.6480  225.2440 C   0  0  0  0  0  0  0  0  0  0  0  0
  139.2700   68.8900  226.6920 C   0  0  0  0  0  0  0  0  0  0  0  0
  140.1020   70.0590  227.0040 C   0  0  0  0  0  0  0  0  0  0  0  0
  140.4040   70.3620  228.3000 C   0  0  0  0  0  0  0  0  0  0  0  0
  141.1870   71.4830  228.6020 C   0  0  0  0  0  0  0  0  0  0  0  0
  141.6640   72.2970  227.5810 C   0  0  0  0  0  0  0  0  0  0  0  0
  141.3310   71.9480  226.2860 C   0  0  0  0  0  0  0  0  0  0  0  0
  140.5570   70.8390  225.9810 C   0  0  0  0  0  0  0  0  0  0  0  0
  140.2970   70.5700  224.5650 C   0  0  0  0  0  0  0  0  0  0  0  0
  140.5810   72.3310  221.3620 N   0  0  0  0  0  0  0  0  0  0  0  0
  141.5100   73.0290  220.6930 C   0  0  0  0  0  0  0  0  0  0  0  0
  142.4710   72.2720  219.9810 N   0  0  0  0  0  0  0  0  0  0  0  0
  141.9650   71.1670  219.1490 C   0  0  0  0  0  0  0  0  0  0  0  0
  142.4800   69.8440  219.7190 C   0  0  0  0  0  0  0  0  0  0  0  0
  143.9800   69.9580  219.5970 C   0  0  0  0  0  0  0  0  0  0  0  0
  144.6340   68.7630  219.3400 C   0  0  0  0  0  0  0  0  0  0  0  0
  146.0140   68.7570  219.2000 C   0  0  0  0  0  0  0  0  0  0  0  0
  146.6590   69.9530  219.3250 C   0  0  0  0  0  0  0  0  0  0  0  0
  145.9980   71.1590  219.5840 C   0  0  0  0  0  0  0  0  0  0  0  0
  144.6240   71.1670  219.7240 C   0  0  0  0  0  0  0  0  0  0  0  0
  143.8920   72.4500  219.9980 C   0  0  0  0  0  0  0  0  0  0  0  0
  141.4320   74.3560  220.7430 N   0  0  0  0  0  0  0  0  0  0  0  0
  140.1320   77.1320  222.6760 C   0  0  0  0  0  0  0  0  0  0  0  0
  141.1610   78.2540  222.7350 C   0  0  0  0  0  0  0  0  0  0  0  0
  142.3515   81.9827  220.5717 H   0  0  0  0  0  0  0  0  0  0  0  0
  142.5000   80.3481  219.8419 H   0  0  0  0  0  0  0  0  0  0  0  0
  140.9137   81.1909  219.8419 H   0  0  0  0  0  0  0  0  0  0  0  0
  142.1861   80.4476  223.6333 H   0  0  0  0  0  0  0  0  0  0  0  0
  143.2375   79.5757  222.4666 H   0  0  0  0  0  0  0  0  0  0  0  0
  143.1921   81.3714  222.4666 H   0  0  0  0  0  0  0  0  0  0  0  0
  139.7332   79.5117  221.7857 H   0  0  0  0  0  0  0  0  0  0  0  0
  140.2306   79.0851  219.6127 H   0  0  0  0  0  0  0  0  0  0  0  0
  141.9594   78.5699  220.0719 H   0  0  0  0  0  0  0  0  0  0  0  0
  139.5722   77.0442  219.6882 H   0  0  0  0  0  0  0  0  0  0  0  0
  141.3873   76.6338  219.7539 H   0  0  0  0  0  0  0  0  0  0  0  0
  138.3980   72.2380  223.6950 H   0  0  0  0  0  0  0  0  0  0  0  0
  137.1134   70.6951  222.3093 H   0  0  0  0  0  0  0  0  0  0  0  0
  138.5045   70.5522  221.1872 H   0  0  0  0  0  0  0  0  0  0  0  0
  138.0600   68.7759  222.9923 H   0  0  0  0  0  0  0  0  0  0  0  0
  139.7732   69.4813  222.6482 H   0  0  0  0  0  0  0  0  0  0  0  0
  137.9789   68.2028  225.1573 H   0  0  0  0  0  0  0  0  0  0  0  0
  139.7656   67.9783  224.8619 H   0  0  0  0  0  0  0  0  0  0  0  0
  138.3074   69.0164  227.2091 H   0  0  0  0  0  0  0  0  0  0  0  0
  139.8535   68.0185  227.0237 H   0  0  0  0  0  0  0  0  0  0  0  0
  140.0300   69.7216  229.1124 H   0  0  0  0  0  0  0  0  0  0  0  0
  141.4251   71.7200  229.6494 H   0  0  0  0  0  0  0  0  0  0  0  0
  142.2809   73.1822  227.7950 H   0  0  0  0  0  0  0  0  0  0  0  0
  141.6960   72.5776  225.4612 H   0  0  0  0  0  0  0  0  0  0  0  0
  140.2196   71.5185  224.0133 H   0  0  0  0  0  0  0  0  0  0  0  0
  141.1178   69.9792  224.1322 H   0  0  0  0  0  0  0  0  0  0  0  0
  140.8650   71.1705  219.1590 H   0  0  0  0  0  0  0  0  0  0  0  0
  142.3149   71.2888  218.1133 H   0  0  0  0  0  0  0  0  0  0  0  0
  142.1803   69.7276  220.7709 H   0  0  0  0  0  0  0  0  0  0  0  0
  142.0760   68.9677  219.1909 H   0  0  0  0  0  0  0  0  0  0  0  0
  144.0632   67.8272  219.2478 H   0  0  0  0  0  0  0  0  0  0  0  0
  146.5653   67.8271  218.9967 H   0  0  0  0  0  0  0  0  0  0  0  0
  147.7535   69.9700  219.2167 H   0  0  0  0  0  0  0  0  0  0  0  0
  146.5691   72.0946  219.6755 H   0  0  0  0  0  0  0  0  0  0  0  0
  144.1910   72.8248  220.9880 H   0  0  0  0  0  0  0  0  0  0  0  0
  144.1539   73.1662  219.2052 H   0  0  0  0  0  0  0  0  0  0  0  0
  139.1159   77.5534  222.6780 H   0  0  0  0  0  0  0  0  0  0  0  0
  140.2296   76.4695  223.5486 H   0  0  0  0  0  0  0  0  0  0  0  0
  141.1228   78.7586  223.7117 H   0  0  0  0  0  0  0  0  0  0  0  0
  142.1852   77.8730  222.6087 H   0  0  0  0  0  0  0  0  0  0  0  0
  1  2  1  0
  2  3  1  0
  2  4  1  0
  4  5  1  0
  5  6  1  0
  6  7  1  0
  7  8  1  0
  8  9  2  0
  9 10  1  0
 10 11  1  0
 11 12  1  0
 12 13  1  0
 13 14  1  0
 14 15  1  0
 15 16  1  0
 16 17  1  0
 17 18  2  0
 18 19  1  0
 19 20  2  0
 20 21  1  0
 21 22  2  0
 22 23  1  0
 10 24  2  0
 24 25  1  0
 25 26  1  0
 26 27  1  0
 27 28  1  0
 28 29  1  0
 29 30  2  0
 30 31  1  0
 31 32  2  0
 32 33  1  0
 33 34  2  0
 34 35  1  0
 25 36  2  0
  7 37  1  0
 37 38  1  0
 38  4  1  0
 36  8  1  0
 23 14  1  0
 35 26  1  0
 22 17  1  0
 34 29  1  0
  1 39  1  0
  1 40  1  0
  1 41  1  0
  3 42  1  0
  3 43  1  0
  3 44  1  0
  4 45  1  0
  5 46  1  0
  5 47  1  0
  6 48  1  0
  6 49  1  0
 11 50  1  0
 12 51  1  0
 12 52  1  0
 13 53  1  0
 13 54  1  0
 15 55  1  0
 15 56  1  0
 16 57  1  0
 16 58  1  0
 18 59  1  0
 19 60  1  0
 20 61  1  0
 21 62  1  0
 23 63  1  0
 23 64  1  0
 27 65  1  0
 27 66  1  0
 28 67  1  0
 28 68  1  0
 30 69  1  0
 31 70  1  0
 32 71  1  0
 33 72  1  0
 35 73  1  0
 35 74  1  0
 37 75  1  0
 37 76  1  0
 38 77  1  0
 38 78  1  0
M  END
>  <smiles>  (45) 
CN(C)C1CCN(c2nc(NCCN3CCc4ccccc4C3)nc(N3CCc4ccccc4C3)n2)CC1

>  <score_type>  (45) 
oracle

>  <origin>  (45) 
autodockgpu

>  <m_score__min__energy>  (45) 
-11.130000000000001

>  <m_primary>  (45) 
energy

>  <rmsd>  (45) 
4.402479443194054

>  <m_score__min__rmsd>  (45) 
4.402479443194054

>  <meeko>  (45) 
{"free_energy": -9.73, "intermolecular_energy": -11.82, "internal_energy": -1.57, "cluster_size": 13, "cluster_id": 2, "rank_in_cluster": 12}

>  <energy>  (45) 
-9.06

>  <cluster_rmsd>  (45) 
0.71

>  <cluster>  (45) 
6

$$$$

     RDKit          3D

 78 83  0  0  0  0  0  0  0  0999 V2000
  145.9430   70.6620  216.7830 C   0  0  0  0  0  0  0  0  0  0  0  0
  145.9220   70.9530  218.1790 N   0  0  0  0  0  0  0  0  0  0  0  0
  145.7660   69.8080  219.0160 C   0  0  0  0  0  0  0  0  0  0  0  0
  145.1740   72.1020  218.5720 C   0  0  0  0  0  0  0  0  0  0  0  0
  143.8730   72.1880  217.8690 C   0  0  0  0  0  0  0  0  0  0  0  0
  142.8320   73.0630  218.4470 C   0  0  0  0  0  0  0  0  0  0  0  0
  143.0340   73.5530  219.7670 N   0  0  0  0  0  0  0  0  0  0  0  0
  141.9100   74.0310  220.5180 C   0  0  0  0  0  0  0  0  0  0  0  0
  140.8920   73.1960  220.8870 N   0  0  0  0  0  0  0  0  0  0  0  0
  139.8680   73.6460  221.6130 C   0  0  0  0  0  0  0  0  0  0  0  0
  138.7540   72.9300  222.0640 N   0  0  0  0  0  0  0  0  0  0  0  0
  138.2740   71.6260  221.6790 C   0  0  0  0  0  0  0  0  0  0  0  0
  139.1670   70.6020  222.2410 C   0  0  0  0  0  0  0  0  0  0  0  0
  139.2490   70.4030  223.6630 N   0  0  0  0  0  0  0  0  0  0  0  0
  139.1910   69.0520  224.0680 C   0  0  0  0  0  0  0  0  0  0  0  0
  139.3010   68.8760  225.5500 C   0  0  0  0  0  0  0  0  0  0  0  0
  140.0250   69.9240  226.2790 C   0  0  0  0  0  0  0  0  0  0  0  0
  140.1610   69.8490  227.6360 C   0  0  0  0  0  0  0  0  0  0  0  0
  140.8410   70.8540  228.3360 C   0  0  0  0  0  0  0  0  0  0  0  0
  141.3830   71.9360  227.6530 C   0  0  0  0  0  0  0  0  0  0  0  0
  141.2190   71.9660  226.2810 C   0  0  0  0  0  0  0  0  0  0  0  0
  140.5470   70.9740  225.5830 C   0  0  0  0  0  0  0  0  0  0  0  0
  140.4650   71.1160  224.1280 C   0  0  0  0  0  0  0  0  0  0  0  0
  139.8930   74.9570  221.9620 N   0  0  0  0  0  0  0  0  0  0  0  0
  140.8640   75.8190  221.6270 C   0  0  0  0  0  0  0  0  0  0  0  0
  140.7170   77.1440  222.1030 N   0  0  0  0  0  0  0  0  0  0  0  0
  139.7260   77.9920  221.4180 C   0  0  0  0  0  0  0  0  0  0  0  0
  140.4550   79.1450  220.7260 C   0  0  0  0  0  0  0  0  0  0  0  0
  141.1040   79.8960  221.8640 C   0  0  0  0  0  0  0  0  0  0  0  0
  141.1900   81.2670  221.6790 C   0  0  0  0  0  0  0  0  0  0  0  0
  141.7600   82.0540  222.6680 C   0  0  0  0  0  0  0  0  0  0  0  0
  142.2110   81.4190  223.7890 C   0  0  0  0  0  0  0  0  0  0  0  0
  142.1230   80.0340  223.9740 C   0  0  0  0  0  0  0  0  0  0  0  0
  141.5560   79.2490  222.9900 C   0  0  0  0  0  0  0  0  0  0  0  0
  141.4480   77.7620  223.1700 C   0  0  0  0  0  0  0  0  0  0  0  0
  141.8750   75.3510  220.9010 N   0  0  0  0  0  0  0  0  0  0  0  0
  144.3550   73.5540  220.3300 C   0  0  0  0  0  0  0  0  0  0  0  0
  144.9610   72.1810  220.0710 C   0  0  0  0  0  0  0  0  0  0  0  0
  146.0214   69.5747  216.6363 H   0  0  0  0  0  0  0  0  0  0  0  0
  145.0160   71.0288  216.3180 H   0  0  0  0  0  0  0  0  0  0  0  0
  146.8077   71.1581  216.3180 H   0  0  0  0  0  0  0  0  0  0  0  0
  145.8080   70.1166  220.0710 H   0  0  0  0  0  0  0  0  0  0  0  0
  144.7949   69.3336  218.8111 H   0  0  0  0  0  0  0  0  0  0  0  0
  146.5748   69.0911  218.8111 H   0  0  0  0  0  0  0  0  0  0  0  0
  145.7877   72.9655  218.2758 H   0  0  0  0  0  0  0  0  0  0  0  0
  144.0747   72.5481  216.8494 H   0  0  0  0  0  0  0  0  0  0  0  0
  143.4527   71.1740  217.9410 H   0  0  0  0  0  0  0  0  0  0  0  0
  142.7326   73.9358  217.7849 H   0  0  0  0  0  0  0  0  0  0  0  0
  141.9422   72.4208  218.5236 H   0  0  0  0  0  0  0  0  0  0  0  0
  138.1670   73.4230  222.8120 H   0  0  0  0  0  0  0  0  0  0  0  0
  137.2548   71.4791  222.0660 H   0  0  0  0  0  0  0  0  0  0  0  0
  138.2590   71.5445  220.5821 H   0  0  0  0  0  0  0  0  0  0  0  0
  138.8564   69.6406  221.8061 H   0  0  0  0  0  0  0  0  0  0  0  0
  140.1677   70.9817  221.9873 H   0  0  0  0  0  0  0  0  0  0  0  0
  138.2318   68.6282  223.7358 H   0  0  0  0  0  0  0  0  0  0  0  0
  140.0498   68.5370  223.6128 H   0  0  0  0  0  0  0  0  0  0  0  0
  138.2806   68.8282  225.9581 H   0  0  0  0  0  0  0  0  0  0  0  0
  139.8917   67.9591  225.6926 H   0  0  0  0  0  0  0  0  0  0  0  0
  139.7343   68.9948  228.1822 H   0  0  0  0  0  0  0  0  0  0  0  0
  140.9462   70.7865  229.4289 H   0  0  0  0  0  0  0  0  0  0  0  0
  141.9207   72.7361  228.1828 H   0  0  0  0  0  0  0  0  0  0  0  0
  141.6394   72.8129  225.7188 H   0  0  0  0  0  0  0  0  0  0  0  0
  140.3981   72.1809  223.8605 H   0  0  0  0  0  0  0  0  0  0  0  0
  141.3613   70.6910  223.6525 H   0  0  0  0  0  0  0  0  0  0  0  0
  139.1839   77.3955  220.6694 H   0  0  0  0  0  0  0  0  0  0  0  0
  139.0073   78.3906  222.1492 H   0  0  0  0  0  0  0  0  0  0  0  0
  141.2126   78.7650  220.0248 H   0  0  0  0  0  0  0  0  0  0  0  0
  139.7810   79.7770  220.1290 H   0  0  0  0  0  0  0  0  0  0  0  0
  140.8092   81.7269  220.7552 H   0  0  0  0  0  0  0  0  0  0  0  0
  141.8452   83.1448  222.5540 H   0  0  0  0  0  0  0  0  0  0  0  0
  142.6659   82.0252  224.5862 H   0  0  0  0  0  0  0  0  0  0  0  0
  142.5034   79.5740  224.8980 H   0  0  0  0  0  0  0  0  0  0  0  0
  142.4606   77.3335  223.2016 H   0  0  0  0  0  0  0  0  0  0  0  0
  140.9062   77.5716  224.1082 H   0  0  0  0  0  0  0  0  0  0  0  0
  144.9675   74.3319  219.8507 H   0  0  0  0  0  0  0  0  0  0  0  0
  144.3174   73.7649  221.4089 H   0  0  0  0  0  0  0  0  0  0  0  0
  145.9198   72.0790  220.6004 H   0  0  0  0  0  0  0  0  0  0  0  0
  144.3059   71.3739  220.4308 H   0  0  0  0  0  0  0  0  0  0  0  0
  1  2  1  0
  2  3  1  0
  2  4  1  0
  4  5  1  0
  5  6  1  0
  6  7  1  0
  7  8  1  0
  8  9  2  0
  9 10  1  0
 10 11  1  0
 11 12  1  0
 12 13  1  0
 13 14  1  0
 14 15  1  0
 15 16  1  0
 16 17  1  0
 17 18  2  0
 18 19  1  0
 19 20  2  0
 20 21  1  0
 21 22  2  0
 22 23  1  0
 10 24  2  0
 24 25  1  0
 25 26  1  0
 26 27  1  0
 27 28  1  0
 28 29  1  0
 29 30  2  0
 30 31  1  0
 31 32  2  0
 32 33  1  0
 33 34  2  0
 34 35  1  0
 25 36  2  0
  7 37  1  0
 37 38  1  0
 38  4  1  0
 36  8  1  0
 23 14  1  0
 35 26  1  0
 22 17  1  0
 34 29  1  0
  1 39  1  0
  1 40  1  0
  1 41  1  0
  3 42  1  0
  3 43  1  0
  3 44  1  0
  4 45  1  0
  5 46  1  0
  5 47  1  0
  6 48  1  0
  6 49  1  0
 11 50  1  0
 12 51  1  0
 12 52  1  0
 13 53  1  0
 13 54  1  0
 15 55  1  0
 15 56  1  0
 16 57  1  0
 16 58  1  0
 18 59  1  0
 19 60  1  0
 20 61  1  0
 21 62  1  0
 23 63  1  0
 23 64  1  0
 27 65  1  0
 27 66  1  0
 28 67  1  0
 28 68  1  0
 30 69  1  0
 31 70  1  0
 32 71  1  0
 33 72  1  0
 35 73  1  0
 35 74  1  0
 37 75  1  0
 37 76  1  0
 38 77  1  0
 38 78  1  0
M  END
>  <smiles>  (46) 
CN(C)C1CCN(c2nc(NCCN3CCc4ccccc4C3)nc(N3CCc4ccccc4C3)n2)CC1

>  <score_type>  (46) 
oracle

>  <origin>  (46) 
autodockgpu

>  <m_score__min__energy>  (46) 
-11.130000000000001

>  <m_primary>  (46) 
energy

>  <rmsd>  (46) 
3.9848648444278543

>  <m_score__min__rmsd>  (46) 
3.9848648444278543

>  <meeko>  (46) 
{"free_energy": -10.82, "intermolecular_energy": -12.9, "internal_energy": -1.36, "cluster_size": 16, "cluster_id": 1, "rank_in_cluster": 5}

>  <energy>  (46) 
-8.34

>  <cluster_rmsd>  (46) 
1.44

>  <cluster>  (46) 
6

$$$$

     RDKit          3D

 78 83  0  0  0  0  0  0  0  0999 V2000
  145.6300   72.5330  216.8600 C   0  0  0  0  0  0  0  0  0  0  0  0
  145.8390   71.6760  217.9820 N   0  0  0  0  0  0  0  0  0  0  0  0
  145.9230   70.2900  217.6540 C   0  0  0  0  0  0  0  0  0  0  0  0
  145.0880   71.9800  219.1550 C   0  0  0  0  0  0  0  0  0  0  0  0
  145.1620   73.4180  219.5060 C   0  0  0  0  0  0  0  0  0  0  0  0
  144.1380   73.9570  220.4260 C   0  0  0  0  0  0  0  0  0  0  0  0
  143.0010   73.1490  220.7020 N   0  0  0  0  0  0  0  0  0  0  0  0
  141.8120   73.7620  221.2180 C   0  0  0  0  0  0  0  0  0  0  0  0
  140.6890   73.0270  221.4850 N   0  0  0  0  0  0  0  0  0  0  0  0
  139.6010   73.6050  221.9940 C   0  0  0  0  0  0  0  0  0  0  0  0
  138.3800   73.0010  222.3160 N   0  0  0  0  0  0  0  0  0  0  0  0
  137.8350   71.7330  221.8970 C   0  0  0  0  0  0  0  0  0  0  0  0
  138.6970   70.6530  222.3970 C   0  0  0  0  0  0  0  0  0  0  0  0
  138.8860   70.4610  223.8100 N   0  0  0  0  0  0  0  0  0  0  0  0
  138.8000   69.1170  224.2330 C   0  0  0  0  0  0  0  0  0  0  0  0
  139.0230   68.9470  225.7030 C   0  0  0  0  0  0  0  0  0  0  0  0
  139.8510   69.9660  226.3590 C   0  0  0  0  0  0  0  0  0  0  0  0
  140.0940   69.8950  227.7010 C   0  0  0  0  0  0  0  0  0  0  0  0
  140.8730   70.8720  228.3330 C   0  0  0  0  0  0  0  0  0  0  0  0
  141.4060   71.9230  227.5970 C   0  0  0  0  0  0  0  0  0  0  0  0
  141.1320   71.9500  226.2420 C   0  0  0  0  0  0  0  0  0  0  0  0
  140.3610   70.9850  225.6120 C   0  0  0  0  0  0  0  0  0  0  0  0
  140.1670   71.1210  224.1660 C   0  0  0  0  0  0  0  0  0  0  0  0
  139.6680   74.9380  222.2310 N   0  0  0  0  0  0  0  0  0  0  0  0
  140.7400   75.7060  221.9880 C   0  0  0  0  0  0  0  0  0  0  0  0
  140.6180   77.0760  222.3210 N   0  0  0  0  0  0  0  0  0  0  0  0
  139.5790   77.8430  221.6140 C   0  0  0  0  0  0  0  0  0  0  0  0
  140.2530   78.9100  220.7490 C   0  0  0  0  0  0  0  0  0  0  0  0
  140.9730   79.7830  221.7490 C   0  0  0  0  0  0  0  0  0  0  0  0
  141.0390   81.1250  221.4060 C   0  0  0  0  0  0  0  0  0  0  0  0
  141.6700   82.0160  222.2590 C   0  0  0  0  0  0  0  0  0  0  0  0
  142.2000   81.5100  223.4110 C   0  0  0  0  0  0  0  0  0  0  0  0
  142.1320   80.1550  223.7570 C   0  0  0  0  0  0  0  0  0  0  0  0
  141.5040   79.2660  222.9070 C   0  0  0  0  0  0  0  0  0  0  0  0
  141.4160   77.8080  223.2600 C   0  0  0  0  0  0  0  0  0  0  0  0
  141.8150   75.1120  221.4780 N   0  0  0  0  0  0  0  0  0  0  0  0
  143.0570   71.7360  220.4530 C   0  0  0  0  0  0  0  0  0  0  0  0
  143.6400   71.5420  219.0590 C   0  0  0  0  0  0  0  0  0  0  0  0
  145.3831   73.5452  217.2127 H   0  0  0  0  0  0  0  0  0  0  0  0
  146.5455   72.5699  216.2513 H   0  0  0  0  0  0  0  0  0  0  0  0
  144.8003   72.1443  216.2513 H   0  0  0  0  0  0  0  0  0  0  0  0
  145.9590   69.6958  218.5790 H   0  0  0  0  0  0  0  0  0  0  0  0
  145.0409   69.9985  217.0651 H   0  0  0  0  0  0  0  0  0  0  0  0
  146.8339   70.1071  217.0651 H   0  0  0  0  0  0  0  0  0  0  0  0
  145.5582   71.3985  219.9617 H   0  0  0  0  0  0  0  0  0  0  0  0
  146.1440   73.5923  219.9699 H   0  0  0  0  0  0  0  0  0  0  0  0
  144.9853   73.9442  218.5563 H   0  0  0  0  0  0  0  0  0  0  0  0
  144.6350   74.1621  221.3856 H   0  0  0  0  0  0  0  0  0  0  0  0
  143.7321   74.8356  219.9032 H   0  0  0  0  0  0  0  0  0  0  0  0
  137.7530   73.5660  222.9770 H   0  0  0  0  0  0  0  0  0  0  0  0
  136.8207   71.6144  222.3057 H   0  0  0  0  0  0  0  0  0  0  0  0
  137.7886   71.6931  220.7987 H   0  0  0  0  0  0  0  0  0  0  0  0
  138.2828   69.7126  222.0044 H   0  0  0  0  0  0  0  0  0  0  0  0
  139.6969   70.9576  222.0542 H   0  0  0  0  0  0  0  0  0  0  0  0
  137.7986   68.7356  223.9848 H   0  0  0  0  0  0  0  0  0  0  0  0
  139.5942   68.5594  223.7149 H   0  0  0  0  0  0  0  0  0  0  0  0
  138.0384   68.9491  226.1934 H   0  0  0  0  0  0  0  0  0  0  0  0
  139.5814   68.0050  225.8071 H   0  0  0  0  0  0  0  0  0  0  0  0
  139.6752   69.0651  228.2891 H   0  0  0  0  0  0  0  0  0  0  0  0
  141.0634   70.8073  229.4145 H   0  0  0  0  0  0  0  0  0  0  0  0
  142.0206   72.7015  228.0726 H   0  0  0  0  0  0  0  0  0  0  0  0
  141.5433   72.7722  225.6380 H   0  0  0  0  0  0  0  0  0  0  0  0
  140.1264   72.1859  223.8935 H   0  0  0  0  0  0  0  0  0  0  0  0
  141.0014   70.6528  223.6232 H   0  0  0  0  0  0  0  0  0  0  0  0
  138.9913   77.1671  220.9754 H   0  0  0  0  0  0  0  0  0  0  0  0
  138.9090   78.3226  222.3428 H   0  0  0  0  0  0  0  0  0  0  0  0
  140.9637   78.4523  220.0452 H   0  0  0  0  0  0  0  0  0  0  0  0
  139.5366   79.4721  220.1320 H   0  0  0  0  0  0  0  0  0  0  0  0
  140.5940   81.4792  220.4644 H   0  0  0  0  0  0  0  0  0  0  0  0
  141.7410   83.0869  222.0180 H   0  0  0  0  0  0  0  0  0  0  0  0
  142.7055   82.2011  224.1015 H   0  0  0  0  0  0  0  0  0  0  0  0
  142.5757   79.8010  224.6993 H   0  0  0  0  0  0  0  0  0  0  0  0
  142.4306   77.3833  223.2710 H   0  0  0  0  0  0  0  0  0  0  0  0
  140.9397   77.7255  224.2481 H   0  0  0  0  0  0  0  0  0  0  0  0
  143.6994   71.2476  221.2005 H   0  0  0  0  0  0  0  0  0  0  0  0
  142.0539   71.2897  220.5201 H   0  0  0  0  0  0  0  0  0  0  0  0
  143.5781   70.4849  218.7611 H   0  0  0  0  0  0  0  0  0  0  0  0
  143.0894   72.1229  218.3044 H   0  0  0  0  0  0  0  0  0  0  0  0
  1  2  1  0
  2  3  1  0
  2  4  1  0
  4  5  1  0
  5  6  1  0
  6  7  1  0
  7  8  1  0
  8  9  2  0
  9 10  1  0
 10 11  1  0
 11 12  1  0
 12 13  1  0
 13 14  1  0
 14 15  1  0
 15 16  1  0
 16 17  1  0
 17 18  2  0
 18 19  1  0
 19 20  2  0
 20 21  1  0
 21 22  2  0
 22 23  1  0
 10 24  2  0
 24 25  1  0
 25 26  1  0
 26 27  1  0
 27 28  1  0
 28 29  1  0
 29 30  2  0
 30 31  1  0
 31 32  2  0
 32 33  1  0
 33 34  2  0
 34 35  1  0
 25 36  2  0
  7 37  1  0
 37 38  1  0
 38  4  1  0
 36  8  1  0
 23 14  1  0
 35 26  1  0
 22 17  1  0
 34 29  1  0
  1 39  1  0
  1 40  1  0
  1 41  1  0
  3 42  1  0
  3 43  1  0
  3 44  1  0
  4 45  1  0
  5 46  1  0
  5 47  1  0
  6 48  1  0
  6 49  1  0
 11 50  1  0
 12 51  1  0
 12 52  1  0
 13 53  1  0
 13 54  1  0
 15 55  1  0
 15 56  1  0
 16 57  1  0
 16 58  1  0
 18 59  1  0
 19 60  1  0
 20 61  1  0
 21 62  1  0
 23 63  1  0
 23 64  1  0
 27 65  1  0
 27 66  1  0
 28 67  1  0
 28 68  1  0
 30 69  1  0
 31 70  1  0
 32 71  1  0
 33 72  1  0
 35 73  1  0
 35 74  1  0
 37 75  1  0
 37 76  1  0
 38 77  1  0
 38 78  1  0
M  END
>  <smiles>  (47) 
CN(C)C1CCN(c2nc(NCCN3CCc4ccccc4C3)nc(N3CCc4ccccc4C3)n2)CC1

>  <score_type>  (47) 
oracle

>  <origin>  (47) 
autodockgpu

>  <m_score__min__energy>  (47) 
-11.130000000000001

>  <m_primary>  (47) 
energy

>  <rmsd>  (47) 
3.985885312650684

>  <m_score__min__rmsd>  (47) 
3.985885312650684

>  <meeko>  (47) 
{"free_energy": -11.13, "intermolecular_energy": -13.22, "internal_energy": -1.49, "cluster_size": 16, "cluster_id": 1, "rank_in_cluster": 1}

>  <energy>  (47) 
-8.29

>  <cluster_rmsd>  (47) 
1.87

>  <cluster>  (47) 
6

$$$$

     RDKit          3D

 78 83  0  0  0  0  0  0  0  0999 V2000
  145.5750   72.1030  217.2200 C   0  0  0  0  0  0  0  0  0  0  0  0
  145.7790   71.4050  218.4470 N   0  0  0  0  0  0  0  0  0  0  0  0
  145.9560   69.9970  218.3010 C   0  0  0  0  0  0  0  0  0  0  0  0
  144.9590   71.8050  219.5430 C   0  0  0  0  0  0  0  0  0  0  0  0
  145.0430   73.2610  219.8000 C   0  0  0  0  0  0  0  0  0  0  0  0
  143.9730   73.8830  220.6070 C   0  0  0  0  0  0  0  0  0  0  0  0
  142.8000   73.1180  220.8590 N   0  0  0  0  0  0  0  0  0  0  0  0
  141.5940   73.7880  221.2490 C   0  0  0  0  0  0  0  0  0  0  0  0
  140.3940   73.1320  221.2860 N   0  0  0  0  0  0  0  0  0  0  0  0
  139.2850   73.7590  221.6810 C   0  0  0  0  0  0  0  0  0  0  0  0
  137.9900   73.2380  221.7700 N   0  0  0  0  0  0  0  0  0  0  0  0
  137.4300   72.3060  222.7180 C   0  0  0  0  0  0  0  0  0  0  0  0
  138.2690   71.0990  222.7550 C   0  0  0  0  0  0  0  0  0  0  0  0
  138.7080   70.5500  224.0100 N   0  0  0  0  0  0  0  0  0  0  0  0
  139.0990   69.1960  223.9500 C   0  0  0  0  0  0  0  0  0  0  0  0
  139.5710   68.6600  225.2660 C   0  0  0  0  0  0  0  0  0  0  0  0
  140.1310   69.6390  226.2060 C   0  0  0  0  0  0  0  0  0  0  0  0
  140.5730   69.2380  227.4340 C   0  0  0  0  0  0  0  0  0  0  0  0
  141.0960   70.1710  228.3380 C   0  0  0  0  0  0  0  0  0  0  0  0
  141.1700   71.5140  227.9900 C   0  0  0  0  0  0  0  0  0  0  0  0
  140.7100   71.8700  226.7360 C   0  0  0  0  0  0  0  0  0  0  0  0
  140.1910   70.9500  225.8370 C   0  0  0  0  0  0  0  0  0  0  0  0
  139.7610   71.4570  224.5320 C   0  0  0  0  0  0  0  0  0  0  0  0
  139.4110   75.0610  222.0390 N   0  0  0  0  0  0  0  0  0  0  0  0
  140.5600   75.7520  222.0200 C   0  0  0  0  0  0  0  0  0  0  0  0
  140.4890   77.0990  222.4490 N   0  0  0  0  0  0  0  0  0  0  0  0
  139.3470   77.8920  221.9640 C   0  0  0  0  0  0  0  0  0  0  0  0
  139.8700   79.0160  221.0670 C   0  0  0  0  0  0  0  0  0  0  0  0
  140.7370   79.8390  221.9890 C   0  0  0  0  0  0  0  0  0  0  0  0
  140.7430   81.1990  221.7200 C   0  0  0  0  0  0  0  0  0  0  0  0
  141.4990   82.0480  222.5140 C   0  0  0  0  0  0  0  0  0  0  0  0
  142.2080   81.4830  223.5340 C   0  0  0  0  0  0  0  0  0  0  0  0
  142.2020   80.1090  223.8050 C   0  0  0  0  0  0  0  0  0  0  0  0
  141.4490   79.2620  223.0160 C   0  0  0  0  0  0  0  0  0  0  0  0
  141.4240   77.7860  223.2900 C   0  0  0  0  0  0  0  0  0  0  0  0
  141.6540   75.1100  221.6220 N   0  0  0  0  0  0  0  0  0  0  0  0
  142.8390   71.6900  220.7110 C   0  0  0  0  0  0  0  0  0  0  0  0
  143.5100   71.3890  219.3770 C   0  0  0  0  0  0  0  0  0  0  0  0
  145.2723   73.1388  217.4333 H   0  0  0  0  0  0  0  0  0  0  0  0
  146.5098   72.1062  216.6402 H   0  0  0  0  0  0  0  0  0  0  0  0
  144.7856   71.6023  216.6402 H   0  0  0  0  0  0  0  0  0  0  0  0
  146.0147   69.5298  219.2951 H   0  0  0  0  0  0  0  0  0  0  0  0
  145.1037   69.5757  217.7476 H   0  0  0  0  0  0  0  0  0  0  0  0
  146.8860   69.7998  217.7476 H   0  0  0  0  0  0  0  0  0  0  0  0
  145.3609   71.2730  220.4179 H   0  0  0  0  0  0  0  0  0  0  0  0
  145.9950   73.4478  220.3184 H   0  0  0  0  0  0  0  0  0  0  0  0
  144.9434   73.7228  218.8066 H   0  0  0  0  0  0  0  0  0  0  0  0
  144.4087   74.1457  221.5822 H   0  0  0  0  0  0  0  0  0  0  0  0
  143.6247   74.7302  219.9979 H   0  0  0  0  0  0  0  0  0  0  0  0
  137.3070   73.5840  221.0210 H   0  0  0  0  0  0  0  0  0  0  0  0
  137.4027   72.7670  223.7164 H   0  0  0  0  0  0  0  0  0  0  0  0
  136.4067   72.0383  222.4160 H   0  0  0  0  0  0  0  0  0  0  0  0
  137.7017   70.3059  222.2460 H   0  0  0  0  0  0  0  0  0  0  0  0
  139.2079   71.4378  222.2928 H   0  0  0  0  0  0  0  0  0  0  0  0
  138.2379   68.5978  223.6173 H   0  0  0  0  0  0  0  0  0  0  0  0
  139.9434   69.1302  223.2481 H   0  0  0  0  0  0  0  0  0  0  0  0
  138.7138   68.1764  225.7574 H   0  0  0  0  0  0  0  0  0  0  0  0
  140.4005   67.9793  225.0240 H   0  0  0  0  0  0  0  0  0  0  0  0
  140.5180   68.1759  227.7149 H   0  0  0  0  0  0  0  0  0  0  0  0
  141.4490   69.8398  229.3258 H   0  0  0  0  0  0  0  0  0  0  0  0
  141.5780   72.2635  228.6841 H   0  0  0  0  0  0  0  0  0  0  0  0
  140.7576   72.9279  226.4384 H   0  0  0  0  0  0  0  0  0  0  0  0
  139.3565   72.4740  224.6418 H   0  0  0  0  0  0  0  0  0  0  0  0
  140.6129   71.4924  223.8370 H   0  0  0  0  0  0  0  0  0  0  0  0
  138.6669   77.2466  221.3888 H   0  0  0  0  0  0  0  0  0  0  0  0
  138.8007   78.3197  222.8176 H   0  0  0  0  0  0  0  0  0  0  0  0
  140.4608   78.6091  220.2331 H   0  0  0  0  0  0  0  0  0  0  0  0
  139.0620   79.6032  220.6063 H   0  0  0  0  0  0  0  0  0  0  0  0
  140.1528   81.6013  220.8835 H   0  0  0  0  0  0  0  0  0  0  0  0
  141.5261   83.1320  222.3293 H   0  0  0  0  0  0  0  0  0  0  0  0
  142.8144   82.1395  224.1753 H   0  0  0  0  0  0  0  0  0  0  0  0
  142.7933   79.7071  224.6410 H   0  0  0  0  0  0  0  0  0  0  0  0
  142.4289   77.3751  223.1133 H   0  0  0  0  0  0  0  0  0  0  0  0
  141.1120   77.6399  224.3346 H   0  0  0  0  0  0  0  0  0  0  0  0
  143.4177   71.2424  221.5325 H   0  0  0  0  0  0  0  0  0  0  0  0
  141.8233   71.2685  220.7390 H   0  0  0  0  0  0  0  0  0  0  0  0
  143.4431   70.3152  219.1478 H   0  0  0  0  0  0  0  0  0  0  0  0
  143.0257   71.9268  218.5486 H   0  0  0  0  0  0  0  0  0  0  0  0
  1  2  1  0
  2  3  1  0
  2  4  1  0
  4  5  1  0
  5  6  1  0
  6  7  1  0
  7  8  1  0
  8  9  2  0
  9 10  1  0
 10 11  1  0
 11 12  1  0
 12 13  1  0
 13 14  1  0
 14 15  1  0
 15 16  1  0
 16 17  1  0
 17 18  2  0
 18 19  1  0
 19 20  2  0
 20 21  1  0
 21 22  2  0
 22 23  1  0
 10 24  2  0
 24 25  1  0
 25 26  1  0
 26 27  1  0
 27 28  1  0
 28 29  1  0
 29 30  2  0
 30 31  1  0
 31 32  2  0
 32 33  1  0
 33 34  2  0
 34 35  1  0
 25 36  2  0
  7 37  1  0
 37 38  1  0
 38  4  1  0
 36  8  1  0
 23 14  1  0
 35 26  1  0
 22 17  1  0
 34 29  1  0
  1 39  1  0
  1 40  1  0
  1 41  1  0
  3 42  1  0
  3 43  1  0
  3 44  1  0
  4 45  1  0
  5 46  1  0
  5 47  1  0
  6 48  1  0
  6 49  1  0
 11 50  1  0
 12 51  1  0
 12 52  1  0
 13 53  1  0
 13 54  1  0
 15 55  1  0
 15 56  1  0
 16 57  1  0
 16 58  1  0
 18 59  1  0
 19 60  1  0
 20 61  1  0
 21 62  1  0
 23 63  1  0
 23 64  1  0
 27 65  1  0
 27 66  1  0
 28 67  1  0
 28 68  1  0
 30 69  1  0
 31 70  1  0
 32 71  1  0
 33 72  1  0
 35 73  1  0
 35 74  1  0
 37 75  1  0
 37 76  1  0
 38 77  1  0
 38 78  1  0
M  END
>  <smiles>  (48) 
CN(C)C1CCN(c2nc(NCCN3CCc4ccccc4C3)nc(N3CCc4ccccc4C3)n2)CC1

>  <score_type>  (48) 
oracle

>  <origin>  (48) 
autodockgpu

>  <m_score__min__energy>  (48) 
-11.130000000000001

>  <m_primary>  (48) 
energy

>  <rmsd>  (48) 
3.9221039267806272

>  <m_score__min__rmsd>  (48) 
3.9221039267806272

>  <meeko>  (48) 
{"free_energy": -10.34, "intermolecular_energy": -12.42, "internal_energy": -1.41, "cluster_size": 16, "cluster_id": 1, "rank_in_cluster": 13}

>  <energy>  (48) 
-8.37

>  <cluster_rmsd>  (48) 
0.0

>  <cluster>  (48) 
7

$$$$

     RDKit          3D

 78 83  0  0  0  0  0  0  0  0999 V2000
  132.4370   76.2270  227.4400 C   0  0  0  0  0  0  0  0  0  0  0  0
  132.1810   75.0110  226.7390 N   0  0  0  0  0  0  0  0  0  0  0  0
  132.0790   73.8600  227.5760 C   0  0  0  0  0  0  0  0  0  0  0  0
  132.9040   74.8190  225.5250 C   0  0  0  0  0  0  0  0  0  0  0  0
  133.2870   76.1040  224.8950 C   0  0  0  0  0  0  0  0  0  0  0  0
  134.3630   76.0830  223.8830 C   0  0  0  0  0  0  0  0  0  0  0  0
  135.1450   74.9010  223.7680 N   0  0  0  0  0  0  0  0  0  0  0  0
  136.4300   74.9660  223.1350 C   0  0  0  0  0  0  0  0  0  0  0  0
  136.9990   73.8620  222.5620 N   0  0  0  0  0  0  0  0  0  0  0  0
  138.1810   73.9440  221.9500 C   0  0  0  0  0  0  0  0  0  0  0  0
  138.8960   72.9170  221.3240 N   0  0  0  0  0  0  0  0  0  0  0  0
  139.1470   71.5650  221.7590 C   0  0  0  0  0  0  0  0  0  0  0  0
  138.1640   71.2040  222.7910 C   0  0  0  0  0  0  0  0  0  0  0  0
  138.5920   70.6570  224.0500 N   0  0  0  0  0  0  0  0  0  0  0  0
  138.8750   69.2750  224.0200 C   0  0  0  0  0  0  0  0  0  0  0  0
  139.3390   68.7390  225.3390 C   0  0  0  0  0  0  0  0  0  0  0  0
  139.9980   69.6960  226.2360 C   0  0  0  0  0  0  0  0  0  0  0  0
  140.4400   69.2950  227.4640 C   0  0  0  0  0  0  0  0  0  0  0  0
  141.0570   70.2080  228.3270 C   0  0  0  0  0  0  0  0  0  0  0  0
  141.2270   71.5310  227.9390 C   0  0  0  0  0  0  0  0  0  0  0  0
  140.7630   71.8880  226.6870 C   0  0  0  0  0  0  0  0  0  0  0  0
  140.1510   70.9880  225.8280 C   0  0  0  0  0  0  0  0  0  0  0  0
  139.7260   71.4920  224.5200 C   0  0  0  0  0  0  0  0  0  0  0  0
  138.7760   75.1620  221.9250 N   0  0  0  0  0  0  0  0  0  0  0  0
  138.2640   76.2750  222.4710 C   0  0  0  0  0  0  0  0  0  0  0  0
  139.0310   77.4560  222.3230 N   0  0  0  0  0  0  0  0  0  0  0  0
  140.0210   77.4740  221.2320 C   0  0  0  0  0  0  0  0  0  0  0  0
  141.4220   77.5640  221.8380 C   0  0  0  0  0  0  0  0  0  0  0  0
  141.4140   78.8830  222.5730 C   0  0  0  0  0  0  0  0  0  0  0  0
  142.6300   79.5480  222.5850 C   0  0  0  0  0  0  0  0  0  0  0  0
  142.7310   80.7740  223.2240 C   0  0  0  0  0  0  0  0  0  0  0  0
  141.6030   81.2640  223.8160 C   0  0  0  0  0  0  0  0  0  0  0  0
  140.3750   80.5920  223.8030 C   0  0  0  0  0  0  0  0  0  0  0  0
  140.2730   79.3700  223.1670 C   0  0  0  0  0  0  0  0  0  0  0  0
  138.9650   78.6330  223.1370 C   0  0  0  0  0  0  0  0  0  0  0  0
  137.0860   76.1730  223.0780 N   0  0  0  0  0  0  0  0  0  0  0  0
  134.6410   73.6630  224.2940 C   0  0  0  0  0  0  0  0  0  0  0  0
  134.1270   73.9410  225.7010 C   0  0  0  0  0  0  0  0  0  0  0  0
  132.3978   76.0409  228.5234 H   0  0  0  0  0  0  0  0  0  0  0  0
  133.4342   76.6038  227.1685 H   0  0  0  0  0  0  0  0  0  0  0  0
  131.6764   76.9738  227.1685 H   0  0  0  0  0  0  0  0  0  0  0  0
  132.1065   74.1702  228.6310 H   0  0  0  0  0  0  0  0  0  0  0  0
  131.1313   73.3405  227.3712 H   0  0  0  0  0  0  0  0  0  0  0  0
  132.9206   73.1819  227.3712 H   0  0  0  0  0  0  0  0  0  0  0  0
  132.2106   74.2939  224.8516 H   0  0  0  0  0  0  0  0  0  0  0  0
  132.3882   76.5117  224.4093 H   0  0  0  0  0  0  0  0  0  0  0  0
  133.6957   76.7054  225.7204 H   0  0  0  0  0  0  0  0  0  0  0  0
  133.8953   76.2630  222.9038 H   0  0  0  0  0  0  0  0  0  0  0  0
  135.0735   76.8523  224.2197 H   0  0  0  0  0  0  0  0  0  0  0  0
  139.3230   73.1710  220.3750 H   0  0  0  0  0  0  0  0  0  0  0  0
  139.0531   70.8791  220.9042 H   0  0  0  0  0  0  0  0  0  0  0  0
  140.1638   71.4901  222.1719 H   0  0  0  0  0  0  0  0  0  0  0  0
  137.5990   72.1193  223.0213 H   0  0  0  0  0  0  0  0  0  0  0  0
  137.6200   70.3661  222.3306 H   0  0  0  0  0  0  0  0  0  0  0  0
  137.9615   68.7374  223.7260 H   0  0  0  0  0  0  0  0  0  0  0  0
  139.6929   69.1244  223.3000 H   0  0  0  0  0  0  0  0  0  0  0  0
  138.4604   68.3374  225.8650 H   0  0  0  0  0  0  0  0  0  0  0  0
  140.1063   67.9890  225.0965 H   0  0  0  0  0  0  0  0  0  0  0  0
  140.3105   68.2484  227.7769 H   0  0  0  0  0  0  0  0  0  0  0  0
  141.4084   69.8769  229.3154 H   0  0  0  0  0  0  0  0  0  0  0  0
  141.7110   72.2642  228.6009 H   0  0  0  0  0  0  0  0  0  0  0  0
  140.8844   72.9306  226.3580 H   0  0  0  0  0  0  0  0  0  0  0  0
  139.4047   72.5401  224.6108 H   0  0  0  0  0  0  0  0  0  0  0  0
  140.5589   71.4416  223.8033 H   0  0  0  0  0  0  0  0  0  0  0  0
  139.9336   76.5520  220.6385 H   0  0  0  0  0  0  0  0  0  0  0  0
  139.8406   78.3402  220.5784 H   0  0  0  0  0  0  0  0  0  0  0  0
  141.6028   76.7300  222.5321 H   0  0  0  0  0  0  0  0  0  0  0  0
  142.2172   77.5047  221.0803 H   0  0  0  0  0  0  0  0  0  0  0  0
  143.5082   79.1063  222.0913 H   0  0  0  0  0  0  0  0  0  0  0  0
  143.6805   81.3287  223.2528 H   0  0  0  0  0  0  0  0  0  0  0  0
  141.6618   82.2353  224.3289 H   0  0  0  0  0  0  0  0  0  0  0  0
  139.4968   81.0343  224.2961 H   0  0  0  0  0  0  0  0  0  0  0  0
  138.6985   78.3405  224.1634 H   0  0  0  0  0  0  0  0  0  0  0  0
  138.2072   79.3030  222.7048 H   0  0  0  0  0  0  0  0  0  0  0  0
  133.8217   73.2915  223.6610 H   0  0  0  0  0  0  0  0  0  0  0  0
  135.4320   72.8988  224.3136 H   0  0  0  0  0  0  0  0  0  0  0  0
  133.8550   73.0006  226.2027 H   0  0  0  0  0  0  0  0  0  0  0  0
  134.8913   74.4295  226.3233 H   0  0  0  0  0  0  0  0  0  0  0  0
  1  2  1  0
  2  3  1  0
  2  4  1  0
  4  5  1  0
  5  6  1  0
  6  7  1  0
  7  8  1  0
  8  9  2  0
  9 10  1  0
 10 11  1  0
 11 12  1  0
 12 13  1  0
 13 14  1  0
 14 15  1  0
 15 16  1  0
 16 17  1  0
 17 18  2  0
 18 19  1  0
 19 20  2  0
 20 21  1  0
 21 22  2  0
 22 23  1  0
 10 24  2  0
 24 25  1  0
 25 26  1  0
 26 27  1  0
 27 28  1  0
 28 29  1  0
 29 30  2  0
 30 31  1  0
 31 32  2  0
 32 33  1  0
 33 34  2  0
 34 35  1  0
 25 36  2  0
  7 37  1  0
 37 38  1  0
 38  4  1  0
 36  8  1  0
 23 14  1  0
 35 26  1  0
 22 17  1  0
 34 29  1  0
  1 39  1  0
  1 40  1  0
  1 41  1  0
  3 42  1  0
  3 43  1  0
  3 44  1  0
  4 45  1  0
  5 46  1  0
  5 47  1  0
  6 48  1  0
  6 49  1  0
 11 50  1  0
 12 51  1  0
 12 52  1  0
 13 53  1  0
 13 54  1  0
 15 55  1  0
 15 56  1  0
 16 57  1  0
 16 58  1  0
 18 59  1  0
 19 60  1  0
 20 61  1  0
 21 62  1  0
 23 63  1  0
 23 64  1  0
 27 65  1  0
 27 66  1  0
 28 67  1  0
 28 68  1  0
 30 69  1  0
 31 70  1  0
 32 71  1  0
 33 72  1  0
 35 73  1  0
 35 74  1  0
 37 75  1  0
 37 76  1  0
 38 77  1  0
 38 78  1  0
M  END
>  <smiles>  (49) 
CN(C)C1CCN(c2nc(NCCN3CCc4ccccc4C3)nc(N3CCc4ccccc4C3)n2)CC1

>  <score_type>  (49) 
oracle

>  <origin>  (49) 
autodockgpu

>  <m_score__min__energy>  (49) 
-11.130000000000001

>  <m_primary>  (49) 
energy

>  <rmsd>  (49) 
3.9200333397553138

>  <m_score__min__rmsd>  (49) 
3.9200333397553138

>  <meeko>  (49) 
{"free_energy": -9.74, "intermolecular_energy": -11.83, "internal_energy": -1.31, "cluster_size": 7, "cluster_id": 3, "rank_in_cluster": 6}

>  <energy>  (49) 
-8.17

>  <cluster_rmsd>  (49) 
1.14

>  <cluster>  (49) 
7

$$$$

     RDKit          3D

 78 83  0  0  0  0  0  0  0  0999 V2000
  141.4240   82.3730  221.9900 C   0  0  0  0  0  0  0  0  0  0  0  0
  141.2790   81.2430  222.8490 N   0  0  0  0  0  0  0  0  0  0  0  0
  142.3530   81.0630  223.7700 C   0  0  0  0  0  0  0  0  0  0  0  0
  140.7890   80.0490  222.2430 C   0  0  0  0  0  0  0  0  0  0  0  0
  141.7980   79.4170  221.3620 C   0  0  0  0  0  0  0  0  0  0  0  0
  141.6030   77.9990  220.9950 C   0  0  0  0  0  0  0  0  0  0  0  0
  140.6250   77.2550  221.7120 N   0  0  0  0  0  0  0  0  0  0  0  0
  140.6870   75.8230  221.7050 C   0  0  0  0  0  0  0  0  0  0  0  0
  139.6130   75.0610  222.0770 N   0  0  0  0  0  0  0  0  0  0  0  0
  139.6730   73.7300  222.0350 C   0  0  0  0  0  0  0  0  0  0  0  0
  138.6750   72.8140  222.3830 N   0  0  0  0  0  0  0  0  0  0  0  0
  138.5620   71.4070  222.0830 C   0  0  0  0  0  0  0  0  0  0  0  0
  139.8480   70.7530  222.3650 C   0  0  0  0  0  0  0  0  0  0  0  0
  140.2900   70.5590  223.7200 N   0  0  0  0  0  0  0  0  0  0  0  0
  140.4660   71.7520  224.4530 C   0  0  0  0  0  0  0  0  0  0  0  0
  140.9040   71.5170  225.8650 C   0  0  0  0  0  0  0  0  0  0  0  0
  140.5200   70.2320  226.4610 C   0  0  0  0  0  0  0  0  0  0  0  0
  140.8900   69.9290  227.7400 C   0  0  0  0  0  0  0  0  0  0  0  0
  140.5360   68.6990  228.3080 C   0  0  0  0  0  0  0  0  0  0  0  0
  139.8030   67.7760  227.5730 C   0  0  0  0  0  0  0  0  0  0  0  0
  139.4520   68.1290  226.2840 C   0  0  0  0  0  0  0  0  0  0  0  0
  139.8000   69.3450  225.7160 C   0  0  0  0  0  0  0  0  0  0  0  0
  139.3450   69.6030  224.3480 C   0  0  0  0  0  0  0  0  0  0  0  0
  140.8380   73.1820  221.6090 N   0  0  0  0  0  0  0  0  0  0  0  0
  141.9210   73.8790  221.2350 C   0  0  0  0  0  0  0  0  0  0  0  0
  143.0360   73.1220  220.8030 N   0  0  0  0  0  0  0  0  0  0  0  0
  144.1740   73.8730  220.2450 C   0  0  0  0  0  0  0  0  0  0  0  0
  144.3320   73.5060  218.7680 C   0  0  0  0  0  0  0  0  0  0  0  0
  144.6310   72.0260  218.7940 C   0  0  0  0  0  0  0  0  0  0  0  0
  145.4850   71.5890  217.7940 C   0  0  0  0  0  0  0  0  0  0  0  0
  145.8330   70.2480  217.7320 C   0  0  0  0  0  0  0  0  0  0  0  0
  145.3030   69.4210  218.6790 C   0  0  0  0  0  0  0  0  0  0  0  0
  144.4400   69.8630  219.6890 C   0  0  0  0  0  0  0  0  0  0  0  0
  144.0920   71.1980  219.7520 C   0  0  0  0  0  0  0  0  0  0  0  0
  143.1710   71.6960  220.8290 C   0  0  0  0  0  0  0  0  0  0  0  0
  141.8410   75.2060  221.2850 N   0  0  0  0  0  0  0  0  0  0  0  0
  139.5990   77.9480  222.4400 C   0  0  0  0  0  0  0  0  0  0  0  0
  140.2770   79.0420  223.2540 C   0  0  0  0  0  0  0  0  0  0  0  0
  141.5407   83.2827  222.5973 H   0  0  0  0  0  0  0  0  0  0  0  0
  142.3124   82.2394  221.3552 H   0  0  0  0  0  0  0  0  0  0  0  0
  140.5307   82.4681  221.3552 H   0  0  0  0  0  0  0  0  0  0  0  0
  141.9686   81.1274  224.7986 H   0  0  0  0  0  0  0  0  0  0  0  0
  142.8109   80.0756  223.6109 H   0  0  0  0  0  0  0  0  0  0  0  0
  143.1078   81.8472  223.6109 H   0  0  0  0  0  0  0  0  0  0  0  0
  139.9351   80.3641  221.6253 H   0  0  0  0  0  0  0  0  0  0  0  0
  141.8262   79.9965  220.4275 H   0  0  0  0  0  0  0  0  0  0  0  0
  142.7250   79.4241  221.9541 H   0  0  0  0  0  0  0  0  0  0  0  0
  141.3215   77.9713  219.9320 H   0  0  0  0  0  0  0  0  0  0  0  0
  142.5580   77.5146  221.2469 H   0  0  0  0  0  0  0  0  0  0  0  0
  137.8690   73.2160  222.9640 H   0  0  0  0  0  0  0  0  0  0  0  0
  137.7754   70.9587  222.7077 H   0  0  0  0  0  0  0  0  0  0  0  0
  138.3012   71.2727  221.0228 H   0  0  0  0  0  0  0  0  0  0  0  0
  139.8015   69.7556  221.9035 H   0  0  0  0  0  0  0  0  0  0  0  0
  140.5811   71.4704  221.9675 H   0  0  0  0  0  0  0  0  0  0  0  0
  141.2280   72.3636  223.9477 H   0  0  0  0  0  0  0  0  0  0  0  0
  139.4902   72.2581  224.4932 H   0  0  0  0  0  0  0  0  0  0  0  0
  142.0017   71.5833  225.8905 H   0  0  0  0  0  0  0  0  0  0  0  0
  140.3880   72.2827  226.4628 H   0  0  0  0  0  0  0  0  0  0  0  0
  141.4698   70.6558  228.3279 H   0  0  0  0  0  0  0  0  0  0  0  0
  140.8391   68.4631  229.3388 H   0  0  0  0  0  0  0  0  0  0  0  0
  139.5139   66.8041  227.9995 H   0  0  0  0  0  0  0  0  0  0  0  0
  138.8713   67.4143  225.6824 H   0  0  0  0  0  0  0  0  0  0  0  0
  139.3306   68.6632  223.7765 H   0  0  0  0  0  0  0  0  0  0  0  0
  138.3284   70.0230  224.3576 H   0  0  0  0  0  0  0  0  0  0  0  0
  143.9860   74.9527  220.3393 H   0  0  0  0  0  0  0  0  0  0  0  0
  145.0934   73.6192  220.7930 H   0  0  0  0  0  0  0  0  0  0  0  0
  143.4044   73.7086  218.2126 H   0  0  0  0  0  0  0  0  0  0  0  0
  145.1180   74.0898  218.2666 H   0  0  0  0  0  0  0  0  0  0  0  0
  145.8836   72.3000  217.0554 H   0  0  0  0  0  0  0  0  0  0  0  0
  146.5082   69.8669  216.9517 H   0  0  0  0  0  0  0  0  0  0  0  0
  145.5669   68.3536  218.6474 H   0  0  0  0  0  0  0  0  0  0  0  0
  144.0418   69.1516  220.4275 H   0  0  0  0  0  0  0  0  0  0  0  0
  142.1791   71.2427  220.6855 H   0  0  0  0  0  0  0  0  0  0  0  0
  143.6010   71.4132  221.8012 H   0  0  0  0  0  0  0  0  0  0  0  0
  138.8768   78.3933  221.7399 H   0  0  0  0  0  0  0  0  0  0  0  0
  139.0549   77.2550  223.0985 H   0  0  0  0  0  0  0  0  0  0  0  0
  139.5552   79.5160  223.9355 H   0  0  0  0  0  0  0  0  0  0  0  0
  141.0915   78.6402  223.8746 H   0  0  0  0  0  0  0  0  0  0  0  0
  1  2  1  0
  2  3  1  0
  2  4  1  0
  4  5  1  0
  5  6  1  0
  6  7  1  0
  7  8  1  0
  8  9  2  0
  9 10  1  0
 10 11  1  0
 11 12  1  0
 12 13  1  0
 13 14  1  0
 14 15  1  0
 15 16  1  0
 16 17  1  0
 17 18  2  0
 18 19  1  0
 19 20  2  0
 20 21  1  0
 21 22  2  0
 22 23  1  0
 10 24  2  0
 24 25  1  0
 25 26  1  0
 26 27  1  0
 27 28  1  0
 28 29  1  0
 29 30  2  0
 30 31  1  0
 31 32  2  0
 32 33  1  0
 33 34  2  0
 34 35  1  0
 25 36  2  0
  7 37  1  0
 37 38  1  0
 38  4  1  0
 36  8  1  0
 23 14  1  0
 35 26  1  0
 22 17  1  0
 34 29  1  0
  1 39  1  0
  1 40  1  0
  1 41  1  0
  3 42  1  0
  3 43  1  0
  3 44  1  0
  4 45  1  0
  5 46  1  0
  5 47  1  0
  6 48  1  0
  6 49  1  0
 11 50  1  0
 12 51  1  0
 12 52  1  0
 13 53  1  0
 13 54  1  0
 15 55  1  0
 15 56  1  0
 16 57  1  0
 16 58  1  0
 18 59  1  0
 19 60  1  0
 20 61  1  0
 21 62  1  0
 23 63  1  0
 23 64  1  0
 27 65  1  0
 27 66  1  0
 28 67  1  0
 28 68  1  0
 30 69  1  0
 31 70  1  0
 32 71  1  0
 33 72  1  0
 35 73  1  0
 35 74  1  0
 37 75  1  0
 37 76  1  0
 38 77  1  0
 38 78  1  0
M  END
>  <smiles>  (50) 
CN(C)C1CCN(c2nc(NCCN3CCc4ccccc4C3)nc(N3CCc4ccccc4C3)n2)CC1

>  <score_type>  (50) 
oracle

>  <origin>  (50) 
autodockgpu

>  <m_score__min__energy>  (50) 
-11.130000000000001

>  <m_primary>  (50) 
energy

>  <rmsd>  (50) 
3.2183531995651786

>  <m_score__min__rmsd>  (50) 
3.2183531995651786

>  <meeko>  (50) 
{"free_energy": -10.18, "intermolecular_energy": -12.26, "internal_energy": -1.32, "cluster_size": 13, "cluster_id": 2, "rank_in_cluster": 7}

>  <energy>  (50) 
-7.79

>  <cluster_rmsd>  (50) 
0.0

>  <cluster>  (50) 
8

$$$$
