@<TRIPOS>MOLECULE
*****
 61 64 0 0 0
SMALL
GASTEIGER

@<TRIPOS>ATOM
      1 C         138.5290   79.8190  220.7120 C.3     1  UNL1       -0.0586
      2 C         139.2150   78.8210  221.6150 C.3     1  UNL1       -0.0198
      3 C         138.1470   78.4210  222.6490 C.3     1  UNL1       -0.0586
      4 C         140.3930   79.3880  222.3170 C.ar    1  UNL1       -0.0236
      5 C         140.1630   80.4900  223.1190 C.ar    1  UNL1       -0.0566
      6 C         141.1750   81.1000  223.8350 C.ar    1  UNL1       -0.0614
      7 C         142.4240   80.5760  223.7260 C.ar    1  UNL1       -0.0600
      8 C         142.6540   79.4670  222.9180 C.ar    1  UNL1       -0.0402
      9 C         141.6720   78.8400  222.1970 C.ar    1  UNL1        0.0369
     10 N         141.8210   77.7340  221.3630 N.am    1  UNL1       -0.2837
     11 C         141.8290   77.7170  219.9300 C.2     1  UNL1        0.2378
     12 O         141.6880   78.8140  219.3600 O.2     1  UNL1       -0.2734
     13 C         142.0010   76.4090  219.2990 C.3     1  UNL1        0.1053
     14 C         141.7130   76.5400  217.7840 C.3     1  UNL1        0.0070
     15 C         141.5600   75.1150  217.3510 C.3     1  UNL1        0.1188
     16 F         140.4510   74.9280  216.5420 F       1  UNL1       -0.2438
     17 C         141.5290   74.3300  218.6010 C.3     1  UNL1        0.0467
     18 N         141.1470   75.3260  219.6580 N.am    1  UNL1       -0.2858
     19 C         140.1710   75.1370  220.6510 C.2     1  UNL1        0.2334
     20 O         139.8810   76.2030  221.3430 O.2     1  UNL1       -0.2739
     21 C         139.4180   73.9660  221.0580 C.3     1  UNL1        0.0887
     22 N         139.5710   73.4000  222.3450 N.am    1  UNL1       -0.3015
     23 C         139.6780   71.9480  222.4120 C.2     1  UNL1        0.2628
     24 O         139.6160   71.3620  221.3070 O.2     1  UNL1       -0.2685
     25 C         139.8410   71.2740  223.6910 C.ar    1  UNL1        0.1260
     26 C         139.5020   69.9610  223.7760 C.ar    1  UNL1       -0.0306
     27 C         139.6340   69.2630  224.9500 C.ar    1  UNL1       -0.0504
     28 C         140.1240   69.9420  226.0410 C.ar    1  UNL1        0.0004
     29 C         140.2810   69.2970  227.2480 C.ar    1  UNL1       -0.0526
     30 C         140.7720   70.0120  228.3020 C.ar    1  UNL1       -0.0611
     31 C         141.1160   71.3480  228.2120 C.ar    1  UNL1       -0.0597
     32 C         140.9610   72.0010  227.0020 C.ar    1  UNL1       -0.0357
     33 C         140.4720   71.2940  225.9470 C.ar    1  UNL1        0.0718
     34 N         140.3150   71.9030  224.7760 N.ar    1  UNL1       -0.2421
     35 H         138.0113   80.5721  221.3242 H       1  UNL1        0.0235
     36 H         139.2782   80.3146  220.0771 H       1  UNL1        0.0235
     37 H         137.7979   79.2970  220.0771 H       1  UNL1        0.0235
     38 H         139.5973   77.9755  221.0243 H       1  UNL1        0.0344
     39 H         138.5450   78.5701  223.6636 H       1  UNL1        0.0235
     40 H         137.2514   79.0446  222.5111 H       1  UNL1        0.0235
     41 H         137.8815   77.3625  222.5111 H       1  UNL1        0.0235
     42 H         139.1423   80.8940  223.1894 H       1  UNL1        0.0621
     43 H         140.9771   81.9767  224.4693 H       1  UNL1        0.0618
     44 H         143.2582   81.0313  224.2799 H       1  UNL1        0.0618
     45 H         143.6789   79.0725  222.8546 H       1  UNL1        0.0636
     46 H         141.9390   76.7850  221.8100 H       1  UNL1        0.1549
     47 H         143.0197   76.1617  219.6324 H       1  UNL1        0.0598
     48 H         140.7896   77.1101  217.6041 H       1  UNL1        0.0316
     49 H         142.4997   77.0795  217.2362 H       1  UNL1        0.0316
     50 H         142.3925   74.7850  216.7122 H       1  UNL1        0.0668
     51 H         140.7822   73.5249  218.5367 H       1  UNL1        0.0493
     52 H         142.4914   73.8415  218.8134 H       1  UNL1        0.0493
     53 H         138.3549   74.2310  220.9599 H       1  UNL1        0.0558
     54 H         139.8282   73.1820  220.4045 H       1  UNL1        0.0558
     55 H         139.6200   73.8810  223.2570 H       1  UNL1        0.1496
     56 H         139.1134   69.4466  222.8847 H       1  UNL1        0.0641
     57 H         139.3582   68.2002  225.0160 H       1  UNL1        0.0625
     58 H         140.0179   68.2348  227.3594 H       1  UNL1        0.0624
     59 H         140.8999   69.5015  229.2679 H       1  UNL1        0.0618
     60 H         141.5071   71.8839  229.0894 H       1  UNL1        0.0618
     61 H         141.2260   73.0633  226.8956 H       1  UNL1        0.0639
@<TRIPOS>BOND
     1     1     2    1
     2     2     3    1
     3     2     4    1
     4     4     5   ar
     5     5     6   ar
     6     6     7   ar
     7     7     8   ar
     8     8     9   ar
     9     9    10    1
    10    10    11   am
    11    11    12    2
    12    11    13    1
    13    13    14    1
    14    14    15    1
    15    15    16    1
    16    15    17    1
    17    17    18    1
    18    18    19   am
    19    19    20    2
    20    19    21    1
    21    21    22    1
    22    22    23   am
    23    23    24    2
    24    23    25    1
    25    25    26   ar
    26    26    27   ar
    27    27    28   ar
    28    28    29   ar
    29    29    30   ar
    30    30    31   ar
    31    31    32   ar
    32    32    33   ar
    33    33    34   ar
    34     9     4   ar
    35    18    13    1
    36    34    25   ar
    37    33    28   ar
    38     1    35    1
    39     1    36    1
    40     1    37    1
    41     2    38    1
    42     3    39    1
    43     3    40    1
    44     3    41    1
    45     5    42    1
    46     6    43    1
    47     7    44    1
    48     8    45    1
    49    10    46    1
    50    13    47    1
    51    14    48    1
    52    14    49    1
    53    15    50    1
    54    17    51    1
    55    17    52    1
    56    21    53    1
    57    21    54    1
    58    22    55    1
    59    26    56    1
    60    27    57    1
    61    29    58    1
    62    30    59    1
    63    31    60    1
    64    32    61    1
