@<TRIPOS>MOLECULE
*****
 63 67 0 0 0
SMALL
GASTEIGER

@<TRIPOS>ATOM
      1 O         138.1590   70.1200  221.7400 O.2     1  UNL1       -0.2685
      2 C         138.6880   70.7530  222.6980 C.2     1  UNL1        0.2628
      3 N         138.8960   72.1770  222.6400 N.am    1  UNL1       -0.3015
      4 C         138.5020   72.9220  221.4920 C.3     1  UNL1        0.0887
      5 C         138.9920   74.2780  221.4230 C.2     1  UNL1        0.2334
      6 O         139.6010   74.6740  222.5120 O.2     1  UNL1       -0.2739
      7 N         138.9250   75.2430  220.4000 N.am    1  UNL1       -0.2886
      8 C         137.7890   75.9460  219.8220 C.3     1  UNL1        0.0156
      9 C         138.4330   77.2360  219.2740 C.3     1  UNL1       -0.0350
     10 C         139.7260   76.6810  218.6620 C.3     1  UNL1       -0.0243
     11 C         140.1650   75.6920  219.7170 C.3     1  UNL1        0.1022
     12 C         140.9560   76.4060  220.7800 C.2     1  UNL1        0.2338
     13 O         142.1990   76.5300  220.5030 O.2     1  UNL1       -0.2738
     14 N         140.4130   76.9000  221.9660 N.am    1  UNL1       -0.3097
     15 C         141.1620   77.5900  223.0050 C.3     1  UNL1        0.0369
     16 C         141.3890   79.0230  222.6940 C.ar    1  UNL1       -0.0297
     17 C         141.5100   79.9430  223.7290 C.ar    1  UNL1       -0.0570
     18 C         141.7240   81.2860  223.5030 C.ar    1  UNL1       -0.0608
     19 C         141.8240   81.7520  222.1880 C.ar    1  UNL1       -0.0510
     20 C         141.7070   80.8580  221.1430 C.ar    1  UNL1        0.0194
     21 C         141.8050   81.3170  219.7610 C.ar    1  UNL1        0.1597
     22 N         141.5280   82.5870  219.4210 N.ar    1  UNL1       -0.2357
     23 C         141.6260   82.9930  218.1220 C.ar    1  UNL1        0.0314
     24 C         142.0100   82.1240  217.1160 C.ar    1  UNL1       -0.0254
     25 C         142.2910   80.8180  217.4880 C.ar    1  UNL1        0.0314
     26 N         142.1800   80.4570  218.7970 N.ar    1  UNL1       -0.2357
     27 C         141.4940   79.5250  221.4170 C.ar    1  UNL1       -0.0464
     28 C         139.1090   70.0420  223.9160 C.ar    1  UNL1        0.1260
     29 C         138.8780   68.6790  223.9990 C.ar    1  UNL1       -0.0306
     30 C         139.2560   67.9820  225.1200 C.ar    1  UNL1       -0.0503
     31 C         139.8650   68.6360  226.1630 C.ar    1  UNL1        0.0031
     32 C         140.2300   67.9240  227.2630 C.ar    1  UNL1       -0.0173
     33 C         140.8400   68.5790  228.3090 C.ar    1  UNL1        0.1241
     34 F         141.2250   67.9110  229.4320 F       1  UNL1       -0.2055
     35 C         141.0560   69.9390  228.1960 C.ar    1  UNL1       -0.0244
     36 C         140.6890   70.6710  227.0850 C.ar    1  UNL1       -0.0330
     37 C         140.0790   69.9990  226.0460 C.ar    1  UNL1        0.0720
     38 N         139.7090   70.6890  224.9460 N.ar    1  UNL1       -0.2421
     39 H         139.3510   72.6310  223.4860 H       1  UNL1        0.1496
     40 H         138.8644   72.3868  220.6019 H       1  UNL1        0.0558
     41 H         137.4066   73.0034  221.5509 H       1  UNL1        0.0558
     42 H         137.3279   75.3586  219.0143 H       1  UNL1        0.0465
     43 H         136.9790   76.1339  220.5422 H       1  UNL1        0.0465
     44 H         137.7979   77.7126  218.5127 H       1  UNL1        0.0281
     45 H         138.5892   78.0207  220.0289 H       1  UNL1        0.0281
     46 H         139.5327   76.1824  217.7007 H       1  UNL1        0.0288
     47 H         140.4772   77.4509  218.4318 H       1  UNL1        0.0288
     48 H         140.7524   74.8827  219.2587 H       1  UNL1        0.0597
     49 H         139.3800   76.7930  222.1650 H       1  UNL1        0.1491
     50 H         140.6009   77.5196  223.9485 H       1  UNL1        0.0512
     51 H         142.1474   77.1069  223.0796 H       1  UNL1        0.0512
     52 H         141.4321   79.5863  224.7666 H       1  UNL1        0.0621
     53 H         141.8152   81.9840  224.3483 H       1  UNL1        0.0618
     54 H         141.9942   82.8203  221.9887 H       1  UNL1        0.0625
     55 H         141.3938   84.0378  217.8680 H       1  UNL1        0.0831
     56 H         142.0887   82.4539  216.0696 H       1  UNL1        0.0648
     57 H         142.6007   80.0803  216.7331 H       1  UNL1        0.0831
     58 H         141.4032   78.8263  220.5722 H       1  UNL1        0.0628
     59 H         138.3905   68.1534  223.1647 H       1  UNL1        0.0641
     60 H         139.0710   66.8995  225.1828 H       1  UNL1        0.0625
     61 H         140.0407   66.8417  227.3160 H       1  UNL1        0.0653
     62 H         141.5436   70.4632  229.0311 H       1  UNL1        0.0647
     63 H         140.8765   71.7535  227.0299 H       1  UNL1        0.0640
@<TRIPOS>BOND
     1     1     2    2
     2     2     3   am
     3     3     4    1
     4     4     5    1
     5     5     6    2
     6     5     7   am
     7     7     8    1
     8     8     9    1
     9     9    10    1
    10    10    11    1
    11    11    12    1
    12    12    13    2
    13    12    14   am
    14    14    15    1
    15    15    16    1
    16    16    17   ar
    17    17    18   ar
    18    18    19   ar
    19    19    20   ar
    20    20    21    1
    21    21    22   ar
    22    22    23   ar
    23    23    24   ar
    24    24    25   ar
    25    25    26   ar
    26    20    27   ar
    27     2    28    1
    28    28    29   ar
    29    29    30   ar
    30    30    31   ar
    31    31    32   ar
    32    32    33   ar
    33    33    34    1
    34    33    35   ar
    35    35    36   ar
    36    36    37   ar
    37    37    38   ar
    38    11     7    1
    39    27    16   ar
    40    38    28   ar
    41    26    21   ar
    42    37    31   ar
    43     3    39    1
    44     4    40    1
    45     4    41    1
    46     8    42    1
    47     8    43    1
    48     9    44    1
    49     9    45    1
    50    10    46    1
    51    10    47    1
    52    11    48    1
    53    14    49    1
    54    15    50    1
    55    15    51    1
    56    17    52    1
    57    18    53    1
    58    19    54    1
    59    23    55    1
    60    24    56    1
    61    25    57    1
    62    27    58    1
    63    29    59    1
    64    30    60    1
    65    32    61    1
    66    35    62    1
    67    36    63    1
