
 60 63  0  0  0  0  0  0  0  0999 V2000
  144.2240   73.9190  219.7600 C   0  0  0  0  0  0  0  0  0  0  0  0
  143.0340   74.6200  220.4090 C   0  0  0  0  0  0  0  0  0  0  0  0
  142.8030   75.9060  219.6880 C   0  0  0  0  0  0  0  0  0  0  0  0
  141.9140   73.6440  220.3950 C   0  0  0  0  0  0  0  0  0  0  0  0
  140.6630   74.0170  221.0880 C   0  0  2  0  0  0  0  0  0  0  0  0
  140.3410   73.3540  222.3000 N   0  0  0  0  0  0  0  0  0  0  0  0
  140.6130   71.9410  222.3790 C   0  0  0  0  0  0  0  0  0  0  0  0
  141.1270   71.3300  221.3810 O   0  0  0  0  0  0  0  0  0  0  0  0
  140.2940   71.2070  223.6210 C   0  0  0  0  0  0  0  0  0  0  0  0
  139.5940   70.0240  223.5130 C   0  0  0  0  0  0  0  0  0  0  0  0
  139.3110   69.3610  224.6930 C   0  0  0  0  0  0  0  0  0  0  0  0
  139.7190   69.8730  225.9190 C   0  0  0  0  0  0  0  0  0  0  0  0
  139.4400   69.2130  227.1110 C   0  0  0  0  0  0  0  0  0  0  0  0
  139.8640   69.7560  228.3170 C   0  0  0  0  0  0  0  0  0  0  0  0
  140.5620   70.9490  228.3340 C   0  0  0  0  0  0  0  0  0  0  0  0
  140.8500   71.6230  227.1540 C   0  0  0  0  0  0  0  0  0  0  0  0
  140.4180   71.0610  225.9730 C   0  0  0  0  0  0  0  0  0  0  0  0
  140.6920   71.7070  224.8200 N   0  0  0  0  0  0  0  0  0  0  0  0
  139.5280   73.8600  220.1060 C   0  0  0  0  0  0  0  0  0  0  0  0
  139.6010   72.8380  219.4100 O   0  0  0  0  0  0  0  0  0  0  0  0
  138.4360   74.8400  219.9960 C   0  0  0  0  0  0  0  0  0  0  0  0
  138.9180   76.1170  220.4740 N   0  0  0  0  0  0  0  0  0  0  0  0
  139.0200   76.4030  221.8640 C   0  0  0  0  0  0  0  0  0  0  0  0
  138.6590   75.4570  222.6430 O   0  0  0  0  0  0  0  0  0  0  0  0
  139.4980   77.6690  222.3920 C   0  0  0  0  0  0  0  0  0  0  0  0
  138.6990   78.6360  222.9380 C   0  0  0  0  0  0  0  0  0  0  0  0
  139.2640   79.8050  223.4090 C   0  0  0  0  0  0  0  0  0  0  0  0
  140.6090   80.0480  223.3570 C   0  0  0  0  0  0  0  0  0  0  0  0
  141.1890   81.2060  223.8220 C   0  0  0  0  0  0  0  0  0  0  0  0
  142.5550   81.3610  223.7260 C   0  0  0  0  0  0  0  0  0  0  0  0
  143.3400   80.4060  223.1860 N   0  0  0  0  0  0  0  0  0  0  0  0
  142.7890   79.2540  222.7200 C   0  0  0  0  0  0  0  0  0  0  0  0
  141.4360   79.0740  222.8040 C   0  0  0  0  0  0  0  0  0  0  0  0
  140.8570   77.9260  222.3430 C   0  0  0  0  0  0  0  0  0  0  0  0
  144.8900   73.5267  220.5427 H   0  0  0  0  0  0  0  0  0  0  0  0
  143.8641   73.0886  219.1347 H   0  0  0  0  0  0  0  0  0  0  0  0
  144.7758   74.6364  219.1347 H   0  0  0  0  0  0  0  0  0  0  0  0
  143.1815   74.9113  221.4594 H   0  0  0  0  0  0  0  0  0  0  0  0
  142.6576   76.7151  220.4189 H   0  0  0  0  0  0  0  0  0  0  0  0
  143.6745   76.1342  219.0568 H   0  0  0  0  0  0  0  0  0  0  0  0
  141.9065   75.8166  219.0568 H   0  0  0  0  0  0  0  0  0  0  0  0
  141.6604   73.4515  219.3421 H   0  0  0  0  0  0  0  0  0  0  0  0
  142.2944   72.7795  220.9588 H   0  0  0  0  0  0  0  0  0  0  0  0
  140.8297   75.0520  221.4212 H   0  0  0  0  0  0  0  0  0  0  0  0
  139.9300   73.7680  223.1590 H   0  0  0  0  0  0  0  0  0  0  0  0
  139.2766   69.6276  222.5372 H   0  0  0  0  0  0  0  0  0  0  0  0
  138.7540   68.4130  224.6608 H   0  0  0  0  0  0  0  0  0  0  0  0
  138.8850   68.2634  227.0986 H   0  0  0  0  0  0  0  0  0  0  0  0
  139.6439   69.2355  229.2607 H   0  0  0  0  0  0  0  0  0  0  0  0
  140.8937   71.3701  229.2945 H   0  0  0  0  0  0  0  0  0  0  0  0
  141.4042   72.5732  227.1625 H   0  0  0  0  0  0  0  0  0  0  0  0
  138.1229   74.9308  218.9454 H   0  0  0  0  0  0  0  0  0  0  0  0
  137.5736   74.5134  220.5956 H   0  0  0  0  0  0  0  0  0  0  0  0
  139.2090   76.8740  219.8230 H   0  0  0  0  0  0  0  0  0  0  0  0
  137.6115   78.4832  223.0016 H   0  0  0  0  0  0  0  0  0  0  0  0
  138.6056   80.5716  223.8435 H   0  0  0  0  0  0  0  0  0  0  0  0
  140.5692   81.9992  224.2655 H   0  0  0  0  0  0  0  0  0  0  0  0
  143.0169   82.2869  224.0991 H   0  0  0  0  0  0  0  0  0  0  0  0
  143.4261   78.4732  222.2791 H   0  0  0  0  0  0  0  0  0  0  0  0
  141.5117   77.1579  221.9055 H   0  0  0  0  0  0  0  0  0  0  0  0
  1  2  1  0
  2  3  1  0
  2  4  1  0
  4  5  1  0
  5  6  1  0
  6  7  1  0
  7  8  2  0
  7  9  1  0
  9 10  2  0
 10 11  1  0
 11 12  2  0
 12 13  1  0
 13 14  2  0
 14 15  1  0
 15 16  2  0
 16 17  1  0
 17 18  2  0
  5 19  1  0
 19 20  2  0
 19 21  1  0
 21 22  1  0
 22 23  1  0
 23 24  2  0
 23 25  1  0
 25 26  2  0
 26 27  1  0
 27 28  2  0
 28 29  1  0
 29 30  2  0
 30 31  1  0
 31 32  2  0
 32 33  1  0
 33 34  2  0
 18  9  1  0
 34 25  1  0
 17 12  1  0
 33 28  1  0
  1 35  1  0
  1 36  1  0
  1 37  1  0
  2 38  1  0
  3 39  1  0
  3 40  1  0
  3 41  1  0
  4 42  1  0
  4 43  1  0
  5 44  1  1
  6 45  1  0
 10 46  1  0
 11 47  1  0
 13 48  1  0
 14 49  1  0
 15 50  1  0
 16 51  1  0
 21 52  1  0
 21 53  1  0
 22 54  1  0
 26 55  1  0
 27 56  1  0
 29 57  1  0
 30 58  1  0
 32 59  1  0
 34 60  1  0
M  END
