@<TRIPOS>MOLECULE
*****
 60 64 0 0 0
SMALL
GASTEIGER

@<TRIPOS>ATOM
      1 O         139.6180   70.5520  221.4200 O.2     1  UNL1       -0.2685
      2 C         139.6360   71.1930  222.5200 C.2     1  UNL1        0.2628
      3 N         139.5830   72.6260  222.5450 N.am    1  UNL1       -0.3015
      4 C         139.5080   73.2960  221.2730 C.3     1  UNL1        0.0887
      5 C         140.6290   74.2230  221.1470 C.2     1  UNL1        0.2330
      6 O         140.9750   75.0470  222.0590 O.2     1  UNL1       -0.2739
      7 N         141.4350   74.2700  219.9630 N.am    1  UNL1       -0.2967
      8 C         141.1830   73.3440  218.8730 C.3     1  UNL1        0.0150
      9 C         142.4490   72.6750  218.4740 C.3     1  UNL1       -0.0371
     10 C         143.6720   73.5300  218.4880 C.3     1  UNL1       -0.0499
     11 C         143.7860   74.4040  219.6960 C.3     1  UNL1       -0.0338
     12 C         142.5180   75.2240  219.8030 C.3     1  UNL1        0.0344
     13 C         142.3450   76.0550  218.5510 C.3     1  UNL1        0.0426
     14 C         142.1320   77.4640  218.9720 C.ar    1  UNL1        0.1980
     15 N         141.8740   78.5450  218.2060 N.ar    1  UNL1       -0.2211
     16 C         141.7450   79.6470  218.9930 C.ar    1  UNL1        0.0739
     17 C         141.9360   79.1910  220.2710 C.ar    1  UNL1        0.1552
     18 C         141.8980   79.9800  221.4770 C.ar    1  UNL1        0.0188
     19 C         142.3800   79.4050  222.6500 C.ar    1  UNL1       -0.0510
     20 C         142.3570   80.1460  223.8350 C.ar    1  UNL1       -0.0611
     21 C         141.8610   81.4470  223.8590 C.ar    1  UNL1       -0.0617
     22 C         141.3870   81.9990  222.6820 C.ar    1  UNL1       -0.0611
     23 C         141.4060   81.2700  221.4980 C.ar    1  UNL1       -0.0510
     24 O         142.1620   77.8980  220.2300 O.2     1  UNL1       -0.4397
     25 C         139.7130   70.4690  223.7860 C.ar    1  UNL1        0.1260
     26 C         139.1580   69.2080  223.8830 C.ar    1  UNL1       -0.0306
     27 C         139.1930   68.4650  225.0470 C.ar    1  UNL1       -0.0504
     28 C         139.8100   69.0160  226.1510 C.ar    1  UNL1        0.0004
     29 C         139.8750   68.3090  227.3550 C.ar    1  UNL1       -0.0526
     30 C         140.4900   68.8530  228.4590 C.ar    1  UNL1       -0.0611
     31 C         141.0430   70.1220  228.3420 C.ar    1  UNL1       -0.0597
     32 C         140.9840   70.8300  227.1570 C.ar    1  UNL1       -0.0357
     33 C         140.3690   70.2910  226.0450 C.ar    1  UNL1        0.0718
     34 N         140.3060   70.9720  224.8850 N.ar    1  UNL1       -0.2421
     35 H         139.5980   73.1540  223.4620 H       1  UNL1        0.1496
     36 H         139.5535   72.5528  220.4633 H       1  UNL1        0.0558
     37 H         138.5614   73.8523  221.2057 H       1  UNL1        0.0558
     38 H         140.4568   72.5851  219.1997 H       1  UNL1        0.0465
     39 H         140.7800   73.8986  218.0128 H       1  UNL1        0.0465
     40 H         142.6177   71.8347  219.1635 H       1  UNL1        0.0280
     41 H         142.3085   72.3746  217.4252 H       1  UNL1        0.0280
     42 H         144.5540   72.8737  218.4508 H       1  UNL1        0.0266
     43 H         143.6053   74.1973  217.6161 H       1  UNL1        0.0266
     44 H         143.9057   73.7829  220.5959 H       1  UNL1        0.0283
     45 H         144.6613   75.0644  219.6080 H       1  UNL1        0.0283
     46 H         142.5423   75.9232  220.6518 H       1  UNL1        0.0505
     47 H         143.2469   75.9828  217.9254 H       1  UNL1        0.0378
     48 H         141.4881   75.6939  217.9634 H       1  UNL1        0.0378
     49 H         141.5337   80.6782  218.6735 H       1  UNL1        0.0868
     50 H         142.7748   78.3783  222.6442 H       1  UNL1        0.0625
     51 H         142.7367   79.6943  224.7633 H       1  UNL1        0.0618
     52 H         141.8463   82.0245  224.7951 H       1  UNL1        0.0618
     53 H         140.9910   83.0252  222.6830 H       1  UNL1        0.0618
     54 H         141.0262   81.7245  220.5711 H       1  UNL1        0.0625
     55 H         138.6681   68.7777  222.9971 H       1  UNL1        0.0641
     56 H         138.7418   67.4628  225.0923 H       1  UNL1        0.0625
     57 H         139.4291   67.3056  227.4207 H       1  UNL1        0.0624
     58 H         140.5424   68.2987  229.4077 H       1  UNL1        0.0618
     59 H         141.5396   70.5738  229.2134 H       1  UNL1        0.0618
     60 H         141.4316   71.8332  227.0992 H       1  UNL1        0.0639
@<TRIPOS>BOND
     1     1     2    2
     2     2     3   am
     3     3     4    1
     4     4     5    1
     5     5     6    2
     6     5     7   am
     7     7     8    1
     8     8     9    1
     9     9    10    1
    10    10    11    1
    11    11    12    1
    12    12    13    1
    13    13    14    1
    14    14    15   ar
    15    15    16   ar
    16    16    17   ar
    17    17    18    1
    18    18    19   ar
    19    19    20   ar
    20    20    21   ar
    21    21    22   ar
    22    22    23   ar
    23    17    24   ar
    24     2    25    1
    25    25    26   ar
    26    26    27   ar
    27    27    28   ar
    28    28    29   ar
    29    29    30   ar
    30    30    31   ar
    31    31    32   ar
    32    32    33   ar
    33    33    34   ar
    34    12     7    1
    35    24    14   ar
    36    34    25   ar
    37    23    18   ar
    38    33    28   ar
    39     3    35    1
    40     4    36    1
    41     4    37    1
    42     8    38    1
    43     8    39    1
    44     9    40    1
    45     9    41    1
    46    10    42    1
    47    10    43    1
    48    11    44    1
    49    11    45    1
    50    12    46    1
    51    13    47    1
    52    13    48    1
    53    16    49    1
    54    19    50    1
    55    20    51    1
    56    21    52    1
    57    22    53    1
    58    23    54    1
    59    26    55    1
    60    27    56    1
    61    29    57    1
    62    30    58    1
    63    31    59    1
    64    32    60    1
