
     RDKit          3D

 69 74  0  0  0  0  0  0  0  0999 V2000
  140.9550   82.5850  221.4980 O   0  0  0  0  0  0  0  0  0  0  0  0
  141.1760   81.4680  222.2920 C   0  0  0  0  0  0  0  0  0  0  0  0
  142.0720   81.6090  223.3500 C   0  0  0  0  0  0  0  0  0  0  0  0
  142.3230   80.5280  224.1670 C   0  0  0  0  0  0  0  0  0  0  0  0
  141.7170   79.3010  223.9750 C   0  0  0  0  0  0  0  0  0  0  0  0
  140.8380   79.2050  222.9160 C   0  0  0  0  0  0  0  0  0  0  0  0
  140.1730   77.9290  222.6720 C   0  0  0  0  0  0  0  0  0  0  0  0
  138.8530   77.7870  222.9130 N   0  0  0  0  0  0  0  0  0  0  0  0
  138.2120   76.6230  222.6980 C   0  0  0  0  0  0  0  0  0  0  0  0
  136.8420   76.4160  222.9300 N   0  0  0  0  0  0  0  0  0  0  0  0
  135.9160   77.4920  223.2180 C   0  0  0  0  0  0  0  0  0  0  0  0
  134.7010   76.9950  223.9730 C   0  0  0  0  0  0  0  0  0  0  0  0
  135.0540   75.8870  224.9310 C   0  0  0  0  0  0  0  0  0  0  0  0
  133.8480   75.4290  225.5690 N   0  0  0  0  0  0  0  0  0  0  0  0
  133.5880   76.0850  226.8370 C   0  0  0  0  0  0  0  0  0  0  0  0
  132.1300   75.7350  227.1630 C   0  0  0  0  0  0  0  0  0  0  0  0
  132.0110   74.2400  227.3240 C   0  0  0  0  0  0  0  0  0  0  0  0
  132.5870   73.4930  226.1560 C   0  0  0  0  0  0  0  0  0  0  0  0
  133.9760   74.0180  225.8800 C   0  0  0  0  0  0  0  0  0  0  0  0
  135.8110   74.7580  224.2970 C   0  0  0  0  0  0  0  0  0  0  0  0
  136.2750   75.0680  222.8890 C   0  0  0  0  0  0  0  0  0  0  0  0
  138.9360   75.5830  222.2280 N   0  0  0  0  0  0  0  0  0  0  0  0
  140.2520   75.6690  221.9710 C   0  0  0  0  0  0  0  0  0  0  0  0
  140.9740   74.5500  221.4760 N   0  0  0  0  0  0  0  0  0  0  0  0
  140.4620   73.2290  221.7840 C   0  0  0  0  0  0  0  0  0  0  0  0
  140.7650   72.3430  220.5940 C   0  0  0  0  0  0  0  0  0  0  0  0
  142.2430   72.3190  220.4310 C   0  0  0  0  0  0  0  0  0  0  0  0
  142.9530   71.1440  220.2270 C   0  0  0  0  0  0  0  0  0  0  0  0
  144.3240   71.2110  220.0870 C   0  0  0  0  0  0  0  0  0  0  0  0
  145.0140   72.4150  220.1420 C   0  0  0  0  0  0  0  0  0  0  0  0
  144.3120   73.5800  220.3440 C   0  0  0  0  0  0  0  0  0  0  0  0
  142.9270   73.5150  220.4870 C   0  0  0  0  0  0  0  0  0  0  0  0
  142.1650   74.7670  220.7040 C   0  0  0  0  0  0  0  0  0  0  0  0
  140.8400   76.8590  222.2040 N   0  0  0  0  0  0  0  0  0  0  0  0
  140.5530   80.2590  222.0700 C   0  0  0  0  0  0  0  0  0  0  0  0
  140.0350   82.9850  221.3330 H   0  0  0  0  0  0  0  0  0  0  0  0
  142.5729   82.5715  223.5308 H   0  0  0  0  0  0  0  0  0  0  0  0
  143.0304   80.6459  225.0011 H   0  0  0  0  0  0  0  0  0  0  0  0
  141.9249   78.4444  224.6331 H   0  0  0  0  0  0  0  0  0  0  0  0
  136.4289   78.2509  223.8271 H   0  0  0  0  0  0  0  0  0  0  0  0
  135.5765   77.9186  222.2626 H   0  0  0  0  0  0  0  0  0  0  0  0
  134.2671   77.8317  224.5402 H   0  0  0  0  0  0  0  0  0  0  0  0
  133.9814   76.5990  223.2414 H   0  0  0  0  0  0  0  0  0  0  0  0
  135.7463   76.2963  225.6815 H   0  0  0  0  0  0  0  0  0  0  0  0
  134.2627   75.7029  227.6173 H   0  0  0  0  0  0  0  0  0  0  0  0
  133.7546   77.1711  226.7863 H   0  0  0  0  0  0  0  0  0  0  0  0
  131.8310   76.2321  228.0976 H   0  0  0  0  0  0  0  0  0  0  0  0
  131.4738   76.0757  226.3486 H   0  0  0  0  0  0  0  0  0  0  0  0
  132.5475   73.9387  228.2358 H   0  0  0  0  0  0  0  0  0  0  0  0
  130.9410   73.9926  227.3868 H   0  0  0  0  0  0  0  0  0  0  0  0
  132.6375   72.4198  226.3920 H   0  0  0  0  0  0  0  0  0  0  0  0
  131.9505   73.6357  225.2703 H   0  0  0  0  0  0  0  0  0  0  0  0
  134.6126   73.8839  226.7670 H   0  0  0  0  0  0  0  0  0  0  0  0
  134.4395   73.4745  225.0434 H   0  0  0  0  0  0  0  0  0  0  0  0
  136.6936   74.5378  224.9155 H   0  0  0  0  0  0  0  0  0  0  0  0
  135.1262   73.8995  224.2342 H   0  0  0  0  0  0  0  0  0  0  0  0
  137.0391   74.3431  222.5717 H   0  0  0  0  0  0  0  0  0  0  0  0
  135.4434   75.0061  222.1717 H   0  0  0  0  0  0  0  0  0  0  0  0
  140.9560   72.8336  222.6838 H   0  0  0  0  0  0  0  0  0  0  0  0
  139.3800   73.2651  221.9787 H   0  0  0  0  0  0  0  0  0  0  0  0
  140.3890   71.3254  220.7759 H   0  0  0  0  0  0  0  0  0  0  0  0
  140.2774   72.7272  219.6859 H   0  0  0  0  0  0  0  0  0  0  0  0
  142.4319   70.1765  220.1778 H   0  0  0  0  0  0  0  0  0  0  0  0
  144.8887   70.2807  219.9267 H   0  0  0  0  0  0  0  0  0  0  0  0
  146.1076   72.4364  220.0255 H   0  0  0  0  0  0  0  0  0  0  0  0
  144.8345   74.5468  220.3919 H   0  0  0  0  0  0  0  0  0  0  0  0
  142.8066   75.4844  221.2366 H   0  0  0  0  0  0  0  0  0  0  0  0
  141.8635   75.1538  219.7194 H   0  0  0  0  0  0  0  0  0  0  0  0
  139.8445   80.1361  221.2376 H   0  0  0  0  0  0  0  0  0  0  0  0
  1  2  1  0
  2  3  2  0
  3  4  1  0
  4  5  2  0
  5  6  1  0
  6  7  1  0
  7  8  2  0
  8  9  1  0
  9 10  1  0
 10 11  1  0
 11 12  1  0
 12 13  1  0
 13 14  1  0
 14 15  1  0
 15 16  1  0
 16 17  1  0
 17 18  1  0
 18 19  1  0
 13 20  1  0
 20 21  1  0
  9 22  2  0
 22 23  1  0
 23 24  1  0
 24 25  1  0
 25 26  1  0
 26 27  1  0
 27 28  2  0
 28 29  1  0
 29 30  2  0
 30 31  1  0
 31 32  2  0
 32 33  1  0
 23 34  2  0
  6 35  2  0
 35  2  1  0
 34  7  1  0
 21 10  1  0
 33 24  1  0
 19 14  1  0
 32 27  1  0
  1 36  1  0
  3 37  1  0
  4 38  1  0
  5 39  1  0
 11 40  1  0
 11 41  1  0
 12 42  1  0
 12 43  1  0
 13 44  1  0
 15 45  1  0
 15 46  1  0
 16 47  1  0
 16 48  1  0
 17 49  1  0
 17 50  1  0
 18 51  1  0
 18 52  1  0
 19 53  1  0
 19 54  1  0
 20 55  1  0
 20 56  1  0
 21 57  1  0
 21 58  1  0
 25 59  1  0
 25 60  1  0
 26 61  1  0
 26 62  1  0
 28 63  1  0
 29 64  1  0
 30 65  1  0
 31 66  1  0
 33 67  1  0
 33 68  1  0
 35 69  1  0
M  END
