@<TRIPOS>MOLECULE
*****
 68 73 0 0 0
SMALL
GASTEIGER

@<TRIPOS>ATOM
      1 O         144.9060   70.3200  219.4670 O.2     1  UNL1       -0.2741
      2 C         145.0810   71.5550  219.6070 C.2     1  UNL1        0.2305
      3 C         144.1620   72.5740  219.0080 C.3     1  UNL1        0.0912
      4 N         143.9940   73.6030  220.0150 N.pl3   1  UNL1       -0.2892
      5 C         142.7100   73.9320  220.5290 C.ar    1  UNL1        0.2241
      6 N         141.8080   73.0020  220.8340 N.ar    1  UNL1       -0.1807
      7 C         140.5870   73.2760  221.3200 C.ar    1  UNL1        0.2237
      8 N         139.6330   72.2720  221.6410 N.pl3   1  UNL1       -0.2971
      9 C         138.4130   72.6030  222.3520 C.3     1  UNL1        0.0277
     10 C         137.8140   71.2480  222.7520 C.3     1  UNL1        0.0151
     11 N         138.8770   70.5330  223.4010 N.3     1  UNL1       -0.2952
     12 C         138.4740   69.6800  224.4660 C.3     1  UNL1        0.0241
     13 C         139.3220   69.7140  225.6690 C.ar    1  UNL1       -0.0334
     14 C         140.0130   70.8500  226.0860 C.ar    1  UNL1       -0.0573
     15 C         140.7930   70.7900  227.2390 C.ar    1  UNL1       -0.0615
     16 C         140.9210   69.6650  227.9910 C.ar    1  UNL1       -0.0617
     17 C         140.2390   68.5330  227.5840 C.ar    1  UNL1       -0.0615
     18 C         139.4560   68.5760  226.4380 C.ar    1  UNL1       -0.0573
     19 C         139.8330   69.9760  222.4790 C.3     1  UNL1        0.0151
     20 C         139.8510   70.9080  221.2720 C.3     1  UNL1        0.0277
     21 N         140.2810   74.5720  221.5010 N.ar    1  UNL1       -0.1807
     22 C         141.1680   75.5600  221.2050 C.ar    1  UNL1        0.2240
     23 N         140.7720   76.9080  221.4240 N.pl3   1  UNL1       -0.2948
     24 C         140.3830   77.7010  220.2920 C.3     1  UNL1        0.0192
     25 C         141.4470   78.7830  220.1370 C.3     1  UNL1       -0.0115
     26 C         141.5840   79.4670  221.4480 C.ar    1  UNL1       -0.0412
     27 C         142.0560   80.7730  221.4370 C.ar    1  UNL1       -0.0582
     28 C         142.2070   81.4640  222.6210 C.ar    1  UNL1       -0.0615
     29 C         141.8860   80.8500  223.8150 C.ar    1  UNL1       -0.0614
     30 C         141.4130   79.5480  223.8490 C.ar    1  UNL1       -0.0568
     31 C         141.2690   78.8710  222.6490 C.ar    1  UNL1       -0.0269
     32 C         140.7570   77.4730  222.7380 C.3     1  UNL1        0.0402
     33 N         142.3800   75.2180  220.7190 N.ar    1  UNL1       -0.1807
     34 C         145.1740   74.2950  220.4930 C.3     1  UNL1        0.0310
     35 C         146.1550   73.3040  221.0470 C.3     1  UNL1        0.0275
     36 N         146.1760   72.0480  220.3550 N.am    1  UNL1       -0.3125
     37 H         144.6064   73.0004  218.0966 H       1  UNL1        0.0560
     38 H         143.1975   72.1282  218.7233 H       1  UNL1        0.0560
     39 H         138.6358   73.2069  223.2440 H       1  UNL1        0.0477
     40 H         137.7217   73.1978  221.7369 H       1  UNL1        0.0477
     41 H         136.9693   71.3902  223.4422 H       1  UNL1        0.0442
     42 H         137.4277   70.7001  221.8799 H       1  UNL1        0.0442
     43 H         137.4550   69.9689  224.7629 H       1  UNL1        0.0476
     44 H         138.5517   68.6551  224.0741 H       1  UNL1        0.0476
     45 H         139.9434   71.7849  225.5106 H       1  UNL1        0.0621
     46 H         141.3306   71.6959  227.5557 H       1  UNL1        0.0618
     47 H         141.5475   69.6553  228.8951 H       1  UNL1        0.0618
     48 H         140.3164   67.6025  228.1655 H       1  UNL1        0.0618
     49 H         138.9206   67.6656  226.1306 H       1  UNL1        0.0621
     50 H         140.8296   69.9327  222.9425 H       1  UNL1        0.0442
     51 H         139.5611   68.9501  222.1899 H       1  UNL1        0.0442
     52 H         140.8296   70.8270  220.7762 H       1  UNL1        0.0477
     53 H         139.0355   70.6053  220.5988 H       1  UNL1        0.0477
     54 H         140.3405   77.0770  219.3871 H       1  UNL1        0.0468
     55 H         139.3855   78.1411  220.4378 H       1  UNL1        0.0468
     56 H         142.4061   78.3278  219.8491 H       1  UNL1        0.0328
     57 H         141.1583   79.5003  219.3546 H       1  UNL1        0.0328
     58 H         142.3098   81.2571  220.4824 H       1  UNL1        0.0620
     59 H         142.5811   82.4984  222.6140 H       1  UNL1        0.0618
     60 H         142.0080   81.4047  224.7570 H       1  UNL1        0.0618
     61 H         141.1585   79.0647  224.8038 H       1  UNL1        0.0621
     62 H         141.4017   76.8819  223.4051 H       1  UNL1        0.0514
     63 H         139.7342   77.4676  223.1427 H       1  UNL1        0.0514
     64 H         145.6389   74.8424  219.6598 H       1  UNL1        0.0480
     65 H         144.8848   75.0014  221.2851 H       1  UNL1        0.0480
     66 H         147.1608   73.7458  220.9906 H       1  UNL1        0.0477
     67 H         145.8404   73.0910  222.0793 H       1  UNL1        0.0477
     68 H         147.0690   71.4830  220.4240 H       1  UNL1        0.1488
@<TRIPOS>BOND
     1     1     2    2
     2     2     3    1
     3     3     4    1
     4     4     5    1
     5     5     6   ar
     6     6     7   ar
     7     7     8    1
     8     8     9    1
     9     9    10    1
    10    10    11    1
    11    11    12    1
    12    12    13    1
    13    13    14   ar
    14    14    15   ar
    15    15    16   ar
    16    16    17   ar
    17    17    18   ar
    18    11    19    1
    19    19    20    1
    20     7    21   ar
    21    21    22   ar
    22    22    23    1
    23    23    24    1
    24    24    25    1
    25    25    26    1
    26    26    27   ar
    27    27    28   ar
    28    28    29   ar
    29    29    30   ar
    30    30    31   ar
    31    31    32    1
    32    22    33   ar
    33     4    34    1
    34    34    35    1
    35    35    36    1
    36    36     2   am
    37    33     5   ar
    38    20     8    1
    39    32    23    1
    40    18    13   ar
    41    31    26   ar
    42     3    37    1
    43     3    38    1
    44     9    39    1
    45     9    40    1
    46    10    41    1
    47    10    42    1
    48    12    43    1
    49    12    44    1
    50    14    45    1
    51    15    46    1
    52    16    47    1
    53    17    48    1
    54    18    49    1
    55    19    50    1
    56    19    51    1
    57    20    52    1
    58    20    53    1
    59    24    54    1
    60    24    55    1
    61    25    56    1
    62    25    57    1
    63    27    58    1
    64    28    59    1
    65    29    60    1
    66    30    61    1
    67    32    62    1
    68    32    63    1
    69    34    64    1
    70    34    65    1
    71    35    66    1
    72    35    67    1
    73    36    68    1
