
     RDKit          3D

 64 68  0  0  1  0  0  0  0  0999 V2000
  140.0070   70.8070  221.1160 O   0  0  0  0  0  0  0  0  0  0  0  0
  139.8430   71.3660  222.2420 C   0  0  0  0  0  0  0  0  0  0  0  0
  139.7100   72.7750  222.3360 N   0  0  0  0  0  0  0  0  0  0  0  0
  139.7570   73.6160  221.1610 C   0  0  0  0  0  0  0  0  0  0  0  0
  139.8520   75.0480  221.5630 C   0  0  0  0  0  0  0  0  0  0  0  0
  139.4350   75.3470  222.7120 O   0  0  0  0  0  0  0  0  0  0  0  0
  140.3970   75.9980  220.6550 N   0  0  0  0  0  0  0  0  0  0  0  0
  139.9310   76.2380  219.2810 C   0  0  0  0  0  0  0  0  0  0  0  0
  141.1050   76.7410  218.5150 C   0  0  2  0  0  0  0  0  0  0  0  0
  141.7090   75.6900  217.7920 O   0  0  0  0  0  0  0  0  0  0  0  0
  142.0930   77.2340  219.5470 C   0  0  0  0  0  0  0  0  0  0  0  0
  141.4880   76.9050  220.8710 C   0  0  1  0  0  0  0  0  0  0  0  0
  141.0600   78.1890  221.5310 C   0  0  1  0  0  0  0  0  0  0  0  0
  141.4910   78.3010  222.9700 C   0  0  0  0  0  0  0  0  0  0  0  0
  140.6520   79.3800  223.5910 C   0  0  0  0  0  0  0  0  0  0  0  0
  140.6050   80.6630  222.8210 C   0  0  2  0  0  0  0  0  0  0  0  0
  139.2660   81.2600  223.1050 C   0  0  0  0  0  0  0  0  0  0  0  0
  138.7010   82.2170  222.2670 C   0  0  0  0  0  0  0  0  0  0  0  0
  137.4520   82.7710  222.5370 C   0  0  0  0  0  0  0  0  0  0  0  0
  136.7430   82.3720  223.6580 C   0  0  0  0  0  0  0  0  0  0  0  0
  137.3080   81.4520  224.4460 N   0  0  0  0  0  0  0  0  0  0  0  0
  138.5120   80.9040  224.2050 C   0  0  0  0  0  0  0  0  0  0  0  0
  140.7500   80.5700  221.3540 C   0  0  0  0  0  0  0  0  0  0  0  0
  141.5760   79.4290  220.8320 C   0  0  0  0  0  0  0  0  0  0  0  0
  139.7910   70.5440  223.4540 C   0  0  0  0  0  0  0  0  0  0  0  0
  139.1800   69.3080  223.4210 C   0  0  0  0  0  0  0  0  0  0  0  0
  139.1630   68.5780  224.6000 C   0  0  0  0  0  0  0  0  0  0  0  0
  139.7270   69.0470  225.7680 C   0  0  0  0  0  0  0  0  0  0  0  0
  139.7180   68.3290  226.9500 C   0  0  0  0  0  0  0  0  0  0  0  0
  140.2930   68.8280  228.1030 C   0  0  0  0  0  0  0  0  0  0  0  0
  140.2960   68.1450  229.2760 F   0  0  0  0  0  0  0  0  0  0  0  0
  140.8980   70.0820  228.0870 C   0  0  0  0  0  0  0  0  0  0  0  0
  140.9070   70.7900  226.9160 C   0  0  0  0  0  0  0  0  0  0  0  0
  140.3320   70.3010  225.7450 C   0  0  0  0  0  0  0  0  0  0  0  0
  140.3410   70.9990  224.5950 N   0  0  0  0  0  0  0  0  0  0  0  0
  139.5760   73.1670  223.3060 H   0  0  0  0  0  0  0  0  0  0  0  0
  140.6360   73.3483  220.5562 H   0  0  0  0  0  0  0  0  0  0  0  0
  138.8398   73.4661  220.5725 H   0  0  0  0  0  0  0  0  0  0  0  0
  139.5608   75.3022  218.8369 H   0  0  0  0  0  0  0  0  0  0  0  0
  139.1052   76.9645  219.2635 H   0  0  0  0  0  0  0  0  0  0  0  0
  140.8010   77.5245  217.8053 H   0  0  0  0  0  0  0  0  0  0  0  0
  142.6910   75.7930  217.8720 H   0  0  0  0  0  0  0  0  0  0  0  0
  143.0595   76.7222  219.4286 H   0  0  0  0  0  0  0  0  0  0  0  0
  142.2853   78.3121  219.4440 H   0  0  0  0  0  0  0  0  0  0  0  0
  142.2046   76.4103  221.5431 H   0  0  0  0  0  0  0  0  0  0  0  0
  139.9631   78.1401  221.4644 H   0  0  0  0  0  0  0  0  0  0  0  0
  142.5562   78.5698  223.0265 H   0  0  0  0  0  0  0  0  0  0  0  0
  141.3583   77.3449  223.4975 H   0  0  0  0  0  0  0  0  0  0  0  0
  141.0577   79.5958  224.5904 H   0  0  0  0  0  0  0  0  0  0  0  0
  139.6216   78.9955  223.6134 H   0  0  0  0  0  0  0  0  0  0  0  0
  141.4742   81.2525  223.1481 H   0  0  0  0  0  0  0  0  0  0  0  0
  139.2525   82.5426  221.3727 H   0  0  0  0  0  0  0  0  0  0  0  0
  137.0280   83.5264  221.8591 H   0  0  0  0  0  0  0  0  0  0  0  0
  135.7546   82.7953  223.8904 H   0  0  0  0  0  0  0  0  0  0  0  0
  138.9068   80.1515  224.9035 H   0  0  0  0  0  0  0  0  0  0  0  0
  141.2127   81.5047  221.0042 H   0  0  0  0  0  0  0  0  0  0  0  0
  139.7339   80.3916  220.9723 H   0  0  0  0  0  0  0  0  0  0  0  0
  142.6388   79.5868  221.0678 H   0  0  0  0  0  0  0  0  0  0  0  0
  141.4954   79.3392  219.7386 H   0  0  0  0  0  0  0  0  0  0  0  0
  138.7254   68.9177  222.4985 H   0  0  0  0  0  0  0  0  0  0  0  0
  138.6821   67.5887  224.6038 H   0  0  0  0  0  0  0  0  0  0  0  0
  139.2420   67.3376  226.9727 H   0  0  0  0  0  0  0  0  0  0  0  0
  141.3590   70.4948  228.9965 H   0  0  0  0  0  0  0  0  0  0  0  0
  141.3852   71.7804  226.8986 H   0  0  0  0  0  0  0  0  0  0  0  0
  1  2  2  0
  2  3  1  0
  3  4  1  0
  4  5  1  0
  5  6  2  0
  5  7  1  0
  7  8  1  0
  8  9  1  0
  9 10  1  0
  9 11  1  0
 11 12  1  0
 12 13  1  0
 13 14  1  0
 14 15  1  0
 15 16  1  0
 16 17  1  0
 17 18  2  0
 18 19  1  0
 19 20  2  0
 20 21  1  0
 21 22  2  0
 16 23  1  0
 23 24  1  0
  2 25  1  0
 25 26  2  0
 26 27  1  0
 27 28  2  0
 28 29  1  0
 29 30  2  0
 30 31  1  0
 30 32  1  0
 32 33  2  0
 33 34  1  0
 34 35  2  0
 12  7  1  0
 24 13  1  0
 35 25  1  0
 22 17  1  0
 34 28  1  0
  3 36  1  0
  4 37  1  0
  4 38  1  0
  8 39  1  0
  8 40  1  0
  9 41  1  6
 10 42  1  0
 11 43  1  0
 11 44  1  0
 12 45  1  1
 13 46  1  1
 14 47  1  0
 14 48  1  0
 15 49  1  0
 15 50  1  0
 16 51  1  1
 18 52  1  0
 19 53  1  0
 20 54  1  0
 22 55  1  0
 23 56  1  0
 23 57  1  0
 24 58  1  0
 24 59  1  0
 26 60  1  0
 27 61  1  0
 29 62  1  0
 32 63  1  0
 33 64  1  0
M  END
