
     RDKit          3D

 61 65  0  0  0  0  0  0  0  0999 V2000
  137.1720   81.2990  223.3760 C   0  0  0  0  0  0  0  0  0  0  0  0
  137.6640   79.9640  223.5010 N   0  0  0  0  0  0  0  0  0  0  0  0
  138.9110   79.8500  224.2340 C   0  0  0  0  0  0  0  0  0  0  0  0
  139.9640   80.7300  223.6370 C   0  0  0  0  0  0  0  0  0  0  0  0
  140.0390   80.6100  222.1650 N   0  0  0  0  0  0  0  0  0  0  0  0
  141.3040   80.9390  221.6180 C   0  0  0  0  0  0  0  0  0  0  0  0
  142.1950   81.2870  222.4690 O   0  0  0  0  0  0  0  0  0  0  0  0
  141.6990   80.9250  220.2380 C   0  0  0  0  0  0  0  0  0  0  0  0
  141.8000   82.0320  219.4260 C   0  0  0  0  0  0  0  0  0  0  0  0
  142.1660   81.9110  218.1040 C   0  0  0  0  0  0  0  0  0  0  0  0
  142.4360   80.6660  217.5740 C   0  0  0  0  0  0  0  0  0  0  0  0
  142.3480   79.5360  218.3470 C   0  0  0  0  0  0  0  0  0  0  0  0
  142.6290   78.2130  217.7520 C   0  0  0  0  0  0  0  0  0  0  0  0
  142.8340   77.3200  218.6410 N   0  0  0  0  0  0  0  0  0  0  0  0
  143.1210   75.9350  218.4900 C   0  0  0  0  0  0  0  0  0  0  0  0
  143.4740   75.3790  219.7100 C   0  0  0  0  0  0  0  0  0  0  0  0
  143.7960   74.0340  219.7640 C   0  0  0  0  0  0  0  0  0  0  0  0
  143.7610   73.2710  218.6180 C   0  0  0  0  0  0  0  0  0  0  0  0
  144.1140   71.8780  218.7680 C   0  0  0  0  0  0  0  0  0  0  0  0
  144.3890   70.7070  218.9010 C   0  0  0  0  0  0  0  0  0  0  0  0
  144.7370   69.3250  219.0700 C   0  0  0  0  0  0  0  0  0  0  0  0
  146.0540   68.9550  219.3050 C   0  0  0  0  0  0  0  0  0  0  0  0
  146.3960   67.6130  219.4690 C   0  0  0  0  0  0  0  0  0  0  0  0
  145.4200   66.6190  219.4000 C   0  0  0  0  0  0  0  0  0  0  0  0
  144.1070   66.9910  219.1670 C   0  0  0  0  0  0  0  0  0  0  0  0
  143.7960   68.3180  219.0080 C   0  0  0  0  0  0  0  0  0  0  0  0
  143.4130   73.7890  217.3850 C   0  0  0  0  0  0  0  0  0  0  0  0
  143.0960   75.1400  217.3630 C   0  0  0  0  0  0  0  0  0  0  0  0
  142.7530   75.5850  216.0590 N   0  0  0  0  0  0  0  0  0  0  0  0
  142.6700   76.9230  215.6200 C   0  0  0  0  0  0  0  0  0  0  0  0
  142.6520   77.0210  214.3510 O   0  0  0  0  0  0  0  0  0  0  0  0
  142.5990   78.2410  216.2800 C   0  0  0  0  0  0  0  0  0  0  0  0
  141.9810   79.6930  219.6630 C   0  0  0  0  0  0  0  0  0  0  0  0
  138.8990   80.1930  221.3780 C   0  0  0  0  0  0  0  0  0  0  0  0
  137.9130   79.4000  222.1960 C   0  0  0  0  0  0  0  0  0  0  0  0
  137.0143   81.7269  224.3770 H   0  0  0  0  0  0  0  0  0  0  0  0
  137.9041   81.9097  222.8274 H   0  0  0  0  0  0  0  0  0  0  0  0
  136.2186   81.2886  222.8274 H   0  0  0  0  0  0  0  0  0  0  0  0
  138.7428   80.1481  225.2794 H   0  0  0  0  0  0  0  0  0  0  0  0
  139.2547   78.8063  224.1825 H   0  0  0  0  0  0  0  0  0  0  0  0
  139.7368   81.7751  223.8940 H   0  0  0  0  0  0  0  0  0  0  0  0
  140.9344   80.4128  224.0467 H   0  0  0  0  0  0  0  0  0  0  0  0
  141.5851   83.0284  219.8395 H   0  0  0  0  0  0  0  0  0  0  0  0
  142.2431   82.8069  217.4705 H   0  0  0  0  0  0  0  0  0  0  0  0
  142.7260   80.5782  216.5165 H   0  0  0  0  0  0  0  0  0  0  0  0
  143.4978   75.9966  220.6200 H   0  0  0  0  0  0  0  0  0  0  0  0
  144.0799   73.5745  220.7223 H   0  0  0  0  0  0  0  0  0  0  0  0
  146.8351   69.7274  219.3624 H   0  0  0  0  0  0  0  0  0  0  0  0
  147.4443   67.3361  219.6543 H   0  0  0  0  0  0  0  0  0  0  0  0
  145.6883   65.5600  219.5282 H   0  0  0  0  0  0  0  0  0  0  0  0
  143.3175   66.2271  219.1097 H   0  0  0  0  0  0  0  0  0  0  0  0
  142.7469   68.5918  218.8223 H   0  0  0  0  0  0  0  0  0  0  0  0
  143.3887   73.1687  216.4769 H   0  0  0  0  0  0  0  0  0  0  0  0
  142.5430   74.8030  215.3700 H   0  0  0  0  0  0  0  0  0  0  0  0
  143.4545   78.8400  215.9345 H   0  0  0  0  0  0  0  0  0  0  0  0
  141.6221   78.6653  216.0049 H   0  0  0  0  0  0  0  0  0  0  0  0
  141.9069   78.7948  220.2937 H   0  0  0  0  0  0  0  0  0  0  0  0
  138.3948   81.0863  220.9808 H   0  0  0  0  0  0  0  0  0  0  0  0
  139.2632   79.5491  220.5639 H   0  0  0  0  0  0  0  0  0  0  0  0
  136.9604   79.3568  221.6476 H   0  0  0  0  0  0  0  0  0  0  0  0
  138.3495   78.4024  222.3520 H   0  0  0  0  0  0  0  0  0  0  0  0
  1  2  1  0
  2  3  1  0
  3  4  1  0
  4  5  1  0
  5  6  1  0
  6  7  2  0
  6  8  1  0
  8  9  2  0
  9 10  1  0
 10 11  2  0
 11 12  1  0
 12 13  1  0
 13 14  2  0
 14 15  1  0
 15 16  2  0
 16 17  1  0
 17 18  2  0
 18 19  1  0
 19 20  3  0
 20 21  1  0
 21 22  2  0
 22 23  1  0
 23 24  2  0
 24 25  1  0
 25 26  2  0
 18 27  1  0
 27 28  2  0
 28 29  1  0
 29 30  1  0
 30 31  2  0
 30 32  1  0
 12 33  2  0
  5 34  1  0
 34 35  1  0
 35  2  1  0
 33  8  1  0
 32 13  1  0
 28 15  1  0
 26 21  1  0
  1 36  1  0
  1 37  1  0
  1 38  1  0
  3 39  1  0
  3 40  1  0
  4 41  1  0
  4 42  1  0
  9 43  1  0
 10 44  1  0
 11 45  1  0
 16 46  1  0
 17 47  1  0
 22 48  1  0
 23 49  1  0
 24 50  1  0
 25 51  1  0
 26 52  1  0
 27 53  1  0
 29 54  1  0
 32 55  1  0
 32 56  1  0
 33 57  1  0
 34 58  1  0
 34 59  1  0
 35 60  1  0
 35 61  1  0
M  END
