@<TRIPOS>MOLECULE
*****
 58 62 0 0 0
SMALL
GASTEIGER

@<TRIPOS>ATOM
      1 O         137.8800   69.8450  221.8530 O.2     1  UNL1       -0.2685
      2 C         138.3060   70.6640  222.6930 C.2     1  UNL1        0.2628
      3 N         138.2180   72.0480  222.4160 N.am    1  UNL1       -0.3015
      4 C         137.6700   72.6270  221.2340 C.3     1  UNL1        0.0887
      5 C         138.6570   72.8260  220.1500 C.2     1  UNL1        0.2333
      6 O         138.7850   72.0480  219.1660 O.2     1  UNL1       -0.2739
      7 N         139.5100   73.9670  220.2340 N.am    1  UNL1       -0.2916
      8 C         139.6230   74.8450  219.0900 C.3     1  UNL1        0.0154
      9 C         140.9660   75.4750  218.9400 C.3     1  UNL1       -0.0371
     10 C         142.0630   75.0030  219.8050 C.3     1  UNL1       -0.0496
     11 C         141.7190   74.2150  221.0210 C.3     1  UNL1       -0.0286
     12 C         140.2660   74.2840  221.4090 C.3     1  UNL1        0.0697
     13 C         140.0070   75.6360  221.9310 C.ar    1  UNL1        0.0798
     14 C         138.7900   76.1920  222.2760 C.ar    1  UNL1        0.0266
     15 N         138.9710   77.4570  222.7150 N.ar    1  UNL1       -0.3441
     16 C         140.2920   77.6990  222.6480 C.ar    1  UNL1        0.1385
     17 C         140.9190   78.9460  223.0280 C.ar    1  UNL1        0.0173
     18 C         140.2290   80.1370  223.1080 C.ar    1  UNL1       -0.0511
     19 C         140.8220   81.3270  223.4700 C.ar    1  UNL1       -0.0611
     20 C         142.1850   81.3680  223.7750 C.ar    1  UNL1       -0.0617
     21 C         142.8770   80.1850  223.6970 C.ar    1  UNL1       -0.0611
     22 C         142.2770   78.9950  223.3340 C.ar    1  UNL1       -0.0511
     23 N         140.9100   76.6210  222.1830 N.ar    1  UNL1       -0.2308
     24 C         138.9060   70.2360  223.9750 C.ar    1  UNL1        0.1260
     25 C         138.8690   68.9450  224.4070 C.ar    1  UNL1       -0.0306
     26 C         139.4250   68.5240  225.6060 C.ar    1  UNL1       -0.0504
     27 C         140.0460   69.4790  226.3940 C.ar    1  UNL1        0.0004
     28 C         140.6360   69.1930  227.6040 C.ar    1  UNL1       -0.0526
     29 C         141.2520   70.1800  228.3720 C.ar    1  UNL1       -0.0611
     30 C         141.2840   71.4930  227.9250 C.ar    1  UNL1       -0.0597
     31 C         140.6910   71.7840  226.7060 C.ar    1  UNL1       -0.0357
     32 C         140.0860   70.7890  225.9630 C.ar    1  UNL1        0.0718
     33 N         139.5270   71.1470  224.7800 N.ar    1  UNL1       -0.2421
     34 H         138.5890   72.7200  223.1510 H       1  UNL1        0.1496
     35 H         136.8747   71.9650  220.8608 H       1  UNL1        0.0558
     36 H         137.2953   73.6234  221.5111 H       1  UNL1        0.0558
     37 H         139.4120   74.2600  218.1827 H       1  UNL1        0.0465
     38 H         138.9031   75.6624  219.2436 H       1  UNL1        0.0465
     39 H         141.2835   75.3197  217.8983 H       1  UNL1        0.0280
     40 H         140.8102   76.5197  219.2471 H       1  UNL1        0.0280
     41 H         142.7182   74.3738  219.1846 H       1  UNL1        0.0266
     42 H         142.5115   75.9265  220.2000 H       1  UNL1        0.0266
     43 H         141.9768   73.1621  220.8344 H       1  UNL1        0.0287
     44 H         142.2901   74.6519  221.8535 H       1  UNL1        0.0287
     45 H         139.9806   73.5732  222.1985 H       1  UNL1        0.0566
     46 H         137.8186   75.6810  222.2040 H       1  UNL1        0.0826
     47 H         138.2390   78.1250  223.0440 H       1  UNL1        0.1668
     48 H         139.1547   80.1373  222.8718 H       1  UNL1        0.0625
     49 H         140.2209   82.2469  223.5190 H       1  UNL1        0.0618
     50 H         142.6812   82.3061  224.0646 H       1  UNL1        0.0618
     51 H         143.9514   80.1847  223.9328 H       1  UNL1        0.0618
     52 H         142.8786   78.0753  223.2860 H       1  UNL1        0.0625
     53 H         138.3722   68.1969  223.7718 H       1  UNL1        0.0641
     54 H         139.3746   67.4708  225.9194 H       1  UNL1        0.0625
     55 H         140.6211   68.1576  227.9752 H       1  UNL1        0.0624
     56 H         141.7140   69.9170  229.3350 H       1  UNL1        0.0618
     57 H         141.7665   72.2814  228.5213 H       1  UNL1        0.0618
     58 H         140.7024   72.8166  226.3271 H       1  UNL1        0.0639
@<TRIPOS>BOND
     1     1     2    2
     2     2     3   am
     3     3     4    1
     4     4     5    1
     5     5     6    2
     6     5     7   am
     7     7     8    1
     8     8     9    1
     9     9    10    1
    10    10    11    1
    11    11    12    1
    12    12    13    1
    13    13    14   ar
    14    14    15   ar
    15    15    16   ar
    16    16    17    1
    17    17    18   ar
    18    18    19   ar
    19    19    20   ar
    20    20    21   ar
    21    21    22   ar
    22    16    23   ar
    23     2    24    1
    24    24    25   ar
    25    25    26   ar
    26    26    27   ar
    27    27    28   ar
    28    28    29   ar
    29    29    30   ar
    30    30    31   ar
    31    31    32   ar
    32    32    33   ar
    33    12     7    1
    34    23    13   ar
    35    33    24   ar
    36    22    17   ar
    37    32    27   ar
    38     3    34    1
    39     4    35    1
    40     4    36    1
    41     8    37    1
    42     8    38    1
    43     9    39    1
    44     9    40    1
    45    10    41    1
    46    10    42    1
    47    11    43    1
    48    11    44    1
    49    12    45    1
    50    14    46    1
    51    15    47    1
    52    18    48    1
    53    19    49    1
    54    20    50    1
    55    21    51    1
    56    22    52    1
    57    25    53    1
    58    26    54    1
    59    28    55    1
    60    29    56    1
    61    30    57    1
    62    31    58    1
