@<TRIPOS>MOLECULE
*****
 80 86 0 0 0
SMALL
GASTEIGER

@<TRIPOS>ATOM
      1 N         140.5480   72.1890  228.2940 N.3     1  UNL1       -0.2035
      2 S         140.2130   70.5010  228.1450 S.O2    1  UNL1        0.0559
      3 O         139.0120   70.2150  229.0110 O.2     1  UNL1       -0.1533
      4 O         141.3550   69.7420  228.7150 O.2     1  UNL1       -0.1533
      5 C         139.8260   70.0360  226.5060 C.ar    1  UNL1        0.1050
      6 C         140.4980   70.6850  225.4750 C.ar    1  UNL1       -0.0351
      7 C         140.1920   70.3200  224.1690 C.ar    1  UNL1       -0.0567
      8 C         139.2600   69.3550  223.8630 C.ar    1  UNL1       -0.0460
      9 C         138.9680   69.0180  222.4190 C.3     1  UNL1       -0.0149
     10 C         137.7220   69.7770  222.0810 C.3     1  UNL1        0.0029
     11 N         137.7670   71.1680  222.0890 N.3     1  UNL1       -0.3013
     12 C         136.7470   71.9240  221.4690 C.3     1  UNL1       -0.0004
     13 C         137.3570   73.3150  221.2070 C.3     1  UNL1       -0.0293
     14 C         138.5160   73.2900  222.1840 C.3     1  UNL1        0.0330
     15 C         139.5420   74.2960  221.9470 C.ar    1  UNL1        0.1405
     16 N         139.5340   75.5630  222.3940 N.ar    1  UNL1       -0.1990
     17 C         140.5350   76.4280  222.1220 C.ar    1  UNL1        0.2227
     18 N         140.5320   77.7680  222.5930 N.pl3   1  UNL1       -0.2949
     19 C         141.5330   78.2890  223.5050 C.3     1  UNL1        0.0192
     20 C         142.3380   79.3100  222.7200 C.3     1  UNL1       -0.0115
     21 C         141.3760   80.3460  222.2530 C.ar    1  UNL1       -0.0412
     22 C         141.8450   81.6350  222.0830 C.ar    1  UNL1       -0.0582
     23 C         140.9750   82.6240  221.6470 C.ar    1  UNL1       -0.0615
     24 C         139.6390   82.3500  221.3740 C.ar    1  UNL1       -0.0614
     25 C         139.1930   81.0580  221.5490 C.ar    1  UNL1       -0.0568
     26 C         140.0510   80.0670  221.9840 C.ar    1  UNL1       -0.0269
     27 C         139.4960   78.6830  222.1540 C.3     1  UNL1        0.0402
     28 N         141.5740   75.9970  221.3730 N.ar    1  UNL1       -0.1808
     29 C         141.6320   74.7360  220.8990 C.ar    1  UNL1        0.2227
     30 N         142.7060   74.2490  220.1060 N.pl3   1  UNL1       -0.2949
     31 C         144.0040   74.9410  220.1050 C.3     1  UNL1        0.0192
     32 C         144.9780   73.9990  220.7860 C.3     1  UNL1       -0.0115
     33 C         144.9710   72.7270  220.0170 C.ar    1  UNL1       -0.0412
     34 C         146.1560   71.9850  220.0500 C.ar    1  UNL1       -0.0582
     35 C         146.1880   70.7850  219.3400 C.ar    1  UNL1       -0.0615
     36 C         145.0760   70.3570  218.6300 C.ar    1  UNL1       -0.0614
     37 C         143.9000   71.0920  218.5960 C.ar    1  UNL1       -0.0568
     38 C         143.8780   72.2810  219.3030 C.ar    1  UNL1       -0.0269
     39 C         142.6200   73.0730  219.2710 C.3     1  UNL1        0.0402
     40 N         140.6210   73.9230  221.1960 N.ar    1  UNL1       -0.1990
     41 C         139.0080   71.8460  221.9550 C.3     1  UNL1        0.0087
     42 C         138.5930   68.7120  224.8930 C.ar    1  UNL1       -0.0567
     43 C         138.8770   69.0520  226.2190 C.ar    1  UNL1       -0.0351
     44 H         140.4200   72.6660  227.3890 H       1  UNL1        0.1442
     45 H         140.0050   72.6230  229.0910 H       1  UNL1        0.1442
     46 H         141.2474   71.4620  225.6865 H       1  UNL1        0.0637
     47 H         140.7175   70.8243  223.3447 H       1  UNL1        0.0621
     48 H         139.7999   69.3357  221.7733 H       1  UNL1        0.0326
     49 H         138.8431   67.9357  222.2673 H       1  UNL1        0.0326
     50 H         137.4183   69.4681  221.0699 H       1  UNL1        0.0430
     51 H         137.0258   69.5263  222.8949 H       1  UNL1        0.0430
     52 H         136.4435   71.4541  220.5219 H       1  UNL1        0.0427
     53 H         135.8488   71.9878  222.1008 H       1  UNL1        0.0427
     54 H         137.7026   73.4188  220.1679 H       1  UNL1        0.0285
     55 H         136.6605   74.1560  221.3398 H       1  UNL1        0.0285
     56 H         138.2357   73.5377  223.2184 H       1  UNL1        0.0392
     57 H         141.0484   78.7687  224.3681 H       1  UNL1        0.0468
     58 H         142.1769   77.4854  223.8919 H       1  UNL1        0.0468
     59 H         143.1032   79.7665  223.3650 H       1  UNL1        0.0328
     60 H         142.8546   78.8384  221.8710 H       1  UNL1        0.0328
     61 H         142.8982   81.8745  222.2914 H       1  UNL1        0.0620
     62 H         141.3508   83.6492  221.5141 H       1  UNL1        0.0618
     63 H         138.9581   83.1418  221.0284 H       1  UNL1        0.0618
     64 H         138.1412   80.8130  221.3398 H       1  UNL1        0.0621
     65 H         138.6919   78.7056  222.9043 H       1  UNL1        0.0514
     66 H         139.1039   78.3368  221.1863 H       1  UNL1        0.0514
     67 H         144.3275   75.1459  219.0738 H       1  UNL1        0.0468
     68 H         143.9464   75.9081  220.6260 H       1  UNL1        0.0468
     69 H         145.9879   74.4350  220.7837 H       1  UNL1        0.0328
     70 H         144.6852   73.8243  221.8318 H       1  UNL1        0.0328
     71 H         147.0318   72.3354  220.6159 H       1  UNL1        0.0620
     72 H         147.1022   70.1733  219.3431 H       1  UNL1        0.0618
     73 H         145.1282   69.4071  218.0778 H       1  UNL1        0.0618
     74 H         143.0225   70.7443  218.0311 H       1  UNL1        0.0621
     75 H         142.4220   73.3854  218.2350 H       1  UNL1        0.0514
     76 H         141.8068   72.4394  219.6547 H       1  UNL1        0.0514
     77 H         139.4456   71.7125  220.9547 H       1  UNL1        0.0433
     78 H         139.8094   71.5057  222.6272 H       1  UNL1        0.0433
     79 H         137.8441   67.9382  224.6688 H       1  UNL1        0.0621
     80 H         138.3509   68.5425  227.0398 H       1  UNL1        0.0637
@<TRIPOS>BOND
     1     1     2    1
     2     2     3    2
     3     2     4    2
     4     2     5    1
     5     5     6   ar
     6     6     7   ar
     7     7     8   ar
     8     8     9    1
     9     9    10    1
    10    10    11    1
    11    11    12    1
    12    12    13    1
    13    13    14    1
    14    14    15    1
    15    15    16   ar
    16    16    17   ar
    17    17    18    1
    18    18    19    1
    19    19    20    1
    20    20    21    1
    21    21    22   ar
    22    22    23   ar
    23    23    24   ar
    24    24    25   ar
    25    25    26   ar
    26    26    27    1
    27    17    28   ar
    28    28    29   ar
    29    29    30    1
    30    30    31    1
    31    31    32    1
    32    32    33    1
    33    33    34   ar
    34    34    35   ar
    35    35    36   ar
    36    36    37   ar
    37    37    38   ar
    38    38    39    1
    39    29    40   ar
    40    14    41    1
    41     8    42   ar
    42    42    43   ar
    43    43     5   ar
    44    41    11    1
    45    40    15   ar
    46    27    18    1
    47    39    30    1
    48    26    21   ar
    49    38    33   ar
    50     1    44    1
    51     1    45    1
    52     6    46    1
    53     7    47    1
    54     9    48    1
    55     9    49    1
    56    10    50    1
    57    10    51    1
    58    12    52    1
    59    12    53    1
    60    13    54    1
    61    13    55    1
    62    14    56    1
    63    19    57    1
    64    19    58    1
    65    20    59    1
    66    20    60    1
    67    22    61    1
    68    23    62    1
    69    24    63    1
    70    25    64    1
    71    27    65    1
    72    27    66    1
    73    31    67    1
    74    31    68    1
    75    32    69    1
    76    32    70    1
    77    34    71    1
    78    35    72    1
    79    36    73    1
    80    37    74    1
    81    39    75    1
    82    39    76    1
    83    41    77    1
    84    41    78    1
    85    42    79    1
    86    43    80    1
