
     RDKit          3D

 42 44  0  0  0  0  0  0  0  0999 V2000
  140.2950   67.0660  226.4790 C   0  0  0  0  0  0  0  0  0  0  0  0
  140.5590   67.9350  227.5530 O   0  0  0  0  0  0  0  0  0  0  0  0
  140.6220   69.2940  227.2960 C   0  0  0  0  0  0  0  0  0  0  0  0
  141.0710   70.1480  228.2920 C   0  0  0  0  0  0  0  0  0  0  0  0
  141.1100   71.4850  227.9760 C   0  0  0  0  0  0  0  0  0  0  0  0
  140.7120   71.9310  226.7100 C   0  0  0  0  0  0  0  0  0  0  0  0
  140.2690   71.0780  225.7320 C   0  0  0  0  0  0  0  0  0  0  0  0
  139.8550   71.4520  224.4400 N   0  0  0  0  0  0  0  0  0  0  0  0
  138.5790   71.2220  223.8770 C   0  0  0  0  0  0  0  0  0  0  0  0
  137.6460   70.6450  224.4760 O   0  0  0  0  0  0  0  0  0  0  0  0
  138.2790   71.6790  222.4780 C   0  0  0  0  0  0  0  0  0  0  0  0
  138.7690   73.0240  222.2590 N   0  0  0  0  0  0  0  0  0  0  0  0
  140.0940   73.2490  221.8680 C   0  0  0  0  0  0  0  0  0  0  0  0
  140.9320   72.3140  221.6850 O   0  0  0  0  0  0  0  0  0  0  0  0
  140.5440   74.6300  221.6590 C   0  0  0  0  0  0  0  0  0  0  0  0
  141.5530   74.9290  220.7640 C   0  0  0  0  0  0  0  0  0  0  0  0
  141.9930   76.2060  220.5460 C   0  0  0  0  0  0  0  0  0  0  0  0
  141.3960   77.2480  221.2620 C   0  0  0  0  0  0  0  0  0  0  0  0
  141.8190   78.5660  221.0670 C   0  0  0  0  0  0  0  0  0  0  0  0
  141.2010   79.5720  221.7970 C   0  0  0  0  0  0  0  0  0  0  0  0
  141.7150   81.2180  221.5670 Cl  0  0  0  0  0  0  0  0  0  0  0  0
  140.1930   79.2670  222.6900 C   0  0  0  0  0  0  0  0  0  0  0  0
  139.7790   77.9560  222.8760 C   0  0  0  0  0  0  0  0  0  0  0  0
  140.3890   76.9320  222.1530 C   0  0  0  0  0  0  0  0  0  0  0  0
  139.9840   75.6600  222.3360 N   0  0  0  0  0  0  0  0  0  0  0  0
  140.2310   69.7340  226.0530 C   0  0  0  0  0  0  0  0  0  0  0  0
  139.9960   66.0818  226.8687 H   0  0  0  0  0  0  0  0  0  0  0  0
  139.4819   67.4794  225.8642 H   0  0  0  0  0  0  0  0  0  0  0  0
  141.2006   66.9572  225.8642 H   0  0  0  0  0  0  0  0  0  0  0  0
  141.3789   69.7760  229.2803 H   0  0  0  0  0  0  0  0  0  0  0  0
  141.4573   72.2118  228.7251 H   0  0  0  0  0  0  0  0  0  0  0  0
  140.7564   73.0081  226.4912 H   0  0  0  0  0  0  0  0  0  0  0  0
  140.5420   71.9540  223.8070 H   0  0  0  0  0  0  0  0  0  0  0  0
  138.7651   70.9976  221.7642 H   0  0  0  0  0  0  0  0  0  0  0  0
  137.1888   71.6733  222.3319 H   0  0  0  0  0  0  0  0  0  0  0  0
  138.0990   73.8210  222.4020 H   0  0  0  0  0  0  0  0  0  0  0  0
  142.0219   74.1067  220.2037 H   0  0  0  0  0  0  0  0  0  0  0  0
  142.7979   76.4083  219.8241 H   0  0  0  0  0  0  0  0  0  0  0  0
  142.6219   78.8002  220.3526 H   0  0  0  0  0  0  0  0  0  0  0  0
  139.7118   80.0743  223.2616 H   0  0  0  0  0  0  0  0  0  0  0  0
  138.9742   77.7259  223.5897 H   0  0  0  0  0  0  0  0  0  0  0  0
  139.8835   69.0068  225.3044 H   0  0  0  0  0  0  0  0  0  0  0  0
  1  2  1  0
  2  3  1  0
  3  4  2  0
  4  5  1  0
  5  6  2  0
  6  7  1  0
  7  8  1  0
  8  9  1  0
  9 10  2  0
  9 11  1  0
 11 12  1  0
 12 13  1  0
 13 14  2  0
 13 15  1  0
 15 16  2  0
 16 17  1  0
 17 18  2  0
 18 19  1  0
 19 20  2  0
 20 21  1  0
 20 22  1  0
 22 23  2  0
 23 24  1  0
 24 25  2  0
  7 26  2  0
 26  3  1  0
 25 15  1  0
 24 18  1  0
  1 27  1  0
  1 28  1  0
  1 29  1  0
  4 30  1  0
  5 31  1  0
  6 32  1  0
  8 33  1  0
 11 34  1  0
 11 35  1  0
 12 36  1  0
 16 37  1  0
 17 38  1  0
 19 39  1  0
 22 40  1  0
 23 41  1  0
 26 42  1  0
M  END
>  <smiles>  (1) 
COc1cccc(NC(=O)CNC(=O)c2ccc3cc(Cl)ccc3n2)c1

>  <score_type>  (1) 
oracle

>  <origin>  (1) 
autodockgpu

>  <m_score__min__energy>  (1) 
-8.8100000000000005

>  <m_primary>  (1) 
energy

>  <rmsd>  (1) 
11.384019698873162

>  <m_score__min__rmsd>  (1) 
11.384019698873162

>  <meeko>  (1) 
{"free_energy": -7.57, "intermolecular_energy": -9.06, "internal_energy": -1.78, "cluster_size": 20, "cluster_id": 2, "rank_in_cluster": 14}

>  <energy>  (1) 
-8.81

>  <cluster_rmsd>  (1) 
0.0

>  <cluster>  (1) 
1

$$$$

     RDKit          3D

 42 44  0  0  0  0  0  0  0  0999 V2000
  141.0610   71.5880  228.2670 C   0  0  0  0  0  0  0  0  0  0  0  0
  141.3300   70.2110  228.3500 O   0  0  0  0  0  0  0  0  0  0  0  0
  140.7290   69.3690  227.4290 C   0  0  0  0  0  0  0  0  0  0  0  0
  141.0520   68.0200  227.4390 C   0  0  0  0  0  0  0  0  0  0  0  0
  140.4220   67.2370  226.5010 C   0  0  0  0  0  0  0  0  0  0  0  0
  139.5110   67.7970  225.5990 C   0  0  0  0  0  0  0  0  0  0  0  0
  139.1990   69.1330  225.5970 C   0  0  0  0  0  0  0  0  0  0  0  0
  138.2950   69.7650  224.7250 N   0  0  0  0  0  0  0  0  0  0  0  0
  138.5430   70.9390  223.9770 C   0  0  0  0  0  0  0  0  0  0  0  0
  139.6230   71.5680  224.0050 O   0  0  0  0  0  0  0  0  0  0  0  0
  137.4770   71.5030  223.0830 C   0  0  0  0  0  0  0  0  0  0  0  0
  136.5200   72.2760  223.8450 N   0  0  0  0  0  0  0  0  0  0  0  0
  135.5300   71.6410  224.6060 C   0  0  0  0  0  0  0  0  0  0  0  0
  135.4100   70.3810  224.6760 O   0  0  0  0  0  0  0  0  0  0  0  0
  134.5810   72.4680  225.3620 C   0  0  0  0  0  0  0  0  0  0  0  0
  133.5160   71.9030  226.0370 C   0  0  0  0  0  0  0  0  0  0  0  0
  132.6160   72.6480  226.7500 C   0  0  0  0  0  0  0  0  0  0  0  0
  132.7850   74.0340  226.7950 C   0  0  0  0  0  0  0  0  0  0  0  0
  131.8860   74.8270  227.5140 C   0  0  0  0  0  0  0  0  0  0  0  0
  132.0880   76.2010  227.5350 C   0  0  0  0  0  0  0  0  0  0  0  0
  130.9790   77.2030  228.4230 Cl  0  0  0  0  0  0  0  0  0  0  0  0
  133.1550   76.7590  226.8590 C   0  0  0  0  0  0  0  0  0  0  0  0
  134.0430   75.9630  226.1490 C   0  0  0  0  0  0  0  0  0  0  0  0
  133.8550   74.5820  226.1160 C   0  0  0  0  0  0  0  0  0  0  0  0
  134.7190   73.8130  225.4250 N   0  0  0  0  0  0  0  0  0  0  0  0
  139.8330   69.9180  226.5420 C   0  0  0  0  0  0  0  0  0  0  0  0
  140.9791   72.0073  229.2806 H   0  0  0  0  0  0  0  0  0  0  0  0
  141.8782   72.0894  227.7277 H   0  0  0  0  0  0  0  0  0  0  0  0
  140.1152   71.7450  227.7277 H   0  0  0  0  0  0  0  0  0  0  0  0
  141.7718   67.6004  228.1572 H   0  0  0  0  0  0  0  0  0  0  0  0
  140.6364   66.1589  226.4593 H   0  0  0  0  0  0  0  0  0  0  0  0
  139.0256   67.1401  224.8622 H   0  0  0  0  0  0  0  0  0  0  0  0
  137.3290   69.3460  224.5960 H   0  0  0  0  0  0  0  0  0  0  0  0
  137.9457   72.1524  222.3289 H   0  0  0  0  0  0  0  0  0  0  0  0
  136.9485   70.6696  222.5971 H   0  0  0  0  0  0  0  0  0  0  0  0
  136.5920   73.3230  223.8100 H   0  0  0  0  0  0  0  0  0  0  0  0
  133.3863   70.8113  225.9999 H   0  0  0  0  0  0  0  0  0  0  0  0
  131.7785   72.1662  227.2758 H   0  0  0  0  0  0  0  0  0  0  0  0
  131.0391   74.3738  228.0502 H   0  0  0  0  0  0  0  0  0  0  0  0
  133.3031   77.8487  226.8835 H   0  0  0  0  0  0  0  0  0  0  0  0
  134.8900   76.4190  225.6155 H   0  0  0  0  0  0  0  0  0  0  0  0
  139.6179   70.9959  226.5850 H   0  0  0  0  0  0  0  0  0  0  0  0
  1  2  1  0
  2  3  1  0
  3  4  2  0
  4  5  1  0
  5  6  2  0
  6  7  1  0
  7  8  1  0
  8  9  1  0
  9 10  2  0
  9 11  1  0
 11 12  1  0
 12 13  1  0
 13 14  2  0
 13 15  1  0
 15 16  2  0
 16 17  1  0
 17 18  2  0
 18 19  1  0
 19 20  2  0
 20 21  1  0
 20 22  1  0
 22 23  2  0
 23 24  1  0
 24 25  2  0
  7 26  2  0
 26  3  1  0
 25 15  1  0
 24 18  1  0
  1 27  1  0
  1 28  1  0
  1 29  1  0
  4 30  1  0
  5 31  1  0
  6 32  1  0
  8 33  1  0
 11 34  1  0
 11 35  1  0
 12 36  1  0
 16 37  1  0
 17 38  1  0
 19 39  1  0
 22 40  1  0
 23 41  1  0
 26 42  1  0
M  END
>  <smiles>  (2) 
COc1cccc(NC(=O)CNC(=O)c2ccc3cc(Cl)ccc3n2)c1

>  <score_type>  (2) 
oracle

>  <origin>  (2) 
autodockgpu

>  <m_score__min__energy>  (2) 
-8.8100000000000005

>  <m_primary>  (2) 
energy

>  <rmsd>  (2) 
11.47568354242872

>  <m_score__min__rmsd>  (2) 
11.47568354242872

>  <meeko>  (2) 
{"free_energy": -7.3, "intermolecular_energy": -8.79, "internal_energy": -1.88, "cluster_size": 4, "cluster_id": 3, "rank_in_cluster": 4}

>  <energy>  (2) 
-8.79

>  <cluster_rmsd>  (2) 
0.16

>  <cluster>  (2) 
1

$$$$

     RDKit          3D

 42 44  0  0  0  0  0  0  0  0999 V2000
  137.6600   80.9270  224.0910 C   0  0  0  0  0  0  0  0  0  0  0  0
  139.0410   81.1530  224.2220 O   0  0  0  0  0  0  0  0  0  0  0  0
  139.9120   80.2030  223.7140 C   0  0  0  0  0  0  0  0  0  0  0  0
  141.2640   80.5000  223.6410 C   0  0  0  0  0  0  0  0  0  0  0  0
  142.0770   79.5160  223.1280 C   0  0  0  0  0  0  0  0  0  0  0  0
  141.5400   78.2930  222.7110 C   0  0  0  0  0  0  0  0  0  0  0  0
  140.2000   78.0090  222.7880 C   0  0  0  0  0  0  0  0  0  0  0  0
  139.5890   76.8050  222.3910 N   0  0  0  0  0  0  0  0  0  0  0  0
  139.8800   76.0730  221.2170 C   0  0  0  0  0  0  0  0  0  0  0  0
  140.7350   76.4190  220.3730 O   0  0  0  0  0  0  0  0  0  0  0  0
  139.1430   74.7990  220.9220 C   0  0  0  0  0  0  0  0  0  0  0  0
  139.2800   73.8590  222.0140 N   0  0  0  0  0  0  0  0  0  0  0  0
  139.6560   72.5310  221.7740 C   0  0  0  0  0  0  0  0  0  0  0  0
  139.8940   72.0760  220.6140 O   0  0  0  0  0  0  0  0  0  0  0  0
  139.7810   71.6160  222.9140 C   0  0  0  0  0  0  0  0  0  0  0  0
  139.3770   70.2980  222.8250 C   0  0  0  0  0  0  0  0  0  0  0  0
  139.4820   69.4210  223.8700 C   0  0  0  0  0  0  0  0  0  0  0  0
  140.0210   69.8810  225.0750 C   0  0  0  0  0  0  0  0  0  0  0  0
  140.1430   69.0140  226.1640 C   0  0  0  0  0  0  0  0  0  0  0  0
  140.6840   69.5090  227.3440 C   0  0  0  0  0  0  0  0  0  0  0  0
  140.8440   68.4440  228.7100 Cl  0  0  0  0  0  0  0  0  0  0  0  0
  141.0870   70.8270  227.4270 C   0  0  0  0  0  0  0  0  0  0  0  0
  140.9610   71.6800  226.3390 C   0  0  0  0  0  0  0  0  0  0  0  0
  140.4200   71.2000  225.1470 C   0  0  0  0  0  0  0  0  0  0  0  0
  140.3000   72.0310  224.0930 N   0  0  0  0  0  0  0  0  0  0  0  0
  139.3860   79.0000  223.3050 C   0  0  0  0  0  0  0  0  0  0  0  0
  137.2043   80.8524  225.0894 H   0  0  0  0  0  0  0  0  0  0  0  0
  137.2024   81.7622  223.5405 H   0  0  0  0  0  0  0  0  0  0  0  0
  137.4925   79.9895  223.5405 H   0  0  0  0  0  0  0  0  0  0  0  0
  141.6645   81.4686  223.9747 H   0  0  0  0  0  0  0  0  0  0  0  0
  143.1596   79.6923  223.0448 H   0  0  0  0  0  0  0  0  0  0  0  0
  142.2193   77.5288  222.3053 H   0  0  0  0  0  0  0  0  0  0  0  0
  138.8370   76.3840  223.0090 H   0  0  0  0  0  0  0  0  0  0  0  0
  138.0769   75.0257  220.7734 H   0  0  0  0  0  0  0  0  0  0  0  0
  139.5698   74.3479  220.0140 H   0  0  0  0  0  0  0  0  0  0  0  0
  139.0910   74.2040  222.9880 H   0  0  0  0  0  0  0  0  0  0  0  0
  138.9536   69.9389  221.8754 H   0  0  0  0  0  0  0  0  0  0  0  0
  139.1498   68.3777  223.7643 H   0  0  0  0  0  0  0  0  0  0  0  0
  139.8187   67.9656  226.0889 H   0  0  0  0  0  0  0  0  0  0  0  0
  141.5135   71.2061  228.3675 H   0  0  0  0  0  0  0  0  0  0  0  0
  141.2859   72.7280  226.4169 H   0  0  0  0  0  0  0  0  0  0  0  0
  138.3036   78.8238  223.3902 H   0  0  0  0  0  0  0  0  0  0  0  0
  1  2  1  0
  2  3  1  0
  3  4  2  0
  4  5  1  0
  5  6  2  0
  6  7  1  0
  7  8  1  0
  8  9  1  0
  9 10  2  0
  9 11  1  0
 11 12  1  0
 12 13  1  0
 13 14  2  0
 13 15  1  0
 15 16  2  0
 16 17  1  0
 17 18  2  0
 18 19  1  0
 19 20  2  0
 20 21  1  0
 20 22  1  0
 22 23  2  0
 23 24  1  0
 24 25  2  0
  7 26  2  0
 26  3  1  0
 25 15  1  0
 24 18  1  0
  1 27  1  0
  1 28  1  0
  1 29  1  0
  4 30  1  0
  5 31  1  0
  6 32  1  0
  8 33  1  0
 11 34  1  0
 11 35  1  0
 12 36  1  0
 16 37  1  0
 17 38  1  0
 19 39  1  0
 22 40  1  0
 23 41  1  0
 26 42  1  0
M  END
>  <smiles>  (3) 
COc1cccc(NC(=O)CNC(=O)c2ccc3cc(Cl)ccc3n2)c1

>  <score_type>  (3) 
oracle

>  <origin>  (3) 
autodockgpu

>  <m_score__min__energy>  (3) 
-8.8100000000000005

>  <m_primary>  (3) 
energy

>  <rmsd>  (3) 
4.299073770005375

>  <m_score__min__rmsd>  (3) 
4.299073770005375

>  <meeko>  (3) 
{"free_energy": -7.9, "intermolecular_energy": -9.39, "internal_energy": -0.94, "cluster_size": 26, "cluster_id": 1, "rank_in_cluster": 15}

>  <energy>  (3) 
-8.78

>  <cluster_rmsd>  (3) 
0.18

>  <cluster>  (3) 
1

$$$$

     RDKit          3D

 42 44  0  0  0  0  0  0  0  0999 V2000
  141.0480   71.7320  228.2110 C   0  0  0  0  0  0  0  0  0  0  0  0
  141.0930   70.3380  228.3870 O   0  0  0  0  0  0  0  0  0  0  0  0
  140.5790   69.5330  227.3850 C   0  0  0  0  0  0  0  0  0  0  0  0
  140.5020   68.1640  227.5930 C   0  0  0  0  0  0  0  0  0  0  0  0
  139.9830   67.4190  226.5610 C   0  0  0  0  0  0  0  0  0  0  0  0
  139.5630   68.0360  225.3760 C   0  0  0  0  0  0  0  0  0  0  0  0
  139.6440   69.3910  225.1800 C   0  0  0  0  0  0  0  0  0  0  0  0
  139.2430   70.0800  224.0210 N   0  0  0  0  0  0  0  0  0  0  0  0
  139.7160   71.3440  223.5990 C   0  0  0  0  0  0  0  0  0  0  0  0
  140.5680   72.0130  224.2220 O   0  0  0  0  0  0  0  0  0  0  0  0
  139.1930   71.9590  222.3330 C   0  0  0  0  0  0  0  0  0  0  0  0
  139.5360   73.3640  222.2620 N   0  0  0  0  0  0  0  0  0  0  0  0
  140.5620   73.8100  221.4200 C   0  0  0  0  0  0  0  0  0  0  0  0
  141.2410   73.0330  220.6820 O   0  0  0  0  0  0  0  0  0  0  0  0
  140.8730   75.2430  221.3830 C   0  0  0  0  0  0  0  0  0  0  0  0
  141.7930   75.7560  220.4890 C   0  0  0  0  0  0  0  0  0  0  0  0
  142.1030   77.0870  220.4310 C   0  0  0  0  0  0  0  0  0  0  0  0
  141.4620   77.9610  221.3140 C   0  0  0  0  0  0  0  0  0  0  0  0
  141.7540   79.3270  221.2850 C   0  0  0  0  0  0  0  0  0  0  0  0
  141.0950   80.1620  222.1780 C   0  0  0  0  0  0  0  0  0  0  0  0
  141.4450   81.8660  222.1550 Cl  0  0  0  0  0  0  0  0  0  0  0  0
  140.1760   79.6440  223.0690 C   0  0  0  0  0  0  0  0  0  0  0  0
  139.8930   78.2850  223.0910 C   0  0  0  0  0  0  0  0  0  0  0  0
  140.5450   77.4320  222.2010 C   0  0  0  0  0  0  0  0  0  0  0  0
  140.2680   76.1140  222.2250 N   0  0  0  0  0  0  0  0  0  0  0  0
  140.1660   70.1370  226.2200 C   0  0  0  0  0  0  0  0  0  0  0  0
  141.0321   72.2254  229.1940 H   0  0  0  0  0  0  0  0  0  0  0  0
  141.9360   72.0597  227.6506 H   0  0  0  0  0  0  0  0  0  0  0  0
  140.1407   72.0017  227.6506 H   0  0  0  0  0  0  0  0  0  0  0  0
  140.8378   67.6999  228.5321 H   0  0  0  0  0  0  0  0  0  0  0  0
  139.8967   66.3275  226.6669 H   0  0  0  0  0  0  0  0  0  0  0  0
  139.1520   67.4093  224.5708 H   0  0  0  0  0  0  0  0  0  0  0  0
  138.5190   69.6350  223.3860 H   0  0  0  0  0  0  0  0  0  0  0  0
  139.6325   71.4368  221.4704 H   0  0  0  0  0  0  0  0  0  0  0  0
  138.0972   71.8634  222.3219 H   0  0  0  0  0  0  0  0  0  0  0  0
  138.9920   74.0340  222.8610 H   0  0  0  0  0  0  0  0  0  0  0  0
  142.2966   75.0662  219.7958 H   0  0  0  0  0  0  0  0  0  0  0  0
  142.8403   77.4614  219.7056 H   0  0  0  0  0  0  0  0  0  0  0  0
  142.4879   79.7313  220.5723 H   0  0  0  0  0  0  0  0  0  0  0  0
  139.6614   80.3170  223.7706 H   0  0  0  0  0  0  0  0  0  0  0  0
  139.1594   77.8837  223.8057 H   0  0  0  0  0  0  0  0  0  0  0  0
  140.2524   71.2285  226.1147 H   0  0  0  0  0  0  0  0  0  0  0  0
  1  2  1  0
  2  3  1  0
  3  4  2  0
  4  5  1  0
  5  6  2  0
  6  7  1  0
  7  8  1  0
  8  9  1  0
  9 10  2  0
  9 11  1  0
 11 12  1  0
 12 13  1  0
 13 14  2  0
 13 15  1  0
 15 16  2  0
 16 17  1  0
 17 18  2  0
 18 19  1  0
 19 20  2  0
 20 21  1  0
 20 22  1  0
 22 23  2  0
 23 24  1  0
 24 25  2  0
  7 26  2  0
 26  3  1  0
 25 15  1  0
 24 18  1  0
  1 27  1  0
  1 28  1  0
  1 29  1  0
  4 30  1  0
  5 31  1  0
  6 32  1  0
  8 33  1  0
 11 34  1  0
 11 35  1  0
 12 36  1  0
 16 37  1  0
 17 38  1  0
 19 39  1  0
 22 40  1  0
 23 41  1  0
 26 42  1  0
M  END
>  <smiles>  (4) 
COc1cccc(NC(=O)CNC(=O)c2ccc3cc(Cl)ccc3n2)c1

>  <score_type>  (4) 
oracle

>  <origin>  (4) 
autodockgpu

>  <m_score__min__energy>  (4) 
-8.8100000000000005

>  <m_primary>  (4) 
energy

>  <rmsd>  (4) 
11.256402930449244

>  <m_score__min__rmsd>  (4) 
11.256402930449244

>  <meeko>  (4) 
{"free_energy": -8.01, "intermolecular_energy": -9.5, "internal_energy": -1.13, "cluster_size": 20, "cluster_id": 2, "rank_in_cluster": 6}

>  <energy>  (4) 
-8.78

>  <cluster_rmsd>  (4) 
0.43

>  <cluster>  (4) 
1

$$$$

     RDKit          3D

 42 44  0  0  0  0  0  0  0  0999 V2000
  138.0470   80.9060  224.0910 C   0  0  0  0  0  0  0  0  0  0  0  0
  138.9320   81.5120  223.1820 O   0  0  0  0  0  0  0  0  0  0  0  0
  140.0540   80.8040  222.7870 C   0  0  0  0  0  0  0  0  0  0  0  0
  141.3000   81.4060  222.8870 C   0  0  0  0  0  0  0  0  0  0  0  0
  142.3750   80.6520  222.4800 C   0  0  0  0  0  0  0  0  0  0  0  0
  142.1920   79.3510  221.9960 C   0  0  0  0  0  0  0  0  0  0  0  0
  140.9550   78.7650  221.9020 C   0  0  0  0  0  0  0  0  0  0  0  0
  140.6950   77.4660  221.4280 N   0  0  0  0  0  0  0  0  0  0  0  0
  139.7170   76.5770  221.9310 C   0  0  0  0  0  0  0  0  0  0  0  0
  138.9500   76.8500  222.8800 O   0  0  0  0  0  0  0  0  0  0  0  0
  139.5530   75.2140  221.3230 C   0  0  0  0  0  0  0  0  0  0  0  0
  139.6100   74.1860  222.3390 N   0  0  0  0  0  0  0  0  0  0  0  0
  139.9110   72.8600  222.0020 C   0  0  0  0  0  0  0  0  0  0  0  0
  140.1470   72.4830  220.8140 O   0  0  0  0  0  0  0  0  0  0  0  0
  139.9570   71.8520  223.0680 C   0  0  0  0  0  0  0  0  0  0  0  0
  139.5070   70.5630  222.8570 C   0  0  0  0  0  0  0  0  0  0  0  0
  139.5380   69.6020  223.8300 C   0  0  0  0  0  0  0  0  0  0  0  0
  140.0440   69.9430  225.0880 C   0  0  0  0  0  0  0  0  0  0  0  0
  140.0900   68.9880  226.1070 C   0  0  0  0  0  0  0  0  0  0  0  0
  140.6010   69.3650  227.3420 C   0  0  0  0  0  0  0  0  0  0  0  0
  140.6660   68.1900  228.6230 Cl  0  0  0  0  0  0  0  0  0  0  0  0
  141.0490   70.6550  227.5470 C   0  0  0  0  0  0  0  0  0  0  0  0
  140.9990   71.5960  226.5280 C   0  0  0  0  0  0  0  0  0  0  0  0
  140.4890   71.2350  225.2820 C   0  0  0  0  0  0  0  0  0  0  0  0
  140.4420   72.1520  224.2950 N   0  0  0  0  0  0  0  0  0  0  0  0
  139.8770   79.5250  222.3120 C   0  0  0  0  0  0  0  0  0  0  0  0
  138.3694   81.1268  225.1192 H   0  0  0  0  0  0  0  0  0  0  0  0
  137.0321   81.2996  223.9325 H   0  0  0  0  0  0  0  0  0  0  0  0
  138.0470   79.8175  223.9325 H   0  0  0  0  0  0  0  0  0  0  0  0
  141.4210   82.4298  223.2706 H   0  0  0  0  0  0  0  0  0  0  0  0
  143.3889   81.0750  222.5351 H   0  0  0  0  0  0  0  0  0  0  0  0
  143.0746   78.7762  221.6787 H   0  0  0  0  0  0  0  0  0  0  0  0
  141.2710   77.0910  220.6200 H   0  0  0  0  0  0  0  0  0  0  0  0
  138.5802   75.1621  220.8121 H   0  0  0  0  0  0  0  0  0  0  0  0
  140.3717   75.0472  220.6075 H   0  0  0  0  0  0  0  0  0  0  0  0
  139.4200   74.4650  223.3340 H   0  0  0  0  0  0  0  0  0  0  0  0
  139.1077   70.2988  221.8667 H   0  0  0  0  0  0  0  0  0  0  0  0
  139.1732   68.5842  223.6274 H   0  0  0  0  0  0  0  0  0  0  0  0
  139.7303   67.9628  225.9351 H   0  0  0  0  0  0  0  0  0  0  0  0
  141.4506   70.9405  228.5305 H   0  0  0  0  0  0  0  0  0  0  0  0
  141.3596   72.6204  226.7026 H   0  0  0  0  0  0  0  0  0  0  0  0
  138.8631   79.1019  222.2580 H   0  0  0  0  0  0  0  0  0  0  0  0
  1  2  1  0
  2  3  1  0
  3  4  2  0
  4  5  1  0
  5  6  2  0
  6  7  1  0
  7  8  1  0
  8  9  1  0
  9 10  2  0
  9 11  1  0
 11 12  1  0
 12 13  1  0
 13 14  2  0
 13 15  1  0
 15 16  2  0
 16 17  1  0
 17 18  2  0
 18 19  1  0
 19 20  2  0
 20 21  1  0
 20 22  1  0
 22 23  2  0
 23 24  1  0
 24 25  2  0
  7 26  2  0
 26  3  1  0
 25 15  1  0
 24 18  1  0
  1 27  1  0
  1 28  1  0
  1 29  1  0
  4 30  1  0
  5 31  1  0
  6 32  1  0
  8 33  1  0
 11 34  1  0
 11 35  1  0
 12 36  1  0
 16 37  1  0
 17 38  1  0
 19 39  1  0
 22 40  1  0
 23 41  1  0
 26 42  1  0
M  END
>  <smiles>  (5) 
COc1cccc(NC(=O)CNC(=O)c2ccc3cc(Cl)ccc3n2)c1

>  <score_type>  (5) 
oracle

>  <origin>  (5) 
autodockgpu

>  <m_score__min__energy>  (5) 
-8.8100000000000005

>  <m_primary>  (5) 
energy

>  <rmsd>  (5) 
4.051212011245357

>  <m_score__min__rmsd>  (5) 
4.051212011245357

>  <meeko>  (5) 
{"free_energy": -7.7, "intermolecular_energy": -9.19, "internal_energy": -1.21, "cluster_size": 26, "cluster_id": 1, "rank_in_cluster": 18}

>  <energy>  (5) 
-8.77

>  <cluster_rmsd>  (5) 
0.13

>  <cluster>  (5) 
1

$$$$

     RDKit          3D

 42 44  0  0  0  0  0  0  0  0999 V2000
  143.3350   80.5390  223.8810 C   0  0  0  0  0  0  0  0  0  0  0  0
  141.9340   80.6480  223.9090 O   0  0  0  0  0  0  0  0  0  0  0  0
  141.2370   80.4410  222.7300 C   0  0  0  0  0  0  0  0  0  0  0  0
  140.7460   81.5380  222.0370 C   0  0  0  0  0  0  0  0  0  0  0  0
  140.0620   81.2670  220.8750 C   0  0  0  0  0  0  0  0  0  0  0  0
  139.8880   79.9480  220.4400 C   0  0  0  0  0  0  0  0  0  0  0  0
  140.3780   78.8700  221.1340 C   0  0  0  0  0  0  0  0  0  0  0  0
  140.2430   77.5210  220.7590 N   0  0  0  0  0  0  0  0  0  0  0  0
  139.7250   76.4820  221.5660 C   0  0  0  0  0  0  0  0  0  0  0  0
  139.3160   76.6450  222.7350 O   0  0  0  0  0  0  0  0  0  0  0  0
  139.6420   75.0820  221.0290 C   0  0  0  0  0  0  0  0  0  0  0  0
  139.6830   74.1140  222.1050 N   0  0  0  0  0  0  0  0  0  0  0  0
  139.9120   72.7580  221.8400 C   0  0  0  0  0  0  0  0  0  0  0  0
  140.0950   72.3000  220.6720 O   0  0  0  0  0  0  0  0  0  0  0  0
  139.9440   71.8150  222.9640 C   0  0  0  0  0  0  0  0  0  0  0  0
  139.4590   70.5280  222.8350 C   0  0  0  0  0  0  0  0  0  0  0  0
  139.4760   69.6260  223.8640 C   0  0  0  0  0  0  0  0  0  0  0  0
  140.0050   70.0270  225.0940 C   0  0  0  0  0  0  0  0  0  0  0  0
  140.0380   69.1340  226.1680 C   0  0  0  0  0  0  0  0  0  0  0  0
  140.5730   69.5700  227.3740 C   0  0  0  0  0  0  0  0  0  0  0  0
  140.6220   68.4720  228.7210 Cl  0  0  0  0  0  0  0  0  0  0  0  0
  141.0560   70.8580  227.4960 C   0  0  0  0  0  0  0  0  0  0  0  0
  141.0190   71.7380  226.4230 C   0  0  0  0  0  0  0  0  0  0  0  0
  140.4860   71.3170  225.2060 C   0  0  0  0  0  0  0  0  0  0  0  0
  140.4510   72.1740  224.1670 N   0  0  0  0  0  0  0  0  0  0  0  0
  141.0640   79.1460  222.3010 C   0  0  0  0  0  0  0  0  0  0  0  0
  143.7211   80.5090  224.9106 H   0  0  0  0  0  0  0  0  0  0  0  0
  143.6205   79.6159  223.3552 H   0  0  0  0  0  0  0  0  0  0  0  0
  143.7599   81.4068  223.3552 H   0  0  0  0  0  0  0  0  0  0  0  0
  140.8954   82.5667  222.3967 H   0  0  0  0  0  0  0  0  0  0  0  0
  139.6475   82.0952  220.2815 H   0  0  0  0  0  0  0  0  0  0  0  0
  139.3369   79.7683  219.5051 H   0  0  0  0  0  0  0  0  0  0  0  0
  140.5510   77.2260  219.7880 H   0  0  0  0  0  0  0  0  0  0  0  0
  138.6996   74.9642  220.4740 H   0  0  0  0  0  0  0  0  0  0  0  0
  140.5021   74.9078  220.3658 H   0  0  0  0  0  0  0  0  0  0  0  0
  139.5360   74.4610  223.0850 H   0  0  0  0  0  0  0  0  0  0  0  0
  139.0423   70.2156  221.8661 H   0  0  0  0  0  0  0  0  0  0  0  0
  139.0822   68.6082  223.7262 H   0  0  0  0  0  0  0  0  0  0  0  0
  139.6497   68.1103  226.0614 H   0  0  0  0  0  0  0  0  0  0  0  0
  141.4758   71.1912  228.4566 H   0  0  0  0  0  0  0  0  0  0  0  0
  141.4079   72.7611  226.5326 H   0  0  0  0  0  0  0  0  0  0  0  0
  141.4777   78.3181  222.8955 H   0  0  0  0  0  0  0  0  0  0  0  0
  1  2  1  0
  2  3  1  0
  3  4  2  0
  4  5  1  0
  5  6  2  0
  6  7  1  0
  7  8  1  0
  8  9  1  0
  9 10  2  0
  9 11  1  0
 11 12  1  0
 12 13  1  0
 13 14  2  0
 13 15  1  0
 15 16  2  0
 16 17  1  0
 17 18  2  0
 18 19  1  0
 19 20  2  0
 20 21  1  0
 20 22  1  0
 22 23  2  0
 23 24  1  0
 24 25  2  0
  7 26  2  0
 26  3  1  0
 25 15  1  0
 24 18  1  0
  1 27  1  0
  1 28  1  0
  1 29  1  0
  4 30  1  0
  5 31  1  0
  6 32  1  0
  8 33  1  0
 11 34  1  0
 11 35  1  0
 12 36  1  0
 16 37  1  0
 17 38  1  0
 19 39  1  0
 22 40  1  0
 23 41  1  0
 26 42  1  0
M  END
>  <smiles>  (6) 
COc1cccc(NC(=O)CNC(=O)c2ccc3cc(Cl)ccc3n2)c1

>  <score_type>  (6) 
oracle

>  <origin>  (6) 
autodockgpu

>  <m_score__min__energy>  (6) 
-8.8100000000000005

>  <m_primary>  (6) 
energy

>  <rmsd>  (6) 
4.4184606072465655

>  <m_score__min__rmsd>  (6) 
4.4184606072465655

>  <meeko>  (6) 
{"free_energy": -7.19, "intermolecular_energy": -8.68, "internal_energy": -1.51, "cluster_size": 26, "cluster_id": 1, "rank_in_cluster": 25}

>  <energy>  (6) 
-8.73

>  <cluster_rmsd>  (6) 
0.35

>  <cluster>  (6) 
1

$$$$

     RDKit          3D

 42 44  0  0  0  0  0  0  0  0999 V2000
  143.3660   80.5490  223.8700 C   0  0  0  0  0  0  0  0  0  0  0  0
  142.0260   80.1490  223.7230 O   0  0  0  0  0  0  0  0  0  0  0  0
  141.5350   79.9590  222.4430 C   0  0  0  0  0  0  0  0  0  0  0  0
  141.4770   81.0390  221.5750 C   0  0  0  0  0  0  0  0  0  0  0  0
  140.9800   80.7850  220.3190 C   0  0  0  0  0  0  0  0  0  0  0  0
  140.5630   79.4970  219.9630 C   0  0  0  0  0  0  0  0  0  0  0  0
  140.6250   78.4350  220.8280 C   0  0  0  0  0  0  0  0  0  0  0  0
  140.2270   77.1170  220.5420 N   0  0  0  0  0  0  0  0  0  0  0  0
  139.9050   76.1200  221.4910 C   0  0  0  0  0  0  0  0  0  0  0  0
  139.9370   76.2990  222.7280 O   0  0  0  0  0  0  0  0  0  0  0  0
  139.4960   74.7490  221.0350 C   0  0  0  0  0  0  0  0  0  0  0  0
  139.5910   73.7950  222.1200 N   0  0  0  0  0  0  0  0  0  0  0  0
  139.7040   72.4230  221.8600 C   0  0  0  0  0  0  0  0  0  0  0  0
  139.7300   71.9390  220.6880 O   0  0  0  0  0  0  0  0  0  0  0  0
  139.7970   71.4950  222.9930 C   0  0  0  0  0  0  0  0  0  0  0  0
  139.3690   70.1860  222.8850 C   0  0  0  0  0  0  0  0  0  0  0  0
  139.4440   69.2970  223.9230 C   0  0  0  0  0  0  0  0  0  0  0  0
  139.9750   69.7360  225.1390 C   0  0  0  0  0  0  0  0  0  0  0  0
  140.0670   68.8560  226.2220 C   0  0  0  0  0  0  0  0  0  0  0  0
  140.6020   69.3300  227.4130 C   0  0  0  0  0  0  0  0  0  0  0  0
  140.7230   68.2500  228.7710 Cl  0  0  0  0  0  0  0  0  0  0  0  0
  141.0290   70.6390  227.5140 C   0  0  0  0  0  0  0  0  0  0  0  0
  140.9340   71.5040  226.4330 C   0  0  0  0  0  0  0  0  0  0  0  0
  140.3990   71.0470  225.2300 C   0  0  0  0  0  0  0  0  0  0  0  0
  140.3090   71.8900  224.1820 N   0  0  0  0  0  0  0  0  0  0  0  0
  141.1260   78.6930  222.0910 C   0  0  0  0  0  0  0  0  0  0  0  0
  143.6115   80.6223  224.9397 H   0  0  0  0  0  0  0  0  0  0  0  0
  144.0243   79.8082  223.3926 H   0  0  0  0  0  0  0  0  0  0  0  0
  143.5105   81.5294  223.3926 H   0  0  0  0  0  0  0  0  0  0  0  0
  141.8103   82.0434  221.8751 H   0  0  0  0  0  0  0  0  0  0  0  0
  140.9092   81.6022  219.5861 H   0  0  0  0  0  0  0  0  0  0  0  0
  140.1701   79.3303  218.9492 H   0  0  0  0  0  0  0  0  0  0  0  0
  140.1540   76.8130  219.5280 H   0  0  0  0  0  0  0  0  0  0  0  0
  138.4569   74.7838  220.6757 H   0  0  0  0  0  0  0  0  0  0  0  0
  140.1710   74.4310  220.2267 H   0  0  0  0  0  0  0  0  0  0  0  0
  139.5730   74.1640  223.1040 H   0  0  0  0  0  0  0  0  0  0  0  0
  138.9512   69.8445  221.9264 H   0  0  0  0  0  0  0  0  0  0  0  0
  139.0944   68.2610  223.8029 H   0  0  0  0  0  0  0  0  0  0  0  0
  139.7243   67.8146  226.1329 H   0  0  0  0  0  0  0  0  0  0  0  0
  141.4500   71.0010  228.4636 H   0  0  0  0  0  0  0  0  0  0  0  0
  141.2790   72.5444  226.5251 H   0  0  0  0  0  0  0  0  0  0  0  0
  141.1985   77.8757  222.8237 H   0  0  0  0  0  0  0  0  0  0  0  0
  1  2  1  0
  2  3  1  0
  3  4  2  0
  4  5  1  0
  5  6  2  0
  6  7  1  0
  7  8  1  0
  8  9  1  0
  9 10  2  0
  9 11  1  0
 11 12  1  0
 12 13  1  0
 13 14  2  0
 13 15  1  0
 15 16  2  0
 16 17  1  0
 17 18  2  0
 18 19  1  0
 19 20  2  0
 20 21  1  0
 20 22  1  0
 22 23  2  0
 23 24  1  0
 24 25  2  0
  7 26  2  0
 26  3  1  0
 25 15  1  0
 24 18  1  0
  1 27  1  0
  1 28  1  0
  1 29  1  0
  4 30  1  0
  5 31  1  0
  6 32  1  0
  8 33  1  0
 11 34  1  0
 11 35  1  0
 12 36  1  0
 16 37  1  0
 17 38  1  0
 19 39  1  0
 22 40  1  0
 23 41  1  0
 26 42  1  0
M  END
>  <smiles>  (7) 
COc1cccc(NC(=O)CNC(=O)c2ccc3cc(Cl)ccc3n2)c1

>  <score_type>  (7) 
oracle

>  <origin>  (7) 
autodockgpu

>  <m_score__min__energy>  (7) 
-8.8100000000000005

>  <m_primary>  (7) 
energy

>  <rmsd>  (7) 
4.488694809271711

>  <m_score__min__rmsd>  (7) 
4.488694809271711

>  <meeko>  (7) 
{"free_energy": -7.36, "intermolecular_energy": -8.85, "internal_energy": -1.47, "cluster_size": 26, "cluster_id": 1, "rank_in_cluster": 23}

>  <energy>  (7) 
-8.72

>  <cluster_rmsd>  (7) 
0.14

>  <cluster>  (7) 
1

$$$$

     RDKit          3D

 42 44  0  0  0  0  0  0  0  0999 V2000
  138.3320   80.5230  223.9140 C   0  0  0  0  0  0  0  0  0  0  0  0
  139.6910   80.8770  223.8540 O   0  0  0  0  0  0  0  0  0  0  0  0
  140.4360   80.4380  222.7720 C   0  0  0  0  0  0  0  0  0  0  0  0
  141.3420   81.3060  222.1810 C   0  0  0  0  0  0  0  0  0  0  0  0
  142.0500   80.8110  221.1120 C   0  0  0  0  0  0  0  0  0  0  0  0
  141.8470   79.5000  220.6670 C   0  0  0  0  0  0  0  0  0  0  0  0
  140.9480   78.6490  221.2580 C   0  0  0  0  0  0  0  0  0  0  0  0
  140.6920   77.3230  220.8670 N   0  0  0  0  0  0  0  0  0  0  0  0
  139.9750   76.3590  221.6140 C   0  0  0  0  0  0  0  0  0  0  0  0
  139.4730   76.5800  222.7370 O   0  0  0  0  0  0  0  0  0  0  0  0
  139.7810   74.9740  221.0670 C   0  0  0  0  0  0  0  0  0  0  0  0
  139.7810   73.9950  222.1320 N   0  0  0  0  0  0  0  0  0  0  0  0
  140.1020   72.6560  221.8750 C   0  0  0  0  0  0  0  0  0  0  0  0
  140.4060   72.2250  220.7220 O   0  0  0  0  0  0  0  0  0  0  0  0
  140.0880   71.6990  222.9880 C   0  0  0  0  0  0  0  0  0  0  0  0
  139.5770   70.4250  222.8330 C   0  0  0  0  0  0  0  0  0  0  0  0
  139.5510   69.5120  223.8510 C   0  0  0  0  0  0  0  0  0  0  0  0
  140.0610   69.8870  225.0970 C   0  0  0  0  0  0  0  0  0  0  0  0
  140.0510   68.9800  226.1610 C   0  0  0  0  0  0  0  0  0  0  0  0
  140.5680   69.3910  227.3830 C   0  0  0  0  0  0  0  0  0  0  0  0
  140.5630   68.2770  228.7180 Cl  0  0  0  0  0  0  0  0  0  0  0  0
  141.0770   70.6660  227.5310 C   0  0  0  0  0  0  0  0  0  0  0  0
  141.0830   71.5590  226.4690 C   0  0  0  0  0  0  0  0  0  0  0  0
  140.5680   71.1640  225.2350 C   0  0  0  0  0  0  0  0  0  0  0  0
  140.5760   72.0330  224.2060 N   0  0  0  0  0  0  0  0  0  0  0  0
  140.2380   79.1500  222.3330 C   0  0  0  0  0  0  0  0  0  0  0  0
  138.0203   80.4418  224.9658 H   0  0  0  0  0  0  0  0  0  0  0  0
  137.7297   81.2942  223.4116 H   0  0  0  0  0  0  0  0  0  0  0  0
  138.1825   79.5559  223.4116 H   0  0  0  0  0  0  0  0  0  0  0  0
  141.4859   82.3332  222.5473 H   0  0  0  0  0  0  0  0  0  0  0  0
  142.7836   81.4519  220.6011 H   0  0  0  0  0  0  0  0  0  0  0  0
  142.4318   79.1373  219.8088 H   0  0  0  0  0  0  0  0  0  0  0  0
  141.0590   76.9850  219.9310 H   0  0  0  0  0  0  0  0  0  0  0  0
  138.8192   74.9280  220.5352 H   0  0  0  0  0  0  0  0  0  0  0  0
  140.6101   74.7473  220.3805 H   0  0  0  0  0  0  0  0  0  0  0  0
  139.5330   74.3190  223.1010 H   0  0  0  0  0  0  0  0  0  0  0  0
  139.1749   70.1332  221.8516 H   0  0  0  0  0  0  0  0  0  0  0  0
  139.1378   68.5049  223.6926 H   0  0  0  0  0  0  0  0  0  0  0  0
  139.6438   67.9661  226.0336 H   0  0  0  0  0  0  0  0  0  0  0  0
  141.4834   70.9781  228.5044 H   0  0  0  0  0  0  0  0  0  0  0  0
  141.4914   72.5720  226.5998 H   0  0  0  0  0  0  0  0  0  0  0  0
  139.5044   78.5094  222.8444 H   0  0  0  0  0  0  0  0  0  0  0  0
  1  2  1  0
  2  3  1  0
  3  4  2  0
  4  5  1  0
  5  6  2  0
  6  7  1  0
  7  8  1  0
  8  9  1  0
  9 10  2  0
  9 11  1  0
 11 12  1  0
 12 13  1  0
 13 14  2  0
 13 15  1  0
 15 16  2  0
 16 17  1  0
 17 18  2  0
 18 19  1  0
 19 20  2  0
 20 21  1  0
 20 22  1  0
 22 23  2  0
 23 24  1  0
 24 25  2  0
  7 26  2  0
 26  3  1  0
 25 15  1  0
 24 18  1  0
  1 27  1  0
  1 28  1  0
  1 29  1  0
  4 30  1  0
  5 31  1  0
  6 32  1  0
  8 33  1  0
 11 34  1  0
 11 35  1  0
 12 36  1  0
 16 37  1  0
 17 38  1  0
 19 39  1  0
 22 40  1  0
 23 41  1  0
 26 42  1  0
M  END
>  <smiles>  (8) 
COc1cccc(NC(=O)CNC(=O)c2ccc3cc(Cl)ccc3n2)c1

>  <score_type>  (8) 
oracle

>  <origin>  (8) 
autodockgpu

>  <m_score__min__energy>  (8) 
-8.8100000000000005

>  <m_primary>  (8) 
energy

>  <rmsd>  (8) 
4.051910854979611

>  <m_score__min__rmsd>  (8) 
4.051910854979611

>  <meeko>  (8) 
{"free_energy": -7.42, "intermolecular_energy": -8.91, "internal_energy": -1.31, "cluster_size": 26, "cluster_id": 1, "rank_in_cluster": 22}

>  <energy>  (8) 
-8.7

>  <cluster_rmsd>  (8) 
0.19

>  <cluster>  (8) 
1

$$$$

     RDKit          3D

 42 44  0  0  0  0  0  0  0  0999 V2000
  142.9480   80.9010  224.1950 C   0  0  0  0  0  0  0  0  0  0  0  0
  143.1200   79.9660  223.1590 O   0  0  0  0  0  0  0  0  0  0  0  0
  142.1640   79.9110  222.1590 C   0  0  0  0  0  0  0  0  0  0  0  0
  141.7860   81.0840  221.5230 C   0  0  0  0  0  0  0  0  0  0  0  0
  140.8320   80.9630  220.5400 C   0  0  0  0  0  0  0  0  0  0  0  0
  140.2910   79.7130  220.2200 C   0  0  0  0  0  0  0  0  0  0  0  0
  140.6720   78.5580  220.8550 C   0  0  0  0  0  0  0  0  0  0  0  0
  140.1750   77.2700  220.5880 N   0  0  0  0  0  0  0  0  0  0  0  0
  140.0530   76.2150  221.5210 C   0  0  0  0  0  0  0  0  0  0  0  0
  140.3810   76.3060  222.7230 O   0  0  0  0  0  0  0  0  0  0  0  0
  139.5020   74.8860  221.0890 C   0  0  0  0  0  0  0  0  0  0  0  0
  139.5930   73.9170  222.1600 N   0  0  0  0  0  0  0  0  0  0  0  0
  139.6970   72.5490  221.8820 C   0  0  0  0  0  0  0  0  0  0  0  0
  139.7190   72.0800  220.7040 O   0  0  0  0  0  0  0  0  0  0  0  0
  139.7860   71.6040  223.0020 C   0  0  0  0  0  0  0  0  0  0  0  0
  139.3290   70.3060  222.8850 C   0  0  0  0  0  0  0  0  0  0  0  0
  139.3980   69.4040  223.9110 C   0  0  0  0  0  0  0  0  0  0  0  0
  139.9550   69.8160  225.1250 C   0  0  0  0  0  0  0  0  0  0  0  0
  140.0420   68.9220  226.1960 C   0  0  0  0  0  0  0  0  0  0  0  0
  140.6020   69.3690  227.3860 C   0  0  0  0  0  0  0  0  0  0  0  0
  140.7180   68.2710  228.7290 Cl  0  0  0  0  0  0  0  0  0  0  0  0
  141.0570   70.6680  227.4960 C   0  0  0  0  0  0  0  0  0  0  0  0
  140.9660   71.5480  226.4270 C   0  0  0  0  0  0  0  0  0  0  0  0
  140.4070   71.1170  225.2250 C   0  0  0  0  0  0  0  0  0  0  0  0
  140.3200   71.9740  224.1900 N   0  0  0  0  0  0  0  0  0  0  0  0
  141.6310   78.6830  221.8430 C   0  0  0  0  0  0  0  0  0  0  0  0
  143.0414   80.3933  225.1664 H   0  0  0  0  0  0  0  0  0  0  0  0
  143.7173   81.6831  224.1146 H   0  0  0  0  0  0  0  0  0  0  0  0
  141.9507   81.3581  224.1146 H   0  0  0  0  0  0  0  0  0  0  0  0
  142.2247   82.0568  221.7899 H   0  0  0  0  0  0  0  0  0  0  0  0
  140.4907   81.8583  219.9996 H   0  0  0  0  0  0  0  0  0  0  0  0
  139.5300   79.6539  219.4279 H   0  0  0  0  0  0  0  0  0  0  0  0
  139.8550   77.0380  219.6030 H   0  0  0  0  0  0  0  0  0  0  0  0
  138.4469   75.0091  220.8033 H   0  0  0  0  0  0  0  0  0  0  0  0
  140.0912   74.5220  220.2344 H   0  0  0  0  0  0  0  0  0  0  0  0
  139.5780   74.2730  223.1490 H   0  0  0  0  0  0  0  0  0  0  0  0
  138.8919   69.9846  221.9281 H   0  0  0  0  0  0  0  0  0  0  0  0
  139.0236   68.3776  223.7836 H   0  0  0  0  0  0  0  0  0  0  0  0
  139.6758   67.8893  226.0988 H   0  0  0  0  0  0  0  0  0  0  0  0
  141.4977   71.0099  228.4441 H   0  0  0  0  0  0  0  0  0  0  0  0
  141.3330   72.5801  226.5276 H   0  0  0  0  0  0  0  0  0  0  0  0
  141.9725   77.7881  222.3838 H   0  0  0  0  0  0  0  0  0  0  0  0
  1  2  1  0
  2  3  1  0
  3  4  2  0
  4  5  1  0
  5  6  2  0
  6  7  1  0
  7  8  1  0
  8  9  1  0
  9 10  2  0
  9 11  1  0
 11 12  1  0
 12 13  1  0
 13 14  2  0
 13 15  1  0
 15 16  2  0
 16 17  1  0
 17 18  2  0
 18 19  1  0
 19 20  2  0
 20 21  1  0
 20 22  1  0
 22 23  2  0
 23 24  1  0
 24 25  2  0
  7 26  2  0
 26  3  1  0
 25 15  1  0
 24 18  1  0
  1 27  1  0
  1 28  1  0
  1 29  1  0
  4 30  1  0
  5 31  1  0
  6 32  1  0
  8 33  1  0
 11 34  1  0
 11 35  1  0
 12 36  1  0
 16 37  1  0
 17 38  1  0
 19 39  1  0
 22 40  1  0
 23 41  1  0
 26 42  1  0
M  END
>  <smiles>  (9) 
COc1cccc(NC(=O)CNC(=O)c2ccc3cc(Cl)ccc3n2)c1

>  <score_type>  (9) 
oracle

>  <origin>  (9) 
autodockgpu

>  <m_score__min__energy>  (9) 
-8.8100000000000005

>  <m_primary>  (9) 
energy

>  <rmsd>  (9) 
4.48377999413882

>  <m_score__min__rmsd>  (9) 
4.48377999413882

>  <meeko>  (9) 
{"free_energy": -7.51, "intermolecular_energy": -9.0, "internal_energy": -1.49, "cluster_size": 26, "cluster_id": 1, "rank_in_cluster": 19}

>  <energy>  (9) 
-8.57

>  <cluster_rmsd>  (9) 
0.32

>  <cluster>  (9) 
1

$$$$

     RDKit          3D

 42 44  0  0  0  0  0  0  0  0999 V2000
  141.1070   71.6260  228.3410 C   0  0  0  0  0  0  0  0  0  0  0  0
  141.2010   70.2290  228.4640 O   0  0  0  0  0  0  0  0  0  0  0  0
  140.6390   69.4440  227.4720 C   0  0  0  0  0  0  0  0  0  0  0  0
  140.1960   68.1690  227.7920 C   0  0  0  0  0  0  0  0  0  0  0  0
  139.6480   67.4390  226.7640 C   0  0  0  0  0  0  0  0  0  0  0  0
  139.5540   67.9790  225.4760 C   0  0  0  0  0  0  0  0  0  0  0  0
  139.9950   69.2410  225.1700 C   0  0  0  0  0  0  0  0  0  0  0  0
  139.9330   69.8490  223.9030 N   0  0  0  0  0  0  0  0  0  0  0  0
  139.9850   71.2380  223.6430 C   0  0  0  0  0  0  0  0  0  0  0  0
  140.0950   72.1100  224.5320 O   0  0  0  0  0  0  0  0  0  0  0  0
  139.9070   71.7440  222.2320 C   0  0  0  0  0  0  0  0  0  0  0  0
  140.1560   73.1690  222.1800 N   0  0  0  0  0  0  0  0  0  0  0  0
  140.9460   73.7220  221.1640 C   0  0  0  0  0  0  0  0  0  0  0  0
  141.4800   73.0290  220.2460 O   0  0  0  0  0  0  0  0  0  0  0  0
  141.1710   75.1730  221.1540 C   0  0  0  0  0  0  0  0  0  0  0  0
  141.9530   75.7710  220.1860 C   0  0  0  0  0  0  0  0  0  0  0  0
  142.1800   77.1200  220.1510 C   0  0  0  0  0  0  0  0  0  0  0  0
  141.5960   77.9210  221.1360 C   0  0  0  0  0  0  0  0  0  0  0  0
  141.8060   79.3030  221.1330 C   0  0  0  0  0  0  0  0  0  0  0  0
  141.2070   80.0640  222.1280 C   0  0  0  0  0  0  0  0  0  0  0  0
  141.4580   81.7850  222.1400 Cl  0  0  0  0  0  0  0  0  0  0  0  0
  140.4260   79.4590  223.0930 C   0  0  0  0  0  0  0  0  0  0  0  0
  140.2230   78.0860  223.0880 C   0  0  0  0  0  0  0  0  0  0  0  0
  140.8170   77.3060  222.0960 C   0  0  0  0  0  0  0  0  0  0  0  0
  140.6170   75.9740  222.0950 N   0  0  0  0  0  0  0  0  0  0  0  0
  140.5460   69.9720  226.2050 C   0  0  0  0  0  0  0  0  0  0  0  0
  141.0764   72.0810  229.3420 H   0  0  0  0  0  0  0  0  0  0  0  0
  141.9816   72.0055  227.7924 H   0  0  0  0  0  0  0  0  0  0  0  0
  140.1894   71.8849  227.7924 H   0  0  0  0  0  0  0  0  0  0  0  0
  140.2786   67.7645  228.8116 H   0  0  0  0  0  0  0  0  0  0  0  0
  139.2797   66.4203  226.9556 H   0  0  0  0  0  0  0  0  0  0  0  0
  139.1088   67.3669  224.6778 H   0  0  0  0  0  0  0  0  0  0  0  0
  139.8380   69.2340  223.0440 H   0  0  0  0  0  0  0  0  0  0  0  0
  140.6596   71.2243  221.6209 H   0  0  0  0  0  0  0  0  0  0  0  0
  138.8962   71.5494  221.8441 H   0  0  0  0  0  0  0  0  0  0  0  0
  139.7270   73.7720  222.9260 H   0  0  0  0  0  0  0  0  0  0  0  0
  142.4118   75.1379  219.4122 H   0  0  0  0  0  0  0  0  0  0  0  0
  142.8083   77.5641  219.3649 H   0  0  0  0  0  0  0  0  0  0  0  0
  142.4307   79.7762  220.3611 H   0  0  0  0  0  0  0  0  0  0  0  0
  139.9584   80.0737  223.8763 H   0  0  0  0  0  0  0  0  0  0  0  0
  139.5977   77.6160  223.8614 H   0  0  0  0  0  0  0  0  0  0  0  0
  140.9154   70.9902  226.0133 H   0  0  0  0  0  0  0  0  0  0  0  0
  1  2  1  0
  2  3  1  0
  3  4  2  0
  4  5  1  0
  5  6  2  0
  6  7  1  0
  7  8  1  0
  8  9  1  0
  9 10  2  0
  9 11  1  0
 11 12  1  0
 12 13  1  0
 13 14  2  0
 13 15  1  0
 15 16  2  0
 16 17  1  0
 17 18  2  0
 18 19  1  0
 19 20  2  0
 20 21  1  0
 20 22  1  0
 22 23  2  0
 23 24  1  0
 24 25  2  0
  7 26  2  0
 26  3  1  0
 25 15  1  0
 24 18  1  0
  1 27  1  0
  1 28  1  0
  1 29  1  0
  4 30  1  0
  5 31  1  0
  6 32  1  0
  8 33  1  0
 11 34  1  0
 11 35  1  0
 12 36  1  0
 16 37  1  0
 17 38  1  0
 19 39  1  0
 22 40  1  0
 23 41  1  0
 26 42  1  0
M  END
>  <smiles>  (10) 
COc1cccc(NC(=O)CNC(=O)c2ccc3cc(Cl)ccc3n2)c1

>  <score_type>  (10) 
oracle

>  <origin>  (10) 
autodockgpu

>  <m_score__min__energy>  (10) 
-8.8100000000000005

>  <m_primary>  (10) 
energy

>  <rmsd>  (10) 
11.35132359707503

>  <m_score__min__rmsd>  (10) 
11.35132359707503

>  <meeko>  (10) 
{"free_energy": -7.51, "intermolecular_energy": -9.0, "internal_energy": -1.46, "cluster_size": 20, "cluster_id": 2, "rank_in_cluster": 15}

>  <energy>  (10) 
-8.53

>  <cluster_rmsd>  (10) 
1.4

>  <cluster>  (10) 
1

$$$$

     RDKit          3D

 42 44  0  0  0  0  0  0  0  0999 V2000
  142.9660   80.9480  224.2240 C   0  0  0  0  0  0  0  0  0  0  0  0
  143.1780   80.1200  223.1070 O   0  0  0  0  0  0  0  0  0  0  0  0
  142.1580   79.9980  222.1780 C   0  0  0  0  0  0  0  0  0  0  0  0
  141.5860   81.1460  221.6510 C   0  0  0  0  0  0  0  0  0  0  0  0
  140.5790   80.9590  220.7340 C   0  0  0  0  0  0  0  0  0  0  0  0
  140.1750   79.6690  220.3710 C   0  0  0  0  0  0  0  0  0  0  0  0
  140.7480   78.5400  220.8980 C   0  0  0  0  0  0  0  0  0  0  0  0
  140.3970   77.2150  220.5820 N   0  0  0  0  0  0  0  0  0  0  0  0
  139.9440   76.2340  221.4930 C   0  0  0  0  0  0  0  0  0  0  0  0
  139.7990   76.4350  222.7180 O   0  0  0  0  0  0  0  0  0  0  0  0
  139.6050   74.8540  221.0080 C   0  0  0  0  0  0  0  0  0  0  0  0
  139.6620   73.8970  222.0930 N   0  0  0  0  0  0  0  0  0  0  0  0
  139.8800   72.5370  221.8390 C   0  0  0  0  0  0  0  0  0  0  0  0
  140.0360   72.0660  220.6720 O   0  0  0  0  0  0  0  0  0  0  0  0
  139.9290   71.6060  222.9730 C   0  0  0  0  0  0  0  0  0  0  0  0
  139.4590   70.3120  222.8590 C   0  0  0  0  0  0  0  0  0  0  0  0
  139.4930   69.4210  223.8970 C   0  0  0  0  0  0  0  0  0  0  0  0
  140.0240   69.8410  225.1200 C   0  0  0  0  0  0  0  0  0  0  0  0
  140.0740   68.9590  226.2030 C   0  0  0  0  0  0  0  0  0  0  0  0
  140.6100   69.4140  227.4010 C   0  0  0  0  0  0  0  0  0  0  0  0
  140.6810   68.3310  228.7590 Cl  0  0  0  0  0  0  0  0  0  0  0  0
  141.0780   70.7090  227.5070 C   0  0  0  0  0  0  0  0  0  0  0  0
  141.0240   71.5770  226.4260 C   0  0  0  0  0  0  0  0  0  0  0  0
  140.4900   71.1380  225.2160 C   0  0  0  0  0  0  0  0  0  0  0  0
  140.4390   71.9830  224.1680 N   0  0  0  0  0  0  0  0  0  0  0  0
  141.7600   78.7310  221.8190 C   0  0  0  0  0  0  0  0  0  0  0  0
  143.1150   80.3660  225.1454 H   0  0  0  0  0  0  0  0  0  0  0  0
  143.6787   81.7856  224.2001 H   0  0  0  0  0  0  0  0  0  0  0  0
  141.9385   81.3400  224.2001 H   0  0  0  0  0  0  0  0  0  0  0  0
  141.9195   82.1506  221.9501 H   0  0  0  0  0  0  0  0  0  0  0  0
  140.0859   81.8318  220.2811 H   0  0  0  0  0  0  0  0  0  0  0  0
  139.3661   79.5563  219.6341 H   0  0  0  0  0  0  0  0  0  0  0  0
  140.4690   76.8930  219.5730 H   0  0  0  0  0  0  0  0  0  0  0  0
  138.5892   74.8599  220.5859 H   0  0  0  0  0  0  0  0  0  0  0  0
  140.3376   74.5608  220.2416 H   0  0  0  0  0  0  0  0  0  0  0  0
  139.5370   74.2550  223.0730 H   0  0  0  0  0  0  0  0  0  0  0  0
  139.0408   69.9849  221.8956 H   0  0  0  0  0  0  0  0  0  0  0  0
  139.1110   68.3971  223.7718 H   0  0  0  0  0  0  0  0  0  0  0  0
  139.6980   67.9295  226.1090 H   0  0  0  0  0  0  0  0  0  0  0  0
  141.4994   71.0571  228.4616 H   0  0  0  0  0  0  0  0  0  0  0  0
  141.4006   72.6059  226.5235 H   0  0  0  0  0  0  0  0  0  0  0  0
  142.2540   77.8584  222.2712 H   0  0  0  0  0  0  0  0  0  0  0  0
  1  2  1  0
  2  3  1  0
  3  4  2  0
  4  5  1  0
  5  6  2  0
  6  7  1  0
  7  8  1  0
  8  9  1  0
  9 10  2  0
  9 11  1  0
 11 12  1  0
 12 13  1  0
 13 14  2  0
 13 15  1  0
 15 16  2  0
 16 17  1  0
 17 18  2  0
 18 19  1  0
 19 20  2  0
 20 21  1  0
 20 22  1  0
 22 23  2  0
 23 24  1  0
 24 25  2  0
  7 26  2  0
 26  3  1  0
 25 15  1  0
 24 18  1  0
  1 27  1  0
  1 28  1  0
  1 29  1  0
  4 30  1  0
  5 31  1  0
  6 32  1  0
  8 33  1  0
 11 34  1  0
 11 35  1  0
 12 36  1  0
 16 37  1  0
 17 38  1  0
 19 39  1  0
 22 40  1  0
 23 41  1  0
 26 42  1  0
M  END
>  <smiles>  (11) 
COc1cccc(NC(=O)CNC(=O)c2ccc3cc(Cl)ccc3n2)c1

>  <score_type>  (11) 
oracle

>  <origin>  (11) 
autodockgpu

>  <m_score__min__energy>  (11) 
-8.8100000000000005

>  <m_primary>  (11) 
energy

>  <rmsd>  (11) 
4.478993817160686

>  <m_score__min__rmsd>  (11) 
4.478993817160686

>  <meeko>  (11) 
{"free_energy": -7.46, "intermolecular_energy": -8.95, "internal_energy": -1.52, "cluster_size": 26, "cluster_id": 1, "rank_in_cluster": 20}

>  <energy>  (11) 
-8.51

>  <cluster_rmsd>  (11) 
0.48

>  <cluster>  (11) 
1

$$$$

     RDKit          3D

 42 44  0  0  0  0  0  0  0  0999 V2000
  141.0610   71.7280  228.2060 C   0  0  0  0  0  0  0  0  0  0  0  0
  141.1380   70.3330  228.3620 O   0  0  0  0  0  0  0  0  0  0  0  0
  140.6200   69.5310  227.3590 C   0  0  0  0  0  0  0  0  0  0  0  0
  140.6000   68.1560  227.5380 C   0  0  0  0  0  0  0  0  0  0  0  0
  140.0740   67.4160  226.5060 C   0  0  0  0  0  0  0  0  0  0  0  0
  139.5920   68.0420  225.3510 C   0  0  0  0  0  0  0  0  0  0  0  0
  139.6160   69.4040  225.1840 C   0  0  0  0  0  0  0  0  0  0  0  0
  139.1500   70.1020  224.0550 N   0  0  0  0  0  0  0  0  0  0  0  0
  139.6610   71.3260  223.5650 C   0  0  0  0  0  0  0  0  0  0  0  0
  140.6100   71.9460  224.0920 O   0  0  0  0  0  0  0  0  0  0  0  0
  139.0590   71.9580  222.3430 C   0  0  0  0  0  0  0  0  0  0  0  0
  139.4250   73.3560  222.2530 N   0  0  0  0  0  0  0  0  0  0  0  0
  140.5130   73.7630  221.4700 C   0  0  0  0  0  0  0  0  0  0  0  0
  141.2300   72.9550  220.8060 O   0  0  0  0  0  0  0  0  0  0  0  0
  140.8450   75.1910  221.4100 C   0  0  0  0  0  0  0  0  0  0  0  0
  141.7580   75.6780  220.4940 C   0  0  0  0  0  0  0  0  0  0  0  0
  142.0870   77.0030  220.4140 C   0  0  0  0  0  0  0  0  0  0  0  0
  141.4740   77.8980  221.2960 C   0  0  0  0  0  0  0  0  0  0  0  0
  141.7850   79.2590  221.2440 C   0  0  0  0  0  0  0  0  0  0  0  0
  141.1540   80.1150  222.1360 C   0  0  0  0  0  0  0  0  0  0  0  0
  141.5300   81.8130  222.0860 Cl  0  0  0  0  0  0  0  0  0  0  0  0
  140.2420   79.6220  223.0490 C   0  0  0  0  0  0  0  0  0  0  0  0
  139.9390   78.2690  223.0930 C   0  0  0  0  0  0  0  0  0  0  0  0
  140.5640   77.3940  222.2040 C   0  0  0  0  0  0  0  0  0  0  0  0
  140.2670   76.0810  222.2500 N   0  0  0  0  0  0  0  0  0  0  0  0
  140.1460   70.1450  226.2230 C   0  0  0  0  0  0  0  0  0  0  0  0
  141.0346   72.2068  229.1960 H   0  0  0  0  0  0  0  0  0  0  0  0
  141.9409   72.0839  227.6500 H   0  0  0  0  0  0  0  0  0  0  0  0
  140.1473   71.9849  227.6500 H   0  0  0  0  0  0  0  0  0  0  0  0
  140.9836   67.6840  228.4545 H   0  0  0  0  0  0  0  0  0  0  0  0
  140.0315   66.3200  226.5889 H   0  0  0  0  0  0  0  0  0  0  0  0
  139.1777   67.4180  224.5454 H   0  0  0  0  0  0  0  0  0  0  0  0
  138.3420   69.6980  223.5000 H   0  0  0  0  0  0  0  0  0  0  0  0
  139.4232   71.4317  221.4484 H   0  0  0  0  0  0  0  0  0  0  0  0
  137.9636   71.8844  222.4116 H   0  0  0  0  0  0  0  0  0  0  0  0
  138.8500   74.0520  222.7900 H   0  0  0  0  0  0  0  0  0  0  0  0
  142.2393   74.9717  219.8016 H   0  0  0  0  0  0  0  0  0  0  0  0
  142.8179   77.3568  219.6720 H   0  0  0  0  0  0  0  0  0  0  0  0
  142.5125   79.6430  220.5137 H   0  0  0  0  0  0  0  0  0  0  0  0
  139.7495   80.3115  223.7504 H   0  0  0  0  0  0  0  0  0  0  0  0
  139.2106   77.8884  223.8242 H   0  0  0  0  0  0  0  0  0  0  0  0
  140.1894   71.2410  226.1405 H   0  0  0  0  0  0  0  0  0  0  0  0
  1  2  1  0
  2  3  1  0
  3  4  2  0
  4  5  1  0
  5  6  2  0
  6  7  1  0
  7  8  1  0
  8  9  1  0
  9 10  2  0
  9 11  1  0
 11 12  1  0
 12 13  1  0
 13 14  2  0
 13 15  1  0
 15 16  2  0
 16 17  1  0
 17 18  2  0
 18 19  1  0
 19 20  2  0
 20 21  1  0
 20 22  1  0
 22 23  2  0
 23 24  1  0
 24 25  2  0
  7 26  2  0
 26  3  1  0
 25 15  1  0
 24 18  1  0
  1 27  1  0
  1 28  1  0
  1 29  1  0
  4 30  1  0
  5 31  1  0
  6 32  1  0
  8 33  1  0
 11 34  1  0
 11 35  1  0
 12 36  1  0
 16 37  1  0
 17 38  1  0
 19 39  1  0
 22 40  1  0
 23 41  1  0
 26 42  1  0
M  END
>  <smiles>  (12) 
COc1cccc(NC(=O)CNC(=O)c2ccc3cc(Cl)ccc3n2)c1

>  <score_type>  (12) 
oracle

>  <origin>  (12) 
autodockgpu

>  <m_score__min__energy>  (12) 
-8.8100000000000005

>  <m_primary>  (12) 
energy

>  <rmsd>  (12) 
11.245684666697674

>  <m_score__min__rmsd>  (12) 
11.245684666697674

>  <meeko>  (12) 
{"free_energy": -8.04, "intermolecular_energy": -9.53, "internal_energy": -1.13, "cluster_size": 20, "cluster_id": 2, "rank_in_cluster": 2}

>  <energy>  (12) 
-8.35

>  <cluster_rmsd>  (12) 
0.42

>  <cluster>  (12) 
1

$$$$

     RDKit          3D

 42 44  0  0  0  0  0  0  0  0999 V2000
  141.0640   71.8360  228.2080 C   0  0  0  0  0  0  0  0  0  0  0  0
  141.1840   70.4430  228.3620 O   0  0  0  0  0  0  0  0  0  0  0  0
  140.6440   69.6260  227.3830 C   0  0  0  0  0  0  0  0  0  0  0  0
  140.5620   68.2610  227.6140 C   0  0  0  0  0  0  0  0  0  0  0  0
  140.0170   67.5050  226.6040 C   0  0  0  0  0  0  0  0  0  0  0  0
  139.5760   68.1060  225.4190 C   0  0  0  0  0  0  0  0  0  0  0  0
  139.6610   69.4580  225.2010 C   0  0  0  0  0  0  0  0  0  0  0  0
  139.2390   70.1320  224.0400 N   0  0  0  0  0  0  0  0  0  0  0  0
  139.6770   71.4060  223.6130 C   0  0  0  0  0  0  0  0  0  0  0  0
  140.5130   72.1000  224.2310 O   0  0  0  0  0  0  0  0  0  0  0  0
  139.1350   72.0030  222.3460 C   0  0  0  0  0  0  0  0  0  0  0  0
  139.4800   73.4050  222.2480 N   0  0  0  0  0  0  0  0  0  0  0  0
  140.5770   73.8220  221.4820 C   0  0  0  0  0  0  0  0  0  0  0  0
  141.3200   73.0190  220.8410 O   0  0  0  0  0  0  0  0  0  0  0  0
  140.8870   75.2550  221.4140 C   0  0  0  0  0  0  0  0  0  0  0  0
  141.7850   75.7520  220.4890 C   0  0  0  0  0  0  0  0  0  0  0  0
  142.0930   77.0820  220.4010 C   0  0  0  0  0  0  0  0  0  0  0  0
  141.4740   77.9700  221.2850 C   0  0  0  0  0  0  0  0  0  0  0  0
  141.7650   79.3360  221.2250 C   0  0  0  0  0  0  0  0  0  0  0  0
  141.1290   80.1860  222.1200 C   0  0  0  0  0  0  0  0  0  0  0  0
  141.4790   81.8890  222.0600 Cl  0  0  0  0  0  0  0  0  0  0  0  0
  140.2320   79.6830  223.0420 C   0  0  0  0  0  0  0  0  0  0  0  0
  139.9500   78.3250  223.0930 C   0  0  0  0  0  0  0  0  0  0  0  0
  140.5800   77.4570  222.2030 C   0  0  0  0  0  0  0  0  0  0  0  0
  140.3030   76.1390  222.2560 N   0  0  0  0  0  0  0  0  0  0  0  0
  140.2100   70.2160  226.2180 C   0  0  0  0  0  0  0  0  0  0  0  0
  141.0230   72.3122  229.1987 H   0  0  0  0  0  0  0  0  0  0  0  0
  141.9324   72.2196  227.6524 H   0  0  0  0  0  0  0  0  0  0  0  0
  140.1428   72.0655  227.6524 H   0  0  0  0  0  0  0  0  0  0  0  0
  140.9135   67.8087  228.5531 H   0  0  0  0  0  0  0  0  0  0  0  0
  139.9263   66.4158  226.7280 H   0  0  0  0  0  0  0  0  0  0  0  0
  139.1447   67.4697  224.6322 H   0  0  0  0  0  0  0  0  0  0  0  0
  138.5260   69.6660  223.4080 H   0  0  0  0  0  0  0  0  0  0  0  0
  139.5593   71.4664  221.4846 H   0  0  0  0  0  0  0  0  0  0  0  0
  138.0390   71.9101  222.3540 H   0  0  0  0  0  0  0  0  0  0  0  0
  138.8840   74.0970  222.7670 H   0  0  0  0  0  0  0  0  0  0  0  0
  142.2717   75.0503  219.7957 H   0  0  0  0  0  0  0  0  0  0  0  0
  142.8117   77.4444  219.6513 H   0  0  0  0  0  0  0  0  0  0  0  0
  142.4803   79.7279  220.4869 H   0  0  0  0  0  0  0  0  0  0  0  0
  139.7347   80.3675  223.7449 H   0  0  0  0  0  0  0  0  0  0  0  0
  139.2335   77.9361  223.8315 H   0  0  0  0  0  0  0  0  0  0  0  0
  140.3012   71.3052  226.0945 H   0  0  0  0  0  0  0  0  0  0  0  0
  1  2  1  0
  2  3  1  0
  3  4  2  0
  4  5  1  0
  5  6  2  0
  6  7  1  0
  7  8  1  0
  8  9  1  0
  9 10  2  0
  9 11  1  0
 11 12  1  0
 12 13  1  0
 13 14  2  0
 13 15  1  0
 15 16  2  0
 16 17  1  0
 17 18  2  0
 18 19  1  0
 19 20  2  0
 20 21  1  0
 20 22  1  0
 22 23  2  0
 23 24  1  0
 24 25  2  0
  7 26  2  0
 26  3  1  0
 25 15  1  0
 24 18  1  0
  1 27  1  0
  1 28  1  0
  1 29  1  0
  4 30  1  0
  5 31  1  0
  6 32  1  0
  8 33  1  0
 11 34  1  0
 11 35  1  0
 12 36  1  0
 16 37  1  0
 17 38  1  0
 19 39  1  0
 22 40  1  0
 23 41  1  0
 26 42  1  0
M  END
>  <smiles>  (13) 
COc1cccc(NC(=O)CNC(=O)c2ccc3cc(Cl)ccc3n2)c1

>  <score_type>  (13) 
oracle

>  <origin>  (13) 
autodockgpu

>  <m_score__min__energy>  (13) 
-8.8100000000000005

>  <m_primary>  (13) 
energy

>  <rmsd>  (13) 
11.222300321197775

>  <m_score__min__rmsd>  (13) 
11.222300321197775

>  <meeko>  (13) 
{"free_energy": -8.04, "intermolecular_energy": -9.53, "internal_energy": -1.1, "cluster_size": 20, "cluster_id": 2, "rank_in_cluster": 3}

>  <energy>  (13) 
-8.09

>  <cluster_rmsd>  (13) 
1.06

>  <cluster>  (13) 
1

$$$$

     RDKit          3D

 42 44  0  0  0  0  0  0  0  0999 V2000
  141.1120   71.8650  228.3070 C   0  0  0  0  0  0  0  0  0  0  0  0
  141.3970   70.4950  228.4490 O   0  0  0  0  0  0  0  0  0  0  0  0
  140.8960   69.6200  227.5000 C   0  0  0  0  0  0  0  0  0  0  0  0
  140.9950   68.2550  227.7240 C   0  0  0  0  0  0  0  0  0  0  0  0
  140.4800   67.4380  226.7450 C   0  0  0  0  0  0  0  0  0  0  0  0
  139.8930   67.9830  225.5970 C   0  0  0  0  0  0  0  0  0  0  0  0
  139.7990   69.3350  225.3860 C   0  0  0  0  0  0  0  0  0  0  0  0
  139.2240   69.9530  224.2610 N   0  0  0  0  0  0  0  0  0  0  0  0
  137.8590   70.2820  224.1000 C   0  0  0  0  0  0  0  0  0  0  0  0
  136.9810   70.0560  224.9610 O   0  0  0  0  0  0  0  0  0  0  0  0
  137.3860   70.9430  222.8360 C   0  0  0  0  0  0  0  0  0  0  0  0
  137.9980   72.2440  222.6750 N   0  0  0  0  0  0  0  0  0  0  0  0
  139.2520   72.3760  222.0660 C   0  0  0  0  0  0  0  0  0  0  0  0
  139.9170   71.3900  221.6260 O   0  0  0  0  0  0  0  0  0  0  0  0
  139.8320   73.7170  221.9260 C   0  0  0  0  0  0  0  0  0  0  0  0
  141.0670   73.9080  221.3360 C   0  0  0  0  0  0  0  0  0  0  0  0
  141.6320   75.1450  221.1910 C   0  0  0  0  0  0  0  0  0  0  0  0
  140.9300   76.2590  221.6600 C   0  0  0  0  0  0  0  0  0  0  0  0
  141.4760   77.5390  221.5290 C   0  0  0  0  0  0  0  0  0  0  0  0
  140.7470   78.6190  222.0070 C   0  0  0  0  0  0  0  0  0  0  0  0
  141.4110   80.2190  221.8530 Cl  0  0  0  0  0  0  0  0  0  0  0  0
  139.5130   78.4230  222.5960 C   0  0  0  0  0  0  0  0  0  0  0  0
  138.9790   77.1480  222.7200 C   0  0  0  0  0  0  0  0  0  0  0  0
  139.6970   76.0510  222.2460 C   0  0  0  0  0  0  0  0  0  0  0  0
  139.1750   74.8150  222.3690 N   0  0  0  0  0  0  0  0  0  0  0  0
  140.3180   70.1530  226.3710 C   0  0  0  0  0  0  0  0  0  0  0  0
  141.0164   72.3246  229.3018 H   0  0  0  0  0  0  0  0  0  0  0  0
  141.9277   72.3538  227.7541 H   0  0  0  0  0  0  0  0  0  0  0  0
  140.1690   71.9880  227.7541 H   0  0  0  0  0  0  0  0  0  0  0  0
  141.4597   67.8483  228.6343 H   0  0  0  0  0  0  0  0  0  0  0  0
  140.5298   66.3457  226.8652 H   0  0  0  0  0  0  0  0  0  0  0  0
  139.4913   67.3000  224.8340 H   0  0  0  0  0  0  0  0  0  0  0  0
  139.8480   70.2070  223.4410 H   0  0  0  0  0  0  0  0  0  0  0  0
  137.6531   70.3103  221.9767 H   0  0  0  0  0  0  0  0  0  0  0  0
  136.2951   71.0718  222.8931 H   0  0  0  0  0  0  0  0  0  0  0  0
  137.4730   73.0830  223.0290 H   0  0  0  0  0  0  0  0  0  0  0  0
  141.6178   73.0297  220.9682 H   0  0  0  0  0  0  0  0  0  0  0  0
  142.6173   75.2607  220.7157 H   0  0  0  0  0  0  0  0  0  0  0  0
  142.4593   77.6868  221.0586 H   0  0  0  0  0  0  0  0  0  0  0  0
  138.9466   79.2881  222.9713 H   0  0  0  0  0  0  0  0  0  0  0  0
  137.9948   77.0038  223.1896 H   0  0  0  0  0  0  0  0  0  0  0  0
  140.2684   71.2453  226.2510 H   0  0  0  0  0  0  0  0  0  0  0  0
  1  2  1  0
  2  3  1  0
  3  4  2  0
  4  5  1  0
  5  6  2  0
  6  7  1  0
  7  8  1  0
  8  9  1  0
  9 10  2  0
  9 11  1  0
 11 12  1  0
 12 13  1  0
 13 14  2  0
 13 15  1  0
 15 16  2  0
 16 17  1  0
 17 18  2  0
 18 19  1  0
 19 20  2  0
 20 21  1  0
 20 22  1  0
 22 23  2  0
 23 24  1  0
 24 25  2  0
  7 26  2  0
 26  3  1  0
 25 15  1  0
 24 18  1  0
  1 27  1  0
  1 28  1  0
  1 29  1  0
  4 30  1  0
  5 31  1  0
  6 32  1  0
  8 33  1  0
 11 34  1  0
 11 35  1  0
 12 36  1  0
 16 37  1  0
 17 38  1  0
 19 39  1  0
 22 40  1  0
 23 41  1  0
 26 42  1  0
M  END
>  <smiles>  (14) 
COc1cccc(NC(=O)CNC(=O)c2ccc3cc(Cl)ccc3n2)c1

>  <score_type>  (14) 
oracle

>  <origin>  (14) 
autodockgpu

>  <m_score__min__energy>  (14) 
-8.8100000000000005

>  <m_primary>  (14) 
energy

>  <rmsd>  (14) 
11.005179805031332

>  <m_score__min__rmsd>  (14) 
11.005179805031332

>  <meeko>  (14) 
{"free_energy": -7.28, "intermolecular_energy": -8.77, "internal_energy": -1.87, "cluster_size": 20, "cluster_id": 2, "rank_in_cluster": 17}

>  <energy>  (14) 
-7.93

>  <cluster_rmsd>  (14) 
0.9

>  <cluster>  (14) 
1

$$$$

     RDKit          3D

 42 44  0  0  0  0  0  0  0  0999 V2000
  141.1100   71.7030  228.2090 C   0  0  0  0  0  0  0  0  0  0  0  0
  141.3320   70.3200  228.3350 O   0  0  0  0  0  0  0  0  0  0  0  0
  140.7230   69.4730  227.4240 C   0  0  0  0  0  0  0  0  0  0  0  0
  141.0500   68.1260  227.4340 C   0  0  0  0  0  0  0  0  0  0  0  0
  140.4120   67.3370  226.5060 C   0  0  0  0  0  0  0  0  0  0  0  0
  139.4870   67.8920  225.6140 C   0  0  0  0  0  0  0  0  0  0  0  0
  139.1700   69.2260  225.6130 C   0  0  0  0  0  0  0  0  0  0  0  0
  138.2530   69.8530  224.7490 N   0  0  0  0  0  0  0  0  0  0  0  0
  138.5080   70.9870  223.9450 C   0  0  0  0  0  0  0  0  0  0  0  0
  139.6080   71.5790  223.9050 O   0  0  0  0  0  0  0  0  0  0  0  0
  137.4260   71.5490  223.0690 C   0  0  0  0  0  0  0  0  0  0  0  0
  136.4910   72.3350  223.8460 N   0  0  0  0  0  0  0  0  0  0  0  0
  135.4870   71.7160  224.6000 C   0  0  0  0  0  0  0  0  0  0  0  0
  135.3330   70.4580  224.6510 O   0  0  0  0  0  0  0  0  0  0  0  0
  134.5620   72.5560  225.3700 C   0  0  0  0  0  0  0  0  0  0  0  0
  133.5030   72.0070  226.0660 C   0  0  0  0  0  0  0  0  0  0  0  0
  132.6250   72.7640  226.7930 C   0  0  0  0  0  0  0  0  0  0  0  0
  132.8110   74.1490  226.8310 C   0  0  0  0  0  0  0  0  0  0  0  0
  131.9350   74.9550  227.5630 C   0  0  0  0  0  0  0  0  0  0  0  0
  132.1540   76.3260  227.5760 C   0  0  0  0  0  0  0  0  0  0  0  0
  131.0730   77.3440  228.4820 Cl  0  0  0  0  0  0  0  0  0  0  0  0
  133.2150   76.8690  226.8790 C   0  0  0  0  0  0  0  0  0  0  0  0
  134.0800   76.0600  226.1550 C   0  0  0  0  0  0  0  0  0  0  0  0
  133.8750   74.6820  226.1300 C   0  0  0  0  0  0  0  0  0  0  0  0
  134.7170   73.9000  225.4270 N   0  0  0  0  0  0  0  0  0  0  0  0
  139.8130   70.0160  226.5470 C   0  0  0  0  0  0  0  0  0  0  0  0
  141.0374   72.1553  229.2091 H   0  0  0  0  0  0  0  0  0  0  0  0
  141.9463   72.1601  227.6597 H   0  0  0  0  0  0  0  0  0  0  0  0
  140.1727   71.8754  227.6597 H   0  0  0  0  0  0  0  0  0  0  0  0
  141.7796   67.7112  228.1451 H   0  0  0  0  0  0  0  0  0  0  0  0
  140.6306   66.2597  226.4642 H   0  0  0  0  0  0  0  0  0  0  0  0
  138.9948   67.2317  224.8848 H   0  0  0  0  0  0  0  0  0  0  0  0
  137.2700   69.4610  224.6750 H   0  0  0  0  0  0  0  0  0  0  0  0
  137.8816   72.1885  222.2987 H   0  0  0  0  0  0  0  0  0  0  0  0
  136.8820   70.7148  222.6019 H   0  0  0  0  0  0  0  0  0  0  0  0
  136.5910   73.3810  223.8250 H   0  0  0  0  0  0  0  0  0  0  0  0
  133.3595   70.9169  226.0347 H   0  0  0  0  0  0  0  0  0  0  0  0
  131.7917   72.2934  227.3353 H   0  0  0  0  0  0  0  0  0  0  0  0
  131.0923   74.5139  228.1156 H   0  0  0  0  0  0  0  0  0  0  0  0
  133.3769   77.9569  226.8977 H   0  0  0  0  0  0  0  0  0  0  0  0
  134.9223   76.5041  225.6043 H   0  0  0  0  0  0  0  0  0  0  0  0
  139.5942   71.0932  226.5896 H   0  0  0  0  0  0  0  0  0  0  0  0
  1  2  1  0
  2  3  1  0
  3  4  2  0
  4  5  1  0
  5  6  2  0
  6  7  1  0
  7  8  1  0
  8  9  1  0
  9 10  2  0
  9 11  1  0
 11 12  1  0
 12 13  1  0
 13 14  2  0
 13 15  1  0
 15 16  2  0
 16 17  1  0
 17 18  2  0
 18 19  1  0
 19 20  2  0
 20 21  1  0
 20 22  1  0
 22 23  2  0
 23 24  1  0
 24 25  2  0
  7 26  2  0
 26  3  1  0
 25 15  1  0
 24 18  1  0
  1 27  1  0
  1 28  1  0
  1 29  1  0
  4 30  1  0
  5 31  1  0
  6 32  1  0
  8 33  1  0
 11 34  1  0
 11 35  1  0
 12 36  1  0
 16 37  1  0
 17 38  1  0
 19 39  1  0
 22 40  1  0
 23 41  1  0
 26 42  1  0
M  END
>  <smiles>  (15) 
COc1cccc(NC(=O)CNC(=O)c2ccc3cc(Cl)ccc3n2)c1

>  <score_type>  (15) 
oracle

>  <origin>  (15) 
autodockgpu

>  <m_score__min__energy>  (15) 
-8.8100000000000005

>  <m_primary>  (15) 
energy

>  <rmsd>  (15) 
11.427751822021621

>  <m_score__min__rmsd>  (15) 
11.427751822021621

>  <meeko>  (15) 
{"free_energy": -7.39, "intermolecular_energy": -8.88, "internal_energy": -1.88, "cluster_size": 4, "cluster_id": 3, "rank_in_cluster": 3}

>  <energy>  (15) 
-7.9

>  <cluster_rmsd>  (15) 
1.65

>  <cluster>  (15) 
1

$$$$

     RDKit          3D

 42 44  0  0  0  0  0  0  0  0999 V2000
  141.5070   81.3350  219.7670 C   0  0  0  0  0  0  0  0  0  0  0  0
  141.4820   81.6370  221.1400 O   0  0  0  0  0  0  0  0  0  0  0  0
  141.6180   80.5960  222.0430 C   0  0  0  0  0  0  0  0  0  0  0  0
  142.0620   80.8720  223.3280 C   0  0  0  0  0  0  0  0  0  0  0  0
  142.1750   79.7970  224.1770 C   0  0  0  0  0  0  0  0  0  0  0  0
  141.8530   78.5060  223.7410 C   0  0  0  0  0  0  0  0  0  0  0  0
  141.4150   78.2440  222.4680 C   0  0  0  0  0  0  0  0  0  0  0  0
  141.0730   76.9770  221.9610 N   0  0  0  0  0  0  0  0  0  0  0  0
  139.7750   76.5500  221.5960 C   0  0  0  0  0  0  0  0  0  0  0  0
  138.7550   77.2660  221.6840 O   0  0  0  0  0  0  0  0  0  0  0  0
  139.5600   75.1610  221.0670 C   0  0  0  0  0  0  0  0  0  0  0  0
  139.6440   74.1850  222.1330 N   0  0  0  0  0  0  0  0  0  0  0  0
  139.8560   72.8300  221.8480 C   0  0  0  0  0  0  0  0  0  0  0  0
  139.9850   72.3810  220.6700 O   0  0  0  0  0  0  0  0  0  0  0  0
  139.9320   71.8780  222.9630 C   0  0  0  0  0  0  0  0  0  0  0  0
  139.5210   70.5670  222.8170 C   0  0  0  0  0  0  0  0  0  0  0  0
  139.5810   69.6570  223.8370 C   0  0  0  0  0  0  0  0  0  0  0  0
  140.0790   70.0740  225.0740 C   0  0  0  0  0  0  0  0  0  0  0  0
  140.1550   69.1720  226.1390 C   0  0  0  0  0  0  0  0  0  0  0  0
  140.6560   69.6250  227.3530 C   0  0  0  0  0  0  0  0  0  0  0  0
  140.7580   68.5160  228.6890 Cl  0  0  0  0  0  0  0  0  0  0  0  0
  141.0660   70.9360  227.4920 C   0  0  0  0  0  0  0  0  0  0  0  0
  140.9870   71.8240  226.4290 C   0  0  0  0  0  0  0  0  0  0  0  0
  140.4860   71.3870  225.2030 C   0  0  0  0  0  0  0  0  0  0  0  0
  140.4110   72.2520  224.1730 N   0  0  0  0  0  0  0  0  0  0  0  0
  141.3010   79.3270  221.6170 C   0  0  0  0  0  0  0  0  0  0  0  0
  141.5971   80.2470  219.6325 H   0  0  0  0  0  0  0  0  0  0  0  0
  140.5767   81.6868  219.2972 H   0  0  0  0  0  0  0  0  0  0  0  0
  142.3668   81.8350  219.2972 H   0  0  0  0  0  0  0  0  0  0  0  0
  142.3098   81.8943  223.6496 H   0  0  0  0  0  0  0  0  0  0  0  0
  142.5219   79.9525  225.2092 H   0  0  0  0  0  0  0  0  0  0  0  0
  141.9554   77.6689  224.4473 H   0  0  0  0  0  0  0  0  0  0  0  0
  141.8380   76.2540  221.8290 H   0  0  0  0  0  0  0  0  0  0  0  0
  138.5647   75.1024  220.6022 H   0  0  0  0  0  0  0  0  0  0  0  0
  140.3428   74.9414  220.3260 H   0  0  0  0  0  0  0  0  0  0  0  0
  139.5410   74.5250  223.1220 H   0  0  0  0  0  0  0  0  0  0  0  0
  139.1299   70.2418  221.8417 H   0  0  0  0  0  0  0  0  0  0  0  0
  139.2447   68.6205  223.6865 H   0  0  0  0  0  0  0  0  0  0  0  0
  139.8262   68.1292  226.0189 H   0  0  0  0  0  0  0  0  0  0  0  0
  141.4607   71.2812  228.4590 H   0  0  0  0  0  0  0  0  0  0  0  0
  141.3174   72.8659  226.5523 H   0  0  0  0  0  0  0  0  0  0  0  0
  140.9521   79.1722  220.5853 H   0  0  0  0  0  0  0  0  0  0  0  0
  1  2  1  0
  2  3  1  0
  3  4  2  0
  4  5  1  0
  5  6  2  0
  6  7  1  0
  7  8  1  0
  8  9  1  0
  9 10  2  0
  9 11  1  0
 11 12  1  0
 12 13  1  0
 13 14  2  0
 13 15  1  0
 15 16  2  0
 16 17  1  0
 17 18  2  0
 18 19  1  0
 19 20  2  0
 20 21  1  0
 20 22  1  0
 22 23  2  0
 23 24  1  0
 24 25  2  0
  7 26  2  0
 26  3  1  0
 25 15  1  0
 24 18  1  0
  1 27  1  0
  1 28  1  0
  1 29  1  0
  4 30  1  0
  5 31  1  0
  6 32  1  0
  8 33  1  0
 11 34  1  0
 11 35  1  0
 12 36  1  0
 16 37  1  0
 17 38  1  0
 19 39  1  0
 22 40  1  0
 23 41  1  0
 26 42  1  0
M  END
>  <smiles>  (16) 
COc1cccc(NC(=O)CNC(=O)c2ccc3cc(Cl)ccc3n2)c1

>  <score_type>  (16) 
oracle

>  <origin>  (16) 
autodockgpu

>  <m_score__min__energy>  (16) 
-8.8100000000000005

>  <m_primary>  (16) 
energy

>  <rmsd>  (16) 
3.905704132070932

>  <m_score__min__rmsd>  (16) 
3.905704132070932

>  <meeko>  (16) 
{"free_energy": -8.72, "intermolecular_energy": -10.21, "internal_energy": -1.02, "cluster_size": 26, "cluster_id": 1, "rank_in_cluster": 7}

>  <energy>  (16) 
-7.88

>  <cluster_rmsd>  (16) 
1.7

>  <cluster>  (16) 
1

$$$$

     RDKit          3D

 42 44  0  0  0  0  0  0  0  0999 V2000
  141.0510   71.8810  228.0290 C   0  0  0  0  0  0  0  0  0  0  0  0
  141.3730   70.5130  227.9920 O   0  0  0  0  0  0  0  0  0  0  0  0
  140.7220   69.7110  227.0700 C   0  0  0  0  0  0  0  0  0  0  0  0
  140.6320   68.3480  227.3090 C   0  0  0  0  0  0  0  0  0  0  0  0
  139.9730   67.6050  226.3570 C   0  0  0  0  0  0  0  0  0  0  0  0
  139.4340   68.2190  225.2200 C   0  0  0  0  0  0  0  0  0  0  0  0
  139.5290   69.5690  224.9940 C   0  0  0  0  0  0  0  0  0  0  0  0
  139.0130   70.2540  223.8790 N   0  0  0  0  0  0  0  0  0  0  0  0
  137.6750   70.6780  223.7090 C   0  0  0  0  0  0  0  0  0  0  0  0
  136.7720   70.4880  224.5520 O   0  0  0  0  0  0  0  0  0  0  0  0
  137.2670   71.4020  222.4590 C   0  0  0  0  0  0  0  0  0  0  0  0
  137.9380   72.6800  222.3600 N   0  0  0  0  0  0  0  0  0  0  0  0
  139.2170   72.7770  221.7980 C   0  0  0  0  0  0  0  0  0  0  0  0
  139.8550   71.7770  221.3490 O   0  0  0  0  0  0  0  0  0  0  0  0
  139.8570   74.0950  221.7210 C   0  0  0  0  0  0  0  0  0  0  0  0
  141.0910   74.2600  221.1220 C   0  0  0  0  0  0  0  0  0  0  0  0
  141.7130   75.4760  221.0350 C   0  0  0  0  0  0  0  0  0  0  0  0
  141.0700   76.5940  221.5740 C   0  0  0  0  0  0  0  0  0  0  0  0
  141.6740   77.8520  221.5040 C   0  0  0  0  0  0  0  0  0  0  0  0
  141.0030   78.9380  222.0510 C   0  0  0  0  0  0  0  0  0  0  0  0
  141.7390   80.5110  221.9730 Cl  0  0  0  0  0  0  0  0  0  0  0  0
  139.7690   78.7660  222.6480 C   0  0  0  0  0  0  0  0  0  0  0  0
  139.1780   77.5130  222.7130 C   0  0  0  0  0  0  0  0  0  0  0  0
  139.8370   76.4110  222.1690 C   0  0  0  0  0  0  0  0  0  0  0  0
  139.2590   75.1960  222.2330 N   0  0  0  0  0  0  0  0  0  0  0  0
  140.1910   70.3120  225.9530 C   0  0  0  0  0  0  0  0  0  0  0  0
  140.9733   72.2112  229.0754 H   0  0  0  0  0  0  0  0  0  0  0  0
  141.8381   72.4569  227.5203 H   0  0  0  0  0  0  0  0  0  0  0  0
  140.0896   72.0453  227.5203 H   0  0  0  0  0  0  0  0  0  0  0  0
  141.0635   67.8866  228.2096 H   0  0  0  0  0  0  0  0  0  0  0  0
  139.8686   66.5181  226.4904 H   0  0  0  0  0  0  0  0  0  0  0  0
  138.9139   67.5945  224.4787 H   0  0  0  0  0  0  0  0  0  0  0  0
  139.6640   70.4870  223.0750 H   0  0  0  0  0  0  0  0  0  0  0  0
  137.5306   70.7882  221.5850 H   0  0  0  0  0  0  0  0  0  0  0  0
  136.1815   71.5768  222.4926 H   0  0  0  0  0  0  0  0  0  0  0  0
  137.4370   73.5290  222.7230 H   0  0  0  0  0  0  0  0  0  0  0  0
  141.5939   73.3784  220.6979 H   0  0  0  0  0  0  0  0  0  0  0  0
  142.6966   75.5714  220.5519 H   0  0  0  0  0  0  0  0  0  0  0  0
  142.6571   77.9791  221.0272 H   0  0  0  0  0  0  0  0  0  0  0  0
  139.2482   79.6345  223.0775 H   0  0  0  0  0  0  0  0  0  0  0  0
  138.1950   77.3892  223.1909 H   0  0  0  0  0  0  0  0  0  0  0  0
  140.2945   71.3991  225.8209 H   0  0  0  0  0  0  0  0  0  0  0  0
  1  2  1  0
  2  3  1  0
  3  4  2  0
  4  5  1  0
  5  6  2  0
  6  7  1  0
  7  8  1  0
  8  9  1  0
  9 10  2  0
  9 11  1  0
 11 12  1  0
 12 13  1  0
 13 14  2  0
 13 15  1  0
 15 16  2  0
 16 17  1  0
 17 18  2  0
 18 19  1  0
 19 20  2  0
 20 21  1  0
 20 22  1  0
 22 23  2  0
 23 24  1  0
 24 25  2  0
  7 26  2  0
 26  3  1  0
 25 15  1  0
 24 18  1  0
  1 27  1  0
  1 28  1  0
  1 29  1  0
  4 30  1  0
  5 31  1  0
  6 32  1  0
  8 33  1  0
 11 34  1  0
 11 35  1  0
 12 36  1  0
 16 37  1  0
 17 38  1  0
 19 39  1  0
 22 40  1  0
 23 41  1  0
 26 42  1  0
M  END
>  <smiles>  (17) 
COc1cccc(NC(=O)CNC(=O)c2ccc3cc(Cl)ccc3n2)c1

>  <score_type>  (17) 
oracle

>  <origin>  (17) 
autodockgpu

>  <m_score__min__energy>  (17) 
-8.8100000000000005

>  <m_primary>  (17) 
energy

>  <rmsd>  (17) 
10.896633259238598

>  <m_score__min__rmsd>  (17) 
10.896633259238598

>  <meeko>  (17) 
{"free_energy": -7.11, "intermolecular_energy": -8.6, "internal_energy": -1.87, "cluster_size": 20, "cluster_id": 2, "rank_in_cluster": 19}

>  <energy>  (17) 
-7.76

>  <cluster_rmsd>  (17) 
1.71

>  <cluster>  (17) 
1

$$$$

     RDKit          3D

 42 44  0  0  0  0  0  0  0  0999 V2000
  137.9150   80.6600  224.5600 C   0  0  0  0  0  0  0  0  0  0  0  0
  138.8290   81.0270  223.5560 O   0  0  0  0  0  0  0  0  0  0  0  0
  139.9970   80.2940  223.4330 C   0  0  0  0  0  0  0  0  0  0  0  0
  141.1930   80.8570  223.8530 C   0  0  0  0  0  0  0  0  0  0  0  0
  142.3170   80.0800  223.7050 C   0  0  0  0  0  0  0  0  0  0  0  0
  142.2290   78.7940  223.1580 C   0  0  0  0  0  0  0  0  0  0  0  0
  141.0410   78.2460  222.7460 C   0  0  0  0  0  0  0  0  0  0  0  0
  140.8760   76.9650  222.1890 N   0  0  0  0  0  0  0  0  0  0  0  0
  139.7590   76.5190  221.4460 C   0  0  0  0  0  0  0  0  0  0  0  0
  138.7630   77.2290  221.1910 O   0  0  0  0  0  0  0  0  0  0  0  0
  139.7210   75.1160  220.9120 C   0  0  0  0  0  0  0  0  0  0  0  0
  139.6830   74.1540  221.9930 N   0  0  0  0  0  0  0  0  0  0  0  0
  140.2090   72.8660  221.8250 C   0  0  0  0  0  0  0  0  0  0  0  0
  140.7380   72.4690  220.7440 O   0  0  0  0  0  0  0  0  0  0  0  0
  140.1470   71.9260  222.9500 C   0  0  0  0  0  0  0  0  0  0  0  0
  139.5830   70.6730  222.8080 C   0  0  0  0  0  0  0  0  0  0  0  0
  139.5120   69.7740  223.8370 C   0  0  0  0  0  0  0  0  0  0  0  0
  140.0310   70.1430  225.0820 C   0  0  0  0  0  0  0  0  0  0  0  0
  139.9750   69.2520  226.1570 C   0  0  0  0  0  0  0  0  0  0  0  0
  140.5010   69.6560  227.3770 C   0  0  0  0  0  0  0  0  0  0  0  0
  140.4410   68.5600  228.7260 Cl  0  0  0  0  0  0  0  0  0  0  0  0
  141.0640   70.9100  227.5130 C   0  0  0  0  0  0  0  0  0  0  0  0
  141.1140   71.7880  226.4390 C   0  0  0  0  0  0  0  0  0  0  0  0
  140.5900   71.3990  225.2070 C   0  0  0  0  0  0  0  0  0  0  0  0
  140.6410   72.2540  224.1670 N   0  0  0  0  0  0  0  0  0  0  0  0
  139.9130   79.0300  222.8960 C   0  0  0  0  0  0  0  0  0  0  0  0
  138.3637   80.8402  225.5480 H   0  0  0  0  0  0  0  0  0  0  0  0
  136.9985   81.2599  224.4586 H   0  0  0  0  0  0  0  0  0  0  0  0
  137.6679   79.5929  224.4586 H   0  0  0  0  0  0  0  0  0  0  0  0
  141.2394   81.8693  224.2808 H   0  0  0  0  0  0  0  0  0  0  0  0
  143.2954   80.4723  224.0194 H   0  0  0  0  0  0  0  0  0  0  0  0
  143.1489   78.1998  223.0546 H   0  0  0  0  0  0  0  0  0  0  0  0
  141.6430   76.2450  222.3240 H   0  0  0  0  0  0  0  0  0  0  0  0
  138.8238   74.9922  220.2877 H   0  0  0  0  0  0  0  0  0  0  0  0
  140.6295   74.9411  220.3170 H   0  0  0  0  0  0  0  0  0  0  0  0
  139.2510   74.4520  222.9030 H   0  0  0  0  0  0  0  0  0  0  0  0
  139.1743   70.3863  221.8278 H   0  0  0  0  0  0  0  0  0  0  0  0
  139.0570   68.7836  223.6883 H   0  0  0  0  0  0  0  0  0  0  0  0
  139.5253   68.2550  226.0397 H   0  0  0  0  0  0  0  0  0  0  0  0
  141.4780   71.2168  228.4848 H   0  0  0  0  0  0  0  0  0  0  0  0
  141.5642   72.7844  226.5592 H   0  0  0  0  0  0  0  0  0  0  0  0
  138.9344   78.6381  222.5817 H   0  0  0  0  0  0  0  0  0  0  0  0
  1  2  1  0
  2  3  1  0
  3  4  2  0
  4  5  1  0
  5  6  2  0
  6  7  1  0
  7  8  1  0
  8  9  1  0
  9 10  2  0
  9 11  1  0
 11 12  1  0
 12 13  1  0
 13 14  2  0
 13 15  1  0
 15 16  2  0
 16 17  1  0
 17 18  2  0
 18 19  1  0
 19 20  2  0
 20 21  1  0
 20 22  1  0
 22 23  2  0
 23 24  1  0
 24 25  2  0
  7 26  2  0
 26  3  1  0
 25 15  1  0
 24 18  1  0
  1 27  1  0
  1 28  1  0
  1 29  1  0
  4 30  1  0
  5 31  1  0
  6 32  1  0
  8 33  1  0
 11 34  1  0
 11 35  1  0
 12 36  1  0
 16 37  1  0
 17 38  1  0
 19 39  1  0
 22 40  1  0
 23 41  1  0
 26 42  1  0
M  END
>  <smiles>  (18) 
COc1cccc(NC(=O)CNC(=O)c2ccc3cc(Cl)ccc3n2)c1

>  <score_type>  (18) 
oracle

>  <origin>  (18) 
autodockgpu

>  <m_score__min__energy>  (18) 
-8.8100000000000005

>  <m_primary>  (18) 
energy

>  <rmsd>  (18) 
4.329202601692056

>  <m_score__min__rmsd>  (18) 
4.329202601692056

>  <meeko>  (18) 
{"free_energy": -8.53, "intermolecular_energy": -10.02, "internal_energy": -0.8, "cluster_size": 26, "cluster_id": 1, "rank_in_cluster": 10}

>  <energy>  (18) 
-7.7

>  <cluster_rmsd>  (18) 
1.37

>  <cluster>  (18) 
1

$$$$

     RDKit          3D

 42 44  0  0  0  0  0  0  0  0999 V2000
  141.4510   81.3550  219.7490 C   0  0  0  0  0  0  0  0  0  0  0  0
  141.8070   81.6660  221.0730 O   0  0  0  0  0  0  0  0  0  0  0  0
  141.8260   80.6420  222.0040 C   0  0  0  0  0  0  0  0  0  0  0  0
  142.1980   80.9250  223.3100 C   0  0  0  0  0  0  0  0  0  0  0  0
  142.1960   79.8660  224.1870 C   0  0  0  0  0  0  0  0  0  0  0  0
  141.8340   78.5840  223.7570 C   0  0  0  0  0  0  0  0  0  0  0  0
  141.4670   78.3150  222.4630 C   0  0  0  0  0  0  0  0  0  0  0  0
  141.0910   77.0560  221.9600 N   0  0  0  0  0  0  0  0  0  0  0  0
  139.7710   76.5590  221.8640 C   0  0  0  0  0  0  0  0  0  0  0  0
  138.7580   77.1980  222.2240 O   0  0  0  0  0  0  0  0  0  0  0  0
  139.5200   75.1890  221.3040 C   0  0  0  0  0  0  0  0  0  0  0  0
  139.6160   74.1830  222.3400 N   0  0  0  0  0  0  0  0  0  0  0  0
  139.8010   72.8330  222.0140 C   0  0  0  0  0  0  0  0  0  0  0  0
  139.8930   72.4150  220.8210 O   0  0  0  0  0  0  0  0  0  0  0  0
  139.8910   71.8500  223.1000 C   0  0  0  0  0  0  0  0  0  0  0  0
  139.4820   70.5430  222.9210 C   0  0  0  0  0  0  0  0  0  0  0  0
  139.5550   69.6040  223.9140 C   0  0  0  0  0  0  0  0  0  0  0  0
  140.0640   69.9870  225.1580 C   0  0  0  0  0  0  0  0  0  0  0  0
  140.1540   69.0550  226.1960 C   0  0  0  0  0  0  0  0  0  0  0  0
  140.6660   69.4750  227.4160 C   0  0  0  0  0  0  0  0  0  0  0  0
  140.7840   68.3290  228.7200 Cl  0  0  0  0  0  0  0  0  0  0  0  0
  141.0740   70.7830  227.5890 C   0  0  0  0  0  0  0  0  0  0  0  0
  140.9820   71.7000  226.5520 C   0  0  0  0  0  0  0  0  0  0  0  0
  140.4690   71.2970  225.3200 C   0  0  0  0  0  0  0  0  0  0  0  0
  140.3810   72.1910  224.3150 N   0  0  0  0  0  0  0  0  0  0  0  0
  141.4690   79.3810  221.5840 C   0  0  0  0  0  0  0  0  0  0  0  0
  140.6226   80.6313  219.7524 H   0  0  0  0  0  0  0  0  0  0  0  0
  141.1350   82.2716  219.2293 H   0  0  0  0  0  0  0  0  0  0  0  0
  142.3168   80.9188  219.2293 H   0  0  0  0  0  0  0  0  0  0  0  0
  142.4790   81.9403  223.6265 H   0  0  0  0  0  0  0  0  0  0  0  0
  142.4817   80.0278  225.2369 H   0  0  0  0  0  0  0  0  0  0  0  0
  141.8442   77.7599  224.4855 H   0  0  0  0  0  0  0  0  0  0  0  0
  141.8460   76.3960  221.6150 H   0  0  0  0  0  0  0  0  0  0  0  0
  138.5121   75.1585  220.8644 H   0  0  0  0  0  0  0  0  0  0  0  0
  140.2797   74.9778  220.5370 H   0  0  0  0  0  0  0  0  0  0  0  0
  139.5430   74.4970  223.3400 H   0  0  0  0  0  0  0  0  0  0  0  0
  139.0815   70.2448  221.9409 H   0  0  0  0  0  0  0  0  0  0  0  0
  139.2206   68.5711  223.7370 H   0  0  0  0  0  0  0  0  0  0  0  0
  139.8273   68.0149  226.0497 H   0  0  0  0  0  0  0  0  0  0  0  0
  141.4771   71.1019  228.5615 H   0  0  0  0  0  0  0  0  0  0  0  0
  141.3118   72.7388  226.7010 H   0  0  0  0  0  0  0  0  0  0  0  0
  141.1814   79.2196  220.5346 H   0  0  0  0  0  0  0  0  0  0  0  0
  1  2  1  0
  2  3  1  0
  3  4  2  0
  4  5  1  0
  5  6  2  0
  6  7  1  0
  7  8  1  0
  8  9  1  0
  9 10  2  0
  9 11  1  0
 11 12  1  0
 12 13  1  0
 13 14  2  0
 13 15  1  0
 15 16  2  0
 16 17  1  0
 17 18  2  0
 18 19  1  0
 19 20  2  0
 20 21  1  0
 20 22  1  0
 22 23  2  0
 23 24  1  0
 24 25  2  0
  7 26  2  0
 26  3  1  0
 25 15  1  0
 24 18  1  0
  1 27  1  0
  1 28  1  0
  1 29  1  0
  4 30  1  0
  5 31  1  0
  6 32  1  0
  8 33  1  0
 11 34  1  0
 11 35  1  0
 12 36  1  0
 16 37  1  0
 17 38  1  0
 19 39  1  0
 22 40  1  0
 23 41  1  0
 26 42  1  0
M  END
>  <smiles>  (19) 
COc1cccc(NC(=O)CNC(=O)c2ccc3cc(Cl)ccc3n2)c1

>  <score_type>  (19) 
oracle

>  <origin>  (19) 
autodockgpu

>  <m_score__min__energy>  (19) 
-8.8100000000000005

>  <m_primary>  (19) 
energy

>  <rmsd>  (19) 
3.9083893265320606

>  <m_score__min__rmsd>  (19) 
3.9083893265320606

>  <meeko>  (19) 
{"free_energy": -8.78, "intermolecular_energy": -10.27, "internal_energy": -1.03, "cluster_size": 26, "cluster_id": 1, "rank_in_cluster": 3}

>  <energy>  (19) 
-7.51

>  <cluster_rmsd>  (19) 
1.45

>  <cluster>  (19) 
1

$$$$

     RDKit          3D

 42 44  0  0  0  0  0  0  0  0999 V2000
  141.0880   71.8060  228.1930 C   0  0  0  0  0  0  0  0  0  0  0  0
  141.1000   70.4100  228.3650 O   0  0  0  0  0  0  0  0  0  0  0  0
  140.5530   69.6220  227.3660 C   0  0  0  0  0  0  0  0  0  0  0  0
  140.5310   68.2450  227.5310 C   0  0  0  0  0  0  0  0  0  0  0  0
  139.9760   67.5180  226.5050 C   0  0  0  0  0  0  0  0  0  0  0  0
  139.4690   68.1590  225.3690 C   0  0  0  0  0  0  0  0  0  0  0  0
  139.4950   69.5220  225.2160 C   0  0  0  0  0  0  0  0  0  0  0  0
  139.0050   70.2340  224.1070 N   0  0  0  0  0  0  0  0  0  0  0  0
  139.6260   71.3450  223.4910 C   0  0  0  0  0  0  0  0  0  0  0  0
  140.7120   71.8350  223.8690 O   0  0  0  0  0  0  0  0  0  0  0  0
  138.9810   72.0090  222.3080 C   0  0  0  0  0  0  0  0  0  0  0  0
  139.3620   73.4030  222.2280 N   0  0  0  0  0  0  0  0  0  0  0  0
  140.4430   73.8060  221.4350 C   0  0  0  0  0  0  0  0  0  0  0  0
  141.1420   72.9980  220.7510 O   0  0  0  0  0  0  0  0  0  0  0  0
  140.7910   75.2320  221.3860 C   0  0  0  0  0  0  0  0  0  0  0  0
  141.7110   75.7160  220.4770 C   0  0  0  0  0  0  0  0  0  0  0  0
  142.0550   77.0380  220.4080 C   0  0  0  0  0  0  0  0  0  0  0  0
  141.4490   77.9320  221.2950 C   0  0  0  0  0  0  0  0  0  0  0  0
  141.7760   79.2910  221.2540 C   0  0  0  0  0  0  0  0  0  0  0  0
  141.1520   80.1470  222.1520 C   0  0  0  0  0  0  0  0  0  0  0  0
  141.5470   81.8400  222.1160 Cl  0  0  0  0  0  0  0  0  0  0  0  0
  140.2330   79.6560  223.0590 C   0  0  0  0  0  0  0  0  0  0  0  0
  139.9150   78.3060  223.0910 C   0  0  0  0  0  0  0  0  0  0  0  0
  140.5320   77.4320  222.1980 C   0  0  0  0  0  0  0  0  0  0  0  0
  140.2200   76.1210  222.2320 N   0  0  0  0  0  0  0  0  0  0  0  0
  140.0540   70.2500  226.2490 C   0  0  0  0  0  0  0  0  0  0  0  0
  141.0838   72.2967  229.1775 H   0  0  0  0  0  0  0  0  0  0  0  0
  141.9835   72.1142  227.6335 H   0  0  0  0  0  0  0  0  0  0  0  0
  140.1873   72.0988  227.6335 H   0  0  0  0  0  0  0  0  0  0  0  0
  140.9352   67.7617  228.4327 H   0  0  0  0  0  0  0  0  0  0  0  0
  139.9299   66.4214  226.5776 H   0  0  0  0  0  0  0  0  0  0  0  0
  139.0324   67.5456  224.5670 H   0  0  0  0  0  0  0  0  0  0  0  0
  138.0850   69.9340  223.6710 H   0  0  0  0  0  0  0  0  0  0  0  0
  139.2989   71.4953  221.3888 H   0  0  0  0  0  0  0  0  0  0  0  0
  137.8887   71.9488  222.4230 H   0  0  0  0  0  0  0  0  0  0  0  0
  138.8030   74.0990  222.7820 H   0  0  0  0  0  0  0  0  0  0  0  0
  142.1864   75.0099  219.7803 H   0  0  0  0  0  0  0  0  0  0  0  0
  142.7920   77.3896  219.6710 H   0  0  0  0  0  0  0  0  0  0  0  0
  142.5094   79.6726  220.5284 H   0  0  0  0  0  0  0  0  0  0  0  0
  139.7468   80.3448  223.7655 H   0  0  0  0  0  0  0  0  0  0  0  0
  139.1802   77.9277  223.8169 H   0  0  0  0  0  0  0  0  0  0  0  0
  140.1005   71.3466  226.1768 H   0  0  0  0  0  0  0  0  0  0  0  0
  1  2  1  0
  2  3  1  0
  3  4  2  0
  4  5  1  0
  5  6  2  0
  6  7  1  0
  7  8  1  0
  8  9  1  0
  9 10  2  0
  9 11  1  0
 11 12  1  0
 12 13  1  0
 13 14  2  0
 13 15  1  0
 15 16  2  0
 16 17  1  0
 17 18  2  0
 18 19  1  0
 19 20  2  0
 20 21  1  0
 20 22  1  0
 22 23  2  0
 23 24  1  0
 24 25  2  0
  7 26  2  0
 26  3  1  0
 25 15  1  0
 24 18  1  0
  1 27  1  0
  1 28  1  0
  1 29  1  0
  4 30  1  0
  5 31  1  0
  6 32  1  0
  8 33  1  0
 11 34  1  0
 11 35  1  0
 12 36  1  0
 16 37  1  0
 17 38  1  0
 19 39  1  0
 22 40  1  0
 23 41  1  0
 26 42  1  0
M  END
>  <smiles>  (20) 
COc1cccc(NC(=O)CNC(=O)c2ccc3cc(Cl)ccc3n2)c1

>  <score_type>  (20) 
oracle

>  <origin>  (20) 
autodockgpu

>  <m_score__min__energy>  (20) 
-8.8100000000000005

>  <m_primary>  (20) 
energy

>  <rmsd>  (20) 
11.206808117970047

>  <m_score__min__rmsd>  (20) 
11.206808117970047

>  <meeko>  (20) 
{"free_energy": -8.0, "intermolecular_energy": -9.49, "internal_energy": -1.13, "cluster_size": 20, "cluster_id": 2, "rank_in_cluster": 7}

>  <energy>  (20) 
-7.46

>  <cluster_rmsd>  (20) 
1.38

>  <cluster>  (20) 
1

$$$$

     RDKit          3D

 42 44  0  0  0  0  0  0  0  0999 V2000
  141.0840   67.8970  228.8830 C   0  0  0  0  0  0  0  0  0  0  0  0
  140.4830   68.3740  227.7040 O   0  0  0  0  0  0  0  0  0  0  0  0
  140.6870   69.6970  227.3530 C   0  0  0  0  0  0  0  0  0  0  0  0
  141.1440   70.5860  228.3140 C   0  0  0  0  0  0  0  0  0  0  0  0
  141.3270   71.8860  227.9040 C   0  0  0  0  0  0  0  0  0  0  0  0
  141.0570   72.2610  226.5820 C   0  0  0  0  0  0  0  0  0  0  0  0
  140.6050   71.3740  225.6390 C   0  0  0  0  0  0  0  0  0  0  0  0
  140.3140   71.6770  224.2970 N   0  0  0  0  0  0  0  0  0  0  0  0
  139.1010   71.4030  223.6260 C   0  0  0  0  0  0  0  0  0  0  0  0
  138.1180   70.8460  224.1620 O   0  0  0  0  0  0  0  0  0  0  0  0
  138.9340   71.7860  222.1830 C   0  0  0  0  0  0  0  0  0  0  0  0
  139.2740   73.1780  221.9760 N   0  0  0  0  0  0  0  0  0  0  0  0
  140.5980   73.5630  221.7300 C   0  0  0  0  0  0  0  0  0  0  0  0
  141.5610   72.7400  221.6730 O   0  0  0  0  0  0  0  0  0  0  0  0
  140.8930   74.9860  221.5270 C   0  0  0  0  0  0  0  0  0  0  0  0
  141.7250   75.4090  220.5080 C   0  0  0  0  0  0  0  0  0  0  0  0
  142.0180   76.7280  220.2940 C   0  0  0  0  0  0  0  0  0  0  0  0
  141.4510   77.6840  221.1420 C   0  0  0  0  0  0  0  0  0  0  0  0
  141.7280   79.0410  220.9540 C   0  0  0  0  0  0  0  0  0  0  0  0
  141.1450   79.9590  221.8170 C   0  0  0  0  0  0  0  0  0  0  0  0
  141.4790   81.6520  221.5980 Cl  0  0  0  0  0  0  0  0  0  0  0  0
  140.3140   79.5300  222.8330 C   0  0  0  0  0  0  0  0  0  0  0  0
  140.0450   78.1810  223.0120 C   0  0  0  0  0  0  0  0  0  0  0  0
  140.6220   77.2440  222.1550 C   0  0  0  0  0  0  0  0  0  0  0  0
  140.3580   75.9350  222.3310 N   0  0  0  0  0  0  0  0  0  0  0  0
  140.4230   70.0680  226.0550 C   0  0  0  0  0  0  0  0  0  0  0  0
  140.5598   68.3130  229.7560 H   0  0  0  0  0  0  0  0  0  0  0  0
  141.0227   66.7990  228.9075 H   0  0  0  0  0  0  0  0  0  0  0  0
  142.1394   68.2060  228.9075 H   0  0  0  0  0  0  0  0  0  0  0  0
  141.3489   70.2690  229.3472 H   0  0  0  0  0  0  0  0  0  0  0  0
  141.6886   72.6379  228.6209 H   0  0  0  0  0  0  0  0  0  0  0  0
  141.2139   73.3094  226.2882 H   0  0  0  0  0  0  0  0  0  0  0  0
  141.0560   72.1550  223.7080 H   0  0  0  0  0  0  0  0  0  0  0  0
  139.5930   71.1584  221.5651 H   0  0  0  0  0  0  0  0  0  0  0  0
  137.8823   71.6347  221.8983 H   0  0  0  0  0  0  0  0  0  0  0  0
  138.4990   73.8860  222.0160 H   0  0  0  0  0  0  0  0  0  0  0  0
  142.1696   74.6547  219.8421 H   0  0  0  0  0  0  0  0  0  0  0  0
  142.6849   77.0297  219.4729 H   0  0  0  0  0  0  0  0  0  0  0  0
  142.3916   79.3735  220.1422 H   0  0  0  0  0  0  0  0  0  0  0  0
  139.8590   80.2682  223.5098 H   0  0  0  0  0  0  0  0  0  0  0  0
  139.3807   77.8523  223.8248 H   0  0  0  0  0  0  0  0  0  0  0  0
  140.0622   69.3155  225.3383 H   0  0  0  0  0  0  0  0  0  0  0  0
  1  2  1  0
  2  3  1  0
  3  4  2  0
  4  5  1  0
  5  6  2  0
  6  7  1  0
  7  8  1  0
  8  9  1  0
  9 10  2  0
  9 11  1  0
 11 12  1  0
 12 13  1  0
 13 14  2  0
 13 15  1  0
 15 16  2  0
 16 17  1  0
 17 18  2  0
 18 19  1  0
 19 20  2  0
 20 21  1  0
 20 22  1  0
 22 23  2  0
 23 24  1  0
 24 25  2  0
  7 26  2  0
 26  3  1  0
 25 15  1  0
 24 18  1  0
  1 27  1  0
  1 28  1  0
  1 29  1  0
  4 30  1  0
  5 31  1  0
  6 32  1  0
  8 33  1  0
 11 34  1  0
 11 35  1  0
 12 36  1  0
 16 37  1  0
 17 38  1  0
 19 39  1  0
 22 40  1  0
 23 41  1  0
 26 42  1  0
M  END
>  <smiles>  (21) 
COc1cccc(NC(=O)CNC(=O)c2ccc3cc(Cl)ccc3n2)c1

>  <score_type>  (21) 
oracle

>  <origin>  (21) 
autodockgpu

>  <m_score__min__energy>  (21) 
-8.8100000000000005

>  <m_primary>  (21) 
energy

>  <rmsd>  (21) 
11.446713831536448

>  <m_score__min__rmsd>  (21) 
11.446713831536448

>  <meeko>  (21) 
{"free_energy": -7.36, "intermolecular_energy": -8.85, "internal_energy": -1.68, "cluster_size": 20, "cluster_id": 2, "rank_in_cluster": 16}

>  <energy>  (21) 
-7.43

>  <cluster_rmsd>  (21) 
1.77

>  <cluster>  (21) 
1

$$$$

     RDKit          3D

 42 44  0  0  0  0  0  0  0  0999 V2000
  137.5410   80.4500  224.2760 C   0  0  0  0  0  0  0  0  0  0  0  0
  138.8200   80.7560  223.7810 O   0  0  0  0  0  0  0  0  0  0  0  0
  139.6540   79.7090  223.4250 C   0  0  0  0  0  0  0  0  0  0  0  0
  141.0250   79.9150  223.4080 C   0  0  0  0  0  0  0  0  0  0  0  0
  141.7980   78.8380  223.0470 C   0  0  0  0  0  0  0  0  0  0  0  0
  141.2060   77.6120  222.7200 C   0  0  0  0  0  0  0  0  0  0  0  0
  139.8490   77.4190  222.7400 C   0  0  0  0  0  0  0  0  0  0  0  0
  139.1840   76.2190  222.4250 N   0  0  0  0  0  0  0  0  0  0  0  0
  138.9050   75.7390  221.1260 C   0  0  0  0  0  0  0  0  0  0  0  0
  139.2260   76.3390  220.0770 O   0  0  0  0  0  0  0  0  0  0  0  0
  138.1830   74.4350  220.9430 C   0  0  0  0  0  0  0  0  0  0  0  0
  138.4610   73.5330  222.0410 N   0  0  0  0  0  0  0  0  0  0  0  0
  139.1430   72.3290  221.8240 C   0  0  0  0  0  0  0  0  0  0  0  0
  139.5500   71.9580  220.6820 O   0  0  0  0  0  0  0  0  0  0  0  0
  139.4000   71.4470  222.9690 C   0  0  0  0  0  0  0  0  0  0  0  0
  139.0510   70.1110  222.9390 C   0  0  0  0  0  0  0  0  0  0  0  0
  139.2790   69.2650  223.9900 C   0  0  0  0  0  0  0  0  0  0  0  0
  139.8900   69.7770  225.1380 C   0  0  0  0  0  0  0  0  0  0  0  0
  140.1390   68.9430  226.2320 C   0  0  0  0  0  0  0  0  0  0  0  0
  140.7490   69.4890  227.3540 C   0  0  0  0  0  0  0  0  0  0  0  0
  141.0660   68.4660  228.7240 Cl  0  0  0  0  0  0  0  0  0  0  0  0
  141.0960   70.8260  227.3770 C   0  0  0  0  0  0  0  0  0  0  0  0
  140.8450   71.6460  226.2860 C   0  0  0  0  0  0  0  0  0  0  0  0
  140.2340   71.1150  225.1510 C   0  0  0  0  0  0  0  0  0  0  0  0
  139.9920   71.9140  224.0940 N   0  0  0  0  0  0  0  0  0  0  0  0
  139.0740   78.5040  223.1040 C   0  0  0  0  0  0  0  0  0  0  0  0
  137.5626   80.4552  225.3758 H   0  0  0  0  0  0  0  0  0  0  0  0
  136.8206   81.2011  223.9199 H   0  0  0  0  0  0  0  0  0  0  0  0
  137.2386   79.4542  223.9199 H   0  0  0  0  0  0  0  0  0  0  0  0
  141.4692   80.8869  223.6691 H   0  0  0  0  0  0  0  0  0  0  0  0
  142.8928   78.9399  223.0145 H   0  0  0  0  0  0  0  0  0  0  0  0
  141.8553   76.7707  222.4359 H   0  0  0  0  0  0  0  0  0  0  0  0
  138.8480   75.5970  223.2170 H   0  0  0  0  0  0  0  0  0  0  0  0
  137.1006   74.6256  220.8985 H   0  0  0  0  0  0  0  0  0  0  0  0
  138.5293   73.9692  220.0086 H   0  0  0  0  0  0  0  0  0  0  0  0
  138.1370   73.8110  223.0010 H   0  0  0  0  0  0  0  0  0  0  0  0
  138.5705   69.7110  222.0339 H   0  0  0  0  0  0  0  0  0  0  0  0
  138.9880   68.2057  223.9327 H   0  0  0  0  0  0  0  0  0  0  0  0
  139.8585   67.8797  226.2048 H   0  0  0  0  0  0  0  0  0  0  0  0
  141.5777   71.2462  228.2722 H   0  0  0  0  0  0  0  0  0  0  0  0
  141.1265   72.7089  226.3166 H   0  0  0  0  0  0  0  0  0  0  0  0
  137.9792   78.4024  223.1374 H   0  0  0  0  0  0  0  0  0  0  0  0
  1  2  1  0
  2  3  1  0
  3  4  2  0
  4  5  1  0
  5  6  2  0
  6  7  1  0
  7  8  1  0
  8  9  1  0
  9 10  2  0
  9 11  1  0
 11 12  1  0
 12 13  1  0
 13 14  2  0
 13 15  1  0
 15 16  2  0
 16 17  1  0
 17 18  2  0
 18 19  1  0
 19 20  2  0
 20 21  1  0
 20 22  1  0
 22 23  2  0
 23 24  1  0
 24 25  2  0
  7 26  2  0
 26  3  1  0
 25 15  1  0
 24 18  1  0
  1 27  1  0
  1 28  1  0
  1 29  1  0
  4 30  1  0
  5 31  1  0
  6 32  1  0
  8 33  1  0
 11 34  1  0
 11 35  1  0
 12 36  1  0
 16 37  1  0
 17 38  1  0
 19 39  1  0
 22 40  1  0
 23 41  1  0
 26 42  1  0
M  END
>  <smiles>  (22) 
COc1cccc(NC(=O)CNC(=O)c2ccc3cc(Cl)ccc3n2)c1

>  <score_type>  (22) 
oracle

>  <origin>  (22) 
autodockgpu

>  <m_score__min__energy>  (22) 
-8.8100000000000005

>  <m_primary>  (22) 
energy

>  <rmsd>  (22) 
4.5304302830715235

>  <m_score__min__rmsd>  (22) 
4.5304302830715235

>  <meeko>  (22) 
{"free_energy": -7.76, "intermolecular_energy": -9.25, "internal_energy": -0.95, "cluster_size": 26, "cluster_id": 1, "rank_in_cluster": 17}

>  <energy>  (22) 
-7.42

>  <cluster_rmsd>  (22) 
1.34

>  <cluster>  (22) 
1

$$$$

     RDKit          3D

 42 44  0  0  0  0  0  0  0  0999 V2000
  141.0820   71.7220  228.2180 C   0  0  0  0  0  0  0  0  0  0  0  0
  141.3220   70.3420  228.3420 O   0  0  0  0  0  0  0  0  0  0  0  0
  140.7180   69.4870  227.4360 C   0  0  0  0  0  0  0  0  0  0  0  0
  141.0590   68.1420  227.4480 C   0  0  0  0  0  0  0  0  0  0  0  0
  140.4250   67.3460  226.5240 C   0  0  0  0  0  0  0  0  0  0  0  0
  139.4920   67.8890  225.6330 C   0  0  0  0  0  0  0  0  0  0  0  0
  139.1620   69.2200  225.6290 C   0  0  0  0  0  0  0  0  0  0  0  0
  138.2370   69.8360  224.7680 N   0  0  0  0  0  0  0  0  0  0  0  0
  138.4910   70.9460  223.9300 C   0  0  0  0  0  0  0  0  0  0  0  0
  139.5960   71.5240  223.8550 O   0  0  0  0  0  0  0  0  0  0  0  0
  137.3990   71.4990  223.0600 C   0  0  0  0  0  0  0  0  0  0  0  0
  136.4660   72.2850  223.8400 N   0  0  0  0  0  0  0  0  0  0  0  0
  135.4600   71.6650  224.5920 C   0  0  0  0  0  0  0  0  0  0  0  0
  135.3040   70.4070  224.6380 O   0  0  0  0  0  0  0  0  0  0  0  0
  134.5380   72.5040  225.3660 C   0  0  0  0  0  0  0  0  0  0  0  0
  133.4930   71.9520  226.0810 C   0  0  0  0  0  0  0  0  0  0  0  0
  132.6180   72.7080  226.8120 C   0  0  0  0  0  0  0  0  0  0  0  0
  132.7920   74.0950  226.8340 C   0  0  0  0  0  0  0  0  0  0  0  0
  131.9180   74.9000  227.5700 C   0  0  0  0  0  0  0  0  0  0  0  0
  132.1250   76.2730  227.5670 C   0  0  0  0  0  0  0  0  0  0  0  0
  131.0460   77.2900  228.4770 Cl  0  0  0  0  0  0  0  0  0  0  0  0
  133.1720   76.8190  226.8510 C   0  0  0  0  0  0  0  0  0  0  0  0
  134.0340   76.0110  226.1230 C   0  0  0  0  0  0  0  0  0  0  0  0
  133.8420   74.6300  226.1150 C   0  0  0  0  0  0  0  0  0  0  0  0
  134.6820   73.8490  225.4080 N   0  0  0  0  0  0  0  0  0  0  0  0
  139.8010   70.0190  226.5590 C   0  0  0  0  0  0  0  0  0  0  0  0
  141.0038   72.1719  229.2187 H   0  0  0  0  0  0  0  0  0  0  0  0
  141.9121   72.1907  227.6691 H   0  0  0  0  0  0  0  0  0  0  0  0
  140.1424   71.8829  227.6691 H   0  0  0  0  0  0  0  0  0  0  0  0
  141.7953   67.7356  228.1571 H   0  0  0  0  0  0  0  0  0  0  0  0
  140.6533   66.2707  226.4843 H   0  0  0  0  0  0  0  0  0  0  0  0
  139.0042   67.2216  224.9073 H   0  0  0  0  0  0  0  0  0  0  0  0
  137.2480   69.4540  224.7210 H   0  0  0  0  0  0  0  0  0  0  0  0
  137.8456   72.1366  222.2828 H   0  0  0  0  0  0  0  0  0  0  0  0
  136.8550   70.6597  222.6021 H   0  0  0  0  0  0  0  0  0  0  0  0
  136.5690   73.3300  223.8240 H   0  0  0  0  0  0  0  0  0  0  0  0
  133.3589   70.8604  226.0618 H   0  0  0  0  0  0  0  0  0  0  0  0
  131.7962   72.2353  227.3698 H   0  0  0  0  0  0  0  0  0  0  0  0
  131.0866   74.4567  228.1377 H   0  0  0  0  0  0  0  0  0  0  0  0
  133.3247   77.9083  226.8578 H   0  0  0  0  0  0  0  0  0  0  0  0
  134.8639   76.4574  225.5556 H   0  0  0  0  0  0  0  0  0  0  0  0
  139.5732   71.0944  226.5983 H   0  0  0  0  0  0  0  0  0  0  0  0
  1  2  1  0
  2  3  1  0
  3  4  2  0
  4  5  1  0
  5  6  2  0
  6  7  1  0
  7  8  1  0
  8  9  1  0
  9 10  2  0
  9 11  1  0
 11 12  1  0
 12 13  1  0
 13 14  2  0
 13 15  1  0
 15 16  2  0
 16 17  1  0
 17 18  2  0
 18 19  1  0
 19 20  2  0
 20 21  1  0
 20 22  1  0
 22 23  2  0
 23 24  1  0
 24 25  2  0
  7 26  2  0
 26  3  1  0
 25 15  1  0
 24 18  1  0
  1 27  1  0
  1 28  1  0
  1 29  1  0
  4 30  1  0
  5 31  1  0
  6 32  1  0
  8 33  1  0
 11 34  1  0
 11 35  1  0
 12 36  1  0
 16 37  1  0
 17 38  1  0
 19 39  1  0
 22 40  1  0
 23 41  1  0
 26 42  1  0
M  END
>  <smiles>  (23) 
COc1cccc(NC(=O)CNC(=O)c2ccc3cc(Cl)ccc3n2)c1

>  <score_type>  (23) 
oracle

>  <origin>  (23) 
autodockgpu

>  <m_score__min__energy>  (23) 
-8.8100000000000005

>  <m_primary>  (23) 
energy

>  <rmsd>  (23) 
11.427269958520549

>  <m_score__min__rmsd>  (23) 
11.427269958520549

>  <meeko>  (23) 
{"free_energy": -7.42, "intermolecular_energy": -8.91, "internal_energy": -1.88, "cluster_size": 4, "cluster_id": 3, "rank_in_cluster": 1}

>  <energy>  (23) 
-7.36

>  <cluster_rmsd>  (23) 
1.43

>  <cluster>  (23) 
1

$$$$

     RDKit          3D

 42 44  0  0  0  0  0  0  0  0999 V2000
  141.4330   81.5090  219.5760 C   0  0  0  0  0  0  0  0  0  0  0  0
  141.5680   81.8150  220.9420 O   0  0  0  0  0  0  0  0  0  0  0  0
  141.6760   80.7670  221.8410 C   0  0  0  0  0  0  0  0  0  0  0  0
  142.0860   81.0330  223.1390 C   0  0  0  0  0  0  0  0  0  0  0  0
  142.1740   79.9510  223.9830 C   0  0  0  0  0  0  0  0  0  0  0  0
  141.8610   78.6640  223.5290 C   0  0  0  0  0  0  0  0  0  0  0  0
  141.4570   78.4130  222.2420 C   0  0  0  0  0  0  0  0  0  0  0  0
  141.1260   77.1510  221.7170 N   0  0  0  0  0  0  0  0  0  0  0  0
  139.8820   76.4920  221.8540 C   0  0  0  0  0  0  0  0  0  0  0  0
  138.9070   76.9670  222.4750 O   0  0  0  0  0  0  0  0  0  0  0  0
  139.6740   75.1400  221.2360 C   0  0  0  0  0  0  0  0  0  0  0  0
  139.6110   74.1120  222.2530 N   0  0  0  0  0  0  0  0  0  0  0  0
  140.3520   72.9310  222.1260 C   0  0  0  0  0  0  0  0  0  0  0  0
  141.1080   72.6900  221.1360 O   0  0  0  0  0  0  0  0  0  0  0  0
  140.2550   71.9170  223.1830 C   0  0  0  0  0  0  0  0  0  0  0  0
  139.7000   70.6770  222.9390 C   0  0  0  0  0  0  0  0  0  0  0  0
  139.5960   69.7120  223.9040 C   0  0  0  0  0  0  0  0  0  0  0  0
  140.0720   69.9980  225.1870 C   0  0  0  0  0  0  0  0  0  0  0  0
  139.9830   69.0370  226.1980 C   0  0  0  0  0  0  0  0  0  0  0  0
  140.4670   69.3590  227.4590 C   0  0  0  0  0  0  0  0  0  0  0  0
  140.3640   68.1760  228.7300 Cl  0  0  0  0  0  0  0  0  0  0  0  0
  141.0220   70.6020  227.6960 C   0  0  0  0  0  0  0  0  0  0  0  0
  141.1060   71.5480  226.6850 C   0  0  0  0  0  0  0  0  0  0  0  0
  140.6240   71.2430  225.4130 C   0  0  0  0  0  0  0  0  0  0  0  0
  140.7080   72.1650  224.4340 N   0  0  0  0  0  0  0  0  0  0  0  0
  141.3690   79.5020  221.3970 C   0  0  0  0  0  0  0  0  0  0  0  0
  140.9912   80.5076  219.4665 H   0  0  0  0  0  0  0  0  0  0  0  0
  140.7794   82.2526  219.0965 H   0  0  0  0  0  0  0  0  0  0  0  0
  142.4228   81.5275  219.0965 H   0  0  0  0  0  0  0  0  0  0  0  0
  142.3273   82.0524  223.4745 H   0  0  0  0  0  0  0  0  0  0  0  0
  142.4935   80.0980  225.0253 H   0  0  0  0  0  0  0  0  0  0  0  0
  141.9421   77.8214  224.2314 H   0  0  0  0  0  0  0  0  0  0  0  0
  141.8570   76.6190  221.1610 H   0  0  0  0  0  0  0  0  0  0  0  0
  138.7313   75.1442  220.6691 H   0  0  0  0  0  0  0  0  0  0  0  0
  140.5219   74.9238  220.5694 H   0  0  0  0  0  0  0  0  0  0  0  0
  138.9930   74.2800  223.0870 H   0  0  0  0  0  0  0  0  0  0  0  0
  139.3263   70.4555  221.9284 H   0  0  0  0  0  0  0  0  0  0  0  0
  139.1481   68.7337  223.6753 H   0  0  0  0  0  0  0  0  0  0  0  0
  139.5404   68.0497  225.9996 H   0  0  0  0  0  0  0  0  0  0  0  0
  141.4021   70.8445  228.6993 H   0  0  0  0  0  0  0  0  0  0  0  0
  141.5507   72.5338  226.8859 H   0  0  0  0  0  0  0  0  0  0  0  0
  141.0491   79.3556  220.3548 H   0  0  0  0  0  0  0  0  0  0  0  0
  1  2  1  0
  2  3  1  0
  3  4  2  0
  4  5  1  0
  5  6  2  0
  6  7  1  0
  7  8  1  0
  8  9  1  0
  9 10  2  0
  9 11  1  0
 11 12  1  0
 12 13  1  0
 13 14  2  0
 13 15  1  0
 15 16  2  0
 16 17  1  0
 17 18  2  0
 18 19  1  0
 19 20  2  0
 20 21  1  0
 20 22  1  0
 22 23  2  0
 23 24  1  0
 24 25  2  0
  7 26  2  0
 26  3  1  0
 25 15  1  0
 24 18  1  0
  1 27  1  0
  1 28  1  0
  1 29  1  0
  4 30  1  0
  5 31  1  0
  6 32  1  0
  8 33  1  0
 11 34  1  0
 11 35  1  0
 12 36  1  0
 16 37  1  0
 17 38  1  0
 19 39  1  0
 22 40  1  0
 23 41  1  0
 26 42  1  0
M  END
>  <smiles>  (24) 
COc1cccc(NC(=O)CNC(=O)c2ccc3cc(Cl)ccc3n2)c1

>  <score_type>  (24) 
oracle

>  <origin>  (24) 
autodockgpu

>  <m_score__min__energy>  (24) 
-8.8100000000000005

>  <m_primary>  (24) 
energy

>  <rmsd>  (24) 
3.837463195918405

>  <m_score__min__rmsd>  (24) 
3.837463195918405

>  <meeko>  (24) 
{"free_energy": -8.57, "intermolecular_energy": -10.06, "internal_energy": -0.96, "cluster_size": 26, "cluster_id": 1, "rank_in_cluster": 9}

>  <energy>  (24) 
-7.35

>  <cluster_rmsd>  (24) 
1.87

>  <cluster>  (24) 
1

$$$$

     RDKit          3D

 42 44  0  0  0  0  0  0  0  0999 V2000
  140.2910   67.3690  226.5410 C   0  0  0  0  0  0  0  0  0  0  0  0
  140.6660   68.2190  227.5970 O   0  0  0  0  0  0  0  0  0  0  0  0
  140.8150   69.5690  227.3290 C   0  0  0  0  0  0  0  0  0  0  0  0
  141.2530   70.4120  228.3400 C   0  0  0  0  0  0  0  0  0  0  0  0
  141.3800   71.7410  228.0130 C   0  0  0  0  0  0  0  0  0  0  0  0
  141.0770   72.1900  226.7220 C   0  0  0  0  0  0  0  0  0  0  0  0
  140.6450   71.3480  225.7290 C   0  0  0  0  0  0  0  0  0  0  0  0
  140.3230   71.7260  224.4130 N   0  0  0  0  0  0  0  0  0  0  0  0
  139.0890   71.5020  223.7610 C   0  0  0  0  0  0  0  0  0  0  0  0
  138.1140   70.9280  224.2920 O   0  0  0  0  0  0  0  0  0  0  0  0
  138.8900   71.9620  222.3450 C   0  0  0  0  0  0  0  0  0  0  0  0
  139.2500   73.3570  222.2010 N   0  0  0  0  0  0  0  0  0  0  0  0
  140.4950   73.7240  221.6740 C   0  0  0  0  0  0  0  0  0  0  0  0
  141.3650   72.8820  221.2990 O   0  0  0  0  0  0  0  0  0  0  0  0
  140.8150   75.1510  221.5480 C   0  0  0  0  0  0  0  0  0  0  0  0
  141.7180   75.6040  220.6060 C   0  0  0  0  0  0  0  0  0  0  0  0
  142.0360   76.9270  220.4650 C   0  0  0  0  0  0  0  0  0  0  0  0
  141.4200   77.8550  221.3090 C   0  0  0  0  0  0  0  0  0  0  0  0
  141.7210   79.2160  221.1940 C   0  0  0  0  0  0  0  0  0  0  0  0
  141.0870   80.1060  222.0520 C   0  0  0  0  0  0  0  0  0  0  0  0
  141.4490   81.8020  221.9230 Cl  0  0  0  0  0  0  0  0  0  0  0  0
  140.1850   79.6470  222.9910 C   0  0  0  0  0  0  0  0  0  0  0  0
  139.8940   78.2950  223.0970 C   0  0  0  0  0  0  0  0  0  0  0  0
  140.5200   77.3860  222.2450 C   0  0  0  0  0  0  0  0  0  0  0  0
  140.2340   76.0740  222.3510 N   0  0  0  0  0  0  0  0  0  0  0  0
  140.5180   70.0130  226.0620 C   0  0  0  0  0  0  0  0  0  0  0  0
  139.8789   66.4350  226.9507 H   0  0  0  0  0  0  0  0  0  0  0  0
  139.5287   67.8661  225.9232 H   0  0  0  0  0  0  0  0  0  0  0  0
  141.1721   67.1411  225.9232 H   0  0  0  0  0  0  0  0  0  0  0  0
  141.4858   70.0375  229.3477 H   0  0  0  0  0  0  0  0  0  0  0  0
  141.7230   72.4586  228.7729 H   0  0  0  0  0  0  0  0  0  0  0  0
  141.1898   73.2604  226.4950 H   0  0  0  0  0  0  0  0  0  0  0  0
  141.0550   72.2260  223.8300 H   0  0  0  0  0  0  0  0  0  0  0  0
  139.5204   71.3563  221.6773 H   0  0  0  0  0  0  0  0  0  0  0  0
  137.8285   71.8434  222.0822 H   0  0  0  0  0  0  0  0  0  0  0  0
  138.5510   74.0810  222.5030 H   0  0  0  0  0  0  0  0  0  0  0  0
  142.2008   74.8714  219.9425 H   0  0  0  0  0  0  0  0  0  0  0  0
  142.7604   77.2531  219.7042 H   0  0  0  0  0  0  0  0  0  0  0  0
  142.4415   79.5727  220.4432 H   0  0  0  0  0  0  0  0  0  0  0  0
  139.6906   80.3630  223.6640 H   0  0  0  0  0  0  0  0  0  0  0  0
  139.1732   77.9418  223.8492 H   0  0  0  0  0  0  0  0  0  0  0  0
  140.1744   69.2952  225.3026 H   0  0  0  0  0  0  0  0  0  0  0  0
  1  2  1  0
  2  3  1  0
  3  4  2  0
  4  5  1  0
  5  6  2  0
  6  7  1  0
  7  8  1  0
  8  9  1  0
  9 10  2  0
  9 11  1  0
 11 12  1  0
 12 13  1  0
 13 14  2  0
 13 15  1  0
 15 16  2  0
 16 17  1  0
 17 18  2  0
 18 19  1  0
 19 20  2  0
 20 21  1  0
 20 22  1  0
 22 23  2  0
 23 24  1  0
 24 25  2  0
  7 26  2  0
 26  3  1  0
 25 15  1  0
 24 18  1  0
  1 27  1  0
  1 28  1  0
  1 29  1  0
  4 30  1  0
  5 31  1  0
  6 32  1  0
  8 33  1  0
 11 34  1  0
 11 35  1  0
 12 36  1  0
 16 37  1  0
 17 38  1  0
 19 39  1  0
 22 40  1  0
 23 41  1  0
 26 42  1  0
M  END
>  <smiles>  (25) 
COc1cccc(NC(=O)CNC(=O)c2ccc3cc(Cl)ccc3n2)c1

>  <score_type>  (25) 
oracle

>  <origin>  (25) 
autodockgpu

>  <m_score__min__energy>  (25) 
-8.8100000000000005

>  <m_primary>  (25) 
energy

>  <rmsd>  (25) 
11.339665624065814

>  <m_score__min__rmsd>  (25) 
11.339665624065814

>  <meeko>  (25) 
{"free_energy": -7.94, "intermolecular_energy": -9.43, "internal_energy": -1.35, "cluster_size": 20, "cluster_id": 2, "rank_in_cluster": 8}

>  <energy>  (25) 
-7.19

>  <cluster_rmsd>  (25) 
1.38

>  <cluster>  (25) 
1

$$$$

     RDKit          3D

 42 44  0  0  0  0  0  0  0  0999 V2000
  141.4270   81.4560  219.7840 C   0  0  0  0  0  0  0  0  0  0  0  0
  141.4420   81.7590  221.1570 O   0  0  0  0  0  0  0  0  0  0  0  0
  141.5860   80.7160  222.0560 C   0  0  0  0  0  0  0  0  0  0  0  0
  142.0280   80.9910  223.3420 C   0  0  0  0  0  0  0  0  0  0  0  0
  142.1510   79.9140  224.1870 C   0  0  0  0  0  0  0  0  0  0  0  0
  141.8410   78.6220  223.7470 C   0  0  0  0  0  0  0  0  0  0  0  0
  141.4040   78.3610  222.4730 C   0  0  0  0  0  0  0  0  0  0  0  0
  141.0730   77.0930  221.9610 N   0  0  0  0  0  0  0  0  0  0  0  0
  139.7670   76.5990  221.7430 C   0  0  0  0  0  0  0  0  0  0  0  0
  138.7270   77.2480  221.9850 O   0  0  0  0  0  0  0  0  0  0  0  0
  139.5660   75.2180  221.1890 C   0  0  0  0  0  0  0  0  0  0  0  0
  139.6360   74.2250  222.2400 N   0  0  0  0  0  0  0  0  0  0  0  0
  139.8710   72.8780  221.9390 C   0  0  0  0  0  0  0  0  0  0  0  0
  140.0330   72.4490  220.7570 O   0  0  0  0  0  0  0  0  0  0  0  0
  139.9330   71.9080  223.0400 C   0  0  0  0  0  0  0  0  0  0  0  0
  139.4960   70.6080  222.8770 C   0  0  0  0  0  0  0  0  0  0  0  0
  139.5430   69.6820  223.8830 C   0  0  0  0  0  0  0  0  0  0  0  0
  140.0530   70.0720  225.1250 C   0  0  0  0  0  0  0  0  0  0  0  0
  140.1150   69.1540  226.1770 C   0  0  0  0  0  0  0  0  0  0  0  0
  140.6290   69.5800  227.3950 C   0  0  0  0  0  0  0  0  0  0  0  0
  140.7140   68.4510  228.7150 Cl  0  0  0  0  0  0  0  0  0  0  0  0
  141.0640   70.8810  227.5510 C   0  0  0  0  0  0  0  0  0  0  0  0
  140.9990   71.7850  226.5010 C   0  0  0  0  0  0  0  0  0  0  0  0
  140.4850   71.3750  225.2710 C   0  0  0  0  0  0  0  0  0  0  0  0
  140.4230   72.2560  224.2530 N   0  0  0  0  0  0  0  0  0  0  0  0
  141.2810   79.4460  221.6260 C   0  0  0  0  0  0  0  0  0  0  0  0
  141.3730   80.3656  219.6497 H   0  0  0  0  0  0  0  0  0  0  0  0
  140.5511   81.9271  219.3141 H   0  0  0  0  0  0  0  0  0  0  0  0
  142.3452   81.8383  219.3141 H   0  0  0  0  0  0  0  0  0  0  0  0
  142.2668   82.0143  223.6673 H   0  0  0  0  0  0  0  0  0  0  0  0
  142.4966   80.0691  225.2197 H   0  0  0  0  0  0  0  0  0  0  0  0
  141.9521   77.7833  224.4500 H   0  0  0  0  0  0  0  0  0  0  0  0
  141.8560   76.4230  221.7070 H   0  0  0  0  0  0  0  0  0  0  0  0
  138.5787   75.1634  220.7070 H   0  0  0  0  0  0  0  0  0  0  0  0
  140.3620   75.0131  220.4580 H   0  0  0  0  0  0  0  0  0  0  0  0
  139.5070   74.5480  223.2320 H   0  0  0  0  0  0  0  0  0  0  0  0
  139.0940   70.3050  221.8990 H   0  0  0  0  0  0  0  0  0  0  0  0
  139.1876   68.6541  223.7184 H   0  0  0  0  0  0  0  0  0  0  0  0
  139.7654   68.1196  226.0437 H   0  0  0  0  0  0  0  0  0  0  0  0
  141.4678   71.2052  228.5215 H   0  0  0  0  0  0  0  0  0  0  0  0
  141.3505   72.8184  226.6375 H   0  0  0  0  0  0  0  0  0  0  0  0
  140.9343   79.2916  220.5936 H   0  0  0  0  0  0  0  0  0  0  0  0
  1  2  1  0
  2  3  1  0
  3  4  2  0
  4  5  1  0
  5  6  2  0
  6  7  1  0
  7  8  1  0
  8  9  1  0
  9 10  2  0
  9 11  1  0
 11 12  1  0
 12 13  1  0
 13 14  2  0
 13 15  1  0
 15 16  2  0
 16 17  1  0
 17 18  2  0
 18 19  1  0
 19 20  2  0
 20 21  1  0
 20 22  1  0
 22 23  2  0
 23 24  1  0
 24 25  2  0
  7 26  2  0
 26  3  1  0
 25 15  1  0
 24 18  1  0
  1 27  1  0
  1 28  1  0
  1 29  1  0
  4 30  1  0
  5 31  1  0
  6 32  1  0
  8 33  1  0
 11 34  1  0
 11 35  1  0
 12 36  1  0
 16 37  1  0
 17 38  1  0
 19 39  1  0
 22 40  1  0
 23 41  1  0
 26 42  1  0
M  END
>  <smiles>  (26) 
COc1cccc(NC(=O)CNC(=O)c2ccc3cc(Cl)ccc3n2)c1

>  <score_type>  (26) 
oracle

>  <origin>  (26) 
autodockgpu

>  <m_score__min__energy>  (26) 
-8.8100000000000005

>  <m_primary>  (26) 
energy

>  <rmsd>  (26) 
3.868313281502386

>  <m_score__min__rmsd>  (26) 
3.868313281502386

>  <meeko>  (26) 
{"free_energy": -8.77, "intermolecular_energy": -10.26, "internal_energy": -1.01, "cluster_size": 26, "cluster_id": 1, "rank_in_cluster": 5}

>  <energy>  (26) 
-7.15

>  <cluster_rmsd>  (26) 
1.1

>  <cluster>  (26) 
1

$$$$

     RDKit          3D

 42 44  0  0  0  0  0  0  0  0999 V2000
  141.0750   71.6460  228.2800 C   0  0  0  0  0  0  0  0  0  0  0  0
  141.1480   70.2470  228.4090 O   0  0  0  0  0  0  0  0  0  0  0  0
  140.5900   69.4670  227.4110 C   0  0  0  0  0  0  0  0  0  0  0  0
  140.2980   68.1380  227.6790 C   0  0  0  0  0  0  0  0  0  0  0  0
  139.7460   67.4160  226.6470 C   0  0  0  0  0  0  0  0  0  0  0  0
  139.5040   68.0150  225.4060 C   0  0  0  0  0  0  0  0  0  0  0  0
  139.7960   69.3310  225.1510 C   0  0  0  0  0  0  0  0  0  0  0  0
  139.5800   70.0010  223.9330 N   0  0  0  0  0  0  0  0  0  0  0  0
  139.9160   71.3450  223.6510 C   0  0  0  0  0  0  0  0  0  0  0  0
  140.4590   72.1140  224.4730 O   0  0  0  0  0  0  0  0  0  0  0  0
  139.6230   71.9270  222.2990 C   0  0  0  0  0  0  0  0  0  0  0  0
  139.9450   73.3380  222.2640 N   0  0  0  0  0  0  0  0  0  0  0  0
  140.6680   73.8820  221.1950 C   0  0  0  0  0  0  0  0  0  0  0  0
  141.0770   73.1920  220.2120 O   0  0  0  0  0  0  0  0  0  0  0  0
  140.9710   75.3180  221.2050 C   0  0  0  0  0  0  0  0  0  0  0  0
  141.8350   75.8760  220.2820 C   0  0  0  0  0  0  0  0  0  0  0  0
  142.1360   77.2100  220.2660 C   0  0  0  0  0  0  0  0  0  0  0  0
  141.5440   78.0390  221.2240 C   0  0  0  0  0  0  0  0  0  0  0  0
  141.8280   79.4080  221.2380 C   0  0  0  0  0  0  0  0  0  0  0  0
  141.2200   80.1980  222.2050 C   0  0  0  0  0  0  0  0  0  0  0  0
  141.5620   81.9020  222.2390 Cl  0  0  0  0  0  0  0  0  0  0  0  0
  140.3570   79.6340  223.1250 C   0  0  0  0  0  0  0  0  0  0  0  0
  140.0810   78.2740  223.1010 C   0  0  0  0  0  0  0  0  0  0  0  0
  140.6830   77.4650  222.1380 C   0  0  0  0  0  0  0  0  0  0  0  0
  140.4130   76.1460  222.1190 N   0  0  0  0  0  0  0  0  0  0  0  0
  140.3510   70.0540  226.1900 C   0  0  0  0  0  0  0  0  0  0  0  0
  141.0510   72.1056  229.2791 H   0  0  0  0  0  0  0  0  0  0  0  0
  141.9554   72.0099  227.7300 H   0  0  0  0  0  0  0  0  0  0  0  0
  140.1615   71.9163  227.7300 H   0  0  0  0  0  0  0  0  0  0  0  0
  140.4969   67.6866  228.6622 H   0  0  0  0  0  0  0  0  0  0  0  0
  139.4921   66.3565  226.7988 H   0  0  0  0  0  0  0  0  0  0  0  0
  139.0621   67.4067  224.6030 H   0  0  0  0  0  0  0  0  0  0  0  0
  139.1240   69.4740  223.1330 H   0  0  0  0  0  0  0  0  0  0  0  0
  140.2242   71.4014  221.5425 H   0  0  0  0  0  0  0  0  0  0  0  0
  138.5501   71.8057  222.0888 H   0  0  0  0  0  0  0  0  0  0  0  0
  139.6200   73.9380  223.0630 H   0  0  0  0  0  0  0  0  0  0  0  0
  142.2992   75.2210  219.5301 H   0  0  0  0  0  0  0  0  0  0  0  0
  142.8281   77.6215  219.5166 H   0  0  0  0  0  0  0  0  0  0  0  0
  142.5160   79.8484  220.5013 H   0  0  0  0  0  0  0  0  0  0  0  0
  139.8827   80.2710  223.8861 H   0  0  0  0  0  0  0  0  0  0  0  0
  139.3910   77.8367  223.8377 H   0  0  0  0  0  0  0  0  0  0  0  0
  140.6051   71.1135  226.0385 H   0  0  0  0  0  0  0  0  0  0  0  0
  1  2  1  0
  2  3  1  0
  3  4  2  0
  4  5  1  0
  5  6  2  0
  6  7  1  0
  7  8  1  0
  8  9  1  0
  9 10  2  0
  9 11  1  0
 11 12  1  0
 12 13  1  0
 13 14  2  0
 13 15  1  0
 15 16  2  0
 16 17  1  0
 17 18  2  0
 18 19  1  0
 19 20  2  0
 20 21  1  0
 20 22  1  0
 22 23  2  0
 23 24  1  0
 24 25  2  0
  7 26  2  0
 26  3  1  0
 25 15  1  0
 24 18  1  0
  1 27  1  0
  1 28  1  0
  1 29  1  0
  4 30  1  0
  5 31  1  0
  6 32  1  0
  8 33  1  0
 11 34  1  0
 11 35  1  0
 12 36  1  0
 16 37  1  0
 17 38  1  0
 19 39  1  0
 22 40  1  0
 23 41  1  0
 26 42  1  0
M  END
>  <smiles>  (27) 
COc1cccc(NC(=O)CNC(=O)c2ccc3cc(Cl)ccc3n2)c1

>  <score_type>  (27) 
oracle

>  <origin>  (27) 
autodockgpu

>  <m_score__min__energy>  (27) 
-8.8100000000000005

>  <m_primary>  (27) 
energy

>  <rmsd>  (27) 
11.328572136890383

>  <m_score__min__rmsd>  (27) 
11.328572136890383

>  <meeko>  (27) 
{"free_energy": -7.78, "intermolecular_energy": -9.27, "internal_energy": -1.28, "cluster_size": 20, "cluster_id": 2, "rank_in_cluster": 10}

>  <energy>  (27) 
-8.19

>  <cluster_rmsd>  (27) 
0.0

>  <cluster>  (27) 
2

$$$$

     RDKit          3D

 42 44  0  0  0  0  0  0  0  0999 V2000
  140.4680   83.7730  220.8300 C   0  0  0  0  0  0  0  0  0  0  0  0
  140.0750   82.4730  220.4640 O   0  0  0  0  0  0  0  0  0  0  0  0
  140.7670   81.4020  221.0040 C   0  0  0  0  0  0  0  0  0  0  0  0
  141.8380   81.6500  221.8500 C   0  0  0  0  0  0  0  0  0  0  0  0
  142.4840   80.5460  222.3540 C   0  0  0  0  0  0  0  0  0  0  0  0
  142.0620   79.2550  222.0140 C   0  0  0  0  0  0  0  0  0  0  0  0
  141.0010   79.0210  221.1760 C   0  0  0  0  0  0  0  0  0  0  0  0
  140.5200   77.7560  220.7920 N   0  0  0  0  0  0  0  0  0  0  0  0
  140.2540   76.6700  221.6560 C   0  0  0  0  0  0  0  0  0  0  0  0
  140.4180   76.7070  222.8940 O   0  0  0  0  0  0  0  0  0  0  0  0
  139.7420   75.3720  221.0990 C   0  0  0  0  0  0  0  0  0  0  0  0
  139.7530   74.3370  222.1110 N   0  0  0  0  0  0  0  0  0  0  0  0
  139.9970   73.0010  221.7670 C   0  0  0  0  0  0  0  0  0  0  0  0
  140.2180   72.6210  220.5780 O   0  0  0  0  0  0  0  0  0  0  0  0
  139.9970   71.9870  222.8280 C   0  0  0  0  0  0  0  0  0  0  0  0
  139.4970   70.7190  222.6080 C   0  0  0  0  0  0  0  0  0  0  0  0
  139.4850   69.7520  223.5770 C   0  0  0  0  0  0  0  0  0  0  0  0
  139.9990   70.0660  224.8390 C   0  0  0  0  0  0  0  0  0  0  0  0
  140.0020   69.1050  225.8530 C   0  0  0  0  0  0  0  0  0  0  0  0
  140.5220   69.4550  227.0930 C   0  0  0  0  0  0  0  0  0  0  0  0
  140.5340   68.2720  228.3670 Cl  0  0  0  0  0  0  0  0  0  0  0  0
  141.0210   70.7260  227.3060 C   0  0  0  0  0  0  0  0  0  0  0  0
  141.0130   71.6730  226.2910 C   0  0  0  0  0  0  0  0  0  0  0  0
  140.4950   71.3390  225.0410 C   0  0  0  0  0  0  0  0  0  0  0  0
  140.4890   72.2610  224.0590 N   0  0  0  0  0  0  0  0  0  0  0  0
  140.3540   80.1330  220.6720 C   0  0  0  0  0  0  0  0  0  0  0  0
  140.4924   83.8536  221.9268 H   0  0  0  0  0  0  0  0  0  0  0  0
  141.4692   83.9811  220.4247 H   0  0  0  0  0  0  0  0  0  0  0  0
  139.7498   84.5010  220.4247 H   0  0  0  0  0  0  0  0  0  0  0  0
  142.1529   82.6730  222.1035 H   0  0  0  0  0  0  0  0  0  0  0  0
  143.3408   80.6782  223.0310 H   0  0  0  0  0  0  0  0  0  0  0  0
  142.6023   78.3944  222.4353 H   0  0  0  0  0  0  0  0  0  0  0  0
  140.3320   77.5710  219.7640 H   0  0  0  0  0  0  0  0  0  0  0  0
  138.7118   75.5149  220.7408 H   0  0  0  0  0  0  0  0  0  0  0  0
  140.3963   75.0617  220.2710 H   0  0  0  0  0  0  0  0  0  0  0  0
  139.5740   74.6190  223.1070 H   0  0  0  0  0  0  0  0  0  0  0  0
  139.0921   70.4761  221.6145 H   0  0  0  0  0  0  0  0  0  0  0  0
  139.0803   68.7508  223.3676 H   0  0  0  0  0  0  0  0  0  0  0  0
  139.6024   68.0959  225.6741 H   0  0  0  0  0  0  0  0  0  0  0  0
  141.4297   70.9906  228.2924 H   0  0  0  0  0  0  0  0  0  0  0  0
  141.4133   72.6814  226.4723 H   0  0  0  0  0  0  0  0  0  0  0  0
  139.4965   80.0014  219.9957 H   0  0  0  0  0  0  0  0  0  0  0  0
  1  2  1  0
  2  3  1  0
  3  4  2  0
  4  5  1  0
  5  6  2  0
  6  7  1  0
  7  8  1  0
  8  9  1  0
  9 10  2  0
  9 11  1  0
 11 12  1  0
 12 13  1  0
 13 14  2  0
 13 15  1  0
 15 16  2  0
 16 17  1  0
 17 18  2  0
 18 19  1  0
 19 20  2  0
 20 21  1  0
 20 22  1  0
 22 23  2  0
 23 24  1  0
 24 25  2  0
  7 26  2  0
 26  3  1  0
 25 15  1  0
 24 18  1  0
  1 27  1  0
  1 28  1  0
  1 29  1  0
  4 30  1  0
  5 31  1  0
  6 32  1  0
  8 33  1  0
 11 34  1  0
 11 35  1  0
 12 36  1  0
 16 37  1  0
 17 38  1  0
 19 39  1  0
 22 40  1  0
 23 41  1  0
 26 42  1  0
M  END
>  <smiles>  (28) 
COc1cccc(NC(=O)CNC(=O)c2ccc3cc(Cl)ccc3n2)c1

>  <score_type>  (28) 
oracle

>  <origin>  (28) 
autodockgpu

>  <m_score__min__energy>  (28) 
-8.8100000000000005

>  <m_primary>  (28) 
energy

>  <rmsd>  (28) 
3.3469360042248653

>  <m_score__min__rmsd>  (28) 
3.3469360042248653

>  <meeko>  (28) 
{"free_energy": -7.15, "intermolecular_energy": -8.64, "internal_energy": -1.46, "cluster_size": 26, "cluster_id": 1, "rank_in_cluster": 26}

>  <energy>  (28) 
-8.04

>  <cluster_rmsd>  (28) 
1.59

>  <cluster>  (28) 
2

$$$$

     RDKit          3D

 42 44  0  0  0  0  0  0  0  0999 V2000
  141.0580   71.8130  228.1680 C   0  0  0  0  0  0  0  0  0  0  0  0
  141.0220   70.4220  228.3730 O   0  0  0  0  0  0  0  0  0  0  0  0
  140.5180   69.6220  227.3620 C   0  0  0  0  0  0  0  0  0  0  0  0
  140.4910   68.2470  227.5400 C   0  0  0  0  0  0  0  0  0  0  0  0
  139.9790   67.5090  226.4990 C   0  0  0  0  0  0  0  0  0  0  0  0
  139.5180   68.1370  225.3360 C   0  0  0  0  0  0  0  0  0  0  0  0
  139.5490   69.4990  225.1700 C   0  0  0  0  0  0  0  0  0  0  0  0
  139.1040   70.1990  224.0340 N   0  0  0  0  0  0  0  0  0  0  0  0
  139.6770   71.3790  223.5080 C   0  0  0  0  0  0  0  0  0  0  0  0
  140.6710   71.9530  224.0030 O   0  0  0  0  0  0  0  0  0  0  0  0
  139.0900   72.0200  222.2830 C   0  0  0  0  0  0  0  0  0  0  0  0
  139.4480   73.4200  222.2110 N   0  0  0  0  0  0  0  0  0  0  0  0
  140.5190   73.8470  221.4170 C   0  0  0  0  0  0  0  0  0  0  0  0
  141.2290   73.0560  220.7260 O   0  0  0  0  0  0  0  0  0  0  0  0
  140.8430   75.2780  221.3780 C   0  0  0  0  0  0  0  0  0  0  0  0
  141.7530   75.7830  220.4700 C   0  0  0  0  0  0  0  0  0  0  0  0
  142.0750   77.1120  220.4090 C   0  0  0  0  0  0  0  0  0  0  0  0
  141.4570   77.9900  221.3040 C   0  0  0  0  0  0  0  0  0  0  0  0
  141.7610   79.3540  221.2710 C   0  0  0  0  0  0  0  0  0  0  0  0
  141.1240   80.1930  222.1760 C   0  0  0  0  0  0  0  0  0  0  0  0
  141.4910   81.8930  222.1510 Cl  0  0  0  0  0  0  0  0  0  0  0  0
  140.2150   79.6820  223.0810 C   0  0  0  0  0  0  0  0  0  0  0  0
  139.9200   78.3260  223.1050 C   0  0  0  0  0  0  0  0  0  0  0  0
  140.5490   77.4680  222.2040 C   0  0  0  0  0  0  0  0  0  0  0  0
  140.2600   76.1530  222.2300 N   0  0  0  0  0  0  0  0  0  0  0  0
  140.0640   70.2380  226.2180 C   0  0  0  0  0  0  0  0  0  0  0  0
  141.0713   72.3267  229.1406 H   0  0  0  0  0  0  0  0  0  0  0  0
  141.9633   72.0768  227.6015 H   0  0  0  0  0  0  0  0  0  0  0  0
  140.1676   72.1233  227.6015 H   0  0  0  0  0  0  0  0  0  0  0  0
  140.8586   67.7733  228.4622 H   0  0  0  0  0  0  0  0  0  0  0  0
  139.9311   66.4131  226.5810 H   0  0  0  0  0  0  0  0  0  0  0  0
  139.1152   67.5146  224.5234 H   0  0  0  0  0  0  0  0  0  0  0  0
  138.2630   69.8310  223.5030 H   0  0  0  0  0  0  0  0  0  0  0  0
  139.4709   71.5044  221.3891 H   0  0  0  0  0  0  0  0  0  0  0  0
  137.9942   71.9397  222.3352 H   0  0  0  0  0  0  0  0  0  0  0  0
  138.8790   74.1030  222.7720 H   0  0  0  0  0  0  0  0  0  0  0  0
  142.2385   75.0894  219.7677 H   0  0  0  0  0  0  0  0  0  0  0  0
  142.8037   77.4808  219.6722 H   0  0  0  0  0  0  0  0  0  0  0  0
  142.4864   79.7527  220.5466 H   0  0  0  0  0  0  0  0  0  0  0  0
  139.7182   80.3583  223.7922 H   0  0  0  0  0  0  0  0  0  0  0  0
  139.1941   77.9306  223.8307 H   0  0  0  0  0  0  0  0  0  0  0  0
  140.1118   71.3340  226.1368 H   0  0  0  0  0  0  0  0  0  0  0  0
  1  2  1  0
  2  3  1  0
  3  4  2  0
  4  5  1  0
  5  6  2  0
  6  7  1  0
  7  8  1  0
  8  9  1  0
  9 10  2  0
  9 11  1  0
 11 12  1  0
 12 13  1  0
 13 14  2  0
 13 15  1  0
 15 16  2  0
 16 17  1  0
 17 18  2  0
 18 19  1  0
 19 20  2  0
 20 21  1  0
 20 22  1  0
 22 23  2  0
 23 24  1  0
 24 25  2  0
  7 26  2  0
 26  3  1  0
 25 15  1  0
 24 18  1  0
  1 27  1  0
  1 28  1  0
  1 29  1  0
  4 30  1  0
  5 31  1  0
  6 32  1  0
  8 33  1  0
 11 34  1  0
 11 35  1  0
 12 36  1  0
 16 37  1  0
 17 38  1  0
 19 39  1  0
 22 40  1  0
 23 41  1  0
 26 42  1  0
M  END
>  <smiles>  (29) 
COc1cccc(NC(=O)CNC(=O)c2ccc3cc(Cl)ccc3n2)c1

>  <score_type>  (29) 
oracle

>  <origin>  (29) 
autodockgpu

>  <m_score__min__energy>  (29) 
-8.8100000000000005

>  <m_primary>  (29) 
energy

>  <rmsd>  (29) 
11.209189477582433

>  <m_score__min__rmsd>  (29) 
11.209189477582433

>  <meeko>  (29) 
{"free_energy": -8.02, "intermolecular_energy": -9.51, "internal_energy": -1.13, "cluster_size": 20, "cluster_id": 2, "rank_in_cluster": 5}

>  <energy>  (29) 
-8.04

>  <cluster_rmsd>  (29) 
1.58

>  <cluster>  (29) 
2

$$$$

     RDKit          3D

 42 44  0  0  0  0  0  0  0  0999 V2000
  141.9110   80.4590  219.2920 C   0  0  0  0  0  0  0  0  0  0  0  0
  142.1400   80.9850  220.5760 O   0  0  0  0  0  0  0  0  0  0  0  0
  141.9380   80.1590  221.6690 C   0  0  0  0  0  0  0  0  0  0  0  0
  142.5320   80.4840  222.8790 C   0  0  0  0  0  0  0  0  0  0  0  0
  142.2930   79.6250  223.9250 C   0  0  0  0  0  0  0  0  0  0  0  0
  141.4900   78.4920  223.7490 C   0  0  0  0  0  0  0  0  0  0  0  0
  140.9060   78.1800  222.5480 C   0  0  0  0  0  0  0  0  0  0  0  0
  140.0890   77.0630  222.2970 N   0  0  0  0  0  0  0  0  0  0  0  0
  140.2520   76.1320  221.2450 C   0  0  0  0  0  0  0  0  0  0  0  0
  141.1660   76.1940  220.3950 O   0  0  0  0  0  0  0  0  0  0  0  0
  139.2950   74.9840  221.1010 C   0  0  0  0  0  0  0  0  0  0  0  0
  139.4750   74.0250  222.1700 N   0  0  0  0  0  0  0  0  0  0  0  0
  139.5720   72.6550  221.8950 C   0  0  0  0  0  0  0  0  0  0  0  0
  139.5090   72.1760  220.7220 O   0  0  0  0  0  0  0  0  0  0  0  0
  139.7530   71.7210  223.0130 C   0  0  0  0  0  0  0  0  0  0  0  0
  139.4210   70.3860  222.8940 C   0  0  0  0  0  0  0  0  0  0  0  0
  139.5790   69.4910  223.9180 C   0  0  0  0  0  0  0  0  0  0  0  0
  140.0980   69.9520  225.1310 C   0  0  0  0  0  0  0  0  0  0  0  0
  140.2740   69.0680  226.2000 C   0  0  0  0  0  0  0  0  0  0  0  0
  140.7920   69.5640  227.3880 C   0  0  0  0  0  0  0  0  0  0  0  0
  141.0170   68.4790  228.7290 Cl  0  0  0  0  0  0  0  0  0  0  0  0
  141.1230   70.9010  227.5010 C   0  0  0  0  0  0  0  0  0  0  0  0
  140.9450   71.7700  226.4340 C   0  0  0  0  0  0  0  0  0  0  0  0
  140.4250   71.2900  225.2330 C   0  0  0  0  0  0  0  0  0  0  0  0
  140.2540   72.1370  224.2000 N   0  0  0  0  0  0  0  0  0  0  0  0
  141.1480   79.0460  221.4980 C   0  0  0  0  0  0  0  0  0  0  0  0
  141.4733   79.4537  219.3803 H   0  0  0  0  0  0  0  0  0  0  0  0
  141.2168   81.1145  218.7457 H   0  0  0  0  0  0  0  0  0  0  0  0
  142.8638   80.3974  218.7457 H   0  0  0  0  0  0  0  0  0  0  0  0
  143.1598   81.3797  222.9954 H   0  0  0  0  0  0  0  0  0  0  0  0
  142.7372   79.8299  224.9103 H   0  0  0  0  0  0  0  0  0  0  0  0
  141.3208   77.8257  224.6077 H   0  0  0  0  0  0  0  0  0  0  0  0
  139.2650   76.8770  222.9390 H   0  0  0  0  0  0  0  0  0  0  0  0
  138.2646   75.3680  221.1312 H   0  0  0  0  0  0  0  0  0  0  0  0
  139.4897   74.4820  220.1418 H   0  0  0  0  0  0  0  0  0  0  0  0
  139.5310   74.3880  223.1540 H   0  0  0  0  0  0  0  0  0  0  0  0
  139.0130   70.0270  221.9376 H   0  0  0  0  0  0  0  0  0  0  0  0
  139.3039   68.4338  223.7890 H   0  0  0  0  0  0  0  0  0  0  0  0
  140.0083   68.0051  226.1016 H   0  0  0  0  0  0  0  0  0  0  0  0
  141.5326   71.2810  228.4485 H   0  0  0  0  0  0  0  0  0  0  0  0
  141.2128   72.8321  226.5353 H   0  0  0  0  0  0  0  0  0  0  0  0
  140.7030   78.8424  220.5129 H   0  0  0  0  0  0  0  0  0  0  0  0
  1  2  1  0
  2  3  1  0
  3  4  2  0
  4  5  1  0
  5  6  2  0
  6  7  1  0
  7  8  1  0
  8  9  1  0
  9 10  2  0
  9 11  1  0
 11 12  1  0
 12 13  1  0
 13 14  2  0
 13 15  1  0
 15 16  2  0
 16 17  1  0
 17 18  2  0
 18 19  1  0
 19 20  2  0
 20 21  1  0
 20 22  1  0
 22 23  2  0
 23 24  1  0
 24 25  2  0
  7 26  2  0
 26  3  1  0
 25 15  1  0
 24 18  1  0
  1 27  1  0
  1 28  1  0
  1 29  1  0
  4 30  1  0
  5 31  1  0
  6 32  1  0
  8 33  1  0
 11 34  1  0
 11 35  1  0
 12 36  1  0
 16 37  1  0
 17 38  1  0
 19 39  1  0
 22 40  1  0
 23 41  1  0
 26 42  1  0
M  END
>  <smiles>  (30) 
COc1cccc(NC(=O)CNC(=O)c2ccc3cc(Cl)ccc3n2)c1

>  <score_type>  (30) 
oracle

>  <origin>  (30) 
autodockgpu

>  <m_score__min__energy>  (30) 
-8.8100000000000005

>  <m_primary>  (30) 
energy

>  <rmsd>  (30) 
4.132161711183125

>  <m_score__min__rmsd>  (30) 
4.132161711183125

>  <meeko>  (30) 
{"free_energy": -7.93, "intermolecular_energy": -9.42, "internal_energy": -1.06, "cluster_size": 26, "cluster_id": 1, "rank_in_cluster": 14}

>  <energy>  (30) 
-8.03

>  <cluster_rmsd>  (30) 
1.59

>  <cluster>  (30) 
2

$$$$

     RDKit          3D

 42 44  0  0  0  0  0  0  0  0999 V2000
  142.9390   80.2300  222.9940 C   0  0  0  0  0  0  0  0  0  0  0  0
  142.1930   79.3220  223.7660 O   0  0  0  0  0  0  0  0  0  0  0  0
  140.9410   78.9460  223.3090 C   0  0  0  0  0  0  0  0  0  0  0  0
  139.8810   79.8290  223.4470 C   0  0  0  0  0  0  0  0  0  0  0  0
  138.6640   79.3970  222.9740 C   0  0  0  0  0  0  0  0  0  0  0  0
  138.5330   78.1320  222.3900 C   0  0  0  0  0  0  0  0  0  0  0  0
  139.5890   77.2660  222.2590 C   0  0  0  0  0  0  0  0  0  0  0  0
  139.5340   75.9830  221.6840 N   0  0  0  0  0  0  0  0  0  0  0  0
  138.3800   75.3540  221.1640 C   0  0  0  0  0  0  0  0  0  0  0  0
  137.2450   75.8780  221.1530 O   0  0  0  0  0  0  0  0  0  0  0  0
  138.4730   73.9740  220.5790 C   0  0  0  0  0  0  0  0  0  0  0  0
  138.6190   72.9810  221.6220 N   0  0  0  0  0  0  0  0  0  0  0  0
  139.8000   72.8940  222.3700 C   0  0  0  0  0  0  0  0  0  0  0  0
  140.7940   73.6600  222.1870 O   0  0  0  0  0  0  0  0  0  0  0  0
  139.9000   71.8700  223.4160 C   0  0  0  0  0  0  0  0  0  0  0  0
  139.5050   70.5670  223.1860 C   0  0  0  0  0  0  0  0  0  0  0  0
  139.5880   69.5910  224.1410 C   0  0  0  0  0  0  0  0  0  0  0  0
  140.0920   69.9300  225.4000 C   0  0  0  0  0  0  0  0  0  0  0  0
  140.1900   68.9590  226.4010 C   0  0  0  0  0  0  0  0  0  0  0  0
  140.6970   69.3360  227.6370 C   0  0  0  0  0  0  0  0  0  0  0  0
  140.8270   68.1420  228.8950 Cl  0  0  0  0  0  0  0  0  0  0  0  0
  141.0900   70.6410  227.8620 C   0  0  0  0  0  0  0  0  0  0  0  0
  140.9890   71.5970  226.8610 C   0  0  0  0  0  0  0  0  0  0  0  0
  140.4820   71.2370  225.6130 C   0  0  0  0  0  0  0  0  0  0  0  0
  140.3860   72.1680  224.6450 N   0  0  0  0  0  0  0  0  0  0  0  0
  140.8110   77.7030  222.7350 C   0  0  0  0  0  0  0  0  0  0  0  0
  143.4950   80.9068  223.6595 H   0  0  0  0  0  0  0  0  0  0  0  0
  143.6468   79.6767  222.3593 H   0  0  0  0  0  0  0  0  0  0  0  0
  142.2588   80.8170  222.3593 H   0  0  0  0  0  0  0  0  0  0  0  0
  140.0064   80.8194  223.9089 H   0  0  0  0  0  0  0  0  0  0  0  0
  137.7845   80.0526  223.0556 H   0  0  0  0  0  0  0  0  0  0  0  0
  137.5447   77.8198  222.0216 H   0  0  0  0  0  0  0  0  0  0  0  0
  140.4250   75.4110  221.6230 H   0  0  0  0  0  0  0  0  0  0  0  0
  137.5580   73.7630  220.0061 H   0  0  0  0  0  0  0  0  0  0  0  0
  139.3551   73.9283  219.9234 H   0  0  0  0  0  0  0  0  0  0  0  0
  137.8130   72.3300  221.7990 H   0  0  0  0  0  0  0  0  0  0  0  0
  139.1076   70.3031  222.1948 H   0  0  0  0  0  0  0  0  0  0  0  0
  139.2653   68.5623  223.9230 H   0  0  0  0  0  0  0  0  0  0  0  0
  139.8733   67.9223  226.2139 H   0  0  0  0  0  0  0  0  0  0  0  0
  141.4880   70.9261  228.8470 H   0  0  0  0  0  0  0  0  0  0  0  0
  141.3071   72.6327  227.0511 H   0  0  0  0  0  0  0  0  0  0  0  0
  141.6910   77.0480  222.6536 H   0  0  0  0  0  0  0  0  0  0  0  0
  1  2  1  0
  2  3  1  0
  3  4  2  0
  4  5  1  0
  5  6  2  0
  6  7  1  0
  7  8  1  0
  8  9  1  0
  9 10  2  0
  9 11  1  0
 11 12  1  0
 12 13  1  0
 13 14  2  0
 13 15  1  0
 15 16  2  0
 16 17  1  0
 17 18  2  0
 18 19  1  0
 19 20  2  0
 20 21  1  0
 20 22  1  0
 22 23  2  0
 23 24  1  0
 24 25  2  0
  7 26  2  0
 26  3  1  0
 25 15  1  0
 24 18  1  0
  1 27  1  0
  1 28  1  0
  1 29  1  0
  4 30  1  0
  5 31  1  0
  6 32  1  0
  8 33  1  0
 11 34  1  0
 11 35  1  0
 12 36  1  0
 16 37  1  0
 17 38  1  0
 19 39  1  0
 22 40  1  0
 23 41  1  0
 26 42  1  0
M  END
>  <smiles>  (31) 
COc1cccc(NC(=O)CNC(=O)c2ccc3cc(Cl)ccc3n2)c1

>  <score_type>  (31) 
oracle

>  <origin>  (31) 
autodockgpu

>  <m_score__min__energy>  (31) 
-8.8100000000000005

>  <m_primary>  (31) 
energy

>  <rmsd>  (31) 
4.760924619689493

>  <m_score__min__rmsd>  (31) 
4.760924619689493

>  <meeko>  (31) 
{"free_energy": -7.43, "intermolecular_energy": -8.92, "internal_energy": -1.51, "cluster_size": 26, "cluster_id": 1, "rank_in_cluster": 21}

>  <energy>  (31) 
-8.02

>  <cluster_rmsd>  (31) 
1.59

>  <cluster>  (31) 
2

$$$$

     RDKit          3D

 42 44  0  0  0  0  0  0  0  0999 V2000
  140.3070   67.1340  226.4740 C   0  0  0  0  0  0  0  0  0  0  0  0
  140.6600   68.0010  227.5230 O   0  0  0  0  0  0  0  0  0  0  0  0
  140.7000   69.3600  227.2650 C   0  0  0  0  0  0  0  0  0  0  0  0
  141.1440   70.2220  228.2570 C   0  0  0  0  0  0  0  0  0  0  0  0
  141.1600   71.5600  227.9390 C   0  0  0  0  0  0  0  0  0  0  0  0
  140.7460   71.9980  226.6760 C   0  0  0  0  0  0  0  0  0  0  0  0
  140.3090   71.1370  225.7010 C   0  0  0  0  0  0  0  0  0  0  0  0
  139.8800   71.5030  224.4120 N   0  0  0  0  0  0  0  0  0  0  0  0
  138.6480   71.1520  223.8150 C   0  0  0  0  0  0  0  0  0  0  0  0
  137.7740   70.4570  224.3760 O   0  0  0  0  0  0  0  0  0  0  0  0
  138.3260   71.6160  222.4240 C   0  0  0  0  0  0  0  0  0  0  0  0
  138.8060   72.9650  222.2060 N   0  0  0  0  0  0  0  0  0  0  0  0
  140.1340   73.2000  221.8280 C   0  0  0  0  0  0  0  0  0  0  0  0
  140.9810   72.2720  221.6560 O   0  0  0  0  0  0  0  0  0  0  0  0
  140.5740   74.5850  221.6200 C   0  0  0  0  0  0  0  0  0  0  0  0
  141.5770   74.8920  220.7210 C   0  0  0  0  0  0  0  0  0  0  0  0
  142.0080   76.1720  220.5050 C   0  0  0  0  0  0  0  0  0  0  0  0
  141.4060   77.2090  221.2250 C   0  0  0  0  0  0  0  0  0  0  0  0
  141.8210   78.5300  221.0310 C   0  0  0  0  0  0  0  0  0  0  0  0
  141.1990   79.5310  221.7650 C   0  0  0  0  0  0  0  0  0  0  0  0
  141.7010   81.1800  221.5370 Cl  0  0  0  0  0  0  0  0  0  0  0  0
  140.1960   79.2170  222.6620 C   0  0  0  0  0  0  0  0  0  0  0  0
  139.7920   77.9030  222.8470 C   0  0  0  0  0  0  0  0  0  0  0  0
  140.4060   76.8850  222.1190 C   0  0  0  0  0  0  0  0  0  0  0  0
  140.0100   75.6100  222.3020 N   0  0  0  0  0  0  0  0  0  0  0  0
  140.2940   69.7930  226.0240 C   0  0  0  0  0  0  0  0  0  0  0  0
  139.9232   66.1912  226.8909 H   0  0  0  0  0  0  0  0  0  0  0  0
  139.5290   67.6049  225.8552 H   0  0  0  0  0  0  0  0  0  0  0  0
  141.1927   66.9275  225.8552 H   0  0  0  0  0  0  0  0  0  0  0  0
  141.4654   69.8558  229.2432 H   0  0  0  0  0  0  0  0  0  0  0  0
  141.5016   72.2930  228.6847 H   0  0  0  0  0  0  0  0  0  0  0  0
  140.7719   73.0755  226.4561 H   0  0  0  0  0  0  0  0  0  0  0  0
  140.5190   72.0980  223.8090 H   0  0  0  0  0  0  0  0  0  0  0  0
  138.8053   70.9415  221.6992 H   0  0  0  0  0  0  0  0  0  0  0  0
  137.2338   71.6058  222.2937 H   0  0  0  0  0  0  0  0  0  0  0  0
  138.1280   73.7560  222.3400 H   0  0  0  0  0  0  0  0  0  0  0  0
  142.0480   74.0741  220.1561 H   0  0  0  0  0  0  0  0  0  0  0  0
  142.8098   76.3811  219.7815 H   0  0  0  0  0  0  0  0  0  0  0  0
  142.6204   78.7702  220.3146 H   0  0  0  0  0  0  0  0  0  0  0  0
  139.7114   80.0198  223.2371 H   0  0  0  0  0  0  0  0  0  0  0  0
  138.9920   77.6657  223.5638 H   0  0  0  0  0  0  0  0  0  0  0  0
  139.9528   69.0597  225.2785 H   0  0  0  0  0  0  0  0  0  0  0  0
  1  2  1  0
  2  3  1  0
  3  4  2  0
  4  5  1  0
  5  6  2  0
  6  7  1  0
  7  8  1  0
  8  9  1  0
  9 10  2  0
  9 11  1  0
 11 12  1  0
 12 13  1  0
 13 14  2  0
 13 15  1  0
 15 16  2  0
 16 17  1  0
 17 18  2  0
 18 19  1  0
 19 20  2  0
 20 21  1  0
 20 22  1  0
 22 23  2  0
 23 24  1  0
 24 25  2  0
  7 26  2  0
 26  3  1  0
 25 15  1  0
 24 18  1  0
  1 27  1  0
  1 28  1  0
  1 29  1  0
  4 30  1  0
  5 31  1  0
  6 32  1  0
  8 33  1  0
 11 34  1  0
 11 35  1  0
 12 36  1  0
 16 37  1  0
 17 38  1  0
 19 39  1  0
 22 40  1  0
 23 41  1  0
 26 42  1  0
M  END
>  <smiles>  (32) 
COc1cccc(NC(=O)CNC(=O)c2ccc3cc(Cl)ccc3n2)c1

>  <score_type>  (32) 
oracle

>  <origin>  (32) 
autodockgpu

>  <m_score__min__energy>  (32) 
-8.8100000000000005

>  <m_primary>  (32) 
energy

>  <rmsd>  (32) 
11.34452021599736

>  <m_score__min__rmsd>  (32) 
11.34452021599736

>  <meeko>  (32) 
{"free_energy": -7.59, "intermolecular_energy": -9.08, "internal_energy": -1.76, "cluster_size": 20, "cluster_id": 2, "rank_in_cluster": 13}

>  <energy>  (32) 
-8.01

>  <cluster_rmsd>  (32) 
1.58

>  <cluster>  (32) 
2

$$$$

     RDKit          3D

 42 44  0  0  0  0  0  0  0  0999 V2000
  141.1550   71.7520  228.1660 C   0  0  0  0  0  0  0  0  0  0  0  0
  141.3480   70.3680  228.3200 O   0  0  0  0  0  0  0  0  0  0  0  0
  140.7290   69.5160  227.4210 C   0  0  0  0  0  0  0  0  0  0  0  0
  141.0540   68.1680  227.4380 C   0  0  0  0  0  0  0  0  0  0  0  0
  140.4050   67.3740  226.5220 C   0  0  0  0  0  0  0  0  0  0  0  0
  139.4740   67.9230  225.6340 C   0  0  0  0  0  0  0  0  0  0  0  0
  139.1590   69.2590  225.6250 C   0  0  0  0  0  0  0  0  0  0  0  0
  138.2360   69.8810  224.7660 N   0  0  0  0  0  0  0  0  0  0  0  0
  138.4940   70.9930  223.9320 C   0  0  0  0  0  0  0  0  0  0  0  0
  139.6010   71.5680  223.8590 O   0  0  0  0  0  0  0  0  0  0  0  0
  137.4040   71.5530  223.0650 C   0  0  0  0  0  0  0  0  0  0  0  0
  136.4780   72.3450  223.8460 N   0  0  0  0  0  0  0  0  0  0  0  0
  135.4650   71.7330  224.5950 C   0  0  0  0  0  0  0  0  0  0  0  0
  135.2960   70.4770  224.6360 O   0  0  0  0  0  0  0  0  0  0  0  0
  134.5510   72.5790  225.3710 C   0  0  0  0  0  0  0  0  0  0  0  0
  133.5030   72.0340  226.0880 C   0  0  0  0  0  0  0  0  0  0  0  0
  132.6350   72.7960  226.8220 C   0  0  0  0  0  0  0  0  0  0  0  0
  132.8190   74.1820  226.8430 C   0  0  0  0  0  0  0  0  0  0  0  0
  131.9520   74.9930  227.5800 C   0  0  0  0  0  0  0  0  0  0  0  0
  132.1680   76.3650  227.5760 C   0  0  0  0  0  0  0  0  0  0  0  0
  131.0990   77.3890  228.4880 Cl  0  0  0  0  0  0  0  0  0  0  0  0
  133.2170   76.9030  226.8580 C   0  0  0  0  0  0  0  0  0  0  0  0
  134.0730   76.0890  226.1290 C   0  0  0  0  0  0  0  0  0  0  0  0
  133.8710   74.7100  226.1210 C   0  0  0  0  0  0  0  0  0  0  0  0
  134.7040   73.9230  225.4120 N   0  0  0  0  0  0  0  0  0  0  0  0
  139.8130   70.0540  226.5480 C   0  0  0  0  0  0  0  0  0  0  0  0
  141.0890   72.2255  229.1567 H   0  0  0  0  0  0  0  0  0  0  0  0
  142.0020   72.1808  227.6104 H   0  0  0  0  0  0  0  0  0  0  0  0
  140.2230   71.9327  227.6104 H   0  0  0  0  0  0  0  0  0  0  0  0
  141.7899   67.7569  228.1448 H   0  0  0  0  0  0  0  0  0  0  0  0
  140.6202   66.2958  226.4872 H   0  0  0  0  0  0  0  0  0  0  0  0
  138.9745   67.2577  224.9144 H   0  0  0  0  0  0  0  0  0  0  0  0
  137.2460   69.5030  224.7180 H   0  0  0  0  0  0  0  0  0  0  0  0
  137.8531   72.1875  222.2868 H   0  0  0  0  0  0  0  0  0  0  0  0
  136.8534   70.7170  222.6090 H   0  0  0  0  0  0  0  0  0  0  0  0
  136.5910   73.3900  223.8340 H   0  0  0  0  0  0  0  0  0  0  0  0
  133.3607   70.9434  226.0680 H   0  0  0  0  0  0  0  0  0  0  0  0
  131.8117   72.3290  227.3825 H   0  0  0  0  0  0  0  0  0  0  0  0
  131.1187   74.5555  228.1494 H   0  0  0  0  0  0  0  0  0  0  0  0
  133.3767   77.9913  226.8636 H   0  0  0  0  0  0  0  0  0  0  0  0
  134.9057   76.5296  225.5611 H   0  0  0  0  0  0  0  0  0  0  0  0
  139.5975   71.1321  226.5844 H   0  0  0  0  0  0  0  0  0  0  0  0
  1  2  1  0
  2  3  1  0
  3  4  2  0
  4  5  1  0
  5  6  2  0
  6  7  1  0
  7  8  1  0
  8  9  1  0
  9 10  2  0
  9 11  1  0
 11 12  1  0
 12 13  1  0
 13 14  2  0
 13 15  1  0
 15 16  2  0
 16 17  1  0
 17 18  2  0
 18 19  1  0
 19 20  2  0
 20 21  1  0
 20 22  1  0
 22 23  2  0
 23 24  1  0
 24 25  2  0
  7 26  2  0
 26  3  1  0
 25 15  1  0
 24 18  1  0
  1 27  1  0
  1 28  1  0
  1 29  1  0
  4 30  1  0
  5 31  1  0
  6 32  1  0
  8 33  1  0
 11 34  1  0
 11 35  1  0
 12 36  1  0
 16 37  1  0
 17 38  1  0
 19 39  1  0
 22 40  1  0
 23 41  1  0
 26 42  1  0
M  END
>  <smiles>  (33) 
COc1cccc(NC(=O)CNC(=O)c2ccc3cc(Cl)ccc3n2)c1

>  <score_type>  (33) 
oracle

>  <origin>  (33) 
autodockgpu

>  <m_score__min__energy>  (33) 
-8.8100000000000005

>  <m_primary>  (33) 
energy

>  <rmsd>  (33) 
11.408001472975014

>  <m_score__min__rmsd>  (33) 
11.408001472975014

>  <meeko>  (33) 
{"free_energy": -7.42, "intermolecular_energy": -8.91, "internal_energy": -1.88, "cluster_size": 4, "cluster_id": 3, "rank_in_cluster": 2}

>  <energy>  (33) 
-8.0

>  <cluster_rmsd>  (33) 
1.6

>  <cluster>  (33) 
2

$$$$

     RDKit          3D

 42 44  0  0  0  0  0  0  0  0999 V2000
  137.6850   80.8730  224.4730 C   0  0  0  0  0  0  0  0  0  0  0  0
  138.9210   81.2660  223.9310 O   0  0  0  0  0  0  0  0  0  0  0  0
  139.8180   80.2780  223.5600 C   0  0  0  0  0  0  0  0  0  0  0  0
  141.1760   80.5580  223.5830 C   0  0  0  0  0  0  0  0  0  0  0  0
  142.0140   79.5360  223.2030 C   0  0  0  0  0  0  0  0  0  0  0  0
  141.4970   78.2930  222.8200 C   0  0  0  0  0  0  0  0  0  0  0  0
  140.1520   78.0270  222.8010 C   0  0  0  0  0  0  0  0  0  0  0  0
  139.5600   76.8050  222.4310 N   0  0  0  0  0  0  0  0  0  0  0  0
  139.9410   75.9950  221.3360 C   0  0  0  0  0  0  0  0  0  0  0  0
  140.8720   76.2770  220.5510 O   0  0  0  0  0  0  0  0  0  0  0  0
  139.2130   74.7110  221.0610 C   0  0  0  0  0  0  0  0  0  0  0  0
  139.4040   73.7680  222.1420 N   0  0  0  0  0  0  0  0  0  0  0  0
  139.3520   72.3880  221.9070 C   0  0  0  0  0  0  0  0  0  0  0  0
  139.1400   71.8870  220.7620 O   0  0  0  0  0  0  0  0  0  0  0  0
  139.5500   71.4710  223.0360 C   0  0  0  0  0  0  0  0  0  0  0  0
  139.1710   70.1460  222.9590 C   0  0  0  0  0  0  0  0  0  0  0  0
  139.3440   69.2670  223.9940 C   0  0  0  0  0  0  0  0  0  0  0  0
  139.9280   69.7340  225.1750 C   0  0  0  0  0  0  0  0  0  0  0  0
  140.1200   68.8660  226.2540 C   0  0  0  0  0  0  0  0  0  0  0  0
  140.7050   69.3690  227.4090 C   0  0  0  0  0  0  0  0  0  0  0  0
  140.9520   68.3030  228.7610 Cl  0  0  0  0  0  0  0  0  0  0  0  0
  141.0830   70.6950  227.4790 C   0  0  0  0  0  0  0  0  0  0  0  0
  140.8880   71.5490  226.4020 C   0  0  0  0  0  0  0  0  0  0  0  0
  140.3020   71.0620  225.2350 C   0  0  0  0  0  0  0  0  0  0  0  0
  140.1150   71.8940  224.1920 N   0  0  0  0  0  0  0  0  0  0  0  0
  139.3110   79.0550  223.1840 C   0  0  0  0  0  0  0  0  0  0  0  0
  137.7437   80.8917  225.5713 H   0  0  0  0  0  0  0  0  0  0  0  0
  136.8999   81.5658  224.1359 H   0  0  0  0  0  0  0  0  0  0  0  0
  137.4442   79.8540  224.1359 H   0  0  0  0  0  0  0  0  0  0  0  0
  141.5612   81.5422  223.8880 H   0  0  0  0  0  0  0  0  0  0  0  0
  143.1021   79.6971  223.2000 H   0  0  0  0  0  0  0  0  0  0  0  0
  142.1971   77.4984  222.5226 H   0  0  0  0  0  0  0  0  0  0  0  0
  138.7500   76.4330  223.0060 H   0  0  0  0  0  0  0  0  0  0  0  0
  138.1389   74.9220  220.9526 H   0  0  0  0  0  0  0  0  0  0  0  0
  139.6132   74.2710  220.1357 H   0  0  0  0  0  0  0  0  0  0  0  0
  139.5820   74.1510  223.1040 H   0  0  0  0  0  0  0  0  0  0  0  0
  138.7114   69.7817  222.0284 H   0  0  0  0  0  0  0  0  0  0  0  0
  139.0305   68.2169  223.8985 H   0  0  0  0  0  0  0  0  0  0  0  0
  139.8154   67.8110  226.1899 H   0  0  0  0  0  0  0  0  0  0  0  0
  141.5447   71.0799  228.4002 H   0  0  0  0  0  0  0  0  0  0  0  0
  141.1941   72.6034  226.4693 H   0  0  0  0  0  0  0  0  0  0  0  0
  138.2229   78.8935  223.1883 H   0  0  0  0  0  0  0  0  0  0  0  0
  1  2  1  0
  2  3  1  0
  3  4  2  0
  4  5  1  0
  5  6  2  0
  6  7  1  0
  7  8  1  0
  8  9  1  0
  9 10  2  0
  9 11  1  0
 11 12  1  0
 12 13  1  0
 13 14  2  0
 13 15  1  0
 15 16  2  0
 16 17  1  0
 17 18  2  0
 18 19  1  0
 19 20  2  0
 20 21  1  0
 20 22  1  0
 22 23  2  0
 23 24  1  0
 24 25  2  0
  7 26  2  0
 26  3  1  0
 25 15  1  0
 24 18  1  0
  1 27  1  0
  1 28  1  0
  1 29  1  0
  4 30  1  0
  5 31  1  0
  6 32  1  0
  8 33  1  0
 11 34  1  0
 11 35  1  0
 12 36  1  0
 16 37  1  0
 17 38  1  0
 19 39  1  0
 22 40  1  0
 23 41  1  0
 26 42  1  0
M  END
>  <smiles>  (34) 
COc1cccc(NC(=O)CNC(=O)c2ccc3cc(Cl)ccc3n2)c1

>  <score_type>  (34) 
oracle

>  <origin>  (34) 
autodockgpu

>  <m_score__min__energy>  (34) 
-8.8100000000000005

>  <m_primary>  (34) 
energy

>  <rmsd>  (34) 
4.381780129765921

>  <m_score__min__rmsd>  (34) 
4.381780129765921

>  <meeko>  (34) 
{"free_energy": -7.88, "intermolecular_energy": -9.37, "internal_energy": -1.03, "cluster_size": 26, "cluster_id": 1, "rank_in_cluster": 16}

>  <energy>  (34) 
-7.94

>  <cluster_rmsd>  (34) 
0.33

>  <cluster>  (34) 
2

$$$$

     RDKit          3D

 42 44  0  0  0  0  0  0  0  0999 V2000
  141.0570   71.6520  228.2980 C   0  0  0  0  0  0  0  0  0  0  0  0
  141.1560   70.2530  228.3980 O   0  0  0  0  0  0  0  0  0  0  0  0
  140.5850   69.4820  227.3990 C   0  0  0  0  0  0  0  0  0  0  0  0
  140.2220   68.1740  227.6830 C   0  0  0  0  0  0  0  0  0  0  0  0
  139.6600   67.4610  226.6500 C   0  0  0  0  0  0  0  0  0  0  0  0
  139.4770   68.0490  225.3930 C   0  0  0  0  0  0  0  0  0  0  0  0
  139.8400   69.3440  225.1230 C   0  0  0  0  0  0  0  0  0  0  0  0
  139.6860   70.0010  223.8890 N   0  0  0  0  0  0  0  0  0  0  0  0
  139.9350   71.3690  223.6380 C   0  0  0  0  0  0  0  0  0  0  0  0
  140.3300   72.1760  224.5070 O   0  0  0  0  0  0  0  0  0  0  0  0
  139.7240   71.9340  222.2630 C   0  0  0  0  0  0  0  0  0  0  0  0
  140.0220   73.3500  222.2360 N   0  0  0  0  0  0  0  0  0  0  0  0
  140.6860   73.9220  221.1430 C   0  0  0  0  0  0  0  0  0  0  0  0
  141.0610   73.2550  220.1330 O   0  0  0  0  0  0  0  0  0  0  0  0
  140.9660   75.3630  221.1620 C   0  0  0  0  0  0  0  0  0  0  0  0
  141.8100   75.9430  220.2350 C   0  0  0  0  0  0  0  0  0  0  0  0
  142.0890   77.2820  220.2270 C   0  0  0  0  0  0  0  0  0  0  0  0
  141.4940   78.0930  221.1980 C   0  0  0  0  0  0  0  0  0  0  0  0
  141.7560   79.4660  221.2210 C   0  0  0  0  0  0  0  0  0  0  0  0
  141.1460   80.2380  222.2010 C   0  0  0  0  0  0  0  0  0  0  0  0
  141.4600   81.9480  222.2460 Cl  0  0  0  0  0  0  0  0  0  0  0  0
  140.3030   79.6520  223.1250 C   0  0  0  0  0  0  0  0  0  0  0  0
  140.0490   78.2890  223.0930 C   0  0  0  0  0  0  0  0  0  0  0  0
  140.6530   77.4980  222.1170 C   0  0  0  0  0  0  0  0  0  0  0  0
  140.4040   76.1740  222.0890 N   0  0  0  0  0  0  0  0  0  0  0  0
  140.4040   70.0580  226.1630 C   0  0  0  0  0  0  0  0  0  0  0  0
  141.0260   72.0904  229.3064 H   0  0  0  0  0  0  0  0  0  0  0  0
  141.9297   72.0434  227.7547 H   0  0  0  0  0  0  0  0  0  0  0  0
  140.1379   71.9166  227.7547 H   0  0  0  0  0  0  0  0  0  0  0  0
  140.3750   67.7317  228.6785 H   0  0  0  0  0  0  0  0  0  0  0  0
  139.3511   66.4179  226.8132 H   0  0  0  0  0  0  0  0  0  0  0  0
  139.0242   67.4489  224.5900 H   0  0  0  0  0  0  0  0  0  0  0  0
  139.3540   69.4430  223.0500 H   0  0  0  0  0  0  0  0  0  0  0  0
  140.3846   71.4132  221.5542 H   0  0  0  0  0  0  0  0  0  0  0  0
  138.6702   71.7908  221.9817 H   0  0  0  0  0  0  0  0  0  0  0  0
  139.7240   73.9320  223.0580 H   0  0  0  0  0  0  0  0  0  0  0  0
  142.2766   75.3021  219.4724 H   0  0  0  0  0  0  0  0  0  0  0  0
  142.7661   77.7110  219.4737 H   0  0  0  0  0  0  0  0  0  0  0  0
  142.4289   79.9237  220.4809 H   0  0  0  0  0  0  0  0  0  0  0  0
  139.8267   80.2748  223.8966 H   0  0  0  0  0  0  0  0  0  0  0  0
  139.3746   77.8346  223.8337 H   0  0  0  0  0  0  0  0  0  0  0  0
  140.7125   71.1012  226.0003 H   0  0  0  0  0  0  0  0  0  0  0  0
  1  2  1  0
  2  3  1  0
  3  4  2  0
  4  5  1  0
  5  6  2  0
  6  7  1  0
  7  8  1  0
  8  9  1  0
  9 10  2  0
  9 11  1  0
 11 12  1  0
 12 13  1  0
 13 14  2  0
 13 15  1  0
 15 16  2  0
 16 17  1  0
 17 18  2  0
 18 19  1  0
 19 20  2  0
 20 21  1  0
 20 22  1  0
 22 23  2  0
 23 24  1  0
 24 25  2  0
  7 26  2  0
 26  3  1  0
 25 15  1  0
 24 18  1  0
  1 27  1  0
  1 28  1  0
  1 29  1  0
  4 30  1  0
  5 31  1  0
  6 32  1  0
  8 33  1  0
 11 34  1  0
 11 35  1  0
 12 36  1  0
 16 37  1  0
 17 38  1  0
 19 39  1  0
 22 40  1  0
 23 41  1  0
 26 42  1  0
M  END
>  <smiles>  (35) 
COc1cccc(NC(=O)CNC(=O)c2ccc3cc(Cl)ccc3n2)c1

>  <score_type>  (35) 
oracle

>  <origin>  (35) 
autodockgpu

>  <m_score__min__energy>  (35) 
-8.8100000000000005

>  <m_primary>  (35) 
energy

>  <rmsd>  (35) 
11.328596068811922

>  <m_score__min__rmsd>  (35) 
11.328596068811922

>  <meeko>  (35) 
{"free_energy": -7.66, "intermolecular_energy": -9.15, "internal_energy": -1.37, "cluster_size": 20, "cluster_id": 2, "rank_in_cluster": 11}

>  <energy>  (35) 
-7.83

>  <cluster_rmsd>  (35) 
1.55

>  <cluster>  (35) 
2

$$$$

     RDKit          3D

 42 44  0  0  0  0  0  0  0  0999 V2000
  141.4570   81.4240  219.7510 C   0  0  0  0  0  0  0  0  0  0  0  0
  141.7960   81.7320  221.0810 O   0  0  0  0  0  0  0  0  0  0  0  0
  141.8200   80.7020  222.0060 C   0  0  0  0  0  0  0  0  0  0  0  0
  142.2030   80.9770  223.3110 C   0  0  0  0  0  0  0  0  0  0  0  0
  142.2080   79.9140  224.1810 C   0  0  0  0  0  0  0  0  0  0  0  0
  141.8410   78.6340  223.7470 C   0  0  0  0  0  0  0  0  0  0  0  0
  141.4640   78.3720  222.4540 C   0  0  0  0  0  0  0  0  0  0  0  0
  141.0830   77.1170  221.9470 N   0  0  0  0  0  0  0  0  0  0  0  0
  139.7630   76.6180  221.8670 C   0  0  0  0  0  0  0  0  0  0  0  0
  138.7540   77.2510  222.2470 O   0  0  0  0  0  0  0  0  0  0  0  0
  139.5070   75.2510  221.2990 C   0  0  0  0  0  0  0  0  0  0  0  0
  139.5980   74.2400  222.3310 N   0  0  0  0  0  0  0  0  0  0  0  0
  139.8700   72.9050  222.0030 C   0  0  0  0  0  0  0  0  0  0  0  0
  140.0490   72.5060  220.8130 O   0  0  0  0  0  0  0  0  0  0  0  0
  139.9510   71.9150  223.0840 C   0  0  0  0  0  0  0  0  0  0  0  0
  139.5460   70.6090  222.8930 C   0  0  0  0  0  0  0  0  0  0  0  0
  139.6110   69.6640  223.8800 C   0  0  0  0  0  0  0  0  0  0  0  0
  140.1080   70.0400  225.1320 C   0  0  0  0  0  0  0  0  0  0  0  0
  140.1890   69.1020  226.1650 C   0  0  0  0  0  0  0  0  0  0  0  0
  140.6890   69.5150  227.3930 C   0  0  0  0  0  0  0  0  0  0  0  0
  140.7960   68.3610  228.6900 Cl  0  0  0  0  0  0  0  0  0  0  0  0
  141.0930   70.8220  227.5780 C   0  0  0  0  0  0  0  0  0  0  0  0
  141.0090   71.7460  226.5450 C   0  0  0  0  0  0  0  0  0  0  0  0
  140.5090   71.3500  225.3060 C   0  0  0  0  0  0  0  0  0  0  0  0
  140.4290   72.2490  224.3060 N   0  0  0  0  0  0  0  0  0  0  0  0
  141.4600   79.4440  221.5820 C   0  0  0  0  0  0  0  0  0  0  0  0
  140.6429   80.6843  219.7420 H   0  0  0  0  0  0  0  0  0  0  0  0
  141.1276   82.3382  219.2355 H   0  0  0  0  0  0  0  0  0  0  0  0
  142.3355   81.0087  219.2355 H   0  0  0  0  0  0  0  0  0  0  0  0
  142.4870   81.9903  223.6312 H   0  0  0  0  0  0  0  0  0  0  0  0
  142.5032   80.0697  225.2291 H   0  0  0  0  0  0  0  0  0  0  0  0
  141.8556   77.8062  224.4712 H   0  0  0  0  0  0  0  0  0  0  0  0
  141.8350   76.4620  221.5850 H   0  0  0  0  0  0  0  0  0  0  0  0
  138.4995   75.2266  220.8581 H   0  0  0  0  0  0  0  0  0  0  0  0
  140.2662   75.0404  220.5313 H   0  0  0  0  0  0  0  0  0  0  0  0
  139.4550   74.5380  223.3280 H   0  0  0  0  0  0  0  0  0  0  0  0
  139.1552   70.3165  221.9072 H   0  0  0  0  0  0  0  0  0  0  0  0
  139.2798   68.6318  223.6931 H   0  0  0  0  0  0  0  0  0  0  0  0
  139.8648   68.0625  226.0092 H   0  0  0  0  0  0  0  0  0  0  0  0
  141.4865   71.1354  228.5562 H   0  0  0  0  0  0  0  0  0  0  0  0
  141.3352   72.7845  226.7037 H   0  0  0  0  0  0  0  0  0  0  0  0
  141.1647   79.2891  220.5338 H   0  0  0  0  0  0  0  0  0  0  0  0
  1  2  1  0
  2  3  1  0
  3  4  2  0
  4  5  1  0
  5  6  2  0
  6  7  1  0
  7  8  1  0
  8  9  1  0
  9 10  2  0
  9 11  1  0
 11 12  1  0
 12 13  1  0
 13 14  2  0
 13 15  1  0
 15 16  2  0
 16 17  1  0
 17 18  2  0
 18 19  1  0
 19 20  2  0
 20 21  1  0
 20 22  1  0
 22 23  2  0
 23 24  1  0
 24 25  2  0
  7 26  2  0
 26  3  1  0
 25 15  1  0
 24 18  1  0
  1 27  1  0
  1 28  1  0
  1 29  1  0
  4 30  1  0
  5 31  1  0
  6 32  1  0
  8 33  1  0
 11 34  1  0
 11 35  1  0
 12 36  1  0
 16 37  1  0
 17 38  1  0
 19 39  1  0
 22 40  1  0
 23 41  1  0
 26 42  1  0
M  END
>  <smiles>  (36) 
COc1cccc(NC(=O)CNC(=O)c2ccc3cc(Cl)ccc3n2)c1

>  <score_type>  (36) 
oracle

>  <origin>  (36) 
autodockgpu

>  <m_score__min__energy>  (36) 
-8.8100000000000005

>  <m_primary>  (36) 
energy

>  <rmsd>  (36) 
3.8882274985960064

>  <m_score__min__rmsd>  (36) 
3.8882274985960064

>  <meeko>  (36) 
{"free_energy": -8.79, "intermolecular_energy": -10.28, "internal_energy": -1.02, "cluster_size": 26, "cluster_id": 1, "rank_in_cluster": 2}

>  <energy>  (36) 
-7.78

>  <cluster_rmsd>  (36) 
1.57

>  <cluster>  (36) 
2

$$$$

     RDKit          3D

 42 44  0  0  0  0  0  0  0  0999 V2000
  141.4870   81.6780  219.3960 C   0  0  0  0  0  0  0  0  0  0  0  0
  141.7460   82.0020  220.7400 O   0  0  0  0  0  0  0  0  0  0  0  0
  141.8000   80.9730  221.6640 C   0  0  0  0  0  0  0  0  0  0  0  0
  142.1780   81.2580  222.9680 C   0  0  0  0  0  0  0  0  0  0  0  0
  142.2130   80.1940  223.8380 C   0  0  0  0  0  0  0  0  0  0  0  0
  141.8800   78.9050  223.4030 C   0  0  0  0  0  0  0  0  0  0  0  0
  141.5080   78.6340  222.1110 C   0  0  0  0  0  0  0  0  0  0  0  0
  141.1600   77.3700  221.6030 N   0  0  0  0  0  0  0  0  0  0  0  0
  139.9990   76.6320  221.9310 C   0  0  0  0  0  0  0  0  0  0  0  0
  139.1240   77.0290  222.7310 O   0  0  0  0  0  0  0  0  0  0  0  0
  139.7600   75.2870  221.3080 C   0  0  0  0  0  0  0  0  0  0  0  0
  139.7210   74.2500  222.3170 N   0  0  0  0  0  0  0  0  0  0  0  0
  140.2820   72.9910  222.0730 C   0  0  0  0  0  0  0  0  0  0  0  0
  140.8460   72.6830  220.9800 O   0  0  0  0  0  0  0  0  0  0  0  0
  140.2170   71.9720  223.1280 C   0  0  0  0  0  0  0  0  0  0  0  0
  139.6740   70.7250  222.8880 C   0  0  0  0  0  0  0  0  0  0  0  0
  139.6010   69.7540  223.8500 C   0  0  0  0  0  0  0  0  0  0  0  0
  140.0960   70.0410  225.1260 C   0  0  0  0  0  0  0  0  0  0  0  0
  140.0380   69.0750  226.1340 C   0  0  0  0  0  0  0  0  0  0  0  0
  140.5400   69.3990  227.3880 C   0  0  0  0  0  0  0  0  0  0  0  0
  140.4760   68.2090  228.6550 Cl  0  0  0  0  0  0  0  0  0  0  0  0
  141.0820   70.6480  227.6210 C   0  0  0  0  0  0  0  0  0  0  0  0
  141.1360   71.6000  226.6130 C   0  0  0  0  0  0  0  0  0  0  0  0
  140.6350   71.2930  225.3480 C   0  0  0  0  0  0  0  0  0  0  0  0
  140.6890   72.2200  224.3720 N   0  0  0  0  0  0  0  0  0  0  0  0
  141.4730   79.7060  221.2390 C   0  0  0  0  0  0  0  0  0  0  0  0
  140.8007   80.8195  219.3515 H   0  0  0  0  0  0  0  0  0  0  0  0
  141.0273   82.5414  218.8927 H   0  0  0  0  0  0  0  0  0  0  0  0
  142.4304   81.4198  218.8927 H   0  0  0  0  0  0  0  0  0  0  0  0
  142.4354   82.2784  223.2881 H   0  0  0  0  0  0  0  0  0  0  0  0
  142.5054   80.3567  224.8859 H   0  0  0  0  0  0  0  0  0  0  0  0
  141.9184   78.0771  224.1263 H   0  0  0  0  0  0  0  0  0  0  0  0
  141.8100   76.9000  220.9080 H   0  0  0  0  0  0  0  0  0  0  0  0
  138.7997   75.3040  220.7717 H   0  0  0  0  0  0  0  0  0  0  0  0
  140.5845   75.0702  220.6129 H   0  0  0  0  0  0  0  0  0  0  0  0
  139.2610   74.4730  223.2350 H   0  0  0  0  0  0  0  0  0  0  0  0
  139.2845   70.5032  221.8834 H   0  0  0  0  0  0  0  0  0  0  0  0
  139.1630   68.7705  223.6246 H   0  0  0  0  0  0  0  0  0  0  0  0
  139.6055   68.0825  225.9393 H   0  0  0  0  0  0  0  0  0  0  0  0
  141.4760   70.8911  228.6188 H   0  0  0  0  0  0  0  0  0  0  0  0
  141.5713   72.5908  226.8103 H   0  0  0  0  0  0  0  0  0  0  0  0
  141.1798   79.5439  220.1913 H   0  0  0  0  0  0  0  0  0  0  0  0
  1  2  1  0
  2  3  1  0
  3  4  2  0
  4  5  1  0
  5  6  2  0
  6  7  1  0
  7  8  1  0
  8  9  1  0
  9 10  2  0
  9 11  1  0
 11 12  1  0
 12 13  1  0
 13 14  2  0
 13 15  1  0
 15 16  2  0
 16 17  1  0
 17 18  2  0
 18 19  1  0
 19 20  2  0
 20 21  1  0
 20 22  1  0
 22 23  2  0
 23 24  1  0
 24 25  2  0
  7 26  2  0
 26  3  1  0
 25 15  1  0
 24 18  1  0
  1 27  1  0
  1 28  1  0
  1 29  1  0
  4 30  1  0
  5 31  1  0
  6 32  1  0
  8 33  1  0
 11 34  1  0
 11 35  1  0
 12 36  1  0
 16 37  1  0
 17 38  1  0
 19 39  1  0
 22 40  1  0
 23 41  1  0
 26 42  1  0
M  END
>  <smiles>  (37) 
COc1cccc(NC(=O)CNC(=O)c2ccc3cc(Cl)ccc3n2)c1

>  <score_type>  (37) 
oracle

>  <origin>  (37) 
autodockgpu

>  <m_score__min__energy>  (37) 
-8.8100000000000005

>  <m_primary>  (37) 
energy

>  <rmsd>  (37) 
3.774556817526902

>  <m_score__min__rmsd>  (37) 
3.774556817526902

>  <meeko>  (37) 
{"free_energy": -8.35, "intermolecular_energy": -9.84, "internal_energy": -1.05, "cluster_size": 26, "cluster_id": 1, "rank_in_cluster": 12}

>  <energy>  (37) 
-7.66

>  <cluster_rmsd>  (37) 
1.56

>  <cluster>  (37) 
2

$$$$

     RDKit          3D

 42 44  0  0  0  0  0  0  0  0999 V2000
  141.0760   71.8240  228.2290 C   0  0  0  0  0  0  0  0  0  0  0  0
  141.2290   70.4350  228.3830 O   0  0  0  0  0  0  0  0  0  0  0  0
  140.7150   69.6060  227.4000 C   0  0  0  0  0  0  0  0  0  0  0  0
  140.4910   68.2690  227.6950 C   0  0  0  0  0  0  0  0  0  0  0  0
  139.9800   67.4990  226.6770 C   0  0  0  0  0  0  0  0  0  0  0  0
  139.7100   68.0590  225.4240 C   0  0  0  0  0  0  0  0  0  0  0  0
  139.9350   69.3830  225.1420 C   0  0  0  0  0  0  0  0  0  0  0  0
  139.6880   70.0160  223.9100 N   0  0  0  0  0  0  0  0  0  0  0  0
  139.8610   71.3910  223.6310 C   0  0  0  0  0  0  0  0  0  0  0  0
  140.2640   72.2260  224.4690 O   0  0  0  0  0  0  0  0  0  0  0  0
  139.5540   71.9260  222.2630 C   0  0  0  0  0  0  0  0  0  0  0  0
  139.8350   73.3450  222.1890 N   0  0  0  0  0  0  0  0  0  0  0  0
  140.7990   73.8390  221.3030 C   0  0  0  0  0  0  0  0  0  0  0  0
  141.4730   73.0970  220.5260 O   0  0  0  0  0  0  0  0  0  0  0  0
  141.0490   75.2850  221.2650 C   0  0  0  0  0  0  0  0  0  0  0  0
  141.8740   75.8460  220.3100 C   0  0  0  0  0  0  0  0  0  0  0  0
  142.1250   77.1900  220.2490 C   0  0  0  0  0  0  0  0  0  0  0  0
  141.5200   78.0250  221.1930 C   0  0  0  0  0  0  0  0  0  0  0  0
  141.7540   79.4030  221.1630 C   0  0  0  0  0  0  0  0  0  0  0  0
  141.1340   80.1980  222.1180 C   0  0  0  0  0  0  0  0  0  0  0  0
  141.4130   81.9150  222.0950 Cl  0  0  0  0  0  0  0  0  0  0  0  0
  140.3110   79.6310  223.0700 C   0  0  0  0  0  0  0  0  0  0  0  0
  140.0850   78.2620  223.0920 C   0  0  0  0  0  0  0  0  0  0  0  0
  140.6990   77.4480  222.1410 C   0  0  0  0  0  0  0  0  0  0  0  0
  140.4770   76.1190  222.1650 N   0  0  0  0  0  0  0  0  0  0  0  0
  140.4480   70.1550  226.1670 C   0  0  0  0  0  0  0  0  0  0  0  0
  141.0237   72.2992  229.2197 H   0  0  0  0  0  0  0  0  0  0  0  0
  141.9351   72.2281  227.6734 H   0  0  0  0  0  0  0  0  0  0  0  0
  140.1496   72.0315  227.6734 H   0  0  0  0  0  0  0  0  0  0  0  0
  140.7099   67.8486  228.6876 H   0  0  0  0  0  0  0  0  0  0  0  0
  139.7813   66.4310  226.8498 H   0  0  0  0  0  0  0  0  0  0  0  0
  139.3012   67.4126  224.6334 H   0  0  0  0  0  0  0  0  0  0  0  0
  139.3380   69.4320  223.0960 H   0  0  0  0  0  0  0  0  0  0  0  0
  140.1718   71.3972  221.5223 H   0  0  0  0  0  0  0  0  0  0  0  0
  138.4856   71.7675  222.0548 H   0  0  0  0  0  0  0  0  0  0  0  0
  139.2930   73.9870  222.8190 H   0  0  0  0  0  0  0  0  0  0  0  0
  142.3484   75.1861  219.5687 H   0  0  0  0  0  0  0  0  0  0  0  0
  142.7878   77.6038  219.4747 H   0  0  0  0  0  0  0  0  0  0  0  0
  142.4128   79.8465  220.4019 H   0  0  0  0  0  0  0  0  0  0  0  0
  139.8278   80.2729  223.8213 H   0  0  0  0  0  0  0  0  0  0  0  0
  139.4258   77.8219  223.8547 H   0  0  0  0  0  0  0  0  0  0  0  0
  140.6456   71.2233  225.9947 H   0  0  0  0  0  0  0  0  0  0  0  0
  1  2  1  0
  2  3  1  0
  3  4  2  0
  4  5  1  0
  5  6  2  0
  6  7  1  0
  7  8  1  0
  8  9  1  0
  9 10  2  0
  9 11  1  0
 11 12  1  0
 12 13  1  0
 13 14  2  0
 13 15  1  0
 15 16  2  0
 16 17  1  0
 17 18  2  0
 18 19  1  0
 19 20  2  0
 20 21  1  0
 20 22  1  0
 22 23  2  0
 23 24  1  0
 24 25  2  0
  7 26  2  0
 26  3  1  0
 25 15  1  0
 24 18  1  0
  1 27  1  0
  1 28  1  0
  1 29  1  0
  4 30  1  0
  5 31  1  0
  6 32  1  0
  8 33  1  0
 11 34  1  0
 11 35  1  0
 12 36  1  0
 16 37  1  0
 17 38  1  0
 19 39  1  0
 22 40  1  0
 23 41  1  0
 26 42  1  0
M  END
>  <smiles>  (38) 
COc1cccc(NC(=O)CNC(=O)c2ccc3cc(Cl)ccc3n2)c1

>  <score_type>  (38) 
oracle

>  <origin>  (38) 
autodockgpu

>  <m_score__min__energy>  (38) 
-8.8100000000000005

>  <m_primary>  (38) 
energy

>  <rmsd>  (38) 
11.25876167580038

>  <m_score__min__rmsd>  (38) 
11.25876167580038

>  <meeko>  (38) 
{"free_energy": -7.83, "intermolecular_energy": -9.32, "internal_energy": -1.18, "cluster_size": 20, "cluster_id": 2, "rank_in_cluster": 9}

>  <energy>  (38) 
-7.63

>  <cluster_rmsd>  (38) 
0.42

>  <cluster>  (38) 
2

$$$$

     RDKit          3D

 42 44  0  0  0  0  0  0  0  0999 V2000
  141.4410   81.3830  219.6540 C   0  0  0  0  0  0  0  0  0  0  0  0
  141.7820   81.7000  220.9810 O   0  0  0  0  0  0  0  0  0  0  0  0
  141.8000   80.6780  221.9150 C   0  0  0  0  0  0  0  0  0  0  0  0
  142.1560   80.9680  223.2240 C   0  0  0  0  0  0  0  0  0  0  0  0
  142.1540   79.9120  224.1040 C   0  0  0  0  0  0  0  0  0  0  0  0
  141.8080   78.6250  223.6740 C   0  0  0  0  0  0  0  0  0  0  0  0
  141.4570   78.3490  222.3770 C   0  0  0  0  0  0  0  0  0  0  0  0
  141.0970   77.0860  221.8730 N   0  0  0  0  0  0  0  0  0  0  0  0
  139.7990   76.5270  221.8800 C   0  0  0  0  0  0  0  0  0  0  0  0
  138.7930   77.1050  222.3450 O   0  0  0  0  0  0  0  0  0  0  0  0
  139.5640   75.1590  221.3050 C   0  0  0  0  0  0  0  0  0  0  0  0
  139.6410   74.1460  222.3360 N   0  0  0  0  0  0  0  0  0  0  0  0
  139.8510   72.8020  222.0060 C   0  0  0  0  0  0  0  0  0  0  0  0
  139.9850   72.3930  220.8130 O   0  0  0  0  0  0  0  0  0  0  0  0
  139.9210   71.8110  223.0870 C   0  0  0  0  0  0  0  0  0  0  0  0
  139.4930   70.5120  222.8980 C   0  0  0  0  0  0  0  0  0  0  0  0
  139.5470   69.5660  223.8860 C   0  0  0  0  0  0  0  0  0  0  0  0
  140.0540   69.9350  225.1350 C   0  0  0  0  0  0  0  0  0  0  0  0
  140.1240   68.9960  226.1680 C   0  0  0  0  0  0  0  0  0  0  0  0
  140.6350   69.4010  227.3940 C   0  0  0  0  0  0  0  0  0  0  0  0
  140.7280   68.2470  228.6920 Cl  0  0  0  0  0  0  0  0  0  0  0  0
  141.0610   70.7020  227.5770 C   0  0  0  0  0  0  0  0  0  0  0  0
  140.9880   71.6260  226.5440 C   0  0  0  0  0  0  0  0  0  0  0  0
  140.4770   71.2380  225.3060 C   0  0  0  0  0  0  0  0  0  0  0  0
  140.4080   72.1380  224.3060 N   0  0  0  0  0  0  0  0  0  0  0  0
  141.4590   79.4130  221.4950 C   0  0  0  0  0  0  0  0  0  0  0  0
  140.6353   80.6341  219.6514 H   0  0  0  0  0  0  0  0  0  0  0  0
  141.0990   82.2913  219.1363 H   0  0  0  0  0  0  0  0  0  0  0  0
  142.3220   80.9757  219.1363 H   0  0  0  0  0  0  0  0  0  0  0  0
  142.4250   81.9866  223.5403 H   0  0  0  0  0  0  0  0  0  0  0  0
  142.4269   80.0796  225.1564 H   0  0  0  0  0  0  0  0  0  0  0  0
  141.8181   77.8031  224.4050 H   0  0  0  0  0  0  0  0  0  0  0  0
  141.8490   76.4720  221.4440 H   0  0  0  0  0  0  0  0  0  0  0  0
  138.5658   75.1286  220.8439 H   0  0  0  0  0  0  0  0  0  0  0  0
  140.3405   74.9553  220.5530 H   0  0  0  0  0  0  0  0  0  0  0  0
  139.5350   74.4520  223.3360 H   0  0  0  0  0  0  0  0  0  0  0  0
  139.0926   70.2258  221.9142 H   0  0  0  0  0  0  0  0  0  0  0  0
  139.1993   68.5389  223.7011 H   0  0  0  0  0  0  0  0  0  0  0  0
  139.7827   67.9618  226.0136 H   0  0  0  0  0  0  0  0  0  0  0  0
  141.4631   71.0096  228.5536 H   0  0  0  0  0  0  0  0  0  0  0  0
  141.3315   72.6591  226.7011 H   0  0  0  0  0  0  0  0  0  0  0  0
  141.1842   79.2462  220.4430 H   0  0  0  0  0  0  0  0  0  0  0  0
  1  2  1  0
  2  3  1  0
  3  4  2  0
  4  5  1  0
  5  6  2  0
  6  7  1  0
  7  8  1  0
  8  9  1  0
  9 10  2  0
  9 11  1  0
 11 12  1  0
 12 13  1  0
 13 14  2  0
 13 15  1  0
 15 16  2  0
 16 17  1  0
 17 18  2  0
 18 19  1  0
 19 20  2  0
 20 21  1  0
 20 22  1  0
 22 23  2  0
 23 24  1  0
 24 25  2  0
  7 26  2  0
 26  3  1  0
 25 15  1  0
 24 18  1  0
  1 27  1  0
  1 28  1  0
  1 29  1  0
  4 30  1  0
  5 31  1  0
  6 32  1  0
  8 33  1  0
 11 34  1  0
 11 35  1  0
 12 36  1  0
 16 37  1  0
 17 38  1  0
 19 39  1  0
 22 40  1  0
 23 41  1  0
 26 42  1  0
M  END
>  <smiles>  (39) 
COc1cccc(NC(=O)CNC(=O)c2ccc3cc(Cl)ccc3n2)c1

>  <score_type>  (39) 
oracle

>  <origin>  (39) 
autodockgpu

>  <m_score__min__energy>  (39) 
-8.8100000000000005

>  <m_primary>  (39) 
energy

>  <rmsd>  (39) 
3.883576715637106

>  <m_score__min__rmsd>  (39) 
3.883576715637106

>  <meeko>  (39) 
{"free_energy": -8.7, "intermolecular_energy": -10.19, "internal_energy": -1.03, "cluster_size": 26, "cluster_id": 1, "rank_in_cluster": 8}

>  <energy>  (39) 
-7.59

>  <cluster_rmsd>  (39) 
0.75

>  <cluster>  (39) 
2

$$$$

     RDKit          3D

 42 44  0  0  0  0  0  0  0  0999 V2000
  140.0420   67.3830  226.3830 C   0  0  0  0  0  0  0  0  0  0  0  0
  140.4640   68.1630  227.4750 O   0  0  0  0  0  0  0  0  0  0  0  0
  140.6690   69.5170  227.2730 C   0  0  0  0  0  0  0  0  0  0  0  0
  141.0470   70.3090  228.3470 C   0  0  0  0  0  0  0  0  0  0  0  0
  141.2350   71.6450  228.0830 C   0  0  0  0  0  0  0  0  0  0  0  0
  141.0480   72.1500  226.7910 C   0  0  0  0  0  0  0  0  0  0  0  0
  140.6740   71.3580  225.7350 C   0  0  0  0  0  0  0  0  0  0  0  0
  140.4690   71.7930  224.4130 N   0  0  0  0  0  0  0  0  0  0  0  0
  139.3500   71.4940  223.6030 C   0  0  0  0  0  0  0  0  0  0  0  0
  138.3870   70.7900  223.9770 O   0  0  0  0  0  0  0  0  0  0  0  0
  139.2680   72.0300  222.2020 C   0  0  0  0  0  0  0  0  0  0  0  0
  139.6040   73.4380  222.1690 N   0  0  0  0  0  0  0  0  0  0  0  0
  140.5930   73.9180  221.3020 C   0  0  0  0  0  0  0  0  0  0  0  0
  141.2430   73.1710  220.5090 O   0  0  0  0  0  0  0  0  0  0  0  0
  140.8990   75.3540  221.3050 C   0  0  0  0  0  0  0  0  0  0  0  0
  141.8180   75.8940  220.4260 C   0  0  0  0  0  0  0  0  0  0  0  0
  142.1230   77.2270  220.4040 C   0  0  0  0  0  0  0  0  0  0  0  0
  141.4770   78.0740  221.3100 C   0  0  0  0  0  0  0  0  0  0  0  0
  141.7640   79.4420  221.3180 C   0  0  0  0  0  0  0  0  0  0  0  0
  141.1010   80.2500  222.2320 C   0  0  0  0  0  0  0  0  0  0  0  0
  141.4450   81.9540  222.2560 Cl  0  0  0  0  0  0  0  0  0  0  0  0
  140.1830   79.7040  223.1080 C   0  0  0  0  0  0  0  0  0  0  0  0
  139.9060   78.3440  223.0920 C   0  0  0  0  0  0  0  0  0  0  0  0
  140.5620   77.5180  222.1810 C   0  0  0  0  0  0  0  0  0  0  0  0
  140.2890   76.1980  222.1690 N   0  0  0  0  0  0  0  0  0  0  0  0
  140.4860   70.0150  226.0040 C   0  0  0  0  0  0  0  0  0  0  0  0
  139.5489   66.4716  226.7522 H   0  0  0  0  0  0  0  0  0  0  0  0
  139.3336   67.9611  225.7715 H   0  0  0  0  0  0  0  0  0  0  0  0
  140.9135   67.1064  225.7715 H   0  0  0  0  0  0  0  0  0  0  0  0
  141.1886   69.8911  229.3546 H   0  0  0  0  0  0  0  0  0  0  0  0
  141.5353   72.3237  228.8949 H   0  0  0  0  0  0  0  0  0  0  0  0
  141.2072   73.2242  226.6154 H   0  0  0  0  0  0  0  0  0  0  0  0
  141.2060   72.4030  223.9540 H   0  0  0  0  0  0  0  0  0  0  0  0
  139.9713   71.4765  221.5625 H   0  0  0  0  0  0  0  0  0  0  0  0
  138.2380   71.9049  221.8367 H   0  0  0  0  0  0  0  0  0  0  0  0
  139.0830   74.0840  222.8130 H   0  0  0  0  0  0  0  0  0  0  0  0
  142.3248   75.2248  219.7152 H   0  0  0  0  0  0  0  0  0  0  0  0
  142.8597   77.6238  219.6900 H   0  0  0  0  0  0  0  0  0  0  0  0
  142.4972   79.8680  220.6173 H   0  0  0  0  0  0  0  0  0  0  0  0
  139.6650   80.3553  223.8274 H   0  0  0  0  0  0  0  0  0  0  0  0
  139.1729   77.9205  223.7943 H   0  0  0  0  0  0  0  0  0  0  0  0
  140.1861   69.3357  225.1924 H   0  0  0  0  0  0  0  0  0  0  0  0
  1  2  1  0
  2  3  1  0
  3  4  2  0
  4  5  1  0
  5  6  2  0
  6  7  1  0
  7  8  1  0
  8  9  1  0
  9 10  2  0
  9 11  1  0
 11 12  1  0
 12 13  1  0
 13 14  2  0
 13 15  1  0
 15 16  2  0
 16 17  1  0
 17 18  2  0
 18 19  1  0
 19 20  2  0
 20 21  1  0
 20 22  1  0
 22 23  2  0
 23 24  1  0
 24 25  2  0
  7 26  2  0
 26  3  1  0
 25 15  1  0
 24 18  1  0
  1 27  1  0
  1 28  1  0
  1 29  1  0
  4 30  1  0
  5 31  1  0
  6 32  1  0
  8 33  1  0
 11 34  1  0
 11 35  1  0
 12 36  1  0
 16 37  1  0
 17 38  1  0
 19 39  1  0
 22 40  1  0
 23 41  1  0
 26 42  1  0
M  END
>  <smiles>  (40) 
COc1cccc(NC(=O)CNC(=O)c2ccc3cc(Cl)ccc3n2)c1

>  <score_type>  (40) 
oracle

>  <origin>  (40) 
autodockgpu

>  <m_score__min__energy>  (40) 
-8.8100000000000005

>  <m_primary>  (40) 
energy

>  <rmsd>  (40) 
11.36388292761577

>  <m_score__min__rmsd>  (40) 
11.36388292761577

>  <meeko>  (40) 
{"free_energy": -8.19, "intermolecular_energy": -9.68, "internal_energy": -1.18, "cluster_size": 20, "cluster_id": 2, "rank_in_cluster": 1}

>  <energy>  (40) 
-7.57

>  <cluster_rmsd>  (40) 
0.76

>  <cluster>  (40) 
2

$$$$

     RDKit          3D

 42 44  0  0  0  0  0  0  0  0999 V2000
  141.4390   72.2800  227.6060 C   0  0  0  0  0  0  0  0  0  0  0  0
  141.0640   71.0560  228.1880 O   0  0  0  0  0  0  0  0  0  0  0  0
  140.6400   70.0360  227.3530 C   0  0  0  0  0  0  0  0  0  0  0  0
  140.5720   68.7430  227.8500 C   0  0  0  0  0  0  0  0  0  0  0  0
  140.1440   67.7750  226.9720 C   0  0  0  0  0  0  0  0  0  0  0  0
  139.8020   68.1060  225.6560 C   0  0  0  0  0  0  0  0  0  0  0  0
  139.8730   69.3880  225.1740 C   0  0  0  0  0  0  0  0  0  0  0  0
  139.5460   69.7950  223.8680 N   0  0  0  0  0  0  0  0  0  0  0  0
  138.3420   70.4160  223.4670 C   0  0  0  0  0  0  0  0  0  0  0  0
  137.4020   70.6840  224.2470 O   0  0  0  0  0  0  0  0  0  0  0  0
  138.1320   70.7960  222.0290 C   0  0  0  0  0  0  0  0  0  0  0  0
  138.6500   72.1210  221.7640 N   0  0  0  0  0  0  0  0  0  0  0  0
  140.0210   72.3890  221.8720 C   0  0  0  0  0  0  0  0  0  0  0  0
  140.8760   71.5110  222.1990 O   0  0  0  0  0  0  0  0  0  0  0  0
  140.4990   73.7480  221.5940 C   0  0  0  0  0  0  0  0  0  0  0  0
  141.5270   73.9790  220.7000 C   0  0  0  0  0  0  0  0  0  0  0  0
  141.9930   75.2350  220.4200 C   0  0  0  0  0  0  0  0  0  0  0  0
  141.4040   76.3250  221.0670 C   0  0  0  0  0  0  0  0  0  0  0  0
  141.8550   77.6220  220.8070 C   0  0  0  0  0  0  0  0  0  0  0  0
  141.2430   78.6780  221.4690 C   0  0  0  0  0  0  0  0  0  0  0  0
  141.7910   80.2990  221.1580 Cl  0  0  0  0  0  0  0  0  0  0  0  0
  140.2160   78.4410  222.3610 C   0  0  0  0  0  0  0  0  0  0  0  0
  139.7760   77.1490  222.6130 C   0  0  0  0  0  0  0  0  0  0  0  0
  140.3780   76.0760  221.9570 C   0  0  0  0  0  0  0  0  0  0  0  0
  139.9480   74.8240  222.2040 N   0  0  0  0  0  0  0  0  0  0  0  0
  140.3030   70.3590  226.0590 C   0  0  0  0  0  0  0  0  0  0  0  0
  141.6625   73.0095  228.3984 H   0  0  0  0  0  0  0  0  0  0  0  0
  142.3327   72.1309  226.9822 H   0  0  0  0  0  0  0  0  0  0  0  0
  140.6152   72.6570  226.9822 H   0  0  0  0  0  0  0  0  0  0  0  0
  140.8452   68.5050  228.8886 H   0  0  0  0  0  0  0  0  0  0  0  0
  140.0697   66.7300  227.3075 H   0  0  0  0  0  0  0  0  0  0  0  0
  139.4627   67.3061  224.9814 H   0  0  0  0  0  0  0  0  0  0  0  0
  140.2500   69.6330  223.0900 H   0  0  0  0  0  0  0  0  0  0  0  0
  138.6515   70.0709  221.3853 H   0  0  0  0  0  0  0  0  0  0  0  0
  137.0523   70.7922  221.8186 H   0  0  0  0  0  0  0  0  0  0  0  0
  137.9680   72.8720  221.4900 H   0  0  0  0  0  0  0  0  0  0  0  0
  141.9892   73.1191  220.1931 H   0  0  0  0  0  0  0  0  0  0  0  0
  142.8128   75.3834  219.7018 H   0  0  0  0  0  0  0  0  0  0  0  0
  142.6745   77.8018  220.0956 H   0  0  0  0  0  0  0  0  0  0  0  0
  139.7404   79.2871  222.8786 H   0  0  0  0  0  0  0  0  0  0  0  0
  138.9572   76.9726  223.3261 H   0  0  0  0  0  0  0  0  0  0  0  0
  140.3767   71.4041  225.7239 H   0  0  0  0  0  0  0  0  0  0  0  0
  1  2  1  0
  2  3  1  0
  3  4  2  0
  4  5  1  0
  5  6  2  0
  6  7  1  0
  7  8  1  0
  8  9  1  0
  9 10  2  0
  9 11  1  0
 11 12  1  0
 12 13  1  0
 13 14  2  0
 13 15  1  0
 15 16  2  0
 16 17  1  0
 17 18  2  0
 18 19  1  0
 19 20  2  0
 20 21  1  0
 20 22  1  0
 22 23  2  0
 23 24  1  0
 24 25  2  0
  7 26  2  0
 26  3  1  0
 25 15  1  0
 24 18  1  0
  1 27  1  0
  1 28  1  0
  1 29  1  0
  4 30  1  0
  5 31  1  0
  6 32  1  0
  8 33  1  0
 11 34  1  0
 11 35  1  0
 12 36  1  0
 16 37  1  0
 17 38  1  0
 19 39  1  0
 22 40  1  0
 23 41  1  0
 26 42  1  0
M  END
>  <smiles>  (41) 
COc1cccc(NC(=O)CNC(=O)c2ccc3cc(Cl)ccc3n2)c1

>  <score_type>  (41) 
oracle

>  <origin>  (41) 
autodockgpu

>  <m_score__min__energy>  (41) 
-8.8100000000000005

>  <m_primary>  (41) 
energy

>  <rmsd>  (41) 
10.82801324292616

>  <m_score__min__rmsd>  (41) 
10.82801324292616

>  <meeko>  (41) 
{"free_energy": -7.21, "intermolecular_energy": -8.71, "internal_energy": -1.69, "cluster_size": 20, "cluster_id": 2, "rank_in_cluster": 18}

>  <energy>  (41) 
-7.51

>  <cluster_rmsd>  (41) 
1.57

>  <cluster>  (41) 
2

$$$$

     RDKit          3D

 42 44  0  0  0  0  0  0  0  0999 V2000
  141.0280   71.7400  228.1660 C   0  0  0  0  0  0  0  0  0  0  0  0
  141.0690   70.3460  228.3470 O   0  0  0  0  0  0  0  0  0  0  0  0
  140.5590   69.5390  227.3430 C   0  0  0  0  0  0  0  0  0  0  0  0
  140.5270   68.1660  227.5330 C   0  0  0  0  0  0  0  0  0  0  0  0
  140.0100   67.4200  226.5010 C   0  0  0  0  0  0  0  0  0  0  0  0
  139.5470   68.0400  225.3340 C   0  0  0  0  0  0  0  0  0  0  0  0
  139.5820   69.4000  225.1570 C   0  0  0  0  0  0  0  0  0  0  0  0
  139.1360   70.0920  224.0160 N   0  0  0  0  0  0  0  0  0  0  0  0
  139.5870   71.3600  223.5830 C   0  0  0  0  0  0  0  0  0  0  0  0
  140.4590   72.0300  224.1770 O   0  0  0  0  0  0  0  0  0  0  0  0
  139.0160   71.9790  222.3400 C   0  0  0  0  0  0  0  0  0  0  0  0
  139.3880   73.3740  222.2400 N   0  0  0  0  0  0  0  0  0  0  0  0
  140.5000   73.7670  221.4860 C   0  0  0  0  0  0  0  0  0  0  0  0
  141.2360   72.9480  220.8570 O   0  0  0  0  0  0  0  0  0  0  0  0
  140.8380   75.1930  221.4150 C   0  0  0  0  0  0  0  0  0  0  0  0
  141.7440   75.6720  220.4890 C   0  0  0  0  0  0  0  0  0  0  0  0
  142.0790   76.9960  220.3990 C   0  0  0  0  0  0  0  0  0  0  0  0
  141.4770   77.8970  221.2820 C   0  0  0  0  0  0  0  0  0  0  0  0
  141.7950   79.2570  221.2200 C   0  0  0  0  0  0  0  0  0  0  0  0
  141.1750   80.1200  222.1150 C   0  0  0  0  0  0  0  0  0  0  0  0
  141.5580   81.8150  222.0530 Cl  0  0  0  0  0  0  0  0  0  0  0  0
  140.2700   79.6360  223.0380 C   0  0  0  0  0  0  0  0  0  0  0  0
  139.9620   78.2840  223.0910 C   0  0  0  0  0  0  0  0  0  0  0  0
  140.5740   77.4020  222.2020 C   0  0  0  0  0  0  0  0  0  0  0  0
  140.2720   76.0900  222.2560 N   0  0  0  0  0  0  0  0  0  0  0  0
  140.1030   70.1470  226.1960 C   0  0  0  0  0  0  0  0  0  0  0  0
  141.0134   72.2369  229.1473 H   0  0  0  0  0  0  0  0  0  0  0  0
  141.9170   72.0632  227.6046 H   0  0  0  0  0  0  0  0  0  0  0  0
  140.1215   72.0103  227.6046 H   0  0  0  0  0  0  0  0  0  0  0  0
  140.8951   67.6995  228.4587 H   0  0  0  0  0  0  0  0  0  0  0  0
  139.9594   66.3250  226.5927 H   0  0  0  0  0  0  0  0  0  0  0  0
  139.1394   67.4123  224.5279 H   0  0  0  0  0  0  0  0  0  0  0  0
  138.3910   69.6470  223.4060 H   0  0  0  0  0  0  0  0  0  0  0  0
  139.3990   71.4402  221.4608 H   0  0  0  0  0  0  0  0  0  0  0  0
  137.9191   71.9101  222.3851 H   0  0  0  0  0  0  0  0  0  0  0  0
  138.7980   74.0790  222.7500 H   0  0  0  0  0  0  0  0  0  0  0  0
  142.2156   74.9602  219.7955 H   0  0  0  0  0  0  0  0  0  0  0  0
  142.8052   77.3430  219.6492 H   0  0  0  0  0  0  0  0  0  0  0  0
  142.5177   79.6342  220.4814 H   0  0  0  0  0  0  0  0  0  0  0  0
  139.7867   80.3309  223.7405 H   0  0  0  0  0  0  0  0  0  0  0  0
  139.2387   77.9103  223.8307 H   0  0  0  0  0  0  0  0  0  0  0  0
  140.1539   71.2421  226.1050 H   0  0  0  0  0  0  0  0  0  0  0  0
  1  2  1  0
  2  3  1  0
  3  4  2  0
  4  5  1  0
  5  6  2  0
  6  7  1  0
  7  8  1  0
  8  9  1  0
  9 10  2  0
  9 11  1  0
 11 12  1  0
 12 13  1  0
 13 14  2  0
 13 15  1  0
 15 16  2  0
 16 17  1  0
 17 18  2  0
 18 19  1  0
 19 20  2  0
 20 21  1  0
 20 22  1  0
 22 23  2  0
 23 24  1  0
 24 25  2  0
  7 26  2  0
 26  3  1  0
 25 15  1  0
 24 18  1  0
  1 27  1  0
  1 28  1  0
  1 29  1  0
  4 30  1  0
  5 31  1  0
  6 32  1  0
  8 33  1  0
 11 34  1  0
 11 35  1  0
 12 36  1  0
 16 37  1  0
 17 38  1  0
 19 39  1  0
 22 40  1  0
 23 41  1  0
 26 42  1  0
M  END
>  <smiles>  (42) 
COc1cccc(NC(=O)CNC(=O)c2ccc3cc(Cl)ccc3n2)c1

>  <score_type>  (42) 
oracle

>  <origin>  (42) 
autodockgpu

>  <m_score__min__energy>  (42) 
-8.8100000000000005

>  <m_primary>  (42) 
energy

>  <rmsd>  (42) 
11.236597288370518

>  <m_score__min__rmsd>  (42) 
11.236597288370518

>  <meeko>  (42) 
{"free_energy": -8.03, "intermolecular_energy": -9.52, "internal_energy": -1.11, "cluster_size": 20, "cluster_id": 2, "rank_in_cluster": 4}

>  <energy>  (42) 
-7.36

>  <cluster_rmsd>  (42) 
0.71

>  <cluster>  (42) 
2

$$$$

     RDKit          3D

 42 44  0  0  0  0  0  0  0  0999 V2000
  140.5710   82.1420  220.5940 C   0  0  0  0  0  0  0  0  0  0  0  0
  141.8130   81.7020  221.0850 O   0  0  0  0  0  0  0  0  0  0  0  0
  141.8260   80.6590  221.9960 C   0  0  0  0  0  0  0  0  0  0  0  0
  142.1750   80.9190  223.3130 C   0  0  0  0  0  0  0  0  0  0  0  0
  142.1700   79.8420  224.1680 C   0  0  0  0  0  0  0  0  0  0  0  0
  141.8260   78.5660  223.7060 C   0  0  0  0  0  0  0  0  0  0  0  0
  141.4830   78.3200  222.4010 C   0  0  0  0  0  0  0  0  0  0  0  0
  141.1260   77.0680  221.8670 N   0  0  0  0  0  0  0  0  0  0  0  0
  139.8150   76.5510  221.7610 C   0  0  0  0  0  0  0  0  0  0  0  0
  138.7920   77.1630  222.1400 O   0  0  0  0  0  0  0  0  0  0  0  0
  139.5860   75.1920  221.1660 C   0  0  0  0  0  0  0  0  0  0  0  0
  139.5430   74.1780  222.1990 N   0  0  0  0  0  0  0  0  0  0  0  0
  140.2690   72.9880  222.0650 C   0  0  0  0  0  0  0  0  0  0  0  0
  140.9940   72.7270  221.0580 O   0  0  0  0  0  0  0  0  0  0  0  0
  140.1930   71.9900  223.1390 C   0  0  0  0  0  0  0  0  0  0  0  0
  139.6020   70.7580  222.9330 C   0  0  0  0  0  0  0  0  0  0  0  0
  139.5170   69.8070  223.9130 C   0  0  0  0  0  0  0  0  0  0  0  0
  140.0490   70.0980  225.1720 C   0  0  0  0  0  0  0  0  0  0  0  0
  139.9800   69.1520  226.1980 C   0  0  0  0  0  0  0  0  0  0  0  0
  140.5210   69.4780  227.4350 C   0  0  0  0  0  0  0  0  0  0  0  0
  140.4440   68.3130  228.7240 Cl  0  0  0  0  0  0  0  0  0  0  0  0
  141.1110   70.7110  227.6340 C   0  0  0  0  0  0  0  0  0  0  0  0
  141.1750   71.6440  226.6090 C   0  0  0  0  0  0  0  0  0  0  0  0
  140.6370   71.3340  225.3610 C   0  0  0  0  0  0  0  0  0  0  0  0
  140.7010   72.2420  224.3680 N   0  0  0  0  0  0  0  0  0  0  0  0
  141.4890   79.4040  221.5440 C   0  0  0  0  0  0  0  0  0  0  0  0
  139.9058   82.3777  221.4378 H   0  0  0  0  0  0  0  0  0  0  0  0
  140.7177   83.0429  219.9801 H   0  0  0  0  0  0  0  0  0  0  0  0
  140.1179   81.3497  219.9801 H   0  0  0  0  0  0  0  0  0  0  0  0
  142.4409   81.9303  223.6545 H   0  0  0  0  0  0  0  0  0  0  0  0
  142.4389   79.9844  225.2251 H   0  0  0  0  0  0  0  0  0  0  0  0
  141.8310   77.7274  224.4179 H   0  0  0  0  0  0  0  0  0  0  0  0
  141.8920   76.4300  221.5020 H   0  0  0  0  0  0  0  0  0  0  0  0
  138.6299   75.1931  220.6220 H   0  0  0  0  0  0  0  0  0  0  0  0
  140.4162   74.9627  220.4817 H   0  0  0  0  0  0  0  0  0  0  0  0
  138.9510   74.3640  223.0470 H   0  0  0  0  0  0  0  0  0  0  0  0
  139.1830   70.5328  221.9412 H   0  0  0  0  0  0  0  0  0  0  0  0
  139.0408   68.8355  223.7144 H   0  0  0  0  0  0  0  0  0  0  0  0
  139.5085   68.1725  226.0301 H   0  0  0  0  0  0  0  0  0  0  0  0
  141.5359   70.9566  228.6185 H   0  0  0  0  0  0  0  0  0  0  0  0
  141.6475   72.6225  226.7802 H   0  0  0  0  0  0  0  0  0  0  0  0
  141.2209   79.2617  220.4867 H   0  0  0  0  0  0  0  0  0  0  0  0
  1  2  1  0
  2  3  1  0
  3  4  2  0
  4  5  1  0
  5  6  2  0
  6  7  1  0
  7  8  1  0
  8  9  1  0
  9 10  2  0
  9 11  1  0
 11 12  1  0
 12 13  1  0
 13 14  2  0
 13 15  1  0
 15 16  2  0
 16 17  1  0
 17 18  2  0
 18 19  1  0
 19 20  2  0
 20 21  1  0
 20 22  1  0
 22 23  2  0
 23 24  1  0
 24 25  2  0
  7 26  2  0
 26  3  1  0
 25 15  1  0
 24 18  1  0
  1 27  1  0
  1 28  1  0
  1 29  1  0
  4 30  1  0
  5 31  1  0
  6 32  1  0
  8 33  1  0
 11 34  1  0
 11 35  1  0
 12 36  1  0
 16 37  1  0
 17 38  1  0
 19 39  1  0
 22 40  1  0
 23 41  1  0
 26 42  1  0
M  END
>  <smiles>  (43) 
COc1cccc(NC(=O)CNC(=O)c2ccc3cc(Cl)ccc3n2)c1

>  <score_type>  (43) 
oracle

>  <origin>  (43) 
autodockgpu

>  <m_score__min__energy>  (43) 
-8.8100000000000005

>  <m_primary>  (43) 
energy

>  <rmsd>  (43) 
3.7836789618478566

>  <m_score__min__rmsd>  (43) 
3.7836789618478566

>  <meeko>  (43) 
{"free_energy": -8.73, "intermolecular_energy": -10.22, "internal_energy": -0.92, "cluster_size": 26, "cluster_id": 1, "rank_in_cluster": 6}

>  <energy>  (43) 
-7.28

>  <cluster_rmsd>  (43) 
1.93

>  <cluster>  (43) 
2

$$$$

     RDKit          3D

 42 44  0  0  0  0  0  0  0  0999 V2000
  141.4510   72.2590  227.9020 C   0  0  0  0  0  0  0  0  0  0  0  0
  141.3170   70.9160  228.2940 O   0  0  0  0  0  0  0  0  0  0  0  0
  140.7440   70.0250  227.4020 C   0  0  0  0  0  0  0  0  0  0  0  0
  140.6880   68.6800  227.7340 C   0  0  0  0  0  0  0  0  0  0  0  0
  140.1080   67.8480  226.8060 C   0  0  0  0  0  0  0  0  0  0  0  0
  139.6100   68.3580  225.6020 C   0  0  0  0  0  0  0  0  0  0  0  0
  139.6690   69.6910  225.2830 C   0  0  0  0  0  0  0  0  0  0  0  0
  139.1900   70.2750  224.0970 N   0  0  0  0  0  0  0  0  0  0  0  0
  137.9260   70.0440  223.5080 C   0  0  0  0  0  0  0  0  0  0  0  0
  137.0640   69.2750  223.9850 O   0  0  0  0  0  0  0  0  0  0  0  0
  137.5500   70.7420  222.2320 C   0  0  0  0  0  0  0  0  0  0  0  0
  138.1110   72.0760  222.1890 N   0  0  0  0  0  0  0  0  0  0  0  0
  139.4420   72.2810  221.8050 C   0  0  0  0  0  0  0  0  0  0  0  0
  140.2230   71.3380  221.4770 O   0  0  0  0  0  0  0  0  0  0  0  0
  139.9650   73.6520  221.7770 C   0  0  0  0  0  0  0  0  0  0  0  0
  141.2200   73.9310  221.2720 C   0  0  0  0  0  0  0  0  0  0  0  0
  141.7350   75.1990  221.2330 C   0  0  0  0  0  0  0  0  0  0  0  0
  140.9570   76.2500  221.7250 C   0  0  0  0  0  0  0  0  0  0  0  0
  141.4490   77.5580  221.7020 C   0  0  0  0  0  0  0  0  0  0  0  0
  140.6450   78.5750  222.1990 C   0  0  0  0  0  0  0  0  0  0  0  0
  141.2420   80.2090  222.1780 Cl  0  0  0  0  0  0  0  0  0  0  0  0
  139.3910   78.2890  222.7030 C   0  0  0  0  0  0  0  0  0  0  0  0
  138.9110   76.9880  222.7210 C   0  0  0  0  0  0  0  0  0  0  0  0
  139.7050   75.9540  222.2260 C   0  0  0  0  0  0  0  0  0  0  0  0
  139.2350   74.6910  222.2460 N   0  0  0  0  0  0  0  0  0  0  0  0
  140.2530   70.5250  226.2180 C   0  0  0  0  0  0  0  0  0  0  0  0
  141.5147   72.8972  228.7957 H   0  0  0  0  0  0  0  0  0  0  0  0
  142.3653   72.3763  227.3018 H   0  0  0  0  0  0  0  0  0  0  0  0
  140.5779   72.5546  227.3018 H   0  0  0  0  0  0  0  0  0  0  0  0
  141.0854   68.2999  228.6867 H   0  0  0  0  0  0  0  0  0  0  0  0
  140.0346   66.7700  227.0122 H   0  0  0  0  0  0  0  0  0  0  0  0
  139.1530   67.6625  224.8827 H   0  0  0  0  0  0  0  0  0  0  0  0
  139.8130   70.9560  223.5730 H   0  0  0  0  0  0  0  0  0  0  0  0
  137.9321   70.1628  221.3784 H   0  0  0  0  0  0  0  0  0  0  0  0
  136.4538   70.8196  222.1833 H   0  0  0  0  0  0  0  0  0  0  0  0
  137.4900   72.8800  222.4550 H   0  0  0  0  0  0  0  0  0  0  0  0
  141.8301   73.1012  220.8857 H   0  0  0  0  0  0  0  0  0  0  0  0
  142.7387   75.3860  220.8235 H   0  0  0  0  0  0  0  0  0  0  0  0
  142.4492   77.7765  221.2998 H   0  0  0  0  0  0  0  0  0  0  0  0
  138.7649   79.1040  223.0952 H   0  0  0  0  0  0  0  0  0  0  0  0
  137.9100   76.7730  223.1233 H   0  0  0  0  0  0  0  0  0  0  0  0
  140.3262   71.6032  226.0126 H   0  0  0  0  0  0  0  0  0  0  0  0
  1  2  1  0
  2  3  1  0
  3  4  2  0
  4  5  1  0
  5  6  2  0
  6  7  1  0
  7  8  1  0
  8  9  1  0
  9 10  2  0
  9 11  1  0
 11 12  1  0
 12 13  1  0
 13 14  2  0
 13 15  1  0
 15 16  2  0
 16 17  1  0
 17 18  2  0
 18 19  1  0
 19 20  2  0
 20 21  1  0
 20 22  1  0
 22 23  2  0
 23 24  1  0
 24 25  2  0
  7 26  2  0
 26  3  1  0
 25 15  1  0
 24 18  1  0
  1 27  1  0
  1 28  1  0
  1 29  1  0
  4 30  1  0
  5 31  1  0
  6 32  1  0
  8 33  1  0
 11 34  1  0
 11 35  1  0
 12 36  1  0
 16 37  1  0
 17 38  1  0
 19 39  1  0
 22 40  1  0
 23 41  1  0
 26 42  1  0
M  END
>  <smiles>  (44) 
COc1cccc(NC(=O)CNC(=O)c2ccc3cc(Cl)ccc3n2)c1

>  <score_type>  (44) 
oracle

>  <origin>  (44) 
autodockgpu

>  <m_score__min__energy>  (44) 
-8.8100000000000005

>  <m_primary>  (44) 
energy

>  <rmsd>  (44) 
10.751630538528337

>  <m_score__min__rmsd>  (44) 
10.751630538528337

>  <meeko>  (44) 
{"free_energy": -6.93, "intermolecular_energy": -8.42, "internal_energy": -1.83, "cluster_size": 20, "cluster_id": 2, "rank_in_cluster": 20}

>  <energy>  (44) 
-7.21

>  <cluster_rmsd>  (44) 
1.81

>  <cluster>  (44) 
2

$$$$

     RDKit          3D

 42 44  0  0  0  0  0  0  0  0999 V2000
  143.0330   80.5050  223.2140 C   0  0  0  0  0  0  0  0  0  0  0  0
  142.2100   79.7510  224.0690 O   0  0  0  0  0  0  0  0  0  0  0  0
  141.0860   79.1470  223.5340 C   0  0  0  0  0  0  0  0  0  0  0  0
  139.8700   79.8120  223.5940 C   0  0  0  0  0  0  0  0  0  0  0  0
  138.7910   79.1600  223.0450 C   0  0  0  0  0  0  0  0  0  0  0  0
  138.9420   77.8960  222.4640 C   0  0  0  0  0  0  0  0  0  0  0  0
  140.1490   77.2460  222.4090 C   0  0  0  0  0  0  0  0  0  0  0  0
  140.3760   75.9790  221.8420 N   0  0  0  0  0  0  0  0  0  0  0  0
  141.3230   75.6750  220.8380 C   0  0  0  0  0  0  0  0  0  0  0  0
  142.0900   76.5180  220.3250 O   0  0  0  0  0  0  0  0  0  0  0  0
  141.4530   74.2690  220.3260 C   0  0  0  0  0  0  0  0  0  0  0  0
  141.3740   73.3150  221.4120 N   0  0  0  0  0  0  0  0  0  0  0  0
  140.1340   72.8870  221.9010 C   0  0  0  0  0  0  0  0  0  0  0  0
  139.0270   73.2950  221.4360 O   0  0  0  0  0  0  0  0  0  0  0  0
  140.1050   71.9190  223.0040 C   0  0  0  0  0  0  0  0  0  0  0  0
  139.5760   70.6540  222.8350 C   0  0  0  0  0  0  0  0  0  0  0  0
  139.5360   69.7300  223.8440 C   0  0  0  0  0  0  0  0  0  0  0  0
  140.0510   70.0850  225.0940 C   0  0  0  0  0  0  0  0  0  0  0  0
  140.0270   69.1670  226.1480 C   0  0  0  0  0  0  0  0  0  0  0  0
  140.5500   69.5580  227.3740 C   0  0  0  0  0  0  0  0  0  0  0  0
  140.5280   68.4300  228.6980 Cl  0  0  0  0  0  0  0  0  0  0  0  0
  141.0780   70.8240  227.5360 C   0  0  0  0  0  0  0  0  0  0  0  0
  141.0970   71.7270  226.4830 C   0  0  0  0  0  0  0  0  0  0  0  0
  140.5770   71.3530  225.2450 C   0  0  0  0  0  0  0  0  0  0  0  0
  140.5980   72.2330  224.2250 N   0  0  0  0  0  0  0  0  0  0  0  0
  141.2310   77.9050  222.9620 C   0  0  0  0  0  0  0  0  0  0  0  0
  143.7126   81.1276  223.8143 H   0  0  0  0  0  0  0  0  0  0  0  0
  143.6218   79.8264  222.5794 H   0  0  0  0  0  0  0  0  0  0  0  0
  142.4084   81.1509  222.5794 H   0  0  0  0  0  0  0  0  0  0  0  0
  139.7742   80.8060  224.0553 H   0  0  0  0  0  0  0  0  0  0  0  0
  137.7998   79.6366  223.0627 H   0  0  0  0  0  0  0  0  0  0  0  0
  138.0573   77.4036  222.0340 H   0  0  0  0  0  0  0  0  0  0  0  0
  139.7970   75.1560  222.1790 H   0  0  0  0  0  0  0  0  0  0  0  0
  140.6410   74.0693  219.6113 H   0  0  0  0  0  0  0  0  0  0  0  0
  142.4315   74.1626  219.8349 H   0  0  0  0  0  0  0  0  0  0  0  0
  142.2740   72.9560  221.8190 H   0  0  0  0  0  0  0  0  0  0  0  0
  139.1708   70.3783  221.8502 H   0  0  0  0  0  0  0  0  0  0  0  0
  139.1083   68.7308  223.6750 H   0  0  0  0  0  0  0  0  0  0  0  0
  139.6047   68.1607  226.0100 H   0  0  0  0  0  0  0  0  0  0  0  0
  141.4887   71.1201  228.5125 H   0  0  0  0  0  0  0  0  0  0  0  0
  141.5201   72.7325  226.6243 H   0  0  0  0  0  0  0  0  0  0  0  0
  142.2225   77.4289  222.9442 H   0  0  0  0  0  0  0  0  0  0  0  0
  1  2  1  0
  2  3  1  0
  3  4  2  0
  4  5  1  0
  5  6  2  0
  6  7  1  0
  7  8  1  0
  8  9  1  0
  9 10  2  0
  9 11  1  0
 11 12  1  0
 12 13  1  0
 13 14  2  0
 13 15  1  0
 15 16  2  0
 16 17  1  0
 17 18  2  0
 18 19  1  0
 19 20  2  0
 20 21  1  0
 20 22  1  0
 22 23  2  0
 23 24  1  0
 24 25  2  0
  7 26  2  0
 26  3  1  0
 25 15  1  0
 24 18  1  0
  1 27  1  0
  1 28  1  0
  1 29  1  0
  4 30  1  0
  5 31  1  0
  6 32  1  0
  8 33  1  0
 11 34  1  0
 11 35  1  0
 12 36  1  0
 16 37  1  0
 17 38  1  0
 19 39  1  0
 22 40  1  0
 23 41  1  0
 26 42  1  0
M  END
>  <smiles>  (45) 
COc1cccc(NC(=O)CNC(=O)c2ccc3cc(Cl)ccc3n2)c1

>  <score_type>  (45) 
oracle

>  <origin>  (45) 
autodockgpu

>  <m_score__min__energy>  (45) 
-8.8100000000000005

>  <m_primary>  (45) 
energy

>  <rmsd>  (45) 
4.693713538345851

>  <m_score__min__rmsd>  (45) 
4.693713538345851

>  <meeko>  (45) 
{"free_energy": -7.35, "intermolecular_energy": -8.84, "internal_energy": -1.64, "cluster_size": 26, "cluster_id": 1, "rank_in_cluster": 24}

>  <energy>  (45) 
-7.11

>  <cluster_rmsd>  (45) 
1.82

>  <cluster>  (45) 
2

$$$$

     RDKit          3D

 42 44  0  0  0  0  0  0  0  0999 V2000
  140.3180   67.4140  226.5360 C   0  0  0  0  0  0  0  0  0  0  0  0
  140.2740   68.3850  227.5520 O   0  0  0  0  0  0  0  0  0  0  0  0
  140.5710   69.6960  227.2200 C   0  0  0  0  0  0  0  0  0  0  0  0
  141.0900   70.5360  228.1940 C   0  0  0  0  0  0  0  0  0  0  0  0
  141.3640   71.8250  227.8020 C   0  0  0  0  0  0  0  0  0  0  0  0
  141.1230   72.2380  226.4870 C   0  0  0  0  0  0  0  0  0  0  0  0
  140.6090   71.3990  225.5310 C   0  0  0  0  0  0  0  0  0  0  0  0
  140.3410   71.7410  224.1930 N   0  0  0  0  0  0  0  0  0  0  0  0
  139.1500   71.4630  223.4860 C   0  0  0  0  0  0  0  0  0  0  0  0
  138.1690   70.8650  223.9790 O   0  0  0  0  0  0  0  0  0  0  0  0
  139.0060   71.8910  222.0540 C   0  0  0  0  0  0  0  0  0  0  0  0
  139.3460   73.2900  221.8970 N   0  0  0  0  0  0  0  0  0  0  0  0
  140.6720   73.6850  221.6840 C   0  0  0  0  0  0  0  0  0  0  0  0
  141.6380   72.8660  221.6160 O   0  0  0  0  0  0  0  0  0  0  0  0
  140.9670   75.1150  221.5320 C   0  0  0  0  0  0  0  0  0  0  0  0
  141.8300   75.5700  220.5540 C   0  0  0  0  0  0  0  0  0  0  0  0
  142.1240   76.8960  220.3870 C   0  0  0  0  0  0  0  0  0  0  0  0
  141.5250   77.8240  221.2430 C   0  0  0  0  0  0  0  0  0  0  0  0
  141.8010   79.1870  221.1030 C   0  0  0  0  0  0  0  0  0  0  0  0
  141.1860   80.0780  221.9730 C   0  0  0  0  0  0  0  0  0  0  0  0
  141.5180   81.7780  221.8130 Cl  0  0  0  0  0  0  0  0  0  0  0  0
  140.3240   79.6170  222.9480 C   0  0  0  0  0  0  0  0  0  0  0  0
  140.0560   78.2620  223.0790 C   0  0  0  0  0  0  0  0  0  0  0  0
  140.6650   77.3530  222.2150 C   0  0  0  0  0  0  0  0  0  0  0  0
  140.4020   76.0380  222.3450 N   0  0  0  0  0  0  0  0  0  0  0  0
  140.3350   70.1030  225.9280 C   0  0  0  0  0  0  0  0  0  0  0  0
  140.3634   66.4122  226.9880 H   0  0  0  0  0  0  0  0  0  0  0  0
  139.4153   67.4944  225.9126 H   0  0  0  0  0  0  0  0  0  0  0  0
  141.2097   67.5757  225.9126 H   0  0  0  0  0  0  0  0  0  0  0  0
  141.2721   70.1904  229.2223 H   0  0  0  0  0  0  0  0  0  0  0  0
  141.7770   72.5391  228.5297 H   0  0  0  0  0  0  0  0  0  0  0  0
  141.3549   73.2766  226.2087 H   0  0  0  0  0  0  0  0  0  0  0  0
  141.0840   72.2560  223.6380 H   0  0  0  0  0  0  0  0  0  0  0  0
  139.6767   71.2847  221.4275 H   0  0  0  0  0  0  0  0  0  0  0  0
  137.9596   71.7466  221.7471 H   0  0  0  0  0  0  0  0  0  0  0  0
  138.5680   73.9940  221.9480 H   0  0  0  0  0  0  0  0  0  0  0  0
  142.3000   74.8366  219.8822 H   0  0  0  0  0  0  0  0  0  0  0  0
  142.8159   77.2238  219.5972 H   0  0  0  0  0  0  0  0  0  0  0  0
  142.4886   79.5453  220.3227 H   0  0  0  0  0  0  0  0  0  0  0  0
  139.8432   80.3336  223.6301 H   0  0  0  0  0  0  0  0  0  0  0  0
  139.3672   77.9071  223.8598 H   0  0  0  0  0  0  0  0  0  0  0  0
  139.9228   69.3882  225.2005 H   0  0  0  0  0  0  0  0  0  0  0  0
  1  2  1  0
  2  3  1  0
  3  4  2  0
  4  5  1  0
  5  6  2  0
  6  7  1  0
  7  8  1  0
  8  9  1  0
  9 10  2  0
  9 11  1  0
 11 12  1  0
 12 13  1  0
 13 14  2  0
 13 15  1  0
 15 16  2  0
 16 17  1  0
 17 18  2  0
 18 19  1  0
 19 20  2  0
 20 21  1  0
 20 22  1  0
 22 23  2  0
 23 24  1  0
 24 25  2  0
  7 26  2  0
 26  3  1  0
 25 15  1  0
 24 18  1  0
  1 27  1  0
  1 28  1  0
  1 29  1  0
  4 30  1  0
  5 31  1  0
  6 32  1  0
  8 33  1  0
 11 34  1  0
 11 35  1  0
 12 36  1  0
 16 37  1  0
 17 38  1  0
 19 39  1  0
 22 40  1  0
 23 41  1  0
 26 42  1  0
M  END
>  <smiles>  (46) 
COc1cccc(NC(=O)CNC(=O)c2ccc3cc(Cl)ccc3n2)c1

>  <score_type>  (46) 
oracle

>  <origin>  (46) 
autodockgpu

>  <m_score__min__energy>  (46) 
-8.8100000000000005

>  <m_primary>  (46) 
energy

>  <rmsd>  (46) 
11.276271984794093

>  <m_score__min__rmsd>  (46) 
11.276271984794093

>  <meeko>  (46) 
{"free_energy": -7.63, "intermolecular_energy": -9.12, "internal_energy": -1.71, "cluster_size": 20, "cluster_id": 2, "rank_in_cluster": 12}

>  <energy>  (46) 
-6.93

>  <cluster_rmsd>  (46) 
1.88

>  <cluster>  (46) 
2

$$$$

     RDKit          3D

 42 44  0  0  0  0  0  0  0  0999 V2000
  141.3320   82.2530  220.4870 C   0  0  0  0  0  0  0  0  0  0  0  0
  140.5760   81.8310  221.5960 O   0  0  0  0  0  0  0  0  0  0  0  0
  141.0380   80.7550  222.3330 C   0  0  0  0  0  0  0  0  0  0  0  0
  141.7150   80.9920  223.5200 C   0  0  0  0  0  0  0  0  0  0  0  0
  142.1490   79.8820  224.2060 C   0  0  0  0  0  0  0  0  0  0  0  0
  141.9060   78.5960  223.7090 C   0  0  0  0  0  0  0  0  0  0  0  0
  141.2350   78.3720  222.5340 C   0  0  0  0  0  0  0  0  0  0  0  0
  140.9540   77.1130  221.9740 N   0  0  0  0  0  0  0  0  0  0  0  0
  139.6780   76.5090  221.8820 C   0  0  0  0  0  0  0  0  0  0  0  0
  138.6250   77.0390  222.2970 O   0  0  0  0  0  0  0  0  0  0  0  0
  139.5300   75.1520  221.2560 C   0  0  0  0  0  0  0  0  0  0  0  0
  139.4830   74.1200  222.2700 N   0  0  0  0  0  0  0  0  0  0  0  0
  140.3000   72.9870  222.1770 C   0  0  0  0  0  0  0  0  0  0  0  0
  141.1150   72.7950  221.2250 O   0  0  0  0  0  0  0  0  0  0  0  0
  140.2160   71.9670  223.2290 C   0  0  0  0  0  0  0  0  0  0  0  0
  139.6660   70.7240  222.9810 C   0  0  0  0  0  0  0  0  0  0  0  0
  139.5750   69.7530  223.9410 C   0  0  0  0  0  0  0  0  0  0  0  0
  140.0570   70.0340  225.2230 C   0  0  0  0  0  0  0  0  0  0  0  0
  139.9800   69.0670  226.2290 C   0  0  0  0  0  0  0  0  0  0  0  0
  140.4700   69.3850  227.4890 C   0  0  0  0  0  0  0  0  0  0  0  0
  140.3820   68.1940  228.7530 Cl  0  0  0  0  0  0  0  0  0  0  0  0
  141.0190   70.6290  227.7300 C   0  0  0  0  0  0  0  0  0  0  0  0
  141.0910   71.5820  226.7240 C   0  0  0  0  0  0  0  0  0  0  0  0
  140.6030   71.2810  225.4530 C   0  0  0  0  0  0  0  0  0  0  0  0
  140.6750   72.2090  224.4790 N   0  0  0  0  0  0  0  0  0  0  0  0
  140.8000   79.4900  221.8470 C   0  0  0  0  0  0  0  0  0  0  0  0
  142.2428   82.7614  220.8362 H   0  0  0  0  0  0  0  0  0  0  0  0
  141.6099   81.3795  219.8789 H   0  0  0  0  0  0  0  0  0  0  0  0
  140.7344   82.9480  219.8789 H   0  0  0  0  0  0  0  0  0  0  0  0
  141.8948   82.0114  223.8921 H   0  0  0  0  0  0  0  0  0  0  0  0
  142.6923   80.0058  225.1544 H   0  0  0  0  0  0  0  0  0  0  0  0
  142.2677   77.7307  224.2838 H   0  0  0  0  0  0  0  0  0  0  0  0
  141.7530   76.5380  221.5770 H   0  0  0  0  0  0  0  0  0  0  0  0
  138.5993   75.1247  220.6703 H   0  0  0  0  0  0  0  0  0  0  0  0
  140.3976   74.9675  220.6054 H   0  0  0  0  0  0  0  0  0  0  0  0
  138.8180   74.2480  223.0730 H   0  0  0  0  0  0  0  0  0  0  0  0
  139.2862   70.5063  221.9719 H   0  0  0  0  0  0  0  0  0  0  0  0
  139.1324   68.7730  223.7091 H   0  0  0  0  0  0  0  0  0  0  0  0
  139.5420   68.0782  226.0278 H   0  0  0  0  0  0  0  0  0  0  0  0
  141.4042   70.8675  228.7324 H   0  0  0  0  0  0  0  0  0  0  0  0
  141.5306   72.5695  226.9281 H   0  0  0  0  0  0  0  0  0  0  0  0
  140.2562   79.3666  220.8988 H   0  0  0  0  0  0  0  0  0  0  0  0
  1  2  1  0
  2  3  1  0
  3  4  2  0
  4  5  1  0
  5  6  2  0
  6  7  1  0
  7  8  1  0
  8  9  1  0
  9 10  2  0
  9 11  1  0
 11 12  1  0
 12 13  1  0
 13 14  2  0
 13 15  1  0
 15 16  2  0
 16 17  1  0
 17 18  2  0
 18 19  1  0
 19 20  2  0
 20 21  1  0
 20 22  1  0
 22 23  2  0
 23 24  1  0
 24 25  2  0
  7 26  2  0
 26  3  1  0
 25 15  1  0
 24 18  1  0
  1 27  1  0
  1 28  1  0
  1 29  1  0
  4 30  1  0
  5 31  1  0
  6 32  1  0
  8 33  1  0
 11 34  1  0
 11 35  1  0
 12 36  1  0
 16 37  1  0
 17 38  1  0
 19 39  1  0
 22 40  1  0
 23 41  1  0
 26 42  1  0
M  END
>  <smiles>  (47) 
COc1cccc(NC(=O)CNC(=O)c2ccc3cc(Cl)ccc3n2)c1

>  <score_type>  (47) 
oracle

>  <origin>  (47) 
autodockgpu

>  <m_score__min__energy>  (47) 
-8.8100000000000005

>  <m_primary>  (47) 
energy

>  <rmsd>  (47) 
3.7822068227846675

>  <m_score__min__rmsd>  (47) 
3.7822068227846675

>  <meeko>  (47) 
{"free_energy": -8.51, "intermolecular_energy": -10.0, "internal_energy": -0.92, "cluster_size": 26, "cluster_id": 1, "rank_in_cluster": 11}

>  <energy>  (47) 
-7.42

>  <cluster_rmsd>  (47) 
0.0

>  <cluster>  (47) 
3

$$$$

     RDKit          3D

 42 44  0  0  0  0  0  0  0  0999 V2000
  141.3980   81.3510  219.7100 C   0  0  0  0  0  0  0  0  0  0  0  0
  141.6090   81.6710  221.0630 O   0  0  0  0  0  0  0  0  0  0  0  0
  141.6770   80.6350  221.9790 C   0  0  0  0  0  0  0  0  0  0  0  0
  142.0660   80.9110  223.2810 C   0  0  0  0  0  0  0  0  0  0  0  0
  142.1150   79.8400  224.1420 C   0  0  0  0  0  0  0  0  0  0  0  0
  141.7830   78.5540  223.7010 C   0  0  0  0  0  0  0  0  0  0  0  0
  141.3990   78.2910  222.4110 C   0  0  0  0  0  0  0  0  0  0  0  0
  141.0520   77.0290  221.8970 N   0  0  0  0  0  0  0  0  0  0  0  0
  139.7390   76.5530  221.6760 C   0  0  0  0  0  0  0  0  0  0  0  0
  138.7070   77.2170  221.9170 O   0  0  0  0  0  0  0  0  0  0  0  0
  139.5200   75.1750  221.1200 C   0  0  0  0  0  0  0  0  0  0  0  0
  139.5650   74.1820  222.1720 N   0  0  0  0  0  0  0  0  0  0  0  0
  139.9970   72.8770  221.9060 C   0  0  0  0  0  0  0  0  0  0  0  0
  140.3680   72.4890  220.7580 O   0  0  0  0  0  0  0  0  0  0  0  0
  140.0240   71.9040  223.0060 C   0  0  0  0  0  0  0  0  0  0  0  0
  139.5620   70.6140  222.8350 C   0  0  0  0  0  0  0  0  0  0  0  0
  139.5750   69.6860  223.8400 C   0  0  0  0  0  0  0  0  0  0  0  0
  140.0770   70.0620  225.0890 C   0  0  0  0  0  0  0  0  0  0  0  0
  140.1070   69.1410  226.1400 C   0  0  0  0  0  0  0  0  0  0  0  0
  140.6130   69.5540  227.3650 C   0  0  0  0  0  0  0  0  0  0  0  0
  140.6570   68.4210  228.6840 Cl  0  0  0  0  0  0  0  0  0  0  0  0
  141.0740   70.8450  227.5300 C   0  0  0  0  0  0  0  0  0  0  0  0
  141.0420   71.7520  226.4800 C   0  0  0  0  0  0  0  0  0  0  0  0
  140.5360   71.3560  225.2430 C   0  0  0  0  0  0  0  0  0  0  0  0
  140.5060   72.2390  224.2260 N   0  0  0  0  0  0  0  0  0  0  0  0
  141.3510   79.3700  221.5480 C   0  0  0  0  0  0  0  0  0  0  0  0
  140.7937   80.4345  219.6399 H   0  0  0  0  0  0  0  0  0  0  0  0
  140.8678   82.1785  219.2159 H   0  0  0  0  0  0  0  0  0  0  0  0
  142.3674   81.1897  219.2159 H   0  0  0  0  0  0  0  0  0  0  0  0
  142.3212   81.9301  223.6070 H   0  0  0  0  0  0  0  0  0  0  0  0
  142.4182   79.9956  225.1879 H   0  0  0  0  0  0  0  0  0  0  0  0
  141.8320   77.7209  224.4177 H   0  0  0  0  0  0  0  0  0  0  0  0
  141.8250   76.3480  221.6430 H   0  0  0  0  0  0  0  0  0  0  0  0
  138.5361   75.1363  220.6297 H   0  0  0  0  0  0  0  0  0  0  0  0
  140.3183   74.9567  220.3954 H   0  0  0  0  0  0  0  0  0  0  0  0
  139.2640   74.4710  223.1360 H   0  0  0  0  0  0  0  0  0  0  0  0
  139.1676   70.3207  221.8509 H   0  0  0  0  0  0  0  0  0  0  0  0
  139.1988   68.6666  223.6689 H   0  0  0  0  0  0  0  0  0  0  0  0
  139.7387   68.1140  225.9999 H   0  0  0  0  0  0  0  0  0  0  0  0
  141.4718   71.1587  228.5064 H   0  0  0  0  0  0  0  0  0  0  0  0
  141.4138   72.7773  226.6231 H   0  0  0  0  0  0  0  0  0  0  0  0
  141.0479   79.2148  220.5021 H   0  0  0  0  0  0  0  0  0  0  0  0
  1  2  1  0
  2  3  1  0
  3  4  2  0
  4  5  1  0
  5  6  2  0
  6  7  1  0
  7  8  1  0
  8  9  1  0
  9 10  2  0
  9 11  1  0
 11 12  1  0
 12 13  1  0
 13 14  2  0
 13 15  1  0
 15 16  2  0
 16 17  1  0
 17 18  2  0
 18 19  1  0
 19 20  2  0
 20 21  1  0
 20 22  1  0
 22 23  2  0
 23 24  1  0
 24 25  2  0
  7 26  2  0
 26  3  1  0
 25 15  1  0
 24 18  1  0
  1 27  1  0
  1 28  1  0
  1 29  1  0
  4 30  1  0
  5 31  1  0
  6 32  1  0
  8 33  1  0
 11 34  1  0
 11 35  1  0
 12 36  1  0
 16 37  1  0
 17 38  1  0
 19 39  1  0
 22 40  1  0
 23 41  1  0
 26 42  1  0
M  END
>  <smiles>  (48) 
COc1cccc(NC(=O)CNC(=O)c2ccc3cc(Cl)ccc3n2)c1

>  <score_type>  (48) 
oracle

>  <origin>  (48) 
autodockgpu

>  <m_score__min__energy>  (48) 
-8.8100000000000005

>  <m_primary>  (48) 
energy

>  <rmsd>  (48) 
3.8769686767297973

>  <m_score__min__rmsd>  (48) 
3.8769686767297973

>  <meeko>  (48) 
{"free_energy": -8.81, "intermolecular_energy": -10.3, "internal_energy": -0.97, "cluster_size": 26, "cluster_id": 1, "rank_in_cluster": 1}

>  <energy>  (48) 
-7.42

>  <cluster_rmsd>  (48) 
0.07

>  <cluster>  (48) 
3

$$$$

     RDKit          3D

 42 44  0  0  0  0  0  0  0  0999 V2000
  140.6780   82.6620  221.1880 C   0  0  0  0  0  0  0  0  0  0  0  0
  141.7470   81.7530  221.1100 O   0  0  0  0  0  0  0  0  0  0  0  0
  141.7940   80.7150  222.0250 C   0  0  0  0  0  0  0  0  0  0  0  0
  142.1810   80.9840  223.3300 C   0  0  0  0  0  0  0  0  0  0  0  0
  142.2070   79.9120  224.1900 C   0  0  0  0  0  0  0  0  0  0  0  0
  141.8570   78.6320  223.7460 C   0  0  0  0  0  0  0  0  0  0  0  0
  141.4760   78.3760  222.4530 C   0  0  0  0  0  0  0  0  0  0  0  0
  141.1100   77.1200  221.9370 N   0  0  0  0  0  0  0  0  0  0  0  0
  139.8010   76.5900  221.8860 C   0  0  0  0  0  0  0  0  0  0  0  0
  138.7890   77.1920  222.3060 O   0  0  0  0  0  0  0  0  0  0  0  0
  139.5610   75.2270  221.3040 C   0  0  0  0  0  0  0  0  0  0  0  0
  139.5980   74.2120  222.3350 N   0  0  0  0  0  0  0  0  0  0  0  0
  140.0010   72.9030  222.0390 C   0  0  0  0  0  0  0  0  0  0  0  0
  140.3510   72.5310  220.8780 O   0  0  0  0  0  0  0  0  0  0  0  0
  140.0210   71.9090  223.1190 C   0  0  0  0  0  0  0  0  0  0  0  0
  139.5550   70.6240  222.9190 C   0  0  0  0  0  0  0  0  0  0  0  0
  139.5620   69.6750  223.9060 C   0  0  0  0  0  0  0  0  0  0  0  0
  140.0600   70.0250  225.1640 C   0  0  0  0  0  0  0  0  0  0  0  0
  140.0820   69.0830  226.1960 C   0  0  0  0  0  0  0  0  0  0  0  0
  140.5850   69.4690  227.4310 C   0  0  0  0  0  0  0  0  0  0  0  0
  140.6200   68.3100  228.7270 Cl  0  0  0  0  0  0  0  0  0  0  0  0
  141.0490   70.7550  227.6240 C   0  0  0  0  0  0  0  0  0  0  0  0
  141.0230   71.6840  226.5930 C   0  0  0  0  0  0  0  0  0  0  0  0
  140.5210   71.3140  225.3460 C   0  0  0  0  0  0  0  0  0  0  0  0
  140.4980   72.2180  224.3470 N   0  0  0  0  0  0  0  0  0  0  0  0
  141.4500   79.4560  221.5910 C   0  0  0  0  0  0  0  0  0  0  0  0
  140.4429   82.8619  222.2438 H   0  0  0  0  0  0  0  0  0  0  0  0
  140.9590   83.6020  220.6906 H   0  0  0  0  0  0  0  0  0  0  0  0
  139.7954   82.2336  220.6906 H   0  0  0  0  0  0  0  0  0  0  0  0
  142.4519   81.9984  223.6580 H   0  0  0  0  0  0  0  0  0  0  0  0
  142.5060   80.0619  225.2379 H   0  0  0  0  0  0  0  0  0  0  0  0
  141.8886   77.7977  224.4622 H   0  0  0  0  0  0  0  0  0  0  0  0
  141.8660   76.4890  221.5420 H   0  0  0  0  0  0  0  0  0  0  0  0
  138.5742   75.2113  220.8183 H   0  0  0  0  0  0  0  0  0  0  0  0
  140.3530   75.0130  220.5712 H   0  0  0  0  0  0  0  0  0  0  0  0
  139.3140   74.4880  223.3090 H   0  0  0  0  0  0  0  0  0  0  0  0
  139.1629   70.3525  221.9278 H   0  0  0  0  0  0  0  0  0  0  0  0
  139.1842   68.6601  223.7131 H   0  0  0  0  0  0  0  0  0  0  0  0
  139.7099   68.0607  226.0337 H   0  0  0  0  0  0  0  0  0  0  0  0
  141.4445   71.0472  228.6079 H   0  0  0  0  0  0  0  0  0  0  0  0
  141.3960   72.7055  226.7587 H   0  0  0  0  0  0  0  0  0  0  0  0
  141.1500   79.3066  220.5433 H   0  0  0  0  0  0  0  0  0  0  0  0
  1  2  1  0
  2  3  1  0
  3  4  2  0
  4  5  1  0
  5  6  2  0
  6  7  1  0
  7  8  1  0
  8  9  1  0
  9 10  2  0
  9 11  1  0
 11 12  1  0
 12 13  1  0
 13 14  2  0
 13 15  1  0
 15 16  2  0
 16 17  1  0
 17 18  2  0
 18 19  1  0
 19 20  2  0
 20 21  1  0
 20 22  1  0
 22 23  2  0
 23 24  1  0
 24 25  2  0
  7 26  2  0
 26  3  1  0
 25 15  1  0
 24 18  1  0
  1 27  1  0
  1 28  1  0
  1 29  1  0
  4 30  1  0
  5 31  1  0
  6 32  1  0
  8 33  1  0
 11 34  1  0
 11 35  1  0
 12 36  1  0
 16 37  1  0
 17 38  1  0
 19 39  1  0
 22 40  1  0
 23 41  1  0
 26 42  1  0
M  END
>  <smiles>  (49) 
COc1cccc(NC(=O)CNC(=O)c2ccc3cc(Cl)ccc3n2)c1

>  <score_type>  (49) 
oracle

>  <origin>  (49) 
autodockgpu

>  <m_score__min__energy>  (49) 
-8.8100000000000005

>  <m_primary>  (49) 
energy

>  <rmsd>  (49) 
3.794896007185376

>  <m_score__min__rmsd>  (49) 
3.794896007185376

>  <meeko>  (49) 
{"free_energy": -8.78, "intermolecular_energy": -10.27, "internal_energy": -0.98, "cluster_size": 26, "cluster_id": 1, "rank_in_cluster": 4}

>  <energy>  (49) 
-7.39

>  <cluster_rmsd>  (49) 
0.05

>  <cluster>  (49) 
3

$$$$

     RDKit          3D

 42 44  0  0  0  0  0  0  0  0999 V2000
  140.8430   82.7590  221.1550 C   0  0  0  0  0  0  0  0  0  0  0  0
  140.2320   82.0910  222.2310 O   0  0  0  0  0  0  0  0  0  0  0  0
  140.7960   80.9050  222.6720 C   0  0  0  0  0  0  0  0  0  0  0  0
  141.9600   80.9520  223.4250 C   0  0  0  0  0  0  0  0  0  0  0  0
  142.4700   79.7420  223.8320 C   0  0  0  0  0  0  0  0  0  0  0  0
  141.8290   78.5460  223.4910 C   0  0  0  0  0  0  0  0  0  0  0  0
  140.6780   78.5110  222.7460 C   0  0  0  0  0  0  0  0  0  0  0  0
  139.9790   77.3500  222.3670 N   0  0  0  0  0  0  0  0  0  0  0  0
  140.4180   76.3810  221.4360 C   0  0  0  0  0  0  0  0  0  0  0  0
  141.5070   76.4440  220.8260 O   0  0  0  0  0  0  0  0  0  0  0  0
  139.5590   75.1880  221.1280 C   0  0  0  0  0  0  0  0  0  0  0  0
  139.6390   74.2080  222.1900 N   0  0  0  0  0  0  0  0  0  0  0  0
  139.8550   72.8540  221.9000 C   0  0  0  0  0  0  0  0  0  0  0  0
  139.9900   72.4100  220.7200 O   0  0  0  0  0  0  0  0  0  0  0  0
  139.9280   71.8980  223.0110 C   0  0  0  0  0  0  0  0  0  0  0  0
  139.5090   70.5900  222.8610 C   0  0  0  0  0  0  0  0  0  0  0  0
  139.5660   69.6750  223.8770 C   0  0  0  0  0  0  0  0  0  0  0  0
  140.0680   70.0850  225.1150 C   0  0  0  0  0  0  0  0  0  0  0  0
  140.1410   69.1780  226.1770 C   0  0  0  0  0  0  0  0  0  0  0  0
  140.6460   69.6230  227.3910 C   0  0  0  0  0  0  0  0  0  0  0  0
  140.7440   68.5100  228.7230 Cl  0  0  0  0  0  0  0  0  0  0  0  0
  141.0640   70.9320  227.5350 C   0  0  0  0  0  0  0  0  0  0  0  0
  140.9880   71.8240  226.4750 C   0  0  0  0  0  0  0  0  0  0  0  0
  140.4830   71.3950  225.2480 C   0  0  0  0  0  0  0  0  0  0  0  0
  140.4110   72.2640  224.2220 N   0  0  0  0  0  0  0  0  0  0  0  0
  140.1670   79.7280  222.3380 C   0  0  0  0  0  0  0  0  0  0  0  0
  141.5379   83.5188  221.5421 H   0  0  0  0  0  0  0  0  0  0  0  0
  141.3972   82.0342  220.5406 H   0  0  0  0  0  0  0  0  0  0  0  0
  140.0718   83.2466  220.5406 H   0  0  0  0  0  0  0  0  0  0  0  0
  142.4476   81.9040  223.6820 H   0  0  0  0  0  0  0  0  0  0  0  0
  143.3916   79.7138  224.4320 H   0  0  0  0  0  0  0  0  0  0  0  0
  142.2654   77.5963  223.8339 H   0  0  0  0  0  0  0  0  0  0  0  0
  139.0300   77.1580  222.8030 H   0  0  0  0  0  0  0  0  0  0  0  0
  138.5146   75.5149  221.0171 H   0  0  0  0  0  0  0  0  0  0  0  0
  139.9176   74.7271  220.1958 H   0  0  0  0  0  0  0  0  0  0  0  0
  139.5320   74.5430  223.1800 H   0  0  0  0  0  0  0  0  0  0  0  0
  139.1136   70.2712  221.8853 H   0  0  0  0  0  0  0  0  0  0  0  0
  139.2246   68.6408  223.7227 H   0  0  0  0  0  0  0  0  0  0  0  0
  139.8065   68.1374  226.0533 H   0  0  0  0  0  0  0  0  0  0  0  0
  141.4622   71.2714  228.5026 H   0  0  0  0  0  0  0  0  0  0  0  0
  141.3242   72.8637  226.6018 H   0  0  0  0  0  0  0  0  0  0  0  0
  139.2453   79.7562  221.7383 H   0  0  0  0  0  0  0  0  0  0  0  0
  1  2  1  0
  2  3  1  0
  3  4  2  0
  4  5  1  0
  5  6  2  0
  6  7  1  0
  7  8  1  0
  8  9  1  0
  9 10  2  0
  9 11  1  0
 11 12  1  0
 12 13  1  0
 13 14  2  0
 13 15  1  0
 15 16  2  0
 16 17  1  0
 17 18  2  0
 18 19  1  0
 19 20  2  0
 20 21  1  0
 20 22  1  0
 22 23  2  0
 23 24  1  0
 24 25  2  0
  7 26  2  0
 26  3  1  0
 25 15  1  0
 24 18  1  0
  1 27  1  0
  1 28  1  0
  1 29  1  0
  4 30  1  0
  5 31  1  0
  6 32  1  0
  8 33  1  0
 11 34  1  0
 11 35  1  0
 12 36  1  0
 16 37  1  0
 17 38  1  0
 19 39  1  0
 22 40  1  0
 23 41  1  0
 26 42  1  0
M  END
>  <smiles>  (50) 
COc1cccc(NC(=O)CNC(=O)c2ccc3cc(Cl)ccc3n2)c1

>  <score_type>  (50) 
oracle

>  <origin>  (50) 
autodockgpu

>  <m_score__min__energy>  (50) 
-8.8100000000000005

>  <m_primary>  (50) 
energy

>  <rmsd>  (50) 
3.732199787584787

>  <m_score__min__rmsd>  (50) 
3.732199787584787

>  <meeko>  (50) 
{"free_energy": -8.09, "intermolecular_energy": -9.58, "internal_energy": -0.98, "cluster_size": 26, "cluster_id": 1, "rank_in_cluster": 13}

>  <energy>  (50) 
-7.3

>  <cluster_rmsd>  (50) 
0.1

>  <cluster>  (50) 
3

$$$$
