
     RDKit          3D

 55 58  0  0  0  0  0  0  0  0999 V2000
  140.5110   72.4550  220.7430 O   0  0  0  0  0  0  0  0  0  0  0  0
  140.1860   72.8270  221.9180 C   0  0  0  0  0  0  0  0  0  0  0  0
  139.8530   74.1950  222.1420 N   0  0  0  0  0  0  0  0  0  0  0  0
  139.9100   75.0760  220.9940 C   0  0  0  0  0  0  0  0  0  0  0  0
  141.2840   75.4900  220.6680 C   0  0  0  0  0  0  0  0  0  0  0  0
  142.2850   74.7300  220.6880 O   0  0  0  0  0  0  0  0  0  0  0  0
  141.4990   76.8480  220.3040 N   0  0  0  0  0  0  0  0  0  0  0  0
  142.5880   77.2100  219.4160 C   0  0  0  0  0  0  0  0  0  0  0  0
  142.2540   78.3060  218.4800 C   0  0  0  0  0  0  0  0  0  0  0  0
  140.8220   78.7050  218.3970 C   0  0  0  0  0  0  0  0  0  0  0  0
  139.9860   78.5050  219.5880 C   0  0  0  0  0  0  0  0  0  0  0  0
  140.6630   77.9310  220.7860 C   0  0  2  0  0  0  0  0  0  0  0  0
  141.4350   78.9050  221.6130 C   0  0  0  0  0  0  0  0  0  0  0  0
  141.0250   80.3300  221.5080 C   0  0  0  0  0  0  0  0  0  0  0  0
  141.9800   81.1310  222.3840 C   0  0  0  0  0  0  0  0  0  0  0  0
  142.8640   80.3110  223.0860 O   0  0  0  0  0  0  0  0  0  0  0  0
  142.1690   79.4040  223.8890 C   0  0  0  0  0  0  0  0  0  0  0  0
  141.2430   78.5120  223.0730 C   0  0  0  0  0  0  0  0  0  0  0  0
  140.1480   71.8810  223.0370 C   0  0  0  0  0  0  0  0  0  0  0  0
  139.6090   70.6260  222.8010 C   0  0  0  0  0  0  0  0  0  0  0  0
  139.5840   69.7550  223.8640 C   0  0  0  0  0  0  0  0  0  0  0  0
  140.0620   70.0870  225.1080 C   0  0  0  0  0  0  0  0  0  0  0  0
  140.0220   69.1910  226.1450 C   0  0  0  0  0  0  0  0  0  0  0  0
  140.5180   69.5800  227.3760 C   0  0  0  0  0  0  0  0  0  0  0  0
  140.4770   68.4520  228.7220 Cl  0  0  0  0  0  0  0  0  0  0  0  0
  141.0410   70.8450  227.5430 C   0  0  0  0  0  0  0  0  0  0  0  0
  141.0970   71.7750  226.5100 C   0  0  0  0  0  0  0  0  0  0  0  0
  140.5930   71.3550  225.2940 C   0  0  0  0  0  0  0  0  0  0  0  0
  140.6100   72.1890  224.2540 N   0  0  0  0  0  0  0  0  0  0  0  0
  139.5780   74.5550  223.0930 H   0  0  0  0  0  0  0  0  0  0  0  0
  139.4843   74.5517  220.1257 H   0  0  0  0  0  0  0  0  0  0  0  0
  139.3377   75.9826  221.2401 H   0  0  0  0  0  0  0  0  0  0  0  0
  143.4451   77.5260  220.0288 H   0  0  0  0  0  0  0  0  0  0  0  0
  142.8124   76.3232  218.8051 H   0  0  0  0  0  0  0  0  0  0  0  0
  142.8291   79.1922  218.7864 H   0  0  0  0  0  0  0  0  0  0  0  0
  142.5029   77.9175  217.4814 H   0  0  0  0  0  0  0  0  0  0  0  0
  140.7936   79.7771  218.1523 H   0  0  0  0  0  0  0  0  0  0  0  0
  140.3906   78.0342  217.6395 H   0  0  0  0  0  0  0  0  0  0  0  0
  139.5723   79.4832  219.8743 H   0  0  0  0  0  0  0  0  0  0  0  0
  139.2327   77.7595  219.2936 H   0  0  0  0  0  0  0  0  0  0  0  0
  139.8919   77.5803  221.4877 H   0  0  0  0  0  0  0  0  0  0  0  0
  142.4678   78.8507  221.2384 H   0  0  0  0  0  0  0  0  0  0  0  0
  141.0960   80.6681  220.4636 H   0  0  0  0  0  0  0  0  0  0  0  0
  139.9835   80.4652  221.8351 H   0  0  0  0  0  0  0  0  0  0  0  0
  142.5605   81.8122  221.7445 H   0  0  0  0  0  0  0  0  0  0  0  0
  141.3789   81.6868  223.1187 H   0  0  0  0  0  0  0  0  0  0  0  0
  142.8952   78.7708  224.4198 H   0  0  0  0  0  0  0  0  0  0  0  0
  141.5516   79.9791  224.5948 H   0  0  0  0  0  0  0  0  0  0  0  0
  141.5083   77.4546  223.2195 H   0  0  0  0  0  0  0  0  0  0  0  0
  140.1953   78.6384  223.3834 H   0  0  0  0  0  0  0  0  0  0  0  0
  139.2205   70.3412  221.8121 H   0  0  0  0  0  0  0  0  0  0  0  0
  139.1636   68.7500  223.7120 H   0  0  0  0  0  0  0  0  0  0  0  0
  139.6041   68.1837  226.0009 H   0  0  0  0  0  0  0  0  0  0  0  0
  141.4292   71.1299  228.5320 H   0  0  0  0  0  0  0  0  0  0  0  0
  141.5164   72.7819  226.6524 H   0  0  0  0  0  0  0  0  0  0  0  0
  1  2  2  0
  2  3  1  0
  3  4  1  0
  4  5  1  0
  5  6  2  0
  5  7  1  0
  7  8  1  0
  8  9  1  0
  9 10  1  0
 10 11  1  0
 11 12  1  0
 12 13  1  0
 13 14  1  0
 14 15  1  0
 15 16  1  0
 16 17  1  0
 17 18  1  0
  2 19  1  0
 19 20  2  0
 20 21  1  0
 21 22  2  0
 22 23  1  0
 23 24  2  0
 24 25  1  0
 24 26  1  0
 26 27  2  0
 27 28  1  0
 28 29  2  0
 12  7  1  0
 18 13  1  0
 29 19  1  0
 28 22  1  0
  3 30  1  0
  4 31  1  0
  4 32  1  0
  8 33  1  0
  8 34  1  0
  9 35  1  0
  9 36  1  0
 10 37  1  0
 10 38  1  0
 11 39  1  0
 11 40  1  0
 12 41  1  1
 13 42  1  0
 14 43  1  0
 14 44  1  0
 15 45  1  0
 15 46  1  0
 17 47  1  0
 17 48  1  0
 18 49  1  0
 18 50  1  0
 20 51  1  0
 21 52  1  0
 23 53  1  0
 26 54  1  0
 27 55  1  0
M  END
>  <smiles>  (1) 
O=C(NCC(=O)N1CCCCC1C1CCOCC1)c1ccc2cc(Cl)ccc2n1

>  <score_type>  (1) 
oracle

>  <origin>  (1) 
autodockgpu

>  <m_score__min__energy>  (1) 
-8.6799999999999997

>  <m_primary>  (1) 
energy

>  <rmsd>  (1) 
2.39454034583981

>  <m_score__min__rmsd>  (1) 
2.39454034583981

>  <meeko>  (1) 
{"free_energy": -8.44, "intermolecular_energy": -9.93, "internal_energy": -1.39, "cluster_size": 30, "cluster_id": 1, "rank_in_cluster": 18}

>  <energy>  (1) 
-8.68

>  <cluster_rmsd>  (1) 
0.0

>  <cluster>  (1) 
1

$$$$

     RDKit          3D

 55 58  0  0  0  0  0  0  0  0999 V2000
  140.4290   72.3880  220.9470 O   0  0  0  0  0  0  0  0  0  0  0  0
  139.7480   72.5310  222.0150 C   0  0  0  0  0  0  0  0  0  0  0  0
  138.8630   73.6440  222.1240 N   0  0  0  0  0  0  0  0  0  0  0  0
  138.8040   74.5430  220.9910 C   0  0  0  0  0  0  0  0  0  0  0  0
  139.0910   75.9380  221.3620 C   0  0  0  0  0  0  0  0  0  0  0  0
  138.2750   76.7110  221.9240 O   0  0  0  0  0  0  0  0  0  0  0  0
  140.3830   76.4520  221.0620 N   0  0  0  0  0  0  0  0  0  0  0  0
  141.5520   75.5970  221.1400 C   0  0  0  0  0  0  0  0  0  0  0  0
  142.5600   75.8720  220.0910 C   0  0  0  0  0  0  0  0  0  0  0  0
  142.1480   76.7760  218.9830 C   0  0  0  0  0  0  0  0  0  0  0  0
  141.1260   77.7900  219.2720 C   0  0  0  0  0  0  0  0  0  0  0  0
  140.6060   77.8310  220.6690 C   0  0  2  0  0  0  0  0  0  0  0  0
  141.4650   78.5570  221.6510 C   0  0  0  0  0  0  0  0  0  0  0  0
  141.6290   80.0180  221.4270 C   0  0  0  0  0  0  0  0  0  0  0  0
  142.5790   80.5250  222.5040 C   0  0  0  0  0  0  0  0  0  0  0  0
  142.9230   79.5270  223.4170 O   0  0  0  0  0  0  0  0  0  0  0  0
  141.7840   79.0010  224.0310 C   0  0  0  0  0  0  0  0  0  0  0  0
  140.8140   78.4050  223.0200 C   0  0  0  0  0  0  0  0  0  0  0  0
  139.8560   71.5810  223.1260 C   0  0  0  0  0  0  0  0  0  0  0  0
  139.4260   70.2820  222.9060 C   0  0  0  0  0  0  0  0  0  0  0  0
  139.5360   69.4070  223.9600 C   0  0  0  0  0  0  0  0  0  0  0  0
  140.0450   69.7770  225.1810 C   0  0  0  0  0  0  0  0  0  0  0  0
  140.1410   68.8770  226.2110 C   0  0  0  0  0  0  0  0  0  0  0  0
  140.6620   69.3060  227.4180 C   0  0  0  0  0  0  0  0  0  0  0  0
  140.7950   68.1730  228.7550 Cl  0  0  0  0  0  0  0  0  0  0  0  0
  141.0720   70.6130  227.5710 C   0  0  0  0  0  0  0  0  0  0  0  0
  140.9880   71.5480  226.5450 C   0  0  0  0  0  0  0  0  0  0  0  0
  140.4640   71.0880  225.3530 C   0  0  0  0  0  0  0  0  0  0  0  0
  140.3500   71.9250  224.3200 N   0  0  0  0  0  0  0  0  0  0  0  0
  138.2780   73.8090  222.9840 H   0  0  0  0  0  0  0  0  0  0  0  0
  139.5429   74.2177  220.2439 H   0  0  0  0  0  0  0  0  0  0  0  0
  137.7803   74.5080  220.5899 H   0  0  0  0  0  0  0  0  0  0  0  0
  142.0244   75.7429  222.1226 H   0  0  0  0  0  0  0  0  0  0  0  0
  141.2057   74.5636  220.9909 H   0  0  0  0  0  0  0  0  0  0  0  0
  143.4350   76.3240  220.5810 H   0  0  0  0  0  0  0  0  0  0  0  0
  142.7495   74.8996  219.6129 H   0  0  0  0  0  0  0  0  0  0  0  0
  143.0486   77.3062  218.6398 H   0  0  0  0  0  0  0  0  0  0  0  0
  141.6781   76.1115  218.2430 H   0  0  0  0  0  0  0  0  0  0  0  0
  141.5602   78.7755  219.0479 H   0  0  0  0  0  0  0  0  0  0  0  0
  140.2620   77.5189  218.6475 H   0  0  0  0  0  0  0  0  0  0  0  0
  139.6787   78.4227  220.6790 H   0  0  0  0  0  0  0  0  0  0  0  0
  142.4660   78.1123  221.5497 H   0  0  0  0  0  0  0  0  0  0  0  0
  142.0544   80.2027  220.4295 H   0  0  0  0  0  0  0  0  0  0  0  0
  140.6602   80.5363  221.4797 H   0  0  0  0  0  0  0  0  0  0  0  0
  143.4958   80.8951  222.0218 H   0  0  0  0  0  0  0  0  0  0  0  0
  142.0657   81.3256  223.0568 H   0  0  0  0  0  0  0  0  0  0  0  0
  142.0916   78.2135  224.7347 H   0  0  0  0  0  0  0  0  0  0  0  0
  141.2695   79.8218  224.5520 H   0  0  0  0  0  0  0  0  0  0  0  0
  140.6403   77.3417  223.2418 H   0  0  0  0  0  0  0  0  0  0  0  0
  139.8404   78.9157  223.0554 H   0  0  0  0  0  0  0  0  0  0  0  0
  139.0166   69.9667  221.9350 H   0  0  0  0  0  0  0  0  0  0  0  0
  139.2029   68.3680  223.8202 H   0  0  0  0  0  0  0  0  0  0  0  0
  139.8107   67.8360  226.0800 H   0  0  0  0  0  0  0  0  0  0  0  0
  141.4814   70.9286  228.5420 H   0  0  0  0  0  0  0  0  0  0  0  0
  141.3184   72.5891  226.6748 H   0  0  0  0  0  0  0  0  0  0  0  0
  1  2  2  0
  2  3  1  0
  3  4  1  0
  4  5  1  0
  5  6  2  0
  5  7  1  0
  7  8  1  0
  8  9  1  0
  9 10  1  0
 10 11  1  0
 11 12  1  0
 12 13  1  0
 13 14  1  0
 14 15  1  0
 15 16  1  0
 16 17  1  0
 17 18  1  0
  2 19  1  0
 19 20  2  0
 20 21  1  0
 21 22  2  0
 22 23  1  0
 23 24  2  0
 24 25  1  0
 24 26  1  0
 26 27  2  0
 27 28  1  0
 28 29  2  0
 12  7  1  0
 18 13  1  0
 29 19  1  0
 28 22  1  0
  3 30  1  0
  4 31  1  0
  4 32  1  0
  8 33  1  0
  8 34  1  0
  9 35  1  0
  9 36  1  0
 10 37  1  0
 10 38  1  0
 11 39  1  0
 11 40  1  0
 12 41  1  6
 13 42  1  0
 14 43  1  0
 14 44  1  0
 15 45  1  0
 15 46  1  0
 17 47  1  0
 17 48  1  0
 18 49  1  0
 18 50  1  0
 20 51  1  0
 21 52  1  0
 23 53  1  0
 26 54  1  0
 27 55  1  0
M  END
>  <smiles>  (2) 
O=C(NCC(=O)N1CCCCC1C1CCOCC1)c1ccc2cc(Cl)ccc2n1

>  <score_type>  (2) 
oracle

>  <origin>  (2) 
autodockgpu

>  <m_score__min__energy>  (2) 
-8.6799999999999997

>  <m_primary>  (2) 
energy

>  <rmsd>  (2) 
2.0403381095074398

>  <m_score__min__rmsd>  (2) 
2.0403381095074398

>  <meeko>  (2) 
{"free_energy": -8.63, "intermolecular_energy": -10.12, "internal_energy": -1.53, "cluster_size": 30, "cluster_id": 1, "rank_in_cluster": 4}

>  <energy>  (2) 
-8.67

>  <cluster_rmsd>  (2) 
0.06

>  <cluster>  (2) 
1

$$$$

     RDKit          3D

 55 58  0  0  0  0  0  0  0  0999 V2000
  140.2190   72.3260  220.8410 O   0  0  0  0  0  0  0  0  0  0  0  0
  139.6310   72.5030  221.9580 C   0  0  0  0  0  0  0  0  0  0  0  0
  138.7940   73.6460  222.1230 N   0  0  0  0  0  0  0  0  0  0  0  0
  138.6750   74.5360  220.9860 C   0  0  0  0  0  0  0  0  0  0  0  0
  139.0280   75.9250  221.3170 C   0  0  0  0  0  0  0  0  0  0  0  0
  138.2430   76.7600  221.8340 O   0  0  0  0  0  0  0  0  0  0  0  0
  140.3520   76.3590  221.0320 N   0  0  0  0  0  0  0  0  0  0  0  0
  141.4790   75.4680  221.2330 C   0  0  0  0  0  0  0  0  0  0  0  0
  142.5400   75.6100  220.2110 C   0  0  0  0  0  0  0  0  0  0  0  0
  142.2120   76.4300  219.0120 C   0  0  0  0  0  0  0  0  0  0  0  0
  141.2240   77.5060  219.1690 C   0  0  0  0  0  0  0  0  0  0  0  0
  140.6510   77.6880  220.5330 C   0  0  2  0  0  0  0  0  0  0  0  0
  141.5010   78.4620  221.4860 C   0  0  0  0  0  0  0  0  0  0  0  0
  141.6370   79.9180  221.2140 C   0  0  0  0  0  0  0  0  0  0  0  0
  142.5830   80.4770  222.2690 C   0  0  0  0  0  0  0  0  0  0  0  0
  142.9490   79.5160  223.2130 O   0  0  0  0  0  0  0  0  0  0  0  0
  141.8220   78.9900  223.8490 C   0  0  0  0  0  0  0  0  0  0  0  0
  140.8590   78.3430  222.8630 C   0  0  0  0  0  0  0  0  0  0  0  0
  139.7950   71.5610  223.0690 C   0  0  0  0  0  0  0  0  0  0  0  0
  139.4180   70.2440  222.8570 C   0  0  0  0  0  0  0  0  0  0  0  0
  139.5820   69.3780  223.9120 C   0  0  0  0  0  0  0  0  0  0  0  0
  140.0910   69.7720  225.1240 C   0  0  0  0  0  0  0  0  0  0  0  0
  140.2410   68.8800  226.1540 C   0  0  0  0  0  0  0  0  0  0  0  0
  140.7600   69.3330  227.3530 C   0  0  0  0  0  0  0  0  0  0  0  0
  140.9610   68.2100  228.6900 Cl  0  0  0  0  0  0  0  0  0  0  0  0
  141.1150   70.6570  227.4980 C   0  0  0  0  0  0  0  0  0  0  0  0
  140.9760   71.5860  226.4710 C   0  0  0  0  0  0  0  0  0  0  0  0
  140.4550   71.1010  225.2870 C   0  0  0  0  0  0  0  0  0  0  0  0
  140.2900   71.9300  224.2550 N   0  0  0  0  0  0  0  0  0  0  0  0
  138.2850   73.8400  223.0240 H   0  0  0  0  0  0  0  0  0  0  0  0
  139.3460   74.1820  220.1895 H   0  0  0  0  0  0  0  0  0  0  0  0
  137.6233   74.5267  220.6636 H   0  0  0  0  0  0  0  0  0  0  0  0
  141.9169   75.6793  222.2197 H   0  0  0  0  0  0  0  0  0  0  0  0
  141.0939   74.4405  221.1557 H   0  0  0  0  0  0  0  0  0  0  0  0
  143.4128   76.0683  220.6989 H   0  0  0  0  0  0  0  0  0  0  0  0
  142.7077   74.5929  219.8270 H   0  0  0  0  0  0  0  0  0  0  0  0
  143.1478   76.8917  218.6639 H   0  0  0  0  0  0  0  0  0  0  0  0
  141.7435   75.7229  218.3117 H   0  0  0  0  0  0  0  0  0  0  0  0
  141.7095   78.4503  218.8816 H   0  0  0  0  0  0  0  0  0  0  0  0
  140.3748   77.2171  218.5323 H   0  0  0  0  0  0  0  0  0  0  0  0
  139.7504   78.3143  220.4522 H   0  0  0  0  0  0  0  0  0  0  0  0
  142.5096   78.0329  221.3934 H   0  0  0  0  0  0  0  0  0  0  0  0
  142.0539   80.0780  220.2087 H   0  0  0  0  0  0  0  0  0  0  0  0
  140.6591   80.4200  221.2554 H   0  0  0  0  0  0  0  0  0  0  0  0
  143.4909   80.8469  221.7701 H   0  0  0  0  0  0  0  0  0  0  0  0
  142.0580   81.2862  222.7978 H   0  0  0  0  0  0  0  0  0  0  0  0
  142.1468   78.2321  224.5771 H   0  0  0  0  0  0  0  0  0  0  0  0
  141.2945   79.8184  224.3444 H   0  0  0  0  0  0  0  0  0  0  0  0
  140.7064   77.2845  223.1205 H   0  0  0  0  0  0  0  0  0  0  0  0
  139.8761   78.8363  222.8865 H   0  0  0  0  0  0  0  0  0  0  0  0
  139.0081   69.9086  221.8929 H   0  0  0  0  0  0  0  0  0  0  0  0
  139.2931   68.3250  223.7791 H   0  0  0  0  0  0  0  0  0  0  0  0
  139.9543   67.8253  226.0293 H   0  0  0  0  0  0  0  0  0  0  0  0
  141.5239   70.9923  228.4626 H   0  0  0  0  0  0  0  0  0  0  0  0
  141.2631   72.6407  226.5944 H   0  0  0  0  0  0  0  0  0  0  0  0
  1  2  2  0
  2  3  1  0
  3  4  1  0
  4  5  1  0
  5  6  2  0
  5  7  1  0
  7  8  1  0
  8  9  1  0
  9 10  1  0
 10 11  1  0
 11 12  1  0
 12 13  1  0
 13 14  1  0
 14 15  1  0
 15 16  1  0
 16 17  1  0
 17 18  1  0
  2 19  1  0
 19 20  2  0
 20 21  1  0
 21 22  2  0
 22 23  1  0
 23 24  2  0
 24 25  1  0
 24 26  1  0
 26 27  2  0
 27 28  1  0
 28 29  2  0
 12  7  1  0
 18 13  1  0
 29 19  1  0
 28 22  1  0
  3 30  1  0
  4 31  1  0
  4 32  1  0
  8 33  1  0
  8 34  1  0
  9 35  1  0
  9 36  1  0
 10 37  1  0
 10 38  1  0
 11 39  1  0
 11 40  1  0
 12 41  1  6
 13 42  1  0
 14 43  1  0
 14 44  1  0
 15 45  1  0
 15 46  1  0
 17 47  1  0
 17 48  1  0
 18 49  1  0
 18 50  1  0
 20 51  1  0
 21 52  1  0
 23 53  1  0
 26 54  1  0
 27 55  1  0
M  END
>  <smiles>  (3) 
O=C(NCC(=O)N1CCCCC1C1CCOCC1)c1ccc2cc(Cl)ccc2n1

>  <score_type>  (3) 
oracle

>  <origin>  (3) 
autodockgpu

>  <m_score__min__energy>  (3) 
-8.6799999999999997

>  <m_primary>  (3) 
energy

>  <rmsd>  (3) 
2.0168432595052734

>  <m_score__min__rmsd>  (3) 
2.0168432595052734

>  <meeko>  (3) 
{"free_energy": -8.53, "intermolecular_energy": -10.02, "internal_energy": -1.55, "cluster_size": 30, "cluster_id": 1, "rank_in_cluster": 9}

>  <energy>  (3) 
-8.65

>  <cluster_rmsd>  (3) 
0.14

>  <cluster>  (3) 
1

$$$$

     RDKit          3D

 55 58  0  0  0  0  0  0  0  0999 V2000
  140.2930   72.3500  220.8460 O   0  0  0  0  0  0  0  0  0  0  0  0
  139.7420   72.5790  221.9730 C   0  0  0  0  0  0  0  0  0  0  0  0
  139.0110   73.7900  222.1490 N   0  0  0  0  0  0  0  0  0  0  0  0
  138.9480   74.6850  221.0120 C   0  0  0  0  0  0  0  0  0  0  0  0
  138.8650   76.0990  221.4110 C   0  0  0  0  0  0  0  0  0  0  0  0
  137.8600   76.6370  221.9390 O   0  0  0  0  0  0  0  0  0  0  0  0
  140.0040   76.9210  221.1830 N   0  0  0  0  0  0  0  0  0  0  0  0
  141.3300   76.3370  221.1050 C   0  0  0  0  0  0  0  0  0  0  0  0
  142.2070   76.9830  220.1030 C   0  0  0  0  0  0  0  0  0  0  0  0
  141.5600   77.9380  219.1610 C   0  0  0  0  0  0  0  0  0  0  0  0
  140.3620   78.6500  219.6240 C   0  0  0  0  0  0  0  0  0  0  0  0
  139.9120   78.3590  221.0160 C   0  0  2  0  0  0  0  0  0  0  0  0
  140.6440   79.0920  222.0910 C   0  0  0  0  0  0  0  0  0  0  0  0
  141.1870   78.2640  223.2000 C   0  0  0  0  0  0  0  0  0  0  0  0
  141.8310   79.2230  224.1920 C   0  0  0  0  0  0  0  0  0  0  0  0
  141.8170   80.5420  223.7370 O   0  0  0  0  0  0  0  0  0  0  0  0
  142.4760   80.6520  222.5100 C   0  0  0  0  0  0  0  0  0  0  0  0
  141.8410   79.7740  221.4410 C   0  0  0  0  0  0  0  0  0  0  0  0
  139.8450   71.6280  223.0830 C   0  0  0  0  0  0  0  0  0  0  0  0
  139.4050   70.3320  222.8630 C   0  0  0  0  0  0  0  0  0  0  0  0
  139.5110   69.4560  223.9170 C   0  0  0  0  0  0  0  0  0  0  0  0
  140.0230   69.8220  225.1370 C   0  0  0  0  0  0  0  0  0  0  0  0
  140.1150   68.9210  226.1660 C   0  0  0  0  0  0  0  0  0  0  0  0
  140.6400   69.3460  227.3740 C   0  0  0  0  0  0  0  0  0  0  0  0
  140.7670   68.2110  228.7100 Cl  0  0  0  0  0  0  0  0  0  0  0  0
  141.0590   70.6500  227.5260 C   0  0  0  0  0  0  0  0  0  0  0  0
  140.9800   71.5860  226.5010 C   0  0  0  0  0  0  0  0  0  0  0  0
  140.4510   71.1300  225.3090 C   0  0  0  0  0  0  0  0  0  0  0  0
  140.3420   71.9680  224.2770 N   0  0  0  0  0  0  0  0  0  0  0  0
  138.5360   74.0290  223.0590 H   0  0  0  0  0  0  0  0  0  0  0  0
  139.8518   74.5434  220.4012 H   0  0  0  0  0  0  0  0  0  0  0  0
  138.0357   74.4434  220.4469 H   0  0  0  0  0  0  0  0  0  0  0  0
  141.8069   76.4254  222.0923 H   0  0  0  0  0  0  0  0  0  0  0  0
  141.2021   75.2901  220.7927 H   0  0  0  0  0  0  0  0  0  0  0  0
  142.9883   77.5320  220.6491 H   0  0  0  0  0  0  0  0  0  0  0  0
  142.5767   76.1616  219.4716 H   0  0  0  0  0  0  0  0  0  0  0  0
  142.3108   78.6969  218.8958 H   0  0  0  0  0  0  0  0  0  0  0  0
  141.2057   77.3106  218.3298 H   0  0  0  0  0  0  0  0  0  0  0  0
  140.5676   79.7286  219.5577 H   0  0  0  0  0  0  0  0  0  0  0  0
  139.5459   78.3001  218.9748 H   0  0  0  0  0  0  0  0  0  0  0  0
  138.8820   78.7265  221.1341 H   0  0  0  0  0  0  0  0  0  0  0  0
  139.9013   79.7667  222.5416 H   0  0  0  0  0  0  0  0  0  0  0  0
  140.3749   77.7044  223.6872 H   0  0  0  0  0  0  0  0  0  0  0  0
  141.9195   77.5342  222.8249 H   0  0  0  0  0  0  0  0  0  0  0  0
  141.2807   79.1708  225.1430 H   0  0  0  0  0  0  0  0  0  0  0  0
  142.8812   78.9214  224.3192 H   0  0  0  0  0  0  0  0  0  0  0  0
  142.4365   81.7001  222.1783 H   0  0  0  0  0  0  0  0  0  0  0  0
  143.5146   80.3182  222.6510 H   0  0  0  0  0  0  0  0  0  0  0  0
  141.5115   80.3896  220.5910 H   0  0  0  0  0  0  0  0  0  0  0  0
  142.5591   79.0339  221.0581 H   0  0  0  0  0  0  0  0  0  0  0  0
  138.9914   70.0199  221.8927 H   0  0  0  0  0  0  0  0  0  0  0  0
  139.1716   68.4191  223.7771 H   0  0  0  0  0  0  0  0  0  0  0  0
  139.7786   67.8820  226.0344 H   0  0  0  0  0  0  0  0  0  0  0  0
  141.4722   70.9626  228.4964 H   0  0  0  0  0  0  0  0  0  0  0  0
  141.3176   72.6248  226.6310 H   0  0  0  0  0  0  0  0  0  0  0  0
  1  2  2  0
  2  3  1  0
  3  4  1  0
  4  5  1  0
  5  6  2  0
  5  7  1  0
  7  8  1  0
  8  9  1  0
  9 10  1  0
 10 11  1  0
 11 12  1  0
 12 13  1  0
 13 14  1  0
 14 15  1  0
 15 16  1  0
 16 17  1  0
 17 18  1  0
  2 19  1  0
 19 20  2  0
 20 21  1  0
 21 22  2  0
 22 23  1  0
 23 24  2  0
 24 25  1  0
 24 26  1  0
 26 27  2  0
 27 28  1  0
 28 29  2  0
 12  7  1  0
 18 13  1  0
 29 19  1  0
 28 22  1  0
  3 30  1  0
  4 31  1  0
  4 32  1  0
  8 33  1  0
  8 34  1  0
  9 35  1  0
  9 36  1  0
 10 37  1  0
 10 38  1  0
 11 39  1  0
 11 40  1  0
 12 41  1  6
 13 42  1  0
 14 43  1  0
 14 44  1  0
 15 45  1  0
 15 46  1  0
 17 47  1  0
 17 48  1  0
 18 49  1  0
 18 50  1  0
 20 51  1  0
 21 52  1  0
 23 53  1  0
 26 54  1  0
 27 55  1  0
M  END
>  <smiles>  (4) 
O=C(NCC(=O)N1CCCCC1C1CCOCC1)c1ccc2cc(Cl)ccc2n1

>  <score_type>  (4) 
oracle

>  <origin>  (4) 
autodockgpu

>  <m_score__min__energy>  (4) 
-8.6799999999999997

>  <m_primary>  (4) 
energy

>  <rmsd>  (4) 
2.241600377971511

>  <m_score__min__rmsd>  (4) 
2.241600377971511

>  <meeko>  (4) 
{"free_energy": -8.46, "intermolecular_energy": -9.95, "internal_energy": -0.9, "cluster_size": 30, "cluster_id": 1, "rank_in_cluster": 16}

>  <energy>  (4) 
-8.63

>  <cluster_rmsd>  (4) 
0.43

>  <cluster>  (4) 
1

$$$$

     RDKit          3D

 55 58  0  0  0  0  0  0  0  0999 V2000
  140.2130   72.0580  220.6670 O   0  0  0  0  0  0  0  0  0  0  0  0
  139.8870   72.4360  221.8400 C   0  0  0  0  0  0  0  0  0  0  0  0
  139.4430   73.7770  222.0350 N   0  0  0  0  0  0  0  0  0  0  0  0
  139.3950   74.6240  220.8610 C   0  0  0  0  0  0  0  0  0  0  0  0
  139.4010   76.0560  221.1990 C   0  0  0  0  0  0  0  0  0  0  0  0
  138.4560   76.6620  221.7640 O   0  0  0  0  0  0  0  0  0  0  0  0
  140.5570   76.8130  220.8610 N   0  0  0  0  0  0  0  0  0  0  0  0
  141.8300   76.1540  220.6400 C   0  0  0  0  0  0  0  0  0  0  0  0
  142.6360   76.7640  219.5580 C   0  0  0  0  0  0  0  0  0  0  0  0
  141.9530   77.7700  218.6980 C   0  0  0  0  0  0  0  0  0  0  0  0
  140.8540   78.5440  219.2910 C   0  0  0  0  0  0  0  0  0  0  0  0
  140.5350   78.2570  220.7190 C   0  0  2  0  0  0  0  0  0  0  0  0
  141.4160   78.9280  221.7200 C   0  0  0  0  0  0  0  0  0  0  0  0
  141.5020   80.4100  221.6330 C   0  0  0  0  0  0  0  0  0  0  0  0
  142.4900   80.8580  222.7020 C   0  0  0  0  0  0  0  0  0  0  0  0
  142.9310   79.7960  223.4920 O   0  0  0  0  0  0  0  0  0  0  0  0
  141.8540   79.1570  224.1120 C   0  0  0  0  0  0  0  0  0  0  0  0
  140.8540   78.6130  223.1000 C   0  0  0  0  0  0  0  0  0  0  0  0
  139.9590   71.5240  222.9860 C   0  0  0  0  0  0  0  0  0  0  0  0
  139.4990   70.2290  222.8070 C   0  0  0  0  0  0  0  0  0  0  0  0
  139.5760   69.3900  223.8940 C   0  0  0  0  0  0  0  0  0  0  0  0
  140.0800   69.7920  225.1070 C   0  0  0  0  0  0  0  0  0  0  0  0
  140.1420   68.9280  226.1690 C   0  0  0  0  0  0  0  0  0  0  0  0
  140.6590   69.3880  227.3670 C   0  0  0  0  0  0  0  0  0  0  0  0
  140.7490   68.3010  228.7450 Cl  0  0  0  0  0  0  0  0  0  0  0  0
  141.1000   70.6890  227.4770 C   0  0  0  0  0  0  0  0  0  0  0  0
  141.0500   71.5890  226.4170 C   0  0  0  0  0  0  0  0  0  0  0  0
  140.5280   71.0980  225.2360 C   0  0  0  0  0  0  0  0  0  0  0  0
  140.4470   71.9000  224.1730 N   0  0  0  0  0  0  0  0  0  0  0  0
  139.1630   74.1400  222.9820 H   0  0  0  0  0  0  0  0  0  0  0  0
  140.2712   74.4061  220.2327 H   0  0  0  0  0  0  0  0  0  0  0  0
  138.4548   74.4093  220.3320 H   0  0  0  0  0  0  0  0  0  0  0  0
  142.4108   76.1987  221.5731 H   0  0  0  0  0  0  0  0  0  0  0  0
  141.6084   75.1213  220.3327 H   0  0  0  0  0  0  0  0  0  0  0  0
  143.5009   77.2577  220.0251 H   0  0  0  0  0  0  0  0  0  0  0  0
  142.8889   75.9327  218.8835 H   0  0  0  0  0  0  0  0  0  0  0  0
  142.7163   78.4876  218.3628 H   0  0  0  0  0  0  0  0  0  0  0  0
  141.4773   77.1776  217.9026 H   0  0  0  0  0  0  0  0  0  0  0  0
  141.1160   79.6096  219.2144 H   0  0  0  0  0  0  0  0  0  0  0  0
  139.9552   78.2537  218.7272 H   0  0  0  0  0  0  0  0  0  0  0  0
  139.5468   78.6829  220.9473 H   0  0  0  0  0  0  0  0  0  0  0  0
  142.4282   78.5459  221.5212 H   0  0  0  0  0  0  0  0  0  0  0  0
  141.8597   80.7106  220.6372 H   0  0  0  0  0  0  0  0  0  0  0  0
  140.5160   80.8720  221.7890 H   0  0  0  0  0  0  0  0  0  0  0  0
  143.3596   81.3181  222.2099 H   0  0  0  0  0  0  0  0  0  0  0  0
  141.9747   81.5750  223.3581 H   0  0  0  0  0  0  0  0  0  0  0  0
  142.2369   78.3220  224.7170 H   0  0  0  0  0  0  0  0  0  0  0  0
  141.3348   79.8970  224.7387 H   0  0  0  0  0  0  0  0  0  0  0  0
  140.7411   77.5259  223.2247 H   0  0  0  0  0  0  0  0  0  0  0  0
  139.8624   79.0688  223.2379 H   0  0  0  0  0  0  0  0  0  0  0  0
  139.0924   69.8890  221.8431 H   0  0  0  0  0  0  0  0  0  0  0  0
  139.2195   68.3548  223.7877 H   0  0  0  0  0  0  0  0  0  0  0  0
  139.7883   67.8910  226.0710 H   0  0  0  0  0  0  0  0  0  0  0  0
  141.5075   71.0293  228.4404 H   0  0  0  0  0  0  0  0  0  0  0  0
  141.4038   72.6261  226.5134 H   0  0  0  0  0  0  0  0  0  0  0  0
  1  2  2  0
  2  3  1  0
  3  4  1  0
  4  5  1  0
  5  6  2  0
  5  7  1  0
  7  8  1  0
  8  9  1  0
  9 10  1  0
 10 11  1  0
 11 12  1  0
 12 13  1  0
 13 14  1  0
 14 15  1  0
 15 16  1  0
 16 17  1  0
 17 18  1  0
  2 19  1  0
 19 20  2  0
 20 21  1  0
 21 22  2  0
 22 23  1  0
 23 24  2  0
 24 25  1  0
 24 26  1  0
 26 27  2  0
 27 28  1  0
 28 29  2  0
 12  7  1  0
 18 13  1  0
 29 19  1  0
 28 22  1  0
  3 30  1  0
  4 31  1  0
  4 32  1  0
  8 33  1  0
  8 34  1  0
  9 35  1  0
  9 36  1  0
 10 37  1  0
 10 38  1  0
 11 39  1  0
 11 40  1  0
 12 41  1  1
 13 42  1  0
 14 43  1  0
 14 44  1  0
 15 45  1  0
 15 46  1  0
 17 47  1  0
 17 48  1  0
 18 49  1  0
 18 50  1  0
 20 51  1  0
 21 52  1  0
 23 53  1  0
 26 54  1  0
 27 55  1  0
M  END
>  <smiles>  (5) 
O=C(NCC(=O)N1CCCCC1C1CCOCC1)c1ccc2cc(Cl)ccc2n1

>  <score_type>  (5) 
oracle

>  <origin>  (5) 
autodockgpu

>  <m_score__min__energy>  (5) 
-8.6799999999999997

>  <m_primary>  (5) 
energy

>  <rmsd>  (5) 
2.13403148174271

>  <m_score__min__rmsd>  (5) 
2.13403148174271

>  <meeko>  (5) 
{"free_energy": -8.58, "intermolecular_energy": -10.07, "internal_energy": -1.49, "cluster_size": 30, "cluster_id": 1, "rank_in_cluster": 6}

>  <energy>  (5) 
-8.62

>  <cluster_rmsd>  (5) 
0.44

>  <cluster>  (5) 
1

$$$$

     RDKit          3D

 55 58  0  0  0  0  0  0  0  0999 V2000
  140.5490   72.5060  220.7870 O   0  0  0  0  0  0  0  0  0  0  0  0
  139.9110   72.7270  221.8690 C   0  0  0  0  0  0  0  0  0  0  0  0
  139.1210   73.9090  221.9750 N   0  0  0  0  0  0  0  0  0  0  0  0
  139.1030   74.7860  220.8230 C   0  0  0  0  0  0  0  0  0  0  0  0
  139.2490   76.2030  221.1900 C   0  0  0  0  0  0  0  0  0  0  0  0
  138.3570   76.8970  221.7400 O   0  0  0  0  0  0  0  0  0  0  0  0
  140.4890   76.8390  220.9030 N   0  0  0  0  0  0  0  0  0  0  0  0
  141.7140   76.0650  220.8260 C   0  0  0  0  0  0  0  0  0  0  0  0
  142.6490   76.5320  219.7780 C   0  0  0  0  0  0  0  0  0  0  0  0
  142.1240   77.5310  218.8070 C   0  0  0  0  0  0  0  0  0  0  0  0
  141.0540   78.4300  219.2600 C   0  0  0  0  0  0  0  0  0  0  0  0
  140.6030   78.2670  220.6720 C   0  0  2  0  0  0  0  0  0  0  0  0
  141.4610   78.9300  221.6990 C   0  0  0  0  0  0  0  0  0  0  0  0
  141.5730   80.4090  221.6080 C   0  0  0  0  0  0  0  0  0  0  0  0
  142.5310   80.8480  222.7080 C   0  0  0  0  0  0  0  0  0  0  0  0
  142.9290   79.7820  223.5170 O   0  0  0  0  0  0  0  0  0  0  0  0
  141.8220   79.1630  224.1030 C   0  0  0  0  0  0  0  0  0  0  0  0
  140.8490   78.6300  223.0610 C   0  0  0  0  0  0  0  0  0  0  0  0
  139.9740   71.7940  222.9980 C   0  0  0  0  0  0  0  0  0  0  0  0
  139.5120   70.5040  222.7940 C   0  0  0  0  0  0  0  0  0  0  0  0
  139.5800   69.6460  223.8660 C   0  0  0  0  0  0  0  0  0  0  0  0
  140.0760   70.0250  225.0890 C   0  0  0  0  0  0  0  0  0  0  0  0
  140.1300   69.1420  226.1360 C   0  0  0  0  0  0  0  0  0  0  0  0
  140.6400   69.5780  227.3450 C   0  0  0  0  0  0  0  0  0  0  0  0
  140.7190   68.4670  228.7040 Cl  0  0  0  0  0  0  0  0  0  0  0  0
  141.0830   70.8760  227.4820 C   0  0  0  0  0  0  0  0  0  0  0  0
  141.0420   71.7950  226.4380 C   0  0  0  0  0  0  0  0  0  0  0  0
  140.5270   71.3270  225.2440 C   0  0  0  0  0  0  0  0  0  0  0  0
  140.4540   72.1480  224.1950 N   0  0  0  0  0  0  0  0  0  0  0  0
  138.5750   74.1390  222.8450 H   0  0  0  0  0  0  0  0  0  0  0  0
  139.9315   74.5077  220.1550 H   0  0  0  0  0  0  0  0  0  0  0  0
  138.1273   74.6680  220.3290 H   0  0  0  0  0  0  0  0  0  0  0  0
  142.2244   76.1254  221.7985 H   0  0  0  0  0  0  0  0  0  0  0  0
  141.4275   75.0355  220.5651 H   0  0  0  0  0  0  0  0  0  0  0  0
  143.5165   76.9824  220.2826 H   0  0  0  0  0  0  0  0  0  0  0  0
  142.8775   75.6392  219.1774 H   0  0  0  0  0  0  0  0  0  0  0  0
  142.9702   78.1600  218.4936 H   0  0  0  0  0  0  0  0  0  0  0  0
  141.6609   76.9278  218.0122 H   0  0  0  0  0  0  0  0  0  0  0  0
  141.4122   79.4631  219.1405 H   0  0  0  0  0  0  0  0  0  0  0  0
  140.1792   78.1763  218.6432 H   0  0  0  0  0  0  0  0  0  0  0  0
  139.6408   78.7863  220.7925 H   0  0  0  0  0  0  0  0  0  0  0  0
  142.4733   78.5318  221.5357 H   0  0  0  0  0  0  0  0  0  0  0  0
  141.9690   80.6986  220.6235 H   0  0  0  0  0  0  0  0  0  0  0  0
  140.5895   80.8868  221.7282 H   0  0  0  0  0  0  0  0  0  0  0  0
  143.4235   81.2929  222.2437 H   0  0  0  0  0  0  0  0  0  0  0  0
  142.0051   81.5760  223.3431 H   0  0  0  0  0  0  0  0  0  0  0  0
  142.1712   78.3251  224.7243 H   0  0  0  0  0  0  0  0  0  0  0  0
  141.2937   79.9141  224.7085 H   0  0  0  0  0  0  0  0  0  0  0  0
  140.7155   77.5453  223.1863 H   0  0  0  0  0  0  0  0  0  0  0  0
  139.8606   79.1016  223.1639 H   0  0  0  0  0  0  0  0  0  0  0  0
  139.1104   70.1820  221.8219 H   0  0  0  0  0  0  0  0  0  0  0  0
  139.2224   68.6136  223.7388 H   0  0  0  0  0  0  0  0  0  0  0  0
  139.7749   68.1077  226.0169 H   0  0  0  0  0  0  0  0  0  0  0  0
  141.4845   71.1978  228.4542 H   0  0  0  0  0  0  0  0  0  0  0  0
  141.3973   72.8294  226.5557 H   0  0  0  0  0  0  0  0  0  0  0  0
  1  2  2  0
  2  3  1  0
  3  4  1  0
  4  5  1  0
  5  6  2  0
  5  7  1  0
  7  8  1  0
  8  9  1  0
  9 10  1  0
 10 11  1  0
 11 12  1  0
 12 13  1  0
 13 14  1  0
 14 15  1  0
 15 16  1  0
 16 17  1  0
 17 18  1  0
  2 19  1  0
 19 20  2  0
 20 21  1  0
 21 22  2  0
 22 23  1  0
 23 24  2  0
 24 25  1  0
 24 26  1  0
 26 27  2  0
 27 28  1  0
 28 29  2  0
 12  7  1  0
 18 13  1  0
 29 19  1  0
 28 22  1  0
  3 30  1  0
  4 31  1  0
  4 32  1  0
  8 33  1  0
  8 34  1  0
  9 35  1  0
  9 36  1  0
 10 37  1  0
 10 38  1  0
 11 39  1  0
 11 40  1  0
 12 41  1  6
 13 42  1  0
 14 43  1  0
 14 44  1  0
 15 45  1  0
 15 46  1  0
 17 47  1  0
 17 48  1  0
 18 49  1  0
 18 50  1  0
 20 51  1  0
 21 52  1  0
 23 53  1  0
 26 54  1  0
 27 55  1  0
M  END
>  <smiles>  (6) 
O=C(NCC(=O)N1CCCCC1C1CCOCC1)c1ccc2cc(Cl)ccc2n1

>  <score_type>  (6) 
oracle

>  <origin>  (6) 
autodockgpu

>  <m_score__min__energy>  (6) 
-8.6799999999999997

>  <m_primary>  (6) 
energy

>  <rmsd>  (6) 
2.1852402711026735

>  <m_score__min__rmsd>  (6) 
2.1852402711026735

>  <meeko>  (6) 
{"free_energy": -8.67, "intermolecular_energy": -10.17, "internal_energy": -1.49, "cluster_size": 30, "cluster_id": 1, "rank_in_cluster": 2}

>  <energy>  (6) 
-8.58

>  <cluster_rmsd>  (6) 
0.24

>  <cluster>  (6) 
1

$$$$

     RDKit          3D

 55 58  0  0  0  0  0  0  0  0999 V2000
  140.3870   72.3830  220.7220 O   0  0  0  0  0  0  0  0  0  0  0  0
  140.1080   72.7620  221.9060 C   0  0  0  0  0  0  0  0  0  0  0  0
  139.8030   74.1350  222.1360 N   0  0  0  0  0  0  0  0  0  0  0  0
  139.8360   75.0120  220.9840 C   0  0  0  0  0  0  0  0  0  0  0  0
  141.2060   75.3010  220.5330 C   0  0  0  0  0  0  0  0  0  0  0  0
  142.1060   74.4370  220.3790 O   0  0  0  0  0  0  0  0  0  0  0  0
  141.5420   76.6550  220.2530 N   0  0  0  0  0  0  0  0  0  0  0  0
  142.7330   76.9750  219.4900 C   0  0  0  0  0  0  0  0  0  0  0  0
  142.5630   78.1260  218.5760 C   0  0  0  0  0  0  0  0  0  0  0  0
  141.1740   78.6240  218.3740 C   0  0  0  0  0  0  0  0  0  0  0  0
  140.2140   78.4350  219.4690 C   0  0  0  0  0  0  0  0  0  0  0  0
  140.7320   77.7720  220.7000 C   0  0  2  0  0  0  0  0  0  0  0  0
  141.4790   78.6600  221.6390 C   0  0  0  0  0  0  0  0  0  0  0  0
  141.3240   80.1230  221.4260 C   0  0  0  0  0  0  0  0  0  0  0  0
  142.2110   80.8150  222.4530 C   0  0  0  0  0  0  0  0  0  0  0  0
  142.8090   79.9090  223.3300 O   0  0  0  0  0  0  0  0  0  0  0  0
  141.8420   79.1580  224.0030 C   0  0  0  0  0  0  0  0  0  0  0  0
  140.9580   78.3750  223.0420 C   0  0  0  0  0  0  0  0  0  0  0  0
  140.0920   71.8190  223.0280 C   0  0  0  0  0  0  0  0  0  0  0  0
  139.5550   70.5610  222.8050 C   0  0  0  0  0  0  0  0  0  0  0  0
  139.5500   69.6930  223.8710 C   0  0  0  0  0  0  0  0  0  0  0  0
  140.0480   70.0310  225.1050 C   0  0  0  0  0  0  0  0  0  0  0  0
  140.0280   69.1390  226.1460 C   0  0  0  0  0  0  0  0  0  0  0  0
  140.5430   69.5340  227.3670 C   0  0  0  0  0  0  0  0  0  0  0  0
  140.5280   68.4090  228.7170 Cl  0  0  0  0  0  0  0  0  0  0  0  0
  141.0620   70.8010  227.5220 C   0  0  0  0  0  0  0  0  0  0  0  0
  141.0970   71.7270  226.4860 C   0  0  0  0  0  0  0  0  0  0  0  0
  140.5750   71.3020  225.2800 C   0  0  0  0  0  0  0  0  0  0  0  0
  140.5720   72.1330  224.2360 N   0  0  0  0  0  0  0  0  0  0  0  0
  139.5650   74.5020  223.0950 H   0  0  0  0  0  0  0  0  0  0  0  0
  139.2875   74.5322  220.1600 H   0  0  0  0  0  0  0  0  0  0  0  0
  139.3734   75.9658  221.2776 H   0  0  0  0  0  0  0  0  0  0  0  0
  143.5446   77.2083  220.1949 H   0  0  0  0  0  0  0  0  0  0  0  0
  142.9589   76.0988  218.8646 H   0  0  0  0  0  0  0  0  0  0  0  0
  143.1603   78.9590  218.9752 H   0  0  0  0  0  0  0  0  0  0  0  0
  142.8837   77.7598  217.5895 H   0  0  0  0  0  0  0  0  0  0  0  0
  141.2380   79.7042  218.1763 H   0  0  0  0  0  0  0  0  0  0  0  0
  140.7776   78.0138  217.5490 H   0  0  0  0  0  0  0  0  0  0  0  0
  139.8362   79.4270  219.7573 H   0  0  0  0  0  0  0  0  0  0  0  0
  139.4484   77.7529  219.0708 H   0  0  0  0  0  0  0  0  0  0  0  0
  139.8748   77.4474  221.3081 H   0  0  0  0  0  0  0  0  0  0  0  0
  142.5423   78.4329  221.4722 H   0  0  0  0  0  0  0  0  0  0  0  0
  141.6419   80.3930  220.4081 H   0  0  0  0  0  0  0  0  0  0  0  0
  140.2739   80.4291  221.5420 H   0  0  0  0  0  0  0  0  0  0  0  0
  143.0002   81.3688  221.9234 H   0  0  0  0  0  0  0  0  0  0  0  0
  141.5767   81.4902  223.0462 H   0  0  0  0  0  0  0  0  0  0  0  0
  142.3472   78.4508  224.6773 H   0  0  0  0  0  0  0  0  0  0  0  0
  141.2011   79.8538  224.5643 H   0  0  0  0  0  0  0  0  0  0  0  0
  141.0222   77.2985  223.2591 H   0  0  0  0  0  0  0  0  0  0  0  0
  139.9038   78.6730  223.1413 H   0  0  0  0  0  0  0  0  0  0  0  0
  139.1525   70.2712  221.8231 H   0  0  0  0  0  0  0  0  0  0  0  0
  139.1298   68.6863  223.7295 H   0  0  0  0  0  0  0  0  0  0  0  0
  139.6109   68.1299  226.0126 H   0  0  0  0  0  0  0  0  0  0  0  0
  141.4643   71.0909  228.5039 H   0  0  0  0  0  0  0  0  0  0  0  0
  141.5146   72.7360  226.6184 H   0  0  0  0  0  0  0  0  0  0  0  0
  1  2  2  0
  2  3  1  0
  3  4  1  0
  4  5  1  0
  5  6  2  0
  5  7  1  0
  7  8  1  0
  8  9  1  0
  9 10  1  0
 10 11  1  0
 11 12  1  0
 12 13  1  0
 13 14  1  0
 14 15  1  0
 15 16  1  0
 16 17  1  0
 17 18  1  0
  2 19  1  0
 19 20  2  0
 20 21  1  0
 21 22  2  0
 22 23  1  0
 23 24  2  0
 24 25  1  0
 24 26  1  0
 26 27  2  0
 27 28  1  0
 28 29  2  0
 12  7  1  0
 18 13  1  0
 29 19  1  0
 28 22  1  0
  3 30  1  0
  4 31  1  0
  4 32  1  0
  8 33  1  0
  8 34  1  0
  9 35  1  0
  9 36  1  0
 10 37  1  0
 10 38  1  0
 11 39  1  0
 11 40  1  0
 12 41  1  1
 13 42  1  0
 14 43  1  0
 14 44  1  0
 15 45  1  0
 15 46  1  0
 17 47  1  0
 17 48  1  0
 18 49  1  0
 18 50  1  0
 20 51  1  0
 21 52  1  0
 23 53  1  0
 26 54  1  0
 27 55  1  0
M  END
>  <smiles>  (7) 
O=C(NCC(=O)N1CCCCC1C1CCOCC1)c1ccc2cc(Cl)ccc2n1

>  <score_type>  (7) 
oracle

>  <origin>  (7) 
autodockgpu

>  <m_score__min__energy>  (7) 
-8.6799999999999997

>  <m_primary>  (7) 
energy

>  <rmsd>  (7) 
2.3499591546299143

>  <m_score__min__rmsd>  (7) 
2.3499591546299143

>  <meeko>  (7) 
{"free_energy": -8.51, "intermolecular_energy": -10.0, "internal_energy": -1.36, "cluster_size": 30, "cluster_id": 1, "rank_in_cluster": 13}

>  <energy>  (7) 
-8.57

>  <cluster_rmsd>  (7) 
0.56

>  <cluster>  (7) 
1

$$$$

     RDKit          3D

 55 58  0  0  0  0  0  0  0  0999 V2000
  140.4600   72.4130  220.9880 O   0  0  0  0  0  0  0  0  0  0  0  0
  139.7570   72.5460  222.0430 C   0  0  0  0  0  0  0  0  0  0  0  0
  138.8510   73.6440  222.1340 N   0  0  0  0  0  0  0  0  0  0  0  0
  138.7990   74.5420  220.9980 C   0  0  0  0  0  0  0  0  0  0  0  0
  139.0920   75.9350  221.3660 C   0  0  0  0  0  0  0  0  0  0  0  0
  138.2810   76.7130  221.9280 O   0  0  0  0  0  0  0  0  0  0  0  0
  140.3860   76.4440  221.0640 N   0  0  0  0  0  0  0  0  0  0  0  0
  141.5530   75.5850  221.1450 C   0  0  0  0  0  0  0  0  0  0  0  0
  142.5620   75.8510  220.0950 C   0  0  0  0  0  0  0  0  0  0  0  0
  142.1520   76.7500  218.9820 C   0  0  0  0  0  0  0  0  0  0  0  0
  141.1330   77.7700  219.2660 C   0  0  0  0  0  0  0  0  0  0  0  0
  140.6140   77.8200  220.6630 C   0  0  2  0  0  0  0  0  0  0  0  0
  141.4760   78.5480  221.6410 C   0  0  0  0  0  0  0  0  0  0  0  0
  141.6580   80.0040  221.4020 C   0  0  0  0  0  0  0  0  0  0  0  0
  142.6080   80.5130  222.4780 C   0  0  0  0  0  0  0  0  0  0  0  0
  142.9350   79.5220  223.4040 O   0  0  0  0  0  0  0  0  0  0  0  0
  141.7870   79.0160  224.0180 C   0  0  0  0  0  0  0  0  0  0  0  0
  140.8160   78.4190  223.0080 C   0  0  0  0  0  0  0  0  0  0  0  0
  139.8590   71.5990  223.1570 C   0  0  0  0  0  0  0  0  0  0  0  0
  139.4210   70.3020  222.9410 C   0  0  0  0  0  0  0  0  0  0  0  0
  139.5260   69.4300  223.9990 C   0  0  0  0  0  0  0  0  0  0  0  0
  140.0370   69.8020  225.2180 C   0  0  0  0  0  0  0  0  0  0  0  0
  140.1280   68.9050  226.2510 C   0  0  0  0  0  0  0  0  0  0  0  0
  140.6510   69.3340  227.4570 C   0  0  0  0  0  0  0  0  0  0  0  0
  140.7770   68.2050  228.7980 Cl  0  0  0  0  0  0  0  0  0  0  0  0
  141.0680   70.6390  227.6060 C   0  0  0  0  0  0  0  0  0  0  0  0
  140.9900   71.5720  226.5760 C   0  0  0  0  0  0  0  0  0  0  0  0
  140.4630   71.1110  225.3850 C   0  0  0  0  0  0  0  0  0  0  0  0
  140.3540   71.9450  224.3500 N   0  0  0  0  0  0  0  0  0  0  0  0
  138.2470   73.8020  222.9820 H   0  0  0  0  0  0  0  0  0  0  0  0
  139.5378   74.2113  220.2531 H   0  0  0  0  0  0  0  0  0  0  0  0
  137.7759   74.5115  220.5951 H   0  0  0  0  0  0  0  0  0  0  0  0
  142.0261   75.7337  222.1269 H   0  0  0  0  0  0  0  0  0  0  0  0
  141.2027   74.5524  220.9998 H   0  0  0  0  0  0  0  0  0  0  0  0
  143.4381   76.3034  220.5825 H   0  0  0  0  0  0  0  0  0  0  0  0
  142.7495   74.8755  219.6226 H   0  0  0  0  0  0  0  0  0  0  0  0
  143.0541   77.2750  218.6348 H   0  0  0  0  0  0  0  0  0  0  0  0
  141.6790   76.0828  218.2464 H   0  0  0  0  0  0  0  0  0  0  0  0
  141.5706   78.7528  219.0365 H   0  0  0  0  0  0  0  0  0  0  0  0
  140.2678   77.4989  218.6432 H   0  0  0  0  0  0  0  0  0  0  0  0
  139.6889   78.4150  220.6697 H   0  0  0  0  0  0  0  0  0  0  0  0
  142.4725   78.0912  221.5495 H   0  0  0  0  0  0  0  0  0  0  0  0
  142.0906   80.1726  220.4048 H   0  0  0  0  0  0  0  0  0  0  0  0
  140.6948   80.5336  221.4443 H   0  0  0  0  0  0  0  0  0  0  0  0
  143.5317   80.8667  221.9966 H   0  0  0  0  0  0  0  0  0  0  0  0
  142.1015   81.3263  223.0184 H   0  0  0  0  0  0  0  0  0  0  0  0
  142.0820   78.2334  224.7325 H   0  0  0  0  0  0  0  0  0  0  0  0
  141.2789   79.8483  224.5270 H   0  0  0  0  0  0  0  0  0  0  0  0
  140.6293   77.3603  223.2409 H   0  0  0  0  0  0  0  0  0  0  0  0
  139.8480   78.9409  223.0320 H   0  0  0  0  0  0  0  0  0  0  0  0
  139.0097   69.9857  221.9711 H   0  0  0  0  0  0  0  0  0  0  0  0
  139.1869   68.3924  223.8633 H   0  0  0  0  0  0  0  0  0  0  0  0
  139.7919   67.8655  226.1230 H   0  0  0  0  0  0  0  0  0  0  0  0
  141.4783   70.9555  228.5763 H   0  0  0  0  0  0  0  0  0  0  0  0
  141.3269   72.6115  226.7024 H   0  0  0  0  0  0  0  0  0  0  0  0
  1  2  2  0
  2  3  1  0
  3  4  1  0
  4  5  1  0
  5  6  2  0
  5  7  1  0
  7  8  1  0
  8  9  1  0
  9 10  1  0
 10 11  1  0
 11 12  1  0
 12 13  1  0
 13 14  1  0
 14 15  1  0
 15 16  1  0
 16 17  1  0
 17 18  1  0
  2 19  1  0
 19 20  2  0
 20 21  1  0
 21 22  2  0
 22 23  1  0
 23 24  2  0
 24 25  1  0
 24 26  1  0
 26 27  2  0
 27 28  1  0
 28 29  2  0
 12  7  1  0
 18 13  1  0
 29 19  1  0
 28 22  1  0
  3 30  1  0
  4 31  1  0
  4 32  1  0
  8 33  1  0
  8 34  1  0
  9 35  1  0
  9 36  1  0
 10 37  1  0
 10 38  1  0
 11 39  1  0
 11 40  1  0
 12 41  1  6
 13 42  1  0
 14 43  1  0
 14 44  1  0
 15 45  1  0
 15 46  1  0
 17 47  1  0
 17 48  1  0
 18 49  1  0
 18 50  1  0
 20 51  1  0
 21 52  1  0
 23 53  1  0
 26 54  1  0
 27 55  1  0
M  END
>  <smiles>  (8) 
O=C(NCC(=O)N1CCCCC1C1CCOCC1)c1ccc2cc(Cl)ccc2n1

>  <score_type>  (8) 
oracle

>  <origin>  (8) 
autodockgpu

>  <m_score__min__energy>  (8) 
-8.6799999999999997

>  <m_primary>  (8) 
energy

>  <rmsd>  (8) 
2.0405919108967177

>  <m_score__min__rmsd>  (8) 
2.0405919108967177

>  <meeko>  (8) 
{"free_energy": -8.62, "intermolecular_energy": -10.11, "internal_energy": -1.53, "cluster_size": 30, "cluster_id": 1, "rank_in_cluster": 5}

>  <energy>  (8) 
-8.56

>  <cluster_rmsd>  (8) 
0.54

>  <cluster>  (8) 
1

$$$$

     RDKit          3D

 55 58  0  0  0  0  0  0  0  0999 V2000
  141.1910   72.8530  221.4470 O   0  0  0  0  0  0  0  0  0  0  0  0
  140.2070   72.7830  222.2550 C   0  0  0  0  0  0  0  0  0  0  0  0
  139.1170   73.6880  222.0960 N   0  0  0  0  0  0  0  0  0  0  0  0
  139.2130   74.6380  221.0060 C   0  0  0  0  0  0  0  0  0  0  0  0
  139.3560   76.0240  221.4770 C   0  0  0  0  0  0  0  0  0  0  0  0
  138.5470   76.6070  222.2430 O   0  0  0  0  0  0  0  0  0  0  0  0
  140.4880   76.7620  221.0350 N   0  0  0  0  0  0  0  0  0  0  0  0
  141.7710   76.1080  220.8570 C   0  0  0  0  0  0  0  0  0  0  0  0
  142.5410   76.6120  219.6980 C   0  0  0  0  0  0  0  0  0  0  0  0
  141.8200   77.5070  218.7510 C   0  0  0  0  0  0  0  0  0  0  0  0
  140.7180   78.3190  219.2820 C   0  0  0  0  0  0  0  0  0  0  0  0
  140.4330   78.1820  220.7390 C   0  0  2  0  0  0  0  0  0  0  0  0
  141.3200   78.9730  221.6430 C   0  0  0  0  0  0  0  0  0  0  0  0
  141.1640   80.4510  221.5900 C   0  0  0  0  0  0  0  0  0  0  0  0
  142.1990   81.0380  222.5410 C   0  0  0  0  0  0  0  0  0  0  0  0
  142.8950   80.0500  223.2380 O   0  0  0  0  0  0  0  0  0  0  0  0
  142.0180   79.2440  223.9680 C   0  0  0  0  0  0  0  0  0  0  0  0
  140.9940   78.5600  223.0720 C   0  0  0  0  0  0  0  0  0  0  0  0
  140.1750   71.7950  223.3370 C   0  0  0  0  0  0  0  0  0  0  0  0
  139.6450   70.5460  223.0530 C   0  0  0  0  0  0  0  0  0  0  0  0
  139.6240   69.6350  224.0820 C   0  0  0  0  0  0  0  0  0  0  0  0
  140.1000   69.9230  225.3380 C   0  0  0  0  0  0  0  0  0  0  0  0
  140.0640   68.9880  226.3400 C   0  0  0  0  0  0  0  0  0  0  0  0
  140.5580   69.3340  227.5850 C   0  0  0  0  0  0  0  0  0  0  0  0
  140.5230   68.1550  228.8880 Cl  0  0  0  0  0  0  0  0  0  0  0  0
  141.0720   70.5940  227.8010 C   0  0  0  0  0  0  0  0  0  0  0  0
  141.1220   71.5630  226.8040 C   0  0  0  0  0  0  0  0  0  0  0  0
  140.6210   71.1860  225.5730 C   0  0  0  0  0  0  0  0  0  0  0  0
  140.6340   72.0590  224.5650 N   0  0  0  0  0  0  0  0  0  0  0  0
  138.2810   73.6730  222.7350 H   0  0  0  0  0  0  0  0  0  0  0  0
  140.0887   74.3823  220.3914 H   0  0  0  0  0  0  0  0  0  0  0  0
  138.2800   74.5768  220.4265 H   0  0  0  0  0  0  0  0  0  0  0  0
  142.3698   76.2651  221.7663 H   0  0  0  0  0  0  0  0  0  0  0  0
  141.5655   75.0441  220.6677 H   0  0  0  0  0  0  0  0  0  0  0  0
  143.4053   77.1686  220.0893 H   0  0  0  0  0  0  0  0  0  0  0  0
  142.7962   75.7174  219.1110 H   0  0  0  0  0  0  0  0  0  0  0  0
  142.5613   78.1986  218.3242 H   0  0  0  0  0  0  0  0  0  0  0  0
  141.3408   76.8240  218.0342 H   0  0  0  0  0  0  0  0  0  0  0  0
  140.9562   79.3748  219.0859 H   0  0  0  0  0  0  0  0  0  0  0  0
  139.8145   77.9523  218.7728 H   0  0  0  0  0  0  0  0  0  0  0  0
  139.4409   78.6119  220.9414 H   0  0  0  0  0  0  0  0  0  0  0  0
  142.3454   78.7563  221.3090 H   0  0  0  0  0  0  0  0  0  0  0  0
  141.3412   80.8139  220.5668 H   0  0  0  0  0  0  0  0  0  0  0  0
  140.1464   80.7508  221.8808 H   0  0  0  0  0  0  0  0  0  0  0  0
  142.9175   81.6335  221.9587 H   0  0  0  0  0  0  0  0  0  0  0  0
  141.6673   81.6592  223.2768 H   0  0  0  0  0  0  0  0  0  0  0  0
  142.5993   78.4736  224.4958 H   0  0  0  0  0  0  0  0  0  0  0  0
  141.4749   79.8868  224.6764 H   0  0  0  0  0  0  0  0  0  0  0  0
  141.0674   77.4675  223.1773 H   0  0  0  0  0  0  0  0  0  0  0  0
  139.9696   78.8532  223.3453 H   0  0  0  0  0  0  0  0  0  0  0  0
  139.2602   70.2962  222.0532 H   0  0  0  0  0  0  0  0  0  0  0  0
  139.2090   68.6342  223.8920 H   0  0  0  0  0  0  0  0  0  0  0  0
  139.6514   67.9847  226.1580 H   0  0  0  0  0  0  0  0  0  0  0  0
  141.4578   70.8434  228.8005 H   0  0  0  0  0  0  0  0  0  0  0  0
  141.5346   72.5666  226.9846 H   0  0  0  0  0  0  0  0  0  0  0  0
  1  2  2  0
  2  3  1  0
  3  4  1  0
  4  5  1  0
  5  6  2  0
  5  7  1  0
  7  8  1  0
  8  9  1  0
  9 10  1  0
 10 11  1  0
 11 12  1  0
 12 13  1  0
 13 14  1  0
 14 15  1  0
 15 16  1  0
 16 17  1  0
 17 18  1  0
  2 19  1  0
 19 20  2  0
 20 21  1  0
 21 22  2  0
 22 23  1  0
 23 24  2  0
 24 25  1  0
 24 26  1  0
 26 27  2  0
 27 28  1  0
 28 29  2  0
 12  7  1  0
 18 13  1  0
 29 19  1  0
 28 22  1  0
  3 30  1  0
  4 31  1  0
  4 32  1  0
  8 33  1  0
  8 34  1  0
  9 35  1  0
  9 36  1  0
 10 37  1  0
 10 38  1  0
 11 39  1  0
 11 40  1  0
 12 41  1  6
 13 42  1  0
 14 43  1  0
 14 44  1  0
 15 45  1  0
 15 46  1  0
 17 47  1  0
 17 48  1  0
 18 49  1  0
 18 50  1  0
 20 51  1  0
 21 52  1  0
 23 53  1  0
 26 54  1  0
 27 55  1  0
M  END
>  <smiles>  (9) 
O=C(NCC(=O)N1CCCCC1C1CCOCC1)c1ccc2cc(Cl)ccc2n1

>  <score_type>  (9) 
oracle

>  <origin>  (9) 
autodockgpu

>  <m_score__min__energy>  (9) 
-8.6799999999999997

>  <m_primary>  (9) 
energy

>  <rmsd>  (9) 
2.183290358465195

>  <m_score__min__rmsd>  (9) 
2.183290358465195

>  <meeko>  (9) 
{"free_energy": -8.52, "intermolecular_energy": -10.01, "internal_energy": -1.46, "cluster_size": 30, "cluster_id": 1, "rank_in_cluster": 11}

>  <energy>  (9) 
-8.53

>  <cluster_rmsd>  (9) 
0.52

>  <cluster>  (9) 
1

$$$$

     RDKit          3D

 55 58  0  0  0  0  0  0  0  0999 V2000
  140.4630   72.3900  220.7110 O   0  0  0  0  0  0  0  0  0  0  0  0
  140.1540   72.7730  221.8870 C   0  0  0  0  0  0  0  0  0  0  0  0
  139.8370   74.1460  222.1020 N   0  0  0  0  0  0  0  0  0  0  0  0
  139.8910   75.0180  220.9470 C   0  0  0  0  0  0  0  0  0  0  0  0
  141.2700   75.3290  220.5390 C   0  0  0  0  0  0  0  0  0  0  0  0
  142.1930   74.4830  220.4300 O   0  0  0  0  0  0  0  0  0  0  0  0
  141.5860   76.6850  220.2490 N   0  0  0  0  0  0  0  0  0  0  0  0
  142.7620   77.0160  219.4660 C   0  0  0  0  0  0  0  0  0  0  0  0
  142.5650   78.1620  218.5500 C   0  0  0  0  0  0  0  0  0  0  0  0
  141.1680   78.6430  218.3680 C   0  0  0  0  0  0  0  0  0  0  0  0
  140.2260   78.4480  219.4780 C   0  0  0  0  0  0  0  0  0  0  0  0
  140.7710   77.7960  220.7040 C   0  0  2  0  0  0  0  0  0  0  0  0
  141.5220   78.6960  221.6280 C   0  0  0  0  0  0  0  0  0  0  0  0
  141.3570   80.1560  221.4050 C   0  0  0  0  0  0  0  0  0  0  0  0
  142.2510   80.8610  222.4160 C   0  0  0  0  0  0  0  0  0  0  0  0
  142.8620   79.9660  223.2950 O   0  0  0  0  0  0  0  0  0  0  0  0
  141.9070   79.2150  223.9840 C   0  0  0  0  0  0  0  0  0  0  0  0
  141.0170   78.4190  223.0390 C   0  0  0  0  0  0  0  0  0  0  0  0
  140.1180   71.8370  223.0130 C   0  0  0  0  0  0  0  0  0  0  0  0
  139.5630   70.5860  222.7930 C   0  0  0  0  0  0  0  0  0  0  0  0
  139.5400   69.7230  223.8630 C   0  0  0  0  0  0  0  0  0  0  0  0
  140.0350   70.0600  225.0980 C   0  0  0  0  0  0  0  0  0  0  0  0
  139.9950   69.1730  226.1430 C   0  0  0  0  0  0  0  0  0  0  0  0
  140.5090   69.5660  227.3650 C   0  0  0  0  0  0  0  0  0  0  0  0
  140.4690   68.4490  228.7210 Cl  0  0  0  0  0  0  0  0  0  0  0  0
  141.0470   70.8260  227.5180 C   0  0  0  0  0  0  0  0  0  0  0  0
  141.1020   71.7470  226.4770 C   0  0  0  0  0  0  0  0  0  0  0  0
  140.5800   71.3230  225.2700 C   0  0  0  0  0  0  0  0  0  0  0  0
  140.5960   72.1490  224.2220 N   0  0  0  0  0  0  0  0  0  0  0  0
  139.5750   74.5170  223.0530 H   0  0  0  0  0  0  0  0  0  0  0  0
  139.3779   74.5246  220.1084 H   0  0  0  0  0  0  0  0  0  0  0  0
  139.4020   75.9647  221.2202 H   0  0  0  0  0  0  0  0  0  0  0  0
  143.5816   77.2612  220.1574 H   0  0  0  0  0  0  0  0  0  0  0  0
  142.9880   76.1400  218.8402 H   0  0  0  0  0  0  0  0  0  0  0  0
  143.1589   79.0032  218.9368 H   0  0  0  0  0  0  0  0  0  0  0  0
  142.8748   77.7959  217.5600 H   0  0  0  0  0  0  0  0  0  0  0  0
  141.2168   79.7230  218.1651 H   0  0  0  0  0  0  0  0  0  0  0  0
  140.7663   78.0242  217.5521 H   0  0  0  0  0  0  0  0  0  0  0  0
  139.8411   79.4369  219.7679 H   0  0  0  0  0  0  0  0  0  0  0  0
  139.4618   77.7561  219.0944 H   0  0  0  0  0  0  0  0  0  0  0  0
  139.9271   77.4649  221.3270 H   0  0  0  0  0  0  0  0  0  0  0  0
  142.5848   78.4738  221.4519 H   0  0  0  0  0  0  0  0  0  0  0  0
  141.6623   80.4193  220.3815 H   0  0  0  0  0  0  0  0  0  0  0  0
  140.3066   80.4575  221.5303 H   0  0  0  0  0  0  0  0  0  0  0  0
  143.0323   81.4133  221.8732 H   0  0  0  0  0  0  0  0  0  0  0  0
  141.6198   81.5388  223.0095 H   0  0  0  0  0  0  0  0  0  0  0  0
  142.4236   78.5162  224.6583 H   0  0  0  0  0  0  0  0  0  0  0  0
  141.2680   79.9116  224.5465 H   0  0  0  0  0  0  0  0  0  0  0  0
  141.0896   77.3447  223.2640 H   0  0  0  0  0  0  0  0  0  0  0  0
  139.9621   78.7114  223.1472 H   0  0  0  0  0  0  0  0  0  0  0  0
  139.1607   70.2979  221.8106 H   0  0  0  0  0  0  0  0  0  0  0  0
  139.1071   68.7214  223.7236 H   0  0  0  0  0  0  0  0  0  0  0  0
  139.5631   68.1699  226.0119 H   0  0  0  0  0  0  0  0  0  0  0  0
  141.4481   71.1141  228.5009 H   0  0  0  0  0  0  0  0  0  0  0  0
  141.5341   72.7502  226.6066 H   0  0  0  0  0  0  0  0  0  0  0  0
  1  2  2  0
  2  3  1  0
  3  4  1  0
  4  5  1  0
  5  6  2  0
  5  7  1  0
  7  8  1  0
  8  9  1  0
  9 10  1  0
 10 11  1  0
 11 12  1  0
 12 13  1  0
 13 14  1  0
 14 15  1  0
 15 16  1  0
 16 17  1  0
 17 18  1  0
  2 19  1  0
 19 20  2  0
 20 21  1  0
 21 22  2  0
 22 23  1  0
 23 24  2  0
 24 25  1  0
 24 26  1  0
 26 27  2  0
 27 28  1  0
 28 29  2  0
 12  7  1  0
 18 13  1  0
 29 19  1  0
 28 22  1  0
  3 30  1  0
  4 31  1  0
  4 32  1  0
  8 33  1  0
  8 34  1  0
  9 35  1  0
  9 36  1  0
 10 37  1  0
 10 38  1  0
 11 39  1  0
 11 40  1  0
 12 41  1  1
 13 42  1  0
 14 43  1  0
 14 44  1  0
 15 45  1  0
 15 46  1  0
 17 47  1  0
 17 48  1  0
 18 49  1  0
 18 50  1  0
 20 51  1  0
 21 52  1  0
 23 53  1  0
 26 54  1  0
 27 55  1  0
M  END
>  <smiles>  (10) 
O=C(NCC(=O)N1CCCCC1C1CCOCC1)c1ccc2cc(Cl)ccc2n1

>  <score_type>  (10) 
oracle

>  <origin>  (10) 
autodockgpu

>  <m_score__min__energy>  (10) 
-8.6799999999999997

>  <m_primary>  (10) 
energy

>  <rmsd>  (10) 
2.373056248914672

>  <m_score__min__rmsd>  (10) 
2.373056248914672

>  <meeko>  (10) 
{"free_energy": -8.49, "intermolecular_energy": -9.98, "internal_energy": -1.36, "cluster_size": 30, "cluster_id": 1, "rank_in_cluster": 15}

>  <energy>  (10) 
-8.52

>  <cluster_rmsd>  (10) 
1.33

>  <cluster>  (10) 
1

$$$$

     RDKit          3D

 55 58  0  0  0  0  0  0  0  0999 V2000
  138.0500   71.2130  221.5810 O   0  0  0  0  0  0  0  0  0  0  0  0
  139.2320   71.4680  221.9850 C   0  0  0  0  0  0  0  0  0  0  0  0
  140.1150   72.1850  221.1250 N   0  0  0  0  0  0  0  0  0  0  0  0
  139.5920   72.5750  219.8330 C   0  0  0  0  0  0  0  0  0  0  0  0
  140.6350   72.6360  218.7970 C   0  0  0  0  0  0  0  0  0  0  0  0
  140.6610   71.9200  217.7640 O   0  0  0  0  0  0  0  0  0  0  0  0
  141.6940   73.5690  218.9740 N   0  0  0  0  0  0  0  0  0  0  0  0
  141.9950   74.5460  217.9440 C   0  0  0  0  0  0  0  0  0  0  0  0
  142.4030   75.8650  218.4770 C   0  0  0  0  0  0  0  0  0  0  0  0
  142.2100   76.0890  219.9360 C   0  0  0  0  0  0  0  0  0  0  0  0
  142.2590   74.9180  220.8210 C   0  0  0  0  0  0  0  0  0  0  0  0
  142.5180   73.6030  220.1680 C   0  0  2  0  0  0  0  0  0  0  0  0
  143.9500   73.3100  219.8640 C   0  0  0  0  0  0  0  0  0  0  0  0
  144.9470   73.8020  220.8510 C   0  0  0  0  0  0  0  0  0  0  0  0
  146.3230   73.4410  220.3060 C   0  0  0  0  0  0  0  0  0  0  0  0
  146.2450   72.6890  219.1330 O   0  0  0  0  0  0  0  0  0  0  0  0
  145.5210   71.5130  219.3440 C   0  0  0  0  0  0  0  0  0  0  0  0
  144.1030   71.7950  219.8210 C   0  0  0  0  0  0  0  0  0  0  0  0
  139.6970   71.0430  223.3090 C   0  0  0  0  0  0  0  0  0  0  0  0
  140.4970   71.9210  224.0220 C   0  0  0  0  0  0  0  0  0  0  0  0
  140.9220   71.5020  225.2610 C   0  0  0  0  0  0  0  0  0  0  0  0
  140.5830   70.2800  225.7870 C   0  0  0  0  0  0  0  0  0  0  0  0
  141.0240   69.8960  227.0270 C   0  0  0  0  0  0  0  0  0  0  0  0
  140.6510   68.6540  227.5080 C   0  0  0  0  0  0  0  0  0  0  0  0
  141.2030   68.1360  229.0930 Cl  0  0  0  0  0  0  0  0  0  0  0  0
  139.8520   67.8280  226.7460 C   0  0  0  0  0  0  0  0  0  0  0  0
  139.3880   68.1900  225.4850 C   0  0  0  0  0  0  0  0  0  0  0  0
  139.7790   69.4370  225.0350 C   0  0  0  0  0  0  0  0  0  0  0  0
  139.3750   69.8570  223.8350 N   0  0  0  0  0  0  0  0  0  0  0  0
  141.1010   72.4220  221.4100 H   0  0  0  0  0  0  0  0  0  0  0  0
  138.8313   71.8426  219.5248 H   0  0  0  0  0  0  0  0  0  0  0  0
  139.1647   73.5834  219.9363 H   0  0  0  0  0  0  0  0  0  0  0  0
  142.8135   74.1543  217.3222 H   0  0  0  0  0  0  0  0  0  0  0  0
  141.0702   74.7032  217.3695 H   0  0  0  0  0  0  0  0  0  0  0  0
  143.4733   75.9952  218.2592 H   0  0  0  0  0  0  0  0  0  0  0  0
  141.7402   76.5917  217.9844 H   0  0  0  0  0  0  0  0  0  0  0  0
  142.9953   76.7841  220.2679 H   0  0  0  0  0  0  0  0  0  0  0  0
  141.1785   76.4606  220.0251 H   0  0  0  0  0  0  0  0  0  0  0  0
  143.0578   75.0887  221.5578 H   0  0  0  0  0  0  0  0  0  0  0  0
  141.2505   74.8359  221.2526 H   0  0  0  0  0  0  0  0  0  0  0  0
  142.2556   72.8044  220.8775 H   0  0  0  0  0  0  0  0  0  0  0  0
  144.1614   73.8352  218.9209 H   0  0  0  0  0  0  0  0  0  0  0  0
  144.8596   74.8925  220.9658 H   0  0  0  0  0  0  0  0  0  0  0  0
  144.7822   73.3462  221.8384 H   0  0  0  0  0  0  0  0  0  0  0  0
  146.8753   74.3688  220.0959 H   0  0  0  0  0  0  0  0  0  0  0  0
  146.8371   72.8318  221.0640 H   0  0  0  0  0  0  0  0  0  0  0  0
  145.4730   70.9511  218.3996 H   0  0  0  0  0  0  0  0  0  0  0  0
  146.0339   70.9335  220.1257 H   0  0  0  0  0  0  0  0  0  0  0  0
  143.3740   71.3598  219.1216 H   0  0  0  0  0  0  0  0  0  0  0  0
  143.9222   71.3503  220.8107 H   0  0  0  0  0  0  0  0  0  0  0  0
  140.7783   72.9044  223.6172 H   0  0  0  0  0  0  0  0  0  0  0  0
  141.5596   72.1734  225.8549 H   0  0  0  0  0  0  0  0  0  0  0  0
  141.6614   70.5620  227.6271 H   0  0  0  0  0  0  0  0  0  0  0  0
  139.5704   66.8447  227.1507 H   0  0  0  0  0  0  0  0  0  0  0  0
  138.7500   67.5254  224.8840 H   0  0  0  0  0  0  0  0  0  0  0  0
  1  2  2  0
  2  3  1  0
  3  4  1  0
  4  5  1  0
  5  6  2  0
  5  7  1  0
  7  8  1  0
  8  9  1  0
  9 10  1  0
 10 11  1  0
 11 12  1  0
 12 13  1  0
 13 14  1  0
 14 15  1  0
 15 16  1  0
 16 17  1  0
 17 18  1  0
  2 19  1  0
 19 20  2  0
 20 21  1  0
 21 22  2  0
 22 23  1  0
 23 24  2  0
 24 25  1  0
 24 26  1  0
 26 27  2  0
 27 28  1  0
 28 29  2  0
 12  7  1  0
 18 13  1  0
 29 19  1  0
 28 22  1  0
  3 30  1  0
  4 31  1  0
  4 32  1  0
  8 33  1  0
  8 34  1  0
  9 35  1  0
  9 36  1  0
 10 37  1  0
 10 38  1  0
 11 39  1  0
 11 40  1  0
 12 41  1  1
 13 42  1  0
 14 43  1  0
 14 44  1  0
 15 45  1  0
 15 46  1  0
 17 47  1  0
 17 48  1  0
 18 49  1  0
 18 50  1  0
 20 51  1  0
 21 52  1  0
 23 53  1  0
 26 54  1  0
 27 55  1  0
M  END
>  <smiles>  (11) 
O=C(NCC(=O)N1CCCCC1C1CCOCC1)c1ccc2cc(Cl)ccc2n1

>  <score_type>  (11) 
oracle

>  <origin>  (11) 
autodockgpu

>  <m_score__min__energy>  (11) 
-8.6799999999999997

>  <m_primary>  (11) 
energy

>  <rmsd>  (11) 
3.358909872375866

>  <m_score__min__rmsd>  (11) 
3.358909872375866

>  <meeko>  (11) 
{"free_energy": -7.5, "intermolecular_energy": -8.99, "internal_energy": -1.46, "cluster_size": 16, "cluster_id": 2, "rank_in_cluster": 16}

>  <energy>  (11) 
-8.52

>  <cluster_rmsd>  (11) 
0.41

>  <cluster>  (11) 
1

$$$$

     RDKit          3D

 55 58  0  0  0  0  0  0  0  0999 V2000
  138.2750   72.9600  220.7380 O   0  0  0  0  0  0  0  0  0  0  0  0
  138.1230   73.7230  221.7470 C   0  0  0  0  0  0  0  0  0  0  0  0
  137.1240   73.4010  222.7110 N   0  0  0  0  0  0  0  0  0  0  0  0
  136.3410   72.2080  222.4650 C   0  0  0  0  0  0  0  0  0  0  0  0
  136.7680   71.0720  223.2970 C   0  0  0  0  0  0  0  0  0  0  0  0
  136.0140   70.4270  224.0690 O   0  0  0  0  0  0  0  0  0  0  0  0
  138.1310   70.6720  223.2260 N   0  0  0  0  0  0  0  0  0  0  0  0
  138.5840   69.7850  222.1710 C   0  0  0  0  0  0  0  0  0  0  0  0
  139.9400   70.1010  221.6690 C   0  0  0  0  0  0  0  0  0  0  0  0
  140.5360   71.3920  222.1110 C   0  0  0  0  0  0  0  0  0  0  0  0
  140.1130   71.9320  223.4100 C   0  0  0  0  0  0  0  0  0  0  0  0
  139.1300   71.1160  224.1800 C   0  0  2  0  0  0  0  0  0  0  0  0
  139.7080   69.9770  224.9520 C   0  0  0  0  0  0  0  0  0  0  0  0
  140.5140   70.3340  226.1490 C   0  0  0  0  0  0  0  0  0  0  0  0
  141.0400   69.0290  226.7320 C   0  0  0  0  0  0  0  0  0  0  0  0
  140.5430   67.9120  226.0590 O   0  0  0  0  0  0  0  0  0  0  0  0
  139.1470   67.8910  226.0930 C   0  0  0  0  0  0  0  0  0  0  0  0
  138.5420   69.1360  225.4570 C   0  0  0  0  0  0  0  0  0  0  0  0
  138.9520   74.9180  221.9350 C   0  0  0  0  0  0  0  0  0  0  0  0
  140.2940   74.8300  221.5990 C   0  0  0  0  0  0  0  0  0  0  0  0
  141.0530   75.9610  221.7830 C   0  0  0  0  0  0  0  0  0  0  0  0
  140.5310   77.1330  222.2740 C   0  0  0  0  0  0  0  0  0  0  0  0
  141.3170   78.2420  222.4440 C   0  0  0  0  0  0  0  0  0  0  0  0
  140.7380   79.3950  222.9420 C   0  0  0  0  0  0  0  0  0  0  0  0
  141.7240   80.8310  223.1710 Cl  0  0  0  0  0  0  0  0  0  0  0  0
  139.3960   79.4150  223.2580 C   0  0  0  0  0  0  0  0  0  0  0  0
  138.5720   78.3060  223.0960 C   0  0  0  0  0  0  0  0  0  0  0  0
  139.1820   77.1710  222.5960 C   0  0  0  0  0  0  0  0  0  0  0  0
  138.4590   76.0660  222.4120 N   0  0  0  0  0  0  0  0  0  0  0  0
  136.9570   73.9980  223.5630 H   0  0  0  0  0  0  0  0  0  0  0  0
  135.2854   72.4277  222.6829 H   0  0  0  0  0  0  0  0  0  0  0  0
  136.4861   71.9243  221.4122 H   0  0  0  0  0  0  0  0  0  0  0  0
  138.5889   68.7563  222.5605 H   0  0  0  0  0  0  0  0  0  0  0  0
  137.8911   69.9107  221.3259 H   0  0  0  0  0  0  0  0  0  0  0  0
  140.6124   69.2946  221.9969 H   0  0  0  0  0  0  0  0  0  0  0  0
  139.8286   70.1939  220.5786 H   0  0  0  0  0  0  0  0  0  0  0  0
  141.6264   71.2529  222.1528 H   0  0  0  0  0  0  0  0  0  0  0  0
  140.1796   72.1281  221.3754 H   0  0  0  0  0  0  0  0  0  0  0  0
  141.0122   72.0480  224.0329 H   0  0  0  0  0  0  0  0  0  0  0  0
  139.5935   72.8737  223.1794 H   0  0  0  0  0  0  0  0  0  0  0  0
  138.6984   71.7459  224.9718 H   0  0  0  0  0  0  0  0  0  0  0  0
  140.3932   69.4702  224.2566 H   0  0  0  0  0  0  0  0  0  0  0  0
  141.3526   70.9847  225.8603 H   0  0  0  0  0  0  0  0  0  0  0  0
  139.9053   70.8781  226.8862 H   0  0  0  0  0  0  0  0  0  0  0  0
  142.1377   69.0262  226.6604 H   0  0  0  0  0  0  0  0  0  0  0  0
  140.7065   68.9684  227.7785 H   0  0  0  0  0  0  0  0  0  0  0  0
  138.7917   67.0048  225.5468 H   0  0  0  0  0  0  0  0  0  0  0  0
  138.8332   67.8611  227.1469 H   0  0  0  0  0  0  0  0  0  0  0  0
  137.8866   68.8542  224.6197 H   0  0  0  0  0  0  0  0  0  0  0  0
  137.9335   69.6962  226.1821 H   0  0  0  0  0  0  0  0  0  0  0  0
  140.7302   73.9004  221.2044 H   0  0  0  0  0  0  0  0  0  0  0  0
  142.1221   75.9263  221.5266 H   0  0  0  0  0  0  0  0  0  0  0  0
  142.3869   78.2160  222.1896 H   0  0  0  0  0  0  0  0  0  0  0  0
  138.9600   80.3442  223.6536 H   0  0  0  0  0  0  0  0  0  0  0  0
  137.5020   78.3308  223.3499 H   0  0  0  0  0  0  0  0  0  0  0  0
  1  2  2  0
  2  3  1  0
  3  4  1  0
  4  5  1  0
  5  6  2  0
  5  7  1  0
  7  8  1  0
  8  9  1  0
  9 10  1  0
 10 11  1  0
 11 12  1  0
 12 13  1  0
 13 14  1  0
 14 15  1  0
 15 16  1  0
 16 17  1  0
 17 18  1  0
  2 19  1  0
 19 20  2  0
 20 21  1  0
 21 22  2  0
 22 23  1  0
 23 24  2  0
 24 25  1  0
 24 26  1  0
 26 27  2  0
 27 28  1  0
 28 29  2  0
 12  7  1  0
 18 13  1  0
 29 19  1  0
 28 22  1  0
  3 30  1  0
  4 31  1  0
  4 32  1  0
  8 33  1  0
  8 34  1  0
  9 35  1  0
  9 36  1  0
 10 37  1  0
 10 38  1  0
 11 39  1  0
 11 40  1  0
 12 41  1  1
 13 42  1  0
 14 43  1  0
 14 44  1  0
 15 45  1  0
 15 46  1  0
 17 47  1  0
 17 48  1  0
 18 49  1  0
 18 50  1  0
 20 51  1  0
 21 52  1  0
 23 53  1  0
 26 54  1  0
 27 55  1  0
M  END
>  <smiles>  (12) 
O=C(NCC(=O)N1CCCCC1C1CCOCC1)c1ccc2cc(Cl)ccc2n1

>  <score_type>  (12) 
oracle

>  <origin>  (12) 
autodockgpu

>  <m_score__min__energy>  (12) 
-8.6799999999999997

>  <m_primary>  (12) 
energy

>  <rmsd>  (12) 
7.203691944311663

>  <m_score__min__rmsd>  (12) 
7.203691944311663

>  <meeko>  (12) 
{"free_energy": -7.13, "intermolecular_energy": -8.62, "internal_energy": -2.03, "cluster_size": 4, "cluster_id": 3, "rank_in_cluster": 4}

>  <energy>  (12) 
-8.51

>  <cluster_rmsd>  (12) 
0.42

>  <cluster>  (12) 
1

$$$$

     RDKit          3D

 55 58  0  0  0  0  0  0  0  0999 V2000
  139.8460   74.1790  222.3430 O   0  0  0  0  0  0  0  0  0  0  0  0
  139.9000   72.9340  222.0740 C   0  0  0  0  0  0  0  0  0  0  0  0
  139.9020   72.5230  220.7080 N   0  0  0  0  0  0  0  0  0  0  0  0
  139.8400   73.5730  219.7120 C   0  0  0  0  0  0  0  0  0  0  0  0
  140.7530   73.3340  218.5840 C   0  0  0  0  0  0  0  0  0  0  0  0
  140.5410   72.5200  217.6500 O   0  0  0  0  0  0  0  0  0  0  0  0
  141.9670   74.0760  218.5440 N   0  0  0  0  0  0  0  0  0  0  0  0
  142.4940   74.5580  217.2810 C   0  0  0  0  0  0  0  0  0  0  0  0
  143.1310   75.8900  217.3720 C   0  0  0  0  0  0  0  0  0  0  0  0
  142.9280   76.6470  218.6380 C   0  0  0  0  0  0  0  0  0  0  0  0
  142.7110   75.8750  219.8690 C   0  0  0  0  0  0  0  0  0  0  0  0
  142.7330   74.3900  219.7350 C   0  0  2  0  0  0  0  0  0  0  0  0
  144.0910   73.7700  219.7020 C   0  0  0  0  0  0  0  0  0  0  0  0
  144.9880   74.0890  220.8440 C   0  0  0  0  0  0  0  0  0  0  0  0
  146.3180   73.4010  220.5660 C   0  0  0  0  0  0  0  0  0  0  0  0
  146.2750   72.6150  219.4140 O   0  0  0  0  0  0  0  0  0  0  0  0
  145.2760   71.6430  219.5130 C   0  0  0  0  0  0  0  0  0  0  0  0
  143.8990   72.2590  219.7190 C   0  0  0  0  0  0  0  0  0  0  0  0
  139.9620   71.9230  223.1330 C   0  0  0  0  0  0  0  0  0  0  0  0
  139.5100   70.6480  222.8340 C   0  0  0  0  0  0  0  0  0  0  0  0
  139.5770   69.7150  223.8420 C   0  0  0  0  0  0  0  0  0  0  0  0
  140.0640   70.0080  225.0920 C   0  0  0  0  0  0  0  0  0  0  0  0
  140.1180   69.0520  226.0730 C   0  0  0  0  0  0  0  0  0  0  0  0
  140.6180   69.4040  227.3130 C   0  0  0  0  0  0  0  0  0  0  0  0
  140.6960   68.1980  228.5890 Cl  0  0  0  0  0  0  0  0  0  0  0  0
  141.0520   70.6920  227.5460 C   0  0  0  0  0  0  0  0  0  0  0  0
  141.0110   71.6820  226.5700 C   0  0  0  0  0  0  0  0  0  0  0  0
  140.5060   71.2990  225.3430 C   0  0  0  0  0  0  0  0  0  0  0  0
  140.4340   72.1920  224.3550 N   0  0  0  0  0  0  0  0  0  0  0  0
  139.9460   71.5080  220.4300 H   0  0  0  0  0  0  0  0  0  0  0  0
  138.8115   73.6334  219.3267 H   0  0  0  0  0  0  0  0  0  0  0  0
  140.1461   74.5118  220.1966 H   0  0  0  0  0  0  0  0  0  0  0  0
  143.2437   73.8384  216.9203 H   0  0  0  0  0  0  0  0  0  0  0  0
  141.6412   74.6558  216.5932 H   0  0  0  0  0  0  0  0  0  0  0  0
  144.2138   75.7507  217.2377 H   0  0  0  0  0  0  0  0  0  0  0  0
  142.6436   76.4955  216.5937 H   0  0  0  0  0  0  0  0  0  0  0  0
  143.8206   77.2705  218.7945 H   0  0  0  0  0  0  0  0  0  0  0  0
  141.9872   77.1962  218.4853 H   0  0  0  0  0  0  0  0  0  0  0  0
  143.4976   76.1578  220.5840 H   0  0  0  0  0  0  0  0  0  0  0  0
  141.6893   76.1233  220.1924 H   0  0  0  0  0  0  0  0  0  0  0  0
  142.2916   73.9515  220.6421 H   0  0  0  0  0  0  0  0  0  0  0  0
  144.5762   74.1766  218.8024 H   0  0  0  0  0  0  0  0  0  0  0  0
  145.1330   75.1768  220.9190 H   0  0  0  0  0  0  0  0  0  0  0  0
  144.5555   73.7417  221.7939 H   0  0  0  0  0  0  0  0  0  0  0  0
  147.0950   74.1696  220.4415 H   0  0  0  0  0  0  0  0  0  0  0  0
  146.5404   72.7404  221.4170 H   0  0  0  0  0  0  0  0  0  0  0  0
  145.2647   71.0498  218.5867 H   0  0  0  0  0  0  0  0  0  0  0  0
  145.5004   71.0130  220.3864 H   0  0  0  0  0  0  0  0  0  0  0  0
  143.2214   71.9534  218.9082 H   0  0  0  0  0  0  0  0  0  0  0  0
  143.4537   71.9264  220.6683 H   0  0  0  0  0  0  0  0  0  0  0  0
  139.1166   70.3943  221.8386 H   0  0  0  0  0  0  0  0  0  0  0  0
  139.2262   68.6924  223.6387 H   0  0  0  0  0  0  0  0  0  0  0  0
  139.7709   68.0266  225.8778 H   0  0  0  0  0  0  0  0  0  0  0  0
  141.4455   70.9460  228.5413 H   0  0  0  0  0  0  0  0  0  0  0  0
  141.3595   72.7072  226.7635 H   0  0  0  0  0  0  0  0  0  0  0  0
  1  2  2  0
  2  3  1  0
  3  4  1  0
  4  5  1  0
  5  6  2  0
  5  7  1  0
  7  8  1  0
  8  9  1  0
  9 10  1  0
 10 11  1  0
 11 12  1  0
 12 13  1  0
 13 14  1  0
 14 15  1  0
 15 16  1  0
 16 17  1  0
 17 18  1  0
  2 19  1  0
 19 20  2  0
 20 21  1  0
 21 22  2  0
 22 23  1  0
 23 24  2  0
 24 25  1  0
 24 26  1  0
 26 27  2  0
 27 28  1  0
 28 29  2  0
 12  7  1  0
 18 13  1  0
 29 19  1  0
 28 22  1  0
  3 30  1  0
  4 31  1  0
  4 32  1  0
  8 33  1  0
  8 34  1  0
  9 35  1  0
  9 36  1  0
 10 37  1  0
 10 38  1  0
 11 39  1  0
 11 40  1  0
 12 41  1  1
 13 42  1  0
 14 43  1  0
 14 44  1  0
 15 45  1  0
 15 46  1  0
 17 47  1  0
 17 48  1  0
 18 49  1  0
 18 50  1  0
 20 51  1  0
 21 52  1  0
 23 53  1  0
 26 54  1  0
 27 55  1  0
M  END
>  <smiles>  (13) 
O=C(NCC(=O)N1CCCCC1C1CCOCC1)c1ccc2cc(Cl)ccc2n1

>  <score_type>  (13) 
oracle

>  <origin>  (13) 
autodockgpu

>  <m_score__min__energy>  (13) 
-8.6799999999999997

>  <m_primary>  (13) 
energy

>  <rmsd>  (13) 
2.6496776179577703

>  <m_score__min__rmsd>  (13) 
2.6496776179577703

>  <meeko>  (13) 
{"free_energy": -8.47, "intermolecular_energy": -9.97, "internal_energy": -1.63, "cluster_size": 16, "cluster_id": 2, "rank_in_cluster": 5}

>  <energy>  (13) 
-8.51

>  <cluster_rmsd>  (13) 
0.69

>  <cluster>  (13) 
1

$$$$

     RDKit          3D

 55 58  0  0  0  0  0  0  0  0999 V2000
  140.7810   72.6990  220.9690 O   0  0  0  0  0  0  0  0  0  0  0  0
  140.0010   72.8090  221.9710 C   0  0  0  0  0  0  0  0  0  0  0  0
  139.0730   73.8910  222.0060 N   0  0  0  0  0  0  0  0  0  0  0  0
  139.0880   74.8000  220.8790 C   0  0  0  0  0  0  0  0  0  0  0  0
  139.2540   76.2030  221.2880 C   0  0  0  0  0  0  0  0  0  0  0  0
  138.3870   76.8790  221.8960 O   0  0  0  0  0  0  0  0  0  0  0  0
  140.4830   76.8460  220.9720 N   0  0  0  0  0  0  0  0  0  0  0  0
  141.7090   76.0770  220.8600 C   0  0  0  0  0  0  0  0  0  0  0  0
  142.6150   76.5540  219.7920 C   0  0  0  0  0  0  0  0  0  0  0  0
  142.0610   77.5550  218.8380 C   0  0  0  0  0  0  0  0  0  0  0  0
  141.0000   78.4470  219.3230 C   0  0  0  0  0  0  0  0  0  0  0  0
  140.5860   78.2750  220.7450 C   0  0  2  0  0  0  0  0  0  0  0  0
  141.4660   78.9370  221.7530 C   0  0  0  0  0  0  0  0  0  0  0  0
  141.5800   80.4160  221.6590 C   0  0  0  0  0  0  0  0  0  0  0  0
  142.5620   80.8530  222.7380 C   0  0  0  0  0  0  0  0  0  0  0  0
  142.9740   79.7880  223.5390 O   0  0  0  0  0  0  0  0  0  0  0  0
  141.8780   79.1720  224.1490 C   0  0  0  0  0  0  0  0  0  0  0  0
  140.8820   78.6400  223.1280 C   0  0  0  0  0  0  0  0  0  0  0  0
  140.0380   71.8510  223.0800 C   0  0  0  0  0  0  0  0  0  0  0  0
  139.5590   70.5730  222.8430 C   0  0  0  0  0  0  0  0  0  0  0  0
  139.6030   69.6910  223.8960 C   0  0  0  0  0  0  0  0  0  0  0  0
  140.0940   70.0350  225.1320 C   0  0  0  0  0  0  0  0  0  0  0  0
  140.1240   69.1280  226.1600 C   0  0  0  0  0  0  0  0  0  0  0  0
  140.6290   69.5300  227.3830 C   0  0  0  0  0  0  0  0  0  0  0  0
  140.6770   68.3880  228.7170 Cl  0  0  0  0  0  0  0  0  0  0  0  0
  141.0900   70.8180  227.5520 C   0  0  0  0  0  0  0  0  0  0  0  0
  141.0740   71.7600  226.5290 C   0  0  0  0  0  0  0  0  0  0  0  0
  140.5630   71.3260  225.3200 C   0  0  0  0  0  0  0  0  0  0  0  0
  140.5130   72.1710  224.2890 N   0  0  0  0  0  0  0  0  0  0  0  0
  138.4060   74.0290  222.8100 H   0  0  0  0  0  0  0  0  0  0  0  0
  139.9212   74.5252  220.2155 H   0  0  0  0  0  0  0  0  0  0  0  0
  138.1178   74.7139  220.3677 H   0  0  0  0  0  0  0  0  0  0  0  0
  142.2434   76.1338  221.8198 H   0  0  0  0  0  0  0  0  0  0  0  0
  141.4202   75.0478  220.6006 H   0  0  0  0  0  0  0  0  0  0  0  0
  143.4920   77.0070  220.2774 H   0  0  0  0  0  0  0  0  0  0  0  0
  142.8333   75.6652  219.1818 H   0  0  0  0  0  0  0  0  0  0  0  0
  142.8962   78.1888  218.5053 H   0  0  0  0  0  0  0  0  0  0  0  0
  141.5805   76.9535  218.0524 H   0  0  0  0  0  0  0  0  0  0  0  0
  141.3511   79.4822  219.1998 H   0  0  0  0  0  0  0  0  0  0  0  0
  140.1106   78.1929  218.7276 H   0  0  0  0  0  0  0  0  0  0  0  0
  139.6250   78.7896  220.8923 H   0  0  0  0  0  0  0  0  0  0  0  0
  142.4735   78.5361  221.5683 H   0  0  0  0  0  0  0  0  0  0  0  0
  141.9559   80.7042  220.6662 H   0  0  0  0  0  0  0  0  0  0  0  0
  140.6005   80.8963  221.7999 H   0  0  0  0  0  0  0  0  0  0  0  0
  143.4457   81.2950  222.2546 H   0  0  0  0  0  0  0  0  0  0  0  0
  142.0513   81.5827  223.3835 H   0  0  0  0  0  0  0  0  0  0  0  0
  142.2383   78.3340  224.7638 H   0  0  0  0  0  0  0  0  0  0  0  0
  141.3642   79.9249  224.7647 H   0  0  0  0  0  0  0  0  0  0  0  0
  140.7487   77.5558  223.2574 H   0  0  0  0  0  0  0  0  0  0  0  0
  139.8971   79.1141  223.2510 H   0  0  0  0  0  0  0  0  0  0  0  0
  139.1628   70.2785  221.8600 H   0  0  0  0  0  0  0  0  0  0  0  0
  139.2298   68.6677  223.7428 H   0  0  0  0  0  0  0  0  0  0  0  0
  139.7541   68.1023  226.0149 H   0  0  0  0  0  0  0  0  0  0  0  0
  141.4862   71.1125  228.5350 H   0  0  0  0  0  0  0  0  0  0  0  0
  141.4446   72.7857  226.6728 H   0  0  0  0  0  0  0  0  0  0  0  0
  1  2  2  0
  2  3  1  0
  3  4  1  0
  4  5  1  0
  5  6  2  0
  5  7  1  0
  7  8  1  0
  8  9  1  0
  9 10  1  0
 10 11  1  0
 11 12  1  0
 12 13  1  0
 13 14  1  0
 14 15  1  0
 15 16  1  0
 16 17  1  0
 17 18  1  0
  2 19  1  0
 19 20  2  0
 20 21  1  0
 21 22  2  0
 22 23  1  0
 23 24  2  0
 24 25  1  0
 24 26  1  0
 26 27  2  0
 27 28  1  0
 28 29  2  0
 12  7  1  0
 18 13  1  0
 29 19  1  0
 28 22  1  0
  3 30  1  0
  4 31  1  0
  4 32  1  0
  8 33  1  0
  8 34  1  0
  9 35  1  0
  9 36  1  0
 10 37  1  0
 10 38  1  0
 11 39  1  0
 11 40  1  0
 12 41  1  6
 13 42  1  0
 14 43  1  0
 14 44  1  0
 15 45  1  0
 15 46  1  0
 17 47  1  0
 17 48  1  0
 18 49  1  0
 18 50  1  0
 20 51  1  0
 21 52  1  0
 23 53  1  0
 26 54  1  0
 27 55  1  0
M  END
>  <smiles>  (14) 
O=C(NCC(=O)N1CCCCC1C1CCOCC1)c1ccc2cc(Cl)ccc2n1

>  <score_type>  (14) 
oracle

>  <origin>  (14) 
autodockgpu

>  <m_score__min__energy>  (14) 
-8.6799999999999997

>  <m_primary>  (14) 
energy

>  <rmsd>  (14) 
2.2079452819098098

>  <m_score__min__rmsd>  (14) 
2.2079452819098098

>  <meeko>  (14) 
{"free_energy": -8.65, "intermolecular_energy": -10.14, "internal_energy": -1.49, "cluster_size": 30, "cluster_id": 1, "rank_in_cluster": 3}

>  <energy>  (14) 
-8.5

>  <cluster_rmsd>  (14) 
0.41

>  <cluster>  (14) 
1

$$$$

     RDKit          3D

 55 58  0  0  0  0  0  0  0  0999 V2000
  140.2890   74.1720  222.2660 O   0  0  0  0  0  0  0  0  0  0  0  0
  140.0460   72.9400  222.0460 C   0  0  0  0  0  0  0  0  0  0  0  0
  139.7420   72.5230  220.7170 N   0  0  0  0  0  0  0  0  0  0  0  0
  139.7340   73.5510  219.6970 C   0  0  0  0  0  0  0  0  0  0  0  0
  140.7180   73.2980  218.6330 C   0  0  0  0  0  0  0  0  0  0  0  0
  140.5840   72.4440  217.7220 O   0  0  0  0  0  0  0  0  0  0  0  0
  141.9100   74.0740  218.6340 N   0  0  0  0  0  0  0  0  0  0  0  0
  142.4080   74.6610  217.4040 C   0  0  0  0  0  0  0  0  0  0  0  0
  143.0110   76.0000  217.5850 C   0  0  0  0  0  0  0  0  0  0  0  0
  142.8040   76.6570  218.9050 C   0  0  0  0  0  0  0  0  0  0  0  0
  142.6230   75.7930  220.0780 C   0  0  0  0  0  0  0  0  0  0  0  0
  142.6840   74.3230  219.8360 C   0  0  2  0  0  0  0  0  0  0  0  0
  144.0570   73.7450  219.7440 C   0  0  0  0  0  0  0  0  0  0  0  0
  144.9900   74.0830  220.8510 C   0  0  0  0  0  0  0  0  0  0  0  0
  146.3280   73.4380  220.5140 C   0  0  0  0  0  0  0  0  0  0  0  0
  146.2610   72.6580  219.3580 O   0  0  0  0  0  0  0  0  0  0  0  0
  145.2970   71.6550  219.4900 C   0  0  0  0  0  0  0  0  0  0  0  0
  143.9110   72.2280  219.7560 C   0  0  0  0  0  0  0  0  0  0  0  0
  140.0720   71.9500  223.1270 C   0  0  0  0  0  0  0  0  0  0  0  0
  139.5930   70.6800  222.8480 C   0  0  0  0  0  0  0  0  0  0  0  0
  139.6270   69.7670  223.8760 C   0  0  0  0  0  0  0  0  0  0  0  0
  140.1080   70.0740  225.1250 C   0  0  0  0  0  0  0  0  0  0  0  0
  140.1280   69.1380  226.1260 C   0  0  0  0  0  0  0  0  0  0  0  0
  140.6230   69.5030  227.3650 C   0  0  0  0  0  0  0  0  0  0  0  0
  140.6590   68.3230  228.6660 Cl  0  0  0  0  0  0  0  0  0  0  0  0
  141.0850   70.7850  227.5760 C   0  0  0  0  0  0  0  0  0  0  0  0
  141.0780   71.7560  226.5800 C   0  0  0  0  0  0  0  0  0  0  0  0
  140.5770   71.3590  225.3550 C   0  0  0  0  0  0  0  0  0  0  0  0
  140.5370   72.2330  224.3490 N   0  0  0  0  0  0  0  0  0  0  0  0
  139.5330   71.5180  220.4810 H   0  0  0  0  0  0  0  0  0  0  0  0
  138.7312   73.5934  219.2470 H   0  0  0  0  0  0  0  0  0  0  0  0
  140.0017   74.5024  220.1799 H   0  0  0  0  0  0  0  0  0  0  0  0
  143.1717   73.9902  216.9835 H   0  0  0  0  0  0  0  0  0  0  0  0
  141.5440   74.7856  216.7346 H   0  0  0  0  0  0  0  0  0  0  0  0
  144.0954   75.9004  217.4294 H   0  0  0  0  0  0  0  0  0  0  0  0
  142.4983   76.6470  216.8581 H   0  0  0  0  0  0  0  0  0  0  0  0
  143.6818   77.2915  219.0970 H   0  0  0  0  0  0  0  0  0  0  0  0
  141.8470   77.1897  218.8026 H   0  0  0  0  0  0  0  0  0  0  0  0
  143.4101   76.0454  220.8038 H   0  0  0  0  0  0  0  0  0  0  0  0
  141.5990   75.9885  220.4289 H   0  0  0  0  0  0  0  0  0  0  0  0
  142.2670   73.8078  220.7139 H   0  0  0  0  0  0  0  0  0  0  0  0
  144.4931   74.1728  218.8292 H   0  0  0  0  0  0  0  0  0  0  0  0
  145.1050   75.1742  220.9290 H   0  0  0  0  0  0  0  0  0  0  0  0
  144.6073   73.7157  221.8146 H   0  0  0  0  0  0  0  0  0  0  0  0
  147.0756   74.2308  220.3636 H   0  0  0  0  0  0  0  0  0  0  0  0
  146.6056   72.7794  221.3502 H   0  0  0  0  0  0  0  0  0  0  0  0
  145.2661   71.0674  218.5606 H   0  0  0  0  0  0  0  0  0  0  0  0
  145.5756   71.0265  220.3487 H   0  0  0  0  0  0  0  0  0  0  0  0
  143.2108   71.9079  218.9703 H   0  0  0  0  0  0  0  0  0  0  0  0
  143.5143   71.8754  220.7195 H   0  0  0  0  0  0  0  0  0  0  0  0
  139.2047   70.4152  221.8535 H   0  0  0  0  0  0  0  0  0  0  0  0
  139.2536   68.7492  223.6901 H   0  0  0  0  0  0  0  0  0  0  0  0
  139.7580   68.1175  225.9478 H   0  0  0  0  0  0  0  0  0  0  0  0
  141.4741   71.0500  228.5702 H   0  0  0  0  0  0  0  0  0  0  0  0
  141.4483   72.7766  226.7566 H   0  0  0  0  0  0  0  0  0  0  0  0
  1  2  2  0
  2  3  1  0
  3  4  1  0
  4  5  1  0
  5  6  2  0
  5  7  1  0
  7  8  1  0
  8  9  1  0
  9 10  1  0
 10 11  1  0
 11 12  1  0
 12 13  1  0
 13 14  1  0
 14 15  1  0
 15 16  1  0
 16 17  1  0
 17 18  1  0
  2 19  1  0
 19 20  2  0
 20 21  1  0
 21 22  2  0
 22 23  1  0
 23 24  2  0
 24 25  1  0
 24 26  1  0
 26 27  2  0
 27 28  1  0
 28 29  2  0
 12  7  1  0
 18 13  1  0
 29 19  1  0
 28 22  1  0
  3 30  1  0
  4 31  1  0
  4 32  1  0
  8 33  1  0
  8 34  1  0
  9 35  1  0
  9 36  1  0
 10 37  1  0
 10 38  1  0
 11 39  1  0
 11 40  1  0
 12 41  1  1
 13 42  1  0
 14 43  1  0
 14 44  1  0
 15 45  1  0
 15 46  1  0
 17 47  1  0
 17 48  1  0
 18 49  1  0
 18 50  1  0
 20 51  1  0
 21 52  1  0
 23 53  1  0
 26 54  1  0
 27 55  1  0
M  END
>  <smiles>  (15) 
O=C(NCC(=O)N1CCCCC1C1CCOCC1)c1ccc2cc(Cl)ccc2n1

>  <score_type>  (15) 
oracle

>  <origin>  (15) 
autodockgpu

>  <m_score__min__energy>  (15) 
-8.6799999999999997

>  <m_primary>  (15) 
energy

>  <rmsd>  (15) 
2.64267894425543

>  <m_score__min__rmsd>  (15) 
2.64267894425543

>  <meeko>  (15) 
{"free_energy": -8.49, "intermolecular_energy": -9.98, "internal_energy": -1.7, "cluster_size": 16, "cluster_id": 2, "rank_in_cluster": 4}

>  <energy>  (15) 
-8.49

>  <cluster_rmsd>  (15) 
0.71

>  <cluster>  (15) 
1

$$$$

     RDKit          3D

 55 58  0  0  0  0  0  0  0  0999 V2000
  139.0640   72.9620  220.6180 O   0  0  0  0  0  0  0  0  0  0  0  0
  140.0170   72.8270  221.4550 C   0  0  0  0  0  0  0  0  0  0  0  0
  141.2460   73.5080  221.2150 N   0  0  0  0  0  0  0  0  0  0  0  0
  141.3210   74.3160  220.0150 C   0  0  0  0  0  0  0  0  0  0  0  0
  141.7430   75.6980  220.2910 C   0  0  0  0  0  0  0  0  0  0  0  0
  142.8990   76.1490  220.0850 O   0  0  0  0  0  0  0  0  0  0  0  0
  140.7780   76.5920  220.8330 N   0  0  0  0  0  0  0  0  0  0  0  0
  139.8080   77.2390  219.9700 C   0  0  0  0  0  0  0  0  0  0  0  0
  138.4700   77.3880  220.5860 C   0  0  0  0  0  0  0  0  0  0  0  0
  138.2310   76.6540  221.8590 C   0  0  0  0  0  0  0  0  0  0  0  0
  139.3880   76.3900  222.7240 C   0  0  0  0  0  0  0  0  0  0  0  0
  140.7050   76.9040  222.2480 C   0  0  2  0  0  0  0  0  0  0  0  0
  140.9610   78.3510  222.5130 C   0  0  0  0  0  0  0  0  0  0  0  0
  141.6750   78.6720  223.7770 C   0  0  0  0  0  0  0  0  0  0  0  0
  141.7690   80.1900  223.8560 C   0  0  0  0  0  0  0  0  0  0  0  0
  141.2700   80.8110  222.7110 O   0  0  0  0  0  0  0  0  0  0  0  0
  141.9520   80.3750  221.5720 C   0  0  0  0  0  0  0  0  0  0  0  0
  141.8410   78.8680  221.3820 C   0  0  0  0  0  0  0  0  0  0  0  0
  139.8730   71.9920  222.6510 C   0  0  0  0  0  0  0  0  0  0  0  0
  139.0060   70.9130  222.5830 C   0  0  0  0  0  0  0  0  0  0  0  0
  138.8870   70.1440  223.7160 C   0  0  0  0  0  0  0  0  0  0  0  0
  139.5820   70.4100  224.8700 C   0  0  0  0  0  0  0  0  0  0  0  0
  139.4390   69.6200  225.9810 C   0  0  0  0  0  0  0  0  0  0  0  0
  140.1640   69.9350  227.1160 C   0  0  0  0  0  0  0  0  0  0  0  0
  139.9980   68.9400  228.5540 Cl  0  0  0  0  0  0  0  0  0  0  0  0
  141.0100   71.0240  227.1170 C   0  0  0  0  0  0  0  0  0  0  0  0
  141.1770   71.8430  226.0050 C   0  0  0  0  0  0  0  0  0  0  0  0
  140.4390   71.5010  224.8890 C   0  0  0  0  0  0  0  0  0  0  0  0
  140.5430   72.2380  223.7820 N   0  0  0  0  0  0  0  0  0  0  0  0
  142.0650   73.4320  221.8730 H   0  0  0  0  0  0  0  0  0  0  0  0
  142.0451   73.8572  219.3256 H   0  0  0  0  0  0  0  0  0  0  0  0
  140.3133   74.3560  219.5758 H   0  0  0  0  0  0  0  0  0  0  0  0
  140.1852   78.2397  219.7124 H   0  0  0  0  0  0  0  0  0  0  0  0
  139.6852   76.5965  219.0856 H   0  0  0  0  0  0  0  0  0  0  0  0
  138.3125   78.4584  220.7846 H   0  0  0  0  0  0  0  0  0  0  0  0
  137.7695   76.9451  219.8628 H   0  0  0  0  0  0  0  0  0  0  0  0
  137.5095   77.2413  222.4460 H   0  0  0  0  0  0  0  0  0  0  0  0
  137.8870   75.6577  221.5443 H   0  0  0  0  0  0  0  0  0  0  0  0
  139.1846   76.8477  223.7034 H   0  0  0  0  0  0  0  0  0  0  0  0
  139.4926   75.2952  222.7447 H   0  0  0  0  0  0  0  0  0  0  0  0
  141.5014   76.4108  222.8247 H   0  0  0  0  0  0  0  0  0  0  0  0
  139.9668   78.8151  222.5912 H   0  0  0  0  0  0  0  0  0  0  0  0
  141.1134   78.2820  224.6387 H   0  0  0  0  0  0  0  0  0  0  0  0
  142.6747   78.2133  223.7930 H   0  0  0  0  0  0  0  0  0  0  0  0
  141.1915   80.5355  224.7261 H   0  0  0  0  0  0  0  0  0  0  0  0
  142.8321   80.4573  223.9480 H   0  0  0  0  0  0  0  0  0  0  0  0
  141.5269   80.8763  220.6900 H   0  0  0  0  0  0  0  0  0  0  0  0
  143.0161   80.6240  221.6972 H   0  0  0  0  0  0  0  0  0  0  0  0
  141.3811   78.6409  220.4089 H   0  0  0  0  0  0  0  0  0  0  0  0
  142.8322   78.3915  221.4008 H   0  0  0  0  0  0  0  0  0  0  0  0
  138.4410   70.6833  221.6675 H   0  0  0  0  0  0  0  0  0  0  0  0
  138.2068   69.2797  223.6975 H   0  0  0  0  0  0  0  0  0  0  0  0
  138.7616   68.7534  225.9702 H   0  0  0  0  0  0  0  0  0  0  0  0
  141.5746   71.2540  228.0326 H   0  0  0  0  0  0  0  0  0  0  0  0
  141.8549   72.7093  226.0141 H   0  0  0  0  0  0  0  0  0  0  0  0
  1  2  2  0
  2  3  1  0
  3  4  1  0
  4  5  1  0
  5  6  2  0
  5  7  1  0
  7  8  1  0
  8  9  1  0
  9 10  1  0
 10 11  1  0
 11 12  1  0
 12 13  1  0
 13 14  1  0
 14 15  1  0
 15 16  1  0
 16 17  1  0
 17 18  1  0
  2 19  1  0
 19 20  2  0
 20 21  1  0
 21 22  2  0
 22 23  1  0
 23 24  2  0
 24 25  1  0
 24 26  1  0
 26 27  2  0
 27 28  1  0
 28 29  2  0
 12  7  1  0
 18 13  1  0
 29 19  1  0
 28 22  1  0
  3 30  1  0
  4 31  1  0
  4 32  1  0
  8 33  1  0
  8 34  1  0
  9 35  1  0
  9 36  1  0
 10 37  1  0
 10 38  1  0
 11 39  1  0
 11 40  1  0
 12 41  1  1
 13 42  1  0
 14 43  1  0
 14 44  1  0
 15 45  1  0
 15 46  1  0
 17 47  1  0
 17 48  1  0
 18 49  1  0
 18 50  1  0
 20 51  1  0
 21 52  1  0
 23 53  1  0
 26 54  1  0
 27 55  1  0
M  END
>  <smiles>  (16) 
O=C(NCC(=O)N1CCCCC1C1CCOCC1)c1ccc2cc(Cl)ccc2n1

>  <score_type>  (16) 
oracle

>  <origin>  (16) 
autodockgpu

>  <m_score__min__energy>  (16) 
-8.6799999999999997

>  <m_primary>  (16) 
energy

>  <rmsd>  (16) 
2.968907084968543

>  <m_score__min__rmsd>  (16) 
2.968907084968543

>  <meeko>  (16) 
{"free_energy": -7.5, "intermolecular_energy": -9.0, "internal_energy": -1.72, "cluster_size": 30, "cluster_id": 1, "rank_in_cluster": 30}

>  <energy>  (16) 
-8.46

>  <cluster_rmsd>  (16) 
0.53

>  <cluster>  (16) 
1

$$$$

     RDKit          3D

 55 58  0  0  0  0  0  0  0  0999 V2000
  138.9840   71.9440  220.8020 O   0  0  0  0  0  0  0  0  0  0  0  0
  139.1920   72.3800  221.9820 C   0  0  0  0  0  0  0  0  0  0  0  0
  139.2030   73.7880  222.2040 N   0  0  0  0  0  0  0  0  0  0  0  0
  138.9710   74.6320  221.0500 C   0  0  0  0  0  0  0  0  0  0  0  0
  140.0930   74.6070  220.0990 C   0  0  0  0  0  0  0  0  0  0  0  0
  140.2430   73.7520  219.1910 O   0  0  0  0  0  0  0  0  0  0  0  0
  141.0830   75.6220  220.2130 N   0  0  0  0  0  0  0  0  0  0  0  0
  142.4750   75.2730  220.4280 C   0  0  0  0  0  0  0  0  0  0  0  0
  143.4270   76.1560  219.7180 C   0  0  0  0  0  0  0  0  0  0  0  0
  142.8530   77.0890  218.7100 C   0  0  0  0  0  0  0  0  0  0  0  0
  141.4710   77.5440  218.9070 C   0  0  0  0  0  0  0  0  0  0  0  0
  140.7710   77.0360  220.1230 C   0  0  2  0  0  0  0  0  0  0  0  0
  141.0860   77.7580  221.3910 C   0  0  0  0  0  0  0  0  0  0  0  0
  141.8260   79.0400  221.2530 C   0  0  0  0  0  0  0  0  0  0  0  0
  142.0800   79.5570  222.6630 C   0  0  0  0  0  0  0  0  0  0  0  0
  141.4750   78.7580  223.6350 O   0  0  0  0  0  0  0  0  0  0  0  0
  140.0960   78.6790  223.4250 C   0  0  0  0  0  0  0  0  0  0  0  0
  139.7600   78.0990  222.0580 C   0  0  0  0  0  0  0  0  0  0  0  0
  139.4190   71.4680  223.1070 C   0  0  0  0  0  0  0  0  0  0  0  0
  138.9900   70.1570  222.9690 C   0  0  0  0  0  0  0  0  0  0  0  0
  139.2130   69.3190  224.0360 C   0  0  0  0  0  0  0  0  0  0  0  0
  139.8270   69.7350  225.1910 C   0  0  0  0  0  0  0  0  0  0  0  0
  140.0340   68.8710  226.2350 C   0  0  0  0  0  0  0  0  0  0  0  0
  140.6580   69.3460  227.3740 C   0  0  0  0  0  0  0  0  0  0  0  0
  140.9330   68.2590  228.7270 Cl  0  0  0  0  0  0  0  0  0  0  0  0
  141.0600   70.6620  227.4460 C   0  0  0  0  0  0  0  0  0  0  0  0
  140.8650   71.5620  226.4040 C   0  0  0  0  0  0  0  0  0  0  0  0
  140.2390   71.0570  225.2810 C   0  0  0  0  0  0  0  0  0  0  0  0
  140.0160   71.8580  224.2380 N   0  0  0  0  0  0  0  0  0  0  0  0
  139.3690   74.2020  223.1580 H   0  0  0  0  0  0  0  0  0  0  0  0
  138.0639   74.2833  220.5346 H   0  0  0  0  0  0  0  0  0  0  0  0
  138.8601   75.6659  221.4090 H   0  0  0  0  0  0  0  0  0  0  0  0
  142.6851   75.3317  221.5062 H   0  0  0  0  0  0  0  0  0  0  0  0
  142.6174   74.2587  220.0268 H   0  0  0  0  0  0  0  0  0  0  0  0
  143.9465   76.7622  220.4748 H   0  0  0  0  0  0  0  0  0  0  0  0
  144.0767   75.4777  219.1454 H   0  0  0  0  0  0  0  0  0  0  0  0
  143.4930   77.9834  218.6889 H   0  0  0  0  0  0  0  0  0  0  0  0
  142.8222   76.5052  217.7782 H   0  0  0  0  0  0  0  0  0  0  0  0
  141.4854   78.6424  218.9638 H   0  0  0  0  0  0  0  0  0  0  0  0
  140.9061   77.1386  218.0546 H   0  0  0  0  0  0  0  0  0  0  0  0
  139.6923   77.2174  220.0066 H   0  0  0  0  0  0  0  0  0  0  0  0
  141.7421   77.0809  221.9577 H   0  0  0  0  0  0  0  0  0  0  0  0
  142.7811   78.8717  220.7339 H   0  0  0  0  0  0  0  0  0  0  0  0
  141.2477   79.7676  220.6646 H   0  0  0  0  0  0  0  0  0  0  0  0
  143.1649   79.5743  222.8438 H   0  0  0  0  0  0  0  0  0  0  0  0
  141.6456   80.5649  222.7363 H   0  0  0  0  0  0  0  0  0  0  0  0
  139.6546   78.0370  224.2015 H   0  0  0  0  0  0  0  0  0  0  0  0
  139.6860   79.6987  223.4718 H   0  0  0  0  0  0  0  0  0  0  0  0
  139.1478   77.1921  222.1708 H   0  0  0  0  0  0  0  0  0  0  0  0
  139.1853   78.8162  221.4536 H   0  0  0  0  0  0  0  0  0  0  0  0
  138.4958   69.8047  222.0516 H   0  0  0  0  0  0  0  0  0  0  0  0
  138.8857   68.2715  223.9609 H   0  0  0  0  0  0  0  0  0  0  0  0
  139.7105   67.8218  226.1681 H   0  0  0  0  0  0  0  0  0  0  0  0
  141.5543   71.0143  228.3633 H   0  0  0  0  0  0  0  0  0  0  0  0
  141.1892   72.6111  226.4700 H   0  0  0  0  0  0  0  0  0  0  0  0
  1  2  2  0
  2  3  1  0
  3  4  1  0
  4  5  1  0
  5  6  2  0
  5  7  1  0
  7  8  1  0
  8  9  1  0
  9 10  1  0
 10 11  1  0
 11 12  1  0
 12 13  1  0
 13 14  1  0
 14 15  1  0
 15 16  1  0
 16 17  1  0
 17 18  1  0
  2 19  1  0
 19 20  2  0
 20 21  1  0
 21 22  2  0
 22 23  1  0
 23 24  2  0
 24 25  1  0
 24 26  1  0
 26 27  2  0
 27 28  1  0
 28 29  2  0
 12  7  1  0
 18 13  1  0
 29 19  1  0
 28 22  1  0
  3 30  1  0
  4 31  1  0
  4 32  1  0
  8 33  1  0
  8 34  1  0
  9 35  1  0
  9 36  1  0
 10 37  1  0
 10 38  1  0
 11 39  1  0
 11 40  1  0
 12 41  1  6
 13 42  1  0
 14 43  1  0
 14 44  1  0
 15 45  1  0
 15 46  1  0
 17 47  1  0
 17 48  1  0
 18 49  1  0
 18 50  1  0
 20 51  1  0
 21 52  1  0
 23 53  1  0
 26 54  1  0
 27 55  1  0
M  END
>  <smiles>  (17) 
O=C(NCC(=O)N1CCCCC1C1CCOCC1)c1ccc2cc(Cl)ccc2n1

>  <score_type>  (17) 
oracle

>  <origin>  (17) 
autodockgpu

>  <m_score__min__energy>  (17) 
-8.6799999999999997

>  <m_primary>  (17) 
energy

>  <rmsd>  (17) 
2.0490393990626665

>  <m_score__min__rmsd>  (17) 
2.0490393990626665

>  <meeko>  (17) 
{"free_energy": -7.93, "intermolecular_energy": -9.42, "internal_energy": -1.53, "cluster_size": 30, "cluster_id": 1, "rank_in_cluster": 28}

>  <energy>  (17) 
-8.46

>  <cluster_rmsd>  (17) 
1.3

>  <cluster>  (17) 
1

$$$$

     RDKit          3D

 55 58  0  0  0  0  0  0  0  0999 V2000
  138.3490   72.9990  222.2050 O   0  0  0  0  0  0  0  0  0  0  0  0
  139.5010   72.5010  222.4280 C   0  0  0  0  0  0  0  0  0  0  0  0
  140.5920   72.8860  221.5950 N   0  0  0  0  0  0  0  0  0  0  0  0
  140.3020   73.8330  220.5380 C   0  0  0  0  0  0  0  0  0  0  0  0
  140.1900   75.2140  221.0320 C   0  0  0  0  0  0  0  0  0  0  0  0
  139.2710   75.6350  221.7780 O   0  0  0  0  0  0  0  0  0  0  0  0
  141.1930   76.1430  220.6380 N   0  0  0  0  0  0  0  0  0  0  0  0
  142.5650   75.7110  220.4510 C   0  0  0  0  0  0  0  0  0  0  0  0
  143.2530   76.3840  219.3270 C   0  0  0  0  0  0  0  0  0  0  0  0
  142.4050   77.1920  218.4080 C   0  0  0  0  0  0  0  0  0  0  0  0
  141.1820   77.7920  218.9560 C   0  0  0  0  0  0  0  0  0  0  0  0
  140.9120   77.5470  220.4020 C   0  0  2  0  0  0  0  0  0  0  0  0
  141.6530   78.4290  221.3510 C   0  0  0  0  0  0  0  0  0  0  0  0
  141.5880   79.8900  221.0800 C   0  0  0  0  0  0  0  0  0  0  0  0
  142.4540   80.5730  222.1300 C   0  0  0  0  0  0  0  0  0  0  0  0
  142.9530   79.6710  223.0700 O   0  0  0  0  0  0  0  0  0  0  0  0
  141.9130   78.9950  223.7130 C   0  0  0  0  0  0  0  0  0  0  0  0
  141.0420   78.2230  222.7310 C   0  0  0  0  0  0  0  0  0  0  0  0
  139.7250   71.5460  223.5180 C   0  0  0  0  0  0  0  0  0  0  0  0
  139.3940   70.2200  223.2910 C   0  0  0  0  0  0  0  0  0  0  0  0
  139.6120   69.3420  224.3260 C   0  0  0  0  0  0  0  0  0  0  0  0
  140.1320   69.7350  225.5340 C   0  0  0  0  0  0  0  0  0  0  0  0
  140.3380   68.8320  226.5450 C   0  0  0  0  0  0  0  0  0  0  0  0
  140.8650   69.2840  227.7410 C   0  0  0  0  0  0  0  0  0  0  0  0
  141.1370   68.1470  229.0520 Cl  0  0  0  0  0  0  0  0  0  0  0  0
  141.1730   70.6180  227.9020 C   0  0  0  0  0  0  0  0  0  0  0  0
  140.9770   71.5580  226.8950 C   0  0  0  0  0  0  0  0  0  0  0  0
  140.4490   71.0740  225.7140 C   0  0  0  0  0  0  0  0  0  0  0  0
  140.2310   71.9130  224.7000 N   0  0  0  0  0  0  0  0  0  0  0  0
  141.5640   72.5050  221.7350 H   0  0  0  0  0  0  0  0  0  0  0  0
  141.1110   73.7893  219.7939 H   0  0  0  0  0  0  0  0  0  0  0  0
  139.3322   73.5561  220.0989 H   0  0  0  0  0  0  0  0  0  0  0  0
  143.1238   75.9199  221.3752 H   0  0  0  0  0  0  0  0  0  0  0  0
  142.5342   74.6376  220.2124 H   0  0  0  0  0  0  0  0  0  0  0  0
  144.0123   77.0549  219.7553 H   0  0  0  0  0  0  0  0  0  0  0  0
  143.6549   75.5695  218.7064 H   0  0  0  0  0  0  0  0  0  0  0  0
  143.0284   78.0120  218.0220 H   0  0  0  0  0  0  0  0  0  0  0  0
  142.0482   76.4730  217.6558 H   0  0  0  0  0  0  0  0  0  0  0  0
  141.2479   78.8800  218.8078 H   0  0  0  0  0  0  0  0  0  0  0  0
  140.3535   77.3076  218.4185 H   0  0  0  0  0  0  0  0  0  0  0  0
  139.8622   77.8028  220.6083 H   0  0  0  0  0  0  0  0  0  0  0  0
  142.7101   78.1414  221.2522 H   0  0  0  0  0  0  0  0  0  0  0  0
  141.9739   80.1055  220.0727 H   0  0  0  0  0  0  0  0  0  0  0  0
  140.5510   80.2537  221.1273 H   0  0  0  0  0  0  0  0  0  0  0  0
  143.2998   81.0641  221.6266 H   0  0  0  0  0  0  0  0  0  0  0  0
  141.8263   81.3027  222.6625 H   0  0  0  0  0  0  0  0  0  0  0  0
  142.3433   78.2883  224.4378 H   0  0  0  0  0  0  0  0  0  0  0  0
  141.2802   79.7424  224.2139 H   0  0  0  0  0  0  0  0  0  0  0  0
  141.0370   77.1534  222.9879 H   0  0  0  0  0  0  0  0  0  0  0  0
  140.0012   78.5777  222.7606 H   0  0  0  0  0  0  0  0  0  0  0  0
  138.9771   69.8860  222.3294 H   0  0  0  0  0  0  0  0  0  0  0  0
  139.3595   68.2814  224.1802 H   0  0  0  0  0  0  0  0  0  0  0  0
  140.0891   67.7694  226.4075 H   0  0  0  0  0  0  0  0  0  0  0  0
  141.5898   70.9522  228.8636 H   0  0  0  0  0  0  0  0  0  0  0  0
  141.2270   72.6205  227.0310 H   0  0  0  0  0  0  0  0  0  0  0  0
  1  2  2  0
  2  3  1  0
  3  4  1  0
  4  5  1  0
  5  6  2  0
  5  7  1  0
  7  8  1  0
  8  9  1  0
  9 10  1  0
 10 11  1  0
 11 12  1  0
 12 13  1  0
 13 14  1  0
 14 15  1  0
 15 16  1  0
 16 17  1  0
 17 18  1  0
  2 19  1  0
 19 20  2  0
 20 21  1  0
 21 22  2  0
 22 23  1  0
 23 24  2  0
 24 25  1  0
 24 26  1  0
 26 27  2  0
 27 28  1  0
 28 29  2  0
 12  7  1  0
 18 13  1  0
 29 19  1  0
 28 22  1  0
  3 30  1  0
  4 31  1  0
  4 32  1  0
  8 33  1  0
  8 34  1  0
  9 35  1  0
  9 36  1  0
 10 37  1  0
 10 38  1  0
 11 39  1  0
 11 40  1  0
 12 41  1  6
 13 42  1  0
 14 43  1  0
 14 44  1  0
 15 45  1  0
 15 46  1  0
 17 47  1  0
 17 48  1  0
 18 49  1  0
 18 50  1  0
 20 51  1  0
 21 52  1  0
 23 53  1  0
 26 54  1  0
 27 55  1  0
M  END
>  <smiles>  (18) 
O=C(NCC(=O)N1CCCCC1C1CCOCC1)c1ccc2cc(Cl)ccc2n1

>  <score_type>  (18) 
oracle

>  <origin>  (18) 
autodockgpu

>  <m_score__min__energy>  (18) 
-8.6799999999999997

>  <m_primary>  (18) 
energy

>  <rmsd>  (18) 
2.2050932159235876

>  <m_score__min__rmsd>  (18) 
2.2050932159235876

>  <meeko>  (18) 
{"free_energy": -8.04, "intermolecular_energy": -9.53, "internal_energy": -1.34, "cluster_size": 30, "cluster_id": 1, "rank_in_cluster": 25}

>  <energy>  (18) 
-8.44

>  <cluster_rmsd>  (18) 
0.77

>  <cluster>  (18) 
1

$$$$

     RDKit          3D

 55 58  0  0  0  0  0  0  0  0999 V2000
  140.1260   72.1260  220.6950 O   0  0  0  0  0  0  0  0  0  0  0  0
  139.9050   72.5080  221.8910 C   0  0  0  0  0  0  0  0  0  0  0  0
  139.5890   73.8770  222.1300 N   0  0  0  0  0  0  0  0  0  0  0  0
  139.5410   74.7470  220.9720 C   0  0  0  0  0  0  0  0  0  0  0  0
  139.4890   76.1710  221.3380 C   0  0  0  0  0  0  0  0  0  0  0  0
  138.5820   76.7000  222.0300 O   0  0  0  0  0  0  0  0  0  0  0  0
  140.5370   77.0140  220.8760 N   0  0  0  0  0  0  0  0  0  0  0  0
  141.8250   76.4560  220.5100 C   0  0  0  0  0  0  0  0  0  0  0  0
  142.4540   77.1210  219.3470 C   0  0  0  0  0  0  0  0  0  0  0  0
  141.6030   78.0670  218.5740 C   0  0  0  0  0  0  0  0  0  0  0  0
  140.5200   78.7550  219.2890 C   0  0  0  0  0  0  0  0  0  0  0  0
  140.3860   78.4510  220.7430 C   0  0  2  0  0  0  0  0  0  0  0  0
  141.3190   79.1940  221.6410 C   0  0  0  0  0  0  0  0  0  0  0  0
  141.1220   80.6650  221.7240 C   0  0  0  0  0  0  0  0  0  0  0  0
  142.2110   81.2060  222.6420 C   0  0  0  0  0  0  0  0  0  0  0  0
  142.9840   80.1870  223.2000 O   0  0  0  0  0  0  0  0  0  0  0  0
  142.1860   79.2960  223.9230 C   0  0  0  0  0  0  0  0  0  0  0  0
  141.1140   78.6550  223.0510 C   0  0  0  0  0  0  0  0  0  0  0  0
  139.9690   71.5730  223.0180 C   0  0  0  0  0  0  0  0  0  0  0  0
  139.5090   70.2820  222.8100 C   0  0  0  0  0  0  0  0  0  0  0  0
  139.5780   69.4220  223.8800 C   0  0  0  0  0  0  0  0  0  0  0  0
  140.0750   69.7980  225.1040 C   0  0  0  0  0  0  0  0  0  0  0  0
  140.1300   68.9130  226.1490 C   0  0  0  0  0  0  0  0  0  0  0  0
  140.6400   69.3470  227.3590 C   0  0  0  0  0  0  0  0  0  0  0  0
  140.7200   68.2330  228.7150 Cl  0  0  0  0  0  0  0  0  0  0  0  0
  141.0800   70.6460  227.4990 C   0  0  0  0  0  0  0  0  0  0  0  0
  141.0380   71.5670  226.4570 C   0  0  0  0  0  0  0  0  0  0  0  0
  140.5230   71.1010  225.2630 C   0  0  0  0  0  0  0  0  0  0  0  0
  140.4500   71.9240  224.2160 N   0  0  0  0  0  0  0  0  0  0  0  0
  139.3980   74.2460  223.0980 H   0  0  0  0  0  0  0  0  0  0  0  0
  140.4397   74.5723  220.3622 H   0  0  0  0  0  0  0  0  0  0  0  0
  138.6219   74.5115  220.4154 H   0  0  0  0  0  0  0  0  0  0  0  0
  142.5018   76.5508  221.3719 H   0  0  0  0  0  0  0  0  0  0  0  0
  141.6514   75.4078  220.2251 H   0  0  0  0  0  0  0  0  0  0  0  0
  143.3254   77.6821  219.7155 H   0  0  0  0  0  0  0  0  0  0  0  0
  142.6925   76.3085  218.6449 H   0  0  0  0  0  0  0  0  0  0  0  0
  142.2658   78.8408  218.1594 H   0  0  0  0  0  0  0  0  0  0  0  0
  141.0891   77.4359  217.8340 H   0  0  0  0  0  0  0  0  0  0  0  0
  140.6872   79.8375  219.1877 H   0  0  0  0  0  0  0  0  0  0  0  0
  139.5895   78.3920  218.8281 H   0  0  0  0  0  0  0  0  0  0  0  0
  139.3993   78.7991  221.0825 H   0  0  0  0  0  0  0  0  0  0  0  0
  142.3209   79.0389  221.2143 H   0  0  0  0  0  0  0  0  0  0  0  0
  141.2113   81.1156  220.7245 H   0  0  0  0  0  0  0  0  0  0  0  0
  140.1222   80.9071  222.1137 H   0  0  0  0  0  0  0  0  0  0  0  0
  142.8670   81.8703  222.0603 H   0  0  0  0  0  0  0  0  0  0  0  0
  141.7211   81.7475  223.4647 H   0  0  0  0  0  0  0  0  0  0  0  0
  142.8256   78.5040  224.3397 H   0  0  0  0  0  0  0  0  0  0  0  0
  141.6823   79.8611  224.7211 H   0  0  0  0  0  0  0  0  0  0  0  0
  141.2233   77.5605  223.0584 H   0  0  0  0  0  0  0  0  0  0  0  0
  140.1064   78.8918  223.4233 H   0  0  0  0  0  0  0  0  0  0  0  0
  139.1086   69.9617  221.8368 H   0  0  0  0  0  0  0  0  0  0  0  0
  139.2204   68.3898  223.7507 H   0  0  0  0  0  0  0  0  0  0  0  0
  139.7758   67.8787  226.0278 H   0  0  0  0  0  0  0  0  0  0  0  0
  141.4798   70.9668  228.4723 H   0  0  0  0  0  0  0  0  0  0  0  0
  141.3927   72.6014  226.5765 H   0  0  0  0  0  0  0  0  0  0  0  0
  1  2  2  0
  2  3  1  0
  3  4  1  0
  4  5  1  0
  5  6  2  0
  5  7  1  0
  7  8  1  0
  8  9  1  0
  9 10  1  0
 10 11  1  0
 11 12  1  0
 12 13  1  0
 13 14  1  0
 14 15  1  0
 15 16  1  0
 16 17  1  0
 17 18  1  0
  2 19  1  0
 19 20  2  0
 20 21  1  0
 21 22  2  0
 22 23  1  0
 23 24  2  0
 24 25  1  0
 24 26  1  0
 26 27  2  0
 27 28  1  0
 28 29  2  0
 12  7  1  0
 18 13  1  0
 29 19  1  0
 28 22  1  0
  3 30  1  0
  4 31  1  0
  4 32  1  0
  8 33  1  0
  8 34  1  0
  9 35  1  0
  9 36  1  0
 10 37  1  0
 10 38  1  0
 11 39  1  0
 11 40  1  0
 12 41  1  1
 13 42  1  0
 14 43  1  0
 14 44  1  0
 15 45  1  0
 15 46  1  0
 17 47  1  0
 17 48  1  0
 18 49  1  0
 18 50  1  0
 20 51  1  0
 21 52  1  0
 23 53  1  0
 26 54  1  0
 27 55  1  0
M  END
>  <smiles>  (19) 
O=C(NCC(=O)N1CCCCC1C1CCOCC1)c1ccc2cc(Cl)ccc2n1

>  <score_type>  (19) 
oracle

>  <origin>  (19) 
autodockgpu

>  <m_score__min__energy>  (19) 
-8.6799999999999997

>  <m_primary>  (19) 
energy

>  <rmsd>  (19) 
2.1911462867854494

>  <m_score__min__rmsd>  (19) 
2.1911462867854494

>  <meeko>  (19) 
{"free_energy": -8.5, "intermolecular_energy": -10.0, "internal_energy": -1.5, "cluster_size": 30, "cluster_id": 1, "rank_in_cluster": 14}

>  <energy>  (19) 
-8.42

>  <cluster_rmsd>  (19) 
0.58

>  <cluster>  (19) 
1

$$$$

     RDKit          3D

 55 58  0  0  0  0  0  0  0  0999 V2000
  140.8070   72.4850  220.9010 O   0  0  0  0  0  0  0  0  0  0  0  0
  140.2480   72.7700  222.0100 C   0  0  0  0  0  0  0  0  0  0  0  0
  139.6650   74.0600  222.1770 N   0  0  0  0  0  0  0  0  0  0  0  0
  139.7550   74.9670  221.0510 C   0  0  0  0  0  0  0  0  0  0  0  0
  139.5730   76.3730  221.4420 C   0  0  0  0  0  0  0  0  0  0  0  0
  138.6640   76.7930  222.2030 O   0  0  0  0  0  0  0  0  0  0  0  0
  140.4880   77.3310  220.9240 N   0  0  0  0  0  0  0  0  0  0  0  0
  141.7910   76.9170  220.4390 C   0  0  0  0  0  0  0  0  0  0  0  0
  142.2510   77.6700  219.2510 C   0  0  0  0  0  0  0  0  0  0  0  0
  141.2470   78.5390  218.5770 C   0  0  0  0  0  0  0  0  0  0  0  0
  140.1630   79.0950  219.3980 C   0  0  0  0  0  0  0  0  0  0  0  0
  140.1810   78.7470  220.8470 C   0  0  2  0  0  0  0  0  0  0  0  0
  141.1050   79.5620  221.6900 C   0  0  0  0  0  0  0  0  0  0  0  0
  140.7170   80.9800  221.9110 C   0  0  0  0  0  0  0  0  0  0  0  0
  141.8250   81.6170  222.7400 C   0  0  0  0  0  0  0  0  0  0  0  0
  142.7950   80.6910  223.1250 O   0  0  0  0  0  0  0  0  0  0  0  0
  142.2240   79.6500  223.8600 C   0  0  0  0  0  0  0  0  0  0  0  0
  141.1530   78.9130  223.0680 C   0  0  0  0  0  0  0  0  0  0  0  0
  140.1920   71.8030  223.1110 C   0  0  0  0  0  0  0  0  0  0  0  0
  139.6290   70.5640  222.8500 C   0  0  0  0  0  0  0  0  0  0  0  0
  139.5870   69.6720  223.8960 C   0  0  0  0  0  0  0  0  0  0  0  0
  140.0710   69.9710  225.1450 C   0  0  0  0  0  0  0  0  0  0  0  0
  140.0140   69.0560  226.1650 C   0  0  0  0  0  0  0  0  0  0  0  0
  140.5170   69.4110  227.4030 C   0  0  0  0  0  0  0  0  0  0  0  0
  140.4540   68.2580  228.7270 Cl  0  0  0  0  0  0  0  0  0  0  0  0
  141.0640   70.6620  227.5950 C   0  0  0  0  0  0  0  0  0  0  0  0
  141.1380   71.6100  226.5800 C   0  0  0  0  0  0  0  0  0  0  0  0
  140.6260   71.2240  225.3570 C   0  0  0  0  0  0  0  0  0  0  0  0
  140.6600   72.0780  224.3330 N   0  0  0  0  0  0  0  0  0  0  0  0
  139.1910   74.3480  223.0720 H   0  0  0  0  0  0  0  0  0  0  0  0
  140.7462   74.8557  220.5872 H   0  0  0  0  0  0  0  0  0  0  0  0
  138.9479   74.7089  220.3496 H   0  0  0  0  0  0  0  0  0  0  0  0
  142.5239   77.0611  221.2465 H   0  0  0  0  0  0  0  0  0  0  0  0
  141.7012   75.8633  220.1364 H   0  0  0  0  0  0  0  0  0  0  0  0
  143.0875   78.3109  219.5665 H   0  0  0  0  0  0  0  0  0  0  0  0
  142.5132   76.9028  218.5076 H   0  0  0  0  0  0  0  0  0  0  0  0
  141.7908   79.3862  218.1338 H   0  0  0  0  0  0  0  0  0  0  0  0
  140.7405   77.8746  217.8615 H   0  0  0  0  0  0  0  0  0  0  0  0
  140.2107   80.1910  219.3169 H   0  0  0  0  0  0  0  0  0  0  0  0
  139.2393   78.6475  219.0025 H   0  0  0  0  0  0  0  0  0  0  0  0
  139.1953   78.9836  221.2740 H   0  0  0  0  0  0  0  0  0  0  0  0
  142.0583   79.5822  221.1415 H   0  0  0  0  0  0  0  0  0  0  0  0
  140.6191   81.5002  220.9467 H   0  0  0  0  0  0  0  0  0  0  0  0
  139.7489   81.0476  222.4289 H   0  0  0  0  0  0  0  0  0  0  0  0
  142.3057   82.4055  222.1424 H   0  0  0  0  0  0  0  0  0  0  0  0
  141.3695   82.0277  223.6531 H   0  0  0  0  0  0  0  0  0  0  0  0
  143.0139   78.9368  224.1381 H   0  0  0  0  0  0  0  0  0  0  0  0
  141.7484   80.0847  224.7515 H   0  0  0  0  0  0  0  0  0  0  0  0
  141.4138   77.8483  222.9770 H   0  0  0  0  0  0  0  0  0  0  0  0
  140.1760   78.9753  223.5696 H   0  0  0  0  0  0  0  0  0  0  0  0
  139.2352   70.3067  221.8557 H   0  0  0  0  0  0  0  0  0  0  0  0
  139.1475   68.6783  223.7245 H   0  0  0  0  0  0  0  0  0  0  0  0
  139.5770   68.0599  226.0015 H   0  0  0  0  0  0  0  0  0  0  0  0
  141.4571   70.9203  228.5894 H   0  0  0  0  0  0  0  0  0  0  0  0
  141.5771   72.6055  226.7415 H   0  0  0  0  0  0  0  0  0  0  0  0
  1  2  2  0
  2  3  1  0
  3  4  1  0
  4  5  1  0
  5  6  2  0
  5  7  1  0
  7  8  1  0
  8  9  1  0
  9 10  1  0
 10 11  1  0
 11 12  1  0
 12 13  1  0
 13 14  1  0
 14 15  1  0
 15 16  1  0
 16 17  1  0
 17 18  1  0
  2 19  1  0
 19 20  2  0
 20 21  1  0
 21 22  2  0
 22 23  1  0
 23 24  2  0
 24 25  1  0
 24 26  1  0
 26 27  2  0
 27 28  1  0
 28 29  2  0
 12  7  1  0
 18 13  1  0
 29 19  1  0
 28 22  1  0
  3 30  1  0
  4 31  1  0
  4 32  1  0
  8 33  1  0
  8 34  1  0
  9 35  1  0
  9 36  1  0
 10 37  1  0
 10 38  1  0
 11 39  1  0
 11 40  1  0
 12 41  1  1
 13 42  1  0
 14 43  1  0
 14 44  1  0
 15 45  1  0
 15 46  1  0
 17 47  1  0
 17 48  1  0
 18 49  1  0
 18 50  1  0
 20 51  1  0
 21 52  1  0
 23 53  1  0
 26 54  1  0
 27 55  1  0
M  END
>  <smiles>  (20) 
O=C(NCC(=O)N1CCCCC1C1CCOCC1)c1ccc2cc(Cl)ccc2n1

>  <score_type>  (20) 
oracle

>  <origin>  (20) 
autodockgpu

>  <m_score__min__energy>  (20) 
-8.6799999999999997

>  <m_primary>  (20) 
energy

>  <rmsd>  (20) 
2.3979465223835015

>  <m_score__min__rmsd>  (20) 
2.3979465223835015

>  <meeko>  (20) 
{"free_energy": -8.42, "intermolecular_energy": -9.92, "internal_energy": -1.49, "cluster_size": 30, "cluster_id": 1, "rank_in_cluster": 19}

>  <energy>  (20) 
-8.42

>  <cluster_rmsd>  (20) 
1.3

>  <cluster>  (20) 
1

$$$$

     RDKit          3D

 55 58  0  0  0  0  0  0  0  0999 V2000
  138.4070   72.1190  221.0030 O   0  0  0  0  0  0  0  0  0  0  0  0
  139.3000   72.3580  221.8810 C   0  0  0  0  0  0  0  0  0  0  0  0
  140.1150   73.5190  221.7380 N   0  0  0  0  0  0  0  0  0  0  0  0
  139.8610   74.3550  220.5830 C   0  0  0  0  0  0  0  0  0  0  0  0
  140.5380   73.8650  219.3720 C   0  0  0  0  0  0  0  0  0  0  0  0
  140.0840   72.9770  218.6080 O   0  0  0  0  0  0  0  0  0  0  0  0
  141.7980   74.4350  219.0390 N   0  0  0  0  0  0  0  0  0  0  0  0
  142.1360   74.7190  217.6570 C   0  0  0  0  0  0  0  0  0  0  0  0
  142.9230   75.9600  217.4800 C   0  0  0  0  0  0  0  0  0  0  0  0
  143.0400   76.8560  218.6640 C   0  0  0  0  0  0  0  0  0  0  0  0
  142.9670   76.2430  219.9960 C   0  0  0  0  0  0  0  0  0  0  0  0
  142.7990   74.7620  220.0370 C   0  0  2  0  0  0  0  0  0  0  0  0
  144.0510   73.9700  219.8490 C   0  0  0  0  0  0  0  0  0  0  0  0
  145.1380   74.2130  220.8340 C   0  0  0  0  0  0  0  0  0  0  0  0
  146.3190   73.3480  220.4110 C   0  0  0  0  0  0  0  0  0  0  0  0
  146.0100   72.5310  219.3230 O   0  0  0  0  0  0  0  0  0  0  0  0
  144.9250   71.7010  219.6160 C   0  0  0  0  0  0  0  0  0  0  0  0
  143.6790   72.4980  219.9780 C   0  0  0  0  0  0  0  0  0  0  0  0
  139.5030   71.4680  223.0280 C   0  0  0  0  0  0  0  0  0  0  0  0
  139.0700   70.1570  222.9110 C   0  0  0  0  0  0  0  0  0  0  0  0
  139.2700   69.3400  223.9980 C   0  0  0  0  0  0  0  0  0  0  0  0
  139.8690   69.7770  225.1540 C   0  0  0  0  0  0  0  0  0  0  0  0
  140.0540   68.9340  226.2190 C   0  0  0  0  0  0  0  0  0  0  0  0
  140.6630   69.4280  227.3580 C   0  0  0  0  0  0  0  0  0  0  0  0
  140.9110   68.3690  228.7370 Cl  0  0  0  0  0  0  0  0  0  0  0  0
  141.0710   70.7440  227.4090 C   0  0  0  0  0  0  0  0  0  0  0  0
  140.8980   71.6230  226.3450 C   0  0  0  0  0  0  0  0  0  0  0  0
  140.2870   71.0980  225.2230 C   0  0  0  0  0  0  0  0  0  0  0  0
  140.0850   71.8780  224.1600 N   0  0  0  0  0  0  0  0  0  0  0  0
  140.8670   73.7630  222.4340 H   0  0  0  0  0  0  0  0  0  0  0  0
  138.7772   74.3784  220.3961 H   0  0  0  0  0  0  0  0  0  0  0  0
  140.2555   75.3579  220.8034 H   0  0  0  0  0  0  0  0  0  0  0  0
  142.7230   73.8763  217.2628 H   0  0  0  0  0  0  0  0  0  0  0  0
  141.1883   74.8595  217.1166 H   0  0  0  0  0  0  0  0  0  0  0  0
  143.9408   75.6688  217.1813 H   0  0  0  0  0  0  0  0  0  0  0  0
  142.3719   76.5456  216.7294 H   0  0  0  0  0  0  0  0  0  0  0  0
  144.0099   77.3699  218.5920 H   0  0  0  0  0  0  0  0  0  0  0  0
  142.1537   77.5052  218.6088 H   0  0  0  0  0  0  0  0  0  0  0  0
  143.8974   76.4889  220.5288 H   0  0  0  0  0  0  0  0  0  0  0  0
  142.0558   76.6528  220.4562 H   0  0  0  0  0  0  0  0  0  0  0  0
  142.4842   74.4756  221.0513 H   0  0  0  0  0  0  0  0  0  0  0  0
  144.4456   74.2757  218.8688 H   0  0  0  0  0  0  0  0  0  0  0  0
  145.4249   75.2749  220.8267 H   0  0  0  0  0  0  0  0  0  0  0  0
  144.8099   73.9608  221.8532 H   0  0  0  0  0  0  0  0  0  0  0  0
  147.1577   74.0039  220.1347 H   0  0  0  0  0  0  0  0  0  0  0  0
  146.5822   72.6976  221.2582 H   0  0  0  0  0  0  0  0  0  0  0  0
  144.7056   71.0792  218.7356 H   0  0  0  0  0  0  0  0  0  0  0  0
  145.1958   71.0810  220.4833 H   0  0  0  0  0  0  0  0  0  0  0  0
  142.8577   72.2523  219.2887 H   0  0  0  0  0  0  0  0  0  0  0  0
  143.3398   72.2625  220.9975 H   0  0  0  0  0  0  0  0  0  0  0  0
  138.5896   69.7880  221.9928 H   0  0  0  0  0  0  0  0  0  0  0  0
  138.9367   68.2933  223.9397 H   0  0  0  0  0  0  0  0  0  0  0  0
  139.7247   67.8857  226.1686 H   0  0  0  0  0  0  0  0  0  0  0  0
  141.5520   71.1131  228.3268 H   0  0  0  0  0  0  0  0  0  0  0  0
  141.2274   72.6714  226.3941 H   0  0  0  0  0  0  0  0  0  0  0  0
  1  2  2  0
  2  3  1  0
  3  4  1  0
  4  5  1  0
  5  6  2  0
  5  7  1  0
  7  8  1  0
  8  9  1  0
  9 10  1  0
 10 11  1  0
 11 12  1  0
 12 13  1  0
 13 14  1  0
 14 15  1  0
 15 16  1  0
 16 17  1  0
 17 18  1  0
  2 19  1  0
 19 20  2  0
 20 21  1  0
 21 22  2  0
 22 23  1  0
 23 24  2  0
 24 25  1  0
 24 26  1  0
 26 27  2  0
 27 28  1  0
 28 29  2  0
 12  7  1  0
 18 13  1  0
 29 19  1  0
 28 22  1  0
  3 30  1  0
  4 31  1  0
  4 32  1  0
  8 33  1  0
  8 34  1  0
  9 35  1  0
  9 36  1  0
 10 37  1  0
 10 38  1  0
 11 39  1  0
 11 40  1  0
 12 41  1  1
 13 42  1  0
 14 43  1  0
 14 44  1  0
 15 45  1  0
 15 46  1  0
 17 47  1  0
 17 48  1  0
 18 49  1  0
 18 50  1  0
 20 51  1  0
 21 52  1  0
 23 53  1  0
 26 54  1  0
 27 55  1  0
M  END
>  <smiles>  (21) 
O=C(NCC(=O)N1CCCCC1C1CCOCC1)c1ccc2cc(Cl)ccc2n1

>  <score_type>  (21) 
oracle

>  <origin>  (21) 
autodockgpu

>  <m_score__min__energy>  (21) 
-8.6799999999999997

>  <m_primary>  (21) 
energy

>  <rmsd>  (21) 
2.310937255332331

>  <m_score__min__rmsd>  (21) 
2.310937255332331

>  <meeko>  (21) 
{"free_energy": -7.85, "intermolecular_energy": -9.34, "internal_energy": -1.68, "cluster_size": 16, "cluster_id": 2, "rank_in_cluster": 15}

>  <energy>  (21) 
-8.41

>  <cluster_rmsd>  (21) 
0.63

>  <cluster>  (21) 
1

$$$$

     RDKit          3D

 55 58  0  0  0  0  0  0  0  0999 V2000
  138.5580   72.3050  221.1460 O   0  0  0  0  0  0  0  0  0  0  0  0
  139.4610   72.4890  222.0270 C   0  0  0  0  0  0  0  0  0  0  0  0
  140.3000   73.6370  221.9250 N   0  0  0  0  0  0  0  0  0  0  0  0
  140.0580   74.5250  220.8070 C   0  0  0  0  0  0  0  0  0  0  0  0
  140.5680   73.9850  219.5370 C   0  0  0  0  0  0  0  0  0  0  0  0
  139.9740   73.1310  218.8320 O   0  0  0  0  0  0  0  0  0  0  0  0
  141.8250   74.4610  219.0710 N   0  0  0  0  0  0  0  0  0  0  0  0
  142.0930   74.5610  217.6490 C   0  0  0  0  0  0  0  0  0  0  0  0
  142.9080   75.7400  217.2790 C   0  0  0  0  0  0  0  0  0  0  0  0
  143.1200   76.7680  218.3340 C   0  0  0  0  0  0  0  0  0  0  0  0
  143.1040   76.3240  219.7340 C   0  0  0  0  0  0  0  0  0  0  0  0
  142.8910   74.8670  219.9670 C   0  0  2  0  0  0  0  0  0  0  0  0
  144.1040   74.0100  219.8130 C   0  0  0  0  0  0  0  0  0  0  0  0
  145.2020   74.2400  220.7890 C   0  0  0  0  0  0  0  0  0  0  0  0
  146.3400   73.3040  220.4020 C   0  0  0  0  0  0  0  0  0  0  0  0
  145.9930   72.4600  219.3470 O   0  0  0  0  0  0  0  0  0  0  0  0
  144.8690   71.6950  219.6710 C   0  0  0  0  0  0  0  0  0  0  0  0
  143.6630   72.5640  219.9990 C   0  0  0  0  0  0  0  0  0  0  0  0
  139.6520   71.5490  223.1360 C   0  0  0  0  0  0  0  0  0  0  0  0
  139.2400   70.2390  222.9470 C   0  0  0  0  0  0  0  0  0  0  0  0
  139.4280   69.3750  223.9990 C   0  0  0  0  0  0  0  0  0  0  0  0
  139.9950   69.7650  225.1880 C   0  0  0  0  0  0  0  0  0  0  0  0
  140.1680   68.8750  226.2160 C   0  0  0  0  0  0  0  0  0  0  0  0
  140.7440   69.3240  227.3900 C   0  0  0  0  0  0  0  0  0  0  0  0
  140.9770   68.2040  228.7240 Cl  0  0  0  0  0  0  0  0  0  0  0  0
  141.1320   70.6410  227.5130 C   0  0  0  0  0  0  0  0  0  0  0  0
  140.9700   71.5670  226.4870 C   0  0  0  0  0  0  0  0  0  0  0  0
  140.3920   71.0860  225.3280 C   0  0  0  0  0  0  0  0  0  0  0  0
  140.2020   71.9130  224.2990 N   0  0  0  0  0  0  0  0  0  0  0  0
  141.0610   73.8370  222.6260 H   0  0  0  0  0  0  0  0  0  0  0  0
  138.9739   74.6851  220.7121 H   0  0  0  0  0  0  0  0  0  0  0  0
  140.5902   75.4666  221.0072 H   0  0  0  0  0  0  0  0  0  0  0  0
  142.6295   73.6545  217.3321 H   0  0  0  0  0  0  0  0  0  0  0  0
  141.1212   74.6709  217.1455 H   0  0  0  0  0  0  0  0  0  0  0  0
  143.8976   75.3754  216.9662 H   0  0  0  0  0  0  0  0  0  0  0  0
  142.3342   76.2504  216.4915 H   0  0  0  0  0  0  0  0  0  0  0  0
  144.0997   77.2323  218.1479 H   0  0  0  0  0  0  0  0  0  0  0  0
  142.2531   77.4393  218.2457 H   0  0  0  0  0  0  0  0  0  0  0  0
  144.0710   76.5963  220.1821 H   0  0  0  0  0  0  0  0  0  0  0  0
  142.2342   76.8217  220.1875 H   0  0  0  0  0  0  0  0  0  0  0  0
  142.6255   74.7182  221.0240 H   0  0  0  0  0  0  0  0  0  0  0  0
  144.5125   74.2581  218.8222 H   0  0  0  0  0  0  0  0  0  0  0  0
  145.5390   75.2860  220.7400 H   0  0  0  0  0  0  0  0  0  0  0  0
  144.8630   74.0443  221.8170 H   0  0  0  0  0  0  0  0  0  0  0  0
  147.2087   73.9081  220.1013 H   0  0  0  0  0  0  0  0  0  0  0  0
  146.5718   72.6757  221.2746 H   0  0  0  0  0  0  0  0  0  0  0  0
  144.6198   71.0500  218.8155 H   0  0  0  0  0  0  0  0  0  0  0  0
  145.1100   71.0978  220.5628 H   0  0  0  0  0  0  0  0  0  0  0  0
  142.8309   72.3306  219.3185 H   0  0  0  0  0  0  0  0  0  0  0  0
  143.3134   72.3853  221.0265 H   0  0  0  0  0  0  0  0  0  0  0  0
  138.7852   69.9075  222.0019 H   0  0  0  0  0  0  0  0  0  0  0  0
  139.1114   68.3278  223.8843 H   0  0  0  0  0  0  0  0  0  0  0  0
  139.8552   67.8258  226.1092 H   0  0  0  0  0  0  0  0  0  0  0  0
  141.5869   70.9725  228.4580 H   0  0  0  0  0  0  0  0  0  0  0  0
  141.2826   72.6164  226.5922 H   0  0  0  0  0  0  0  0  0  0  0  0
  1  2  2  0
  2  3  1  0
  3  4  1  0
  4  5  1  0
  5  6  2  0
  5  7  1  0
  7  8  1  0
  8  9  1  0
  9 10  1  0
 10 11  1  0
 11 12  1  0
 12 13  1  0
 13 14  1  0
 14 15  1  0
 15 16  1  0
 16 17  1  0
 17 18  1  0
  2 19  1  0
 19 20  2  0
 20 21  1  0
 21 22  2  0
 22 23  1  0
 23 24  2  0
 24 25  1  0
 24 26  1  0
 26 27  2  0
 27 28  1  0
 28 29  2  0
 12  7  1  0
 18 13  1  0
 29 19  1  0
 28 22  1  0
  3 30  1  0
  4 31  1  0
  4 32  1  0
  8 33  1  0
  8 34  1  0
  9 35  1  0
  9 36  1  0
 10 37  1  0
 10 38  1  0
 11 39  1  0
 11 40  1  0
 12 41  1  1
 13 42  1  0
 14 43  1  0
 14 44  1  0
 15 45  1  0
 15 46  1  0
 17 47  1  0
 17 48  1  0
 18 49  1  0
 18 50  1  0
 20 51  1  0
 21 52  1  0
 23 53  1  0
 26 54  1  0
 27 55  1  0
M  END
>  <smiles>  (22) 
O=C(NCC(=O)N1CCCCC1C1CCOCC1)c1ccc2cc(Cl)ccc2n1

>  <score_type>  (22) 
oracle

>  <origin>  (22) 
autodockgpu

>  <m_score__min__energy>  (22) 
-8.6799999999999997

>  <m_primary>  (22) 
energy

>  <rmsd>  (22) 
2.3127026042471446

>  <m_score__min__rmsd>  (22) 
2.3127026042471446

>  <meeko>  (22) 
{"free_energy": -7.96, "intermolecular_energy": -9.45, "internal_energy": -1.66, "cluster_size": 16, "cluster_id": 2, "rank_in_cluster": 13}

>  <energy>  (22) 
-8.33

>  <cluster_rmsd>  (22) 
1.32

>  <cluster>  (22) 
1

$$$$

     RDKit          3D

 55 58  0  0  0  0  0  0  0  0999 V2000
  137.9540   72.0260  221.6750 O   0  0  0  0  0  0  0  0  0  0  0  0
  139.0080   72.1670  222.3780 C   0  0  0  0  0  0  0  0  0  0  0  0
  139.9100   73.2260  222.0640 N   0  0  0  0  0  0  0  0  0  0  0  0
  139.5530   74.0760  220.9480 C   0  0  0  0  0  0  0  0  0  0  0  0
  139.5860   75.5060  221.2940 C   0  0  0  0  0  0  0  0  0  0  0  0
  138.6700   76.1170  221.9000 O   0  0  0  0  0  0  0  0  0  0  0  0
  140.7350   76.2540  220.9170 N   0  0  0  0  0  0  0  0  0  0  0  0
  142.0360   75.6160  220.8340 C   0  0  0  0  0  0  0  0  0  0  0  0
  142.8740   76.1160  219.7220 C   0  0  0  0  0  0  0  0  0  0  0  0
  142.2060   76.9860  218.7160 C   0  0  0  0  0  0  0  0  0  0  0  0
  141.0590   77.7890  219.1600 C   0  0  0  0  0  0  0  0  0  0  0  0
  140.6800   77.6680  220.5970 C   0  0  2  0  0  0  0  0  0  0  0  0
  141.4940   78.4860  221.5450 C   0  0  0  0  0  0  0  0  0  0  0  0
  141.5580   79.9450  221.2690 C   0  0  0  0  0  0  0  0  0  0  0  0
  142.4790   80.5530  222.3190 C   0  0  0  0  0  0  0  0  0  0  0  0
  142.8950   79.6130  223.2630 O   0  0  0  0  0  0  0  0  0  0  0  0
  141.7980   79.0340  223.9060 C   0  0  0  0  0  0  0  0  0  0  0  0
  140.8640   78.3390  222.9240 C   0  0  0  0  0  0  0  0  0  0  0  0
  139.3080   71.2690  223.4970 C   0  0  0  0  0  0  0  0  0  0  0  0
  138.9500   69.9360  223.3670 C   0  0  0  0  0  0  0  0  0  0  0  0
  139.2410   69.1120  224.4270 C   0  0  0  0  0  0  0  0  0  0  0  0
  139.8560   69.5620  225.5700 C   0  0  0  0  0  0  0  0  0  0  0  0
  140.1320   68.7100  226.6080 C   0  0  0  0  0  0  0  0  0  0  0  0
  140.7530   69.2180  227.7350 C   0  0  0  0  0  0  0  0  0  0  0  0
  141.1160   68.1480  229.0800 Cl  0  0  0  0  0  0  0  0  0  0  0  0
  141.0820   70.5550  227.8000 C   0  0  0  0  0  0  0  0  0  0  0  0
  140.8160   71.4430  226.7630 C   0  0  0  0  0  0  0  0  0  0  0  0
  140.1950   70.9040  225.6530 C   0  0  0  0  0  0  0  0  0  0  0  0
  139.9060   71.6910  224.6160 N   0  0  0  0  0  0  0  0  0  0  0  0
  140.7950   73.3870  222.6120 H   0  0  0  0  0  0  0  0  0  0  0  0
  140.2620   73.8956  220.1265 H   0  0  0  0  0  0  0  0  0  0  0  0
  138.5222   73.8272  220.6554 H   0  0  0  0  0  0  0  0  0  0  0  0
  142.5707   75.7935  221.7788 H   0  0  0  0  0  0  0  0  0  0  0  0
  141.8582   74.5467  220.6467 H   0  0  0  0  0  0  0  0  0  0  0  0
  143.7018   76.6914  220.1620 H   0  0  0  0  0  0  0  0  0  0  0  0
  143.1807   75.2174  219.1666 H   0  0  0  0  0  0  0  0  0  0  0  0
  142.9644   77.6826  218.3293 H   0  0  0  0  0  0  0  0  0  0  0  0
  141.7857   76.2858  217.9791 H   0  0  0  0  0  0  0  0  0  0  0  0
  141.2945   78.8455  218.9641 H   0  0  0  0  0  0  0  0  0  0  0  0
  140.1967   77.4019  218.5974 H   0  0  0  0  0  0  0  0  0  0  0  0
  139.6705   78.0849  220.7277 H   0  0  0  0  0  0  0  0  0  0  0  0
  142.5223   78.1070  221.4497 H   0  0  0  0  0  0  0  0  0  0  0  0
  141.9633   80.1222  220.2619 H   0  0  0  0  0  0  0  0  0  0  0  0
  140.5569   80.3987  221.3127 H   0  0  0  0  0  0  0  0  0  0  0  0
  143.3657   80.9662  221.8160 H   0  0  0  0  0  0  0  0  0  0  0  0
  141.9172   81.3370  222.8479 H   0  0  0  0  0  0  0  0  0  0  0  0
  142.1625   78.2943  224.6340 H   0  0  0  0  0  0  0  0  0  0  0  0
  141.2330   79.8360  224.4036 H   0  0  0  0  0  0  0  0  0  0  0  0
  140.7638   77.2749  223.1839 H   0  0  0  0  0  0  0  0  0  0  0  0
  139.8586   78.7844  222.9501 H   0  0  0  0  0  0  0  0  0  0  0  0
  138.4571   69.5567  222.4597 H   0  0  0  0  0  0  0  0  0  0  0  0
  138.9704   68.0481  224.3577 H   0  0  0  0  0  0  0  0  0  0  0  0
  139.8652   67.6446  226.5460 H   0  0  0  0  0  0  0  0  0  0  0  0
  141.5742   70.9346  228.7076 H   0  0  0  0  0  0  0  0  0  0  0  0
  141.0835   72.5083  226.8231 H   0  0  0  0  0  0  0  0  0  0  0  0
  1  2  2  0
  2  3  1  0
  3  4  1  0
  4  5  1  0
  5  6  2  0
  5  7  1  0
  7  8  1  0
  8  9  1  0
  9 10  1  0
 10 11  1  0
 11 12  1  0
 12 13  1  0
 13 14  1  0
 14 15  1  0
 15 16  1  0
 16 17  1  0
 17 18  1  0
  2 19  1  0
 19 20  2  0
 20 21  1  0
 21 22  2  0
 22 23  1  0
 23 24  2  0
 24 25  1  0
 24 26  1  0
 26 27  2  0
 27 28  1  0
 28 29  2  0
 12  7  1  0
 18 13  1  0
 29 19  1  0
 28 22  1  0
  3 30  1  0
  4 31  1  0
  4 32  1  0
  8 33  1  0
  8 34  1  0
  9 35  1  0
  9 36  1  0
 10 37  1  0
 10 38  1  0
 11 39  1  0
 11 40  1  0
 12 41  1  6
 13 42  1  0
 14 43  1  0
 14 44  1  0
 15 45  1  0
 15 46  1  0
 17 47  1  0
 17 48  1  0
 18 49  1  0
 18 50  1  0
 20 51  1  0
 21 52  1  0
 23 53  1  0
 26 54  1  0
 27 55  1  0
M  END
>  <smiles>  (23) 
O=C(NCC(=O)N1CCCCC1C1CCOCC1)c1ccc2cc(Cl)ccc2n1

>  <score_type>  (23) 
oracle

>  <origin>  (23) 
autodockgpu

>  <m_score__min__energy>  (23) 
-8.6799999999999997

>  <m_primary>  (23) 
energy

>  <rmsd>  (23) 
2.0103945978001736

>  <m_score__min__rmsd>  (23) 
2.0103945978001736

>  <meeko>  (23) 
{"free_energy": -7.95, "intermolecular_energy": -9.44, "internal_energy": -1.43, "cluster_size": 30, "cluster_id": 1, "rank_in_cluster": 27}

>  <energy>  (23) 
-8.3

>  <cluster_rmsd>  (23) 
1.54

>  <cluster>  (23) 
1

$$$$

     RDKit          3D

 55 58  0  0  0  0  0  0  0  0999 V2000
  140.3740   72.1660  220.7980 O   0  0  0  0  0  0  0  0  0  0  0  0
  139.9770   72.5070  221.9610 C   0  0  0  0  0  0  0  0  0  0  0  0
  139.4960   73.8340  222.1630 N   0  0  0  0  0  0  0  0  0  0  0  0
  139.4960   74.7100  221.0100 C   0  0  0  0  0  0  0  0  0  0  0  0
  140.7010   75.5490  220.9380 C   0  0  0  0  0  0  0  0  0  0  0  0
  140.9650   76.4920  221.7260 O   0  0  0  0  0  0  0  0  0  0  0  0
  141.6380   75.2790  219.9020 N   0  0  0  0  0  0  0  0  0  0  0  0
  141.2040   74.6770  218.6560 C   0  0  0  0  0  0  0  0  0  0  0  0
  141.9130   75.1960  217.4650 C   0  0  0  0  0  0  0  0  0  0  0  0
  142.7620   76.4040  217.6620 C   0  0  0  0  0  0  0  0  0  0  0  0
  143.3490   76.6180  218.9910 C   0  0  0  0  0  0  0  0  0  0  0  0
  143.0510   75.5840  220.0240 C   0  0  2  0  0  0  0  0  0  0  0  0
  143.8930   74.3520  219.9580 C   0  0  0  0  0  0  0  0  0  0  0  0
  145.2380   74.4390  220.5850 C   0  0  0  0  0  0  0  0  0  0  0  0
  145.9250   73.1010  220.3460 C   0  0  0  0  0  0  0  0  0  0  0  0
  145.0820   72.1800  219.7210 O   0  0  0  0  0  0  0  0  0  0  0  0
  143.9290   71.9660  220.4800 C   0  0  0  0  0  0  0  0  0  0  0  0
  143.1450   73.2530  220.7010 C   0  0  0  0  0  0  0  0  0  0  0  0
  140.0050   71.5680  223.0860 C   0  0  0  0  0  0  0  0  0  0  0  0
  139.5000   70.2950  222.8740 C   0  0  0  0  0  0  0  0  0  0  0  0
  139.5350   69.4300  223.9420 C   0  0  0  0  0  0  0  0  0  0  0  0
  140.0410   69.7860  225.1680 C   0  0  0  0  0  0  0  0  0  0  0  0
  140.0620   68.8960  226.2110 C   0  0  0  0  0  0  0  0  0  0  0  0
  140.5840   69.3090  227.4230 C   0  0  0  0  0  0  0  0  0  0  0  0
  140.6210   68.1900  228.7770 Cl  0  0  0  0  0  0  0  0  0  0  0  0
  141.0700   70.5910  227.5670 C   0  0  0  0  0  0  0  0  0  0  0  0
  141.0640   71.5150  226.5280 C   0  0  0  0  0  0  0  0  0  0  0  0
  140.5360   71.0710  225.3310 C   0  0  0  0  0  0  0  0  0  0  0  0
  140.4940   71.8990  224.2850 N   0  0  0  0  0  0  0  0  0  0  0  0
  139.1570   74.1670  223.1020 H   0  0  0  0  0  0  0  0  0  0  0  0
  139.4402   74.0946  220.0999 H   0  0  0  0  0  0  0  0  0  0  0  0
  138.6282   75.3799  221.1003 H   0  0  0  0  0  0  0  0  0  0  0  0
  141.3751   73.5921  218.7165 H   0  0  0  0  0  0  0  0  0  0  0  0
  140.1403   74.9282  218.5314 H   0  0  0  0  0  0  0  0  0  0  0  0
  142.5613   74.3917  217.0869 H   0  0  0  0  0  0  0  0  0  0  0  0
  141.1190   75.5121  216.7725 H   0  0  0  0  0  0  0  0  0  0  0  0
  143.5919   76.3429  216.9426 H   0  0  0  0  0  0  0  0  0  0  0  0
  142.0750   77.2517  217.5224 H   0  0  0  0  0  0  0  0  0  0  0  0
  144.4414   76.6649  218.8704 H   0  0  0  0  0  0  0  0  0  0  0  0
  142.8908   77.5450  219.3660 H   0  0  0  0  0  0  0  0  0  0  0  0
  143.3045   75.9955  221.0121 H   0  0  0  0  0  0  0  0  0  0  0  0
  144.0616   74.1703  218.8863 H   0  0  0  0  0  0  0  0  0  0  0  0
  145.8191   75.2505  220.1226 H   0  0  0  0  0  0  0  0  0  0  0  0
  145.1577   74.6537  221.6609 H   0  0  0  0  0  0  0  0  0  0  0  0
  146.8064   73.2641  219.7084 H   0  0  0  0  0  0  0  0  0  0  0  0
  146.2102   72.6880  221.3248 H   0  0  0  0  0  0  0  0  0  0  0  0
  143.2864   71.2445  219.9542 H   0  0  0  0  0  0  0  0  0  0  0  0
  144.2361   71.5817  221.4639 H   0  0  0  0  0  0  0  0  0  0  0  0
  142.1258   73.1500  220.3003 H   0  0  0  0  0  0  0  0  0  0  0  0
  143.0598   73.4862  221.7726 H   0  0  0  0  0  0  0  0  0  0  0  0
  139.0912   69.9915  221.8989 H   0  0  0  0  0  0  0  0  0  0  0  0
  139.1417   68.4113  223.8091 H   0  0  0  0  0  0  0  0  0  0  0  0
  139.6718   67.8751  226.0861 H   0  0  0  0  0  0  0  0  0  0  0  0
  141.4786   70.8949  228.5421 H   0  0  0  0  0  0  0  0  0  0  0  0
  141.4552   72.5357  226.6514 H   0  0  0  0  0  0  0  0  0  0  0  0
  1  2  2  0
  2  3  1  0
  3  4  1  0
  4  5  1  0
  5  6  2  0
  5  7  1  0
  7  8  1  0
  8  9  1  0
  9 10  1  0
 10 11  1  0
 11 12  1  0
 12 13  1  0
 13 14  1  0
 14 15  1  0
 15 16  1  0
 16 17  1  0
 17 18  1  0
  2 19  1  0
 19 20  2  0
 20 21  1  0
 21 22  2  0
 22 23  1  0
 23 24  2  0
 24 25  1  0
 24 26  1  0
 26 27  2  0
 27 28  1  0
 28 29  2  0
 12  7  1  0
 18 13  1  0
 29 19  1  0
 28 22  1  0
  3 30  1  0
  4 31  1  0
  4 32  1  0
  8 33  1  0
  8 34  1  0
  9 35  1  0
  9 36  1  0
 10 37  1  0
 10 38  1  0
 11 39  1  0
 11 40  1  0
 12 41  1  1
 13 42  1  0
 14 43  1  0
 14 44  1  0
 15 45  1  0
 15 46  1  0
 17 47  1  0
 17 48  1  0
 18 49  1  0
 18 50  1  0
 20 51  1  0
 21 52  1  0
 23 53  1  0
 26 54  1  0
 27 55  1  0
M  END
>  <smiles>  (24) 
O=C(NCC(=O)N1CCCCC1C1CCOCC1)c1ccc2cc(Cl)ccc2n1

>  <score_type>  (24) 
oracle

>  <origin>  (24) 
autodockgpu

>  <m_score__min__energy>  (24) 
-8.6799999999999997

>  <m_primary>  (24) 
energy

>  <rmsd>  (24) 
1.862439844887529

>  <m_score__min__rmsd>  (24) 
1.862439844887529

>  <meeko>  (24) 
{"free_energy": -8.13, "intermolecular_energy": -9.62, "internal_energy": -1.8, "cluster_size": 16, "cluster_id": 2, "rank_in_cluster": 10}

>  <energy>  (24) 
-8.21

>  <cluster_rmsd>  (24) 
1.36

>  <cluster>  (24) 
1

$$$$

     RDKit          3D

 55 58  0  0  0  0  0  0  0  0999 V2000
  138.6200   72.2820  221.0810 O   0  0  0  0  0  0  0  0  0  0  0  0
  139.4660   72.4850  222.0130 C   0  0  0  0  0  0  0  0  0  0  0  0
  140.2800   73.6540  221.9620 N   0  0  0  0  0  0  0  0  0  0  0  0
  140.0800   74.5390  220.8320 C   0  0  0  0  0  0  0  0  0  0  0  0
  140.5850   73.9690  219.5730 C   0  0  0  0  0  0  0  0  0  0  0  0
  139.9870   73.0990  218.8910 O   0  0  0  0  0  0  0  0  0  0  0  0
  141.8400   74.4320  219.0910 N   0  0  0  0  0  0  0  0  0  0  0  0
  142.0960   74.5160  217.6650 C   0  0  0  0  0  0  0  0  0  0  0  0
  142.9140   75.6850  217.2740 C   0  0  0  0  0  0  0  0  0  0  0  0
  143.1420   76.7240  218.3170 C   0  0  0  0  0  0  0  0  0  0  0  0
  143.1350   76.2960  219.7220 C   0  0  0  0  0  0  0  0  0  0  0  0
  142.9170   74.8420  219.9730 C   0  0  2  0  0  0  0  0  0  0  0  0
  144.1230   73.9770  219.8170 C   0  0  0  0  0  0  0  0  0  0  0  0
  145.1910   74.1450  220.8380 C   0  0  0  0  0  0  0  0  0  0  0  0
  146.3290   73.2120  220.4440 C   0  0  0  0  0  0  0  0  0  0  0  0
  146.0070   72.4240  219.3390 O   0  0  0  0  0  0  0  0  0  0  0  0
  144.8640   71.6600  219.5890 C   0  0  0  0  0  0  0  0  0  0  0  0
  143.6580   72.5300  219.9190 C   0  0  0  0  0  0  0  0  0  0  0  0
  139.6150   71.5470  223.1290 C   0  0  0  0  0  0  0  0  0  0  0  0
  139.1280   70.2610  222.9590 C   0  0  0  0  0  0  0  0  0  0  0  0
  139.2790   69.3980  224.0180 C   0  0  0  0  0  0  0  0  0  0  0  0
  139.8800   69.7680  225.1970 C   0  0  0  0  0  0  0  0  0  0  0  0
  140.0140   68.8790  226.2320 C   0  0  0  0  0  0  0  0  0  0  0  0
  140.6280   69.3070  227.3960 C   0  0  0  0  0  0  0  0  0  0  0  0
  140.8110   68.1890  228.7390 Cl  0  0  0  0  0  0  0  0  0  0  0  0
  141.0900   70.6010  227.5000 C   0  0  0  0  0  0  0  0  0  0  0  0
  140.9700   71.5240  226.4670 C   0  0  0  0  0  0  0  0  0  0  0  0
  140.3520   71.0660  225.3190 C   0  0  0  0  0  0  0  0  0  0  0  0
  140.1980   71.8920  224.2830 N   0  0  0  0  0  0  0  0  0  0  0  0
  140.9940   73.8710  222.7050 H   0  0  0  0  0  0  0  0  0  0  0  0
  139.0030   74.7347  220.7236 H   0  0  0  0  0  0  0  0  0  0  0  0
  140.6416   75.4641  221.0288 H   0  0  0  0  0  0  0  0  0  0  0  0
  142.6241   73.6029  217.3529 H   0  0  0  0  0  0  0  0  0  0  0  0
  141.1200   74.6274  217.1699 H   0  0  0  0  0  0  0  0  0  0  0  0
  143.8984   75.3110  216.9560 H   0  0  0  0  0  0  0  0  0  0  0  0
  142.3363   76.1901  216.4859 H   0  0  0  0  0  0  0  0  0  0  0  0
  144.1232   77.1796  218.1175 H   0  0  0  0  0  0  0  0  0  0  0  0
  142.2786   77.3998  218.2286 H   0  0  0  0  0  0  0  0  0  0  0  0
  144.1067   76.5688  220.1594 H   0  0  0  0  0  0  0  0  0  0  0  0
  142.2712   76.8029  220.1768 H   0  0  0  0  0  0  0  0  0  0  0  0
  142.6614   74.7062  221.0342 H   0  0  0  0  0  0  0  0  0  0  0  0
  144.5670   74.2661  218.8530 H   0  0  0  0  0  0  0  0  0  0  0  0
  145.5428   75.1871  220.8497 H   0  0  0  0  0  0  0  0  0  0  0  0
  144.8157   73.9060  221.8440 H   0  0  0  0  0  0  0  0  0  0  0  0
  147.2150   73.8171  220.2013 H   0  0  0  0  0  0  0  0  0  0  0  0
  146.5230   72.5396  221.2927 H   0  0  0  0  0  0  0  0  0  0  0  0
  144.6354   71.0599  218.6959 H   0  0  0  0  0  0  0  0  0  0  0  0
  145.0678   71.0174  220.4582 H   0  0  0  0  0  0  0  0  0  0  0  0
  142.8461   72.3409  219.2013 H   0  0  0  0  0  0  0  0  0  0  0  0
  143.2723   72.3077  220.9249 H   0  0  0  0  0  0  0  0  0  0  0  0
  138.6443   69.9462  222.0225 H   0  0  0  0  0  0  0  0  0  0  0  0
  138.9034   68.3690  223.9176 H   0  0  0  0  0  0  0  0  0  0  0  0
  139.6416   67.8481  226.1392 H   0  0  0  0  0  0  0  0  0  0  0  0
  141.5726   70.9161  228.4369 H   0  0  0  0  0  0  0  0  0  0  0  0
  141.3437   72.5546  226.5580 H   0  0  0  0  0  0  0  0  0  0  0  0
  1  2  2  0
  2  3  1  0
  3  4  1  0
  4  5  1  0
  5  6  2  0
  5  7  1  0
  7  8  1  0
  8  9  1  0
  9 10  1  0
 10 11  1  0
 11 12  1  0
 12 13  1  0
 13 14  1  0
 14 15  1  0
 15 16  1  0
 16 17  1  0
 17 18  1  0
  2 19  1  0
 19 20  2  0
 20 21  1  0
 21 22  2  0
 22 23  1  0
 23 24  2  0
 24 25  1  0
 24 26  1  0
 26 27  2  0
 27 28  1  0
 28 29  2  0
 12  7  1  0
 18 13  1  0
 29 19  1  0
 28 22  1  0
  3 30  1  0
  4 31  1  0
  4 32  1  0
  8 33  1  0
  8 34  1  0
  9 35  1  0
  9 36  1  0
 10 37  1  0
 10 38  1  0
 11 39  1  0
 11 40  1  0
 12 41  1  1
 13 42  1  0
 14 43  1  0
 14 44  1  0
 15 45  1  0
 15 46  1  0
 17 47  1  0
 17 48  1  0
 18 49  1  0
 18 50  1  0
 20 51  1  0
 21 52  1  0
 23 53  1  0
 26 54  1  0
 27 55  1  0
M  END
>  <smiles>  (25) 
O=C(NCC(=O)N1CCCCC1C1CCOCC1)c1ccc2cc(Cl)ccc2n1

>  <score_type>  (25) 
oracle

>  <origin>  (25) 
autodockgpu

>  <m_score__min__energy>  (25) 
-8.6799999999999997

>  <m_primary>  (25) 
energy

>  <rmsd>  (25) 
2.315620627246491

>  <m_score__min__rmsd>  (25) 
2.315620627246491

>  <meeko>  (25) 
{"free_energy": -7.99, "intermolecular_energy": -9.48, "internal_energy": -1.65, "cluster_size": 16, "cluster_id": 2, "rank_in_cluster": 12}

>  <energy>  (25) 
-8.04

>  <cluster_rmsd>  (25) 
1.14

>  <cluster>  (25) 
1

$$$$

     RDKit          3D

 55 58  0  0  0  0  0  0  0  0999 V2000
  139.9470   74.1210  222.0970 O   0  0  0  0  0  0  0  0  0  0  0  0
  139.8420   72.8660  221.9020 C   0  0  0  0  0  0  0  0  0  0  0  0
  139.6550   72.3880  220.5720 N   0  0  0  0  0  0  0  0  0  0  0  0
  139.5960   73.3850  219.5230 C   0  0  0  0  0  0  0  0  0  0  0  0
  140.6790   73.2330  218.5390 C   0  0  0  0  0  0  0  0  0  0  0  0
  140.6540   72.4420  217.5630 O   0  0  0  0  0  0  0  0  0  0  0  0
  141.8410   74.0370  218.7020 N   0  0  0  0  0  0  0  0  0  0  0  0
  142.3370   74.8460  217.6040 C   0  0  0  0  0  0  0  0  0  0  0  0
  142.8860   76.1530  218.0290 C   0  0  0  0  0  0  0  0  0  0  0  0
  142.6320   76.5630  219.4380 C   0  0  0  0  0  0  0  0  0  0  0  0
  142.4650   75.5010  220.4390 C   0  0  0  0  0  0  0  0  0  0  0  0
  142.5840   74.0990  219.9470 C   0  0  2  0  0  0  0  0  0  0  0  0
  143.9800   73.5930  219.7870 C   0  0  0  0  0  0  0  0  0  0  0  0
  144.9580   74.0190  220.8230 C   0  0  0  0  0  0  0  0  0  0  0  0
  146.3070   73.4360  220.4230 C   0  0  0  0  0  0  0  0  0  0  0  0
  146.2140   72.6140  219.2990 O   0  0  0  0  0  0  0  0  0  0  0  0
  145.3170   71.5660  219.5220 C   0  0  0  0  0  0  0  0  0  0  0  0
  143.9200   72.0720  219.8560 C   0  0  0  0  0  0  0  0  0  0  0  0
  139.9120   71.9100  223.0110 C   0  0  0  0  0  0  0  0  0  0  0  0
  139.4440   70.6250  222.7840 C   0  0  0  0  0  0  0  0  0  0  0  0
  139.5190   69.7450  223.8380 C   0  0  0  0  0  0  0  0  0  0  0  0
  140.0290   70.0980  225.0640 C   0  0  0  0  0  0  0  0  0  0  0  0
  140.0890   69.1930  226.0920 C   0  0  0  0  0  0  0  0  0  0  0  0
  140.6120   69.6030  227.3050 C   0  0  0  0  0  0  0  0  0  0  0  0
  140.6990   68.4640  228.6400 Cl  0  0  0  0  0  0  0  0  0  0  0  0
  141.0600   70.8970  227.4640 C   0  0  0  0  0  0  0  0  0  0  0  0
  141.0130   71.8370  226.4400 C   0  0  0  0  0  0  0  0  0  0  0  0
  140.4850   71.3950  225.2420 C   0  0  0  0  0  0  0  0  0  0  0  0
  140.4050   72.2370  224.2100 N   0  0  0  0  0  0  0  0  0  0  0  0
  139.5630   71.3610  220.3550 H   0  0  0  0  0  0  0  0  0  0  0  0
  138.6312   73.2928  219.0027 H   0  0  0  0  0  0  0  0  0  0  0  0
  139.7089   74.3726  219.9941 H   0  0  0  0  0  0  0  0  0  0  0  0
  143.1324   74.2854  217.0912 H   0  0  0  0  0  0  0  0  0  0  0  0
  141.4805   75.0555  216.9464 H   0  0  0  0  0  0  0  0  0  0  0  0
  143.9759   76.1190  217.8839 H   0  0  0  0  0  0  0  0  0  0  0  0
  142.3614   76.8988  217.4137 H   0  0  0  0  0  0  0  0  0  0  0  0
  143.4814   77.1847  219.7574 H   0  0  0  0  0  0  0  0  0  0  0  0
  141.6574   77.0721  219.4078 H   0  0  0  0  0  0  0  0  0  0  0  0
  143.2309   75.6492  221.2145 H   0  0  0  0  0  0  0  0  0  0  0  0
  141.4290   75.5975  220.7958 H   0  0  0  0  0  0  0  0  0  0  0  0
  142.1708   73.4254  220.7122 H   0  0  0  0  0  0  0  0  0  0  0  0
  144.3352   74.0116  218.8338 H   0  0  0  0  0  0  0  0  0  0  0  0
  145.0161   75.1168  220.8599 H   0  0  0  0  0  0  0  0  0  0  0  0
  144.6556   73.6651  221.8196 H   0  0  0  0  0  0  0  0  0  0  0  0
  146.9983   74.2624  220.2012 H   0  0  0  0  0  0  0  0  0  0  0  0
  146.6714   72.8228  221.2604 H   0  0  0  0  0  0  0  0  0  0  0  0
  145.2627   70.9460  218.6150 H   0  0  0  0  0  0  0  0  0  0  0  0
  145.6818   70.9836  220.3809 H   0  0  0  0  0  0  0  0  0  0  0  0
  143.1924   71.6873  219.1262 H   0  0  0  0  0  0  0  0  0  0  0  0
  143.6028   71.7323  220.8530 H   0  0  0  0  0  0  0  0  0  0  0  0
  139.0330   70.3242  221.8090 H   0  0  0  0  0  0  0  0  0  0  0  0
  139.1559   68.7167  223.6937 H   0  0  0  0  0  0  0  0  0  0  0  0
  139.7289   68.1627  225.9550 H   0  0  0  0  0  0  0  0  0  0  0  0
  141.4708   71.1979  228.4391 H   0  0  0  0  0  0  0  0  0  0  0  0
  141.3735   72.8674  226.5753 H   0  0  0  0  0  0  0  0  0  0  0  0
  1  2  2  0
  2  3  1  0
  3  4  1  0
  4  5  1  0
  5  6  2  0
  5  7  1  0
  7  8  1  0
  8  9  1  0
  9 10  1  0
 10 11  1  0
 11 12  1  0
 12 13  1  0
 13 14  1  0
 14 15  1  0
 15 16  1  0
 16 17  1  0
 17 18  1  0
  2 19  1  0
 19 20  2  0
 20 21  1  0
 21 22  2  0
 22 23  1  0
 23 24  2  0
 24 25  1  0
 24 26  1  0
 26 27  2  0
 27 28  1  0
 28 29  2  0
 12  7  1  0
 18 13  1  0
 29 19  1  0
 28 22  1  0
  3 30  1  0
  4 31  1  0
  4 32  1  0
  8 33  1  0
  8 34  1  0
  9 35  1  0
  9 36  1  0
 10 37  1  0
 10 38  1  0
 11 39  1  0
 11 40  1  0
 12 41  1  1
 13 42  1  0
 14 43  1  0
 14 44  1  0
 15 45  1  0
 15 46  1  0
 17 47  1  0
 17 48  1  0
 18 49  1  0
 18 50  1  0
 20 51  1  0
 21 52  1  0
 23 53  1  0
 26 54  1  0
 27 55  1  0
M  END
>  <smiles>  (26) 
O=C(NCC(=O)N1CCCCC1C1CCOCC1)c1ccc2cc(Cl)ccc2n1

>  <score_type>  (26) 
oracle

>  <origin>  (26) 
autodockgpu

>  <m_score__min__energy>  (26) 
-8.6799999999999997

>  <m_primary>  (26) 
energy

>  <rmsd>  (26) 
2.6847461107843578

>  <m_score__min__rmsd>  (26) 
2.6847461107843578

>  <meeko>  (26) 
{"free_energy": -8.46, "intermolecular_energy": -9.95, "internal_energy": -1.73, "cluster_size": 16, "cluster_id": 2, "rank_in_cluster": 6}

>  <energy>  (26) 
-7.98

>  <cluster_rmsd>  (26) 
0.95

>  <cluster>  (26) 
1

$$$$

     RDKit          3D

 55 58  0  0  0  0  0  0  0  0999 V2000
  139.9780   74.1070  222.1980 O   0  0  0  0  0  0  0  0  0  0  0  0
  139.8950   72.8540  221.9790 C   0  0  0  0  0  0  0  0  0  0  0  0
  139.7460   72.3970  220.6370 N   0  0  0  0  0  0  0  0  0  0  0  0
  139.6990   73.4120  219.6040 C   0  0  0  0  0  0  0  0  0  0  0  0
  140.7170   73.2050  218.5630 C   0  0  0  0  0  0  0  0  0  0  0  0
  140.6250   72.3720  217.6260 O   0  0  0  0  0  0  0  0  0  0  0  0
  141.8940   74.0020  218.6170 N   0  0  0  0  0  0  0  0  0  0  0  0
  142.3960   74.6570  217.4240 C   0  0  0  0  0  0  0  0  0  0  0  0
  142.9700   75.9980  217.6780 C   0  0  0  0  0  0  0  0  0  0  0  0
  142.7340   76.5850  219.0260 C   0  0  0  0  0  0  0  0  0  0  0  0
  142.5560   75.6610  220.1530 C   0  0  0  0  0  0  0  0  0  0  0  0
  142.6480   74.2050  219.8400 C   0  0  2  0  0  0  0  0  0  0  0  0
  144.0330   73.6580  219.7380 C   0  0  0  0  0  0  0  0  0  0  0  0
  144.9710   74.0300  220.8300 C   0  0  0  0  0  0  0  0  0  0  0  0
  146.3190   73.4120  220.4840 C   0  0  0  0  0  0  0  0  0  0  0  0
  146.2570   72.6190  219.3380 O   0  0  0  0  0  0  0  0  0  0  0  0
  145.3180   71.5960  219.4920 C   0  0  0  0  0  0  0  0  0  0  0  0
  143.9230   72.1390  219.7680 C   0  0  0  0  0  0  0  0  0  0  0  0
  139.9510   71.8800  223.0730 C   0  0  0  0  0  0  0  0  0  0  0  0
  139.4710   70.6040  222.8240 C   0  0  0  0  0  0  0  0  0  0  0  0
  139.5330   69.7060  223.8630 C   0  0  0  0  0  0  0  0  0  0  0  0
  140.0410   70.0330  225.0960 C   0  0  0  0  0  0  0  0  0  0  0  0
  140.0890   69.1110  226.1100 C   0  0  0  0  0  0  0  0  0  0  0  0
  140.6120   69.4960  227.3310 C   0  0  0  0  0  0  0  0  0  0  0  0
  140.6830   68.3350  228.6480 Cl  0  0  0  0  0  0  0  0  0  0  0  0
  141.0720   70.7830  227.5130 C   0  0  0  0  0  0  0  0  0  0  0  0
  141.0390   71.7390  226.5030 C   0  0  0  0  0  0  0  0  0  0  0  0
  140.5110   71.3230  225.2970 C   0  0  0  0  0  0  0  0  0  0  0  0
  140.4430   72.1820  224.2790 N   0  0  0  0  0  0  0  0  0  0  0  0
  139.6730   71.3740  220.4000 H   0  0  0  0  0  0  0  0  0  0  0  0
  138.7047   73.3909  219.1340 H   0  0  0  0  0  0  0  0  0  0  0  0
  139.9012   74.3827  220.0803 H   0  0  0  0  0  0  0  0  0  0  0  0
  143.1784   74.0223  216.9825 H   0  0  0  0  0  0  0  0  0  0  0  0
  141.5386   74.7969  216.7492 H   0  0  0  0  0  0  0  0  0  0  0  0
  144.0579   75.9275  217.5316 H   0  0  0  0  0  0  0  0  0  0  0  0
  142.4531   76.6698  216.9770 H   0  0  0  0  0  0  0  0  0  0  0  0
  143.5966   77.2261  219.2604 H   0  0  0  0  0  0  0  0  0  0  0  0
  141.7678   77.1034  218.9373 H   0  0  0  0  0  0  0  0  0  0  0  0
  143.3296   75.8919  220.9001 H   0  0  0  0  0  0  0  0  0  0  0  0
  141.5244   75.8199  220.5001 H   0  0  0  0  0  0  0  0  0  0  0  0
  142.2301   73.6391  220.6856 H   0  0  0  0  0  0  0  0  0  0  0  0
  144.4481   74.0857  218.8135 H   0  0  0  0  0  0  0  0  0  0  0  0
  145.0618   75.1244  220.8944 H   0  0  0  0  0  0  0  0  0  0  0  0
  144.6083   73.6652  221.8023 H   0  0  0  0  0  0  0  0  0  0  0  0
  147.0465   74.2199  220.3167 H   0  0  0  0  0  0  0  0  0  0  0  0
  146.6208   72.7687  221.3237 H   0  0  0  0  0  0  0  0  0  0  0  0
  145.2901   70.9978  218.5693 H   0  0  0  0  0  0  0  0  0  0  0  0
  145.6209   70.9838  220.3542 H   0  0  0  0  0  0  0  0  0  0  0  0
  143.2215   71.7940  218.9941 H   0  0  0  0  0  0  0  0  0  0  0  0
  143.5459   71.7879  220.7399 H   0  0  0  0  0  0  0  0  0  0  0  0
  139.0604   70.3234  221.8428 H   0  0  0  0  0  0  0  0  0  0  0  0
  139.1605   68.6839  223.7000 H   0  0  0  0  0  0  0  0  0  0  0  0
  139.7192   68.0866  225.9554 H   0  0  0  0  0  0  0  0  0  0  0  0
  141.4808   71.0646  228.4946 H   0  0  0  0  0  0  0  0  0  0  0  0
  141.4106   72.7630  226.6557 H   0  0  0  0  0  0  0  0  0  0  0  0
  1  2  2  0
  2  3  1  0
  3  4  1  0
  4  5  1  0
  5  6  2  0
  5  7  1  0
  7  8  1  0
  8  9  1  0
  9 10  1  0
 10 11  1  0
 11 12  1  0
 12 13  1  0
 13 14  1  0
 14 15  1  0
 15 16  1  0
 16 17  1  0
 17 18  1  0
  2 19  1  0
 19 20  2  0
 20 21  1  0
 21 22  2  0
 22 23  1  0
 23 24  2  0
 24 25  1  0
 24 26  1  0
 26 27  2  0
 27 28  1  0
 28 29  2  0
 12  7  1  0
 18 13  1  0
 29 19  1  0
 28 22  1  0
  3 30  1  0
  4 31  1  0
  4 32  1  0
  8 33  1  0
  8 34  1  0
  9 35  1  0
  9 36  1  0
 10 37  1  0
 10 38  1  0
 11 39  1  0
 11 40  1  0
 12 41  1  1
 13 42  1  0
 14 43  1  0
 14 44  1  0
 15 45  1  0
 15 46  1  0
 17 47  1  0
 17 48  1  0
 18 49  1  0
 18 50  1  0
 20 51  1  0
 21 52  1  0
 23 53  1  0
 26 54  1  0
 27 55  1  0
M  END
>  <smiles>  (27) 
O=C(NCC(=O)N1CCCCC1C1CCOCC1)c1ccc2cc(Cl)ccc2n1

>  <score_type>  (27) 
oracle

>  <origin>  (27) 
autodockgpu

>  <m_score__min__energy>  (27) 
-8.6799999999999997

>  <m_primary>  (27) 
energy

>  <rmsd>  (27) 
2.6541895010782457

>  <m_score__min__rmsd>  (27) 
2.6541895010782457

>  <meeko>  (27) 
{"free_energy": -8.49, "intermolecular_energy": -9.98, "internal_energy": -1.68, "cluster_size": 16, "cluster_id": 2, "rank_in_cluster": 2}

>  <energy>  (27) 
-7.95

>  <cluster_rmsd>  (27) 
0.94

>  <cluster>  (27) 
1

$$$$

     RDKit          3D

 55 58  0  0  0  0  0  0  0  0999 V2000
  140.3170   72.4250  220.9630 O   0  0  0  0  0  0  0  0  0  0  0  0
  139.6500   72.5470  222.0430 C   0  0  0  0  0  0  0  0  0  0  0  0
  138.7390   73.6360  222.1710 N   0  0  0  0  0  0  0  0  0  0  0  0
  138.6390   74.5390  221.0440 C   0  0  0  0  0  0  0  0  0  0  0  0
  139.0070   75.9200  221.3920 C   0  0  0  0  0  0  0  0  0  0  0  0
  138.2360   76.7510  221.9370 O   0  0  0  0  0  0  0  0  0  0  0  0
  140.3290   76.3520  221.0910 N   0  0  0  0  0  0  0  0  0  0  0  0
  141.4560   75.4600  221.2830 C   0  0  0  0  0  0  0  0  0  0  0  0
  142.5060   75.5970  220.2480 C   0  0  0  0  0  0  0  0  0  0  0  0
  142.1660   76.4130  219.0510 C   0  0  0  0  0  0  0  0  0  0  0  0
  141.1820   77.4910  219.2150 C   0  0  0  0  0  0  0  0  0  0  0  0
  140.6240   77.6790  220.5850 C   0  0  2  0  0  0  0  0  0  0  0  0
  141.4850   78.4550  221.5260 C   0  0  0  0  0  0  0  0  0  0  0  0
  141.6210   79.9090  221.2470 C   0  0  0  0  0  0  0  0  0  0  0  0
  142.5780   80.4710  222.2900 C   0  0  0  0  0  0  0  0  0  0  0  0
  142.9530   79.5120  223.2330 O   0  0  0  0  0  0  0  0  0  0  0  0
  141.8320   78.9900  223.8840 C   0  0  0  0  0  0  0  0  0  0  0  0
  140.8580   78.3420  222.9100 C   0  0  0  0  0  0  0  0  0  0  0  0
  139.7990   71.5940  223.1470 C   0  0  0  0  0  0  0  0  0  0  0  0
  139.4070   70.2840  222.9240 C   0  0  0  0  0  0  0  0  0  0  0  0
  139.5560   69.4070  223.9720 C   0  0  0  0  0  0  0  0  0  0  0  0
  140.0660   69.7870  225.1890 C   0  0  0  0  0  0  0  0  0  0  0  0
  140.2020   68.8850  226.2130 C   0  0  0  0  0  0  0  0  0  0  0  0
  140.7220   69.3220  227.4170 C   0  0  0  0  0  0  0  0  0  0  0  0
  140.9050   68.1870  228.7460 Cl  0  0  0  0  0  0  0  0  0  0  0  0
  141.0940   70.6410  227.5730 C   0  0  0  0  0  0  0  0  0  0  0  0
  140.9700   71.5790  226.5530 C   0  0  0  0  0  0  0  0  0  0  0  0
  140.4460   71.1090  225.3640 C   0  0  0  0  0  0  0  0  0  0  0  0
  140.2950   71.9480  224.3380 N   0  0  0  0  0  0  0  0  0  0  0  0
  138.1630   73.7830  223.0410 H   0  0  0  0  0  0  0  0  0  0  0  0
  139.3109   74.1851  220.2482 H   0  0  0  0  0  0  0  0  0  0  0  0
  137.5894   74.5465  220.7149 H   0  0  0  0  0  0  0  0  0  0  0  0
  141.9052   75.6740  222.2640 H   0  0  0  0  0  0  0  0  0  0  0  0
  141.0686   74.4328  221.2142 H   0  0  0  0  0  0  0  0  0  0  0  0
  143.3851   76.0555  220.7245 H   0  0  0  0  0  0  0  0  0  0  0  0
  142.6676   74.5784  219.8654 H   0  0  0  0  0  0  0  0  0  0  0  0
  143.0986   76.8718  218.6908 H   0  0  0  0  0  0  0  0  0  0  0  0
  141.6881   75.7042  218.3587 H   0  0  0  0  0  0  0  0  0  0  0  0
  141.6661   78.4334  218.9190 H   0  0  0  0  0  0  0  0  0  0  0  0
  140.3254   77.2013  218.5887 H   0  0  0  0  0  0  0  0  0  0  0  0
  139.7236   78.3067  220.5123 H   0  0  0  0  0  0  0  0  0  0  0  0
  142.4919   78.0238  221.4245 H   0  0  0  0  0  0  0  0  0  0  0  0
  142.0284   80.0641  220.2370 H   0  0  0  0  0  0  0  0  0  0  0  0
  140.6444   80.4128  221.2961 H   0  0  0  0  0  0  0  0  0  0  0  0
  143.4809   80.8389  221.7806 H   0  0  0  0  0  0  0  0  0  0  0  0
  142.0594   81.2825  222.8216 H   0  0  0  0  0  0  0  0  0  0  0  0
  142.1634   78.2338  224.6109 H   0  0  0  0  0  0  0  0  0  0  0  0
  141.3115   79.8204  224.3835 H   0  0  0  0  0  0  0  0  0  0  0  0
  140.7061   77.2846  223.1725 H   0  0  0  0  0  0  0  0  0  0  0  0
  139.8766   78.8378  222.9422 H   0  0  0  0  0  0  0  0  0  0  0  0
  138.9966   69.9615  221.9557 H   0  0  0  0  0  0  0  0  0  0  0  0
  139.2546   68.3587  223.8300 H   0  0  0  0  0  0  0  0  0  0  0  0
  139.9033   67.8348  226.0790 H   0  0  0  0  0  0  0  0  0  0  0  0
  141.5045   70.9637  228.5412 H   0  0  0  0  0  0  0  0  0  0  0  0
  141.2703   72.6290  226.6848 H   0  0  0  0  0  0  0  0  0  0  0  0
  1  2  2  0
  2  3  1  0
  3  4  1  0
  4  5  1  0
  5  6  2  0
  5  7  1  0
  7  8  1  0
  8  9  1  0
  9 10  1  0
 10 11  1  0
 11 12  1  0
 12 13  1  0
 13 14  1  0
 14 15  1  0
 15 16  1  0
 16 17  1  0
 17 18  1  0
  2 19  1  0
 19 20  2  0
 20 21  1  0
 21 22  2  0
 22 23  1  0
 23 24  2  0
 24 25  1  0
 24 26  1  0
 26 27  2  0
 27 28  1  0
 28 29  2  0
 12  7  1  0
 18 13  1  0
 29 19  1  0
 28 22  1  0
  3 30  1  0
  4 31  1  0
  4 32  1  0
  8 33  1  0
  8 34  1  0
  9 35  1  0
  9 36  1  0
 10 37  1  0
 10 38  1  0
 11 39  1  0
 11 40  1  0
 12 41  1  6
 13 42  1  0
 14 43  1  0
 14 44  1  0
 15 45  1  0
 15 46  1  0
 17 47  1  0
 17 48  1  0
 18 49  1  0
 18 50  1  0
 20 51  1  0
 21 52  1  0
 23 53  1  0
 26 54  1  0
 27 55  1  0
M  END
>  <smiles>  (28) 
O=C(NCC(=O)N1CCCCC1C1CCOCC1)c1ccc2cc(Cl)ccc2n1

>  <score_type>  (28) 
oracle

>  <origin>  (28) 
autodockgpu

>  <m_score__min__energy>  (28) 
-8.6799999999999997

>  <m_primary>  (28) 
energy

>  <rmsd>  (28) 
2.0263149010646777

>  <m_score__min__rmsd>  (28) 
2.0263149010646777

>  <meeko>  (28) 
{"free_energy": -8.56, "intermolecular_energy": -10.05, "internal_energy": -1.55, "cluster_size": 30, "cluster_id": 1, "rank_in_cluster": 8}

>  <energy>  (28) 
-7.93

>  <cluster_rmsd>  (28) 
0.98

>  <cluster>  (28) 
1

$$$$

     RDKit          3D

 55 58  0  0  0  0  0  0  0  0999 V2000
  141.0580   73.5180  220.5210 O   0  0  0  0  0  0  0  0  0  0  0  0
  140.4200   74.3310  221.2670 C   0  0  0  0  0  0  0  0  0  0  0  0
  139.3640   73.8330  222.0840 N   0  0  0  0  0  0  0  0  0  0  0  0
  139.0890   72.4140  222.0020 C   0  0  0  0  0  0  0  0  0  0  0  0
  139.9060   71.6260  222.9380 C   0  0  0  0  0  0  0  0  0  0  0  0
  141.1630   71.6110  222.9540 O   0  0  0  0  0  0  0  0  0  0  0  0
  139.2290   70.8210  223.8950 N   0  0  0  0  0  0  0  0  0  0  0  0
  137.8310   71.0610  224.2030 C   0  0  0  0  0  0  0  0  0  0  0  0
  137.0560   69.8250  224.4500 C   0  0  0  0  0  0  0  0  0  0  0  0
  137.7200   68.5360  224.1120 C   0  0  0  0  0  0  0  0  0  0  0  0
  139.1860   68.4830  224.1810 C   0  0  0  0  0  0  0  0  0  0  0  0
  139.8770   69.7340  224.6060 C   0  0  2  0  0  0  0  0  0  0  0  0
  139.9140   69.9770  226.0780 C   0  0  0  0  0  0  0  0  0  0  0  0
  140.4300   68.8620  226.9160 C   0  0  0  0  0  0  0  0  0  0  0  0
  140.3210   69.3140  228.3670 C   0  0  0  0  0  0  0  0  0  0  0  0
  139.8810   70.6340  228.4770 O   0  0  0  0  0  0  0  0  0  0  0  0
  140.7400   71.5020  227.7990 C   0  0  0  0  0  0  0  0  0  0  0  0
  140.8450   71.1590  226.3190 C   0  0  0  0  0  0  0  0  0  0  0  0
  140.7510   75.7590  221.3020 C   0  0  0  0  0  0  0  0  0  0  0  0
  141.7060   76.2210  220.4110 C   0  0  0  0  0  0  0  0  0  0  0  0
  142.0010   77.5620  220.4600 C   0  0  0  0  0  0  0  0  0  0  0  0
  141.3930   78.4230  221.3410 C   0  0  0  0  0  0  0  0  0  0  0  0
  141.7110   79.7560  221.3620 C   0  0  0  0  0  0  0  0  0  0  0  0
  141.0670   80.5770  222.2700 C   0  0  0  0  0  0  0  0  0  0  0  0
  141.4570   82.2900  222.3190 Cl  0  0  0  0  0  0  0  0  0  0  0  0
  140.1260   80.0530  223.1300 C   0  0  0  0  0  0  0  0  0  0  0  0
  139.7810   78.7060  223.1320 C   0  0  0  0  0  0  0  0  0  0  0  0
  140.4430   77.9140  222.2130 C   0  0  0  0  0  0  0  0  0  0  0  0
  140.1680   76.6100  222.1530 N   0  0  0  0  0  0  0  0  0  0  0  0
  138.8050   74.4610  222.7190 H   0  0  0  0  0  0  0  0  0  0  0  0
  138.0268   72.2467  222.2340 H   0  0  0  0  0  0  0  0  0  0  0  0
  139.3376   72.0841  220.9825 H   0  0  0  0  0  0  0  0  0  0  0  0
  137.7768   71.6907  225.1033 H   0  0  0  0  0  0  0  0  0  0  0  0
  137.3868   71.5486  223.3227 H   0  0  0  0  0  0  0  0  0  0  0  0
  136.8043   69.7987  225.5205 H   0  0  0  0  0  0  0  0  0  0  0  0
  136.1908   69.8885  223.7736 H   0  0  0  0  0  0  0  0  0  0  0  0
  137.3311   67.7750  224.8045 H   0  0  0  0  0  0  0  0  0  0  0  0
  137.4863   68.3739  223.0494 H   0  0  0  0  0  0  0  0  0  0  0  0
  139.4587   67.6915  224.8945 H   0  0  0  0  0  0  0  0  0  0  0  0
  139.5200   68.3019  223.1487 H   0  0  0  0  0  0  0  0  0  0  0  0
  140.9435   69.6465  224.3512 H   0  0  0  0  0  0  0  0  0  0  0  0
  138.8661   70.1307  226.3753 H   0  0  0  0  0  0  0  0  0  0  0  0
  139.8262   67.9567  226.7551 H   0  0  0  0  0  0  0  0  0  0  0  0
  141.4712   68.6216  226.6549 H   0  0  0  0  0  0  0  0  0  0  0  0
  139.6087   68.6586  228.8895 H   0  0  0  0  0  0  0  0  0  0  0  0
  141.3237   69.2541  228.8153 H   0  0  0  0  0  0  0  0  0  0  0  0
  140.3592   72.5291  227.8995 H   0  0  0  0  0  0  0  0  0  0  0  0
  141.7418   71.4043  228.2426 H   0  0  0  0  0  0  0  0  0  0  0  0
  140.5332   72.0184  225.7073 H   0  0  0  0  0  0  0  0  0  0  0  0
  141.8803   70.9109  226.0421 H   0  0  0  0  0  0  0  0  0  0  0  0
  142.2040   75.5468  219.6987 H   0  0  0  0  0  0  0  0  0  0  0  0
  142.7545   77.9624  219.7658 H   0  0  0  0  0  0  0  0  0  0  0  0
  142.4630   80.1646  220.6709 H   0  0  0  0  0  0  0  0  0  0  0  0
  139.6283   80.7269  223.8428 H   0  0  0  0  0  0  0  0  0  0  0  0
  139.0284   78.2964  223.8218 H   0  0  0  0  0  0  0  0  0  0  0  0
  1  2  2  0
  2  3  1  0
  3  4  1  0
  4  5  1  0
  5  6  2  0
  5  7  1  0
  7  8  1  0
  8  9  1  0
  9 10  1  0
 10 11  1  0
 11 12  1  0
 12 13  1  0
 13 14  1  0
 14 15  1  0
 15 16  1  0
 16 17  1  0
 17 18  1  0
  2 19  1  0
 19 20  2  0
 20 21  1  0
 21 22  2  0
 22 23  1  0
 23 24  2  0
 24 25  1  0
 24 26  1  0
 26 27  2  0
 27 28  1  0
 28 29  2  0
 12  7  1  0
 18 13  1  0
 29 19  1  0
 28 22  1  0
  3 30  1  0
  4 31  1  0
  4 32  1  0
  8 33  1  0
  8 34  1  0
  9 35  1  0
  9 36  1  0
 10 37  1  0
 10 38  1  0
 11 39  1  0
 11 40  1  0
 12 41  1  6
 13 42  1  0
 14 43  1  0
 14 44  1  0
 15 45  1  0
 15 46  1  0
 17 47  1  0
 17 48  1  0
 18 49  1  0
 18 50  1  0
 20 51  1  0
 21 52  1  0
 23 53  1  0
 26 54  1  0
 27 55  1  0
M  END
>  <smiles>  (29) 
O=C(NCC(=O)N1CCCCC1C1CCOCC1)c1ccc2cc(Cl)ccc2n1

>  <score_type>  (29) 
oracle

>  <origin>  (29) 
autodockgpu

>  <m_score__min__energy>  (29) 
-8.6799999999999997

>  <m_primary>  (29) 
energy

>  <rmsd>  (29) 
8.463208623067736

>  <m_score__min__rmsd>  (29) 
8.463208623067736

>  <meeko>  (29) 
{"free_energy": -8.13, "intermolecular_energy": -9.62, "internal_energy": -1.53, "cluster_size": 4, "cluster_id": 3, "rank_in_cluster": 1}

>  <energy>  (29) 
-7.61

>  <cluster_rmsd>  (29) 
1.53

>  <cluster>  (29) 
1

$$$$

     RDKit          3D

 55 58  0  0  0  0  0  0  0  0999 V2000
  139.7680   72.1570  220.7900 O   0  0  0  0  0  0  0  0  0  0  0  0
  139.7360   72.5360  222.0070 C   0  0  0  0  0  0  0  0  0  0  0  0
  139.5770   73.9230  222.2940 N   0  0  0  0  0  0  0  0  0  0  0  0
  139.4610   74.8140  221.1580 C   0  0  0  0  0  0  0  0  0  0  0  0
  140.4620   75.8920  221.1820 C   0  0  0  0  0  0  0  0  0  0  0  0
  141.7060   75.7150  221.1420 O   0  0  0  0  0  0  0  0  0  0  0  0
  139.9930   77.2330  221.2590 N   0  0  0  0  0  0  0  0  0  0  0  0
  139.5760   77.9370  220.0610 C   0  0  0  0  0  0  0  0  0  0  0  0
  138.4140   78.8290  220.2700 C   0  0  0  0  0  0  0  0  0  0  0  0
  137.6910   78.6990  221.5650 C   0  0  0  0  0  0  0  0  0  0  0  0
  138.4550   78.2390  222.7320 C   0  0  0  0  0  0  0  0  0  0  0  0
  139.9040   77.9620  222.5100 C   0  0  2  0  0  0  0  0  0  0  0  0
  140.7950   79.1600  222.5210 C   0  0  0  0  0  0  0  0  0  0  0  0
  140.1860   80.4290  223.0010 C   0  0  0  0  0  0  0  0  0  0  0  0
  141.2530   81.5070  222.8680 C   0  0  0  0  0  0  0  0  0  0  0  0
  142.4790   80.9880  222.4500 O   0  0  0  0  0  0  0  0  0  0  0  0
  142.9340   80.0100  223.3370 C   0  0  0  0  0  0  0  0  0  0  0  0
  141.9500   78.8550  223.4670 C   0  0  0  0  0  0  0  0  0  0  0  0
  139.8580   71.5780  223.1100 C   0  0  0  0  0  0  0  0  0  0  0  0
  139.4490   70.2740  222.8790 C   0  0  0  0  0  0  0  0  0  0  0  0
  139.5730   69.3930  223.9270 C   0  0  0  0  0  0  0  0  0  0  0  0
  140.0730   69.7610  225.1510 C   0  0  0  0  0  0  0  0  0  0  0  0
  140.1830   68.8550  226.1740 C   0  0  0  0  0  0  0  0  0  0  0  0
  140.6950   69.2820  227.3860 C   0  0  0  0  0  0  0  0  0  0  0  0
  140.8440   68.1410  228.7130 Cl  0  0  0  0  0  0  0  0  0  0  0  0
  141.0830   70.5940  227.5490 C   0  0  0  0  0  0  0  0  0  0  0  0
  140.9850   71.5370  226.5310 C   0  0  0  0  0  0  0  0  0  0  0  0
  140.4700   71.0780  225.3340 C   0  0  0  0  0  0  0  0  0  0  0  0
  140.3440   71.9210  224.3080 N   0  0  0  0  0  0  0  0  0  0  0  0
  139.5430   74.2890  223.2810 H   0  0  0  0  0  0  0  0  0  0  0  0
  139.5947   74.2291  220.2360 H   0  0  0  0  0  0  0  0  0  0  0  0
  138.4661   75.2812  221.2003 H   0  0  0  0  0  0  0  0  0  0  0  0
  140.4204   78.5445  219.7034 H   0  0  0  0  0  0  0  0  0  0  0  0
  139.2688   77.1744  219.3302 H   0  0  0  0  0  0  0  0  0  0  0  0
  138.7725   79.8660  220.1919 H   0  0  0  0  0  0  0  0  0  0  0  0
  137.6836   78.5341  219.5022 H   0  0  0  0  0  0  0  0  0  0  0  0
  137.2791   79.6887  221.8117 H   0  0  0  0  0  0  0  0  0  0  0  0
  136.9485   77.9065  221.3897 H   0  0  0  0  0  0  0  0  0  0  0  0
  138.3778   79.0138  223.5090 H   0  0  0  0  0  0  0  0  0  0  0  0
  138.0117   77.2708  223.0079 H   0  0  0  0  0  0  0  0  0  0  0  0
  140.2816   77.3767  223.3614 H   0  0  0  0  0  0  0  0  0  0  0  0
  141.0737   79.3275  221.4702 H   0  0  0  0  0  0  0  0  0  0  0  0
  139.3104   80.6850  222.3864 H   0  0  0  0  0  0  0  0  0  0  0  0
  139.8479   80.3349  224.0435 H   0  0  0  0  0  0  0  0  0  0  0  0
  140.9144   82.2514  222.1323 H   0  0  0  0  0  0  0  0  0  0  0  0
  141.3993   81.9607  223.8593 H   0  0  0  0  0  0  0  0  0  0  0  0
  143.8948   79.6185  222.9715 H   0  0  0  0  0  0  0  0  0  0  0  0
  143.0446   80.4750  224.3277 H   0  0  0  0  0  0  0  0  0  0  0  0
  142.4346   77.9094  223.1822 H   0  0  0  0  0  0  0  0  0  0  0  0
  141.5970   78.7487  224.5034 H   0  0  0  0  0  0  0  0  0  0  0  0
  139.0452   69.9596  221.9053 H   0  0  0  0  0  0  0  0  0  0  0  0
  139.2583   68.3495  223.7783 H   0  0  0  0  0  0  0  0  0  0  0  0
  139.8704   67.8097  226.0339 H   0  0  0  0  0  0  0  0  0  0  0  0
  141.4863   70.9083  228.5229 H   0  0  0  0  0  0  0  0  0  0  0  0
  141.2979   72.5823  226.6703 H   0  0  0  0  0  0  0  0  0  0  0  0
  1  2  2  0
  2  3  1  0
  3  4  1  0
  4  5  1  0
  5  6  2  0
  5  7  1  0
  7  8  1  0
  8  9  1  0
  9 10  1  0
 10 11  1  0
 11 12  1  0
 12 13  1  0
 13 14  1  0
 14 15  1  0
 15 16  1  0
 16 17  1  0
 17 18  1  0
  2 19  1  0
 19 20  2  0
 20 21  1  0
 21 22  2  0
 22 23  1  0
 23 24  2  0
 24 25  1  0
 24 26  1  0
 26 27  2  0
 27 28  1  0
 28 29  2  0
 12  7  1  0
 18 13  1  0
 29 19  1  0
 28 22  1  0
  3 30  1  0
  4 31  1  0
  4 32  1  0
  8 33  1  0
  8 34  1  0
  9 35  1  0
  9 36  1  0
 10 37  1  0
 10 38  1  0
 11 39  1  0
 11 40  1  0
 12 41  1  1
 13 42  1  0
 14 43  1  0
 14 44  1  0
 15 45  1  0
 15 46  1  0
 17 47  1  0
 17 48  1  0
 18 49  1  0
 18 50  1  0
 20 51  1  0
 21 52  1  0
 23 53  1  0
 26 54  1  0
 27 55  1  0
M  END
>  <smiles>  (30) 
O=C(NCC(=O)N1CCCCC1C1CCOCC1)c1ccc2cc(Cl)ccc2n1

>  <score_type>  (30) 
oracle

>  <origin>  (30) 
autodockgpu

>  <m_score__min__energy>  (30) 
-8.6799999999999997

>  <m_primary>  (30) 
energy

>  <rmsd>  (30) 
2.8367892675047868

>  <m_score__min__rmsd>  (30) 
2.8367892675047868

>  <meeko>  (30) 
{"free_energy": -8.33, "intermolecular_energy": -9.82, "internal_energy": -1.42, "cluster_size": 30, "cluster_id": 1, "rank_in_cluster": 22}

>  <energy>  (30) 
-7.5

>  <cluster_rmsd>  (30) 
1.51

>  <cluster>  (30) 
1

$$$$

     RDKit          3D

 55 58  0  0  0  0  0  0  0  0999 V2000
  139.6350   72.0040  220.7760 O   0  0  0  0  0  0  0  0  0  0  0  0
  139.6510   72.4200  221.9810 C   0  0  0  0  0  0  0  0  0  0  0  0
  139.5330   73.8180  222.2300 N   0  0  0  0  0  0  0  0  0  0  0  0
  139.4020   74.6780  221.0720 C   0  0  0  0  0  0  0  0  0  0  0  0
  140.3500   75.8030  221.0940 C   0  0  0  0  0  0  0  0  0  0  0  0
  141.5960   75.6920  220.9750 O   0  0  0  0  0  0  0  0  0  0  0  0
  139.8220   77.1130  221.2650 N   0  0  0  0  0  0  0  0  0  0  0  0
  139.3910   77.8890  220.1180 C   0  0  0  0  0  0  0  0  0  0  0  0
  138.1890   78.7130  220.3740 C   0  0  0  0  0  0  0  0  0  0  0  0
  137.4540   78.4520  221.6420 C   0  0  0  0  0  0  0  0  0  0  0  0
  138.2210   77.9370  222.7840 C   0  0  0  0  0  0  0  0  0  0  0  0
  139.6830   77.7390  222.5670 C   0  0  2  0  0  0  0  0  0  0  0  0
  140.5210   78.9690  222.6850 C   0  0  0  0  0  0  0  0  0  0  0  0
  139.9480   80.0810  223.4880 C   0  0  0  0  0  0  0  0  0  0  0  0
  140.9420   81.2330  223.4180 C   0  0  0  0  0  0  0  0  0  0  0  0
  142.1060   80.8850  222.7320 O   0  0  0  0  0  0  0  0  0  0  0  0
  142.7290   79.7880  223.3340 C   0  0  0  0  0  0  0  0  0  0  0  0
  141.8190   78.5680  223.3740 C   0  0  0  0  0  0  0  0  0  0  0  0
  139.7860   71.4920  223.1090 C   0  0  0  0  0  0  0  0  0  0  0  0
  139.3750   70.1830  222.9180 C   0  0  0  0  0  0  0  0  0  0  0  0
  139.5100   69.3300  223.9880 C   0  0  0  0  0  0  0  0  0  0  0  0
  140.0250   69.7320  225.1960 C   0  0  0  0  0  0  0  0  0  0  0  0
  140.1470   68.8540  226.2410 C   0  0  0  0  0  0  0  0  0  0  0  0
  140.6730   69.3140  227.4350 C   0  0  0  0  0  0  0  0  0  0  0  0
  140.8380   68.2090  228.7910 Cl  0  0  0  0  0  0  0  0  0  0  0  0
  141.0620   70.6300  227.5580 C   0  0  0  0  0  0  0  0  0  0  0  0
  140.9520   71.5450  226.5160 C   0  0  0  0  0  0  0  0  0  0  0  0
  140.4230   71.0530  225.3380 C   0  0  0  0  0  0  0  0  0  0  0  0
  140.2850   71.8680  224.2910 N   0  0  0  0  0  0  0  0  0  0  0  0
  139.5400   74.2140  223.2060 H   0  0  0  0  0  0  0  0  0  0  0  0
  139.5849   74.0805  220.1667 H   0  0  0  0  0  0  0  0  0  0  0  0
  138.3854   75.0981  221.0816 H   0  0  0  0  0  0  0  0  0  0  0  0
  140.2133   78.5571  219.8221 H   0  0  0  0  0  0  0  0  0  0  0  0
  139.1264   77.1723  219.3266 H   0  0  0  0  0  0  0  0  0  0  0  0
  138.5037   79.7670  220.3826 H   0  0  0  0  0  0  0  0  0  0  0  0
  137.4832   78.4493  219.5726 H   0  0  0  0  0  0  0  0  0  0  0  0
  136.9945   79.4008  221.9563 H   0  0  0  0  0  0  0  0  0  0  0  0
  136.7505   77.6438  221.3934 H   0  0  0  0  0  0  0  0  0  0  0  0
  138.0994   78.6465  223.6158 H   0  0  0  0  0  0  0  0  0  0  0  0
  137.8163   76.9327  222.9781 H   0  0  0  0  0  0  0  0  0  0  0  0
  140.0727   77.1058  223.3777 H   0  0  0  0  0  0  0  0  0  0  0  0
  140.6273   79.3500  221.6586 H   0  0  0  0  0  0  0  0  0  0  0  0
  138.9794   80.3908  223.0687 H   0  0  0  0  0  0  0  0  0  0  0  0
  139.7785   79.7691  224.5291 H   0  0  0  0  0  0  0  0  0  0  0  0
  140.4666   82.0800  222.9017 H   0  0  0  0  0  0  0  0  0  0  0  0
  141.2239   81.4983  224.4476 H   0  0  0  0  0  0  0  0  0  0  0  0
  143.6353   79.5368  222.7635 H   0  0  0  0  0  0  0  0  0  0  0  0
  142.9754   80.0629  224.3702 H   0  0  0  0  0  0  0  0  0  0  0  0
  142.2875   77.7276  222.8408 H   0  0  0  0  0  0  0  0  0  0  0  0
  141.6347   78.2450  224.4092 H   0  0  0  0  0  0  0  0  0  0  0  0
  138.9609   69.8426  221.9574 H   0  0  0  0  0  0  0  0  0  0  0  0
  139.1926   68.2832  223.8717 H   0  0  0  0  0  0  0  0  0  0  0  0
  139.8332   67.8053  226.1327 H   0  0  0  0  0  0  0  0  0  0  0  0
  141.4761   70.9707  228.5185 H   0  0  0  0  0  0  0  0  0  0  0  0
  141.2662   72.5937  226.6230 H   0  0  0  0  0  0  0  0  0  0  0  0
  1  2  2  0
  2  3  1  0
  3  4  1  0
  4  5  1  0
  5  6  2  0
  5  7  1  0
  7  8  1  0
  8  9  1  0
  9 10  1  0
 10 11  1  0
 11 12  1  0
 12 13  1  0
 13 14  1  0
 14 15  1  0
 15 16  1  0
 16 17  1  0
 17 18  1  0
  2 19  1  0
 19 20  2  0
 20 21  1  0
 21 22  2  0
 22 23  1  0
 23 24  2  0
 24 25  1  0
 24 26  1  0
 26 27  2  0
 27 28  1  0
 28 29  2  0
 12  7  1  0
 18 13  1  0
 29 19  1  0
 28 22  1  0
  3 30  1  0
  4 31  1  0
  4 32  1  0
  8 33  1  0
  8 34  1  0
  9 35  1  0
  9 36  1  0
 10 37  1  0
 10 38  1  0
 11 39  1  0
 11 40  1  0
 12 41  1  1
 13 42  1  0
 14 43  1  0
 14 44  1  0
 15 45  1  0
 15 46  1  0
 17 47  1  0
 17 48  1  0
 18 49  1  0
 18 50  1  0
 20 51  1  0
 21 52  1  0
 23 53  1  0
 26 54  1  0
 27 55  1  0
M  END
>  <smiles>  (31) 
O=C(NCC(=O)N1CCCCC1C1CCOCC1)c1ccc2cc(Cl)ccc2n1

>  <score_type>  (31) 
oracle

>  <origin>  (31) 
autodockgpu

>  <m_score__min__energy>  (31) 
-8.6799999999999997

>  <m_primary>  (31) 
energy

>  <rmsd>  (31) 
2.8415156240457895

>  <m_score__min__rmsd>  (31) 
2.8415156240457895

>  <meeko>  (31) 
{"free_energy": -8.21, "intermolecular_energy": -9.7, "internal_energy": -1.46, "cluster_size": 30, "cluster_id": 1, "rank_in_cluster": 24}

>  <energy>  (31) 
-8.5

>  <cluster_rmsd>  (31) 
0.0

>  <cluster>  (31) 
2

$$$$

     RDKit          3D

 55 58  0  0  0  0  0  0  0  0999 V2000
  140.3420   74.1190  222.0990 O   0  0  0  0  0  0  0  0  0  0  0  0
  140.0420   72.8920  221.9270 C   0  0  0  0  0  0  0  0  0  0  0  0
  139.6800   72.4480  220.6220 N   0  0  0  0  0  0  0  0  0  0  0  0
  139.6800   73.4430  219.5710 C   0  0  0  0  0  0  0  0  0  0  0  0
  140.7170   73.1940  218.5580 C   0  0  0  0  0  0  0  0  0  0  0  0
  140.6460   72.3160  217.6610 O   0  0  0  0  0  0  0  0  0  0  0  0
  141.8880   74.0010  218.5930 N   0  0  0  0  0  0  0  0  0  0  0  0
  142.3770   74.6430  217.3870 C   0  0  0  0  0  0  0  0  0  0  0  0
  142.9410   75.9920  217.6180 C   0  0  0  0  0  0  0  0  0  0  0  0
  142.7090   76.5970  218.9580 C   0  0  0  0  0  0  0  0  0  0  0  0
  142.5460   75.6870  220.1000 C   0  0  0  0  0  0  0  0  0  0  0  0
  142.6480   74.2290  219.8080 C   0  0  2  0  0  0  0  0  0  0  0  0
  144.0370   73.6920  219.7040 C   0  0  0  0  0  0  0  0  0  0  0  0
  144.9740   74.0740  220.7930 C   0  0  0  0  0  0  0  0  0  0  0  0
  146.3260   73.4650  220.4470 C   0  0  0  0  0  0  0  0  0  0  0  0
  146.2680   72.6670  219.3030 O   0  0  0  0  0  0  0  0  0  0  0  0
  145.3370   71.6380  219.4620 C   0  0  0  0  0  0  0  0  0  0  0  0
  143.9380   72.1720  219.7390 C   0  0  0  0  0  0  0  0  0  0  0  0
  140.0630   71.9360  223.0380 C   0  0  0  0  0  0  0  0  0  0  0  0
  139.5740   70.6610  222.7990 C   0  0  0  0  0  0  0  0  0  0  0  0
  139.6030   69.7800  223.8540 C   0  0  0  0  0  0  0  0  0  0  0  0
  140.0880   70.1220  225.0920 C   0  0  0  0  0  0  0  0  0  0  0  0
  140.1030   69.2170  226.1220 C   0  0  0  0  0  0  0  0  0  0  0  0
  140.6030   69.6160  227.3480 C   0  0  0  0  0  0  0  0  0  0  0  0
  140.6320   68.4760  228.6840 Cl  0  0  0  0  0  0  0  0  0  0  0  0
  141.0750   70.9000  227.5190 C   0  0  0  0  0  0  0  0  0  0  0  0
  141.0740   71.8400  226.4930 C   0  0  0  0  0  0  0  0  0  0  0  0
  140.5670   71.4100  225.2820 C   0  0  0  0  0  0  0  0  0  0  0  0
  140.5320   72.2530  224.2490 N   0  0  0  0  0  0  0  0  0  0  0  0
  139.4230   71.4450  220.4250 H   0  0  0  0  0  0  0  0  0  0  0  0
  138.6966   73.4352  219.0781 H   0  0  0  0  0  0  0  0  0  0  0  0
  139.8932   74.4177  220.0342 H   0  0  0  0  0  0  0  0  0  0  0  0
  143.1620   74.0086  216.9497 H   0  0  0  0  0  0  0  0  0  0  0  0
  141.5143   74.7658  216.7157 H   0  0  0  0  0  0  0  0  0  0  0  0
  144.0285   75.9284  217.4656 H   0  0  0  0  0  0  0  0  0  0  0  0
  142.4135   76.6490  216.9108 H   0  0  0  0  0  0  0  0  0  0  0  0
  143.5677   77.2486  219.1772 H   0  0  0  0  0  0  0  0  0  0  0  0
  141.7383   77.1067  218.8683 H   0  0  0  0  0  0  0  0  0  0  0  0
  143.3225   75.9351  220.8386 H   0  0  0  0  0  0  0  0  0  0  0  0
  141.5152   75.8423  220.4513 H   0  0  0  0  0  0  0  0  0  0  0  0
  142.2402   73.6729  220.6650 H   0  0  0  0  0  0  0  0  0  0  0  0
  144.4470   74.1198  218.7772 H   0  0  0  0  0  0  0  0  0  0  0  0
  145.0569   75.1692  220.8539 H   0  0  0  0  0  0  0  0  0  0  0  0
  144.6155   73.7093  221.7669 H   0  0  0  0  0  0  0  0  0  0  0  0
  147.0472   74.2778  220.2757 H   0  0  0  0  0  0  0  0  0  0  0  0
  146.6341   72.8269  221.2884 H   0  0  0  0  0  0  0  0  0  0  0  0
  145.3117   71.0366  218.5413 H   0  0  0  0  0  0  0  0  0  0  0  0
  145.6460   71.0308  220.3256 H   0  0  0  0  0  0  0  0  0  0  0  0
  143.2376   71.8195  218.9675 H   0  0  0  0  0  0  0  0  0  0  0  0
  143.5652   71.8212  220.7127 H   0  0  0  0  0  0  0  0  0  0  0  0
  139.1821   70.3686  221.8137 H   0  0  0  0  0  0  0  0  0  0  0  0
  139.2221   68.7596  223.7000 H   0  0  0  0  0  0  0  0  0  0  0  0
  139.7250   68.1944  225.9760 H   0  0  0  0  0  0  0  0  0  0  0  0
  141.4674   71.1926  228.5041 H   0  0  0  0  0  0  0  0  0  0  0  0
  141.4535   72.8623  226.6373 H   0  0  0  0  0  0  0  0  0  0  0  0
  1  2  2  0
  2  3  1  0
  3  4  1  0
  4  5  1  0
  5  6  2  0
  5  7  1  0
  7  8  1  0
  8  9  1  0
  9 10  1  0
 10 11  1  0
 11 12  1  0
 12 13  1  0
 13 14  1  0
 14 15  1  0
 15 16  1  0
 16 17  1  0
 17 18  1  0
  2 19  1  0
 19 20  2  0
 20 21  1  0
 21 22  2  0
 22 23  1  0
 23 24  2  0
 24 25  1  0
 24 26  1  0
 26 27  2  0
 27 28  1  0
 28 29  2  0
 12  7  1  0
 18 13  1  0
 29 19  1  0
 28 22  1  0
  3 30  1  0
  4 31  1  0
  4 32  1  0
  8 33  1  0
  8 34  1  0
  9 35  1  0
  9 36  1  0
 10 37  1  0
 10 38  1  0
 11 39  1  0
 11 40  1  0
 12 41  1  1
 13 42  1  0
 14 43  1  0
 14 44  1  0
 15 45  1  0
 15 46  1  0
 17 47  1  0
 17 48  1  0
 18 49  1  0
 18 50  1  0
 20 51  1  0
 21 52  1  0
 23 53  1  0
 26 54  1  0
 27 55  1  0
M  END
>  <smiles>  (32) 
O=C(NCC(=O)N1CCCCC1C1CCOCC1)c1ccc2cc(Cl)ccc2n1

>  <score_type>  (32) 
oracle

>  <origin>  (32) 
autodockgpu

>  <m_score__min__energy>  (32) 
-8.6799999999999997

>  <m_primary>  (32) 
energy

>  <rmsd>  (32) 
2.6579498157502677

>  <m_score__min__rmsd>  (32) 
2.6579498157502677

>  <meeko>  (32) 
{"free_energy": -8.49, "intermolecular_energy": -9.98, "internal_energy": -1.73, "cluster_size": 16, "cluster_id": 2, "rank_in_cluster": 3}

>  <energy>  (32) 
-8.49

>  <cluster_rmsd>  (32) 
0.1

>  <cluster>  (32) 
2

$$$$

     RDKit          3D

 55 58  0  0  0  0  0  0  0  0999 V2000
  140.3680   74.2110  222.3100 O   0  0  0  0  0  0  0  0  0  0  0  0
  140.1350   72.9790  222.0750 C   0  0  0  0  0  0  0  0  0  0  0  0
  139.8660   72.5720  220.7350 N   0  0  0  0  0  0  0  0  0  0  0  0
  139.8780   73.6080  219.7240 C   0  0  0  0  0  0  0  0  0  0  0  0
  140.7730   73.2910  218.6010 C   0  0  0  0  0  0  0  0  0  0  0  0
  140.5460   72.4150  217.7290 O   0  0  0  0  0  0  0  0  0  0  0  0
  141.9870   74.0250  218.4910 N   0  0  0  0  0  0  0  0  0  0  0  0
  142.4980   74.4120  217.1890 C   0  0  0  0  0  0  0  0  0  0  0  0
  143.1370   75.7470  217.1740 C   0  0  0  0  0  0  0  0  0  0  0  0
  142.9510   76.5950  218.3830 C   0  0  0  0  0  0  0  0  0  0  0  0
  142.7490   75.9160  219.6700 C   0  0  0  0  0  0  0  0  0  0  0  0
  142.7690   74.4260  219.6450 C   0  0  2  0  0  0  0  0  0  0  0  0
  144.1250   73.8030  219.6410 C   0  0  0  0  0  0  0  0  0  0  0  0
  144.9860   74.0910  220.8190 C   0  0  0  0  0  0  0  0  0  0  0  0
  146.3230   73.4050  220.5670 C   0  0  0  0  0  0  0  0  0  0  0  0
  146.3150   72.6480  219.3950 O   0  0  0  0  0  0  0  0  0  0  0  0
  145.3110   71.6770  219.4380 C   0  0  0  0  0  0  0  0  0  0  0  0
  143.9290   72.2920  219.6140 C   0  0  0  0  0  0  0  0  0  0  0  0
  140.1400   71.9810  223.1480 C   0  0  0  0  0  0  0  0  0  0  0  0
  139.6380   70.7220  222.8580 C   0  0  0  0  0  0  0  0  0  0  0  0
  139.6530   69.8010  223.8780 C   0  0  0  0  0  0  0  0  0  0  0  0
  140.1360   70.0890  225.1310 C   0  0  0  0  0  0  0  0  0  0  0  0
  140.1360   69.1450  226.1250 C   0  0  0  0  0  0  0  0  0  0  0  0
  140.6350   69.4910  227.3670 C   0  0  0  0  0  0  0  0  0  0  0  0
  140.6450   68.3000  228.6590 Cl  0  0  0  0  0  0  0  0  0  0  0  0
  141.1200   70.7620  227.5890 C   0  0  0  0  0  0  0  0  0  0  0  0
  141.1340   71.7400  226.6010 C   0  0  0  0  0  0  0  0  0  0  0  0
  140.6290   71.3630  225.3720 C   0  0  0  0  0  0  0  0  0  0  0  0
  140.6080   72.2450  224.3720 N   0  0  0  0  0  0  0  0  0  0  0  0
  139.6680   71.5680  220.4860 H   0  0  0  0  0  0  0  0  0  0  0  0
  138.8564   73.7336  219.3359 H   0  0  0  0  0  0  0  0  0  0  0  0
  140.2486   74.5300  220.1957 H   0  0  0  0  0  0  0  0  0  0  0  0
  143.2427   73.6668  216.8726 H   0  0  0  0  0  0  0  0  0  0  0  0
  141.6366   74.4600  216.5066 H   0  0  0  0  0  0  0  0  0  0  0  0
  144.2179   75.5967  217.0363 H   0  0  0  0  0  0  0  0  0  0  0  0
  142.6395   76.2944  216.3598 H   0  0  0  0  0  0  0  0  0  0  0  0
  143.8462   77.2266  218.4819 H   0  0  0  0  0  0  0  0  0  0  0  0
  142.0089   77.1333  218.2022 H   0  0  0  0  0  0  0  0  0  0  0  0
  143.5444   76.2497  220.3526 H   0  0  0  0  0  0  0  0  0  0  0  0
  141.7315   76.1886  219.9869 H   0  0  0  0  0  0  0  0  0  0  0  0
  142.3393   74.0570  220.5880 H   0  0  0  0  0  0  0  0  0  0  0  0
  144.6400   74.2304  218.7680 H   0  0  0  0  0  0  0  0  0  0  0  0
  145.1315   75.1762  220.9252 H   0  0  0  0  0  0  0  0  0  0  0  0
  144.5222   73.7222  221.7458 H   0  0  0  0  0  0  0  0  0  0  0  0
  147.1058   74.1736  220.4868 H   0  0  0  0  0  0  0  0  0  0  0  0
  146.5160   72.7228  221.4080 H   0  0  0  0  0  0  0  0  0  0  0  0
  145.3285   71.1063  218.4978 H   0  0  0  0  0  0  0  0  0  0  0  0
  145.5054   71.0256  220.3028 H   0  0  0  0  0  0  0  0  0  0  0  0
  143.2778   72.0087  218.7740 H   0  0  0  0  0  0  0  0  0  0  0  0
  143.4519   71.9373  220.5395 H   0  0  0  0  0  0  0  0  0  0  0  0
  139.2469   70.4723  221.8607 H   0  0  0  0  0  0  0  0  0  0  0  0
  139.2620   68.7915  223.6828 H   0  0  0  0  0  0  0  0  0  0  0  0
  139.7470   68.1332  225.9383 H   0  0  0  0  0  0  0  0  0  0  0  0
  141.5110   71.0121  228.5863 H   0  0  0  0  0  0  0  0  0  0  0  0
  141.5234   72.7519  226.7867 H   0  0  0  0  0  0  0  0  0  0  0  0
  1  2  2  0
  2  3  1  0
  3  4  1  0
  4  5  1  0
  5  6  2  0
  5  7  1  0
  7  8  1  0
  8  9  1  0
  9 10  1  0
 10 11  1  0
 11 12  1  0
 12 13  1  0
 13 14  1  0
 14 15  1  0
 15 16  1  0
 16 17  1  0
 17 18  1  0
  2 19  1  0
 19 20  2  0
 20 21  1  0
 21 22  2  0
 22 23  1  0
 23 24  2  0
 24 25  1  0
 24 26  1  0
 26 27  2  0
 27 28  1  0
 28 29  2  0
 12  7  1  0
 18 13  1  0
 29 19  1  0
 28 22  1  0
  3 30  1  0
  4 31  1  0
  4 32  1  0
  8 33  1  0
  8 34  1  0
  9 35  1  0
  9 36  1  0
 10 37  1  0
 10 38  1  0
 11 39  1  0
 11 40  1  0
 12 41  1  1
 13 42  1  0
 14 43  1  0
 14 44  1  0
 15 45  1  0
 15 46  1  0
 17 47  1  0
 17 48  1  0
 18 49  1  0
 18 50  1  0
 20 51  1  0
 21 52  1  0
 23 53  1  0
 26 54  1  0
 27 55  1  0
M  END
>  <smiles>  (33) 
O=C(NCC(=O)N1CCCCC1C1CCOCC1)c1ccc2cc(Cl)ccc2n1

>  <score_type>  (33) 
oracle

>  <origin>  (33) 
autodockgpu

>  <m_score__min__energy>  (33) 
-8.6799999999999997

>  <m_primary>  (33) 
energy

>  <rmsd>  (33) 
2.6610366845125513

>  <m_score__min__rmsd>  (33) 
2.6610366845125513

>  <meeko>  (33) 
{"free_energy": -8.39, "intermolecular_energy": -9.88, "internal_energy": -1.66, "cluster_size": 16, "cluster_id": 2, "rank_in_cluster": 8}

>  <energy>  (33) 
-8.49

>  <cluster_rmsd>  (33) 
0.06

>  <cluster>  (33) 
2

$$$$

     RDKit          3D

 55 58  0  0  0  0  0  0  0  0999 V2000
  140.6870   72.5370  220.9090 O   0  0  0  0  0  0  0  0  0  0  0  0
  140.0990   72.7790  222.0140 C   0  0  0  0  0  0  0  0  0  0  0  0
  139.4190   74.0220  222.1750 N   0  0  0  0  0  0  0  0  0  0  0  0
  139.4490   74.9320  221.0490 C   0  0  0  0  0  0  0  0  0  0  0  0
  140.4490   75.9990  221.2120 C   0  0  0  0  0  0  0  0  0  0  0  0
  141.6930   75.8200  221.2190 O   0  0  0  0  0  0  0  0  0  0  0  0
  139.9770   77.3310  221.3760 N   0  0  0  0  0  0  0  0  0  0  0  0
  139.3740   78.0410  220.2630 C   0  0  0  0  0  0  0  0  0  0  0  0
  138.2440   78.9120  220.6560 C   0  0  0  0  0  0  0  0  0  0  0  0
  137.7260   78.7560  222.0430 C   0  0  0  0  0  0  0  0  0  0  0  0
  138.6630   78.2970  223.0760 C   0  0  0  0  0  0  0  0  0  0  0  0
  140.0660   78.0460  222.6360 C   0  0  2  0  0  0  0  0  0  0  0  0
  140.9310   79.2580  222.5280 C   0  0  0  0  0  0  0  0  0  0  0  0
  140.3420   80.5330  223.0160 C   0  0  0  0  0  0  0  0  0  0  0  0
  141.3720   81.6240  222.7550 C   0  0  0  0  0  0  0  0  0  0  0  0
  142.5660   81.1110  222.2480 O   0  0  0  0  0  0  0  0  0  0  0  0
  143.1160   80.1720  223.1240 C   0  0  0  0  0  0  0  0  0  0  0  0
  142.1700   79.0060  223.3780 C   0  0  0  0  0  0  0  0  0  0  0  0
  140.1080   71.8110  223.1150 C   0  0  0  0  0  0  0  0  0  0  0  0
  139.5840   70.5520  222.8690 C   0  0  0  0  0  0  0  0  0  0  0  0
  139.6020   69.6600  223.9140 C   0  0  0  0  0  0  0  0  0  0  0  0
  140.1090   69.9760  225.1510 C   0  0  0  0  0  0  0  0  0  0  0  0
  140.1120   69.0600  226.1710 C   0  0  0  0  0  0  0  0  0  0  0  0
  140.6350   69.4340  227.3950 C   0  0  0  0  0  0  0  0  0  0  0  0
  140.6490   68.2800  228.7200 Cl  0  0  0  0  0  0  0  0  0  0  0  0
  141.1400   70.7040  227.5740 C   0  0  0  0  0  0  0  0  0  0  0  0
  141.1530   71.6550  226.5580 C   0  0  0  0  0  0  0  0  0  0  0  0
  140.6230   71.2490  225.3490 C   0  0  0  0  0  0  0  0  0  0  0  0
  140.5980   72.1040  224.3240 N   0  0  0  0  0  0  0  0  0  0  0  0
  138.9180   74.2730  223.0670 H   0  0  0  0  0  0  0  0  0  0  0  0
  139.6882   74.3605  220.1401 H   0  0  0  0  0  0  0  0  0  0  0  0
  138.4603   75.4090  220.9789 H   0  0  0  0  0  0  0  0  0  0  0  0
  140.1461   78.6658  219.7902 H   0  0  0  0  0  0  0  0  0  0  0  0
  138.9712   77.2813  219.5770 H   0  0  0  0  0  0  0  0  0  0  0  0
  138.5719   79.9554  220.5388 H   0  0  0  0  0  0  0  0  0  0  0  0
  137.4107   78.6140  220.0027 H   0  0  0  0  0  0  0  0  0  0  0  0
  137.3407   79.7359  222.3615 H   0  0  0  0  0  0  0  0  0  0  0  0
  136.9780   77.9527  221.9707 H   0  0  0  0  0  0  0  0  0  0  0  0
  138.6919   79.0626  223.8653 H   0  0  0  0  0  0  0  0  0  0  0  0
  138.2804   77.3189  223.4030 H   0  0  0  0  0  0  0  0  0  0  0  0
  140.5753   77.4584  223.4140 H   0  0  0  0  0  0  0  0  0  0  0  0
  141.1133   79.3925  221.4516 H   0  0  0  0  0  0  0  0  0  0  0  0
  139.4118   80.7528  222.4716 H   0  0  0  0  0  0  0  0  0  0  0  0
  140.0978   80.4698  224.0867 H   0  0  0  0  0  0  0  0  0  0  0  0
  140.9560   82.3373  222.0283 H   0  0  0  0  0  0  0  0  0  0  0  0
  141.5953   82.1140  223.7142 H   0  0  0  0  0  0  0  0  0  0  0  0
  144.0489   79.7841  222.6889 H   0  0  0  0  0  0  0  0  0  0  0  0
  143.3034   80.6730  224.0852 H   0  0  0  0  0  0  0  0  0  0  0  0
  142.6465   78.0594  223.0832 H   0  0  0  0  0  0  0  0  0  0  0  0
  141.9110   78.9302  224.4444 H   0  0  0  0  0  0  0  0  0  0  0  0
  139.1737   70.2800  221.8853 H   0  0  0  0  0  0  0  0  0  0  0  0
  139.1936   68.6513  223.7534 H   0  0  0  0  0  0  0  0  0  0  0  0
  139.7068   68.0487  226.0188 H   0  0  0  0  0  0  0  0  0  0  0  0
  141.5487   70.9765  228.5583 H   0  0  0  0  0  0  0  0  0  0  0  0
  141.5596   72.6660  226.7084 H   0  0  0  0  0  0  0  0  0  0  0  0
  1  2  2  0
  2  3  1  0
  3  4  1  0
  4  5  1  0
  5  6  2  0
  5  7  1  0
  7  8  1  0
  8  9  1  0
  9 10  1  0
 10 11  1  0
 11 12  1  0
 12 13  1  0
 13 14  1  0
 14 15  1  0
 15 16  1  0
 16 17  1  0
 17 18  1  0
  2 19  1  0
 19 20  2  0
 20 21  1  0
 21 22  2  0
 22 23  1  0
 23 24  2  0
 24 25  1  0
 24 26  1  0
 26 27  2  0
 27 28  1  0
 28 29  2  0
 12  7  1  0
 18 13  1  0
 29 19  1  0
 28 22  1  0
  3 30  1  0
  4 31  1  0
  4 32  1  0
  8 33  1  0
  8 34  1  0
  9 35  1  0
  9 36  1  0
 10 37  1  0
 10 38  1  0
 11 39  1  0
 11 40  1  0
 12 41  1  1
 13 42  1  0
 14 43  1  0
 14 44  1  0
 15 45  1  0
 15 46  1  0
 17 47  1  0
 17 48  1  0
 18 49  1  0
 18 50  1  0
 20 51  1  0
 21 52  1  0
 23 53  1  0
 26 54  1  0
 27 55  1  0
M  END
>  <smiles>  (34) 
O=C(NCC(=O)N1CCCCC1C1CCOCC1)c1ccc2cc(Cl)ccc2n1

>  <score_type>  (34) 
oracle

>  <origin>  (34) 
autodockgpu

>  <m_score__min__energy>  (34) 
-8.6799999999999997

>  <m_primary>  (34) 
energy

>  <rmsd>  (34) 
2.997094923675542

>  <m_score__min__rmsd>  (34) 
2.997094923675542

>  <meeko>  (34) 
{"free_energy": -8.46, "intermolecular_energy": -9.95, "internal_energy": -1.34, "cluster_size": 30, "cluster_id": 1, "rank_in_cluster": 17}

>  <energy>  (34) 
-8.49

>  <cluster_rmsd>  (34) 
0.07

>  <cluster>  (34) 
2

$$$$

     RDKit          3D

 55 58  0  0  0  0  0  0  0  0999 V2000
  138.9720   72.7700  220.8670 O   0  0  0  0  0  0  0  0  0  0  0  0
  138.6400   73.7410  221.6230 C   0  0  0  0  0  0  0  0  0  0  0  0
  137.4530   73.6310  222.4060 N   0  0  0  0  0  0  0  0  0  0  0  0
  136.7010   72.4000  222.2790 C   0  0  0  0  0  0  0  0  0  0  0  0
  136.6030   71.6650  223.5500 C   0  0  0  0  0  0  0  0  0  0  0  0
  135.7570   71.9000  224.4500 O   0  0  0  0  0  0  0  0  0  0  0  0
  137.5310   70.6130  223.7820 N   0  0  0  0  0  0  0  0  0  0  0  0
  137.0860   69.2320  223.8200 C   0  0  0  0  0  0  0  0  0  0  0  0
  138.0480   68.2800  223.2230 C   0  0  0  0  0  0  0  0  0  0  0  0
  139.1850   68.8640  222.4580 C   0  0  0  0  0  0  0  0  0  0  0  0
  139.6520   70.2020  222.8430 C   0  0  0  0  0  0  0  0  0  0  0  0
  138.9480   70.8480  223.9880 C   0  0  2  0  0  0  0  0  0  0  0  0
  139.3930   70.4100  225.3440 C   0  0  0  0  0  0  0  0  0  0  0  0
  140.1100   69.1090  225.4130 C   0  0  0  0  0  0  0  0  0  0  0  0
  140.4100   68.8480  226.8830 C   0  0  0  0  0  0  0  0  0  0  0  0
  140.0310   69.9170  227.6970 O   0  0  0  0  0  0  0  0  0  0  0  0
  140.6770   71.0920  227.3060 C   0  0  0  0  0  0  0  0  0  0  0  0
  140.3650   71.4620  225.8620 C   0  0  0  0  0  0  0  0  0  0  0  0
  139.4500   74.9600  221.7040 C   0  0  0  0  0  0  0  0  0  0  0  0
  140.7020   74.9410  221.1120 C   0  0  0  0  0  0  0  0  0  0  0  0
  141.4450   76.0950  221.1990 C   0  0  0  0  0  0  0  0  0  0  0  0
  140.9900   77.2230  221.8360 C   0  0  0  0  0  0  0  0  0  0  0  0
  141.7570   78.3570  221.9030 C   0  0  0  0  0  0  0  0  0  0  0  0
  141.2480   79.4640  222.5570 C   0  0  0  0  0  0  0  0  0  0  0  0
  142.2120   80.9300  222.6580 Cl  0  0  0  0  0  0  0  0  0  0  0  0
  139.9930   79.4170  223.1250 C   0  0  0  0  0  0  0  0  0  0  0  0
  139.1900   78.2820  223.0720 C   0  0  0  0  0  0  0  0  0  0  0  0
  139.7290   77.1940  222.4130 C   0  0  0  0  0  0  0  0  0  0  0  0
  139.0210   76.0670  222.3200 N   0  0  0  0  0  0  0  0  0  0  0  0
  137.1330   74.4030  223.0470 H   0  0  0  0  0  0  0  0  0  0  0  0
  135.6854   72.6414  221.9320 H   0  0  0  0  0  0  0  0  0  0  0  0
  137.2318   71.7570  221.5615 H   0  0  0  0  0  0  0  0  0  0  0  0
  136.9234   68.9484  224.8703 H   0  0  0  0  0  0  0  0  0  0  0  0
  136.1645   69.1749  223.2220 H   0  0  0  0  0  0  0  0  0  0  0  0
  138.4714   67.6783  224.0407 H   0  0  0  0  0  0  0  0  0  0  0  0
  137.4668   67.7096  222.4836 H   0  0  0  0  0  0  0  0  0  0  0  0
  140.0375   68.1765  222.5607 H   0  0  0  0  0  0  0  0  0  0  0  0
  138.7973   68.9886  221.4361 H   0  0  0  0  0  0  0  0  0  0  0  0
  140.7166   70.1212  223.1078 H   0  0  0  0  0  0  0  0  0  0  0  0
  139.4451   70.8440  221.9741 H   0  0  0  0  0  0  0  0  0  0  0  0
  139.1969   71.9195  223.9897 H   0  0  0  0  0  0  0  0  0  0  0  0
  138.4700   70.2874  225.9298 H   0  0  0  0  0  0  0  0  0  0  0  0
  139.4769   68.3060  225.0075 H   0  0  0  0  0  0  0  0  0  0  0  0
  141.0364   69.1376  224.8206 H   0  0  0  0  0  0  0  0  0  0  0  0
  139.8627   67.9487  227.2019 H   0  0  0  0  0  0  0  0  0  0  0  0
  141.4968   68.7135  226.9869 H   0  0  0  0  0  0  0  0  0  0  0  0
  140.3492   71.9123  227.9614 H   0  0  0  0  0  0  0  0  0  0  0  0
  141.7614   70.9264  227.3873 H   0  0  0  0  0  0  0  0  0  0  0  0
  139.9041   72.4597  225.8169 H   0  0  0  0  0  0  0  0  0  0  0  0
  141.2806   71.4906  225.2529 H   0  0  0  0  0  0  0  0  0  0  0  0
  141.0834   74.0467  220.5974 H   0  0  0  0  0  0  0  0  0  0  0  0
  142.4443   76.1151  220.7397 H   0  0  0  0  0  0  0  0  0  0  0  0
  142.7571   78.3859  221.4458 H   0  0  0  0  0  0  0  0  0  0  0  0
  139.6117   80.3111  223.6399 H   0  0  0  0  0  0  0  0  0  0  0  0
  138.1887   78.2528  223.5264 H   0  0  0  0  0  0  0  0  0  0  0  0
  1  2  2  0
  2  3  1  0
  3  4  1  0
  4  5  1  0
  5  6  2  0
  5  7  1  0
  7  8  1  0
  8  9  1  0
  9 10  1  0
 10 11  1  0
 11 12  1  0
 12 13  1  0
 13 14  1  0
 14 15  1  0
 15 16  1  0
 16 17  1  0
 17 18  1  0
  2 19  1  0
 19 20  2  0
 20 21  1  0
 21 22  2  0
 22 23  1  0
 23 24  2  0
 24 25  1  0
 24 26  1  0
 26 27  2  0
 27 28  1  0
 28 29  2  0
 12  7  1  0
 18 13  1  0
 29 19  1  0
 28 22  1  0
  3 30  1  0
  4 31  1  0
  4 32  1  0
  8 33  1  0
  8 34  1  0
  9 35  1  0
  9 36  1  0
 10 37  1  0
 10 38  1  0
 11 39  1  0
 11 40  1  0
 12 41  1  1
 13 42  1  0
 14 43  1  0
 14 44  1  0
 15 45  1  0
 15 46  1  0
 17 47  1  0
 17 48  1  0
 18 49  1  0
 18 50  1  0
 20 51  1  0
 21 52  1  0
 23 53  1  0
 26 54  1  0
 27 55  1  0
M  END
>  <smiles>  (35) 
O=C(NCC(=O)N1CCCCC1C1CCOCC1)c1ccc2cc(Cl)ccc2n1

>  <score_type>  (35) 
oracle

>  <origin>  (35) 
autodockgpu

>  <m_score__min__energy>  (35) 
-8.6799999999999997

>  <m_primary>  (35) 
energy

>  <rmsd>  (35) 
7.704955776877223

>  <m_score__min__rmsd>  (35) 
7.704955776877223

>  <meeko>  (35) 
{"free_energy": -7.17, "intermolecular_energy": -8.67, "internal_energy": -1.69, "cluster_size": 4, "cluster_id": 3, "rank_in_cluster": 3}

>  <energy>  (35) 
-8.47

>  <cluster_rmsd>  (35) 
0.2

>  <cluster>  (35) 
2

$$$$

     RDKit          3D

 55 58  0  0  0  0  0  0  0  0999 V2000
  140.3010   74.1340  222.1790 O   0  0  0  0  0  0  0  0  0  0  0  0
  140.0330   72.9020  221.9840 C   0  0  0  0  0  0  0  0  0  0  0  0
  139.7120   72.4680  220.6640 N   0  0  0  0  0  0  0  0  0  0  0  0
  139.7140   73.4780  219.6260 C   0  0  0  0  0  0  0  0  0  0  0  0
  140.7360   73.2280  218.5980 C   0  0  0  0  0  0  0  0  0  0  0  0
  140.6460   72.3580  217.6950 O   0  0  0  0  0  0  0  0  0  0  0  0
  141.9150   74.0240  218.6250 N   0  0  0  0  0  0  0  0  0  0  0  0
  142.4080   74.6510  217.4140 C   0  0  0  0  0  0  0  0  0  0  0  0
  142.9850   75.9960  217.6320 C   0  0  0  0  0  0  0  0  0  0  0  0
  142.7600   76.6150  218.9680 C   0  0  0  0  0  0  0  0  0  0  0  0
  142.5890   75.7180  220.1180 C   0  0  0  0  0  0  0  0  0  0  0  0
  142.6770   74.2550  219.8380 C   0  0  2  0  0  0  0  0  0  0  0  0
  144.0610   73.7040  219.7380 C   0  0  0  0  0  0  0  0  0  0  0  0
  144.9880   74.0480  220.8490 C   0  0  0  0  0  0  0  0  0  0  0  0
  146.3380   73.4320  220.5040 C   0  0  0  0  0  0  0  0  0  0  0  0
  146.2850   72.6640  219.3400 O   0  0  0  0  0  0  0  0  0  0  0  0
  145.3400   71.6420  219.4610 C   0  0  0  0  0  0  0  0  0  0  0  0
  143.9440   72.1860  219.7340 C   0  0  0  0  0  0  0  0  0  0  0  0
  140.0500   71.9310  223.0820 C   0  0  0  0  0  0  0  0  0  0  0  0
  139.5550   70.6630  222.8270 C   0  0  0  0  0  0  0  0  0  0  0  0
  139.5810   69.7680  223.8700 C   0  0  0  0  0  0  0  0  0  0  0  0
  140.0680   70.0910  225.1120 C   0  0  0  0  0  0  0  0  0  0  0  0
  140.0800   69.1720  226.1300 C   0  0  0  0  0  0  0  0  0  0  0  0
  140.5830   69.5530  227.3610 C   0  0  0  0  0  0  0  0  0  0  0  0
  140.6080   68.3950  228.6820 Cl  0  0  0  0  0  0  0  0  0  0  0  0
  141.0610   70.8320  227.5480 C   0  0  0  0  0  0  0  0  0  0  0  0
  141.0640   71.7860  226.5350 C   0  0  0  0  0  0  0  0  0  0  0  0
  140.5540   71.3740  225.3190 C   0  0  0  0  0  0  0  0  0  0  0  0
  140.5220   72.2300  224.2970 N   0  0  0  0  0  0  0  0  0  0  0  0
  139.4840   71.4630  220.4480 H   0  0  0  0  0  0  0  0  0  0  0  0
  138.7251   73.4907  219.1444 H   0  0  0  0  0  0  0  0  0  0  0  0
  139.9459   74.4433  220.0997 H   0  0  0  0  0  0  0  0  0  0  0  0
  143.1863   74.0054  216.9810 H   0  0  0  0  0  0  0  0  0  0  0  0
  141.5452   74.7766  216.7433 H   0  0  0  0  0  0  0  0  0  0  0  0
  144.0717   75.9207  217.4789 H   0  0  0  0  0  0  0  0  0  0  0  0
  142.4633   76.6519  216.9194 H   0  0  0  0  0  0  0  0  0  0  0  0
  143.6253   77.2599  219.1807 H   0  0  0  0  0  0  0  0  0  0  0  0
  141.7940   77.1327  218.8744 H   0  0  0  0  0  0  0  0  0  0  0  0
  143.3683   75.9652  220.8539 H   0  0  0  0  0  0  0  0  0  0  0  0
  141.5603   75.8866  220.4692 H   0  0  0  0  0  0  0  0  0  0  0  0
  142.2640   73.7102  220.6997 H   0  0  0  0  0  0  0  0  0  0  0  0
  144.4881   74.1493  218.8273 H   0  0  0  0  0  0  0  0  0  0  0  0
  145.0822   75.1403  220.9389 H   0  0  0  0  0  0  0  0  0  0  0  0
  144.6129   73.6634  221.8089 H   0  0  0  0  0  0  0  0  0  0  0  0
  147.0703   74.2404  220.3620 H   0  0  0  0  0  0  0  0  0  0  0  0
  146.6286   72.7696  221.3327 H   0  0  0  0  0  0  0  0  0  0  0  0
  145.3195   71.0645  218.5250 H   0  0  0  0  0  0  0  0  0  0  0  0
  145.6308   71.0091  220.3124 H   0  0  0  0  0  0  0  0  0  0  0  0
  143.2493   71.8611  218.9455 H   0  0  0  0  0  0  0  0  0  0  0  0
  143.5551   71.8159  220.6941 H   0  0  0  0  0  0  0  0  0  0  0  0
  139.1604   70.3857  221.8384 H   0  0  0  0  0  0  0  0  0  0  0  0
  139.1958   68.7514  223.7025 H   0  0  0  0  0  0  0  0  0  0  0  0
  139.6975   68.1530  225.9709 H   0  0  0  0  0  0  0  0  0  0  0  0
  141.4556   71.1095  228.5366 H   0  0  0  0  0  0  0  0  0  0  0  0
  141.4484   72.8045  226.6926 H   0  0  0  0  0  0  0  0  0  0  0  0
  1  2  2  0
  2  3  1  0
  3  4  1  0
  4  5  1  0
  5  6  2  0
  5  7  1  0
  7  8  1  0
  8  9  1  0
  9 10  1  0
 10 11  1  0
 11 12  1  0
 12 13  1  0
 13 14  1  0
 14 15  1  0
 15 16  1  0
 16 17  1  0
 17 18  1  0
  2 19  1  0
 19 20  2  0
 20 21  1  0
 21 22  2  0
 22 23  1  0
 23 24  2  0
 24 25  1  0
 24 26  1  0
 26 27  2  0
 27 28  1  0
 28 29  2  0
 12  7  1  0
 18 13  1  0
 29 19  1  0
 28 22  1  0
  3 30  1  0
  4 31  1  0
  4 32  1  0
  8 33  1  0
  8 34  1  0
  9 35  1  0
  9 36  1  0
 10 37  1  0
 10 38  1  0
 11 39  1  0
 11 40  1  0
 12 41  1  1
 13 42  1  0
 14 43  1  0
 14 44  1  0
 15 45  1  0
 15 46  1  0
 17 47  1  0
 17 48  1  0
 18 49  1  0
 18 50  1  0
 20 51  1  0
 21 52  1  0
 23 53  1  0
 26 54  1  0
 27 55  1  0
M  END
>  <smiles>  (36) 
O=C(NCC(=O)N1CCCCC1C1CCOCC1)c1ccc2cc(Cl)ccc2n1

>  <score_type>  (36) 
oracle

>  <origin>  (36) 
autodockgpu

>  <m_score__min__energy>  (36) 
-8.6799999999999997

>  <m_primary>  (36) 
energy

>  <rmsd>  (36) 
2.6565591633994443

>  <m_score__min__rmsd>  (36) 
2.6565591633994443

>  <meeko>  (36) 
{"free_energy": -8.5, "intermolecular_energy": -9.99, "internal_energy": -1.71, "cluster_size": 16, "cluster_id": 2, "rank_in_cluster": 1}

>  <energy>  (36) 
-8.46

>  <cluster_rmsd>  (36) 
0.2

>  <cluster>  (36) 
2

$$$$

     RDKit          3D

 55 58  0  0  0  0  0  0  0  0999 V2000
  140.5280   72.4390  220.7480 O   0  0  0  0  0  0  0  0  0  0  0  0
  139.9330   72.7020  221.8450 C   0  0  0  0  0  0  0  0  0  0  0  0
  139.2040   73.9220  221.9590 N   0  0  0  0  0  0  0  0  0  0  0  0
  139.1940   74.7870  220.7970 C   0  0  0  0  0  0  0  0  0  0  0  0
  139.3110   76.2100  221.1520 C   0  0  0  0  0  0  0  0  0  0  0  0
  138.3990   76.8930  221.6820 O   0  0  0  0  0  0  0  0  0  0  0  0
  140.5440   76.8640  220.8750 N   0  0  0  0  0  0  0  0  0  0  0  0
  141.7780   76.1050  220.7910 C   0  0  0  0  0  0  0  0  0  0  0  0
  142.7090   76.5970  219.7510 C   0  0  0  0  0  0  0  0  0  0  0  0
  142.1740   77.6030  218.7920 C   0  0  0  0  0  0  0  0  0  0  0  0
  141.0930   78.4830  219.2560 C   0  0  0  0  0  0  0  0  0  0  0  0
  140.6420   78.2960  220.6650 C   0  0  2  0  0  0  0  0  0  0  0  0
  141.4900   78.9540  221.7020 C   0  0  0  0  0  0  0  0  0  0  0  0
  141.5930   80.4350  221.6260 C   0  0  0  0  0  0  0  0  0  0  0  0
  142.5430   80.8690  222.7340 C   0  0  0  0  0  0  0  0  0  0  0  0
  142.9430   79.7990  223.5350 O   0  0  0  0  0  0  0  0  0  0  0  0
  141.8380   79.1680  224.1100 C   0  0  0  0  0  0  0  0  0  0  0  0
  140.8730   78.6380  223.0580 C   0  0  0  0  0  0  0  0  0  0  0  0
  139.9840   71.7800  222.9840 C   0  0  0  0  0  0  0  0  0  0  0  0
  139.5080   70.4930  222.7910 C   0  0  0  0  0  0  0  0  0  0  0  0
  139.5650   69.6450  223.8710 C   0  0  0  0  0  0  0  0  0  0  0  0
  140.0640   70.0300  225.0910 C   0  0  0  0  0  0  0  0  0  0  0  0
  140.1070   69.1560  226.1470 C   0  0  0  0  0  0  0  0  0  0  0  0
  140.6200   69.5990  227.3520 C   0  0  0  0  0  0  0  0  0  0  0  0
  140.6850   68.5000  228.7220 Cl  0  0  0  0  0  0  0  0  0  0  0  0
  141.0770   70.8930  227.4770 C   0  0  0  0  0  0  0  0  0  0  0  0
  141.0490   71.8020  226.4240 C   0  0  0  0  0  0  0  0  0  0  0  0
  140.5290   71.3280  225.2350 C   0  0  0  0  0  0  0  0  0  0  0  0
  140.4670   72.1400  224.1780 N   0  0  0  0  0  0  0  0  0  0  0  0
  138.6950   74.1880  222.8420 H   0  0  0  0  0  0  0  0  0  0  0  0
  140.0391   74.5149  220.1476 H   0  0  0  0  0  0  0  0  0  0  0  0
  138.2298   74.6485  220.2859 H   0  0  0  0  0  0  0  0  0  0  0  0
  142.2858   76.1587  221.7653 H   0  0  0  0  0  0  0  0  0  0  0  0
  141.5044   75.0755  220.5167 H   0  0  0  0  0  0  0  0  0  0  0  0
  143.5703   77.0507  220.2632 H   0  0  0  0  0  0  0  0  0  0  0  0
  142.9487   75.7150  219.1389 H   0  0  0  0  0  0  0  0  0  0  0  0
  143.0133   78.2460  218.4885 H   0  0  0  0  0  0  0  0  0  0  0  0
  141.7196   77.0056  217.9879 H   0  0  0  0  0  0  0  0  0  0  0  0
  141.4392   79.5218  219.1509 H   0  0  0  0  0  0  0  0  0  0  0  0
  140.2220   78.2269  218.6349 H   0  0  0  0  0  0  0  0  0  0  0  0
  139.6742   78.8032  220.7919 H   0  0  0  0  0  0  0  0  0  0  0  0
  142.5054   78.5633  221.5398 H   0  0  0  0  0  0  0  0  0  0  0  0
  141.9914   80.7368  220.6461 H   0  0  0  0  0  0  0  0  0  0  0  0
  140.6060   80.9053  221.7466 H   0  0  0  0  0  0  0  0  0  0  0  0
  143.4352   81.3229  222.2779 H   0  0  0  0  0  0  0  0  0  0  0  0
  142.0099   81.5882  223.3731 H   0  0  0  0  0  0  0  0  0  0  0  0
  142.1897   78.3268  224.7254 H   0  0  0  0  0  0  0  0  0  0  0  0
  141.3020   79.9101  224.7199 H   0  0  0  0  0  0  0  0  0  0  0  0
  140.7457   77.5515  223.1730 H   0  0  0  0  0  0  0  0  0  0  0  0
  139.8811   79.1024  223.1601 H   0  0  0  0  0  0  0  0  0  0  0  0
  139.1044   70.1662  221.8213 H   0  0  0  0  0  0  0  0  0  0  0  0
  139.1957   68.6155  223.7533 H   0  0  0  0  0  0  0  0  0  0  0  0
  139.7411   68.1244  226.0376 H   0  0  0  0  0  0  0  0  0  0  0  0
  141.4796   71.2200  228.4470 H   0  0  0  0  0  0  0  0  0  0  0  0
  141.4176   72.8328  226.5314 H   0  0  0  0  0  0  0  0  0  0  0  0
  1  2  2  0
  2  3  1  0
  3  4  1  0
  4  5  1  0
  5  6  2  0
  5  7  1  0
  7  8  1  0
  8  9  1  0
  9 10  1  0
 10 11  1  0
 11 12  1  0
 12 13  1  0
 13 14  1  0
 14 15  1  0
 15 16  1  0
 16 17  1  0
 17 18  1  0
  2 19  1  0
 19 20  2  0
 20 21  1  0
 21 22  2  0
 22 23  1  0
 23 24  2  0
 24 25  1  0
 24 26  1  0
 26 27  2  0
 27 28  1  0
 28 29  2  0
 12  7  1  0
 18 13  1  0
 29 19  1  0
 28 22  1  0
  3 30  1  0
  4 31  1  0
  4 32  1  0
  8 33  1  0
  8 34  1  0
  9 35  1  0
  9 36  1  0
 10 37  1  0
 10 38  1  0
 11 39  1  0
 11 40  1  0
 12 41  1  6
 13 42  1  0
 14 43  1  0
 14 44  1  0
 15 45  1  0
 15 46  1  0
 17 47  1  0
 17 48  1  0
 18 49  1  0
 18 50  1  0
 20 51  1  0
 21 52  1  0
 23 53  1  0
 26 54  1  0
 27 55  1  0
M  END
>  <smiles>  (37) 
O=C(NCC(=O)N1CCCCC1C1CCOCC1)c1ccc2cc(Cl)ccc2n1

>  <score_type>  (37) 
oracle

>  <origin>  (37) 
autodockgpu

>  <m_score__min__energy>  (37) 
-8.6799999999999997

>  <m_primary>  (37) 
energy

>  <rmsd>  (37) 
2.2029350648018426

>  <m_score__min__rmsd>  (37) 
2.2029350648018426

>  <meeko>  (37) 
{"free_energy": -8.68, "intermolecular_energy": -10.17, "internal_energy": -1.49, "cluster_size": 30, "cluster_id": 1, "rank_in_cluster": 1}

>  <energy>  (37) 
-8.43

>  <cluster_rmsd>  (37) 
0.21

>  <cluster>  (37) 
2

$$$$

     RDKit          3D

 55 58  0  0  0  0  0  0  0  0999 V2000
  140.9560   72.9130  221.3140 O   0  0  0  0  0  0  0  0  0  0  0  0
  140.1030   72.9360  222.2610 C   0  0  0  0  0  0  0  0  0  0  0  0
  139.1270   73.9760  222.2850 N   0  0  0  0  0  0  0  0  0  0  0  0
  139.1810   74.9450  221.2110 C   0  0  0  0  0  0  0  0  0  0  0  0
  140.2140   75.9700  221.4260 C   0  0  0  0  0  0  0  0  0  0  0  0
  141.4420   75.7340  221.5540 O   0  0  0  0  0  0  0  0  0  0  0  0
  139.7970   77.3280  221.4990 N   0  0  0  0  0  0  0  0  0  0  0  0
  139.2740   78.0020  220.3250 C   0  0  0  0  0  0  0  0  0  0  0  0
  138.1690   78.9410  220.6200 C   0  0  0  0  0  0  0  0  0  0  0  0
  137.5860   78.8830  221.9900 C   0  0  0  0  0  0  0  0  0  0  0  0
  138.4590   78.4410  223.0860 C   0  0  0  0  0  0  0  0  0  0  0  0
  139.8650   78.1060  222.7220 C   0  0  2  0  0  0  0  0  0  0  0  0
  140.7880   79.2720  222.5890 C   0  0  0  0  0  0  0  0  0  0  0  0
  140.2440   80.5930  223.0010 C   0  0  0  0  0  0  0  0  0  0  0  0
  141.3310   81.6230  222.7250 C   0  0  0  0  0  0  0  0  0  0  0  0
  142.5150   81.0350  222.2800 O   0  0  0  0  0  0  0  0  0  0  0  0
  142.9940   80.1130  223.2140 C   0  0  0  0  0  0  0  0  0  0  0  0
  141.9880   79.0040  223.4890 C   0  0  0  0  0  0  0  0  0  0  0  0
  140.1050   71.9210  223.3190 C   0  0  0  0  0  0  0  0  0  0  0  0
  139.6020   70.6680  223.0080 C   0  0  0  0  0  0  0  0  0  0  0  0
  139.6130   69.7310  224.0140 C   0  0  0  0  0  0  0  0  0  0  0  0
  140.0950   69.9990  225.2720 C   0  0  0  0  0  0  0  0  0  0  0  0
  140.0920   69.0390  226.2510 C   0  0  0  0  0  0  0  0  0  0  0  0
  140.5890   69.3650  227.5000 C   0  0  0  0  0  0  0  0  0  0  0  0
  140.5960   68.1540  228.7730 Cl  0  0  0  0  0  0  0  0  0  0  0  0
  141.0750   70.6320  227.7420 C   0  0  0  0  0  0  0  0  0  0  0  0
  141.0930   71.6260  226.7700 C   0  0  0  0  0  0  0  0  0  0  0  0
  140.5890   71.2680  225.5340 C   0  0  0  0  0  0  0  0  0  0  0  0
  140.5700   72.1660  224.5480 N   0  0  0  0  0  0  0  0  0  0  0  0
  138.4000   74.0420  223.0440 H   0  0  0  0  0  0  0  0  0  0  0  0
  139.3986   74.4172  220.2708 H   0  0  0  0  0  0  0  0  0  0  0  0
  138.2074   75.4556  221.1734 H   0  0  0  0  0  0  0  0  0  0  0  0
  140.0930   78.5663  219.8551 H   0  0  0  0  0  0  0  0  0  0  0  0
  138.8661   77.2239  219.6631 H   0  0  0  0  0  0  0  0  0  0  0  0
  138.5485   79.9614  220.4627 H   0  0  0  0  0  0  0  0  0  0  0  0
  137.3515   78.6443  219.9464 H   0  0  0  0  0  0  0  0  0  0  0  0
  137.2321   79.8942  222.2394 H   0  0  0  0  0  0  0  0  0  0  0  0
  136.8057   78.1102  221.9274 H   0  0  0  0  0  0  0  0  0  0  0  0
  138.4903   79.2468  223.8341 H   0  0  0  0  0  0  0  0  0  0  0  0
  138.0193   77.4995  223.4470 H   0  0  0  0  0  0  0  0  0  0  0  0
  140.3137   77.5397  223.5514 H   0  0  0  0  0  0  0  0  0  0  0  0
  141.0088   79.3488  221.5141 H   0  0  0  0  0  0  0  0  0  0  0  0
  139.3417   80.8294  222.4179 H   0  0  0  0  0  0  0  0  0  0  0  0
  139.9647   80.5899  224.0650 H   0  0  0  0  0  0  0  0  0  0  0  0
  140.9705   82.3202  221.9543 H   0  0  0  0  0  0  0  0  0  0  0  0
  141.5479   82.1453  223.6685 H   0  0  0  0  0  0  0  0  0  0  0  0
  143.9204   79.6639  222.8267 H   0  0  0  0  0  0  0  0  0  0  0  0
  143.1754   80.6486  224.1576 H   0  0  0  0  0  0  0  0  0  0  0  0
  142.4288   78.0244  223.2522 H   0  0  0  0  0  0  0  0  0  0  0  0
  141.6937   78.9892  224.5488 H   0  0  0  0  0  0  0  0  0  0  0  0
  139.2132   70.4345  222.0059 H   0  0  0  0  0  0  0  0  0  0  0  0
  139.2198   68.7256  223.8029 H   0  0  0  0  0  0  0  0  0  0  0  0
  139.7025   68.0306  226.0474 H   0  0  0  0  0  0  0  0  0  0  0  0
  141.4640   70.8660  228.7440 H   0  0  0  0  0  0  0  0  0  0  0  0
  141.4839   72.6341  226.9721 H   0  0  0  0  0  0  0  0  0  0  0  0
  1  2  2  0
  2  3  1  0
  3  4  1  0
  4  5  1  0
  5  6  2  0
  5  7  1  0
  7  8  1  0
  8  9  1  0
  9 10  1  0
 10 11  1  0
 11 12  1  0
 12 13  1  0
 13 14  1  0
 14 15  1  0
 15 16  1  0
 16 17  1  0
 17 18  1  0
  2 19  1  0
 19 20  2  0
 20 21  1  0
 21 22  2  0
 22 23  1  0
 23 24  2  0
 24 25  1  0
 24 26  1  0
 26 27  2  0
 27 28  1  0
 28 29  2  0
 12  7  1  0
 18 13  1  0
 29 19  1  0
 28 22  1  0
  3 30  1  0
  4 31  1  0
  4 32  1  0
  8 33  1  0
  8 34  1  0
  9 35  1  0
  9 36  1  0
 10 37  1  0
 10 38  1  0
 11 39  1  0
 11 40  1  0
 12 41  1  1
 13 42  1  0
 14 43  1  0
 14 44  1  0
 15 45  1  0
 15 46  1  0
 17 47  1  0
 17 48  1  0
 18 49  1  0
 18 50  1  0
 20 51  1  0
 21 52  1  0
 23 53  1  0
 26 54  1  0
 27 55  1  0
M  END
>  <smiles>  (38) 
O=C(NCC(=O)N1CCCCC1C1CCOCC1)c1ccc2cc(Cl)ccc2n1

>  <score_type>  (38) 
oracle

>  <origin>  (38) 
autodockgpu

>  <m_score__min__energy>  (38) 
-8.6799999999999997

>  <m_primary>  (38) 
energy

>  <rmsd>  (38) 
3.034124445326889

>  <m_score__min__rmsd>  (38) 
3.034124445326889

>  <meeko>  (38) 
{"free_energy": -8.52, "intermolecular_energy": -10.01, "internal_energy": -1.3, "cluster_size": 30, "cluster_id": 1, "rank_in_cluster": 10}

>  <energy>  (38) 
-8.39

>  <cluster_rmsd>  (38) 
0.23

>  <cluster>  (38) 
2

$$$$

     RDKit          3D

 55 58  0  0  0  0  0  0  0  0999 V2000
  140.2910   74.0170  222.0390 O   0  0  0  0  0  0  0  0  0  0  0  0
  139.9740   72.7910  221.8930 C   0  0  0  0  0  0  0  0  0  0  0  0
  139.6020   72.3240  220.5980 N   0  0  0  0  0  0  0  0  0  0  0  0
  139.6140   73.2980  219.5260 C   0  0  0  0  0  0  0  0  0  0  0  0
  140.7390   73.1030  218.5980 C   0  0  0  0  0  0  0  0  0  0  0  0
  140.7740   72.2410  217.6850 O   0  0  0  0  0  0  0  0  0  0  0  0
  141.8730   73.9500  218.7440 N   0  0  0  0  0  0  0  0  0  0  0  0
  142.3200   74.7780  217.6400 C   0  0  0  0  0  0  0  0  0  0  0  0
  142.8270   76.1040  218.0580 C   0  0  0  0  0  0  0  0  0  0  0  0
  142.5820   76.5010  219.4720 C   0  0  0  0  0  0  0  0  0  0  0  0
  142.4710   75.4320  220.4740 C   0  0  0  0  0  0  0  0  0  0  0  0
  142.6350   74.0360  219.9760 C   0  0  2  0  0  0  0  0  0  0  0  0
  144.0450   73.5830  219.7910 C   0  0  0  0  0  0  0  0  0  0  0  0
  145.0180   74.0180  220.8280 C   0  0  0  0  0  0  0  0  0  0  0  0
  146.3820   73.4910  220.4020 C   0  0  0  0  0  0  0  0  0  0  0  0
  146.3070   72.6940  219.2590 O   0  0  0  0  0  0  0  0  0  0  0  0
  145.4480   71.6110  219.4650 C   0  0  0  0  0  0  0  0  0  0  0  0
  144.0380   72.0600  219.8230 C   0  0  0  0  0  0  0  0  0  0  0  0
  139.9840   71.8570  223.0230 C   0  0  0  0  0  0  0  0  0  0  0  0
  139.4250   70.6040  222.8280 C   0  0  0  0  0  0  0  0  0  0  0  0
  139.4460   69.7450  223.9010 C   0  0  0  0  0  0  0  0  0  0  0  0
  139.9890   70.0870  225.1150 C   0  0  0  0  0  0  0  0  0  0  0  0
  139.9940   69.2030  226.1630 C   0  0  0  0  0  0  0  0  0  0  0  0
  140.5540   69.6010  227.3630 C   0  0  0  0  0  0  0  0  0  0  0  0
  140.5710   68.4880  228.7220 Cl  0  0  0  0  0  0  0  0  0  0  0  0
  141.0940   70.8630  227.4900 C   0  0  0  0  0  0  0  0  0  0  0  0
  141.1050   71.7810  226.4450 C   0  0  0  0  0  0  0  0  0  0  0  0
  140.5380   71.3520  225.2600 C   0  0  0  0  0  0  0  0  0  0  0  0
  140.5090   72.1750  224.2110 N   0  0  0  0  0  0  0  0  0  0  0  0
  139.3320   71.3220  220.4210 H   0  0  0  0  0  0  0  0  0  0  0  0
  138.6733   73.2132  218.9622 H   0  0  0  0  0  0  0  0  0  0  0  0
  139.7256   74.2933  219.9809 H   0  0  0  0  0  0  0  0  0  0  0  0
  143.1271   74.2480  217.1130 H   0  0  0  0  0  0  0  0  0  0  0  0
  141.4453   74.9563  216.9973 H   0  0  0  0  0  0  0  0  0  0  0  0
  143.9147   76.1113  217.8940 H   0  0  0  0  0  0  0  0  0  0  0  0
  142.2648   76.8309  217.4533 H   0  0  0  0  0  0  0  0  0  0  0  0
  143.4132   77.1530  219.7785 H   0  0  0  0  0  0  0  0  0  0  0  0
  141.5885   76.9731  219.4592 H   0  0  0  0  0  0  0  0  0  0  0  0
  143.2431   75.6077  221.2376 H   0  0  0  0  0  0  0  0  0  0  0  0
  141.4382   75.4889  220.8484 H   0  0  0  0  0  0  0  0  0  0  0  0
  142.2618   73.3449  220.7461 H   0  0  0  0  0  0  0  0  0  0  0  0
  144.3763   74.0364  218.8451 H   0  0  0  0  0  0  0  0  0  0  0  0
  145.0391   75.1160  220.8903 H   0  0  0  0  0  0  0  0  0  0  0  0
  144.7377   73.6308  221.8187 H   0  0  0  0  0  0  0  0  0  0  0  0
  147.0428   74.3457  220.1949 H   0  0  0  0  0  0  0  0  0  0  0  0
  146.7743   72.8700  221.2208 H   0  0  0  0  0  0  0  0  0  0  0  0
  145.4063   71.0109  218.5441 H   0  0  0  0  0  0  0  0  0  0  0  0
  145.8405   71.0220  220.3070 H   0  0  0  0  0  0  0  0  0  0  0  0
  143.3173   71.6683  219.0901 H   0  0  0  0  0  0  0  0  0  0  0  0
  143.7419   71.6854  220.8140 H   0  0  0  0  0  0  0  0  0  0  0  0
  138.9863   70.3114  221.8626 H   0  0  0  0  0  0  0  0  0  0  0  0
  139.0098   68.7422  223.7822 H   0  0  0  0  0  0  0  0  0  0  0  0
  139.5614   68.1978  226.0515 H   0  0  0  0  0  0  0  0  0  0  0  0
  141.5332   71.1554  228.4552 H   0  0  0  0  0  0  0  0  0  0  0  0
  141.5382   72.7861  226.5550 H   0  0  0  0  0  0  0  0  0  0  0  0
  1  2  2  0
  2  3  1  0
  3  4  1  0
  4  5  1  0
  5  6  2  0
  5  7  1  0
  7  8  1  0
  8  9  1  0
  9 10  1  0
 10 11  1  0
 11 12  1  0
 12 13  1  0
 13 14  1  0
 14 15  1  0
 15 16  1  0
 16 17  1  0
 17 18  1  0
  2 19  1  0
 19 20  2  0
 20 21  1  0
 21 22  2  0
 22 23  1  0
 23 24  2  0
 24 25  1  0
 24 26  1  0
 26 27  2  0
 27 28  1  0
 28 29  2  0
 12  7  1  0
 18 13  1  0
 29 19  1  0
 28 22  1  0
  3 30  1  0
  4 31  1  0
  4 32  1  0
  8 33  1  0
  8 34  1  0
  9 35  1  0
  9 36  1  0
 10 37  1  0
 10 38  1  0
 11 39  1  0
 11 40  1  0
 12 41  1  1
 13 42  1  0
 14 43  1  0
 14 44  1  0
 15 45  1  0
 15 46  1  0
 17 47  1  0
 17 48  1  0
 18 49  1  0
 18 50  1  0
 20 51  1  0
 21 52  1  0
 23 53  1  0
 26 54  1  0
 27 55  1  0
M  END
>  <smiles>  (39) 
O=C(NCC(=O)N1CCCCC1C1CCOCC1)c1ccc2cc(Cl)ccc2n1

>  <score_type>  (39) 
oracle

>  <origin>  (39) 
autodockgpu

>  <m_score__min__energy>  (39) 
-8.6799999999999997

>  <m_primary>  (39) 
energy

>  <rmsd>  (39) 
2.688401009894239

>  <m_score__min__rmsd>  (39) 
2.688401009894239

>  <meeko>  (39) 
{"free_energy": -8.43, "intermolecular_energy": -9.92, "internal_energy": -1.72, "cluster_size": 16, "cluster_id": 2, "rank_in_cluster": 7}

>  <energy>  (39) 
-8.26

>  <cluster_rmsd>  (39) 
0.75

>  <cluster>  (39) 
2

$$$$

     RDKit          3D

 55 58  0  0  0  0  0  0  0  0999 V2000
  138.7240   73.5480  221.7890 O   0  0  0  0  0  0  0  0  0  0  0  0
  139.8070   72.9210  222.0340 C   0  0  0  0  0  0  0  0  0  0  0  0
  140.9510   73.1790  221.2240 N   0  0  0  0  0  0  0  0  0  0  0  0
  140.7940   74.1540  220.1650 C   0  0  0  0  0  0  0  0  0  0  0  0
  141.3240   75.4770  220.5320 C   0  0  0  0  0  0  0  0  0  0  0  0
  142.5400   75.7920  220.5130 O   0  0  0  0  0  0  0  0  0  0  0  0
  140.3950   76.4740  220.9410 N   0  0  0  0  0  0  0  0  0  0  0  0
  139.5630   77.1510  219.9640 C   0  0  0  0  0  0  0  0  0  0  0  0
  138.1950   77.4410  220.4460 C   0  0  0  0  0  0  0  0  0  0  0  0
  137.7820   76.7970  221.7240 C   0  0  0  0  0  0  0  0  0  0  0  0
  138.8320   76.4860  222.7030 C   0  0  0  0  0  0  0  0  0  0  0  0
  140.2240   76.8650  222.3280 C   0  0  2  0  0  0  0  0  0  0  0  0
  140.5800   78.2990  222.5490 C   0  0  0  0  0  0  0  0  0  0  0  0
  139.5400   79.1420  223.1950 C   0  0  0  0  0  0  0  0  0  0  0  0
  140.1000   80.5570  223.2630 C   0  0  0  0  0  0  0  0  0  0  0  0
  141.4180   80.6260  222.8100 O   0  0  0  0  0  0  0  0  0  0  0  0
  142.2440   79.7780  223.5520 C   0  0  0  0  0  0  0  0  0  0  0  0
  141.7900   78.3270  223.4740 C   0  0  0  0  0  0  0  0  0  0  0  0
  139.8960   71.9460  223.1240 C   0  0  0  0  0  0  0  0  0  0  0  0
  139.4630   70.6540  222.8710 C   0  0  0  0  0  0  0  0  0  0  0  0
  139.5560   69.7560  223.9070 C   0  0  0  0  0  0  0  0  0  0  0  0
  140.0520   70.0970  225.1420 C   0  0  0  0  0  0  0  0  0  0  0  0
  140.1310   69.1750  226.1530 C   0  0  0  0  0  0  0  0  0  0  0  0
  140.6390   69.5740  227.3760 C   0  0  0  0  0  0  0  0  0  0  0  0
  140.7510   68.4120  228.6880 Cl  0  0  0  0  0  0  0  0  0  0  0  0
  141.0530   70.8750  227.5620 C   0  0  0  0  0  0  0  0  0  0  0  0
  140.9860   71.8330  226.5550 C   0  0  0  0  0  0  0  0  0  0  0  0
  140.4740   71.4020  225.3470 C   0  0  0  0  0  0  0  0  0  0  0  0
  140.3770   72.2620  224.3320 N   0  0  0  0  0  0  0  0  0  0  0  0
  141.8700   72.6890  221.3830 H   0  0  0  0  0  0  0  0  0  0  0  0
  141.3287   73.7950  219.2733 H   0  0  0  0  0  0  0  0  0  0  0  0
  139.7168   74.2676  219.9731 H   0  0  0  0  0  0  0  0  0  0  0  0
  140.0459   78.1025  219.6966 H   0  0  0  0  0  0  0  0  0  0  0  0
  139.4633   76.4740  219.1028 H   0  0  0  0  0  0  0  0  0  0  0  0
  138.1135   78.5297  220.5806 H   0  0  0  0  0  0  0  0  0  0  0  0
  137.5255   77.0192  219.6819 H   0  0  0  0  0  0  0  0  0  0  0  0
  137.0647   77.4713  222.2147 H   0  0  0  0  0  0  0  0  0  0  0  0
  137.3822   75.8169  221.4247 H   0  0  0  0  0  0  0  0  0  0  0  0
  138.5833   77.0099  223.6377 H   0  0  0  0  0  0  0  0  0  0  0  0
  138.8403   75.3889  222.7826 H   0  0  0  0  0  0  0  0  0  0  0  0
  140.9201   76.3395  222.9983 H   0  0  0  0  0  0  0  0  0  0  0  0
  140.7413   78.7193  221.5453 H   0  0  0  0  0  0  0  0  0  0  0  0
  138.6166   79.1285  222.5974 H   0  0  0  0  0  0  0  0  0  0  0  0
  139.2948   78.7659  224.1992 H   0  0  0  0  0  0  0  0  0  0  0  0
  139.4765   81.2148  222.6396 H   0  0  0  0  0  0  0  0  0  0  0  0
  140.0886   80.8738  224.3163 H   0  0  0  0  0  0  0  0  0  0  0  0
  143.2698   79.8505  223.1615 H   0  0  0  0  0  0  0  0  0  0  0  0
  142.1956   80.0928  224.6049 H   0  0  0  0  0  0  0  0  0  0  0  0
  142.5951   77.6988  223.0650 H   0  0  0  0  0  0  0  0  0  0  0  0
  141.5367   77.9364  224.4706 H   0  0  0  0  0  0  0  0  0  0  0  0
  139.0642   70.3615  221.8885 H   0  0  0  0  0  0  0  0  0  0  0  0
  139.2196   68.7220  223.7407 H   0  0  0  0  0  0  0  0  0  0  0  0
  139.7972   68.1389  225.9950 H   0  0  0  0  0  0  0  0  0  0  0  0
  141.4519   71.1676  228.5445 H   0  0  0  0  0  0  0  0  0  0  0  0
  141.3201   72.8693  226.7114 H   0  0  0  0  0  0  0  0  0  0  0  0
  1  2  2  0
  2  3  1  0
  3  4  1  0
  4  5  1  0
  5  6  2  0
  5  7  1  0
  7  8  1  0
  8  9  1  0
  9 10  1  0
 10 11  1  0
 11 12  1  0
 12 13  1  0
 13 14  1  0
 14 15  1  0
 15 16  1  0
 16 17  1  0
 17 18  1  0
  2 19  1  0
 19 20  2  0
 20 21  1  0
 21 22  2  0
 22 23  1  0
 23 24  2  0
 24 25  1  0
 24 26  1  0
 26 27  2  0
 27 28  1  0
 28 29  2  0
 12  7  1  0
 18 13  1  0
 29 19  1  0
 28 22  1  0
  3 30  1  0
  4 31  1  0
  4 32  1  0
  8 33  1  0
  8 34  1  0
  9 35  1  0
  9 36  1  0
 10 37  1  0
 10 38  1  0
 11 39  1  0
 11 40  1  0
 12 41  1  1
 13 42  1  0
 14 43  1  0
 14 44  1  0
 15 45  1  0
 15 46  1  0
 17 47  1  0
 17 48  1  0
 18 49  1  0
 18 50  1  0
 20 51  1  0
 21 52  1  0
 23 53  1  0
 26 54  1  0
 27 55  1  0
M  END
>  <smiles>  (40) 
O=C(NCC(=O)N1CCCCC1C1CCOCC1)c1ccc2cc(Cl)ccc2n1

>  <score_type>  (40) 
oracle

>  <origin>  (40) 
autodockgpu

>  <m_score__min__energy>  (40) 
-8.6799999999999997

>  <m_primary>  (40) 
energy

>  <rmsd>  (40) 
2.85491455836576

>  <m_score__min__rmsd>  (40) 
2.85491455836576

>  <meeko>  (40) 
{"free_energy": -7.61, "intermolecular_energy": -9.11, "internal_energy": -1.67, "cluster_size": 30, "cluster_id": 1, "rank_in_cluster": 29}

>  <energy>  (40) 
-8.13

>  <cluster_rmsd>  (40) 
1.32

>  <cluster>  (40) 
2

$$$$

     RDKit          3D

 55 58  0  0  0  0  0  0  0  0999 V2000
  140.1760   72.1050  220.7290 O   0  0  0  0  0  0  0  0  0  0  0  0
  139.9270   72.4790  221.9220 C   0  0  0  0  0  0  0  0  0  0  0  0
  139.5850   73.8430  222.1590 N   0  0  0  0  0  0  0  0  0  0  0  0
  139.5470   74.7160  221.0040 C   0  0  0  0  0  0  0  0  0  0  0  0
  140.7470   75.5600  220.8950 C   0  0  0  0  0  0  0  0  0  0  0  0
  140.9930   76.5520  221.6260 O   0  0  0  0  0  0  0  0  0  0  0  0
  141.6990   75.2340  219.8900 N   0  0  0  0  0  0  0  0  0  0  0  0
  141.2690   74.6740  218.6220 C   0  0  0  0  0  0  0  0  0  0  0  0
  142.0550   75.1530  217.4630 C   0  0  0  0  0  0  0  0  0  0  0  0
  142.9770   76.2970  217.7030 C   0  0  0  0  0  0  0  0  0  0  0  0
  143.5300   76.4580  219.0550 C   0  0  0  0  0  0  0  0  0  0  0  0
  143.1250   75.4380  220.0640 C   0  0  2  0  0  0  0  0  0  0  0  0
  143.8810   74.1520  220.0140 C   0  0  0  0  0  0  0  0  0  0  0  0
  145.2350   74.1600  220.6290 C   0  0  0  0  0  0  0  0  0  0  0  0
  145.8280   72.7740  220.4090 C   0  0  0  0  0  0  0  0  0  0  0  0
  144.9190   71.9010  219.8080 O   0  0  0  0  0  0  0  0  0  0  0  0
  143.7620   71.7790  220.5810 C   0  0  0  0  0  0  0  0  0  0  0  0
  143.0680   73.1190  220.7840 C   0  0  0  0  0  0  0  0  0  0  0  0
  139.9820   71.5410  223.0460 C   0  0  0  0  0  0  0  0  0  0  0  0
  139.5150   70.2530  222.8340 C   0  0  0  0  0  0  0  0  0  0  0  0
  139.5770   69.3900  223.9020 C   0  0  0  0  0  0  0  0  0  0  0  0
  140.0730   69.7600  225.1280 C   0  0  0  0  0  0  0  0  0  0  0  0
  140.1210   68.8720  226.1710 C   0  0  0  0  0  0  0  0  0  0  0  0
  140.6310   69.3000  227.3830 C   0  0  0  0  0  0  0  0  0  0  0  0
  140.7020   68.1810  228.7360 Cl  0  0  0  0  0  0  0  0  0  0  0  0
  141.0800   70.5950  227.5270 C   0  0  0  0  0  0  0  0  0  0  0  0
  141.0460   71.5190  226.4870 C   0  0  0  0  0  0  0  0  0  0  0  0
  140.5300   71.0600  225.2910 C   0  0  0  0  0  0  0  0  0  0  0  0
  140.4630   71.8860  224.2460 N   0  0  0  0  0  0  0  0  0  0  0  0
  139.3690   74.2050  223.1240 H   0  0  0  0  0  0  0  0  0  0  0  0
  139.4670   74.0981  220.0975 H   0  0  0  0  0  0  0  0  0  0  0  0
  138.6793   75.3825  221.1176 H   0  0  0  0  0  0  0  0  0  0  0  0
  141.3623   73.5793  218.6763 H   0  0  0  0  0  0  0  0  0  0  0  0
  140.2304   74.9993  218.4626 H   0  0  0  0  0  0  0  0  0  0  0  0
  142.6597   74.3090  217.0995 H   0  0  0  0  0  0  0  0  0  0  0  0
  141.3102   75.5295  216.7463 H   0  0  0  0  0  0  0  0  0  0  0  0
  143.8258   76.1851  217.0123 H   0  0  0  0  0  0  0  0  0  0  0  0
  142.3554   77.1914  217.5491 H   0  0  0  0  0  0  0  0  0  0  0  0
  144.6266   76.4305  218.9732 H   0  0  0  0  0  0  0  0  0  0  0  0
  143.1238   77.4111  219.4246 H   0  0  0  0  0  0  0  0  0  0  0  0
  143.3717   75.8214  221.0651 H   0  0  0  0  0  0  0  0  0  0  0  0
  144.0266   73.9399  218.9445 H   0  0  0  0  0  0  0  0  0  0  0  0
  145.8651   74.9221  220.1471 H   0  0  0  0  0  0  0  0  0  0  0  0
  145.1795   74.3993  221.7012 H   0  0  0  0  0  0  0  0  0  0  0  0
  146.7124   72.8657  219.7613 H   0  0  0  0  0  0  0  0  0  0  0  0
  146.0938   72.3602  221.3929 H   0  0  0  0  0  0  0  0  0  0  0  0
  143.0675   71.0924  220.0749 H   0  0  0  0  0  0  0  0  0  0  0  0
  144.0527   71.3936  221.5694 H   0  0  0  0  0  0  0  0  0  0  0  0
  142.0405   73.0771  220.3936 H   0  0  0  0  0  0  0  0  0  0  0  0
  143.0086   73.3769  221.8517 H   0  0  0  0  0  0  0  0  0  0  0  0
  139.1147   69.9373  221.8593 H   0  0  0  0  0  0  0  0  0  0  0  0
  139.2142   68.3601  223.7692 H   0  0  0  0  0  0  0  0  0  0  0  0
  139.7612   67.8400  226.0465 H   0  0  0  0  0  0  0  0  0  0  0  0
  141.4807   70.9104  228.5016 H   0  0  0  0  0  0  0  0  0  0  0  0
  141.4076   72.5506  226.6098 H   0  0  0  0  0  0  0  0  0  0  0  0
  1  2  2  0
  2  3  1  0
  3  4  1  0
  4  5  1  0
  5  6  2  0
  5  7  1  0
  7  8  1  0
  8  9  1  0
  9 10  1  0
 10 11  1  0
 11 12  1  0
 12 13  1  0
 13 14  1  0
 14 15  1  0
 15 16  1  0
 16 17  1  0
 17 18  1  0
  2 19  1  0
 19 20  2  0
 20 21  1  0
 21 22  2  0
 22 23  1  0
 23 24  2  0
 24 25  1  0
 24 26  1  0
 26 27  2  0
 27 28  1  0
 28 29  2  0
 12  7  1  0
 18 13  1  0
 29 19  1  0
 28 22  1  0
  3 30  1  0
  4 31  1  0
  4 32  1  0
  8 33  1  0
  8 34  1  0
  9 35  1  0
  9 36  1  0
 10 37  1  0
 10 38  1  0
 11 39  1  0
 11 40  1  0
 12 41  1  1
 13 42  1  0
 14 43  1  0
 14 44  1  0
 15 45  1  0
 15 46  1  0
 17 47  1  0
 17 48  1  0
 18 49  1  0
 18 50  1  0
 20 51  1  0
 21 52  1  0
 23 53  1  0
 26 54  1  0
 27 55  1  0
M  END
>  <smiles>  (41) 
O=C(NCC(=O)N1CCCCC1C1CCOCC1)c1ccc2cc(Cl)ccc2n1

>  <score_type>  (41) 
oracle

>  <origin>  (41) 
autodockgpu

>  <m_score__min__energy>  (41) 
-8.6799999999999997

>  <m_primary>  (41) 
energy

>  <rmsd>  (41) 
1.9295458513646198

>  <m_score__min__rmsd>  (41) 
1.9295458513646198

>  <meeko>  (41) 
{"free_energy": -8.05, "intermolecular_energy": -9.54, "internal_energy": -1.88, "cluster_size": 16, "cluster_id": 2, "rank_in_cluster": 11}

>  <energy>  (41) 
-8.05

>  <cluster_rmsd>  (41) 
1.35

>  <cluster>  (41) 
2

$$$$

     RDKit          3D

 55 58  0  0  0  0  0  0  0  0999 V2000
  141.0040   74.6180  221.0880 O   0  0  0  0  0  0  0  0  0  0  0  0
  139.9730   74.8850  221.7880 C   0  0  0  0  0  0  0  0  0  0  0  0
  139.0830   73.8260  222.1350 N   0  0  0  0  0  0  0  0  0  0  0  0
  139.4250   72.5030  221.6550 C   0  0  0  0  0  0  0  0  0  0  0  0
  140.1530   71.7100  222.6570 C   0  0  0  0  0  0  0  0  0  0  0  0
  141.4010   71.5610  222.6830 O   0  0  0  0  0  0  0  0  0  0  0  0
  139.3940   71.0630  223.6710 N   0  0  0  0  0  0  0  0  0  0  0  0
  138.0080   71.4240  223.8970 C   0  0  0  0  0  0  0  0  0  0  0  0
  137.1440   70.2750  224.2510 C   0  0  0  0  0  0  0  0  0  0  0  0
  137.7300   68.9170  224.0820 C   0  0  0  0  0  0  0  0  0  0  0  0
  139.1860   68.7800  224.2120 C   0  0  0  0  0  0  0  0  0  0  0  0
  139.9460   70.0250  224.5220 C   0  0  2  0  0  0  0  0  0  0  0  0
  139.9550   70.4290  225.9590 C   0  0  0  0  0  0  0  0  0  0  0  0
  140.1470   69.3370  226.9490 C   0  0  0  0  0  0  0  0  0  0  0  0
  140.0630   69.9730  228.3300 C   0  0  0  0  0  0  0  0  0  0  0  0
  139.9400   71.3620  228.2650 O   0  0  0  0  0  0  0  0  0  0  0  0
  141.0150   71.9250  227.5730 C   0  0  0  0  0  0  0  0  0  0  0  0
  141.1210   71.3900  226.1510 C   0  0  0  0  0  0  0  0  0  0  0  0
  139.6870   76.2490  222.2420 C   0  0  0  0  0  0  0  0  0  0  0  0
  140.7630   77.0960  222.4520 C   0  0  0  0  0  0  0  0  0  0  0  0
  140.4720   78.3710  222.8770 C   0  0  0  0  0  0  0  0  0  0  0  0
  139.1880   78.8070  223.0900 C   0  0  0  0  0  0  0  0  0  0  0  0
  138.9340   80.0860  223.5130 C   0  0  0  0  0  0  0  0  0  0  0  0
  137.6210   80.4710  223.7110 C   0  0  0  0  0  0  0  0  0  0  0  0
  137.2690   82.1040  224.2540 Cl  0  0  0  0  0  0  0  0  0  0  0  0
  136.5960   79.5770  223.4830 C   0  0  0  0  0  0  0  0  0  0  0  0
  136.8210   78.2740  223.0520 C   0  0  0  0  0  0  0  0  0  0  0  0
  138.1440   77.9220  222.8650 C   0  0  0  0  0  0  0  0  0  0  0  0
  138.4420   76.6890  222.4530 N   0  0  0  0  0  0  0  0  0  0  0  0
  138.2170   73.9910  222.7110 H   0  0  0  0  0  0  0  0  0  0  0  0
  138.4978   71.9729  221.3916 H   0  0  0  0  0  0  0  0  0  0  0  0
  140.0839   72.6245  220.7826 H   0  0  0  0  0  0  0  0  0  0  0  0
  137.9688   72.1542  224.7188 H   0  0  0  0  0  0  0  0  0  0  0  0
  137.6246   71.8353  222.9516 H   0  0  0  0  0  0  0  0  0  0  0  0
  136.8598   70.3856  225.3079 H   0  0  0  0  0  0  0  0  0  0  0  0
  136.3048   70.3166  223.5411 H   0  0  0  0  0  0  0  0  0  0  0  0
  137.2699   68.2644  224.8386 H   0  0  0  0  0  0  0  0  0  0  0  0
  137.5186   68.6517  223.0356 H   0  0  0  0  0  0  0  0  0  0  0  0
  139.3832   68.0584  225.0185 H   0  0  0  0  0  0  0  0  0  0  0  0
  139.5385   68.4630  223.2194 H   0  0  0  0  0  0  0  0  0  0  0  0
  141.0117   69.8430  224.3190 H   0  0  0  0  0  0  0  0  0  0  0  0
  138.9568   70.8495  226.1506 H   0  0  0  0  0  0  0  0  0  0  0  0
  139.3589   68.5784  226.8332 H   0  0  0  0  0  0  0  0  0  0  0  0
  141.1168   68.8389  226.8030 H   0  0  0  0  0  0  0  0  0  0  0  0
  139.1874   69.5642  228.8555 H   0  0  0  0  0  0  0  0  0  0  0  0
  140.9957   69.7416  228.8653 H   0  0  0  0  0  0  0  0  0  0  0  0
  140.8794   73.0159  227.5329 H   0  0  0  0  0  0  0  0  0  0  0  0
  141.9395   71.6584  228.1062 H   0  0  0  0  0  0  0  0  0  0  0  0
  141.0542   72.2168  225.4285 H   0  0  0  0  0  0  0  0  0  0  0  0
  142.0836   70.8829  225.9889 H   0  0  0  0  0  0  0  0  0  0  0  0
  141.7989   76.7650  222.2869 H   0  0  0  0  0  0  0  0  0  0  0  0
  141.3025   79.0704  223.0536 H   0  0  0  0  0  0  0  0  0  0  0  0
  139.7585   80.7920  223.6914 H   0  0  0  0  0  0  0  0  0  0  0  0
  135.5599   79.9074  223.6485 H   0  0  0  0  0  0  0  0  0  0  0  0
  135.9972   77.5678  222.8713 H   0  0  0  0  0  0  0  0  0  0  0  0
  1  2  2  0
  2  3  1  0
  3  4  1  0
  4  5  1  0
  5  6  2  0
  5  7  1  0
  7  8  1  0
  8  9  1  0
  9 10  1  0
 10 11  1  0
 11 12  1  0
 12 13  1  0
 13 14  1  0
 14 15  1  0
 15 16  1  0
 16 17  1  0
 17 18  1  0
  2 19  1  0
 19 20  2  0
 20 21  1  0
 21 22  2  0
 22 23  1  0
 23 24  2  0
 24 25  1  0
 24 26  1  0
 26 27  2  0
 27 28  1  0
 28 29  2  0
 12  7  1  0
 18 13  1  0
 29 19  1  0
 28 22  1  0
  3 30  1  0
  4 31  1  0
  4 32  1  0
  8 33  1  0
  8 34  1  0
  9 35  1  0
  9 36  1  0
 10 37  1  0
 10 38  1  0
 11 39  1  0
 11 40  1  0
 12 41  1  6
 13 42  1  0
 14 43  1  0
 14 44  1  0
 15 45  1  0
 15 46  1  0
 17 47  1  0
 17 48  1  0
 18 49  1  0
 18 50  1  0
 20 51  1  0
 21 52  1  0
 23 53  1  0
 26 54  1  0
 27 55  1  0
M  END
>  <smiles>  (42) 
O=C(NCC(=O)N1CCCCC1C1CCOCC1)c1ccc2cc(Cl)ccc2n1

>  <score_type>  (42) 
oracle

>  <origin>  (42) 
autodockgpu

>  <m_score__min__energy>  (42) 
-8.6799999999999997

>  <m_primary>  (42) 
energy

>  <rmsd>  (42) 
8.354452857079718

>  <m_score__min__rmsd>  (42) 
8.354452857079718

>  <meeko>  (42) 
{"free_energy": -7.82, "intermolecular_energy": -9.31, "internal_energy": -1.53, "cluster_size": 4, "cluster_id": 3, "rank_in_cluster": 2}

>  <energy>  (42) 
-7.99

>  <cluster_rmsd>  (42) 
1.09

>  <cluster>  (42) 
2

$$$$

     RDKit          3D

 55 58  0  0  0  0  0  0  0  0999 V2000
  140.2530   72.8030  220.7820 O   0  0  0  0  0  0  0  0  0  0  0  0
  139.9550   73.0670  221.9930 C   0  0  0  0  0  0  0  0  0  0  0  0
  139.5710   74.3970  222.3340 N   0  0  0  0  0  0  0  0  0  0  0  0
  139.5480   75.3660  221.2580 C   0  0  0  0  0  0  0  0  0  0  0  0
  140.7520   76.2100  221.2330 C   0  0  0  0  0  0  0  0  0  0  0  0
  141.8920   75.8230  220.8710 O   0  0  0  0  0  0  0  0  0  0  0  0
  140.6220   77.5650  221.6490 N   0  0  0  0  0  0  0  0  0  0  0  0
  139.3960   78.0300  222.2690 C   0  0  0  0  0  0  0  0  0  0  0  0
  139.6130   79.0160  223.3500 C   0  0  0  0  0  0  0  0  0  0  0  0
  141.0140   79.2020  223.8180 C   0  0  0  0  0  0  0  0  0  0  0  0
  142.0960   78.9480  222.8580 C   0  0  0  0  0  0  0  0  0  0  0  0
  141.6830   78.5410  221.4840 C   0  0  2  0  0  0  0  0  0  0  0  0
  141.2750   79.6580  220.5800 C   0  0  0  0  0  0  0  0  0  0  0  0
  141.4690   81.0350  221.1060 C   0  0  0  0  0  0  0  0  0  0  0  0
  140.9370   81.9910  220.0470 C   0  0  0  0  0  0  0  0  0  0  0  0
  140.5320   81.3240  218.8900 O   0  0  0  0  0  0  0  0  0  0  0  0
  141.5880   80.5900  218.3450 C   0  0  0  0  0  0  0  0  0  0  0  0
  142.1290   79.5560  219.3230 C   0  0  0  0  0  0  0  0  0  0  0  0
  139.9990   72.0370  223.0350 C   0  0  0  0  0  0  0  0  0  0  0  0
  139.5130   70.7790  222.7170 C   0  0  0  0  0  0  0  0  0  0  0  0
  139.5640   69.8270  223.7080 C   0  0  0  0  0  0  0  0  0  0  0  0
  140.0670   70.0870  224.9590 C   0  0  0  0  0  0  0  0  0  0  0  0
  140.1030   69.1130  225.9240 C   0  0  0  0  0  0  0  0  0  0  0  0
  140.6200   69.4300  227.1660 C   0  0  0  0  0  0  0  0  0  0  0  0
  140.6760   68.2010  228.4210 Cl  0  0  0  0  0  0  0  0  0  0  0  0
  141.0870   70.7020  227.4180 C   0  0  0  0  0  0  0  0  0  0  0  0
  141.0650   71.7110  226.4600 C   0  0  0  0  0  0  0  0  0  0  0  0
  140.5420   71.3610  225.2300 C   0  0  0  0  0  0  0  0  0  0  0  0
  140.4860   72.2730  224.2580 N   0  0  0  0  0  0  0  0  0  0  0  0
  139.3150   74.6700  223.3190 H   0  0  0  0  0  0  0  0  0  0  0  0
  139.4743   74.8286  220.3011 H   0  0  0  0  0  0  0  0  0  0  0  0
  138.6820   76.0246  221.4204 H   0  0  0  0  0  0  0  0  0  0  0  0
  138.7702   78.4966  221.4939 H   0  0  0  0  0  0  0  0  0  0  0  0
  138.9142   77.1530  222.7259 H   0  0  0  0  0  0  0  0  0  0  0  0
  139.2505   79.9900  222.9896 H   0  0  0  0  0  0  0  0  0  0  0  0
  139.0704   78.6147  224.2186 H   0  0  0  0  0  0  0  0  0  0  0  0
  141.1119   80.2447  224.1543 H   0  0  0  0  0  0  0  0  0  0  0  0
  141.1497   78.4373  224.5970 H   0  0  0  0  0  0  0  0  0  0  0  0
  142.6882   79.8708  222.7697 H   0  0  0  0  0  0  0  0  0  0  0  0
  142.6493   78.0879  223.2630 H   0  0  0  0  0  0  0  0  0  0  0  0
  142.5586   78.1220  220.9665 H   0  0  0  0  0  0  0  0  0  0  0  0
  140.1925   79.5329  220.4300 H   0  0  0  0  0  0  0  0  0  0  0  0
  140.9118   81.1631  222.0457 H   0  0  0  0  0  0  0  0  0  0  0  0
  142.5309   81.2307  221.3159 H   0  0  0  0  0  0  0  0  0  0  0  0
  140.0759   82.5354  220.4618 H   0  0  0  0  0  0  0  0  0  0  0  0
  141.7511   82.6782  219.7730 H   0  0  0  0  0  0  0  0  0  0  0  0
  141.2319   80.0725  217.4420 H   0  0  0  0  0  0  0  0  0  0  0  0
  142.4017   81.2910  218.1073 H   0  0  0  0  0  0  0  0  0  0  0  0
  142.0501   78.5474  218.8913 H   0  0  0  0  0  0  0  0  0  0  0  0
  143.1900   79.7396  219.5480 H   0  0  0  0  0  0  0  0  0  0  0  0
  139.1062   70.5528  221.7203 H   0  0  0  0  0  0  0  0  0  0  0  0
  139.1868   68.8170  223.4899 H   0  0  0  0  0  0  0  0  0  0  0  0
  139.7281   68.1004  225.7138 H   0  0  0  0  0  0  0  0  0  0  0  0
  141.4928   70.9283  228.4150 H   0  0  0  0  0  0  0  0  0  0  0  0
  141.4404   72.7236  226.6689 H   0  0  0  0  0  0  0  0  0  0  0  0
  1  2  2  0
  2  3  1  0
  3  4  1  0
  4  5  1  0
  5  6  2  0
  5  7  1  0
  7  8  1  0
  8  9  1  0
  9 10  1  0
 10 11  1  0
 11 12  1  0
 12 13  1  0
 13 14  1  0
 14 15  1  0
 15 16  1  0
 16 17  1  0
 17 18  1  0
  2 19  1  0
 19 20  2  0
 20 21  1  0
 21 22  2  0
 22 23  1  0
 23 24  2  0
 24 25  1  0
 24 26  1  0
 26 27  2  0
 27 28  1  0
 28 29  2  0
 12  7  1  0
 18 13  1  0
 29 19  1  0
 28 22  1  0
  3 30  1  0
  4 31  1  0
  4 32  1  0
  8 33  1  0
  8 34  1  0
  9 35  1  0
  9 36  1  0
 10 37  1  0
 10 38  1  0
 11 39  1  0
 11 40  1  0
 12 41  1  6
 13 42  1  0
 14 43  1  0
 14 44  1  0
 15 45  1  0
 15 46  1  0
 17 47  1  0
 17 48  1  0
 18 49  1  0
 18 50  1  0
 20 51  1  0
 21 52  1  0
 23 53  1  0
 26 54  1  0
 27 55  1  0
M  END
>  <smiles>  (43) 
O=C(NCC(=O)N1CCCCC1C1CCOCC1)c1ccc2cc(Cl)ccc2n1

>  <score_type>  (43) 
oracle

>  <origin>  (43) 
autodockgpu

>  <m_score__min__energy>  (43) 
-8.6799999999999997

>  <m_primary>  (43) 
energy

>  <rmsd>  (43) 
3.322613306373392

>  <m_score__min__rmsd>  (43) 
3.322613306373392

>  <meeko>  (43) 
{"free_energy": -8.3, "intermolecular_energy": -9.79, "internal_energy": -1.37, "cluster_size": 30, "cluster_id": 1, "rank_in_cluster": 23}

>  <energy>  (43) 
-7.96

>  <cluster_rmsd>  (43) 
1.08

>  <cluster>  (43) 
2

$$$$

     RDKit          3D

 55 58  0  0  0  0  0  0  0  0999 V2000
  139.1070   72.0730  220.8800 O   0  0  0  0  0  0  0  0  0  0  0  0
  139.3200   72.4770  222.0700 C   0  0  0  0  0  0  0  0  0  0  0  0
  139.3650   73.8790  222.3250 N   0  0  0  0  0  0  0  0  0  0  0  0
  139.1620   74.7540  221.1890 C   0  0  0  0  0  0  0  0  0  0  0  0
  140.2350   74.6400  220.1900 C   0  0  0  0  0  0  0  0  0  0  0  0
  140.2970   73.7510  219.3030 O   0  0  0  0  0  0  0  0  0  0  0  0
  141.2820   75.6030  220.2260 N   0  0  0  0  0  0  0  0  0  0  0  0
  142.6490   75.1950  220.4910 C   0  0  0  0  0  0  0  0  0  0  0  0
  143.6560   75.9550  219.7170 C   0  0  0  0  0  0  0  0  0  0  0  0
  143.1460   76.8260  218.6220 C   0  0  0  0  0  0  0  0  0  0  0  0
  141.7910   77.3750  218.7600 C   0  0  0  0  0  0  0  0  0  0  0  0
  141.0530   77.0190  220.0060 C   0  0  2  0  0  0  0  0  0  0  0  0
  141.3990   77.8320  221.2100 C   0  0  0  0  0  0  0  0  0  0  0  0
  141.8220   79.2350  220.9570 C   0  0  0  0  0  0  0  0  0  0  0  0
  142.1740   79.8400  222.3100 C   0  0  0  0  0  0  0  0  0  0  0  0
  141.9070   78.9660  223.3650 O   0  0  0  0  0  0  0  0  0  0  0  0
  140.5600   78.5950  223.3730 C   0  0  0  0  0  0  0  0  0  0  0  0
  140.1480   77.9130  222.0760 C   0  0  0  0  0  0  0  0  0  0  0  0
  139.5170   71.5340  223.1760 C   0  0  0  0  0  0  0  0  0  0  0  0
  139.0700   70.2340  223.0000 C   0  0  0  0  0  0  0  0  0  0  0  0
  139.2650   69.3670  224.0480 C   0  0  0  0  0  0  0  0  0  0  0  0
  139.8700   69.7450  225.2220 C   0  0  0  0  0  0  0  0  0  0  0  0
  140.0490   68.8530  226.2470 C   0  0  0  0  0  0  0  0  0  0  0  0
  140.6640   69.2900  227.4060 C   0  0  0  0  0  0  0  0  0  0  0  0
  140.9040   68.1660  228.7350 Cl  0  0  0  0  0  0  0  0  0  0  0  0
  141.0840   70.5980  227.5160 C   0  0  0  0  0  0  0  0  0  0  0  0
  140.9180   71.5260  226.4930 C   0  0  0  0  0  0  0  0  0  0  0  0
  140.3000   71.0580  225.3500 C   0  0  0  0  0  0  0  0  0  0  0  0
  140.1040   71.8870  224.3240 N   0  0  0  0  0  0  0  0  0  0  0  0
  139.5370   74.2670  223.2890 H   0  0  0  0  0  0  0  0  0  0  0  0
  138.2060   74.4947  220.7107 H   0  0  0  0  0  0  0  0  0  0  0  0
  139.1611   75.7892  221.5611 H   0  0  0  0  0  0  0  0  0  0  0  0
  142.8531   75.3387  221.5623 H   0  0  0  0  0  0  0  0  0  0  0  0
  142.7357   74.1418  220.1856 H   0  0  0  0  0  0  0  0  0  0  0  0
  144.2042   76.5956  220.4234 H   0  0  0  0  0  0  0  0  0  0  0  0
  144.2685   75.1915  219.2150 H   0  0  0  0  0  0  0  0  0  0  0  0
  143.8372   77.6768  218.5303 H   0  0  0  0  0  0  0  0  0  0  0  0
  143.0894   76.1646  217.7449 H   0  0  0  0  0  0  0  0  0  0  0  0
  141.8688   78.4715  218.7193 H   0  0  0  0  0  0  0  0  0  0  0  0
  141.2105   76.9277  217.9397 H   0  0  0  0  0  0  0  0  0  0  0  0
  139.9879   77.2510  219.8587 H   0  0  0  0  0  0  0  0  0  0  0  0
  142.2610   77.3246  221.6677 H   0  0  0  0  0  0  0  0  0  0  0  0
  142.7001   79.2521  220.2947 H   0  0  0  0  0  0  0  0  0  0  0  0
  141.0204   79.8062  220.4660 H   0  0  0  0  0  0  0  0  0  0  0  0
  143.2455   80.0886  222.3187 H   0  0  0  0  0  0  0  0  0  0  0  0
  141.5532   80.7372  222.4500 H   0  0  0  0  0  0  0  0  0  0  0  0
  140.3878   77.9013  224.2091 H   0  0  0  0  0  0  0  0  0  0  0  0
  139.9569   79.5084  223.4827 H   0  0  0  0  0  0  0  0  0  0  0  0
  139.7641   76.9033  222.2835 H   0  0  0  0  0  0  0  0  0  0  0  0
  139.3501   78.4750  221.5685 H   0  0  0  0  0  0  0  0  0  0  0  0
  138.5832   69.9122  222.0675 H   0  0  0  0  0  0  0  0  0  0  0  0
  138.9224   68.3270  223.9425 H   0  0  0  0  0  0  0  0  0  0  0  0
  139.7105   67.8109  226.1498 H   0  0  0  0  0  0  0  0  0  0  0  0
  141.5693   70.9207  228.4489 H   0  0  0  0  0  0  0  0  0  0  0  0
  141.2578   72.5678  226.5885 H   0  0  0  0  0  0  0  0  0  0  0  0
  1  2  2  0
  2  3  1  0
  3  4  1  0
  4  5  1  0
  5  6  2  0
  5  7  1  0
  7  8  1  0
  8  9  1  0
  9 10  1  0
 10 11  1  0
 11 12  1  0
 12 13  1  0
 13 14  1  0
 14 15  1  0
 15 16  1  0
 16 17  1  0
 17 18  1  0
  2 19  1  0
 19 20  2  0
 20 21  1  0
 21 22  2  0
 22 23  1  0
 23 24  2  0
 24 25  1  0
 24 26  1  0
 26 27  2  0
 27 28  1  0
 28 29  2  0
 12  7  1  0
 18 13  1  0
 29 19  1  0
 28 22  1  0
  3 30  1  0
  4 31  1  0
  4 32  1  0
  8 33  1  0
  8 34  1  0
  9 35  1  0
  9 36  1  0
 10 37  1  0
 10 38  1  0
 11 39  1  0
 11 40  1  0
 12 41  1  6
 13 42  1  0
 14 43  1  0
 14 44  1  0
 15 45  1  0
 15 46  1  0
 17 47  1  0
 17 48  1  0
 18 49  1  0
 18 50  1  0
 20 51  1  0
 21 52  1  0
 23 53  1  0
 26 54  1  0
 27 55  1  0
M  END
>  <smiles>  (44) 
O=C(NCC(=O)N1CCCCC1C1CCOCC1)c1ccc2cc(Cl)ccc2n1

>  <score_type>  (44) 
oracle

>  <origin>  (44) 
autodockgpu

>  <m_score__min__energy>  (44) 
-8.6799999999999997

>  <m_primary>  (44) 
energy

>  <rmsd>  (44) 
2.1264490446400637

>  <m_score__min__rmsd>  (44) 
2.1264490446400637

>  <meeko>  (44) 
{"free_energy": -7.98, "intermolecular_energy": -9.47, "internal_energy": -1.49, "cluster_size": 30, "cluster_id": 1, "rank_in_cluster": 26}

>  <energy>  (44) 
-7.94

>  <cluster_rmsd>  (44) 
0.98

>  <cluster>  (44) 
2

$$$$

     RDKit          3D

 55 58  0  0  0  0  0  0  0  0999 V2000
  140.6310   72.5360  220.8770 O   0  0  0  0  0  0  0  0  0  0  0  0
  140.0800   72.8210  221.9910 C   0  0  0  0  0  0  0  0  0  0  0  0
  139.4580   74.0940  222.1470 N   0  0  0  0  0  0  0  0  0  0  0  0
  139.5000   74.9840  221.0060 C   0  0  0  0  0  0  0  0  0  0  0  0
  140.4920   76.0590  221.1650 C   0  0  0  0  0  0  0  0  0  0  0  0
  141.7380   75.8940  221.1360 O   0  0  0  0  0  0  0  0  0  0  0  0
  140.0110   77.3820  221.3700 N   0  0  0  0  0  0  0  0  0  0  0  0
  139.4040   78.1220  220.2790 C   0  0  0  0  0  0  0  0  0  0  0  0
  138.2670   78.9720  220.6970 C   0  0  0  0  0  0  0  0  0  0  0  0
  137.7490   78.7700  222.0780 C   0  0  0  0  0  0  0  0  0  0  0  0
  138.6890   78.2850  223.0970 C   0  0  0  0  0  0  0  0  0  0  0  0
  140.0930   78.0570  222.6510 C   0  0  2  0  0  0  0  0  0  0  0  0
  140.9500   79.2780  222.5830 C   0  0  0  0  0  0  0  0  0  0  0  0
  140.3660   80.5250  223.1440 C   0  0  0  0  0  0  0  0  0  0  0  0
  141.3850   81.6330  222.9120 C   0  0  0  0  0  0  0  0  0  0  0  0
  142.5700   81.1520  222.3550 O   0  0  0  0  0  0  0  0  0  0  0  0
  143.1440   80.1750  223.1730 C   0  0  0  0  0  0  0  0  0  0  0  0
  142.2090   78.9940  223.3920 C   0  0  0  0  0  0  0  0  0  0  0  0
  140.0730   71.8700  223.1060 C   0  0  0  0  0  0  0  0  0  0  0  0
  139.5430   70.6100  222.8750 C   0  0  0  0  0  0  0  0  0  0  0  0
  139.5460   69.7340  223.9350 C   0  0  0  0  0  0  0  0  0  0  0  0
  140.0440   70.0670  225.1700 C   0  0  0  0  0  0  0  0  0  0  0  0
  140.0320   69.1670  226.2050 C   0  0  0  0  0  0  0  0  0  0  0  0
  140.5480   69.5570  227.4280 C   0  0  0  0  0  0  0  0  0  0  0  0
  140.5430   68.4230  228.7700 Cl  0  0  0  0  0  0  0  0  0  0  0  0
  141.0600   70.8260  227.5910 C   0  0  0  0  0  0  0  0  0  0  0  0
  141.0870   71.7600  226.5600 C   0  0  0  0  0  0  0  0  0  0  0  0
  140.5650   71.3400  225.3530 C   0  0  0  0  0  0  0  0  0  0  0  0
  140.5540   72.1780  224.3150 N   0  0  0  0  0  0  0  0  0  0  0  0
  138.9880   74.3790  223.0450 H   0  0  0  0  0  0  0  0  0  0  0  0
  139.7556   74.3979  220.1109 H   0  0  0  0  0  0  0  0  0  0  0  0
  138.5100   75.4544  220.9129 H   0  0  0  0  0  0  0  0  0  0  0  0
  140.1720   78.7669  219.8271 H   0  0  0  0  0  0  0  0  0  0  0  0
  139.0076   77.3810  219.5692 H   0  0  0  0  0  0  0  0  0  0  0  0
  138.5870   80.0210  220.6119 H   0  0  0  0  0  0  0  0  0  0  0  0
  137.4366   78.6876  220.0340 H   0  0  0  0  0  0  0  0  0  0  0  0
  137.3574   79.7371  222.4264 H   0  0  0  0  0  0  0  0  0  0  0  0
  137.0058   77.9649  221.9805 H   0  0  0  0  0  0  0  0  0  0  0  0
  138.7125   79.0258  223.9098 H   0  0  0  0  0  0  0  0  0  0  0  0
  138.3127   77.2946  223.3928 H   0  0  0  0  0  0  0  0  0  0  0  0
  140.6050   77.4477  223.4104 H   0  0  0  0  0  0  0  0  0  0  0  0
  141.1076   79.4640  221.5103 H   0  0  0  0  0  0  0  0  0  0  0  0
  139.4227   80.7650  222.6315 H   0  0  0  0  0  0  0  0  0  0  0  0
  140.1461   80.4098  224.2156 H   0  0  0  0  0  0  0  0  0  0  0  0
  140.9494   82.3774  222.2292 H   0  0  0  0  0  0  0  0  0  0  0  0
  141.6275   82.0781  223.8883 H   0  0  0  0  0  0  0  0  0  0  0  0
  144.0684   79.8131  222.6991 H   0  0  0  0  0  0  0  0  0  0  0  0
  143.3513   80.6306  224.1525 H   0  0  0  0  0  0  0  0  0  0  0  0
  142.6830   78.0650  223.0423 H   0  0  0  0  0  0  0  0  0  0  0  0
  141.9740   78.8674  224.4591 H   0  0  0  0  0  0  0  0  0  0  0  0
  139.1398   70.3250  221.8920 H   0  0  0  0  0  0  0  0  0  0  0  0
  139.1325   68.7254  223.7872 H   0  0  0  0  0  0  0  0  0  0  0  0
  139.6207   68.1563  226.0656 H   0  0  0  0  0  0  0  0  0  0  0  0
  141.4628   71.1115  228.5740 H   0  0  0  0  0  0  0  0  0  0  0  0
  141.4988   72.7706  226.6982 H   0  0  0  0  0  0  0  0  0  0  0  0
  1  2  2  0
  2  3  1  0
  3  4  1  0
  4  5  1  0
  5  6  2  0
  5  7  1  0
  7  8  1  0
  8  9  1  0
  9 10  1  0
 10 11  1  0
 11 12  1  0
 12 13  1  0
 13 14  1  0
 14 15  1  0
 15 16  1  0
 16 17  1  0
 17 18  1  0
  2 19  1  0
 19 20  2  0
 20 21  1  0
 21 22  2  0
 22 23  1  0
 23 24  2  0
 24 25  1  0
 24 26  1  0
 26 27  2  0
 27 28  1  0
 28 29  2  0
 12  7  1  0
 18 13  1  0
 29 19  1  0
 28 22  1  0
  3 30  1  0
  4 31  1  0
  4 32  1  0
  8 33  1  0
  8 34  1  0
  9 35  1  0
  9 36  1  0
 10 37  1  0
 10 38  1  0
 11 39  1  0
 11 40  1  0
 12 41  1  1
 13 42  1  0
 14 43  1  0
 14 44  1  0
 15 45  1  0
 15 46  1  0
 17 47  1  0
 17 48  1  0
 18 49  1  0
 18 50  1  0
 20 51  1  0
 21 52  1  0
 23 53  1  0
 26 54  1  0
 27 55  1  0
M  END
>  <smiles>  (45) 
O=C(NCC(=O)N1CCCCC1C1CCOCC1)c1ccc2cc(Cl)ccc2n1

>  <score_type>  (45) 
oracle

>  <origin>  (45) 
autodockgpu

>  <m_score__min__energy>  (45) 
-8.6799999999999997

>  <m_primary>  (45) 
energy

>  <rmsd>  (45) 
3.030070669766428

>  <m_score__min__rmsd>  (45) 
3.030070669766428

>  <meeko>  (45) 
{"free_energy": -8.42, "intermolecular_energy": -9.91, "internal_energy": -1.35, "cluster_size": 30, "cluster_id": 1, "rank_in_cluster": 20}

>  <energy>  (45) 
-7.85

>  <cluster_rmsd>  (45) 
1.03

>  <cluster>  (45) 
2

$$$$

     RDKit          3D

 55 58  0  0  0  0  0  0  0  0999 V2000
  138.2660   72.9620  222.2240 O   0  0  0  0  0  0  0  0  0  0  0  0
  139.3340   72.2680  222.2940 C   0  0  0  0  0  0  0  0  0  0  0  0
  140.3100   72.3990  221.2640 N   0  0  0  0  0  0  0  0  0  0  0  0
  140.0090   73.3290  220.1940 C   0  0  0  0  0  0  0  0  0  0  0  0
  140.7170   74.6090  220.3430 C   0  0  0  0  0  0  0  0  0  0  0  0
  140.3640   75.5380  221.1130 O   0  0  0  0  0  0  0  0  0  0  0  0
  141.8870   74.8160  219.5600 N   0  0  0  0  0  0  0  0  0  0  0  0
  141.8450   74.6580  218.1180 C   0  0  0  0  0  0  0  0  0  0  0  0
  142.6870   75.6320  217.3880 C   0  0  0  0  0  0  0  0  0  0  0  0
  143.2410   76.7660  218.1780 C   0  0  0  0  0  0  0  0  0  0  0  0
  143.4820   76.5490  219.6110 C   0  0  0  0  0  0  0  0  0  0  0  0
  143.1630   75.1910  220.1400 C   0  0  2  0  0  0  0  0  0  0  0  0
  144.2070   74.1510  219.9060 C   0  0  0  0  0  0  0  0  0  0  0  0
  145.3900   74.1910  220.8050 C   0  0  0  0  0  0  0  0  0  0  0  0
  146.3330   73.0870  220.3460 C   0  0  0  0  0  0  0  0  0  0  0  0
  145.7840   72.3190  219.3180 O   0  0  0  0  0  0  0  0  0  0  0  0
  144.5750   71.7430  219.7180 C   0  0  0  0  0  0  0  0  0  0  0  0
  143.5510   72.7940  220.1250 C   0  0  0  0  0  0  0  0  0  0  0  0
  139.5750   71.3460  223.4070 C   0  0  0  0  0  0  0  0  0  0  0  0
  139.2500   70.0120  223.2200 C   0  0  0  0  0  0  0  0  0  0  0  0
  139.4850   69.1640  224.2760 C   0  0  0  0  0  0  0  0  0  0  0  0
  140.0160   69.5930  225.4680 C   0  0  0  0  0  0  0  0  0  0  0  0
  140.2380   68.7190  226.5000 C   0  0  0  0  0  0  0  0  0  0  0  0
  140.7740   69.2070  227.6780 C   0  0  0  0  0  0  0  0  0  0  0  0
  141.0680   68.1080  229.0170 Cl  0  0  0  0  0  0  0  0  0  0  0  0
  141.0750   70.5470  227.7990 C   0  0  0  0  0  0  0  0  0  0  0  0
  140.8630   71.4580  226.7690 C   0  0  0  0  0  0  0  0  0  0  0  0
  140.3260   70.9380  225.6070 C   0  0  0  0  0  0  0  0  0  0  0  0
  140.0910   71.7480  224.5730 N   0  0  0  0  0  0  0  0  0  0  0  0
  141.2090   71.8510  221.2730 H   0  0  0  0  0  0  0  0  0  0  0  0
  140.3031   72.8728  219.2373 H   0  0  0  0  0  0  0  0  0  0  0  0
  138.9297   73.5388  220.2280 H   0  0  0  0  0  0  0  0  0  0  0  0
  142.1919   73.6441  217.8695 H   0  0  0  0  0  0  0  0  0  0  0  0
  140.8052   74.8342  217.8054 H   0  0  0  0  0  0  0  0  0  0  0  0
  143.5358   75.0808  216.9570 H   0  0  0  0  0  0  0  0  0  0  0  0
  142.0160   76.0962  216.6502 H   0  0  0  0  0  0  0  0  0  0  0  0
  144.2025   77.0448  217.7221 H   0  0  0  0  0  0  0  0  0  0  0  0
  142.4576   77.5374  218.1424 H   0  0  0  0  0  0  0  0  0  0  0  0
  144.5478   76.7412  219.8038 H   0  0  0  0  0  0  0  0  0  0  0  0
  142.7941   77.2331  220.1294 H   0  0  0  0  0  0  0  0  0  0  0  0
  143.1219   75.2455  221.2379 H   0  0  0  0  0  0  0  0  0  0  0  0
  144.5826   74.3386  218.8893 H   0  0  0  0  0  0  0  0  0  0  0  0
  145.8883   75.1689  220.7310 H   0  0  0  0  0  0  0  0  0  0  0  0
  145.0924   74.0434  221.8536 H   0  0  0  0  0  0  0  0  0  0  0  0
  147.2663   73.5449  219.9866 H   0  0  0  0  0  0  0  0  0  0  0  0
  146.5176   72.4223  221.2028 H   0  0  0  0  0  0  0  0  0  0  0  0
  144.1678   71.1550  218.8823 H   0  0  0  0  0  0  0  0  0  0  0  0
  144.7744   71.1057  220.5921 H   0  0  0  0  0  0  0  0  0  0  0  0
  142.6480   72.7045  219.5032 H   0  0  0  0  0  0  0  0  0  0  0  0
  143.2475   72.6656  221.1745 H   0  0  0  0  0  0  0  0  0  0  0  0
  138.8247   69.6493  222.2726 H   0  0  0  0  0  0  0  0  0  0  0  0
  139.2377   68.0983  224.1618 H   0  0  0  0  0  0  0  0  0  0  0  0
  139.9950   67.6515  226.3937 H   0  0  0  0  0  0  0  0  0  0  0  0
  141.4993   70.9100  228.7468 H   0  0  0  0  0  0  0  0  0  0  0  0
  141.1076   72.5254  226.8732 H   0  0  0  0  0  0  0  0  0  0  0  0
  1  2  2  0
  2  3  1  0
  3  4  1  0
  4  5  1  0
  5  6  2  0
  5  7  1  0
  7  8  1  0
  8  9  1  0
  9 10  1  0
 10 11  1  0
 11 12  1  0
 12 13  1  0
 13 14  1  0
 14 15  1  0
 15 16  1  0
 16 17  1  0
 17 18  1  0
  2 19  1  0
 19 20  2  0
 20 21  1  0
 21 22  2  0
 22 23  1  0
 23 24  2  0
 24 25  1  0
 24 26  1  0
 26 27  2  0
 27 28  1  0
 28 29  2  0
 12  7  1  0
 18 13  1  0
 29 19  1  0
 28 22  1  0
  3 30  1  0
  4 31  1  0
  4 32  1  0
  8 33  1  0
  8 34  1  0
  9 35  1  0
  9 36  1  0
 10 37  1  0
 10 38  1  0
 11 39  1  0
 11 40  1  0
 12 41  1  1
 13 42  1  0
 14 43  1  0
 14 44  1  0
 15 45  1  0
 15 46  1  0
 17 47  1  0
 17 48  1  0
 18 49  1  0
 18 50  1  0
 20 51  1  0
 21 52  1  0
 23 53  1  0
 26 54  1  0
 27 55  1  0
M  END
>  <smiles>  (46) 
O=C(NCC(=O)N1CCCCC1C1CCOCC1)c1ccc2cc(Cl)ccc2n1

>  <score_type>  (46) 
oracle

>  <origin>  (46) 
autodockgpu

>  <m_score__min__energy>  (46) 
-8.6799999999999997

>  <m_primary>  (46) 
energy

>  <rmsd>  (46) 
2.164471625561568

>  <m_score__min__rmsd>  (46) 
2.164471625561568

>  <meeko>  (46) 
{"free_energy": -7.94, "intermolecular_energy": -9.43, "internal_energy": -1.39, "cluster_size": 16, "cluster_id": 2, "rank_in_cluster": 14}

>  <energy>  (46) 
-7.5

>  <cluster_rmsd>  (46) 
1.2

>  <cluster>  (46) 
2

$$$$

     RDKit          3D

 55 58  0  0  0  0  0  0  0  0999 V2000
  139.1130   73.6860  222.3470 O   0  0  0  0  0  0  0  0  0  0  0  0
  139.6790   72.5580  222.1670 C   0  0  0  0  0  0  0  0  0  0  0  0
  140.1640   72.2300  220.8670 N   0  0  0  0  0  0  0  0  0  0  0  0
  139.9720   73.2230  219.8300 C   0  0  0  0  0  0  0  0  0  0  0  0
  140.6940   74.4740  220.1060 C   0  0  0  0  0  0  0  0  0  0  0  0
  140.3160   75.3550  220.9190 O   0  0  0  0  0  0  0  0  0  0  0  0
  141.9080   74.7100  219.4030 N   0  0  0  0  0  0  0  0  0  0  0  0
  141.9580   74.5890  217.9580 C   0  0  0  0  0  0  0  0  0  0  0  0
  142.8360   75.5870  217.3080 C   0  0  0  0  0  0  0  0  0  0  0  0
  143.3300   76.7040  218.1600 C   0  0  0  0  0  0  0  0  0  0  0  0
  143.4830   76.4500  219.5980 C   0  0  0  0  0  0  0  0  0  0  0  0
  143.1430   75.0780  220.0710 C   0  0  2  0  0  0  0  0  0  0  0  0
  144.2080   74.0500  219.8770 C   0  0  0  0  0  0  0  0  0  0  0  0
  145.3470   74.0930  220.8320 C   0  0  0  0  0  0  0  0  0  0  0  0
  146.3220   73.0030  220.4060 C   0  0  0  0  0  0  0  0  0  0  0  0
  145.8310   72.2410  219.3450 O   0  0  0  0  0  0  0  0  0  0  0  0
  144.6110   71.6490  219.6820 C   0  0  0  0  0  0  0  0  0  0  0  0
  143.5560   72.6840  220.0500 C   0  0  0  0  0  0  0  0  0  0  0  0
  139.8420   71.5980  223.2630 C   0  0  0  0  0  0  0  0  0  0  0  0
  139.4680   70.2850  223.0290 C   0  0  0  0  0  0  0  0  0  0  0  0
  139.6290   69.4010  224.0700 C   0  0  0  0  0  0  0  0  0  0  0  0
  140.1330   69.7780  225.2910 C   0  0  0  0  0  0  0  0  0  0  0  0
  140.2810   68.8690  226.3070 C   0  0  0  0  0  0  0  0  0  0  0  0
  140.7950   69.3050  227.5150 C   0  0  0  0  0  0  0  0  0  0  0  0
  140.9930   68.1610  228.8340 Cl  0  0  0  0  0  0  0  0  0  0  0  0
  141.1470   70.6270  227.6820 C   0  0  0  0  0  0  0  0  0  0  0  0
  141.0100   71.5710  226.6700 C   0  0  0  0  0  0  0  0  0  0  0  0
  140.4940   71.1040  225.4760 C   0  0  0  0  0  0  0  0  0  0  0  0
  140.3320   71.9490  224.4570 N   0  0  0  0  0  0  0  0  0  0  0  0
  140.6390   71.3130  220.6630 H   0  0  0  0  0  0  0  0  0  0  0  0
  140.3328   72.8108  218.8761 H   0  0  0  0  0  0  0  0  0  0  0  0
  138.8985   73.4594  219.7890 H   0  0  0  0  0  0  0  0  0  0  0  0
  142.3282   73.5843  217.7062 H   0  0  0  0  0  0  0  0  0  0  0  0
  140.9385   74.7661  217.5849 H   0  0  0  0  0  0  0  0  0  0  0  0
  143.7147   75.0528  216.9175 H   0  0  0  0  0  0  0  0  0  0  0  0
  142.2088   76.0658  216.5416 H   0  0  0  0  0  0  0  0  0  0  0  0
  144.3155   77.0017  217.7724 H   0  0  0  0  0  0  0  0  0  0  0  0
  142.5442   77.4711  218.0955 H   0  0  0  0  0  0  0  0  0  0  0  0
  144.5332   76.6437  219.8617 H   0  0  0  0  0  0  0  0  0  0  0  0
  142.7582   77.1154  220.0898 H   0  0  0  0  0  0  0  0  0  0  0  0
  143.0337   75.1041  221.1652 H   0  0  0  0  0  0  0  0  0  0  0  0
  144.6300   74.2513  218.8813 H   0  0  0  0  0  0  0  0  0  0  0  0
  145.8378   75.0766  220.7916 H   0  0  0  0  0  0  0  0  0  0  0  0
  145.0022   73.9319  221.8641 H   0  0  0  0  0  0  0  0  0  0  0  0
  147.2666   73.4741  220.0963 H   0  0  0  0  0  0  0  0  0  0  0  0
  146.4719   72.3305  221.2635 H   0  0  0  0  0  0  0  0  0  0  0  0
  144.2505   71.0648  218.8225 H   0  0  0  0  0  0  0  0  0  0  0  0
  144.7765   71.0063  220.5593 H   0  0  0  0  0  0  0  0  0  0  0  0
  142.6853   72.5919  219.3841 H   0  0  0  0  0  0  0  0  0  0  0  0
  143.2025   72.5408  221.0818 H   0  0  0  0  0  0  0  0  0  0  0  0
  139.0621   69.9651  222.0580 H   0  0  0  0  0  0  0  0  0  0  0  0
  139.3427   68.3497  223.9189 H   0  0  0  0  0  0  0  0  0  0  0  0
  139.9971   67.8159  226.1645 H   0  0  0  0  0  0  0  0  0  0  0  0
  141.5519   70.9478  228.6532 H   0  0  0  0  0  0  0  0  0  0  0  0
  141.2947   72.6241  226.8111 H   0  0  0  0  0  0  0  0  0  0  0  0
  1  2  2  0
  2  3  1  0
  3  4  1  0
  4  5  1  0
  5  6  2  0
  5  7  1  0
  7  8  1  0
  8  9  1  0
  9 10  1  0
 10 11  1  0
 11 12  1  0
 12 13  1  0
 13 14  1  0
 14 15  1  0
 15 16  1  0
 16 17  1  0
 17 18  1  0
  2 19  1  0
 19 20  2  0
 20 21  1  0
 21 22  2  0
 22 23  1  0
 23 24  2  0
 24 25  1  0
 24 26  1  0
 26 27  2  0
 27 28  1  0
 28 29  2  0
 12  7  1  0
 18 13  1  0
 29 19  1  0
 28 22  1  0
  3 30  1  0
  4 31  1  0
  4 32  1  0
  8 33  1  0
  8 34  1  0
  9 35  1  0
  9 36  1  0
 10 37  1  0
 10 38  1  0
 11 39  1  0
 11 40  1  0
 12 41  1  1
 13 42  1  0
 14 43  1  0
 14 44  1  0
 15 45  1  0
 15 46  1  0
 17 47  1  0
 17 48  1  0
 18 49  1  0
 18 50  1  0
 20 51  1  0
 21 52  1  0
 23 53  1  0
 26 54  1  0
 27 55  1  0
M  END
>  <smiles>  (47) 
O=C(NCC(=O)N1CCCCC1C1CCOCC1)c1ccc2cc(Cl)ccc2n1

>  <score_type>  (47) 
oracle

>  <origin>  (47) 
autodockgpu

>  <m_score__min__energy>  (47) 
-8.6799999999999997

>  <m_primary>  (47) 
energy

>  <rmsd>  (47) 
2.2928822937103197

>  <m_score__min__rmsd>  (47) 
2.2928822937103197

>  <meeko>  (47) 
{"free_energy": -8.26, "intermolecular_energy": -9.76, "internal_energy": -1.33, "cluster_size": 16, "cluster_id": 2, "rank_in_cluster": 9}

>  <energy>  (47) 
-8.13

>  <cluster_rmsd>  (47) 
0.0

>  <cluster>  (47) 
3

$$$$

     RDKit          3D

 55 58  0  0  0  0  0  0  0  0999 V2000
  140.2820   72.3720  220.9430 O   0  0  0  0  0  0  0  0  0  0  0  0
  139.6290   72.5050  222.0300 C   0  0  0  0  0  0  0  0  0  0  0  0
  138.7360   73.6070  222.1670 N   0  0  0  0  0  0  0  0  0  0  0  0
  138.6350   74.5090  221.0390 C   0  0  0  0  0  0  0  0  0  0  0  0
  139.0020   75.8910  221.3870 C   0  0  0  0  0  0  0  0  0  0  0  0
  138.2300   76.7210  221.9310 O   0  0  0  0  0  0  0  0  0  0  0  0
  140.3230   76.3240  221.0850 N   0  0  0  0  0  0  0  0  0  0  0  0
  141.4510   75.4310  221.2720 C   0  0  0  0  0  0  0  0  0  0  0  0
  142.4990   75.5710  220.2370 C   0  0  0  0  0  0  0  0  0  0  0  0
  142.1580   76.3920  219.0420 C   0  0  0  0  0  0  0  0  0  0  0  0
  141.1740   77.4690  219.2110 C   0  0  0  0  0  0  0  0  0  0  0  0
  140.6180   77.6530  220.5830 C   0  0  2  0  0  0  0  0  0  0  0  0
  141.4800   78.4250  221.5260 C   0  0  0  0  0  0  0  0  0  0  0  0
  141.6090   79.8820  221.2570 C   0  0  0  0  0  0  0  0  0  0  0  0
  142.5690   80.4390  222.3000 C   0  0  0  0  0  0  0  0  0  0  0  0
  142.9520   79.4760  223.2340 O   0  0  0  0  0  0  0  0  0  0  0  0
  141.8360   78.9450  223.8860 C   0  0  0  0  0  0  0  0  0  0  0  0
  140.8590   78.3000  222.9120 C   0  0  0  0  0  0  0  0  0  0  0  0
  139.7780   71.5520  223.1340 C   0  0  0  0  0  0  0  0  0  0  0  0
  139.3800   70.2440  222.9130 C   0  0  0  0  0  0  0  0  0  0  0  0
  139.5280   69.3670  223.9620 C   0  0  0  0  0  0  0  0  0  0  0  0
  140.0440   69.7450  225.1770 C   0  0  0  0  0  0  0  0  0  0  0  0
  140.1790   68.8430  226.2010 C   0  0  0  0  0  0  0  0  0  0  0  0
  140.7040   69.2800  227.4040 C   0  0  0  0  0  0  0  0  0  0  0  0
  140.8860   68.1440  228.7320 Cl  0  0  0  0  0  0  0  0  0  0  0  0
  141.0810   70.5970  227.5570 C   0  0  0  0  0  0  0  0  0  0  0  0
  140.9580   71.5340  226.5370 C   0  0  0  0  0  0  0  0  0  0  0  0
  140.4290   71.0660  225.3500 C   0  0  0  0  0  0  0  0  0  0  0  0
  140.2790   71.9050  224.3230 N   0  0  0  0  0  0  0  0  0  0  0  0
  138.1720   73.7640  223.0430 H   0  0  0  0  0  0  0  0  0  0  0  0
  139.3072   74.1553  220.2434 H   0  0  0  0  0  0  0  0  0  0  0  0
  137.5856   74.5151  220.7093 H   0  0  0  0  0  0  0  0  0  0  0  0
  141.9016   75.6416  222.2531 H   0  0  0  0  0  0  0  0  0  0  0  0
  141.0632   74.4042  221.1997 H   0  0  0  0  0  0  0  0  0  0  0  0
  143.3789   76.0273  220.7141 H   0  0  0  0  0  0  0  0  0  0  0  0
  142.6594   74.5536  219.8507 H   0  0  0  0  0  0  0  0  0  0  0  0
  143.0903   76.8524  218.6830 H   0  0  0  0  0  0  0  0  0  0  0  0
  141.6801   75.6858  218.3471 H   0  0  0  0  0  0  0  0  0  0  0  0
  141.6572   78.4124  218.9169 H   0  0  0  0  0  0  0  0  0  0  0  0
  140.3163   77.1807  218.5855 H   0  0  0  0  0  0  0  0  0  0  0  0
  139.7183   78.2820  220.5131 H   0  0  0  0  0  0  0  0  0  0  0  0
  142.4879   77.9981  221.4173 H   0  0  0  0  0  0  0  0  0  0  0  0
  142.0110   80.0463  220.2464 H   0  0  0  0  0  0  0  0  0  0  0  0
  140.6308   80.3819  221.3141 H   0  0  0  0  0  0  0  0  0  0  0  0
  143.4682   80.8137  221.7890 H   0  0  0  0  0  0  0  0  0  0  0  0
  142.0494   81.2442  222.8401 H   0  0  0  0  0  0  0  0  0  0  0  0
  142.1737   78.1848  224.6058 H   0  0  0  0  0  0  0  0  0  0  0  0
  141.3147   79.7701  224.3935 H   0  0  0  0  0  0  0  0  0  0  0  0
  140.7118   77.2403  223.1678 H   0  0  0  0  0  0  0  0  0  0  0  0
  139.8758   78.7917  222.9521 H   0  0  0  0  0  0  0  0  0  0  0  0
  138.9659   69.9224  221.9460 H   0  0  0  0  0  0  0  0  0  0  0  0
  139.2205   68.3202  223.8220 H   0  0  0  0  0  0  0  0  0  0  0  0
  139.8762   67.7938  226.0686 H   0  0  0  0  0  0  0  0  0  0  0  0
  141.4953   70.9193  228.5237 H   0  0  0  0  0  0  0  0  0  0  0  0
  141.2630   72.5828  226.6673 H   0  0  0  0  0  0  0  0  0  0  0  0
  1  2  2  0
  2  3  1  0
  3  4  1  0
  4  5  1  0
  5  6  2  0
  5  7  1  0
  7  8  1  0
  8  9  1  0
  9 10  1  0
 10 11  1  0
 11 12  1  0
 12 13  1  0
 13 14  1  0
 14 15  1  0
 15 16  1  0
 16 17  1  0
 17 18  1  0
  2 19  1  0
 19 20  2  0
 20 21  1  0
 21 22  2  0
 22 23  1  0
 23 24  2  0
 24 25  1  0
 24 26  1  0
 26 27  2  0
 27 28  1  0
 28 29  2  0
 12  7  1  0
 18 13  1  0
 29 19  1  0
 28 22  1  0
  3 30  1  0
  4 31  1  0
  4 32  1  0
  8 33  1  0
  8 34  1  0
  9 35  1  0
  9 36  1  0
 10 37  1  0
 10 38  1  0
 11 39  1  0
 11 40  1  0
 12 41  1  6
 13 42  1  0
 14 43  1  0
 14 44  1  0
 15 45  1  0
 15 46  1  0
 17 47  1  0
 17 48  1  0
 18 49  1  0
 18 50  1  0
 20 51  1  0
 21 52  1  0
 23 53  1  0
 26 54  1  0
 27 55  1  0
M  END
>  <smiles>  (48) 
O=C(NCC(=O)N1CCCCC1C1CCOCC1)c1ccc2cc(Cl)ccc2n1

>  <score_type>  (48) 
oracle

>  <origin>  (48) 
autodockgpu

>  <m_score__min__energy>  (48) 
-8.6799999999999997

>  <m_primary>  (48) 
energy

>  <rmsd>  (48) 
2.008820637919504

>  <m_score__min__rmsd>  (48) 
2.008820637919504

>  <meeko>  (48) 
{"free_energy": -8.57, "intermolecular_energy": -10.06, "internal_energy": -1.55, "cluster_size": 30, "cluster_id": 1, "rank_in_cluster": 7}

>  <energy>  (48) 
-7.82

>  <cluster_rmsd>  (48) 
1.49

>  <cluster>  (48) 
3

$$$$

     RDKit          3D

 55 58  0  0  0  0  0  0  0  0999 V2000
  139.3440   71.9160  220.6980 O   0  0  0  0  0  0  0  0  0  0  0  0
  139.3990   72.3520  221.8940 C   0  0  0  0  0  0  0  0  0  0  0  0
  139.2460   73.7500  222.1270 N   0  0  0  0  0  0  0  0  0  0  0  0
  139.0350   74.5860  220.9630 C   0  0  0  0  0  0  0  0  0  0  0  0
  139.2070   76.0170  221.2570 C   0  0  0  0  0  0  0  0  0  0  0  0
  138.3220   76.7570  221.7570 O   0  0  0  0  0  0  0  0  0  0  0  0
  140.4630   76.6110  220.9530 N   0  0  0  0  0  0  0  0  0  0  0  0
  141.6710   75.8070  220.9280 C   0  0  0  0  0  0  0  0  0  0  0  0
  142.6270   76.2040  219.8690 C   0  0  0  0  0  0  0  0  0  0  0  0
  142.1340   77.1660  218.8450 C   0  0  0  0  0  0  0  0  0  0  0  0
  141.0810   78.1080  219.2430 C   0  0  0  0  0  0  0  0  0  0  0  0
  140.6120   78.0230  220.6560 C   0  0  2  0  0  0  0  0  0  0  0  0
  141.4740   78.7150  221.6600 C   0  0  0  0  0  0  0  0  0  0  0  0
  141.6110   80.1880  221.5060 C   0  0  0  0  0  0  0  0  0  0  0  0
  142.5700   80.6570  222.5930 C   0  0  0  0  0  0  0  0  0  0  0  0
  142.9430   79.6220  223.4500 O   0  0  0  0  0  0  0  0  0  0  0  0
  141.8220   79.0480  224.0540 C   0  0  0  0  0  0  0  0  0  0  0  0
  140.8470   78.4860  223.0290 C   0  0  0  0  0  0  0  0  0  0  0  0
  139.6140   71.4490  223.0290 C   0  0  0  0  0  0  0  0  0  0  0  0
  139.2680   70.1170  222.8660 C   0  0  0  0  0  0  0  0  0  0  0  0
  139.4790   69.2880  223.9420 C   0  0  0  0  0  0  0  0  0  0  0  0
  140.0050   69.7330  225.1300 C   0  0  0  0  0  0  0  0  0  0  0  0
  140.2030   68.8760  226.1820 C   0  0  0  0  0  0  0  0  0  0  0  0
  140.7360   69.3800  227.3540 C   0  0  0  0  0  0  0  0  0  0  0  0
  140.9980   68.3040  228.7190 Cl  0  0  0  0  0  0  0  0  0  0  0  0
  141.0590   70.7160  227.4500 C   0  0  0  0  0  0  0  0  0  0  0  0
  140.8710   71.6090  226.4000 C   0  0  0  0  0  0  0  0  0  0  0  0
  140.3370   71.0740  225.2440 C   0  0  0  0  0  0  0  0  0  0  0  0
  140.1260   71.8670  224.1920 N   0  0  0  0  0  0  0  0  0  0  0  0
  139.2830   74.1630  223.0960 H   0  0  0  0  0  0  0  0  0  0  0  0
  139.7573   74.2966  220.1855 H   0  0  0  0  0  0  0  0  0  0  0  0
  137.9979   74.4364  220.6283 H   0  0  0  0  0  0  0  0  0  0  0  0
  142.1724   75.9027  221.9024 H   0  0  0  0  0  0  0  0  0  0  0  0
  141.3648   74.7723  220.7141 H   0  0  0  0  0  0  0  0  0  0  0  0
  143.4985   76.6600  220.3615 H   0  0  0  0  0  0  0  0  0  0  0  0
  142.8422   75.2788  219.3143 H   0  0  0  0  0  0  0  0  0  0  0  0
  142.9970   77.7605  218.5107 H   0  0  0  0  0  0  0  0  0  0  0  0
  141.6656   76.5355  218.0748 H   0  0  0  0  0  0  0  0  0  0  0  0
  141.4636   79.1261  219.0785 H   0  0  0  0  0  0  0  0  0  0  0  0
  140.2069   77.8439  218.6296 H   0  0  0  0  0  0  0  0  0  0  0  0
  139.6609   78.5691  220.7409 H   0  0  0  0  0  0  0  0  0  0  0  0
  142.4802   78.2925  221.5220 H   0  0  0  0  0  0  0  0  0  0  0  0
  142.0176   80.4287  220.5127 H   0  0  0  0  0  0  0  0  0  0  0  0
  140.6350   80.6870  221.5986 H   0  0  0  0  0  0  0  0  0  0  0  0
  143.4735   81.0649  222.1162 H   0  0  0  0  0  0  0  0  0  0  0  0
  142.0532   81.4212  223.1920 H   0  0  0  0  0  0  0  0  0  0  0  0
  142.1527   78.2325  224.7140 H   0  0  0  0  0  0  0  0  0  0  0  0
  141.3024   79.8337  224.6221 H   0  0  0  0  0  0  0  0  0  0  0  0
  140.6937   77.4104  223.2010 H   0  0  0  0  0  0  0  0  0  0  0  0
  139.8662   78.9784  223.1032 H   0  0  0  0  0  0  0  0  0  0  0  0
  138.8454   69.7417  221.9223 H   0  0  0  0  0  0  0  0  0  0  0  0
  139.2156   68.2242  223.8476 H   0  0  0  0  0  0  0  0  0  0  0  0
  139.9434   67.8106  226.0954 H   0  0  0  0  0  0  0  0  0  0  0  0
  141.4820   71.0911  228.3936 H   0  0  0  0  0  0  0  0  0  0  0  0
  141.1313   72.6744  226.4851 H   0  0  0  0  0  0  0  0  0  0  0  0
  1  2  2  0
  2  3  1  0
  3  4  1  0
  4  5  1  0
  5  6  2  0
  5  7  1  0
  7  8  1  0
  8  9  1  0
  9 10  1  0
 10 11  1  0
 11 12  1  0
 12 13  1  0
 13 14  1  0
 14 15  1  0
 15 16  1  0
 16 17  1  0
 17 18  1  0
  2 19  1  0
 19 20  2  0
 20 21  1  0
 21 22  2  0
 22 23  1  0
 23 24  2  0
 24 25  1  0
 24 26  1  0
 26 27  2  0
 27 28  1  0
 28 29  2  0
 12  7  1  0
 18 13  1  0
 29 19  1  0
 28 22  1  0
  3 30  1  0
  4 31  1  0
  4 32  1  0
  8 33  1  0
  8 34  1  0
  9 35  1  0
  9 36  1  0
 10 37  1  0
 10 38  1  0
 11 39  1  0
 11 40  1  0
 12 41  1  6
 13 42  1  0
 14 43  1  0
 14 44  1  0
 15 45  1  0
 15 46  1  0
 17 47  1  0
 17 48  1  0
 18 49  1  0
 18 50  1  0
 20 51  1  0
 21 52  1  0
 23 53  1  0
 26 54  1  0
 27 55  1  0
M  END
>  <smiles>  (49) 
O=C(NCC(=O)N1CCCCC1C1CCOCC1)c1ccc2cc(Cl)ccc2n1

>  <score_type>  (49) 
oracle

>  <origin>  (49) 
autodockgpu

>  <m_score__min__energy>  (49) 
-8.6799999999999997

>  <m_primary>  (49) 
energy

>  <rmsd>  (49) 
2.0314798635404423

>  <m_score__min__rmsd>  (49) 
2.0314798635404423

>  <meeko>  (49) 
{"free_energy": -8.51, "intermolecular_energy": -10.0, "internal_energy": -1.54, "cluster_size": 30, "cluster_id": 1, "rank_in_cluster": 12}

>  <energy>  (49) 
-7.17

>  <cluster_rmsd>  (49) 
1.65

>  <cluster>  (49) 
3

$$$$

     RDKit          3D

 55 58  0  0  0  0  0  0  0  0999 V2000
  138.7740   71.8680  220.8100 O   0  0  0  0  0  0  0  0  0  0  0  0
  139.0480   72.3180  221.9710 C   0  0  0  0  0  0  0  0  0  0  0  0
  139.0720   73.7280  222.1760 N   0  0  0  0  0  0  0  0  0  0  0  0
  138.7780   74.5590  221.0260 C   0  0  0  0  0  0  0  0  0  0  0  0
  139.0620   75.9820  221.2710 C   0  0  0  0  0  0  0  0  0  0  0  0
  138.2280   76.8130  221.7090 O   0  0  0  0  0  0  0  0  0  0  0  0
  140.3740   76.4550  220.9900 N   0  0  0  0  0  0  0  0  0  0  0  0
  141.5190   75.5740  221.1230 C   0  0  0  0  0  0  0  0  0  0  0  0
  142.5600   75.7920  220.0940 C   0  0  0  0  0  0  0  0  0  0  0  0
  142.1980   76.6730  218.9490 C   0  0  0  0  0  0  0  0  0  0  0  0
  141.1960   77.7200  219.1820 C   0  0  0  0  0  0  0  0  0  0  0  0
  140.6420   77.8150  220.5630 C   0  0  2  0  0  0  0  0  0  0  0  0
  141.4940   78.5490  221.5450 C   0  0  0  0  0  0  0  0  0  0  0  0
  141.6600   80.0080  221.3120 C   0  0  0  0  0  0  0  0  0  0  0  0
  142.6020   80.5240  222.3920 C   0  0  0  0  0  0  0  0  0  0  0  0
  142.9400   79.5320  223.3140 O   0  0  0  0  0  0  0  0  0  0  0  0
  141.7970   79.0110  223.9250 C   0  0  0  0  0  0  0  0  0  0  0  0
  140.8340   78.4070  222.9110 C   0  0  0  0  0  0  0  0  0  0  0  0
  139.3350   71.4190  223.0930 C   0  0  0  0  0  0  0  0  0  0  0  0
  138.9930   70.0830  222.9510 C   0  0  0  0  0  0  0  0  0  0  0  0
  139.2720   69.2580  224.0140 C   0  0  0  0  0  0  0  0  0  0  0  0
  139.8590   69.7100  225.1700 C   0  0  0  0  0  0  0  0  0  0  0  0
  140.1230   68.8580  226.2110 C   0  0  0  0  0  0  0  0  0  0  0  0
  140.7160   69.3680  227.3520 C   0  0  0  0  0  0  0  0  0  0  0  0
  141.0640   68.2980  228.7010 Cl  0  0  0  0  0  0  0  0  0  0  0  0
  141.0300   70.7080  227.4280 C   0  0  0  0  0  0  0  0  0  0  0  0
  140.7760   71.5970  226.3890 C   0  0  0  0  0  0  0  0  0  0  0  0
  140.1830   71.0550  225.2650 C   0  0  0  0  0  0  0  0  0  0  0  0
  139.9060   71.8430  224.2250 N   0  0  0  0  0  0  0  0  0  0  0  0
  139.2920   74.1530  223.1140 H   0  0  0  0  0  0  0  0  0  0  0  0
  139.3907   74.2179  220.1785 H   0  0  0  0  0  0  0  0  0  0  0  0
  137.7031   74.4649  220.8120 H   0  0  0  0  0  0  0  0  0  0  0  0
  141.9697   75.7373  222.1130 H   0  0  0  0  0  0  0  0  0  0  0  0
  141.1501   74.5457  220.9943 H   0  0  0  0  0  0  0  0  0  0  0  0
  143.4334   76.2370  220.5932 H   0  0  0  0  0  0  0  0  0  0  0  0
  142.7380   74.8014  219.6501 H   0  0  0  0  0  0  0  0  0  0  0  0
  143.1200   77.1700  218.6130 H   0  0  0  0  0  0  0  0  0  0  0  0
  141.7292   75.9984  218.2174 H   0  0  0  0  0  0  0  0  0  0  0  0
  141.6612   78.6873  218.9412 H   0  0  0  0  0  0  0  0  0  0  0  0
  140.3414   77.4525  218.5432 H   0  0  0  0  0  0  0  0  0  0  0  0
  139.7298   78.4289  220.5318 H   0  0  0  0  0  0  0  0  0  0  0  0
  142.4957   78.1039  221.4529 H   0  0  0  0  0  0  0  0  0  0  0  0
  142.0927   80.1853  220.3163 H   0  0  0  0  0  0  0  0  0  0  0  0
  140.6907   80.5264  221.3544 H   0  0  0  0  0  0  0  0  0  0  0  0
  143.5219   80.8916  221.9138 H   0  0  0  0  0  0  0  0  0  0  0  0
  142.0847   81.3284  222.9355 H   0  0  0  0  0  0  0  0  0  0  0  0
  142.0998   78.2291  224.6370 H   0  0  0  0  0  0  0  0  0  0  0  0
  141.2790   79.8355  224.4368 H   0  0  0  0  0  0  0  0  0  0  0  0
  140.6592   77.3453  223.1394 H   0  0  0  0  0  0  0  0  0  0  0  0
  139.8602   78.9179  222.9359 H   0  0  0  0  0  0  0  0  0  0  0  0
  138.5217   69.7022  222.0329 H   0  0  0  0  0  0  0  0  0  0  0  0
  139.0144   68.1915  223.9355 H   0  0  0  0  0  0  0  0  0  0  0  0
  139.8684   67.7902  226.1404 H   0  0  0  0  0  0  0  0  0  0  0  0
  141.5000   71.0893  228.3466 H   0  0  0  0  0  0  0  0  0  0  0  0
  141.0313   72.6648  226.4579 H   0  0  0  0  0  0  0  0  0  0  0  0
  1  2  2  0
  2  3  1  0
  3  4  1  0
  4  5  1  0
  5  6  2  0
  5  7  1  0
  7  8  1  0
  8  9  1  0
  9 10  1  0
 10 11  1  0
 11 12  1  0
 12 13  1  0
 13 14  1  0
 14 15  1  0
 15 16  1  0
 16 17  1  0
 17 18  1  0
  2 19  1  0
 19 20  2  0
 20 21  1  0
 21 22  2  0
 22 23  1  0
 23 24  2  0
 24 25  1  0
 24 26  1  0
 26 27  2  0
 27 28  1  0
 28 29  2  0
 12  7  1  0
 18 13  1  0
 29 19  1  0
 28 22  1  0
  3 30  1  0
  4 31  1  0
  4 32  1  0
  8 33  1  0
  8 34  1  0
  9 35  1  0
  9 36  1  0
 10 37  1  0
 10 38  1  0
 11 39  1  0
 11 40  1  0
 12 41  1  6
 13 42  1  0
 14 43  1  0
 14 44  1  0
 15 45  1  0
 15 46  1  0
 17 47  1  0
 17 48  1  0
 18 49  1  0
 18 50  1  0
 20 51  1  0
 21 52  1  0
 23 53  1  0
 26 54  1  0
 27 55  1  0
M  END
>  <smiles>  (50) 
O=C(NCC(=O)N1CCCCC1C1CCOCC1)c1ccc2cc(Cl)ccc2n1

>  <score_type>  (50) 
oracle

>  <origin>  (50) 
autodockgpu

>  <m_score__min__energy>  (50) 
-8.6799999999999997

>  <m_primary>  (50) 
energy

>  <rmsd>  (50) 
1.9802956688728455

>  <m_score__min__rmsd>  (50) 
1.9802956688728455

>  <meeko>  (50) 
{"free_energy": -8.41, "intermolecular_energy": -9.91, "internal_energy": -1.56, "cluster_size": 30, "cluster_id": 1, "rank_in_cluster": 21}

>  <energy>  (50) 
-7.13

>  <cluster_rmsd>  (50) 
1.94

>  <cluster>  (50) 
3

$$$$

     RDKit          3D

 55 58  0  0  0  0  0  0  0  0999 V2000
  138.8940   72.2840  221.0230 O   0  0  0  0  0  0  0  0  0  0  0  0
  139.6980   72.4740  221.9820 C   0  0  0  0  0  0  0  0  0  0  0  0
  140.5300   73.6210  221.9470 N   0  0  0  0  0  0  0  0  0  0  0  0
  140.5250   74.5930  220.8850 C   0  0  0  0  0  0  0  0  0  0  0  0
  140.7540   75.9790  221.3970 C   0  0  0  0  0  0  0  0  0  0  0  0
  140.1160   76.2580  222.4460 O   0  0  0  0  0  0  0  0  0  0  0  0
  141.6220   76.8470  220.7130 N   0  0  0  0  0  0  0  0  0  0  0  0
  142.4580   76.2060  219.6570 C   0  0  0  0  0  0  0  0  0  0  0  0
  142.1060   76.9240  218.3710 C   0  0  0  0  0  0  0  0  0  0  0  0
  141.0020   77.9330  218.5930 C   0  0  0  0  0  0  0  0  0  0  0  0
  141.3550   78.9560  219.6250 C   0  0  0  0  0  0  0  0  0  0  0  0
  141.8340   78.2420  220.8820 C   0  0  1  0  0  0  0  0  0  0  0  0
  141.4110   78.9240  222.1150 C   0  0  0  0  0  0  0  0  0  0  0  0
  140.2430   79.8300  222.0990 C   0  0  0  0  0  0  0  0  0  0  0  0
  140.6620   81.2460  222.5980 C   0  0  0  0  0  0  0  0  0  0  0  0
  141.0870   81.0740  223.8950 O   0  0  0  0  0  0  0  0  0  0  0  0
  142.3500   80.5140  223.8410 C   0  0  0  0  0  0  0  0  0  0  0  0
  142.6220   79.7500  222.5950 C   0  0  0  0  0  0  0  0  0  0  0  0
  139.7700   71.5280  223.1100 C   0  0  0  0  0  0  0  0  0  0  0  0
  139.2570   70.2610  222.9400 C   0  0  0  0  0  0  0  0  0  0  0  0
  139.3010   69.3310  223.9670 C   0  0  0  0  0  0  0  0  0  0  0  0
  139.8890   69.7620  225.1480 C   0  0  0  0  0  0  0  0  0  0  0  0
  139.9780   68.8960  226.2290 C   0  0  0  0  0  0  0  0  0  0  0  0
  140.5640   69.3280  227.4030 C   0  0  0  0  0  0  0  0  0  0  0  0
  140.6440   68.1840  228.7240 Cl  0  0  0  0  0  0  0  0  0  0  0  0
  141.0710   70.6060  227.5450 C   0  0  0  0  0  0  0  0  0  0  0  0
  140.9750   71.4480  226.4660 C   0  0  0  0  0  0  0  0  0  0  0  0
  140.3900   71.0410  225.2730 C   0  0  0  0  0  0  0  0  0  0  0  0
  140.3350   71.9280  224.2590 N   0  0  0  0  0  0  0  0  0  0  0  0
  141.1850   73.7290  222.7810 H   0  0  0  0  0  0  0  0  0  0  0  0
  141.3218   74.3420  220.1694 H   0  0  0  0  0  0  0  0  0  0  0  0
  139.5365   74.5665  220.4031 H   0  0  0  0  0  0  0  0  0  0  0  0
  143.5269   76.3288  219.8857 H   0  0  0  0  0  0  0  0  0  0  0  0
  142.2676   75.1249  219.5861 H   0  0  0  0  0  0  0  0  0  0  0  0
  142.9986   77.4456  217.9953 H   0  0  0  0  0  0  0  0  0  0  0  0
  141.7560   76.1795  217.6408 H   0  0  0  0  0  0  0  0  0  0  0  0
  140.7990   78.4476  217.6422 H   0  0  0  0  0  0  0  0  0  0  0  0
  140.1193   77.3858  218.9555 H   0  0  0  0  0  0  0  0  0  0  0  0
  142.1551   79.6064  219.2419 H   0  0  0  0  0  0  0  0  0  0  0  0
  140.4731   79.5707  219.8581 H   0  0  0  0  0  0  0  0  0  0  0  0
  142.9209   78.3132  221.0357 H   0  0  0  0  0  0  0  0  0  0  0  0
  141.0715   78.1011  222.7612 H   0  0  0  0  0  0  0  0  0  0  0  0
  139.8541   79.9054  221.0728 H   0  0  0  0  0  0  0  0  0  0  0  0
  139.4641   79.4280  222.7636 H   0  0  0  0  0  0  0  0  0  0  0  0
  141.4775   81.6455  221.9772 H   0  0  0  0  0  0  0  0  0  0  0  0
  139.8284   81.9610  222.5358 H   0  0  0  0  0  0  0  0  0  0  0  0
  143.0906   81.3237  223.9185 H   0  0  0  0  0  0  0  0  0  0  0  0
  142.4154   79.7977  224.6732 H   0  0  0  0  0  0  0  0  0  0  0  0
  142.8976   80.4606  221.8018 H   0  0  0  0  0  0  0  0  0  0  0  0
  143.4350   79.0425  222.8150 H   0  0  0  0  0  0  0  0  0  0  0  0
  138.8061   69.9833  221.9758 H   0  0  0  0  0  0  0  0  0  0  0  0
  138.8952   68.3149  223.8531 H   0  0  0  0  0  0  0  0  0  0  0  0
  139.5843   67.8718  226.1514 H   0  0  0  0  0  0  0  0  0  0  0  0
  141.5337   70.9354  228.4870 H   0  0  0  0  0  0  0  0  0  0  0  0
  141.3711   72.4710  226.5473 H   0  0  0  0  0  0  0  0  0  0  0  0
  1  2  2  0
  2  3  1  0
  3  4  1  0
  4  5  1  0
  5  6  2  0
  5  7  1  0
  7  8  1  0
  8  9  1  0
  9 10  1  0
 10 11  1  0
 11 12  1  0
 12 13  1  0
 13 14  1  0
 14 15  1  0
 15 16  1  0
 16 17  1  0
 17 18  1  0
  2 19  1  0
 19 20  2  0
 20 21  1  0
 21 22  2  0
 22 23  1  0
 23 24  2  0
 24 25  1  0
 24 26  1  0
 26 27  2  0
 27 28  1  0
 28 29  2  0
 12  7  1  0
 18 13  1  0
 29 19  1  0
 28 22  1  0
  3 30  1  0
  4 31  1  0
  4 32  1  0
  8 33  1  0
  8 34  1  0
  9 35  1  0
  9 36  1  0
 10 37  1  0
 10 38  1  0
 11 39  1  0
 11 40  1  0
 12 41  1  6
 13 42  1  0
 14 43  1  0
 14 44  1  0
 15 45  1  0
 15 46  1  0
 17 47  1  0
 17 48  1  0
 18 49  1  0
 18 50  1  0
 20 51  1  0
 21 52  1  0
 23 53  1  0
 26 54  1  0
 27 55  1  0
M  END
>  <smiles>  (51) 
O=C(NCC(=O)N1CCCCC1C1CCOCC1)c1ccc2cc(Cl)ccc2n1

>  <score_type>  (51) 
oracle

>  <origin>  (51) 
autodockgpu

>  <m_score__min__energy>  (51) 
-8.9700000000000006

>  <m_primary>  (51) 
energy

>  <rmsd>  (51) 
2.1930702676941185

>  <m_score__min__rmsd>  (51) 
2.1930702676941185

>  <meeko>  (51) 
{"free_energy": -8.24, "intermolecular_energy": -9.74, "internal_energy": -1.6, "cluster_size": 43, "cluster_id": 1, "rank_in_cluster": 13}

>  <energy>  (51) 
-8.97

>  <cluster_rmsd>  (51) 
0.0

>  <cluster>  (51) 
1

$$$$

     RDKit          3D

 55 58  0  0  0  0  0  0  0  0999 V2000
  138.4490   71.2380  221.1190 O   0  0  0  0  0  0  0  0  0  0  0  0
  139.2890   71.5800  222.0020 C   0  0  0  0  0  0  0  0  0  0  0  0
  140.0430   72.7620  221.7930 N   0  0  0  0  0  0  0  0  0  0  0  0
  139.9190   73.6070  220.6340 C   0  0  0  0  0  0  0  0  0  0  0  0
  140.7590   74.8390  220.7500 C   0  0  0  0  0  0  0  0  0  0  0  0
  140.9440   75.2320  221.9320 O   0  0  0  0  0  0  0  0  0  0  0  0
  141.2650   75.4560  219.5940 N   0  0  0  0  0  0  0  0  0  0  0  0
  140.3510   76.4430  218.9490 C   0  0  0  0  0  0  0  0  0  0  0  0
  141.1090   77.7540  218.9450 C   0  0  0  0  0  0  0  0  0  0  0  0
  142.4360   77.6200  219.6560 C   0  0  0  0  0  0  0  0  0  0  0  0
  143.3100   76.5660  219.0540 C   0  0  0  0  0  0  0  0  0  0  0  0
  142.5120   75.2740  218.9360 C   0  0  1  0  0  0  0  0  0  0  0  0
  143.3300   74.0790  219.1910 C   0  0  0  0  0  0  0  0  0  0  0  0
  144.1060   73.9640  220.4440 C   0  0  0  0  0  0  0  0  0  0  0  0
  145.6150   73.7540  220.1180 C   0  0  0  0  0  0  0  0  0  0  0  0
  145.6860   72.5660  219.4290 O   0  0  0  0  0  0  0  0  0  0  0  0
  145.2490   72.8130  218.1400 C   0  0  0  0  0  0  0  0  0  0  0  0
  144.3330   73.9780  218.0240 C   0  0  0  0  0  0  0  0  0  0  0  0
  139.4820   70.7720  223.2200 C   0  0  0  0  0  0  0  0  0  0  0  0
  139.0230   69.4720  223.2270 C   0  0  0  0  0  0  0  0  0  0  0  0
  139.1810   68.6680  224.3440 C   0  0  0  0  0  0  0  0  0  0  0  0
  139.8210   69.2560  225.4270 C   0  0  0  0  0  0  0  0  0  0  0  0
  140.0230   68.5220  226.5880 C   0  0  0  0  0  0  0  0  0  0  0  0
  140.6620   69.1090  227.6630 C   0  0  0  0  0  0  0  0  0  0  0  0
  140.8840   68.1270  229.0930 Cl  0  0  0  0  0  0  0  0  0  0  0  0
  141.1110   70.4150  227.6270 C   0  0  0  0  0  0  0  0  0  0  0  0
  140.9040   71.1250  226.4710 C   0  0  0  0  0  0  0  0  0  0  0  0
  140.2650   70.5600  225.3740 C   0  0  0  0  0  0  0  0  0  0  0  0
  140.0980   71.3240  224.2750 N   0  0  0  0  0  0  0  0  0  0  0  0
  140.7340   73.0000  222.5690 H   0  0  0  0  0  0  0  0  0  0  0  0
  140.2376   73.0416  219.7459 H   0  0  0  0  0  0  0  0  0  0  0  0
  138.8673   73.9180  220.5496 H   0  0  0  0  0  0  0  0  0  0  0  0
  140.1142   76.1327  217.9206 H   0  0  0  0  0  0  0  0  0  0  0  0
  139.3951   76.5260  219.4869 H   0  0  0  0  0  0  0  0  0  0  0  0
  141.2889   78.0613  217.9042 H   0  0  0  0  0  0  0  0  0  0  0  0
  140.5054   78.5071  219.4728 H   0  0  0  0  0  0  0  0  0  0  0  0
  142.9618   78.5848  219.6044 H   0  0  0  0  0  0  0  0  0  0  0  0
  142.2277   77.3251  220.6951 H   0  0  0  0  0  0  0  0  0  0  0  0
  143.6426   76.8874  218.0560 H   0  0  0  0  0  0  0  0  0  0  0  0
  144.1918   76.4034  219.6912 H   0  0  0  0  0  0  0  0  0  0  0  0
  142.2180   75.0372  217.9028 H   0  0  0  0  0  0  0  0  0  0  0  0
  142.5862   73.2747  219.2902 H   0  0  0  0  0  0  0  0  0  0  0  0
  143.9852   74.8850  221.0333 H   0  0  0  0  0  0  0  0  0  0  0  0
  143.7373   73.1022  221.0196 H   0  0  0  0  0  0  0  0  0  0  0  0
  145.9917   74.5803  219.4972 H   0  0  0  0  0  0  0  0  0  0  0  0
  146.2278   73.7305  221.0312 H   0  0  0  0  0  0  0  0  0  0  0  0
  146.1286   73.0004  217.5067 H   0  0  0  0  0  0  0  0  0  0  0  0
  144.6788   71.9275  217.8225 H   0  0  0  0  0  0  0  0  0  0  0  0
  144.9370   74.8971  218.0013 H   0  0  0  0  0  0  0  0  0  0  0  0
  143.7493   73.8450  217.1011 H   0  0  0  0  0  0  0  0  0  0  0  0
  138.5246   69.0677  222.3336 H   0  0  0  0  0  0  0  0  0  0  0  0
  138.8219   67.6286  224.3713 H   0  0  0  0  0  0  0  0  0  0  0  0
  139.6765   67.4799  226.6515 H   0  0  0  0  0  0  0  0  0  0  0  0
  141.6156   70.8689  228.4927 H   0  0  0  0  0  0  0  0  0  0  0  0
  141.2524   72.1667  226.4113 H   0  0  0  0  0  0  0  0  0  0  0  0
  1  2  2  0
  2  3  1  0
  3  4  1  0
  4  5  1  0
  5  6  2  0
  5  7  1  0
  7  8  1  0
  8  9  1  0
  9 10  1  0
 10 11  1  0
 11 12  1  0
 12 13  1  0
 13 14  1  0
 14 15  1  0
 15 16  1  0
 16 17  1  0
 17 18  1  0
  2 19  1  0
 19 20  2  0
 20 21  1  0
 21 22  2  0
 22 23  1  0
 23 24  2  0
 24 25  1  0
 24 26  1  0
 26 27  2  0
 27 28  1  0
 28 29  2  0
 12  7  1  0
 18 13  1  0
 29 19  1  0
 28 22  1  0
  3 30  1  0
  4 31  1  0
  4 32  1  0
  8 33  1  0
  8 34  1  0
  9 35  1  0
  9 36  1  0
 10 37  1  0
 10 38  1  0
 11 39  1  0
 11 40  1  0
 12 41  1  6
 13 42  1  0
 14 43  1  0
 14 44  1  0
 15 45  1  0
 15 46  1  0
 17 47  1  0
 17 48  1  0
 18 49  1  0
 18 50  1  0
 20 51  1  0
 21 52  1  0
 23 53  1  0
 26 54  1  0
 27 55  1  0
M  END
>  <smiles>  (52) 
O=C(NCC(=O)N1CCCCC1C1CCOCC1)c1ccc2cc(Cl)ccc2n1

>  <score_type>  (52) 
oracle

>  <origin>  (52) 
autodockgpu

>  <m_score__min__energy>  (52) 
-8.9700000000000006

>  <m_primary>  (52) 
energy

>  <rmsd>  (52) 
1.8606905918130978

>  <m_score__min__rmsd>  (52) 
1.8606905918130978

>  <meeko>  (52) 
{"free_energy": -7.5, "intermolecular_energy": -8.99, "internal_energy": -2.04, "cluster_size": 2, "cluster_id": 3, "rank_in_cluster": 2}

>  <energy>  (52) 
-8.97

>  <cluster_rmsd>  (52) 
0.3

>  <cluster>  (52) 
1

$$$$

     RDKit          3D

 55 58  0  0  0  0  0  0  0  0999 V2000
  139.3300   71.8950  220.7220 O   0  0  0  0  0  0  0  0  0  0  0  0
  139.4790   72.3400  221.8970 C   0  0  0  0  0  0  0  0  0  0  0  0
  139.4930   73.7440  222.0910 N   0  0  0  0  0  0  0  0  0  0  0  0
  139.3510   74.7080  221.0310 C   0  0  0  0  0  0  0  0  0  0  0  0
  140.5590   75.5830  220.9090 C   0  0  0  0  0  0  0  0  0  0  0  0
  141.1700   75.7790  221.9920 O   0  0  0  0  0  0  0  0  0  0  0  0
  140.9210   76.1100  219.6580 N   0  0  0  0  0  0  0  0  0  0  0  0
  139.9720   77.1120  219.0920 C   0  0  0  0  0  0  0  0  0  0  0  0
  140.7850   78.3760  218.9020 C   0  0  0  0  0  0  0  0  0  0  0  0
  142.1930   78.2040  219.4250 C   0  0  0  0  0  0  0  0  0  0  0  0
  142.9170   77.0720  218.7680 C   0  0  0  0  0  0  0  0  0  0  0  0
  142.0490   75.8230  218.8410 C   0  0  1  0  0  0  0  0  0  0  0  0
  142.8360   74.5980  219.0480 C   0  0  0  0  0  0  0  0  0  0  0  0
  142.1660   73.3450  219.4540 C   0  0  0  0  0  0  0  0  0  0  0  0
  142.7820   72.8200  220.7860 C   0  0  0  0  0  0  0  0  0  0  0  0
  144.1040   72.5610  220.5100 O   0  0  0  0  0  0  0  0  0  0  0  0
  144.7600   73.7770  220.4670 C   0  0  0  0  0  0  0  0  0  0  0  0
  143.8810   74.9290  220.1340 C   0  0  0  0  0  0  0  0  0  0  0  0
  139.6330   71.4230  223.0410 C   0  0  0  0  0  0  0  0  0  0  0  0
  139.2030   70.1200  222.9030 C   0  0  0  0  0  0  0  0  0  0  0  0
  139.3270   69.2160  223.9460 C   0  0  0  0  0  0  0  0  0  0  0  0
  139.9040   69.7090  225.1090 C   0  0  0  0  0  0  0  0  0  0  0  0
  140.0690   68.8720  226.2040 C   0  0  0  0  0  0  0  0  0  0  0  0
  140.6440   69.3650  227.3590 C   0  0  0  0  0  0  0  0  0  0  0  0
  140.8220   68.2550  228.6990 Cl  0  0  0  0  0  0  0  0  0  0  0  0
  141.0660   70.6760  227.4680 C   0  0  0  0  0  0  0  0  0  0  0  0
  140.8960   71.4890  226.3760 C   0  0  0  0  0  0  0  0  0  0  0  0
  140.3200   71.0200  225.2010 C   0  0  0  0  0  0  0  0  0  0  0  0
  140.1880   71.8820  224.1720 N   0  0  0  0  0  0  0  0  0  0  0  0
  139.6210   74.0590  223.1000 H   0  0  0  0  0  0  0  0  0  0  0  0
  139.2014   74.1734  220.0814 H   0  0  0  0  0  0  0  0  0  0  0  0
  138.4877   75.3483  221.2650 H   0  0  0  0  0  0  0  0  0  0  0  0
  139.5735   76.7626  218.1281 H   0  0  0  0  0  0  0  0  0  0  0  0
  139.1093   77.2770  219.7542 H   0  0  0  0  0  0  0  0  0  0  0  0
  140.8275   78.6175  217.8297 H   0  0  0  0  0  0  0  0  0  0  0  0
  140.3016   79.1889  219.4637 H   0  0  0  0  0  0  0  0  0  0  0  0
  142.7525   79.1333  219.2423 H   0  0  0  0  0  0  0  0  0  0  0  0
  142.1237   77.9762  220.4989 H   0  0  0  0  0  0  0  0  0  0  0  0
  143.1162   77.3223  217.7155 H   0  0  0  0  0  0  0  0  0  0  0  0
  143.8727   76.8923  219.2821 H   0  0  0  0  0  0  0  0  0  0  0  0
  141.5978   75.5495  217.8758 H   0  0  0  0  0  0  0  0  0  0  0  0
  143.2099   74.3583  218.0417 H   0  0  0  0  0  0  0  0  0  0  0  0
  141.0925   73.5362  219.5993 H   0  0  0  0  0  0  0  0  0  0  0  0
  142.3065   72.5886  218.6678 H   0  0  0  0  0  0  0  0  0  0  0  0
  142.6974   73.5827  221.5741 H   0  0  0  0  0  0  0  0  0  0  0  0
  142.2600   71.9218  221.1475 H   0  0  0  0  0  0  0  0  0  0  0  0
  145.2119   73.9609  221.4529 H   0  0  0  0  0  0  0  0  0  0  0  0
  145.5080   73.7059  219.6636 H   0  0  0  0  0  0  0  0  0  0  0  0
  143.3513   75.2406  221.0463 H   0  0  0  0  0  0  0  0  0  0  0  0
  144.5240   75.7289  219.7380 H   0  0  0  0  0  0  0  0  0  0  0  0
  138.7557   69.7939  221.9524 H   0  0  0  0  0  0  0  0  0  0  0  0
  138.9894   68.1728  223.8582 H   0  0  0  0  0  0  0  0  0  0  0  0
  139.7438   67.8225  226.1522 H   0  0  0  0  0  0  0  0  0  0  0  0
  141.5212   71.0538  228.3954 H   0  0  0  0  0  0  0  0  0  0  0  0
  141.2235   72.5376  226.4316 H   0  0  0  0  0  0  0  0  0  0  0  0
  1  2  2  0
  2  3  1  0
  3  4  1  0
  4  5  1  0
  5  6  2  0
  5  7  1  0
  7  8  1  0
  8  9  1  0
  9 10  1  0
 10 11  1  0
 11 12  1  0
 12 13  1  0
 13 14  1  0
 14 15  1  0
 15 16  1  0
 16 17  1  0
 17 18  1  0
  2 19  1  0
 19 20  2  0
 20 21  1  0
 21 22  2  0
 22 23  1  0
 23 24  2  0
 24 25  1  0
 24 26  1  0
 26 27  2  0
 27 28  1  0
 28 29  2  0
 12  7  1  0
 18 13  1  0
 29 19  1  0
 28 22  1  0
  3 30  1  0
  4 31  1  0
  4 32  1  0
  8 33  1  0
  8 34  1  0
  9 35  1  0
  9 36  1  0
 10 37  1  0
 10 38  1  0
 11 39  1  0
 11 40  1  0
 12 41  1  6
 13 42  1  0
 14 43  1  0
 14 44  1  0
 15 45  1  0
 15 46  1  0
 17 47  1  0
 17 48  1  0
 18 49  1  0
 18 50  1  0
 20 51  1  0
 21 52  1  0
 23 53  1  0
 26 54  1  0
 27 55  1  0
M  END
>  <smiles>  (53) 
O=C(NCC(=O)N1CCCCC1C1CCOCC1)c1ccc2cc(Cl)ccc2n1

>  <score_type>  (53) 
oracle

>  <origin>  (53) 
autodockgpu

>  <m_score__min__energy>  (53) 
-8.9700000000000006

>  <m_primary>  (53) 
energy

>  <rmsd>  (53) 
1.8466041867242566

>  <m_score__min__rmsd>  (53) 
1.8466041867242566

>  <meeko>  (53) 
{"free_energy": -7.56, "intermolecular_energy": -9.05, "internal_energy": -2.22, "cluster_size": 43, "cluster_id": 1, "rank_in_cluster": 39}

>  <energy>  (53) 
-8.93

>  <cluster_rmsd>  (53) 
0.2

>  <cluster>  (53) 
1

$$$$

     RDKit          3D

 55 58  0  0  0  0  0  0  0  0999 V2000
  137.7870   71.5770  221.8110 O   0  0  0  0  0  0  0  0  0  0  0  0
  138.7120   71.9040  222.6110 C   0  0  0  0  0  0  0  0  0  0  0  0
  139.3460   73.1590  222.4330 N   0  0  0  0  0  0  0  0  0  0  0  0
  139.0090   74.0960  221.3930 C   0  0  0  0  0  0  0  0  0  0  0  0
  139.7200   75.4000  221.5660 C   0  0  0  0  0  0  0  0  0  0  0  0
  140.8990   75.2950  221.9960 O   0  0  0  0  0  0  0  0  0  0  0  0
  139.0660   76.6040  221.2560 N   0  0  0  0  0  0  0  0  0  0  0  0
  137.7860   76.4570  220.5050 C   0  0  0  0  0  0  0  0  0  0  0  0
  136.7280   77.1000  221.3780 C   0  0  0  0  0  0  0  0  0  0  0  0
  137.3120   77.5610  222.6940 C   0  0  0  0  0  0  0  0  0  0  0  0
  138.4370   78.5320  222.5180 C   0  0  0  0  0  0  0  0  0  0  0  0
  139.4460   77.9450  221.5390 C   0  0  1  0  0  0  0  0  0  0  0  0
  140.8340   78.2750  221.8920 C   0  0  0  0  0  0  0  0  0  0  0  0
  141.3290   78.0350  223.2630 C   0  0  0  0  0  0  0  0  0  0  0  0
  141.8670   79.3640  223.8760 C   0  0  0  0  0  0  0  0  0  0  0  0
  142.9170   79.7460  223.0740 O   0  0  0  0  0  0  0  0  0  0  0  0
  142.3770   80.2780  221.9170 C   0  0  0  0  0  0  0  0  0  0  0  0
  141.0120   79.7800  221.6010 C   0  0  0  0  0  0  0  0  0  0  0  0
  139.1220   71.0040  223.7040 C   0  0  0  0  0  0  0  0  0  0  0  0
  138.8870   69.6530  223.5670 C   0  0  0  0  0  0  0  0  0  0  0  0
  139.2550   68.7620  224.5630 C   0  0  0  0  0  0  0  0  0  0  0  0
  139.8650   69.3200  225.6780 C   0  0  0  0  0  0  0  0  0  0  0  0
  140.2680   68.5000  226.7240 C   0  0  0  0  0  0  0  0  0  0  0  0
  140.8750   69.0590  227.8330 C   0  0  0  0  0  0  0  0  0  0  0  0
  141.3590   67.9690  229.1110 Cl  0  0  0  0  0  0  0  0  0  0  0  0
  141.0980   70.4180  227.9420 C   0  0  0  0  0  0  0  0  0  0  0  0
  140.6930   71.2120  226.8990 C   0  0  0  0  0  0  0  0  0  0  0  0
  140.0810   70.6780  225.7710 C   0  0  0  0  0  0  0  0  0  0  0  0
  139.7120   71.5260  224.7890 N   0  0  0  0  0  0  0  0  0  0  0  0
  140.1160   73.3800  223.1360 H   0  0  0  0  0  0  0  0  0  0  0  0
  139.2892   73.6643  220.4208 H   0  0  0  0  0  0  0  0  0  0  0  0
  137.9271   74.2880  221.4444 H   0  0  0  0  0  0  0  0  0  0  0  0
  137.8484   76.9714  219.5347 H   0  0  0  0  0  0  0  0  0  0  0  0
  137.5554   75.4023  220.2944 H   0  0  0  0  0  0  0  0  0  0  0  0
  136.3051   77.9672  220.8496 H   0  0  0  0  0  0  0  0  0  0  0  0
  135.9468   76.3539  221.5856 H   0  0  0  0  0  0  0  0  0  0  0  0
  136.5178   78.0453  223.2811 H   0  0  0  0  0  0  0  0  0  0  0  0
  137.7147   76.6753  223.2072 H   0  0  0  0  0  0  0  0  0  0  0  0
  138.0471   79.4812  222.1218 H   0  0  0  0  0  0  0  0  0  0  0  0
  138.9229   78.7194  223.4869 H   0  0  0  0  0  0  0  0  0  0  0  0
  139.4244   78.4266  220.5503 H   0  0  0  0  0  0  0  0  0  0  0  0
  141.4271   77.5687  221.2925 H   0  0  0  0  0  0  0  0  0  0  0  0
  140.5064   77.6534  223.8857 H   0  0  0  0  0  0  0  0  0  0  0  0
  142.1441   77.2972  223.2286 H   0  0  0  0  0  0  0  0  0  0  0  0
  141.0814   80.1339  223.8718 H   0  0  0  0  0  0  0  0  0  0  0  0
  142.1825   79.2303  224.9213 H   0  0  0  0  0  0  0  0  0  0  0  0
  142.3289   81.3712  222.0288 H   0  0  0  0  0  0  0  0  0  0  0  0
  143.0293   79.9648  221.0885 H   0  0  0  0  0  0  0  0  0  0  0  0
  140.2855   80.3419  222.2064 H   0  0  0  0  0  0  0  0  0  0  0  0
  140.8509   79.9268  220.5228 H   0  0  0  0  0  0  0  0  0  0  0  0
  138.4008   69.2766  222.6549 H   0  0  0  0  0  0  0  0  0  0  0  0
  139.0749   67.6804  224.4753 H   0  0  0  0  0  0  0  0  0  0  0  0
  140.1053   67.4134  226.6703 H   0  0  0  0  0  0  0  0  0  0  0  0
  141.5821   70.8473  228.8316 H   0  0  0  0  0  0  0  0  0  0  0  0
  140.8567   72.2982  226.9569 H   0  0  0  0  0  0  0  0  0  0  0  0
  1  2  2  0
  2  3  1  0
  3  4  1  0
  4  5  1  0
  5  6  2  0
  5  7  1  0
  7  8  1  0
  8  9  1  0
  9 10  1  0
 10 11  1  0
 11 12  1  0
 12 13  1  0
 13 14  1  0
 14 15  1  0
 15 16  1  0
 16 17  1  0
 17 18  1  0
  2 19  1  0
 19 20  2  0
 20 21  1  0
 21 22  2  0
 22 23  1  0
 23 24  2  0
 24 25  1  0
 24 26  1  0
 26 27  2  0
 27 28  1  0
 28 29  2  0
 12  7  1  0
 18 13  1  0
 29 19  1  0
 28 22  1  0
  3 30  1  0
  4 31  1  0
  4 32  1  0
  8 33  1  0
  8 34  1  0
  9 35  1  0
  9 36  1  0
 10 37  1  0
 10 38  1  0
 11 39  1  0
 11 40  1  0
 12 41  1  6
 13 42  1  0
 14 43  1  0
 14 44  1  0
 15 45  1  0
 15 46  1  0
 17 47  1  0
 17 48  1  0
 18 49  1  0
 18 50  1  0
 20 51  1  0
 21 52  1  0
 23 53  1  0
 26 54  1  0
 27 55  1  0
M  END
>  <smiles>  (54) 
O=C(NCC(=O)N1CCCCC1C1CCOCC1)c1ccc2cc(Cl)ccc2n1

>  <score_type>  (54) 
oracle

>  <origin>  (54) 
autodockgpu

>  <m_score__min__energy>  (54) 
-8.9700000000000006

>  <m_primary>  (54) 
energy

>  <rmsd>  (54) 
2.671284202375218

>  <m_score__min__rmsd>  (54) 
2.671284202375218

>  <meeko>  (54) 
{"free_energy": -7.89, "intermolecular_energy": -9.38, "internal_energy": -1.91, "cluster_size": 43, "cluster_id": 1, "rank_in_cluster": 24}

>  <energy>  (54) 
-8.89

>  <cluster_rmsd>  (54) 
0.29

>  <cluster>  (54) 
1

$$$$

     RDKit          3D

 55 58  0  0  0  0  0  0  0  0999 V2000
  140.9870   72.6990  221.0830 O   0  0  0  0  0  0  0  0  0  0  0  0
  140.2770   72.9090  222.1090 C   0  0  0  0  0  0  0  0  0  0  0  0
  139.5460   74.1200  222.1870 N   0  0  0  0  0  0  0  0  0  0  0  0
  139.5570   75.1390  221.1700 C   0  0  0  0  0  0  0  0  0  0  0  0
  140.1320   76.4240  221.6750 C   0  0  0  0  0  0  0  0  0  0  0  0
  139.5380   76.8990  222.6780 O   0  0  0  0  0  0  0  0  0  0  0  0
  141.2420   76.9980  221.0330 N   0  0  0  0  0  0  0  0  0  0  0  0
  141.8740   76.1530  219.9790 C   0  0  0  0  0  0  0  0  0  0  0  0
  141.7940   76.9680  218.7050 C   0  0  0  0  0  0  0  0  0  0  0  0
  141.0430   78.2610  218.9300 C   0  0  0  0  0  0  0  0  0  0  0  0
  141.6610   79.1090  219.9960 C   0  0  0  0  0  0  0  0  0  0  0  0
  141.8640   78.2590  221.2440 C   0  0  1  0  0  0  0  0  0  0  0  0
  141.6330   79.0140  222.4850 C   0  0  0  0  0  0  0  0  0  0  0  0
  140.4830   79.9360  222.5900 C   0  0  0  0  0  0  0  0  0  0  0  0
  140.9820   81.3710  222.9410 C   0  0  0  0  0  0  0  0  0  0  0  0
  141.5930   81.2640  224.1680 O   0  0  0  0  0  0  0  0  0  0  0  0
  142.8300   80.6810  223.9610 C   0  0  0  0  0  0  0  0  0  0  0  0
  142.9080   79.8460  222.7340 C   0  0  0  0  0  0  0  0  0  0  0  0
  140.2090   71.9190  223.2000 C   0  0  0  0  0  0  0  0  0  0  0  0
  139.6600   70.6830  222.9340 C   0  0  0  0  0  0  0  0  0  0  0  0
  139.5740   69.7160  223.9220 C   0  0  0  0  0  0  0  0  0  0  0  0
  140.0710   70.0760  225.1670 C   0  0  0  0  0  0  0  0  0  0  0  0
  140.0270   69.1670  226.2160 C   0  0  0  0  0  0  0  0  0  0  0  0
  140.5230   69.5300  227.4530 C   0  0  0  0  0  0  0  0  0  0  0  0
  140.4370   68.3360  228.7280 Cl  0  0  0  0  0  0  0  0  0  0  0  0
  141.0670   70.7770  227.6910 C   0  0  0  0  0  0  0  0  0  0  0  0
  141.1030   71.6630  226.6430 C   0  0  0  0  0  0  0  0  0  0  0  0
  140.6120   71.3250  225.3870 C   0  0  0  0  0  0  0  0  0  0  0  0
  140.6840   72.2510  224.4090 N   0  0  0  0  0  0  0  0  0  0  0  0
  138.9660   74.2420  223.0720 H   0  0  0  0  0  0  0  0  0  0  0  0
  140.1621   74.7878  220.3211 H   0  0  0  0  0  0  0  0  0  0  0  0
  138.5172   75.3273  220.8645 H   0  0  0  0  0  0  0  0  0  0  0  0
  142.9227   75.9405  220.2342 H   0  0  0  0  0  0  0  0  0  0  0  0
  141.3664   75.1826  219.8752 H   0  0  0  0  0  0  0  0  0  0  0  0
  142.8133   77.1999  218.3627 H   0  0  0  0  0  0  0  0  0  0  0  0
  141.2554   76.3793  217.9478 H   0  0  0  0  0  0  0  0  0  0  0  0
  141.0328   78.8305  217.9889 H   0  0  0  0  0  0  0  0  0  0  0  0
  140.0260   78.0018  219.2593 H   0  0  0  0  0  0  0  0  0  0  0  0
  142.6316   79.4917  219.6475 H   0  0  0  0  0  0  0  0  0  0  0  0
  141.0018   79.9590  220.2261 H   0  0  0  0  0  0  0  0  0  0  0  0
  142.9161   77.9926  221.4230 H   0  0  0  0  0  0  0  0  0  0  0  0
  141.3863   78.2331  223.2194 H   0  0  0  0  0  0  0  0  0  0  0  0
  139.9471   79.9611  221.6297 H   0  0  0  0  0  0  0  0  0  0  0  0
  139.8082   79.5835  223.3840 H   0  0  0  0  0  0  0  0  0  0  0  0
  141.6993   81.7230  222.1850 H   0  0  0  0  0  0  0  0  0  0  0  0
  140.1536   82.0944  222.9623 H   0  0  0  0  0  0  0  0  0  0  0  0
  143.5806   81.4813  223.8829 H   0  0  0  0  0  0  0  0  0  0  0  0
  143.0121   80.0105  224.8138 H   0  0  0  0  0  0  0  0  0  0  0  0
  143.0683   80.5077  221.8700 H   0  0  0  0  0  0  0  0  0  0  0  0
  143.7391   79.1386  222.8714 H   0  0  0  0  0  0  0  0  0  0  0  0
  139.2852   70.4616  221.9238 H   0  0  0  0  0  0  0  0  0  0  0  0
  139.1387   68.7239  223.7317 H   0  0  0  0  0  0  0  0  0  0  0  0
  139.6001   68.1649  226.0629 H   0  0  0  0  0  0  0  0  0  0  0  0
  141.4567   71.0499  228.6828 H   0  0  0  0  0  0  0  0  0  0  0  0
  141.5305   72.6642  226.8008 H   0  0  0  0  0  0  0  0  0  0  0  0
  1  2  2  0
  2  3  1  0
  3  4  1  0
  4  5  1  0
  5  6  2  0
  5  7  1  0
  7  8  1  0
  8  9  1  0
  9 10  1  0
 10 11  1  0
 11 12  1  0
 12 13  1  0
 13 14  1  0
 14 15  1  0
 15 16  1  0
 16 17  1  0
 17 18  1  0
  2 19  1  0
 19 20  2  0
 20 21  1  0
 21 22  2  0
 22 23  1  0
 23 24  2  0
 24 25  1  0
 24 26  1  0
 26 27  2  0
 27 28  1  0
 28 29  2  0
 12  7  1  0
 18 13  1  0
 29 19  1  0
 28 22  1  0
  3 30  1  0
  4 31  1  0
  4 32  1  0
  8 33  1  0
  8 34  1  0
  9 35  1  0
  9 36  1  0
 10 37  1  0
 10 38  1  0
 11 39  1  0
 11 40  1  0
 12 41  1  1
 13 42  1  0
 14 43  1  0
 14 44  1  0
 15 45  1  0
 15 46  1  0
 17 47  1  0
 17 48  1  0
 18 49  1  0
 18 50  1  0
 20 51  1  0
 21 52  1  0
 23 53  1  0
 26 54  1  0
 27 55  1  0
M  END
>  <smiles>  (55) 
O=C(NCC(=O)N1CCCCC1C1CCOCC1)c1ccc2cc(Cl)ccc2n1

>  <score_type>  (55) 
oracle

>  <origin>  (55) 
autodockgpu

>  <m_score__min__energy>  (55) 
-8.9700000000000006

>  <m_primary>  (55) 
energy

>  <rmsd>  (55) 
2.217492786481953

>  <m_score__min__rmsd>  (55) 
2.217492786481953

>  <meeko>  (55) 
{"free_energy": -8.97, "intermolecular_energy": -10.46, "internal_energy": -1.46, "cluster_size": 43, "cluster_id": 1, "rank_in_cluster": 2}

>  <energy>  (55) 
-8.89

>  <cluster_rmsd>  (55) 
0.37

>  <cluster>  (55) 
1

$$$$

     RDKit          3D

 55 58  0  0  0  0  0  0  0  0999 V2000
  136.5460   77.8610  222.5700 O   0  0  0  0  0  0  0  0  0  0  0  0
  136.7090   76.6950  223.0340 C   0  0  0  0  0  0  0  0  0  0  0  0
  137.8900   75.9910  222.6900 N   0  0  0  0  0  0  0  0  0  0  0  0
  138.9260   76.5160  221.8400 C   0  0  0  0  0  0  0  0  0  0  0  0
  140.1110   75.6050  221.7790 C   0  0  0  0  0  0  0  0  0  0  0  0
  139.9410   74.4920  222.3440 O   0  0  0  0  0  0  0  0  0  0  0  0
  141.2860   76.0220  221.1310 N   0  0  0  0  0  0  0  0  0  0  0  0
  142.1930   74.9230  220.6890 C   0  0  0  0  0  0  0  0  0  0  0  0
  142.3260   75.0870  219.1900 C   0  0  0  0  0  0  0  0  0  0  0  0
  141.4490   76.2090  218.6830 C   0  0  0  0  0  0  0  0  0  0  0  0
  141.7560   77.5210  219.3320 C   0  0  0  0  0  0  0  0  0  0  0  0
  141.7490   77.3350  220.8440 C   0  0  1  0  0  0  0  0  0  0  0  0
  141.2010   78.4990  221.5540 C   0  0  0  0  0  0  0  0  0  0  0  0
  141.6920   79.8580  221.2430 C   0  0  0  0  0  0  0  0  0  0  0  0
  142.2420   80.5330  222.5360 C   0  0  0  0  0  0  0  0  0  0  0  0
  141.1720   80.6220  223.3950 O   0  0  0  0  0  0  0  0  0  0  0  0
  140.9610   79.3600  223.9190 C   0  0  0  0  0  0  0  0  0  0  0  0
  141.4550   78.2550  223.0560 C   0  0  0  0  0  0  0  0  0  0  0  0
  135.6970   76.0800  223.9120 C   0  0  0  0  0  0  0  0  0  0  0  0
  134.7540   76.8950  224.5010 C   0  0  0  0  0  0  0  0  0  0  0  0
  133.7790   76.3680  225.3330 C   0  0  0  0  0  0  0  0  0  0  0  0
  133.8210   74.9940  225.5200 C   0  0  0  0  0  0  0  0  0  0  0  0
  132.8800   74.3810  226.3370 C   0  0  0  0  0  0  0  0  0  0  0  0
  132.9240   73.0120  226.5200 C   0  0  0  0  0  0  0  0  0  0  0  0
  131.7080   72.3070  227.5600 Cl  0  0  0  0  0  0  0  0  0  0  0  0
  133.8810   72.2200  225.9150 C   0  0  0  0  0  0  0  0  0  0  0  0
  134.8030   72.8430  225.1110 C   0  0  0  0  0  0  0  0  0  0  0  0
  134.7820   74.2170  224.9080 C   0  0  0  0  0  0  0  0  0  0  0  0
  135.7230   74.7530  224.1040 N   0  0  0  0  0  0  0  0  0  0  0  0
  137.9720   75.0150  223.1100 H   0  0  0  0  0  0  0  0  0  0  0  0
  138.5226   76.6436  220.8246 H   0  0  0  0  0  0  0  0  0  0  0  0
  139.2562   77.4781  222.2587 H   0  0  0  0  0  0  0  0  0  0  0  0
  143.1755   75.0166  221.1747 H   0  0  0  0  0  0  0  0  0  0  0  0
  141.7958   73.9330  220.9577 H   0  0  0  0  0  0  0  0  0  0  0  0
  143.3745   75.3125  218.9453 H   0  0  0  0  0  0  0  0  0  0  0  0
  142.0079   74.1510  218.7076 H   0  0  0  0  0  0  0  0  0  0  0  0
  141.5989   76.3097  217.5979 H   0  0  0  0  0  0  0  0  0  0  0  0
  140.4077   75.9530  218.9283 H   0  0  0  0  0  0  0  0  0  0  0  0
  142.7470   77.8711  219.0073 H   0  0  0  0  0  0  0  0  0  0  0  0
  140.9999   78.2662  219.0439 H   0  0  0  0  0  0  0  0  0  0  0  0
  142.7547   77.3487  221.2895 H   0  0  0  0  0  0  0  0  0  0  0  0
  140.1545   78.5361  221.2171 H   0  0  0  0  0  0  0  0  0  0  0  0
  142.4962   79.7929  220.4953 H   0  0  0  0  0  0  0  0  0  0  0  0
  140.8620   80.4604  220.8453 H   0  0  0  0  0  0  0  0  0  0  0  0
  143.0395   79.9187  222.9795 H   0  0  0  0  0  0  0  0  0  0  0  0
  142.6752   81.5217  222.3243 H   0  0  0  0  0  0  0  0  0  0  0  0
  141.4763   79.2979  224.8888 H   0  0  0  0  0  0  0  0  0  0  0  0
  139.8722   79.2310  224.0079 H   0  0  0  0  0  0  0  0  0  0  0  0
  142.5379   78.1448  223.2143 H   0  0  0  0  0  0  0  0  0  0  0  0
  140.9024   77.3468  223.3384 H   0  0  0  0  0  0  0  0  0  0  0  0
  134.7757   77.9777  224.3081 H   0  0  0  0  0  0  0  0  0  0  0  0
  133.0188   77.0001  225.8153 H   0  0  0  0  0  0  0  0  0  0  0  0
  132.1046   74.9814  226.8353 H   0  0  0  0  0  0  0  0  0  0  0  0
  133.9033   71.1314  226.0716 H   0  0  0  0  0  0  0  0  0  0  0  0
  135.5775   72.2393  224.6153 H   0  0  0  0  0  0  0  0  0  0  0  0
  1  2  2  0
  2  3  1  0
  3  4  1  0
  4  5  1  0
  5  6  2  0
  5  7  1  0
  7  8  1  0
  8  9  1  0
  9 10  1  0
 10 11  1  0
 11 12  1  0
 12 13  1  0
 13 14  1  0
 14 15  1  0
 15 16  1  0
 16 17  1  0
 17 18  1  0
  2 19  1  0
 19 20  2  0
 20 21  1  0
 21 22  2  0
 22 23  1  0
 23 24  2  0
 24 25  1  0
 24 26  1  0
 26 27  2  0
 27 28  1  0
 28 29  2  0
 12  7  1  0
 18 13  1  0
 29 19  1  0
 28 22  1  0
  3 30  1  0
  4 31  1  0
  4 32  1  0
  8 33  1  0
  8 34  1  0
  9 35  1  0
  9 36  1  0
 10 37  1  0
 10 38  1  0
 11 39  1  0
 11 40  1  0
 12 41  1  1
 13 42  1  0
 14 43  1  0
 14 44  1  0
 15 45  1  0
 15 46  1  0
 17 47  1  0
 17 48  1  0
 18 49  1  0
 18 50  1  0
 20 51  1  0
 21 52  1  0
 23 53  1  0
 26 54  1  0
 27 55  1  0
M  END
>  <smiles>  (56) 
O=C(NCC(=O)N1CCCCC1C1CCOCC1)c1ccc2cc(Cl)ccc2n1

>  <score_type>  (56) 
oracle

>  <origin>  (56) 
autodockgpu

>  <m_score__min__energy>  (56) 
-8.9700000000000006

>  <m_primary>  (56) 
energy

>  <rmsd>  (56) 
5.9166384480806595

>  <m_score__min__rmsd>  (56) 
5.9166384480806595

>  <meeko>  (56) 
{"free_energy": -7.27, "intermolecular_energy": -8.76, "internal_energy": -2.09, "cluster_size": 2, "cluster_id": 4, "rank_in_cluster": 1}

>  <energy>  (56) 
-8.83

>  <cluster_rmsd>  (56) 
0.41

>  <cluster>  (56) 
1

$$$$

     RDKit          3D

 55 58  0  0  0  0  0  0  0  0999 V2000
  139.2990   71.8700  220.9020 O   0  0  0  0  0  0  0  0  0  0  0  0
  139.4490   72.3010  222.0820 C   0  0  0  0  0  0  0  0  0  0  0  0
  139.4150   73.7010  222.2990 N   0  0  0  0  0  0  0  0  0  0  0  0
  139.2220   74.6760  221.2570 C   0  0  0  0  0  0  0  0  0  0  0  0
  140.3700   75.6310  221.1690 C   0  0  0  0  0  0  0  0  0  0  0  0
  140.6190   76.2450  222.2390 O   0  0  0  0  0  0  0  0  0  0  0  0
  141.0660   75.7820  219.9580 N   0  0  0  0  0  0  0  0  0  0  0  0
  140.2720   76.3620  218.8360 C   0  0  0  0  0  0  0  0  0  0  0  0
  141.0090   77.6210  218.4280 C   0  0  0  0  0  0  0  0  0  0  0  0
  142.1920   77.8800  219.3340 C   0  0  0  0  0  0  0  0  0  0  0  0
  143.1660   76.7450  219.3500 C   0  0  0  0  0  0  0  0  0  0  0  0
  142.4110   75.4530  219.6340 C   0  0  1  0  0  0  0  0  0  0  0  0
  143.1800   74.5210  220.4720 C   0  0  0  0  0  0  0  0  0  0  0  0
  144.6580   74.5550  220.4560 C   0  0  0  0  0  0  0  0  0  0  0  0
  145.2170   73.1550  220.0600 C   0  0  0  0  0  0  0  0  0  0  0  0
  144.7930   72.2920  221.0430 O   0  0  0  0  0  0  0  0  0  0  0  0
  143.4550   72.0310  220.8100 C   0  0  0  0  0  0  0  0  0  0  0  0
  142.7520   73.1000  220.0520 C   0  0  0  0  0  0  0  0  0  0  0  0
  139.6540   71.3720  223.2080 C   0  0  0  0  0  0  0  0  0  0  0  0
  139.3240   70.0450  223.0350 C   0  0  0  0  0  0  0  0  0  0  0  0
  139.4990   69.1290  224.0600 C   0  0  0  0  0  0  0  0  0  0  0  0
  140.0200   69.6360  225.2430 C   0  0  0  0  0  0  0  0  0  0  0  0
  140.2300   68.7880  226.3220 C   0  0  0  0  0  0  0  0  0  0  0  0
  140.7490   69.2960  227.4970 C   0  0  0  0  0  0  0  0  0  0  0  0
  140.9900   68.1720  228.8150 Cl  0  0  0  0  0  0  0  0  0  0  0  0
  141.0710   70.6320  227.6420 C   0  0  0  0  0  0  0  0  0  0  0  0
  140.8570   71.4560  226.5640 C   0  0  0  0  0  0  0  0  0  0  0  0
  140.3360   70.9720  225.3700 C   0  0  0  0  0  0  0  0  0  0  0  0
  140.1560   71.8450  224.3580 N   0  0  0  0  0  0  0  0  0  0  0  0
  139.5460   74.0050  223.3120 H   0  0  0  0  0  0  0  0  0  0  0  0
  139.1196   74.1530  220.2947 H   0  0  0  0  0  0  0  0  0  0  0  0
  138.3154   75.2526  221.4925 H   0  0  0  0  0  0  0  0  0  0  0  0
  140.2227   75.6555  217.9944 H   0  0  0  0  0  0  0  0  0  0  0  0
  139.2355   76.5748  219.1366 H   0  0  0  0  0  0  0  0  0  0  0  0
  141.3669   77.5082  217.3940 H   0  0  0  0  0  0  0  0  0  0  0  0
  140.3162   78.4716  218.5079 H   0  0  0  0  0  0  0  0  0  0  0  0
  142.7114   78.7846  218.9847 H   0  0  0  0  0  0  0  0  0  0  0  0
  141.8067   78.0017  220.3571 H   0  0  0  0  0  0  0  0  0  0  0  0
  143.6662   76.6735  218.3729 H   0  0  0  0  0  0  0  0  0  0  0  0
  143.9234   76.9139  220.1297 H   0  0  0  0  0  0  0  0  0  0  0  0
  142.3056   74.8078  218.7493 H   0  0  0  0  0  0  0  0  0  0  0  0
  142.9405   74.8390  221.4974 H   0  0  0  0  0  0  0  0  0  0  0  0
  144.9976   75.3034  219.7249 H   0  0  0  0  0  0  0  0  0  0  0  0
  145.0248   74.8209  221.4583 H   0  0  0  0  0  0  0  0  0  0  0  0
  144.8199   72.8465  219.0817 H   0  0  0  0  0  0  0  0  0  0  0  0
  146.3137   73.1655  219.9751 H   0  0  0  0  0  0  0  0  0  0  0  0
  143.3801   71.0948  220.2373 H   0  0  0  0  0  0  0  0  0  0  0  0
  142.9678   71.9665  221.7941 H   0  0  0  0  0  0  0  0  0  0  0  0
  142.9695   72.9709  218.9815 H   0  0  0  0  0  0  0  0  0  0  0  0
  141.6779   73.0035  220.2687 H   0  0  0  0  0  0  0  0  0  0  0  0
  138.9163   69.7086  222.0704 H   0  0  0  0  0  0  0  0  0  0  0  0
  139.2411   68.0660  223.9437 H   0  0  0  0  0  0  0  0  0  0  0  0
  139.9847   67.7187  226.2418 H   0  0  0  0  0  0  0  0  0  0  0  0
  141.4830   71.0209  228.5849 H   0  0  0  0  0  0  0  0  0  0  0  0
  141.1039   72.5246  226.6478 H   0  0  0  0  0  0  0  0  0  0  0  0
  1  2  2  0
  2  3  1  0
  3  4  1  0
  4  5  1  0
  5  6  2  0
  5  7  1  0
  7  8  1  0
  8  9  1  0
  9 10  1  0
 10 11  1  0
 11 12  1  0
 12 13  1  0
 13 14  1  0
 14 15  1  0
 15 16  1  0
 16 17  1  0
 17 18  1  0
  2 19  1  0
 19 20  2  0
 20 21  1  0
 21 22  2  0
 22 23  1  0
 23 24  2  0
 24 25  1  0
 24 26  1  0
 26 27  2  0
 27 28  1  0
 28 29  2  0
 12  7  1  0
 18 13  1  0
 29 19  1  0
 28 22  1  0
  3 30  1  0
  4 31  1  0
  4 32  1  0
  8 33  1  0
  8 34  1  0
  9 35  1  0
  9 36  1  0
 10 37  1  0
 10 38  1  0
 11 39  1  0
 11 40  1  0
 12 41  1  6
 13 42  1  0
 14 43  1  0
 14 44  1  0
 15 45  1  0
 15 46  1  0
 17 47  1  0
 17 48  1  0
 18 49  1  0
 18 50  1  0
 20 51  1  0
 21 52  1  0
 23 53  1  0
 26 54  1  0
 27 55  1  0
M  END
>  <smiles>  (57) 
O=C(NCC(=O)N1CCCCC1C1CCOCC1)c1ccc2cc(Cl)ccc2n1

>  <score_type>  (57) 
oracle

>  <origin>  (57) 
autodockgpu

>  <m_score__min__energy>  (57) 
-8.9700000000000006

>  <m_primary>  (57) 
energy

>  <rmsd>  (57) 
1.7308353541472596

>  <m_score__min__rmsd>  (57) 
1.7308353541472596

>  <meeko>  (57) 
{"free_energy": -7.89, "intermolecular_energy": -9.38, "internal_energy": -2.06, "cluster_size": 43, "cluster_id": 1, "rank_in_cluster": 23}

>  <energy>  (57) 
-8.83

>  <cluster_rmsd>  (57) 
0.31

>  <cluster>  (57) 
1

$$$$

     RDKit          3D

 55 58  0  0  0  0  0  0  0  0999 V2000
  138.2810   71.6640  221.3050 O   0  0  0  0  0  0  0  0  0  0  0  0
  138.9070   72.0860  222.3210 C   0  0  0  0  0  0  0  0  0  0  0  0
  139.3150   73.4430  222.3470 N   0  0  0  0  0  0  0  0  0  0  0  0
  139.0650   74.3840  221.2850 C   0  0  0  0  0  0  0  0  0  0  0  0
  140.1010   75.4620  221.2410 C   0  0  0  0  0  0  0  0  0  0  0  0
  141.0900   75.2630  221.9940 O   0  0  0  0  0  0  0  0  0  0  0  0
  139.9180   76.5780  220.4080 N   0  0  0  0  0  0  0  0  0  0  0  0
  139.2370   76.2980  219.1110 C   0  0  0  0  0  0  0  0  0  0  0  0
  137.9960   77.1670  219.1100 C   0  0  0  0  0  0  0  0  0  0  0  0
  137.8490   77.9100  220.4180 C   0  0  0  0  0  0  0  0  0  0  0  0
  139.0310   78.7720  220.7290 C   0  0  0  0  0  0  0  0  0  0  0  0
  140.2970   77.9340  220.6070 C   0  0  1  0  0  0  0  0  0  0  0  0
  141.3120   78.2930  221.6080 C   0  0  0  0  0  0  0  0  0  0  0  0
  141.0310   78.1120  223.0480 C   0  0  0  0  0  0  0  0  0  0  0  0
  141.1930   79.4690  223.7970 C   0  0  0  0  0  0  0  0  0  0  0  0
  142.5100   79.8310  223.6330 O   0  0  0  0  0  0  0  0  0  0  0  0
  142.6450   80.3110  222.3430 C   0  0  0  0  0  0  0  0  0  0  0  0
  141.6300   79.7870  221.3910 C   0  0  0  0  0  0  0  0  0  0  0  0
  139.2070   71.1910  223.4530 C   0  0  0  0  0  0  0  0  0  0  0  0
  138.8480   69.8640  223.3550 C   0  0  0  0  0  0  0  0  0  0  0  0
  139.1090   68.9780  224.3890 C   0  0  0  0  0  0  0  0  0  0  0  0
  139.7450   69.5150  225.5000 C   0  0  0  0  0  0  0  0  0  0  0  0
  140.0460   68.6990  226.5820 C   0  0  0  0  0  0  0  0  0  0  0  0
  140.6790   69.2370  227.6860 C   0  0  0  0  0  0  0  0  0  0  0  0
  141.0310   68.1520  229.0110 Cl  0  0  0  0  0  0  0  0  0  0  0  0
  141.0280   70.5720  227.7560 C   0  0  0  0  0  0  0  0  0  0  0  0
  140.7220   71.3640  226.6770 C   0  0  0  0  0  0  0  0  0  0  0  0
  140.0860   70.8500  225.5530 C   0  0  0  0  0  0  0  0  0  0  0  0
  139.8210   71.6930  224.5340 N   0  0  0  0  0  0  0  0  0  0  0  0
  139.8370   73.7410  223.2260 H   0  0  0  0  0  0  0  0  0  0  0  0
  139.0696   73.8467  220.3251 H   0  0  0  0  0  0  0  0  0  0  0  0
  138.0888   74.8561  221.4700 H   0  0  0  0  0  0  0  0  0  0  0  0
  139.8921   76.5623  218.2678 H   0  0  0  0  0  0  0  0  0  0  0  0
  138.9889   75.2319  219.0019 H   0  0  0  0  0  0  0  0  0  0  0  0
  138.0688   77.8959  218.2894 H   0  0  0  0  0  0  0  0  0  0  0  0
  137.1170   76.5194  218.9761 H   0  0  0  0  0  0  0  0  0  0  0  0
  136.9540   78.5471  220.3620 H   0  0  0  0  0  0  0  0  0  0  0  0
  137.7655   77.1599  221.2182 H   0  0  0  0  0  0  0  0  0  0  0  0
  139.0735   79.6110  220.0189 H   0  0  0  0  0  0  0  0  0  0  0  0
  138.9440   79.1701  221.7507 H   0  0  0  0  0  0  0  0  0  0  0  0
  140.8868   78.1646  219.7076 H   0  0  0  0  0  0  0  0  0  0  0  0
  142.1213   77.5709  221.4249 H   0  0  0  0  0  0  0  0  0  0  0  0
  140.0014   77.7463  223.1751 H   0  0  0  0  0  0  0  0  0  0  0  0
  141.7402   77.3821  223.4655 H   0  0  0  0  0  0  0  0  0  0  0  0
  140.5291   80.2296  223.3602 H   0  0  0  0  0  0  0  0  0  0  0  0
  140.9264   79.3796  224.8605 H   0  0  0  0  0  0  0  0  0  0  0  0
  142.5585   81.4072  222.3715 H   0  0  0  0  0  0  0  0  0  0  0  0
  143.6261   79.9716  221.9793 H   0  0  0  0  0  0  0  0  0  0  0  0
  140.7020   80.3643  221.5157 H   0  0  0  0  0  0  0  0  0  0  0  0
  142.0460   79.8903  220.3779 H   0  0  0  0  0  0  0  0  0  0  0  0
  138.3478   69.5030  222.4443 H   0  0  0  0  0  0  0  0  0  0  0  0
  138.8295   67.9156  224.3326 H   0  0  0  0  0  0  0  0  0  0  0  0
  139.7823   67.6313  226.5605 H   0  0  0  0  0  0  0  0  0  0  0  0
  141.5319   70.9847  228.6425 H   0  0  0  0  0  0  0  0  0  0  0  0
  140.9866   72.4314  226.7027 H   0  0  0  0  0  0  0  0  0  0  0  0
  1  2  2  0
  2  3  1  0
  3  4  1  0
  4  5  1  0
  5  6  2  0
  5  7  1  0
  7  8  1  0
  8  9  1  0
  9 10  1  0
 10 11  1  0
 11 12  1  0
 12 13  1  0
 13 14  1  0
 14 15  1  0
 15 16  1  0
 16 17  1  0
 17 18  1  0
  2 19  1  0
 19 20  2  0
 20 21  1  0
 21 22  2  0
 22 23  1  0
 23 24  2  0
 24 25  1  0
 24 26  1  0
 26 27  2  0
 27 28  1  0
 28 29  2  0
 12  7  1  0
 18 13  1  0
 29 19  1  0
 28 22  1  0
  3 30  1  0
  4 31  1  0
  4 32  1  0
  8 33  1  0
  8 34  1  0
  9 35  1  0
  9 36  1  0
 10 37  1  0
 10 38  1  0
 11 39  1  0
 11 40  1  0
 12 41  1  6
 13 42  1  0
 14 43  1  0
 14 44  1  0
 15 45  1  0
 15 46  1  0
 17 47  1  0
 17 48  1  0
 18 49  1  0
 18 50  1  0
 20 51  1  0
 21 52  1  0
 23 53  1  0
 26 54  1  0
 27 55  1  0
M  END
>  <smiles>  (58) 
O=C(NCC(=O)N1CCCCC1C1CCOCC1)c1ccc2cc(Cl)ccc2n1

>  <score_type>  (58) 
oracle

>  <origin>  (58) 
autodockgpu

>  <m_score__min__energy>  (58) 
-8.9700000000000006

>  <m_primary>  (58) 
energy

>  <rmsd>  (58) 
1.8521646004009942

>  <m_score__min__rmsd>  (58) 
1.8521646004009942

>  <meeko>  (58) 
{"free_energy": -7.8, "intermolecular_energy": -9.3, "internal_energy": -2.04, "cluster_size": 43, "cluster_id": 1, "rank_in_cluster": 32}

>  <energy>  (58) 
-8.75

>  <cluster_rmsd>  (58) 
0.32

>  <cluster>  (58) 
1

$$$$

     RDKit          3D

 55 58  0  0  0  0  0  0  0  0999 V2000
  140.5960   72.3140  220.9060 O   0  0  0  0  0  0  0  0  0  0  0  0
  140.0130   72.5780  221.9970 C   0  0  0  0  0  0  0  0  0  0  0  0
  139.3460   73.8220  222.1220 N   0  0  0  0  0  0  0  0  0  0  0  0
  139.2870   74.8160  221.0830 C   0  0  0  0  0  0  0  0  0  0  0  0
  140.5710   75.5740  220.9640 C   0  0  0  0  0  0  0  0  0  0  0  0
  140.9610   76.1060  222.0360 O   0  0  0  0  0  0  0  0  0  0  0  0
  141.2310   75.6480  219.7260 N   0  0  0  0  0  0  0  0  0  0  0  0
  140.4160   76.1940  218.6020 C   0  0  0  0  0  0  0  0  0  0  0  0
  141.1710   77.4120  218.1100 C   0  0  0  0  0  0  0  0  0  0  0  0
  142.3880   77.6830  218.9650 C   0  0  0  0  0  0  0  0  0  0  0  0
  143.3340   76.5240  219.0070 C   0  0  0  0  0  0  0  0  0  0  0  0
  142.5560   75.2680  219.3780 C   0  0  1  0  0  0  0  0  0  0  0  0
  143.3290   74.3580  220.2360 C   0  0  0  0  0  0  0  0  0  0  0  0
  144.7700   74.5950  220.4620 C   0  0  0  0  0  0  0  0  0  0  0  0
  145.5890   73.3410  220.0300 C   0  0  0  0  0  0  0  0  0  0  0  0
  145.1640   72.3180  220.8440 O   0  0  0  0  0  0  0  0  0  0  0  0
  143.9300   71.9060  220.3740 C   0  0  0  0  0  0  0  0  0  0  0  0
  143.1900   72.9510  219.6180 C   0  0  0  0  0  0  0  0  0  0  0  0
  140.0260   71.6170  223.1160 C   0  0  0  0  0  0  0  0  0  0  0  0
  139.5300   70.3490  222.8990 C   0  0  0  0  0  0  0  0  0  0  0  0
  139.5210   69.4060  223.9150 C   0  0  0  0  0  0  0  0  0  0  0  0
  140.0360   69.8240  225.1340 C   0  0  0  0  0  0  0  0  0  0  0  0
  140.0670   68.9440  226.2070 C   0  0  0  0  0  0  0  0  0  0  0  0
  140.5810   69.3640  227.4190 C   0  0  0  0  0  0  0  0  0  0  0  0
  140.5910   68.2030  228.7260 Cl  0  0  0  0  0  0  0  0  0  0  0  0
  141.0710   70.6420  227.6060 C   0  0  0  0  0  0  0  0  0  0  0  0
  141.0330   71.4980  226.5340 C   0  0  0  0  0  0  0  0  0  0  0  0
  140.5220   71.1040  225.3040 C   0  0  0  0  0  0  0  0  0  0  0  0
  140.5200   72.0050  224.3000 N   0  0  0  0  0  0  0  0  0  0  0  0
  138.8730   73.9880  223.0630 H   0  0  0  0  0  0  0  0  0  0  0  0
  139.0781   74.3174  220.1250 H   0  0  0  0  0  0  0  0  0  0  0  0
  138.4912   75.5308  221.3393 H   0  0  0  0  0  0  0  0  0  0  0  0
  140.3219   75.4492  217.7980 H   0  0  0  0  0  0  0  0  0  0  0  0
  139.3953   76.4486  218.9236 H   0  0  0  0  0  0  0  0  0  0  0  0
  141.4927   77.2398  217.0723 H   0  0  0  0  0  0  0  0  0  0  0  0
  140.5026   78.2836  218.1693 H   0  0  0  0  0  0  0  0  0  0  0  0
  142.9184   78.5555  218.5558 H   0  0  0  0  0  0  0  0  0  0  0  0
  142.0387   77.8642  219.9922 H   0  0  0  0  0  0  0  0  0  0  0  0
  143.8005   76.3917  218.0197 H   0  0  0  0  0  0  0  0  0  0  0  0
  144.1203   76.7105  219.7533 H   0  0  0  0  0  0  0  0  0  0  0  0
  142.4047   74.5829  218.5308 H   0  0  0  0  0  0  0  0  0  0  0  0
  142.8971   74.5173  221.2350 H   0  0  0  0  0  0  0  0  0  0  0  0
  145.0939   75.4637  219.8700 H   0  0  0  0  0  0  0  0  0  0  0  0
  144.9415   74.7884  221.5312 H   0  0  0  0  0  0  0  0  0  0  0  0
  145.3912   73.0989  218.9754 H   0  0  0  0  0  0  0  0  0  0  0  0
  146.6715   73.5116  220.1255 H   0  0  0  0  0  0  0  0  0  0  0  0
  144.0836   71.0425  219.7100 H   0  0  0  0  0  0  0  0  0  0  0  0
  143.3201   71.6598  221.2557 H   0  0  0  0  0  0  0  0  0  0  0  0
  143.5789   72.9804  218.5895 H   0  0  0  0  0  0  0  0  0  0  0  0
  142.1234   72.6837  219.6476 H   0  0  0  0  0  0  0  0  0  0  0  0
  139.1364   70.0823  221.9071 H   0  0  0  0  0  0  0  0  0  0  0  0
  139.1298   68.3890  223.7643 H   0  0  0  0  0  0  0  0  0  0  0  0
  139.6848   67.9188  226.0933 H   0  0  0  0  0  0  0  0  0  0  0  0
  141.4763   70.9614  228.5774 H   0  0  0  0  0  0  0  0  0  0  0  0
  141.4170   72.5221  226.6518 H   0  0  0  0  0  0  0  0  0  0  0  0
  1  2  2  0
  2  3  1  0
  3  4  1  0
  4  5  1  0
  5  6  2  0
  5  7  1  0
  7  8  1  0
  8  9  1  0
  9 10  1  0
 10 11  1  0
 11 12  1  0
 12 13  1  0
 13 14  1  0
 14 15  1  0
 15 16  1  0
 16 17  1  0
 17 18  1  0
  2 19  1  0
 19 20  2  0
 20 21  1  0
 21 22  2  0
 22 23  1  0
 23 24  2  0
 24 25  1  0
 24 26  1  0
 26 27  2  0
 27 28  1  0
 28 29  2  0
 12  7  1  0
 18 13  1  0
 29 19  1  0
 28 22  1  0
  3 30  1  0
  4 31  1  0
  4 32  1  0
  8 33  1  0
  8 34  1  0
  9 35  1  0
  9 36  1  0
 10 37  1  0
 10 38  1  0
 11 39  1  0
 11 40  1  0
 12 41  1  6
 13 42  1  0
 14 43  1  0
 14 44  1  0
 15 45  1  0
 15 46  1  0
 17 47  1  0
 17 48  1  0
 18 49  1  0
 18 50  1  0
 20 51  1  0
 21 52  1  0
 23 53  1  0
 26 54  1  0
 27 55  1  0
M  END
>  <smiles>  (59) 
O=C(NCC(=O)N1CCCCC1C1CCOCC1)c1ccc2cc(Cl)ccc2n1

>  <score_type>  (59) 
oracle

>  <origin>  (59) 
autodockgpu

>  <m_score__min__energy>  (59) 
-8.9700000000000006

>  <m_primary>  (59) 
energy

>  <rmsd>  (59) 
1.838043845022698

>  <m_score__min__rmsd>  (59) 
1.838043845022698

>  <meeko>  (59) 
{"free_energy": -8.04, "intermolecular_energy": -9.53, "internal_energy": -1.81, "cluster_size": 43, "cluster_id": 1, "rank_in_cluster": 16}

>  <energy>  (59) 
-8.7

>  <cluster_rmsd>  (59) 
0.49

>  <cluster>  (59) 
1

$$$$

     RDKit          3D

 55 58  0  0  0  0  0  0  0  0999 V2000
  139.3780   71.9700  220.8640 O   0  0  0  0  0  0  0  0  0  0  0  0
  139.4970   72.3830  222.0540 C   0  0  0  0  0  0  0  0  0  0  0  0
  139.4370   73.7790  222.2930 N   0  0  0  0  0  0  0  0  0  0  0  0
  139.2510   74.7690  221.2640 C   0  0  0  0  0  0  0  0  0  0  0  0
  140.4370   75.6720  221.1390 C   0  0  0  0  0  0  0  0  0  0  0  0
  140.7200   76.3050  222.1890 O   0  0  0  0  0  0  0  0  0  0  0  0
  141.1290   75.7580  219.9190 N   0  0  0  0  0  0  0  0  0  0  0  0
  140.3900   76.4370  218.8160 C   0  0  0  0  0  0  0  0  0  0  0  0
  141.2580   77.6090  218.4100 C   0  0  0  0  0  0  0  0  0  0  0  0
  142.4750   77.7230  219.3000 C   0  0  0  0  0  0  0  0  0  0  0  0
  143.3150   76.4860  219.2900 C   0  0  0  0  0  0  0  0  0  0  0  0
  142.4240   75.2830  219.5720 C   0  0  1  0  0  0  0  0  0  0  0  0
  143.0950   74.2610  220.3890 C   0  0  0  0  0  0  0  0  0  0  0  0
  144.5710   74.1900  220.4230 C   0  0  0  0  0  0  0  0  0  0  0  0
  145.0450   72.7730  219.9780 C   0  0  0  0  0  0  0  0  0  0  0  0
  144.5260   71.8980  220.9030 O   0  0  0  0  0  0  0  0  0  0  0  0
  143.1830   71.7450  220.6140 C   0  0  0  0  0  0  0  0  0  0  0  0
  142.5840   72.8950  219.8870 C   0  0  0  0  0  0  0  0  0  0  0  0
  139.6920   71.4380  223.1690 C   0  0  0  0  0  0  0  0  0  0  0  0
  139.3450   70.1180  222.9810 C   0  0  0  0  0  0  0  0  0  0  0  0
  139.5110   69.1870  223.9940 C   0  0  0  0  0  0  0  0  0  0  0  0
  140.0410   69.6740  225.1810 C   0  0  0  0  0  0  0  0  0  0  0  0
  140.2430   68.8110  226.2500 C   0  0  0  0  0  0  0  0  0  0  0  0
  140.7710   69.2980  227.4300 C   0  0  0  0  0  0  0  0  0  0  0  0
  141.0000   68.1560  228.7330 Cl  0  0  0  0  0  0  0  0  0  0  0  0
  141.1110   70.6280  227.5890 C   0  0  0  0  0  0  0  0  0  0  0  0
  140.9050   71.4660  226.5220 C   0  0  0  0  0  0  0  0  0  0  0  0
  140.3750   71.0040  225.3240 C   0  0  0  0  0  0  0  0  0  0  0  0
  140.2030   71.8910  224.3230 N   0  0  0  0  0  0  0  0  0  0  0  0
  139.5430   74.0670  223.3130 H   0  0  0  0  0  0  0  0  0  0  0  0
  139.0902   74.2578  220.3034 H   0  0  0  0  0  0  0  0  0  0  0  0
  138.3807   75.3844  221.5358 H   0  0  0  0  0  0  0  0  0  0  0  0
  140.2493   75.7507  217.9679 H   0  0  0  0  0  0  0  0  0  0  0  0
  139.3885   76.7617  219.1347 H   0  0  0  0  0  0  0  0  0  0  0  0
  141.5864   77.4687  217.3696 H   0  0  0  0  0  0  0  0  0  0  0  0
  140.6665   78.5311  218.5094 H   0  0  0  0  0  0  0  0  0  0  0  0
  143.0879   78.5674  218.9517 H   0  0  0  0  0  0  0  0  0  0  0  0
  142.1203   77.8755  220.3300 H   0  0  0  0  0  0  0  0  0  0  0  0
  143.7907   76.3705  218.3049 H   0  0  0  0  0  0  0  0  0  0  0  0
  144.0968   76.5598  220.0603 H   0  0  0  0  0  0  0  0  0  0  0  0
  142.2349   74.6630  218.6833 H   0  0  0  0  0  0  0  0  0  0  0  0
  142.8415   74.5478  221.4203 H   0  0  0  0  0  0  0  0  0  0  0  0
  144.9882   74.9451  219.7405 H   0  0  0  0  0  0  0  0  0  0  0  0
  144.9191   74.3826  221.4486 H   0  0  0  0  0  0  0  0  0  0  0  0
  144.6635   72.5393  218.9731 H   0  0  0  0  0  0  0  0  0  0  0  0
  146.1421   72.7089  219.9304 H   0  0  0  0  0  0  0  0  0  0  0  0
  143.0634   70.8442  219.9941 H   0  0  0  0  0  0  0  0  0  0  0  0
  142.6576   71.6703  221.5775 H   0  0  0  0  0  0  0  0  0  0  0  0
  142.8298   72.8003  218.8190 H   0  0  0  0  0  0  0  0  0  0  0  0
  141.4988   72.8656  220.0642 H   0  0  0  0  0  0  0  0  0  0  0  0
  138.9305   69.7987  222.0134 H   0  0  0  0  0  0  0  0  0  0  0  0
  139.2399   68.1287  223.8656 H   0  0  0  0  0  0  0  0  0  0  0  0
  139.9841   67.7459  226.1577 H   0  0  0  0  0  0  0  0  0  0  0  0
  141.5308   71.0008  228.5349 H   0  0  0  0  0  0  0  0  0  0  0  0
  141.1661   72.5303  226.6178 H   0  0  0  0  0  0  0  0  0  0  0  0
  1  2  2  0
  2  3  1  0
  3  4  1  0
  4  5  1  0
  5  6  2  0
  5  7  1  0
  7  8  1  0
  8  9  1  0
  9 10  1  0
 10 11  1  0
 11 12  1  0
 12 13  1  0
 13 14  1  0
 14 15  1  0
 15 16  1  0
 16 17  1  0
 17 18  1  0
  2 19  1  0
 19 20  2  0
 20 21  1  0
 21 22  2  0
 22 23  1  0
 23 24  2  0
 24 25  1  0
 24 26  1  0
 26 27  2  0
 27 28  1  0
 28 29  2  0
 12  7  1  0
 18 13  1  0
 29 19  1  0
 28 22  1  0
  3 30  1  0
  4 31  1  0
  4 32  1  0
  8 33  1  0
  8 34  1  0
  9 35  1  0
  9 36  1  0
 10 37  1  0
 10 38  1  0
 11 39  1  0
 11 40  1  0
 12 41  1  6
 13 42  1  0
 14 43  1  0
 14 44  1  0
 15 45  1  0
 15 46  1  0
 17 47  1  0
 17 48  1  0
 18 49  1  0
 18 50  1  0
 20 51  1  0
 21 52  1  0
 23 53  1  0
 26 54  1  0
 27 55  1  0
M  END
>  <smiles>  (60) 
O=C(NCC(=O)N1CCCCC1C1CCOCC1)c1ccc2cc(Cl)ccc2n1

>  <score_type>  (60) 
oracle

>  <origin>  (60) 
autodockgpu

>  <m_score__min__energy>  (60) 
-8.9700000000000006

>  <m_primary>  (60) 
energy

>  <rmsd>  (60) 
1.8183756868625063

>  <m_score__min__rmsd>  (60) 
1.8183756868625063

>  <meeko>  (60) 
{"free_energy": -7.73, "intermolecular_energy": -9.22, "internal_energy": -2.11, "cluster_size": 43, "cluster_id": 1, "rank_in_cluster": 35}

>  <energy>  (60) 
-8.64

>  <cluster_rmsd>  (60) 
0.61

>  <cluster>  (60) 
1

$$$$

     RDKit          3D

 55 58  0  0  0  0  0  0  0  0999 V2000
  139.7410   72.3490  220.7680 O   0  0  0  0  0  0  0  0  0  0  0  0
  139.6700   72.7250  221.9740 C   0  0  0  0  0  0  0  0  0  0  0  0
  139.4480   74.0990  222.2410 N   0  0  0  0  0  0  0  0  0  0  0  0
  139.2980   75.1070  221.2240 C   0  0  0  0  0  0  0  0  0  0  0  0
  140.5560   75.8920  221.0300 C   0  0  0  0  0  0  0  0  0  0  0  0
  140.9250   76.5420  222.0430 O   0  0  0  0  0  0  0  0  0  0  0  0
  141.2180   75.8640  219.7910 N   0  0  0  0  0  0  0  0  0  0  0  0
  140.4330   76.3960  218.6390 C   0  0  0  0  0  0  0  0  0  0  0  0
  141.2550   77.5410  218.0850 C   0  0  0  0  0  0  0  0  0  0  0  0
  142.4870   77.7870  218.9260 C   0  0  0  0  0  0  0  0  0  0  0  0
  143.3650   76.5800  219.0290 C   0  0  0  0  0  0  0  0  0  0  0  0
  142.5180   75.3910  219.4640 C   0  0  1  0  0  0  0  0  0  0  0  0
  143.2390   74.4850  220.3700 C   0  0  0  0  0  0  0  0  0  0  0  0
  144.7150   74.5230  220.4390 C   0  0  0  0  0  0  0  0  0  0  0  0
  145.3000   73.1160  220.1140 C   0  0  0  0  0  0  0  0  0  0  0  0
  144.8210   72.2770  221.0920 O   0  0  0  0  0  0  0  0  0  0  0  0
  143.5000   72.0050  220.7880 C   0  0  0  0  0  0  0  0  0  0  0  0
  142.8400   73.0510  219.9620 C   0  0  0  0  0  0  0  0  0  0  0  0
  139.8140   71.7590  223.0790 C   0  0  0  0  0  0  0  0  0  0  0  0
  139.4420   70.4500  222.8610 C   0  0  0  0  0  0  0  0  0  0  0  0
  139.5600   69.5010  223.8640 C   0  0  0  0  0  0  0  0  0  0  0  0
  140.0680   69.9570  225.0720 C   0  0  0  0  0  0  0  0  0  0  0  0
  140.2210   69.0730  226.1320 C   0  0  0  0  0  0  0  0  0  0  0  0
  140.7290   69.5310  227.3330 C   0  0  0  0  0  0  0  0  0  0  0  0
  140.8970   68.3640  228.6240 Cl  0  0  0  0  0  0  0  0  0  0  0  0
  141.0940   70.8500  227.5220 C   0  0  0  0  0  0  0  0  0  0  0  0
  140.9360   71.7090  226.4640 C   0  0  0  0  0  0  0  0  0  0  0  0
  140.4280   71.2770  225.2440 C   0  0  0  0  0  0  0  0  0  0  0  0
  140.3040   72.1830  224.2530 N   0  0  0  0  0  0  0  0  0  0  0  0
  139.3970   74.3550  223.2740 H   0  0  0  0  0  0  0  0  0  0  0  0
  139.0333   74.6184  220.2747 H   0  0  0  0  0  0  0  0  0  0  0  0
  138.5078   75.8016  221.5451 H   0  0  0  0  0  0  0  0  0  0  0  0
  140.2949   75.6167  217.8750 H   0  0  0  0  0  0  0  0  0  0  0  0
  139.4291   76.7248  218.9458 H   0  0  0  0  0  0  0  0  0  0  0  0
  141.5645   77.2965  217.0582 H   0  0  0  0  0  0  0  0  0  0  0  0
  140.6373   78.4511  218.0977 H   0  0  0  0  0  0  0  0  0  0  0  0
  143.0653   78.6054  218.4724 H   0  0  0  0  0  0  0  0  0  0  0  0
  142.1509   78.0416  219.9420 H   0  0  0  0  0  0  0  0  0  0  0  0
  143.8212   76.3703  218.0503 H   0  0  0  0  0  0  0  0  0  0  0  0
  144.1619   76.7599  219.7656 H   0  0  0  0  0  0  0  0  0  0  0  0
  142.3273   74.6724  218.6533 H   0  0  0  0  0  0  0  0  0  0  0  0
  142.9394   74.8296  221.3707 H   0  0  0  0  0  0  0  0  0  0  0  0
  145.0951   75.2530  219.7092 H   0  0  0  0  0  0  0  0  0  0  0  0
  145.0216   74.8159  221.4540 H   0  0  0  0  0  0  0  0  0  0  0  0
  144.9626   72.7805  219.1223 H   0  0  0  0  0  0  0  0  0  0  0  0
  146.3997   73.1291  220.0943 H   0  0  0  0  0  0  0  0  0  0  0  0
  143.4610   71.0538  220.2369 H   0  0  0  0  0  0  0  0  0  0  0  0
  142.9561   71.9647  221.7433 H   0  0  0  0  0  0  0  0  0  0  0  0
  143.1208   72.8953  218.9099 H   0  0  0  0  0  0  0  0  0  0  0  0
  141.7552   72.9555  220.1169 H   0  0  0  0  0  0  0  0  0  0  0  0
  139.0463   70.1546  221.8781 H   0  0  0  0  0  0  0  0  0  0  0  0
  139.2689   68.4512  223.7119 H   0  0  0  0  0  0  0  0  0  0  0  0
  139.9399   68.0158  226.0166 H   0  0  0  0  0  0  0  0  0  0  0  0
  141.4962   71.1984  228.4847 H   0  0  0  0  0  0  0  0  0  0  0  0
  141.2182   72.7654  226.5839 H   0  0  0  0  0  0  0  0  0  0  0  0
  1  2  2  0
  2  3  1  0
  3  4  1  0
  4  5  1  0
  5  6  2  0
  5  7  1  0
  7  8  1  0
  8  9  1  0
  9 10  1  0
 10 11  1  0
 11 12  1  0
 12 13  1  0
 13 14  1  0
 14 15  1  0
 15 16  1  0
 16 17  1  0
 17 18  1  0
  2 19  1  0
 19 20  2  0
 20 21  1  0
 21 22  2  0
 22 23  1  0
 23 24  2  0
 24 25  1  0
 24 26  1  0
 26 27  2  0
 27 28  1  0
 28 29  2  0
 12  7  1  0
 18 13  1  0
 29 19  1  0
 28 22  1  0
  3 30  1  0
  4 31  1  0
  4 32  1  0
  8 33  1  0
  8 34  1  0
  9 35  1  0
  9 36  1  0
 10 37  1  0
 10 38  1  0
 11 39  1  0
 11 40  1  0
 12 41  1  6
 13 42  1  0
 14 43  1  0
 14 44  1  0
 15 45  1  0
 15 46  1  0
 17 47  1  0
 17 48  1  0
 18 49  1  0
 18 50  1  0
 20 51  1  0
 21 52  1  0
 23 53  1  0
 26 54  1  0
 27 55  1  0
M  END
>  <smiles>  (61) 
O=C(NCC(=O)N1CCCCC1C1CCOCC1)c1ccc2cc(Cl)ccc2n1

>  <score_type>  (61) 
oracle

>  <origin>  (61) 
autodockgpu

>  <m_score__min__energy>  (61) 
-8.9700000000000006

>  <m_primary>  (61) 
energy

>  <rmsd>  (61) 
1.8986108915090276

>  <m_score__min__rmsd>  (61) 
1.8986108915090276

>  <meeko>  (61) 
{"free_energy": -7.81, "intermolecular_energy": -9.3, "internal_energy": -2.06, "cluster_size": 43, "cluster_id": 1, "rank_in_cluster": 31}

>  <energy>  (61) 
-8.49

>  <cluster_rmsd>  (61) 
0.9

>  <cluster>  (61) 
1

$$$$

     RDKit          3D

 55 58  0  0  0  0  0  0  0  0999 V2000
  139.9020   71.7160  220.8430 O   0  0  0  0  0  0  0  0  0  0  0  0
  139.8150   72.1650  222.0230 C   0  0  0  0  0  0  0  0  0  0  0  0
  139.6340   73.5590  222.2030 N   0  0  0  0  0  0  0  0  0  0  0  0
  139.5420   74.5090  221.1250 C   0  0  0  0  0  0  0  0  0  0  0  0
  140.8300   75.2400  220.9160 C   0  0  0  0  0  0  0  0  0  0  0  0
  141.4260   75.5570  221.9780 O   0  0  0  0  0  0  0  0  0  0  0  0
  141.2760   75.5180  219.6130 N   0  0  0  0  0  0  0  0  0  0  0  0
  140.3510   76.3490  218.7880 C   0  0  0  0  0  0  0  0  0  0  0  0
  141.1460   77.5790  218.4040 C   0  0  0  0  0  0  0  0  0  0  0  0
  142.5130   77.5710  219.0510 C   0  0  0  0  0  0  0  0  0  0  0  0
  143.3130   76.3590  218.6920 C   0  0  0  0  0  0  0  0  0  0  0  0
  142.4710   75.1170  218.9550 C   0  0  1  0  0  0  0  0  0  0  0  0
  143.2680   73.9910  219.4630 C   0  0  0  0  0  0  0  0  0  0  0  0
  144.0410   74.1330  220.7150 C   0  0  0  0  0  0  0  0  0  0  0  0
  145.5470   73.8330  220.4480 C   0  0  0  0  0  0  0  0  0  0  0  0
  145.5980   72.5250  220.0280 O   0  0  0  0  0  0  0  0  0  0  0  0
  145.1670   72.4990  218.7140 C   0  0  0  0  0  0  0  0  0  0  0  0
  144.2710   73.6280  218.3480 C   0  0  0  0  0  0  0  0  0  0  0  0
  139.9010   71.2630  223.1860 C   0  0  0  0  0  0  0  0  0  0  0  0
  139.4780   69.9590  223.0400 C   0  0  0  0  0  0  0  0  0  0  0  0
  139.5390   69.0690  224.1000 C   0  0  0  0  0  0  0  0  0  0  0  0
  140.0480   69.5760  225.2880 C   0  0  0  0  0  0  0  0  0  0  0  0
  140.1470   68.7530  226.4020 C   0  0  0  0  0  0  0  0  0  0  0  0
  140.6540   69.2610  227.5820 C   0  0  0  0  0  0  0  0  0  0  0  0
  140.7520   68.1680  228.9440 Cl  0  0  0  0  0  0  0  0  0  0  0  0
  141.0710   70.5720  227.6980 C   0  0  0  0  0  0  0  0  0  0  0  0
  140.9670   71.3720  226.5870 C   0  0  0  0  0  0  0  0  0  0  0  0
  140.4600   70.8880  225.3870 C   0  0  0  0  0  0  0  0  0  0  0  0
  140.3900   71.7360  224.3410 N   0  0  0  0  0  0  0  0  0  0  0  0
  139.5680   73.8780  223.2170 H   0  0  0  0  0  0  0  0  0  0  0  0
  139.2826   73.9734  220.1999 H   0  0  0  0  0  0  0  0  0  0  0  0
  138.7689   75.2470  221.3853 H   0  0  0  0  0  0  0  0  0  0  0  0
  140.0374   75.7979  217.8892 H   0  0  0  0  0  0  0  0  0  0  0  0
  139.4357   76.6103  219.3393 H   0  0  0  0  0  0  0  0  0  0  0  0
  141.2666   77.6014  217.3109 H   0  0  0  0  0  0  0  0  0  0  0  0
  140.6010   78.4687  218.7525 H   0  0  0  0  0  0  0  0  0  0  0  0
  143.0629   78.4656  218.7235 H   0  0  0  0  0  0  0  0  0  0  0  0
  142.3653   77.5615  220.1410 H   0  0  0  0  0  0  0  0  0  0  0  0
  143.5883   76.4000  217.6278 H   0  0  0  0  0  0  0  0  0  0  0  0
  144.2295   76.3237  219.2993 H   0  0  0  0  0  0  0  0  0  0  0  0
  142.1030   74.6378  218.0358 H   0  0  0  0  0  0  0  0  0  0  0  0
  142.5108   73.2386  219.7285 H   0  0  0  0  0  0  0  0  0  0  0  0
  143.9357   75.1604  221.0937 H   0  0  0  0  0  0  0  0  0  0  0  0
  143.6570   73.4200  221.4595 H   0  0  0  0  0  0  0  0  0  0  0  0
  145.9386   74.5018  219.6674 H   0  0  0  0  0  0  0  0  0  0  0  0
  146.1584   73.9940  221.3481 H   0  0  0  0  0  0  0  0  0  0  0  0
  146.0505   72.5327  218.0596 H   0  0  0  0  0  0  0  0  0  0  0  0
  144.5821   71.5758  218.5895 H   0  0  0  0  0  0  0  0  0  0  0  0
  144.8906   74.5112  218.1334 H   0  0  0  0  0  0  0  0  0  0  0  0
  143.6865   73.3119  217.4714 H   0  0  0  0  0  0  0  0  0  0  0  0
  139.0869   69.6207  222.0691 H   0  0  0  0  0  0  0  0  0  0  0  0
  139.2048   68.0252  224.0062 H   0  0  0  0  0  0  0  0  0  0  0  0
  139.8237   67.7031  226.3450 H   0  0  0  0  0  0  0  0  0  0  0  0
  141.4718   70.9612  228.6456 H   0  0  0  0  0  0  0  0  0  0  0  0
  141.2927   72.4209  226.6482 H   0  0  0  0  0  0  0  0  0  0  0  0
  1  2  2  0
  2  3  1  0
  3  4  1  0
  4  5  1  0
  5  6  2  0
  5  7  1  0
  7  8  1  0
  8  9  1  0
  9 10  1  0
 10 11  1  0
 11 12  1  0
 12 13  1  0
 13 14  1  0
 14 15  1  0
 15 16  1  0
 16 17  1  0
 17 18  1  0
  2 19  1  0
 19 20  2  0
 20 21  1  0
 21 22  2  0
 22 23  1  0
 23 24  2  0
 24 25  1  0
 24 26  1  0
 26 27  2  0
 27 28  1  0
 28 29  2  0
 12  7  1  0
 18 13  1  0
 29 19  1  0
 28 22  1  0
  3 30  1  0
  4 31  1  0
  4 32  1  0
  8 33  1  0
  8 34  1  0
  9 35  1  0
  9 36  1  0
 10 37  1  0
 10 38  1  0
 11 39  1  0
 11 40  1  0
 12 41  1  6
 13 42  1  0
 14 43  1  0
 14 44  1  0
 15 45  1  0
 15 46  1  0
 17 47  1  0
 17 48  1  0
 18 49  1  0
 18 50  1  0
 20 51  1  0
 21 52  1  0
 23 53  1  0
 26 54  1  0
 27 55  1  0
M  END
>  <smiles>  (62) 
O=C(NCC(=O)N1CCCCC1C1CCOCC1)c1ccc2cc(Cl)ccc2n1

>  <score_type>  (62) 
oracle

>  <origin>  (62) 
autodockgpu

>  <m_score__min__energy>  (62) 
-8.9700000000000006

>  <m_primary>  (62) 
energy

>  <rmsd>  (62) 
1.8198979584014736

>  <m_score__min__rmsd>  (62) 
1.8198979584014736

>  <meeko>  (62) 
{"free_energy": -7.87, "intermolecular_energy": -9.36, "internal_energy": -1.8, "cluster_size": 43, "cluster_id": 1, "rank_in_cluster": 26}

>  <energy>  (62) 
-8.32

>  <cluster_rmsd>  (62) 
0.95

>  <cluster>  (62) 
1

$$$$

     RDKit          3D

 55 58  0  0  0  0  0  0  0  0999 V2000
  138.2500   71.6320  221.2670 O   0  0  0  0  0  0  0  0  0  0  0  0
  138.9020   72.0480  222.2690 C   0  0  0  0  0  0  0  0  0  0  0  0
  139.3420   73.3950  222.2760 N   0  0  0  0  0  0  0  0  0  0  0  0
  139.0970   74.3320  221.2110 C   0  0  0  0  0  0  0  0  0  0  0  0
  140.0650   75.4720  221.2380 C   0  0  0  0  0  0  0  0  0  0  0  0
  141.0400   75.3070  222.0170 O   0  0  0  0  0  0  0  0  0  0  0  0
  139.8400   76.6040  220.4370 N   0  0  0  0  0  0  0  0  0  0  0  0
  139.1440   76.3390  219.1440 C   0  0  0  0  0  0  0  0  0  0  0  0
  137.8820   77.1750  219.1850 C   0  0  0  0  0  0  0  0  0  0  0  0
  137.7380   77.8810  220.5140 C   0  0  0  0  0  0  0  0  0  0  0  0
  138.9030   78.7650  220.8280 C   0  0  0  0  0  0  0  0  0  0  0  0
  140.1880   77.9630  220.6640 C   0  0  1  0  0  0  0  0  0  0  0  0
  141.2090   78.3230  221.6580 C   0  0  0  0  0  0  0  0  0  0  0  0
  140.9270   78.1700  223.1010 C   0  0  0  0  0  0  0  0  0  0  0  0
  141.1120   79.5370  223.8270 C   0  0  0  0  0  0  0  0  0  0  0  0
  142.4340   79.8750  223.6550 O   0  0  0  0  0  0  0  0  0  0  0  0
  142.5750   80.3320  222.3570 C   0  0  0  0  0  0  0  0  0  0  0  0
  141.5510   79.8080  221.4160 C   0  0  0  0  0  0  0  0  0  0  0  0
  139.2000   71.1540  223.4030 C   0  0  0  0  0  0  0  0  0  0  0  0
  138.8490   69.8250  223.3050 C   0  0  0  0  0  0  0  0  0  0  0  0
  139.1080   68.9420  224.3410 C   0  0  0  0  0  0  0  0  0  0  0  0
  139.7340   69.4830  225.4550 C   0  0  0  0  0  0  0  0  0  0  0  0
  140.0330   68.6700  226.5400 C   0  0  0  0  0  0  0  0  0  0  0  0
  140.6570   69.2120  227.6470 C   0  0  0  0  0  0  0  0  0  0  0  0
  141.0060   68.1300  228.9750 Cl  0  0  0  0  0  0  0  0  0  0  0  0
  140.9980   70.5490  227.7170 C   0  0  0  0  0  0  0  0  0  0  0  0
  140.6950   71.3380  226.6360 C   0  0  0  0  0  0  0  0  0  0  0  0
  140.0680   70.8200  225.5090 C   0  0  0  0  0  0  0  0  0  0  0  0
  139.8050   71.6610  224.4880 N   0  0  0  0  0  0  0  0  0  0  0  0
  139.8860   73.6870  223.1440 H   0  0  0  0  0  0  0  0  0  0  0  0
  139.1907   73.8085  220.2481 H   0  0  0  0  0  0  0  0  0  0  0  0
  138.0844   74.7411  221.3428 H   0  0  0  0  0  0  0  0  0  0  0  0
  139.7779   76.6411  218.2973 H   0  0  0  0  0  0  0  0  0  0  0  0
  138.9212   75.2699  219.0121 H   0  0  0  0  0  0  0  0  0  0  0  0
  137.9226   77.9259  218.3822 H   0  0  0  0  0  0  0  0  0  0  0  0
  137.0176   76.5085  219.0487 H   0  0  0  0  0  0  0  0  0  0  0  0
  136.8264   78.4961  220.4886 H   0  0  0  0  0  0  0  0  0  0  0  0
  137.6867   77.1091  221.2961 H   0  0  0  0  0  0  0  0  0  0  0  0
  138.9123   79.6226  220.1392 H   0  0  0  0  0  0  0  0  0  0  0  0
  138.8231   79.1347  221.8609 H   0  0  0  0  0  0  0  0  0  0  0  0
  140.7571   78.2304  219.7614 H   0  0  0  0  0  0  0  0  0  0  0  0
  142.0066   77.5852  221.4862 H   0  0  0  0  0  0  0  0  0  0  0  0
  139.8918   77.8231  223.2353 H   0  0  0  0  0  0  0  0  0  0  0  0
  141.6246   77.4355  223.5299 H   0  0  0  0  0  0  0  0  0  0  0  0
  140.4596   80.3007  223.3784 H   0  0  0  0  0  0  0  0  0  0  0  0
  140.8459   79.4697  224.8922 H   0  0  0  0  0  0  0  0  0  0  0  0
  142.5053   81.4297  222.3675 H   0  0  0  0  0  0  0  0  0  0  0  0
  143.5505   79.9723  221.9977 H   0  0  0  0  0  0  0  0  0  0  0  0
  140.6325   80.4020  221.5320 H   0  0  0  0  0  0  0  0  0  0  0  0
  141.9676   79.8871  220.4010 H   0  0  0  0  0  0  0  0  0  0  0  0
  138.3564   69.4601  222.3917 H   0  0  0  0  0  0  0  0  0  0  0  0
  138.8343   67.8781  224.2839 H   0  0  0  0  0  0  0  0  0  0  0  0
  139.7747   67.6010  226.5183 H   0  0  0  0  0  0  0  0  0  0  0  0
  141.4939   70.9655  228.6062 H   0  0  0  0  0  0  0  0  0  0  0  0
  140.9547   72.4066  226.6620 H   0  0  0  0  0  0  0  0  0  0  0  0
  1  2  2  0
  2  3  1  0
  3  4  1  0
  4  5  1  0
  5  6  2  0
  5  7  1  0
  7  8  1  0
  8  9  1  0
  9 10  1  0
 10 11  1  0
 11 12  1  0
 12 13  1  0
 13 14  1  0
 14 15  1  0
 15 16  1  0
 16 17  1  0
 17 18  1  0
  2 19  1  0
 19 20  2  0
 20 21  1  0
 21 22  2  0
 22 23  1  0
 23 24  2  0
 24 25  1  0
 24 26  1  0
 26 27  2  0
 27 28  1  0
 28 29  2  0
 12  7  1  0
 18 13  1  0
 29 19  1  0
 28 22  1  0
  3 30  1  0
  4 31  1  0
  4 32  1  0
  8 33  1  0
  8 34  1  0
  9 35  1  0
  9 36  1  0
 10 37  1  0
 10 38  1  0
 11 39  1  0
 11 40  1  0
 12 41  1  6
 13 42  1  0
 14 43  1  0
 14 44  1  0
 15 45  1  0
 15 46  1  0
 17 47  1  0
 17 48  1  0
 18 49  1  0
 18 50  1  0
 20 51  1  0
 21 52  1  0
 23 53  1  0
 26 54  1  0
 27 55  1  0
M  END
>  <smiles>  (63) 
O=C(NCC(=O)N1CCCCC1C1CCOCC1)c1ccc2cc(Cl)ccc2n1

>  <score_type>  (63) 
oracle

>  <origin>  (63) 
autodockgpu

>  <m_score__min__energy>  (63) 
-8.9700000000000006

>  <m_primary>  (63) 
energy

>  <rmsd>  (63) 
1.8998712693700892

>  <m_score__min__rmsd>  (63) 
1.8998712693700892

>  <meeko>  (63) 
{"free_energy": -7.75, "intermolecular_energy": -9.24, "internal_energy": -2.07, "cluster_size": 43, "cluster_id": 1, "rank_in_cluster": 34}

>  <energy>  (63) 
-8.24

>  <cluster_rmsd>  (63) 
0.77

>  <cluster>  (63) 
1

$$$$

     RDKit          3D

 55 58  0  0  0  0  0  0  0  0999 V2000
  138.5800   71.6250  221.2390 O   0  0  0  0  0  0  0  0  0  0  0  0
  139.1200   72.0620  222.2970 C   0  0  0  0  0  0  0  0  0  0  0  0
  139.4630   73.4360  222.3620 N   0  0  0  0  0  0  0  0  0  0  0  0
  139.2390   74.3770  221.2960 C   0  0  0  0  0  0  0  0  0  0  0  0
  139.8130   75.7220  221.6100 C   0  0  0  0  0  0  0  0  0  0  0  0
  140.9370   75.6870  222.1760 O   0  0  0  0  0  0  0  0  0  0  0  0
  139.1010   76.8860  221.2760 N   0  0  0  0  0  0  0  0  0  0  0  0
  137.8180   76.6590  220.5490 C   0  0  0  0  0  0  0  0  0  0  0  0
  136.7450   77.2810  221.4190 C   0  0  0  0  0  0  0  0  0  0  0  0
  137.3270   77.8060  222.7120 C   0  0  0  0  0  0  0  0  0  0  0  0
  138.4030   78.8200  222.4910 C   0  0  0  0  0  0  0  0  0  0  0  0
  139.4240   78.2500  221.5140 C   0  0  1  0  0  0  0  0  0  0  0  0
  140.8010   78.6530  221.8350 C   0  0  0  0  0  0  0  0  0  0  0  0
  141.3660   78.3660  223.1700 C   0  0  0  0  0  0  0  0  0  0  0  0
  141.8400   79.6890  223.8430 C   0  0  0  0  0  0  0  0  0  0  0  0
  142.8290   80.1890  223.0280 O   0  0  0  0  0  0  0  0  0  0  0  0
  142.2090   80.7500  221.9280 C   0  0  0  0  0  0  0  0  0  0  0  0
  140.8680   80.1800  221.6310 C   0  0  0  0  0  0  0  0  0  0  0  0
  139.3870   71.1670  223.4370 C   0  0  0  0  0  0  0  0  0  0  0  0
  139.0340   69.8390  223.3280 C   0  0  0  0  0  0  0  0  0  0  0  0
  139.2660   68.9540  224.3690 C   0  0  0  0  0  0  0  0  0  0  0  0
  139.8660   69.4920  225.4990 C   0  0  0  0  0  0  0  0  0  0  0  0
  140.1360   68.6760  226.5890 C   0  0  0  0  0  0  0  0  0  0  0  0
  140.7350   69.2150  227.7120 C   0  0  0  0  0  0  0  0  0  0  0  0
  141.0480   68.1300  229.0480 Cl  0  0  0  0  0  0  0  0  0  0  0  0
  141.0780   70.5510  227.7930 C   0  0  0  0  0  0  0  0  0  0  0  0
  140.8040   71.3420  226.7050 C   0  0  0  0  0  0  0  0  0  0  0  0
  140.2030   70.8270  225.5630 C   0  0  0  0  0  0  0  0  0  0  0  0
  139.9660   71.6700  224.5370 N   0  0  0  0  0  0  0  0  0  0  0  0
  139.9140   73.7460  223.2760 H   0  0  0  0  0  0  0  0  0  0  0  0
  139.7106   73.9943  220.3788 H   0  0  0  0  0  0  0  0  0  0  0  0
  138.1529   74.4918  221.1651 H   0  0  0  0  0  0  0  0  0  0  0  0
  137.8435   77.1457  219.5629 H   0  0  0  0  0  0  0  0  0  0  0  0
  137.6319   75.5892  220.3733 H   0  0  0  0  0  0  0  0  0  0  0  0
  136.2770   78.1128  220.8722 H   0  0  0  0  0  0  0  0  0  0  0  0
  136.0003   76.5082  221.6602 H   0  0  0  0  0  0  0  0  0  0  0  0
  136.5203   78.2709  223.2978 H   0  0  0  0  0  0  0  0  0  0  0  0
  137.7771   76.9546  223.2435 H   0  0  0  0  0  0  0  0  0  0  0  0
  137.9649   79.7385  222.0734 H   0  0  0  0  0  0  0  0  0  0  0  0
  138.8934   79.0579  223.4465 H   0  0  0  0  0  0  0  0  0  0  0  0
  139.3670   78.7005  220.5121 H   0  0  0  0  0  0  0  0  0  0  0  0
  141.4145   78.0262  221.1711 H   0  0  0  0  0  0  0  0  0  0  0  0
  140.5961   77.8934  223.7976 H   0  0  0  0  0  0  0  0  0  0  0  0
  142.2254   77.6882  223.0606 H   0  0  0  0  0  0  0  0  0  0  0  0
  141.0059   80.4024  223.9155 H   0  0  0  0  0  0  0  0  0  0  0  0
  142.2065   79.5151  224.8655 H   0  0  0  0  0  0  0  0  0  0  0  0
  142.0935   81.8288  222.1093 H   0  0  0  0  0  0  0  0  0  0  0  0
  142.8464   80.5314  221.0586 H   0  0  0  0  0  0  0  0  0  0  0  0
  140.1309   80.6546  222.2954 H   0  0  0  0  0  0  0  0  0  0  0  0
  140.6547   80.3788  220.5704 H   0  0  0  0  0  0  0  0  0  0  0  0
  138.5620   69.4769  222.4027 H   0  0  0  0  0  0  0  0  0  0  0  0
  138.9916   67.8908  224.3037 H   0  0  0  0  0  0  0  0  0  0  0  0
  139.8751   67.6078  226.5593 H   0  0  0  0  0  0  0  0  0  0  0  0
  141.5525   70.9650  228.6949 H   0  0  0  0  0  0  0  0  0  0  0  0
  141.0667   72.4097  226.7381 H   0  0  0  0  0  0  0  0  0  0  0  0
  1  2  2  0
  2  3  1  0
  3  4  1  0
  4  5  1  0
  5  6  2  0
  5  7  1  0
  7  8  1  0
  8  9  1  0
  9 10  1  0
 10 11  1  0
 11 12  1  0
 12 13  1  0
 13 14  1  0
 14 15  1  0
 15 16  1  0
 16 17  1  0
 17 18  1  0
  2 19  1  0
 19 20  2  0
 20 21  1  0
 21 22  2  0
 22 23  1  0
 23 24  2  0
 24 25  1  0
 24 26  1  0
 26 27  2  0
 27 28  1  0
 28 29  2  0
 12  7  1  0
 18 13  1  0
 29 19  1  0
 28 22  1  0
  3 30  1  0
  4 31  1  0
  4 32  1  0
  8 33  1  0
  8 34  1  0
  9 35  1  0
  9 36  1  0
 10 37  1  0
 10 38  1  0
 11 39  1  0
 11 40  1  0
 12 41  1  6
 13 42  1  0
 14 43  1  0
 14 44  1  0
 15 45  1  0
 15 46  1  0
 17 47  1  0
 17 48  1  0
 18 49  1  0
 18 50  1  0
 20 51  1  0
 21 52  1  0
 23 53  1  0
 26 54  1  0
 27 55  1  0
M  END
>  <smiles>  (64) 
O=C(NCC(=O)N1CCCCC1C1CCOCC1)c1ccc2cc(Cl)ccc2n1

>  <score_type>  (64) 
oracle

>  <origin>  (64) 
autodockgpu

>  <m_score__min__energy>  (64) 
-8.9700000000000006

>  <m_primary>  (64) 
energy

>  <rmsd>  (64) 
2.7349296096432307

>  <m_score__min__rmsd>  (64) 
2.7349296096432307

>  <meeko>  (64) 
{"free_energy": -8.16, "intermolecular_energy": -9.65, "internal_energy": -1.87, "cluster_size": 43, "cluster_id": 1, "rank_in_cluster": 14}

>  <energy>  (64) 
-8.16

>  <cluster_rmsd>  (64) 
1.6

>  <cluster>  (64) 
1

$$$$

     RDKit          3D

 55 58  0  0  0  0  0  0  0  0999 V2000
  140.3040   72.4280  220.8280 O   0  0  0  0  0  0  0  0  0  0  0  0
  139.9890   72.7780  222.0030 C   0  0  0  0  0  0  0  0  0  0  0  0
  139.6090   74.1250  222.2260 N   0  0  0  0  0  0  0  0  0  0  0  0
  139.5600   75.1330  221.1990 C   0  0  0  0  0  0  0  0  0  0  0  0
  140.1370   76.4320  221.6650 C   0  0  0  0  0  0  0  0  0  0  0  0
  139.5470   76.9350  222.6580 O   0  0  0  0  0  0  0  0  0  0  0  0
  141.2430   76.9880  221.0020 N   0  0  0  0  0  0  0  0  0  0  0  0
  141.9370   76.0740  220.0480 C   0  0  0  0  0  0  0  0  0  0  0  0
  141.8650   76.7650  218.7020 C   0  0  0  0  0  0  0  0  0  0  0  0
  141.0610   78.0430  218.7860 C   0  0  0  0  0  0  0  0  0  0  0  0
  141.6160   79.0090  219.7850 C   0  0  0  0  0  0  0  0  0  0  0  0
  141.8120   78.2860  221.1120 C   0  0  1  0  0  0  0  0  0  0  0  0
  141.5170   79.1420  222.2700 C   0  0  0  0  0  0  0  0  0  0  0  0
  140.5610   80.2610  222.1420 C   0  0  0  0  0  0  0  0  0  0  0  0
  141.2520   81.6000  222.5400 C   0  0  0  0  0  0  0  0  0  0  0  0
  141.6110   81.4570  223.8600 O   0  0  0  0  0  0  0  0  0  0  0  0
  142.7330   80.6500  223.8950 C   0  0  0  0  0  0  0  0  0  0  0  0
  142.8640   79.7430  222.7240 C   0  0  0  0  0  0  0  0  0  0  0  0
  140.0130   71.8110  223.1150 C   0  0  0  0  0  0  0  0  0  0  0  0
  139.5320   70.5380  222.8920 C   0  0  0  0  0  0  0  0  0  0  0  0
  139.5350   69.5900  223.9020 C   0  0  0  0  0  0  0  0  0  0  0  0
  140.0470   70.0060  225.1230 C   0  0  0  0  0  0  0  0  0  0  0  0
  140.0900   69.1200  226.1900 C   0  0  0  0  0  0  0  0  0  0  0  0
  140.6010   69.5380  227.4040 C   0  0  0  0  0  0  0  0  0  0  0  0
  140.6260   68.3700  228.7040 Cl  0  0  0  0  0  0  0  0  0  0  0  0
  141.0770   70.8210  227.5980 C   0  0  0  0  0  0  0  0  0  0  0  0
  141.0280   71.6830  226.5320 C   0  0  0  0  0  0  0  0  0  0  0  0
  140.5190   71.2900  225.3000 C   0  0  0  0  0  0  0  0  0  0  0  0
  140.5050   72.1970  224.3010 N   0  0  0  0  0  0  0  0  0  0  0  0
  139.3540   74.3610  223.2330 H   0  0  0  0  0  0  0  0  0  0  0  0
  140.1326   74.7815  220.3280 H   0  0  0  0  0  0  0  0  0  0  0  0
  138.5051   75.3026  220.9376 H   0  0  0  0  0  0  0  0  0  0  0  0
  142.9847   75.9270  220.3493 H   0  0  0  0  0  0  0  0  0  0  0  0
  141.4689   75.0789  220.0219 H   0  0  0  0  0  0  0  0  0  0  0  0
  142.8849   77.0041  218.3663 H   0  0  0  0  0  0  0  0  0  0  0  0
  141.3708   76.0886  217.9891 H   0  0  0  0  0  0  0  0  0  0  0  0
  141.0582   78.5229  217.7962 H   0  0  0  0  0  0  0  0  0  0  0  0
  140.0446   77.7757  219.1109 H   0  0  0  0  0  0  0  0  0  0  0  0
  142.5822   79.3952  219.4283 H   0  0  0  0  0  0  0  0  0  0  0  0
  140.9199   79.8504  219.9174 H   0  0  0  0  0  0  0  0  0  0  0  0
  142.8670   78.0782  221.3440 H   0  0  0  0  0  0  0  0  0  0  0  0
  141.0044   78.4633  222.9676 H   0  0  0  0  0  0  0  0  0  0  0  0
  140.2134   80.3259  221.1004 H   0  0  0  0  0  0  0  0  0  0  0  0
  139.7054   80.0834  222.8102 H   0  0  0  0  0  0  0  0  0  0  0  0
  142.1422   81.7719  221.9171 H   0  0  0  0  0  0  0  0  0  0  0  0
  140.5832   82.4608  222.3927 H   0  0  0  0  0  0  0  0  0  0  0  0
  143.6224   81.2961  223.9329 H   0  0  0  0  0  0  0  0  0  0  0  0
  142.6358   80.0092  224.7838 H   0  0  0  0  0  0  0  0  0  0  0  0
  143.2933   80.3124  221.8865 H   0  0  0  0  0  0  0  0  0  0  0  0
  143.5106   78.9065  223.0277 H   0  0  0  0  0  0  0  0  0  0  0  0
  139.1408   70.2719  221.8990 H   0  0  0  0  0  0  0  0  0  0  0  0
  139.1548   68.5697  223.7458 H   0  0  0  0  0  0  0  0  0  0  0  0
  139.7196   68.0912  226.0703 H   0  0  0  0  0  0  0  0  0  0  0  0
  141.4801   71.1390  228.5708 H   0  0  0  0  0  0  0  0  0  0  0  0
  141.4008   72.7105  226.6554 H   0  0  0  0  0  0  0  0  0  0  0  0
  1  2  2  0
  2  3  1  0
  3  4  1  0
  4  5  1  0
  5  6  2  0
  5  7  1  0
  7  8  1  0
  8  9  1  0
  9 10  1  0
 10 11  1  0
 11 12  1  0
 12 13  1  0
 13 14  1  0
 14 15  1  0
 15 16  1  0
 16 17  1  0
 17 18  1  0
  2 19  1  0
 19 20  2  0
 20 21  1  0
 21 22  2  0
 22 23  1  0
 23 24  2  0
 24 25  1  0
 24 26  1  0
 26 27  2  0
 27 28  1  0
 28 29  2  0
 12  7  1  0
 18 13  1  0
 29 19  1  0
 28 22  1  0
  3 30  1  0
  4 31  1  0
  4 32  1  0
  8 33  1  0
  8 34  1  0
  9 35  1  0
  9 36  1  0
 10 37  1  0
 10 38  1  0
 11 39  1  0
 11 40  1  0
 12 41  1  1
 13 42  1  0
 14 43  1  0
 14 44  1  0
 15 45  1  0
 15 46  1  0
 17 47  1  0
 17 48  1  0
 18 49  1  0
 18 50  1  0
 20 51  1  0
 21 52  1  0
 23 53  1  0
 26 54  1  0
 27 55  1  0
M  END
>  <smiles>  (65) 
O=C(NCC(=O)N1CCCCC1C1CCOCC1)c1ccc2cc(Cl)ccc2n1

>  <score_type>  (65) 
oracle

>  <origin>  (65) 
autodockgpu

>  <m_score__min__energy>  (65) 
-8.9700000000000006

>  <m_primary>  (65) 
energy

>  <rmsd>  (65) 
2.145728852593196

>  <m_score__min__rmsd>  (65) 
2.145728852593196

>  <meeko>  (65) 
{"free_energy": -8.93, "intermolecular_energy": -10.42, "internal_energy": -1.58, "cluster_size": 43, "cluster_id": 1, "rank_in_cluster": 3}

>  <energy>  (65) 
-8.13

>  <cluster_rmsd>  (65) 
0.72

>  <cluster>  (65) 
1

$$$$

     RDKit          3D

 55 58  0  0  0  0  0  0  0  0999 V2000
  140.5700   72.2850  220.7780 O   0  0  0  0  0  0  0  0  0  0  0  0
  140.2010   72.6590  221.9300 C   0  0  0  0  0  0  0  0  0  0  0  0
  139.8430   74.0170  222.1160 N   0  0  0  0  0  0  0  0  0  0  0  0
  139.8740   75.0120  221.0750 C   0  0  0  0  0  0  0  0  0  0  0  0
  140.4580   76.3030  221.5550 C   0  0  0  0  0  0  0  0  0  0  0  0
  139.9660   76.7260  222.6340 O   0  0  0  0  0  0  0  0  0  0  0  0
  141.4680   76.9360  220.8120 N   0  0  0  0  0  0  0  0  0  0  0  0
  142.3150   76.0270  219.9870 C   0  0  0  0  0  0  0  0  0  0  0  0
  142.1500   76.5050  218.5590 C   0  0  0  0  0  0  0  0  0  0  0  0
  141.1460   77.6330  218.4730 C   0  0  0  0  0  0  0  0  0  0  0  0
  141.5210   78.8050  219.3250 C   0  0  0  0  0  0  0  0  0  0  0  0
  141.8140   78.3130  220.7360 C   0  0  1  0  0  0  0  0  0  0  0  0
  141.3660   79.2600  221.7690 C   0  0  0  0  0  0  0  0  0  0  0  0
  140.8810   80.6020  221.3850 C   0  0  0  0  0  0  0  0  0  0  0  0
  141.7240   81.6980  222.1040 C   0  0  0  0  0  0  0  0  0  0  0  0
  141.5150   81.5070  223.4500 O   0  0  0  0  0  0  0  0  0  0  0  0
  142.2690   80.4120  223.8300 C   0  0  0  0  0  0  0  0  0  0  0  0
  142.5610   79.4630  222.7230 C   0  0  0  0  0  0  0  0  0  0  0  0
  140.1420   71.7060  223.0530 C   0  0  0  0  0  0  0  0  0  0  0  0
  139.5800   70.4660  222.8370 C   0  0  0  0  0  0  0  0  0  0  0  0
  139.5020   69.5330  223.8580 C   0  0  0  0  0  0  0  0  0  0  0  0
  140.0210   69.9300  225.0830 C   0  0  0  0  0  0  0  0  0  0  0  0
  139.9860   69.0570  226.1610 C   0  0  0  0  0  0  0  0  0  0  0  0
  140.5040   69.4560  227.3780 C   0  0  0  0  0  0  0  0  0  0  0  0
  140.4290   68.3050  228.6930 Cl  0  0  0  0  0  0  0  0  0  0  0  0
  141.0610   70.7060  227.5660 C   0  0  0  0  0  0  0  0  0  0  0  0
  141.0880   71.5560  226.4890 C   0  0  0  0  0  0  0  0  0  0  0  0
  140.5750   71.1820  225.2530 C   0  0  0  0  0  0  0  0  0  0  0  0
  140.6380   72.0740  224.2440 N   0  0  0  0  0  0  0  0  0  0  0  0
  139.5400   74.2730  223.1050 H   0  0  0  0  0  0  0  0  0  0  0  0
  140.4830   74.6347  220.2403 H   0  0  0  0  0  0  0  0  0  0  0  0
  138.8390   75.2037  220.7555 H   0  0  0  0  0  0  0  0  0  0  0  0
  143.3683   76.0968  220.2965 H   0  0  0  0  0  0  0  0  0  0  0  0
  142.0162   74.9746  220.1021 H   0  0  0  0  0  0  0  0  0  0  0  0
  143.1216   76.8600  218.1848 H   0  0  0  0  0  0  0  0  0  0  0  0
  141.7837   75.6651  217.9504 H   0  0  0  0  0  0  0  0  0  0  0  0
  141.0788   77.9655  217.4266 H   0  0  0  0  0  0  0  0  0  0  0  0
  140.1826   77.2496  218.8401 H   0  0  0  0  0  0  0  0  0  0  0  0
  142.4157   79.2922  218.9102 H   0  0  0  0  0  0  0  0  0  0  0  0
  140.6946   79.5307  219.3466 H   0  0  0  0  0  0  0  0  0  0  0  0
  142.8858   78.3155  220.9836 H   0  0  0  0  0  0  0  0  0  0  0  0
  140.4641   78.7843  222.1816 H   0  0  0  0  0  0  0  0  0  0  0  0
  140.9751   80.7257  220.2960 H   0  0  0  0  0  0  0  0  0  0  0  0
  139.8267   80.7040  221.6818 H   0  0  0  0  0  0  0  0  0  0  0  0
  142.7906   81.5817  221.8615 H   0  0  0  0  0  0  0  0  0  0  0  0
  141.4287   82.7092  221.7874 H   0  0  0  0  0  0  0  0  0  0  0  0
  143.2251   80.7747  224.2355 H   0  0  0  0  0  0  0  0  0  0  0  0
  141.6749   79.8599  224.5731 H   0  0  0  0  0  0  0  0  0  0  0  0
  143.4101   79.8529  222.1425 H   0  0  0  0  0  0  0  0  0  0  0  0
  142.7867   78.4874  223.1783 H   0  0  0  0  0  0  0  0  0  0  0  0
  139.1882   70.2140  221.8405 H   0  0  0  0  0  0  0  0  0  0  0  0
  139.0563   68.5387  223.7074 H   0  0  0  0  0  0  0  0  0  0  0  0
  139.5488   68.0540  226.0473 H   0  0  0  0  0  0  0  0  0  0  0  0
  141.4676   71.0087  228.5422 H   0  0  0  0  0  0  0  0  0  0  0  0
  141.5265   72.5579  226.6070 H   0  0  0  0  0  0  0  0  0  0  0  0
  1  2  2  0
  2  3  1  0
  3  4  1  0
  4  5  1  0
  5  6  2  0
  5  7  1  0
  7  8  1  0
  8  9  1  0
  9 10  1  0
 10 11  1  0
 11 12  1  0
 12 13  1  0
 13 14  1  0
 14 15  1  0
 15 16  1  0
 16 17  1  0
 17 18  1  0
  2 19  1  0
 19 20  2  0
 20 21  1  0
 21 22  2  0
 22 23  1  0
 23 24  2  0
 24 25  1  0
 24 26  1  0
 26 27  2  0
 27 28  1  0
 28 29  2  0
 12  7  1  0
 18 13  1  0
 29 19  1  0
 28 22  1  0
  3 30  1  0
  4 31  1  0
  4 32  1  0
  8 33  1  0
  8 34  1  0
  9 35  1  0
  9 36  1  0
 10 37  1  0
 10 38  1  0
 11 39  1  0
 11 40  1  0
 12 41  1  6
 13 42  1  0
 14 43  1  0
 14 44  1  0
 15 45  1  0
 15 46  1  0
 17 47  1  0
 17 48  1  0
 18 49  1  0
 18 50  1  0
 20 51  1  0
 21 52  1  0
 23 53  1  0
 26 54  1  0
 27 55  1  0
M  END
>  <smiles>  (66) 
O=C(NCC(=O)N1CCCCC1C1CCOCC1)c1ccc2cc(Cl)ccc2n1

>  <score_type>  (66) 
oracle

>  <origin>  (66) 
autodockgpu

>  <m_score__min__energy>  (66) 
-8.9700000000000006

>  <m_primary>  (66) 
energy

>  <rmsd>  (66) 
2.1399647545429636

>  <m_score__min__rmsd>  (66) 
2.1399647545429636

>  <meeko>  (66) 
{"free_energy": -8.75, "intermolecular_energy": -10.24, "internal_energy": -1.64, "cluster_size": 43, "cluster_id": 1, "rank_in_cluster": 8}

>  <energy>  (66) 
-8.04

>  <cluster_rmsd>  (66) 
1.8

>  <cluster>  (66) 
1

$$$$

     RDKit          3D

 55 58  0  0  0  0  0  0  0  0999 V2000
  136.6300   73.3340  220.6980 O   0  0  0  0  0  0  0  0  0  0  0  0
  137.1410   73.5940  221.8270 C   0  0  0  0  0  0  0  0  0  0  0  0
  137.2150   72.5550  222.7880 N   0  0  0  0  0  0  0  0  0  0  0  0
  136.7430   71.2130  222.5680 C   0  0  0  0  0  0  0  0  0  0  0  0
  137.5220   70.2110  223.3590 C   0  0  0  0  0  0  0  0  0  0  0  0
  136.8150   69.4300  224.0480 O   0  0  0  0  0  0  0  0  0  0  0  0
  138.9260   70.2030  223.2940 N   0  0  0  0  0  0  0  0  0  0  0  0
  139.4980   70.1870  221.9170 C   0  0  0  0  0  0  0  0  0  0  0  0
  140.3540   71.4320  221.8200 C   0  0  0  0  0  0  0  0  0  0  0  0
  140.2500   72.2660  223.0770 C   0  0  0  0  0  0  0  0  0  0  0  0
  140.6500   71.5110  224.3050 C   0  0  0  0  0  0  0  0  0  0  0  0
  139.8850   70.1940  224.3440 C   0  0  1  0  0  0  0  0  0  0  0  0
  139.5050   69.8010  225.7080 C   0  0  0  0  0  0  0  0  0  0  0  0
  140.0280   70.5500  226.8700 C   0  0  0  0  0  0  0  0  0  0  0  0
  140.7840   69.5820  227.8300 C   0  0  0  0  0  0  0  0  0  0  0  0
  139.8450   68.6740  228.2600 O   0  0  0  0  0  0  0  0  0  0  0  0
  139.6330   67.7830  227.2250 C   0  0  0  0  0  0  0  0  0  0  0  0
  139.9430   68.3320  225.8780 C   0  0  0  0  0  0  0  0  0  0  0  0
  137.6470   74.9430  222.1380 C   0  0  0  0  0  0  0  0  0  0  0  0
  136.7390   75.9310  222.4510 C   0  0  0  0  0  0  0  0  0  0  0  0
  137.1620   77.2150  222.7540 C   0  0  0  0  0  0  0  0  0  0  0  0
  138.5340   77.4250  222.7200 C   0  0  0  0  0  0  0  0  0  0  0  0
  139.0460   78.6820  223.0120 C   0  0  0  0  0  0  0  0  0  0  0  0
  140.4120   78.8860  222.9780 C   0  0  0  0  0  0  0  0  0  0  0  0
  140.9880   80.4930  223.3580 Cl  0  0  0  0  0  0  0  0  0  0  0  0
  141.2990   77.8760  222.6610 C   0  0  0  0  0  0  0  0  0  0  0  0
  140.7750   76.6390  222.3750 C   0  0  0  0  0  0  0  0  0  0  0  0
  139.4060   76.4050  222.4020 C   0  0  0  0  0  0  0  0  0  0  0  0
  138.9700   75.1620  222.1090 N   0  0  0  0  0  0  0  0  0  0  0  0
  137.6540   72.8320  223.7190 H   0  0  0  0  0  0  0  0  0  0  0  0
  135.6852   71.1551  222.8641 H   0  0  0  0  0  0  0  0  0  0  0  0
  136.8696   70.9778  221.5009 H   0  0  0  0  0  0  0  0  0  0  0  0
  140.1110   69.2863  221.7658 H   0  0  0  0  0  0  0  0  0  0  0  0
  138.7112   70.1719  221.1484 H   0  0  0  0  0  0  0  0  0  0  0  0
  141.4029   71.1357  221.6717 H   0  0  0  0  0  0  0  0  0  0  0  0
  139.9977   72.0346  220.9715 H   0  0  0  0  0  0  0  0  0  0  0  0
  140.9065   73.1425  222.9732 H   0  0  0  0  0  0  0  0  0  0  0  0
  139.1964   72.5590  223.1953 H   0  0  0  0  0  0  0  0  0  0  0  0
  141.7311   71.3097  224.2792 H   0  0  0  0  0  0  0  0  0  0  0  0
  140.4165   72.1050  225.2009 H   0  0  0  0  0  0  0  0  0  0  0  0
  140.5091   69.3200  224.1060 H   0  0  0  0  0  0  0  0  0  0  0  0
  138.4268   70.0155  225.7463 H   0  0  0  0  0  0  0  0  0  0  0  0
  140.7200   71.3299  226.5195 H   0  0  0  0  0  0  0  0  0  0  0  0
  139.1885   71.0123  227.4099 H   0  0  0  0  0  0  0  0  0  0  0  0
  141.5966   69.0688  227.2950 H   0  0  0  0  0  0  0  0  0  0  0  0
  141.2417   70.1217  228.6722 H   0  0  0  0  0  0  0  0  0  0  0  0
  140.2682   66.9008  227.3931 H   0  0  0  0  0  0  0  0  0  0  0  0
  138.5600   67.5410  227.2296 H   0  0  0  0  0  0  0  0  0  0  0  0
  141.0292   68.2695  225.7160 H   0  0  0  0  0  0  0  0  0  0  0  0
  139.3821   67.7354  225.1436 H   0  0  0  0  0  0  0  0  0  0  0  0
  135.6642   75.6972  222.4604 H   0  0  0  0  0  0  0  0  0  0  0  0
  136.4544   78.0186  223.0060 H   0  0  0  0  0  0  0  0  0  0  0  0
  138.3687   79.5099  223.2687 H   0  0  0  0  0  0  0  0  0  0  0  0
  142.3840   78.0554  222.6384 H   0  0  0  0  0  0  0  0  0  0  0  0
  141.4557   75.8139  222.1184 H   0  0  0  0  0  0  0  0  0  0  0  0
  1  2  2  0
  2  3  1  0
  3  4  1  0
  4  5  1  0
  5  6  2  0
  5  7  1  0
  7  8  1  0
  8  9  1  0
  9 10  1  0
 10 11  1  0
 11 12  1  0
 12 13  1  0
 13 14  1  0
 14 15  1  0
 15 16  1  0
 16 17  1  0
 17 18  1  0
  2 19  1  0
 19 20  2  0
 20 21  1  0
 21 22  2  0
 22 23  1  0
 23 24  2  0
 24 25  1  0
 24 26  1  0
 26 27  2  0
 27 28  1  0
 28 29  2  0
 12  7  1  0
 18 13  1  0
 29 19  1  0
 28 22  1  0
  3 30  1  0
  4 31  1  0
  4 32  1  0
  8 33  1  0
  8 34  1  0
  9 35  1  0
  9 36  1  0
 10 37  1  0
 10 38  1  0
 11 39  1  0
 11 40  1  0
 12 41  1  6
 13 42  1  0
 14 43  1  0
 14 44  1  0
 15 45  1  0
 15 46  1  0
 17 47  1  0
 17 48  1  0
 18 49  1  0
 18 50  1  0
 20 51  1  0
 21 52  1  0
 23 53  1  0
 26 54  1  0
 27 55  1  0
M  END
>  <smiles>  (67) 
O=C(NCC(=O)N1CCCCC1C1CCOCC1)c1ccc2cc(Cl)ccc2n1

>  <score_type>  (67) 
oracle

>  <origin>  (67) 
autodockgpu

>  <m_score__min__energy>  (67) 
-8.9700000000000006

>  <m_primary>  (67) 
energy

>  <rmsd>  (67) 
7.285549525844001

>  <m_score__min__rmsd>  (67) 
7.285549525844001

>  <meeko>  (67) 
{"free_energy": -7.45, "intermolecular_energy": -8.94, "internal_energy": -1.82, "cluster_size": 2, "cluster_id": 2, "rank_in_cluster": 2}

>  <energy>  (67) 
-8.02

>  <cluster_rmsd>  (67) 
0.84

>  <cluster>  (67) 
1

$$$$

     RDKit          3D

 55 58  0  0  0  0  0  0  0  0999 V2000
  140.3600   72.4800  220.8300 O   0  0  0  0  0  0  0  0  0  0  0  0
  139.8690   72.7700  221.9590 C   0  0  0  0  0  0  0  0  0  0  0  0
  139.2460   74.0330  222.1200 N   0  0  0  0  0  0  0  0  0  0  0  0
  139.1340   75.0190  221.0760 C   0  0  0  0  0  0  0  0  0  0  0  0
  139.7480   76.3230  221.4740 C   0  0  0  0  0  0  0  0  0  0  0  0
  138.9870   77.0740  222.1390 O   0  0  0  0  0  0  0  0  0  0  0  0
  141.0700   76.6210  221.1010 N   0  0  0  0  0  0  0  0  0  0  0  0
  141.8800   75.4530  220.6490 C   0  0  0  0  0  0  0  0  0  0  0  0
  142.3120   75.7840  219.2350 C   0  0  0  0  0  0  0  0  0  0  0  0
  141.7090   77.0900  218.7710 C   0  0  0  0  0  0  0  0  0  0  0  0
  142.0700   78.2390  219.6570 C   0  0  0  0  0  0  0  0  0  0  0  0
  141.7570   77.8650  221.1000 C   0  0  1  0  0  0  0  0  0  0  0  0
  141.2530   79.0040  221.8830 C   0  0  0  0  0  0  0  0  0  0  0  0
  140.9620   80.2910  221.2180 C   0  0  0  0  0  0  0  0  0  0  0  0
  141.7900   81.4320  221.8820 C   0  0  0  0  0  0  0  0  0  0  0  0
  141.3650   81.4890  223.1890 O   0  0  0  0  0  0  0  0  0  0  0  0
  141.9440   80.4260  223.8560 C   0  0  0  0  0  0  0  0  0  0  0  0
  142.3060   79.2830  222.9750 C   0  0  0  0  0  0  0  0  0  0  0  0
  139.9410   71.8200  223.0840 C   0  0  0  0  0  0  0  0  0  0  0  0
  139.5240   70.5230  222.8780 C   0  0  0  0  0  0  0  0  0  0  0  0
  139.5730   69.5890  223.9010 C   0  0  0  0  0  0  0  0  0  0  0  0
  140.0630   70.0470  225.1160 C   0  0  0  0  0  0  0  0  0  0  0  0
  140.1490   69.1780  226.1950 C   0  0  0  0  0  0  0  0  0  0  0  0
  140.6370   69.6380  227.4030 C   0  0  0  0  0  0  0  0  0  0  0  0
  140.7200   68.4890  228.7190 Cl  0  0  0  0  0  0  0  0  0  0  0  0
  141.0480   70.9450  227.5810 C   0  0  0  0  0  0  0  0  0  0  0  0
  140.9570   71.7890  226.5030 C   0  0  0  0  0  0  0  0  0  0  0  0
  140.4700   71.3550  225.2760 C   0  0  0  0  0  0  0  0  0  0  0  0
  140.4110   72.2470  224.2660 N   0  0  0  0  0  0  0  0  0  0  0  0
  138.8510   74.2220  223.0920 H   0  0  0  0  0  0  0  0  0  0  0  0
  139.6452   74.6447  220.1768 H   0  0  0  0  0  0  0  0  0  0  0  0
  138.0650   75.1903  220.8814 H   0  0  0  0  0  0  0  0  0  0  0  0
  142.7580   75.3196  221.2981 H   0  0  0  0  0  0  0  0  0  0  0  0
  141.3051   74.5162  220.6917 H   0  0  0  0  0  0  0  0  0  0  0  0
  143.4086   75.8641  219.2043 H   0  0  0  0  0  0  0  0  0  0  0  0
  141.9629   74.9824  218.5674 H   0  0  0  0  0  0  0  0  0  0  0  0
  142.0702   77.3027  217.7540 H   0  0  0  0  0  0  0  0  0  0  0  0
  140.6149   76.9795  218.7992 H   0  0  0  0  0  0  0  0  0  0  0  0
  143.1430   78.4598  219.5570 H   0  0  0  0  0  0  0  0  0  0  0  0
  141.4917   79.1290  219.3683 H   0  0  0  0  0  0  0  0  0  0  0  0
  142.6551   77.6561  221.6998 H   0  0  0  0  0  0  0  0  0  0  0  0
  140.2579   78.6704  222.2125 H   0  0  0  0  0  0  0  0  0  0  0  0
  141.2285   80.2195  220.1532 H   0  0  0  0  0  0  0  0  0  0  0  0
  139.8901   80.5161  221.3195 H   0  0  0  0  0  0  0  0  0  0  0  0
  142.8647   81.2014  221.8380 H   0  0  0  0  0  0  0  0  0  0  0  0
  141.6442   82.3923  221.3657 H   0  0  0  0  0  0  0  0  0  0  0  0
  142.8588   80.7849  224.3503 H   0  0  0  0  0  0  0  0  0  0  0  0
  141.1951   80.0525  224.5699 H   0  0  0  0  0  0  0  0  0  0  0  0
  143.2658   79.5075  222.4867 H   0  0  0  0  0  0  0  0  0  0  0  0
  142.3666   78.3863  223.6092 H   0  0  0  0  0  0  0  0  0  0  0  0
  139.1472   70.2248  221.8885 H   0  0  0  0  0  0  0  0  0  0  0  0
  139.2439   68.5491  223.7586 H   0  0  0  0  0  0  0  0  0  0  0  0
  139.8308   68.1304  226.0891 H   0  0  0  0  0  0  0  0  0  0  0  0
  141.4334   71.2955  228.5498 H   0  0  0  0  0  0  0  0  0  0  0  0
  141.2776   72.8355  226.6128 H   0  0  0  0  0  0  0  0  0  0  0  0
  1  2  2  0
  2  3  1  0
  3  4  1  0
  4  5  1  0
  5  6  2  0
  5  7  1  0
  7  8  1  0
  8  9  1  0
  9 10  1  0
 10 11  1  0
 11 12  1  0
 12 13  1  0
 13 14  1  0
 14 15  1  0
 15 16  1  0
 16 17  1  0
 17 18  1  0
  2 19  1  0
 19 20  2  0
 20 21  1  0
 21 22  2  0
 22 23  1  0
 23 24  2  0
 24 25  1  0
 24 26  1  0
 26 27  2  0
 27 28  1  0
 28 29  2  0
 12  7  1  0
 18 13  1  0
 29 19  1  0
 28 22  1  0
  3 30  1  0
  4 31  1  0
  4 32  1  0
  8 33  1  0
  8 34  1  0
  9 35  1  0
  9 36  1  0
 10 37  1  0
 10 38  1  0
 11 39  1  0
 11 40  1  0
 12 41  1  1
 13 42  1  0
 14 43  1  0
 14 44  1  0
 15 45  1  0
 15 46  1  0
 17 47  1  0
 17 48  1  0
 18 49  1  0
 18 50  1  0
 20 51  1  0
 21 52  1  0
 23 53  1  0
 26 54  1  0
 27 55  1  0
M  END
>  <smiles>  (68) 
O=C(NCC(=O)N1CCCCC1C1CCOCC1)c1ccc2cc(Cl)ccc2n1

>  <score_type>  (68) 
oracle

>  <origin>  (68) 
autodockgpu

>  <m_score__min__energy>  (68) 
-8.9700000000000006

>  <m_primary>  (68) 
energy

>  <rmsd>  (68) 
2.0920288126430084

>  <m_score__min__rmsd>  (68) 
2.0920288126430084

>  <meeko>  (68) 
{"free_energy": -8.7, "intermolecular_energy": -10.19, "internal_energy": -1.51, "cluster_size": 43, "cluster_id": 1, "rank_in_cluster": 9}

>  <energy>  (68) 
-7.99

>  <cluster_rmsd>  (68) 
1.51

>  <cluster>  (68) 
1

$$$$

     RDKit          3D

 55 58  0  0  0  0  0  0  0  0999 V2000
  139.1080   71.8110  220.8650 O   0  0  0  0  0  0  0  0  0  0  0  0
  139.3390   72.2580  222.0270 C   0  0  0  0  0  0  0  0  0  0  0  0
  139.3840   73.6620  222.2120 N   0  0  0  0  0  0  0  0  0  0  0  0
  139.1860   74.6240  221.1600 C   0  0  0  0  0  0  0  0  0  0  0  0
  140.2940   75.6280  221.1070 C   0  0  0  0  0  0  0  0  0  0  0  0
  140.4830   76.2510  222.1840 O   0  0  0  0  0  0  0  0  0  0  0  0
  141.0210   75.8090  219.9180 N   0  0  0  0  0  0  0  0  0  0  0  0
  140.2610   76.4350  218.7980 C   0  0  0  0  0  0  0  0  0  0  0  0
  141.0210   77.6970  218.4480 C   0  0  0  0  0  0  0  0  0  0  0  0
  142.1840   77.9130  219.3900 C   0  0  0  0  0  0  0  0  0  0  0  0
  143.1450   76.7670  219.3920 C   0  0  0  0  0  0  0  0  0  0  0  0
  142.3690   75.4750  219.6160 C   0  0  1  0  0  0  0  0  0  0  0  0
  143.1080   74.5080  220.4410 C   0  0  0  0  0  0  0  0  0  0  0  0
  144.5860   74.5190  220.4530 C   0  0  0  0  0  0  0  0  0  0  0  0
  145.1320   73.1220  220.0280 C   0  0  0  0  0  0  0  0  0  0  0  0
  144.6760   72.2380  220.9780 O   0  0  0  0  0  0  0  0  0  0  0  0
  143.3390   72.0050  220.7130 C   0  0  0  0  0  0  0  0  0  0  0  0
  142.6670   73.1060  219.9730 C   0  0  0  0  0  0  0  0  0  0  0  0
  139.5560   71.3430  223.1620 C   0  0  0  0  0  0  0  0  0  0  0  0
  139.2010   70.0190  223.0180 C   0  0  0  0  0  0  0  0  0  0  0  0
  139.3860   69.1160  224.0520 C   0  0  0  0  0  0  0  0  0  0  0  0
  139.9420   69.6320  225.2140 C   0  0  0  0  0  0  0  0  0  0  0  0
  140.1650   68.7980  226.3020 C   0  0  0  0  0  0  0  0  0  0  0  0
  140.7190   69.3160  227.4560 C   0  0  0  0  0  0  0  0  0  0  0  0
  140.9730   68.2080  228.7850 Cl  0  0  0  0  0  0  0  0  0  0  0  0
  141.0650   70.6480  227.5720 C   0  0  0  0  0  0  0  0  0  0  0  0
  140.8380   71.4580  226.4880 C   0  0  0  0  0  0  0  0  0  0  0  0
  140.2820   70.9650  225.3140 C   0  0  0  0  0  0  0  0  0  0  0  0
  140.0920   71.8260  224.2930 N   0  0  0  0  0  0  0  0  0  0  0  0
  139.5820   73.9790  223.2100 H   0  0  0  0  0  0  0  0  0  0  0  0
  139.1400   74.0939  220.1973 H   0  0  0  0  0  0  0  0  0  0  0  0
  138.2478   75.1617  221.3616 H   0  0  0  0  0  0  0  0  0  0  0  0
  140.2232   75.7567  217.9328 H   0  0  0  0  0  0  0  0  0  0  0  0
  139.2205   76.6511  219.0819 H   0  0  0  0  0  0  0  0  0  0  0  0
  141.4027   77.6126  217.4198 H   0  0  0  0  0  0  0  0  0  0  0  0
  140.3359   78.5529  218.5379 H   0  0  0  0  0  0  0  0  0  0  0  0
  142.7213   78.8225  219.0831 H   0  0  0  0  0  0  0  0  0  0  0  0
  141.7753   78.0060  220.4070 H   0  0  0  0  0  0  0  0  0  0  0  0
  143.6677   76.7213  218.4252 H   0  0  0  0  0  0  0  0  0  0  0  0
  143.8854   76.9018  220.1943 H   0  0  0  0  0  0  0  0  0  0  0  0
  142.2772   74.8594  218.7090 H   0  0  0  0  0  0  0  0  0  0  0  0
  142.8539   74.8011  221.4703 H   0  0  0  0  0  0  0  0  0  0  0  0
  144.9505   75.2822  219.7496 H   0  0  0  0  0  0  0  0  0  0  0  0
  144.9376   74.7507  221.4692 H   0  0  0  0  0  0  0  0  0  0  0  0
  144.7496   72.8473  219.0339 H   0  0  0  0  0  0  0  0  0  0  0  0
  146.2302   73.1181  219.9645 H   0  0  0  0  0  0  0  0  0  0  0  0
  143.2606   71.0867  220.1125 H   0  0  0  0  0  0  0  0  0  0  0  0
  142.8324   71.9204  221.6857 H   0  0  0  0  0  0  0  0  0  0  0  0
  142.9029   73.0038  218.9035 H   0  0  0  0  0  0  0  0  0  0  0  0
  141.5877   73.0202  220.1671 H   0  0  0  0  0  0  0  0  0  0  0  0
  138.7647   69.6746  222.0688 H   0  0  0  0  0  0  0  0  0  0  0  0
  139.1093   68.0555  223.9578 H   0  0  0  0  0  0  0  0  0  0  0  0
  139.9019   67.7314  226.2448 H   0  0  0  0  0  0  0  0  0  0  0  0
  141.5059   71.0446  228.4985 H   0  0  0  0  0  0  0  0  0  0  0  0
  141.1027   72.5239  226.5500 H   0  0  0  0  0  0  0  0  0  0  0  0
  1  2  2  0
  2  3  1  0
  3  4  1  0
  4  5  1  0
  5  6  2  0
  5  7  1  0
  7  8  1  0
  8  9  1  0
  9 10  1  0
 10 11  1  0
 11 12  1  0
 12 13  1  0
 13 14  1  0
 14 15  1  0
 15 16  1  0
 16 17  1  0
 17 18  1  0
  2 19  1  0
 19 20  2  0
 20 21  1  0
 21 22  2  0
 22 23  1  0
 23 24  2  0
 24 25  1  0
 24 26  1  0
 26 27  2  0
 27 28  1  0
 28 29  2  0
 12  7  1  0
 18 13  1  0
 29 19  1  0
 28 22  1  0
  3 30  1  0
  4 31  1  0
  4 32  1  0
  8 33  1  0
  8 34  1  0
  9 35  1  0
  9 36  1  0
 10 37  1  0
 10 38  1  0
 11 39  1  0
 11 40  1  0
 12 41  1  6
 13 42  1  0
 14 43  1  0
 14 44  1  0
 15 45  1  0
 15 46  1  0
 17 47  1  0
 17 48  1  0
 18 49  1  0
 18 50  1  0
 20 51  1  0
 21 52  1  0
 23 53  1  0
 26 54  1  0
 27 55  1  0
M  END
>  <smiles>  (69) 
O=C(NCC(=O)N1CCCCC1C1CCOCC1)c1ccc2cc(Cl)ccc2n1

>  <score_type>  (69) 
oracle

>  <origin>  (69) 
autodockgpu

>  <m_score__min__energy>  (69) 
-8.9700000000000006

>  <m_primary>  (69) 
energy

>  <rmsd>  (69) 
1.7248678426528232

>  <m_score__min__rmsd>  (69) 
1.7248678426528232

>  <meeko>  (69) 
{"free_energy": -7.82, "intermolecular_energy": -9.31, "internal_energy": -2.09, "cluster_size": 43, "cluster_id": 1, "rank_in_cluster": 29}

>  <energy>  (69) 
-7.95

>  <cluster_rmsd>  (69) 
1.66

>  <cluster>  (69) 
1

$$$$

     RDKit          3D

 55 58  0  0  0  0  0  0  0  0999 V2000
  139.2000   71.4180  220.8840 O   0  0  0  0  0  0  0  0  0  0  0  0
  139.3950   71.9150  222.0310 C   0  0  0  0  0  0  0  0  0  0  0  0
  139.4470   73.3260  222.1550 N   0  0  0  0  0  0  0  0  0  0  0  0
  139.2940   74.2410  221.0540 C   0  0  0  0  0  0  0  0  0  0  0  0
  140.3470   75.3040  221.0640 C   0  0  0  0  0  0  0  0  0  0  0  0
  140.8470   75.5290  222.1970 O   0  0  0  0  0  0  0  0  0  0  0  0
  140.6960   75.9580  219.8700 N   0  0  0  0  0  0  0  0  0  0  0  0
  139.7100   76.9680  219.3880 C   0  0  0  0  0  0  0  0  0  0  0  0
  140.4710   78.2770  219.3240 C   0  0  0  0  0  0  0  0  0  0  0  0
  141.8810   78.1140  219.8440 C   0  0  0  0  0  0  0  0  0  0  0  0
  142.6570   77.0780  219.0950 C   0  0  0  0  0  0  0  0  0  0  0  0
  141.8410   75.7930  219.0440 C   0  0  1  0  0  0  0  0  0  0  0  0
  142.6770   74.5880  219.1470 C   0  0  0  0  0  0  0  0  0  0  0  0
  142.0660   73.2890  219.4990 C   0  0  0  0  0  0  0  0  0  0  0  0
  142.7490   72.7080  220.7730 C   0  0  0  0  0  0  0  0  0  0  0  0
  144.0680   72.5140  220.4350 O   0  0  0  0  0  0  0  0  0  0  0  0
  144.6800   73.7530  220.4430 C   0  0  0  0  0  0  0  0  0  0  0  0
  143.7500   74.8900  220.2130 C   0  0  0  0  0  0  0  0  0  0  0  0
  139.5640   71.0510  223.2130 C   0  0  0  0  0  0  0  0  0  0  0  0
  139.1270   69.7450  223.1420 C   0  0  0  0  0  0  0  0  0  0  0  0
  139.2640   68.8890  224.2230 C   0  0  0  0  0  0  0  0  0  0  0  0
  139.8600   69.4320  225.3530 C   0  0  0  0  0  0  0  0  0  0  0  0
  140.0380   68.6450  226.4830 C   0  0  0  0  0  0  0  0  0  0  0  0
  140.6320   69.1890  227.6060 C   0  0  0  0  0  0  0  0  0  0  0  0
  140.8280   68.1400  228.9920 Cl  0  0  0  0  0  0  0  0  0  0  0  0
  141.0600   70.5020  227.6480 C   0  0  0  0  0  0  0  0  0  0  0  0
  140.8760   71.2650  226.5220 C   0  0  0  0  0  0  0  0  0  0  0  0
  140.2820   70.7450  225.3790 C   0  0  0  0  0  0  0  0  0  0  0  0
  140.1370   71.5590  224.3140 N   0  0  0  0  0  0  0  0  0  0  0  0
  139.6130   73.6860  223.1440 H   0  0  0  0  0  0  0  0  0  0  0  0
  139.3648   73.6786  220.1113 H   0  0  0  0  0  0  0  0  0  0  0  0
  138.3135   74.7303  221.1500 H   0  0  0  0  0  0  0  0  0  0  0  0
  139.3335   76.6929  218.3917 H   0  0  0  0  0  0  0  0  0  0  0  0
  138.8363   77.0356  220.0529 H   0  0  0  0  0  0  0  0  0  0  0  0
  140.5109   78.6184  218.2791 H   0  0  0  0  0  0  0  0  0  0  0  0
  139.9503   79.0144  219.9527 H   0  0  0  0  0  0  0  0  0  0  0  0
  142.4029   79.0781  219.7536 H   0  0  0  0  0  0  0  0  0  0  0  0
  141.8125   77.7847  220.8913 H   0  0  0  0  0  0  0  0  0  0  0  0
  142.8537   77.4316  218.0721 H   0  0  0  0  0  0  0  0  0  0  0  0
  143.6156   76.8914  219.6012 H   0  0  0  0  0  0  0  0  0  0  0  0
  141.4085   75.5901  218.0532 H   0  0  0  0  0  0  0  0  0  0  0  0
  143.0209   74.4240  218.1151 H   0  0  0  0  0  0  0  0  0  0  0  0
  140.9928   73.4318  219.6938 H   0  0  0  0  0  0  0  0  0  0  0  0
  142.2027   72.5869  218.6633 H   0  0  0  0  0  0  0  0  0  0  0  0
  142.6682   73.4185  221.6089 H   0  0  0  0  0  0  0  0  0  0  0  0
  142.2719   71.7713  221.0970 H   0  0  0  0  0  0  0  0  0  0  0  0
  145.1626   73.8938  221.4214 H   0  0  0  0  0  0  0  0  0  0  0  0
  145.3990   73.7574  219.6105 H   0  0  0  0  0  0  0  0  0  0  0  0
  143.2448   75.1263  221.1611 H   0  0  0  0  0  0  0  0  0  0  0  0
  144.3500   75.7350  219.8442 H   0  0  0  0  0  0  0  0  0  0  0  0
  138.6633   69.3778  222.2146 H   0  0  0  0  0  0  0  0  0  0  0  0
  138.9218   67.8442  224.1879 H   0  0  0  0  0  0  0  0  0  0  0  0
  139.7084   67.5955  226.4843 H   0  0  0  0  0  0  0  0  0  0  0  0
  141.5306   70.9202  228.5500 H   0  0  0  0  0  0  0  0  0  0  0  0
  141.2070   72.3140  226.5248 H   0  0  0  0  0  0  0  0  0  0  0  0
  1  2  2  0
  2  3  1  0
  3  4  1  0
  4  5  1  0
  5  6  2  0
  5  7  1  0
  7  8  1  0
  8  9  1  0
  9 10  1  0
 10 11  1  0
 11 12  1  0
 12 13  1  0
 13 14  1  0
 14 15  1  0
 15 16  1  0
 16 17  1  0
 17 18  1  0
  2 19  1  0
 19 20  2  0
 20 21  1  0
 21 22  2  0
 22 23  1  0
 23 24  2  0
 24 25  1  0
 24 26  1  0
 26 27  2  0
 27 28  1  0
 28 29  2  0
 12  7  1  0
 18 13  1  0
 29 19  1  0
 28 22  1  0
  3 30  1  0
  4 31  1  0
  4 32  1  0
  8 33  1  0
  8 34  1  0
  9 35  1  0
  9 36  1  0
 10 37  1  0
 10 38  1  0
 11 39  1  0
 11 40  1  0
 12 41  1  6
 13 42  1  0
 14 43  1  0
 14 44  1  0
 15 45  1  0
 15 46  1  0
 17 47  1  0
 17 48  1  0
 18 49  1  0
 18 50  1  0
 20 51  1  0
 21 52  1  0
 23 53  1  0
 26 54  1  0
 27 55  1  0
M  END
>  <smiles>  (70) 
O=C(NCC(=O)N1CCCCC1C1CCOCC1)c1ccc2cc(Cl)ccc2n1

>  <score_type>  (70) 
oracle

>  <origin>  (70) 
autodockgpu

>  <m_score__min__energy>  (70) 
-8.9700000000000006

>  <m_primary>  (70) 
energy

>  <rmsd>  (70) 
1.7132258451467368

>  <m_score__min__rmsd>  (70) 
1.7132258451467368

>  <meeko>  (70) 
{"free_energy": -7.51, "intermolecular_energy": -9.0, "internal_energy": -2.27, "cluster_size": 43, "cluster_id": 1, "rank_in_cluster": 40}

>  <energy>  (70) 
-7.92

>  <cluster_rmsd>  (70) 
0.8

>  <cluster>  (70) 
1

$$$$

     RDKit          3D

 55 58  0  0  0  0  0  0  0  0999 V2000
  138.7830   71.5370  221.0120 O   0  0  0  0  0  0  0  0  0  0  0  0
  139.2440   71.9950  222.0980 C   0  0  0  0  0  0  0  0  0  0  0  0
  139.5390   73.3790  222.1740 N   0  0  0  0  0  0  0  0  0  0  0  0
  139.3510   74.3080  221.0900 C   0  0  0  0  0  0  0  0  0  0  0  0
  140.4230   75.3510  221.0580 C   0  0  0  0  0  0  0  0  0  0  0  0
  140.9780   75.5590  222.1690 O   0  0  0  0  0  0  0  0  0  0  0  0
  140.7290   76.0070  219.8540 N   0  0  0  0  0  0  0  0  0  0  0  0
  139.7150   76.9990  219.3950 C   0  0  0  0  0  0  0  0  0  0  0  0
  140.4510   78.3200  219.3070 C   0  0  0  0  0  0  0  0  0  0  0  0
  141.8770   78.1830  219.7910 C   0  0  0  0  0  0  0  0  0  0  0  0
  142.6510   77.1570  219.0240 C   0  0  0  0  0  0  0  0  0  0  0  0
  141.8550   75.8580  218.9990 C   0  0  1  0  0  0  0  0  0  0  0  0
  142.7130   74.6680  219.0830 C   0  0  0  0  0  0  0  0  0  0  0  0
  142.1290   73.3540  219.4270 C   0  0  0  0  0  0  0  0  0  0  0  0
  142.8330   72.7730  220.6900 C   0  0  0  0  0  0  0  0  0  0  0  0
  144.1520   72.6070  220.3400 O   0  0  0  0  0  0  0  0  0  0  0  0
  144.7420   73.8570  220.3560 C   0  0  0  0  0  0  0  0  0  0  0  0
  143.7890   74.9790  220.1440 C   0  0  0  0  0  0  0  0  0  0  0  0
  139.4690   71.1140  223.2580 C   0  0  0  0  0  0  0  0  0  0  0  0
  139.0800   69.7950  223.1690 C   0  0  0  0  0  0  0  0  0  0  0  0
  139.2710   68.9230  224.2290 C   0  0  0  0  0  0  0  0  0  0  0  0
  139.8710   69.4650  225.3570 C   0  0  0  0  0  0  0  0  0  0  0  0
  140.1020   68.6630  226.4660 C   0  0  0  0  0  0  0  0  0  0  0  0
  140.7000   69.2050  227.5880 C   0  0  0  0  0  0  0  0  0  0  0  0
  140.9630   68.1370  228.9470 Cl  0  0  0  0  0  0  0  0  0  0  0  0
  141.0810   70.5320  227.6490 C   0  0  0  0  0  0  0  0  0  0  0  0
  140.8450   71.3100  226.5430 C   0  0  0  0  0  0  0  0  0  0  0  0
  140.2450   70.7910  225.4020 C   0  0  0  0  0  0  0  0  0  0  0  0
  140.0470   71.6210  224.3570 N   0  0  0  0  0  0  0  0  0  0  0  0
  139.9240   73.7080  223.1120 H   0  0  0  0  0  0  0  0  0  0  0  0
  139.3654   73.7538  220.1399 H   0  0  0  0  0  0  0  0  0  0  0  0
  138.3861   74.8148  221.2384 H   0  0  0  0  0  0  0  0  0  0  0  0
  139.3174   76.7142  218.4097 H   0  0  0  0  0  0  0  0  0  0  0  0
  138.8584   77.0545  220.0828 H   0  0  0  0  0  0  0  0  0  0  0  0
  140.4580   78.6581  218.2603 H   0  0  0  0  0  0  0  0  0  0  0  0
  139.9341   79.0507  219.9464 H   0  0  0  0  0  0  0  0  0  0  0  0
  142.3798   79.1555  219.6843 H   0  0  0  0  0  0  0  0  0  0  0  0
  141.8417   77.8564  220.8408 H   0  0  0  0  0  0  0  0  0  0  0  0
  142.8144   77.5102  217.9951 H   0  0  0  0  0  0  0  0  0  0  0  0
  143.6260   76.9884  219.5046 H   0  0  0  0  0  0  0  0  0  0  0  0
  141.3996   75.6442  218.0208 H   0  0  0  0  0  0  0  0  0  0  0  0
  143.0509   74.5207  218.0466 H   0  0  0  0  0  0  0  0  0  0  0  0
  141.0550   73.4749  219.6316 H   0  0  0  0  0  0  0  0  0  0  0  0
  142.2722   72.6628  218.5833 H   0  0  0  0  0  0  0  0  0  0  0  0
  142.7457   73.4735  221.5336 H   0  0  0  0  0  0  0  0  0  0  0  0
  142.3759   71.8244  221.0082 H   0  0  0  0  0  0  0  0  0  0  0  0
  145.2293   73.9969  221.3322 H   0  0  0  0  0  0  0  0  0  0  0  0
  145.4551   73.8829  219.5188 H   0  0  0  0  0  0  0  0  0  0  0  0
  143.2869   75.1967  221.0982 H   0  0  0  0  0  0  0  0  0  0  0  0
  144.3706   75.8382  219.7787 H   0  0  0  0  0  0  0  0  0  0  0  0
  138.6113   69.4291  222.2436 H   0  0  0  0  0  0  0  0  0  0  0  0
  138.9661   67.8673  224.1795 H   0  0  0  0  0  0  0  0  0  0  0  0
  139.8109   67.6023  226.4520 H   0  0  0  0  0  0  0  0  0  0  0  0
  141.5553   70.9489  228.5496 H   0  0  0  0  0  0  0  0  0  0  0  0
  141.1380   72.3701  226.5603 H   0  0  0  0  0  0  0  0  0  0  0  0
  1  2  2  0
  2  3  1  0
  3  4  1  0
  4  5  1  0
  5  6  2  0
  5  7  1  0
  7  8  1  0
  8  9  1  0
  9 10  1  0
 10 11  1  0
 11 12  1  0
 12 13  1  0
 13 14  1  0
 14 15  1  0
 15 16  1  0
 16 17  1  0
 17 18  1  0
  2 19  1  0
 19 20  2  0
 20 21  1  0
 21 22  2  0
 22 23  1  0
 23 24  2  0
 24 25  1  0
 24 26  1  0
 26 27  2  0
 27 28  1  0
 28 29  2  0
 12  7  1  0
 18 13  1  0
 29 19  1  0
 28 22  1  0
  3 30  1  0
  4 31  1  0
  4 32  1  0
  8 33  1  0
  8 34  1  0
  9 35  1  0
  9 36  1  0
 10 37  1  0
 10 38  1  0
 11 39  1  0
 11 40  1  0
 12 41  1  6
 13 42  1  0
 14 43  1  0
 14 44  1  0
 15 45  1  0
 15 46  1  0
 17 47  1  0
 17 48  1  0
 18 49  1  0
 18 50  1  0
 20 51  1  0
 21 52  1  0
 23 53  1  0
 26 54  1  0
 27 55  1  0
M  END
>  <smiles>  (71) 
O=C(NCC(=O)N1CCCCC1C1CCOCC1)c1ccc2cc(Cl)ccc2n1

>  <score_type>  (71) 
oracle

>  <origin>  (71) 
autodockgpu

>  <m_score__min__energy>  (71) 
-8.9700000000000006

>  <m_primary>  (71) 
energy

>  <rmsd>  (71) 
1.7336284919478113

>  <m_score__min__rmsd>  (71) 
1.7336284919478113

>  <meeko>  (71) 
{"free_energy": -7.39, "intermolecular_energy": -8.88, "internal_energy": -2.37, "cluster_size": 43, "cluster_id": 1, "rank_in_cluster": 43}

>  <energy>  (71) 
-7.92

>  <cluster_rmsd>  (71) 
0.81

>  <cluster>  (71) 
1

$$$$

     RDKit          3D

 55 58  0  0  0  0  0  0  0  0999 V2000
  139.6720   72.3680  220.7780 O   0  0  0  0  0  0  0  0  0  0  0  0
  139.6690   72.7530  221.9840 C   0  0  0  0  0  0  0  0  0  0  0  0
  139.5100   74.1350  222.2510 N   0  0  0  0  0  0  0  0  0  0  0  0
  139.3530   75.1430  221.2350 C   0  0  0  0  0  0  0  0  0  0  0  0
  140.6080   75.9310  221.0330 C   0  0  0  0  0  0  0  0  0  0  0  0
  140.9710   76.5970  222.0370 O   0  0  0  0  0  0  0  0  0  0  0  0
  141.2740   75.8860  219.7960 N   0  0  0  0  0  0  0  0  0  0  0  0
  140.5000   76.4200  218.6380 C   0  0  0  0  0  0  0  0  0  0  0  0
  141.3370   77.5520  218.0800 C   0  0  0  0  0  0  0  0  0  0  0  0
  142.5690   77.7880  218.9240 C   0  0  0  0  0  0  0  0  0  0  0  0
  143.4320   76.5720  219.0390 C   0  0  0  0  0  0  0  0  0  0  0  0
  142.5700   75.3960  219.4780 C   0  0  1  0  0  0  0  0  0  0  0  0
  143.2770   74.4870  220.3920 C   0  0  0  0  0  0  0  0  0  0  0  0
  144.7520   74.5150  220.4730 C   0  0  0  0  0  0  0  0  0  0  0  0
  145.3290   73.1020  220.1570 C   0  0  0  0  0  0  0  0  0  0  0  0
  144.8360   72.2700  221.1340 O   0  0  0  0  0  0  0  0  0  0  0  0
  143.5150   72.0070  220.8210 C   0  0  0  0  0  0  0  0  0  0  0  0
  142.8700   73.0550  219.9870 C   0  0  0  0  0  0  0  0  0  0  0  0
  139.8270   71.7880  223.0880 C   0  0  0  0  0  0  0  0  0  0  0  0
  139.4650   70.4760  222.8720 C   0  0  0  0  0  0  0  0  0  0  0  0
  139.5950   69.5280  223.8740 C   0  0  0  0  0  0  0  0  0  0  0  0
  140.1050   69.9880  225.0800 C   0  0  0  0  0  0  0  0  0  0  0  0
  140.2710   69.1060  226.1390 C   0  0  0  0  0  0  0  0  0  0  0  0
  140.7800   69.5670  227.3380 C   0  0  0  0  0  0  0  0  0  0  0  0
  140.9640   68.4020  228.6280 Cl  0  0  0  0  0  0  0  0  0  0  0  0
  141.1340   70.8900  227.5260 C   0  0  0  0  0  0  0  0  0  0  0  0
  140.9640   71.7470  226.4680 C   0  0  0  0  0  0  0  0  0  0  0  0
  140.4550   71.3110  225.2510 C   0  0  0  0  0  0  0  0  0  0  0  0
  140.3180   72.2160  224.2600 N   0  0  0  0  0  0  0  0  0  0  0  0
  139.5150   74.3990  223.2840 H   0  0  0  0  0  0  0  0  0  0  0  0
  139.0837   74.6538  220.2873 H   0  0  0  0  0  0  0  0  0  0  0  0
  138.5638   75.8363  221.5615 H   0  0  0  0  0  0  0  0  0  0  0  0
  140.3559   75.6377  217.8783 H   0  0  0  0  0  0  0  0  0  0  0  0
  139.4989   76.7624  218.9390 H   0  0  0  0  0  0  0  0  0  0  0  0
  141.6470   77.2979  217.0556 H   0  0  0  0  0  0  0  0  0  0  0  0
  140.7301   78.4694  218.0851 H   0  0  0  0  0  0  0  0  0  0  0  0
  143.1590   78.5962  218.4671 H   0  0  0  0  0  0  0  0  0  0  0  0
  142.2318   78.0529  219.9370 H   0  0  0  0  0  0  0  0  0  0  0  0
  143.8900   76.3505  218.0637 H   0  0  0  0  0  0  0  0  0  0  0  0
  144.2275   76.7478  219.7781 H   0  0  0  0  0  0  0  0  0  0  0  0
  142.3742   74.6740  218.6715 H   0  0  0  0  0  0  0  0  0  0  0  0
  142.9720   74.8368  221.3893 H   0  0  0  0  0  0  0  0  0  0  0  0
  145.1434   75.2399  219.7441 H   0  0  0  0  0  0  0  0  0  0  0  0
  145.0528   74.8093  221.4893 H   0  0  0  0  0  0  0  0  0  0  0  0
  144.9967   72.7657  219.1638 H   0  0  0  0  0  0  0  0  0  0  0  0
  146.4289   73.1066  220.1458 H   0  0  0  0  0  0  0  0  0  0  0  0
  143.4727   71.0543  220.2728 H   0  0  0  0  0  0  0  0  0  0  0  0
  142.9636   71.9738  221.7722 H   0  0  0  0  0  0  0  0  0  0  0  0
  143.1572   72.8931  218.9376 H   0  0  0  0  0  0  0  0  0  0  0  0
  141.7834   72.9689  220.1349 H   0  0  0  0  0  0  0  0  0  0  0  0
  139.0675   70.1773  221.8908 H   0  0  0  0  0  0  0  0  0  0  0  0
  139.3116   68.4759  223.7230 H   0  0  0  0  0  0  0  0  0  0  0  0
  139.9989   68.0464  226.0243 H   0  0  0  0  0  0  0  0  0  0  0  0
  141.5366   71.2423  228.4871 H   0  0  0  0  0  0  0  0  0  0  0  0
  141.2376   72.8058  226.5863 H   0  0  0  0  0  0  0  0  0  0  0  0
  1  2  2  0
  2  3  1  0
  3  4  1  0
  4  5  1  0
  5  6  2  0
  5  7  1  0
  7  8  1  0
  8  9  1  0
  9 10  1  0
 10 11  1  0
 11 12  1  0
 12 13  1  0
 13 14  1  0
 14 15  1  0
 15 16  1  0
 16 17  1  0
 17 18  1  0
  2 19  1  0
 19 20  2  0
 20 21  1  0
 21 22  2  0
 22 23  1  0
 23 24  2  0
 24 25  1  0
 24 26  1  0
 26 27  2  0
 27 28  1  0
 28 29  2  0
 12  7  1  0
 18 13  1  0
 29 19  1  0
 28 22  1  0
  3 30  1  0
  4 31  1  0
  4 32  1  0
  8 33  1  0
  8 34  1  0
  9 35  1  0
  9 36  1  0
 10 37  1  0
 10 38  1  0
 11 39  1  0
 11 40  1  0
 12 41  1  6
 13 42  1  0
 14 43  1  0
 14 44  1  0
 15 45  1  0
 15 46  1  0
 17 47  1  0
 17 48  1  0
 18 49  1  0
 18 50  1  0
 20 51  1  0
 21 52  1  0
 23 53  1  0
 26 54  1  0
 27 55  1  0
M  END
>  <smiles>  (72) 
O=C(NCC(=O)N1CCCCC1C1CCOCC1)c1ccc2cc(Cl)ccc2n1

>  <score_type>  (72) 
oracle

>  <origin>  (72) 
autodockgpu

>  <m_score__min__energy>  (72) 
-8.9700000000000006

>  <m_primary>  (72) 
energy

>  <rmsd>  (72) 
1.9392601383258299

>  <m_score__min__rmsd>  (72) 
1.9392601383258299

>  <meeko>  (72) 
{"free_energy": -7.76, "intermolecular_energy": -9.25, "internal_energy": -2.08, "cluster_size": 43, "cluster_id": 1, "rank_in_cluster": 33}

>  <energy>  (72) 
-7.92

>  <cluster_rmsd>  (72) 
1.75

>  <cluster>  (72) 
1

$$$$

     RDKit          3D

 55 58  0  0  0  0  0  0  0  0999 V2000
  141.1130   72.8810  221.2670 O   0  0  0  0  0  0  0  0  0  0  0  0
  140.2600   72.9580  222.1980 C   0  0  0  0  0  0  0  0  0  0  0  0
  139.3530   74.0470  222.1940 N   0  0  0  0  0  0  0  0  0  0  0  0
  139.3380   75.0830  221.1950 C   0  0  0  0  0  0  0  0  0  0  0  0
  139.9620   76.3480  221.6940 C   0  0  0  0  0  0  0  0  0  0  0  0
  139.3280   76.9060  222.6270 O   0  0  0  0  0  0  0  0  0  0  0  0
  141.1560   76.8160  221.1210 N   0  0  0  0  0  0  0  0  0  0  0  0
  141.8460   75.8540  220.2140 C   0  0  0  0  0  0  0  0  0  0  0  0
  141.9310   76.5520  218.8730 C   0  0  0  0  0  0  0  0  0  0  0  0
  141.2270   77.8890  218.9080 C   0  0  0  0  0  0  0  0  0  0  0  0
  141.7780   78.8050  219.9540 C   0  0  0  0  0  0  0  0  0  0  0  0
  141.8150   78.0650  221.2850 C   0  0  1  0  0  0  0  0  0  0  0  0
  141.5020   78.9380  222.4260 C   0  0  0  0  0  0  0  0  0  0  0  0
  140.3960   79.9140  222.3320 C   0  0  0  0  0  0  0  0  0  0  0  0
  140.9300   81.3520  222.6080 C   0  0  0  0  0  0  0  0  0  0  0  0
  141.4100   81.3310  223.8970 O   0  0  0  0  0  0  0  0  0  0  0  0
  142.6290   80.6800  223.8700 C   0  0  0  0  0  0  0  0  0  0  0  0
  142.7870   79.7350  222.7330 C   0  0  0  0  0  0  0  0  0  0  0  0
  140.2060   71.9400  223.2640 C   0  0  0  0  0  0  0  0  0  0  0  0
  139.6830   70.7000  222.9640 C   0  0  0  0  0  0  0  0  0  0  0  0
  139.6120   69.7070  223.9280 C   0  0  0  0  0  0  0  0  0  0  0  0
  140.0950   70.0460  225.1840 C   0  0  0  0  0  0  0  0  0  0  0  0
  140.0640   69.1110  226.2100 C   0  0  0  0  0  0  0  0  0  0  0  0
  140.5460   69.4520  227.4580 C   0  0  0  0  0  0  0  0  0  0  0  0
  140.4780   68.2250  228.7030 Cl  0  0  0  0  0  0  0  0  0  0  0  0
  141.0650   70.7040  227.7300 C   0  0  0  0  0  0  0  0  0  0  0  0
  141.0880   71.6160  226.7040 C   0  0  0  0  0  0  0  0  0  0  0  0
  140.6100   71.3000  225.4380 C   0  0  0  0  0  0  0  0  0  0  0  0
  140.6680   72.2520  224.4830 N   0  0  0  0  0  0  0  0  0  0  0  0
  138.6580   74.0590  223.0010 H   0  0  0  0  0  0  0  0  0  0  0  0
  139.8960   74.7349  220.3132 H   0  0  0  0  0  0  0  0  0  0  0  0
  138.2892   75.2970  220.9414 H   0  0  0  0  0  0  0  0  0  0  0  0
  142.8530   75.6238  220.5921 H   0  0  0  0  0  0  0  0  0  0  0  0
  141.3042   74.8993  220.1435 H   0  0  0  0  0  0  0  0  0  0  0  0
  142.9891   76.7101  218.6170 H   0  0  0  0  0  0  0  0  0  0  0  0
  141.4403   75.9192  218.1188 H   0  0  0  0  0  0  0  0  0  0  0  0
  141.3374   78.3705  217.9252 H   0  0  0  0  0  0  0  0  0  0  0  0
  140.1712   77.7019  219.1534 H   0  0  0  0  0  0  0  0  0  0  0  0
  142.7959   79.1149  219.6749 H   0  0  0  0  0  0  0  0  0  0  0  0
  141.1421   79.6984  220.0408 H   0  0  0  0  0  0  0  0  0  0  0  0
  142.8299   77.7739  221.5937 H   0  0  0  0  0  0  0  0  0  0  0  0
  141.1448   78.2377  223.1954 H   0  0  0  0  0  0  0  0  0  0  0  0
  139.9601   79.8746  221.3228 H   0  0  0  0  0  0  0  0  0  0  0  0
  139.6288   79.6638  223.0795 H   0  0  0  0  0  0  0  0  0  0  0  0
  141.7359   81.6035  221.9029 H   0  0  0  0  0  0  0  0  0  0  0  0
  140.1417   82.1086  222.4811 H   0  0  0  0  0  0  0  0  0  0  0  0
  143.4238   81.4375  223.8027 H   0  0  0  0  0  0  0  0  0  0  0  0
  142.6896   80.0815  224.7909 H   0  0  0  0  0  0  0  0  0  0  0  0
  143.0657   80.3088  221.8369 H   0  0  0  0  0  0  0  0  0  0  0  0
  143.5639   79.0091  223.0150 H   0  0  0  0  0  0  0  0  0  0  0  0
  139.3175   70.4964  221.9467 H   0  0  0  0  0  0  0  0  0  0  0  0
  139.1982   68.7112  223.7109 H   0  0  0  0  0  0  0  0  0  0  0  0
  139.6579   68.1048  226.0296 H   0  0  0  0  0  0  0  0  0  0  0  0
  141.4450   70.9598  228.7301 H   0  0  0  0  0  0  0  0  0  0  0  0
  141.4947   72.6213  226.8886 H   0  0  0  0  0  0  0  0  0  0  0  0
  1  2  2  0
  2  3  1  0
  3  4  1  0
  4  5  1  0
  5  6  2  0
  5  7  1  0
  7  8  1  0
  8  9  1  0
  9 10  1  0
 10 11  1  0
 11 12  1  0
 12 13  1  0
 13 14  1  0
 14 15  1  0
 15 16  1  0
 16 17  1  0
 17 18  1  0
  2 19  1  0
 19 20  2  0
 20 21  1  0
 21 22  2  0
 22 23  1  0
 23 24  2  0
 24 25  1  0
 24 26  1  0
 26 27  2  0
 27 28  1  0
 28 29  2  0
 12  7  1  0
 18 13  1  0
 29 19  1  0
 28 22  1  0
  3 30  1  0
  4 31  1  0
  4 32  1  0
  8 33  1  0
  8 34  1  0
  9 35  1  0
  9 36  1  0
 10 37  1  0
 10 38  1  0
 11 39  1  0
 11 40  1  0
 12 41  1  1
 13 42  1  0
 14 43  1  0
 14 44  1  0
 15 45  1  0
 15 46  1  0
 17 47  1  0
 17 48  1  0
 18 49  1  0
 18 50  1  0
 20 51  1  0
 21 52  1  0
 23 53  1  0
 26 54  1  0
 27 55  1  0
M  END
>  <smiles>  (73) 
O=C(NCC(=O)N1CCCCC1C1CCOCC1)c1ccc2cc(Cl)ccc2n1

>  <score_type>  (73) 
oracle

>  <origin>  (73) 
autodockgpu

>  <m_score__min__energy>  (73) 
-8.9700000000000006

>  <m_primary>  (73) 
energy

>  <rmsd>  (73) 
2.164529327085899

>  <m_score__min__rmsd>  (73) 
2.164529327085899

>  <meeko>  (73) 
{"free_energy": -8.89, "intermolecular_energy": -10.39, "internal_energy": -1.43, "cluster_size": 43, "cluster_id": 1, "rank_in_cluster": 4}

>  <energy>  (73) 
-7.89

>  <cluster_rmsd>  (73) 
1.71

>  <cluster>  (73) 
1

$$$$

     RDKit          3D

 55 58  0  0  0  0  0  0  0  0999 V2000
  140.8610   72.6280  220.9560 O   0  0  0  0  0  0  0  0  0  0  0  0
  140.2380   72.8870  222.0270 C   0  0  0  0  0  0  0  0  0  0  0  0
  139.5900   74.1410  222.1440 N   0  0  0  0  0  0  0  0  0  0  0  0
  139.5920   75.1520  221.1190 C   0  0  0  0  0  0  0  0  0  0  0  0
  140.1820   76.4380  221.6060 C   0  0  0  0  0  0  0  0  0  0  0  0
  139.5720   76.9540  222.5780 O   0  0  0  0  0  0  0  0  0  0  0  0
  141.3230   76.9690  220.9810 N   0  0  0  0  0  0  0  0  0  0  0  0
  142.0780   76.0140  220.1190 C   0  0  0  0  0  0  0  0  0  0  0  0
  142.0820   76.6330  218.7370 C   0  0  0  0  0  0  0  0  0  0  0  0
  141.2670   77.9060  218.7060 C   0  0  0  0  0  0  0  0  0  0  0  0
  141.7550   78.9280  219.6840 C   0  0  0  0  0  0  0  0  0  0  0  0
  141.8760   78.2770  221.0560 C   0  0  1  0  0  0  0  0  0  0  0  0
  141.5070   79.1880  222.1490 C   0  0  0  0  0  0  0  0  0  0  0  0
  140.6490   80.3610  221.8800 C   0  0  0  0  0  0  0  0  0  0  0  0
  141.3780   81.6660  222.3200 C   0  0  0  0  0  0  0  0  0  0  0  0
  141.5720   81.5460  223.6770 O   0  0  0  0  0  0  0  0  0  0  0  0
  142.6260   80.6710  223.8640 C   0  0  0  0  0  0  0  0  0  0  0  0
  142.8300   79.7180  222.7410 C   0  0  0  0  0  0  0  0  0  0  0  0
  140.1860   71.9090  223.1290 C   0  0  0  0  0  0  0  0  0  0  0  0
  139.6480   70.6650  222.8800 C   0  0  0  0  0  0  0  0  0  0  0  0
  139.5770   69.7080  223.8800 C   0  0  0  0  0  0  0  0  0  0  0  0
  140.0780   70.0870  225.1170 C   0  0  0  0  0  0  0  0  0  0  0  0
  140.0490   69.1890  226.1760 C   0  0  0  0  0  0  0  0  0  0  0  0
  140.5500   69.5700  227.4060 C   0  0  0  0  0  0  0  0  0  0  0  0
  140.4830   68.3890  228.6950 Cl  0  0  0  0  0  0  0  0  0  0  0  0
  141.0840   70.8250  227.6260 C   0  0  0  0  0  0  0  0  0  0  0  0
  141.1050   71.6990  226.5680 C   0  0  0  0  0  0  0  0  0  0  0  0
  140.6090   71.3430  225.3200 C   0  0  0  0  0  0  0  0  0  0  0  0
  140.6660   72.2590  224.3310 N   0  0  0  0  0  0  0  0  0  0  0  0
  139.0820   74.3030  223.0670 H   0  0  0  0  0  0  0  0  0  0  0  0
  140.1826   74.7908  220.2642 H   0  0  0  0  0  0  0  0  0  0  0  0
  138.5490   75.3440  220.8270 H   0  0  0  0  0  0  0  0  0  0  0  0
  143.1068   75.8929  220.4890 H   0  0  0  0  0  0  0  0  0  0  0  0
  141.6184   75.0146  220.1173 H   0  0  0  0  0  0  0  0  0  0  0  0
  143.1186   76.8635  218.4500 H   0  0  0  0  0  0  0  0  0  0  0  0
  141.6350   75.9159  218.0327 H   0  0  0  0  0  0  0  0  0  0  0  0
  141.3206   78.3336  217.6939 H   0  0  0  0  0  0  0  0  0  0  0  0
  140.2348   77.6465  218.9838 H   0  0  0  0  0  0  0  0  0  0  0  0
  142.7383   79.3044  219.3655 H   0  0  0  0  0  0  0  0  0  0  0  0
  141.0469   79.7685  219.7305 H   0  0  0  0  0  0  0  0  0  0  0  0
  142.9171   78.0928  221.3596 H   0  0  0  0  0  0  0  0  0  0  0  0
  140.8735   78.5671  222.7995 H   0  0  0  0  0  0  0  0  0  0  0  0
  140.4286   80.4120  220.8035 H   0  0  0  0  0  0  0  0  0  0  0  0
  139.7123   80.2613  222.4480 H   0  0  0  0  0  0  0  0  0  0  0  0
  142.3436   81.7591  221.8015 H   0  0  0  0  0  0  0  0  0  0  0  0
  140.7902   82.5621  222.0721 H   0  0  0  0  0  0  0  0  0  0  0  0
  143.5464   81.2604  223.9885 H   0  0  0  0  0  0  0  0  0  0  0  0
  142.3843   80.0682  224.7518 H   0  0  0  0  0  0  0  0  0  0  0  0
  143.3896   80.2302  221.9445 H   0  0  0  0  0  0  0  0  0  0  0  0
  143.3803   78.8533  223.1404 H   0  0  0  0  0  0  0  0  0  0  0  0
  139.2700   70.4285  221.8745 H   0  0  0  0  0  0  0  0  0  0  0  0
  139.1499   68.7097  223.7038 H   0  0  0  0  0  0  0  0  0  0  0  0
  139.6301   68.1815  226.0365 H   0  0  0  0  0  0  0  0  0  0  0  0
  141.4775   71.1129  228.6120 H   0  0  0  0  0  0  0  0  0  0  0  0
  141.5247   72.7056  226.7116 H   0  0  0  0  0  0  0  0  0  0  0  0
  1  2  2  0
  2  3  1  0
  3  4  1  0
  4  5  1  0
  5  6  2  0
  5  7  1  0
  7  8  1  0
  8  9  1  0
  9 10  1  0
 10 11  1  0
 11 12  1  0
 12 13  1  0
 13 14  1  0
 14 15  1  0
 15 16  1  0
 16 17  1  0
 17 18  1  0
  2 19  1  0
 19 20  2  0
 20 21  1  0
 21 22  2  0
 22 23  1  0
 23 24  2  0
 24 25  1  0
 24 26  1  0
 26 27  2  0
 27 28  1  0
 28 29  2  0
 12  7  1  0
 18 13  1  0
 29 19  1  0
 28 22  1  0
  3 30  1  0
  4 31  1  0
  4 32  1  0
  8 33  1  0
  8 34  1  0
  9 35  1  0
  9 36  1  0
 10 37  1  0
 10 38  1  0
 11 39  1  0
 11 40  1  0
 12 41  1  1
 13 42  1  0
 14 43  1  0
 14 44  1  0
 15 45  1  0
 15 46  1  0
 17 47  1  0
 17 48  1  0
 18 49  1  0
 18 50  1  0
 20 51  1  0
 21 52  1  0
 23 53  1  0
 26 54  1  0
 27 55  1  0
M  END
>  <smiles>  (74) 
O=C(NCC(=O)N1CCCCC1C1CCOCC1)c1ccc2cc(Cl)ccc2n1

>  <score_type>  (74) 
oracle

>  <origin>  (74) 
autodockgpu

>  <m_score__min__energy>  (74) 
-8.9700000000000006

>  <m_primary>  (74) 
energy

>  <rmsd>  (74) 
2.208758463717423

>  <m_score__min__rmsd>  (74) 
2.208758463717423

>  <meeko>  (74) 
{"free_energy": -8.97, "intermolecular_energy": -10.46, "internal_energy": -1.48, "cluster_size": 43, "cluster_id": 1, "rank_in_cluster": 1}

>  <energy>  (74) 
-7.89

>  <cluster_rmsd>  (74) 
1.75

>  <cluster>  (74) 
1

$$$$

     RDKit          3D

 55 58  0  0  0  0  0  0  0  0999 V2000
  139.5680   72.2550  220.6560 O   0  0  0  0  0  0  0  0  0  0  0  0
  140.1490   72.5540  221.7400 C   0  0  0  0  0  0  0  0  0  0  0  0
  140.8620   73.7770  221.8080 N   0  0  0  0  0  0  0  0  0  0  0  0
  140.9720   74.7110  220.7180 C   0  0  0  0  0  0  0  0  0  0  0  0
  140.9500   76.1280  221.1950 C   0  0  0  0  0  0  0  0  0  0  0  0
  140.2840   76.3120  222.2470 O   0  0  0  0  0  0  0  0  0  0  0  0
  141.6370   77.1220  220.4770 N   0  0  0  0  0  0  0  0  0  0  0  0
  142.2620   76.6670  219.2010 C   0  0  0  0  0  0  0  0  0  0  0  0
  141.6370   77.5200  218.1170 C   0  0  0  0  0  0  0  0  0  0  0  0
  140.5710   78.4300  218.6850 C   0  0  0  0  0  0  0  0  0  0  0  0
  141.0950   79.3340  219.7560 C   0  0  0  0  0  0  0  0  0  0  0  0
  141.8380   78.4950  220.7880 C   0  0  1  0  0  0  0  0  0  0  0  0
  141.6520   78.9910  222.1590 C   0  0  0  0  0  0  0  0  0  0  0  0
  140.3290   79.4800  222.5990 C   0  0  0  0  0  0  0  0  0  0  0  0
  140.4470   80.9490  223.1070 C   0  0  0  0  0  0  0  0  0  0  0  0
  141.2970   80.9040  224.1870 O   0  0  0  0  0  0  0  0  0  0  0  0
  142.5820   80.7730  223.6920 C   0  0  0  0  0  0  0  0  0  0  0  0
  142.6520   80.1510  222.3440 C   0  0  0  0  0  0  0  0  0  0  0  0
  140.0890   71.6540  222.9060 C   0  0  0  0  0  0  0  0  0  0  0  0
  139.4990   70.4170  222.7530 C   0  0  0  0  0  0  0  0  0  0  0  0
  139.4190   69.5320  223.8160 C   0  0  0  0  0  0  0  0  0  0  0  0
  139.9630   69.9730  225.0140 C   0  0  0  0  0  0  0  0  0  0  0  0
  139.9270   69.1490  226.1310 C   0  0  0  0  0  0  0  0  0  0  0  0
  140.4710   69.5910  227.3220 C   0  0  0  0  0  0  0  0  0  0  0  0
  140.3930   68.5020  228.6880 Cl  0  0  0  0  0  0  0  0  0  0  0  0
  141.0560   70.8370  227.4450 C   0  0  0  0  0  0  0  0  0  0  0  0
  141.0830   71.6380  226.3310 C   0  0  0  0  0  0  0  0  0  0  0  0
  140.5440   71.2190  225.1200 C   0  0  0  0  0  0  0  0  0  0  0  0
  140.6100   72.0640  224.0710 N   0  0  0  0  0  0  0  0  0  0  0  0
  141.3300   73.9750  222.7450 H   0  0  0  0  0  0  0  0  0  0  0  0
  141.9182   74.5288  220.1874 H   0  0  0  0  0  0  0  0  0  0  0  0
  140.1094   74.5615  220.0520 H   0  0  0  0  0  0  0  0  0  0  0  0
  143.3509   76.8200  219.2305 H   0  0  0  0  0  0  0  0  0  0  0  0
  142.0935   75.5945  219.0240 H   0  0  0  0  0  0  0  0  0  0  0  0
  142.4197   78.1336  217.6471 H   0  0  0  0  0  0  0  0  0  0  0  0
  141.1692   76.8549  217.3762 H   0  0  0  0  0  0  0  0  0  0  0  0
  140.1649   79.0477  217.8704 H   0  0  0  0  0  0  0  0  0  0  0  0
  139.7964   77.7931  219.1370 H   0  0  0  0  0  0  0  0  0  0  0  0
  141.7824   80.0704  219.3143 H   0  0  0  0  0  0  0  0  0  0  0  0
  140.2607   79.8652  220.2374 H   0  0  0  0  0  0  0  0  0  0  0  0
  142.9310   78.6069  220.7349 H   0  0  0  0  0  0  0  0  0  0  0  0
  141.7972   78.0939  222.7788 H   0  0  0  0  0  0  0  0  0  0  0  0
  139.6266   79.4421  221.7533 H   0  0  0  0  0  0  0  0  0  0  0  0
  139.9617   78.8429  223.4170 H   0  0  0  0  0  0  0  0  0  0  0  0
  140.8623   81.5947  222.3192 H   0  0  0  0  0  0  0  0  0  0  0  0
  139.4654   81.3631  223.3809 H   0  0  0  0  0  0  0  0  0  0  0  0
  143.0339   81.7743  223.6344 H   0  0  0  0  0  0  0  0  0  0  0  0
  143.1200   80.1032  224.3790 H   0  0  0  0  0  0  0  0  0  0  0  0
  142.4357   80.9229  221.5908 H   0  0  0  0  0  0  0  0  0  0  0  0
  143.6631   79.7335  222.2280 H   0  0  0  0  0  0  0  0  0  0  0  0
  139.0867   70.1293  221.7746 H   0  0  0  0  0  0  0  0  0  0  0  0
  138.9529   68.5406  223.7164 H   0  0  0  0  0  0  0  0  0  0  0  0
  139.4685   68.1511  226.0683 H   0  0  0  0  0  0  0  0  0  0  0  0
  141.4842   71.1742  228.4005 H   0  0  0  0  0  0  0  0  0  0  0  0
  141.5421   72.6354  226.3979 H   0  0  0  0  0  0  0  0  0  0  0  0
  1  2  2  0
  2  3  1  0
  3  4  1  0
  4  5  1  0
  5  6  2  0
  5  7  1  0
  7  8  1  0
  8  9  1  0
  9 10  1  0
 10 11  1  0
 11 12  1  0
 12 13  1  0
 13 14  1  0
 14 15  1  0
 15 16  1  0
 16 17  1  0
 17 18  1  0
  2 19  1  0
 19 20  2  0
 20 21  1  0
 21 22  2  0
 22 23  1  0
 23 24  2  0
 24 25  1  0
 24 26  1  0
 26 27  2  0
 27 28  1  0
 28 29  2  0
 12  7  1  0
 18 13  1  0
 29 19  1  0
 28 22  1  0
  3 30  1  0
  4 31  1  0
  4 32  1  0
  8 33  1  0
  8 34  1  0
  9 35  1  0
  9 36  1  0
 10 37  1  0
 10 38  1  0
 11 39  1  0
 11 40  1  0
 12 41  1  6
 13 42  1  0
 14 43  1  0
 14 44  1  0
 15 45  1  0
 15 46  1  0
 17 47  1  0
 17 48  1  0
 18 49  1  0
 18 50  1  0
 20 51  1  0
 21 52  1  0
 23 53  1  0
 26 54  1  0
 27 55  1  0
M  END
>  <smiles>  (75) 
O=C(NCC(=O)N1CCCCC1C1CCOCC1)c1ccc2cc(Cl)ccc2n1

>  <score_type>  (75) 
oracle

>  <origin>  (75) 
autodockgpu

>  <m_score__min__energy>  (75) 
-8.9700000000000006

>  <m_primary>  (75) 
energy

>  <rmsd>  (75) 
2.368294950706752

>  <m_score__min__rmsd>  (75) 
2.368294950706752

>  <meeko>  (75) 
{"free_energy": -8.02, "intermolecular_energy": -9.51, "internal_energy": -1.75, "cluster_size": 43, "cluster_id": 1, "rank_in_cluster": 17}

>  <energy>  (75) 
-7.88

>  <cluster_rmsd>  (75) 
1.53

>  <cluster>  (75) 
1

$$$$

     RDKit          3D

 55 58  0  0  0  0  0  0  0  0999 V2000
  139.7440   72.4440  220.7950 O   0  0  0  0  0  0  0  0  0  0  0  0
  139.7160   72.8110  222.0060 C   0  0  0  0  0  0  0  0  0  0  0  0
  139.5570   74.1900  222.2900 N   0  0  0  0  0  0  0  0  0  0  0  0
  139.4260   75.2130  221.2850 C   0  0  0  0  0  0  0  0  0  0  0  0
  140.0410   76.5050  221.7220 C   0  0  0  0  0  0  0  0  0  0  0  0
  139.4000   77.1060  222.6230 O   0  0  0  0  0  0  0  0  0  0  0  0
  141.2350   76.9500  221.1300 N   0  0  0  0  0  0  0  0  0  0  0  0
  141.9740   75.9240  220.3410 C   0  0  0  0  0  0  0  0  0  0  0  0
  142.0720   76.4860  218.9380 C   0  0  0  0  0  0  0  0  0  0  0  0
  141.3290   77.7970  218.8210 C   0  0  0  0  0  0  0  0  0  0  0  0
  141.8270   78.8300  219.7810 C   0  0  0  0  0  0  0  0  0  0  0  0
  141.8530   78.2290  221.1810 C   0  0  1  0  0  0  0  0  0  0  0  0
  141.4870   79.2020  222.2200 C   0  0  0  0  0  0  0  0  0  0  0  0
  140.6460   80.3700  221.8820 C   0  0  0  0  0  0  0  0  0  0  0  0
  141.3880   81.6870  222.2590 C   0  0  0  0  0  0  0  0  0  0  0  0
  141.5680   81.6370  223.6220 O   0  0  0  0  0  0  0  0  0  0  0  0
  142.6080   80.7600  223.8660 C   0  0  0  0  0  0  0  0  0  0  0  0
  142.8100   79.7470  222.7970 C   0  0  0  0  0  0  0  0  0  0  0  0
  139.8450   71.8300  223.0990 C   0  0  0  0  0  0  0  0  0  0  0  0
  139.4710   70.5250  222.8600 C   0  0  0  0  0  0  0  0  0  0  0  0
  139.5750   69.5620  223.8510 C   0  0  0  0  0  0  0  0  0  0  0  0
  140.0720   70.0000  225.0710 C   0  0  0  0  0  0  0  0  0  0  0  0
  140.2110   69.1020  226.1200 C   0  0  0  0  0  0  0  0  0  0  0  0
  140.7070   69.5410  227.3320 C   0  0  0  0  0  0  0  0  0  0  0  0
  140.8570   68.3560  228.6100 Cl  0  0  0  0  0  0  0  0  0  0  0  0
  141.0740   70.8560  227.5430 C   0  0  0  0  0  0  0  0  0  0  0  0
  140.9300   71.7300  226.4950 C   0  0  0  0  0  0  0  0  0  0  0  0
  140.4340   71.3160  225.2640 C   0  0  0  0  0  0  0  0  0  0  0  0
  140.3230   72.2360  224.2840 N   0  0  0  0  0  0  0  0  0  0  0  0
  139.5410   74.4390  223.3260 H   0  0  0  0  0  0  0  0  0  0  0  0
  139.9254   74.8743  220.3653 H   0  0  0  0  0  0  0  0  0  0  0  0
  138.3536   75.3866  221.1124 H   0  0  0  0  0  0  0  0  0  0  0  0
  142.9775   75.7644  220.7622 H   0  0  0  0  0  0  0  0  0  0  0  0
  141.4618   74.9507  220.3559 H   0  0  0  0  0  0  0  0  0  0  0  0
  143.1311   76.6506  218.6906 H   0  0  0  0  0  0  0  0  0  0  0  0
  141.6184   75.7653  218.2417 H   0  0  0  0  0  0  0  0  0  0  0  0
  141.4506   78.1803  217.7971 H   0  0  0  0  0  0  0  0  0  0  0  0
  140.2729   77.6030  219.0598 H   0  0  0  0  0  0  0  0  0  0  0  0
  142.8419   79.1423  219.4941 H   0  0  0  0  0  0  0  0  0  0  0  0
  141.1630   79.7068  219.7635 H   0  0  0  0  0  0  0  0  0  0  0  0
  142.8678   78.0022  221.5397 H   0  0  0  0  0  0  0  0  0  0  0  0
  140.8401   78.6230  222.8956 H   0  0  0  0  0  0  0  0  0  0  0  0
  140.4350   80.3669  220.8024 H   0  0  0  0  0  0  0  0  0  0  0  0
  139.7035   80.3120  222.4462 H   0  0  0  0  0  0  0  0  0  0  0  0
  142.3595   81.7401  221.7457 H   0  0  0  0  0  0  0  0  0  0  0  0
  140.8144   82.5760  221.9580 H   0  0  0  0  0  0  0  0  0  0  0  0
  143.5349   81.3432  223.9691 H   0  0  0  0  0  0  0  0  0  0  0  0
  142.3498   80.2081  224.7818 H   0  0  0  0  0  0  0  0  0  0  0  0
  143.3835   80.2098  221.9803 H   0  0  0  0  0  0  0  0  0  0  0  0
  143.3451   78.8980  223.2474 H   0  0  0  0  0  0  0  0  0  0  0  0
  139.0847   70.2442  221.8691 H   0  0  0  0  0  0  0  0  0  0  0  0
  139.2819   68.5154  223.6815 H   0  0  0  0  0  0  0  0  0  0  0  0
  139.9280   68.0474  225.9870 H   0  0  0  0  0  0  0  0  0  0  0  0
  141.4669   71.1899  228.5147 H   0  0  0  0  0  0  0  0  0  0  0  0
  141.2139   72.7838  226.6322 H   0  0  0  0  0  0  0  0  0  0  0  0
  1  2  2  0
  2  3  1  0
  3  4  1  0
  4  5  1  0
  5  6  2  0
  5  7  1  0
  7  8  1  0
  8  9  1  0
  9 10  1  0
 10 11  1  0
 11 12  1  0
 12 13  1  0
 13 14  1  0
 14 15  1  0
 15 16  1  0
 16 17  1  0
 17 18  1  0
  2 19  1  0
 19 20  2  0
 20 21  1  0
 21 22  2  0
 22 23  1  0
 23 24  2  0
 24 25  1  0
 24 26  1  0
 26 27  2  0
 27 28  1  0
 28 29  2  0
 12  7  1  0
 18 13  1  0
 29 19  1  0
 28 22  1  0
  3 30  1  0
  4 31  1  0
  4 32  1  0
  8 33  1  0
  8 34  1  0
  9 35  1  0
  9 36  1  0
 10 37  1  0
 10 38  1  0
 11 39  1  0
 11 40  1  0
 12 41  1  1
 13 42  1  0
 14 43  1  0
 14 44  1  0
 15 45  1  0
 15 46  1  0
 17 47  1  0
 17 48  1  0
 18 49  1  0
 18 50  1  0
 20 51  1  0
 21 52  1  0
 23 53  1  0
 26 54  1  0
 27 55  1  0
M  END
>  <smiles>  (76) 
O=C(NCC(=O)N1CCCCC1C1CCOCC1)c1ccc2cc(Cl)ccc2n1

>  <score_type>  (76) 
oracle

>  <origin>  (76) 
autodockgpu

>  <m_score__min__energy>  (76) 
-8.9700000000000006

>  <m_primary>  (76) 
energy

>  <rmsd>  (76) 
2.170470599758324

>  <m_score__min__rmsd>  (76) 
2.170470599758324

>  <meeko>  (76) 
{"free_energy": -8.83, "intermolecular_energy": -10.32, "internal_energy": -1.63, "cluster_size": 43, "cluster_id": 1, "rank_in_cluster": 7}

>  <energy>  (76) 
-7.87

>  <cluster_rmsd>  (76) 
1.98

>  <cluster>  (76) 
1

$$$$

     RDKit          3D

 55 58  0  0  0  0  0  0  0  0999 V2000
  142.1190   78.4490  216.8710 O   0  0  0  0  0  0  0  0  0  0  0  0
  142.5730   77.9620  217.9470 C   0  0  0  0  0  0  0  0  0  0  0  0
  142.5530   78.7670  219.1130 N   0  0  0  0  0  0  0  0  0  0  0  0
  142.0480   80.1150  219.1570 C   0  0  0  0  0  0  0  0  0  0  0  0
  141.3390   80.4020  220.4430 C   0  0  0  0  0  0  0  0  0  0  0  0
  140.3830   81.2140  220.3390 O   0  0  0  0  0  0  0  0  0  0  0  0
  141.7620   79.7840  221.6310 N   0  0  0  0  0  0  0  0  0  0  0  0
  142.9010   80.4530  222.3260 C   0  0  0  0  0  0  0  0  0  0  0  0
  142.3810   80.8090  223.7030 C   0  0  0  0  0  0  0  0  0  0  0  0
  140.9180   80.4570  223.8430 C   0  0  0  0  0  0  0  0  0  0  0  0
  140.6470   79.0070  223.5950 C   0  0  0  0  0  0  0  0  0  0  0  0
  141.2780   78.6080  222.2670 C   0  0  1  0  0  0  0  0  0  0  0  0
  140.4670   77.6310  221.5260 C   0  0  0  0  0  0  0  0  0  0  0  0
  139.2030   77.1260  222.1030 C   0  0  0  0  0  0  0  0  0  0  0  0
  139.2500   75.5720  222.2080 C   0  0  0  0  0  0  0  0  0  0  0  0
  139.3770   75.1140  220.9170 O   0  0  0  0  0  0  0  0  0  0  0  0
  140.6910   75.3150  220.5380 C   0  0  0  0  0  0  0  0  0  0  0  0
  141.3750   76.4090  221.2770 C   0  0  0  0  0  0  0  0  0  0  0  0
  143.1110   76.5900  217.9910 C   0  0  0  0  0  0  0  0  0  0  0  0
  143.1650   75.8660  216.8200 C   0  0  0  0  0  0  0  0  0  0  0  0
  143.6640   74.5730  216.8050 C   0  0  0  0  0  0  0  0  0  0  0  0
  144.0960   74.0770  218.0270 C   0  0  0  0  0  0  0  0  0  0  0  0
  144.6120   72.7910  218.1040 C   0  0  0  0  0  0  0  0  0  0  0  0
  145.0420   72.3000  219.3220 C   0  0  0  0  0  0  0  0  0  0  0  0
  145.6830   70.6740  219.3460 Cl  0  0  0  0  0  0  0  0  0  0  0  0
  144.9760   73.0500  220.4810 C   0  0  0  0  0  0  0  0  0  0  0  0
  144.4630   74.3200  220.3860 C   0  0  0  0  0  0  0  0  0  0  0  0
  144.0240   74.8390  219.1740 C   0  0  0  0  0  0  0  0  0  0  0  0
  143.5320   76.0950  219.1640 N   0  0  0  0  0  0  0  0  0  0  0  0
  142.9470   78.3050  219.9880 H   0  0  0  0  0  0  0  0  0  0  0  0
  142.8905   80.8143  219.0513 H   0  0  0  0  0  0  0  0  0  0  0  0
  141.3272   80.2367  218.3351 H   0  0  0  0  0  0  0  0  0  0  0  0
  143.7591   79.7691  222.4039 H   0  0  0  0  0  0  0  0  0  0  0  0
  143.2484   81.3415  221.7784 H   0  0  0  0  0  0  0  0  0  0  0  0
  142.9572   80.2546  224.4584 H   0  0  0  0  0  0  0  0  0  0  0  0
  142.4935   81.8936  223.8480 H   0  0  0  0  0  0  0  0  0  0  0  0
  140.5921   80.7064  224.8636 H   0  0  0  0  0  0  0  0  0  0  0  0
  140.3639   81.0327  223.0870 H   0  0  0  0  0  0  0  0  0  0  0  0
  141.0828   78.4057  224.4065 H   0  0  0  0  0  0  0  0  0  0  0  0
  139.5617   78.8310  223.5602 H   0  0  0  0  0  0  0  0  0  0  0  0
  142.1832   77.9937  222.3822 H   0  0  0  0  0  0  0  0  0  0  0  0
  140.1243   78.1946  220.6457 H   0  0  0  0  0  0  0  0  0  0  0  0
  139.0632   77.5551  223.1062 H   0  0  0  0  0  0  0  0  0  0  0  0
  138.3659   77.4193  221.4525 H   0  0  0  0  0  0  0  0  0  0  0  0
  140.1116   75.2547  222.8138 H   0  0  0  0  0  0  0  0  0  0  0  0
  138.3481   75.1710  222.6935 H   0  0  0  0  0  0  0  0  0  0  0  0
  141.2469   74.3815  220.7101 H   0  0  0  0  0  0  0  0  0  0  0  0
  140.6741   75.6100  219.4784 H   0  0  0  0  0  0  0  0  0  0  0  0
  141.7106   76.0184  222.2490 H   0  0  0  0  0  0  0  0  0  0  0  0
  142.2175   76.7475  220.6560 H   0  0  0  0  0  0  0  0  0  0  0  0
  142.8072   76.3203  215.8843 H   0  0  0  0  0  0  0  0  0  0  0  0
  143.7145   73.9770  215.8818 H   0  0  0  0  0  0  0  0  0  0  0  0
  144.6783   72.1664  217.2010 H   0  0  0  0  0  0  0  0  0  0  0  0
  145.3215   72.6447  221.4435 H   0  0  0  0  0  0  0  0  0  0  0  0
  144.3979   74.9417  221.2912 H   0  0  0  0  0  0  0  0  0  0  0  0
  1  2  2  0
  2  3  1  0
  3  4  1  0
  4  5  1  0
  5  6  2  0
  5  7  1  0
  7  8  1  0
  8  9  1  0
  9 10  1  0
 10 11  1  0
 11 12  1  0
 12 13  1  0
 13 14  1  0
 14 15  1  0
 15 16  1  0
 16 17  1  0
 17 18  1  0
  2 19  1  0
 19 20  2  0
 20 21  1  0
 21 22  2  0
 22 23  1  0
 23 24  2  0
 24 25  1  0
 24 26  1  0
 26 27  2  0
 27 28  1  0
 28 29  2  0
 12  7  1  0
 18 13  1  0
 29 19  1  0
 28 22  1  0
  3 30  1  0
  4 31  1  0
  4 32  1  0
  8 33  1  0
  8 34  1  0
  9 35  1  0
  9 36  1  0
 10 37  1  0
 10 38  1  0
 11 39  1  0
 11 40  1  0
 12 41  1  1
 13 42  1  0
 14 43  1  0
 14 44  1  0
 15 45  1  0
 15 46  1  0
 17 47  1  0
 17 48  1  0
 18 49  1  0
 18 50  1  0
 20 51  1  0
 21 52  1  0
 23 53  1  0
 26 54  1  0
 27 55  1  0
M  END
>  <smiles>  (77) 
O=C(NCC(=O)N1CCCCC1C1CCOCC1)c1ccc2cc(Cl)ccc2n1

>  <score_type>  (77) 
oracle

>  <origin>  (77) 
autodockgpu

>  <m_score__min__energy>  (77) 
-8.9700000000000006

>  <m_primary>  (77) 
energy

>  <rmsd>  (77) 
8.255127029135869

>  <m_score__min__rmsd>  (77) 
8.255127029135869

>  <meeko>  (77) 
{"free_energy": -6.53, "intermolecular_energy": -8.02, "internal_energy": -2.47, "cluster_size": 1, "cluster_id": 5, "rank_in_cluster": 1}

>  <energy>  (77) 
-7.86

>  <cluster_rmsd>  (77) 
1.84

>  <cluster>  (77) 
1

$$$$

     RDKit          3D

 55 58  0  0  0  0  0  0  0  0999 V2000
  138.1070   71.6710  221.4780 O   0  0  0  0  0  0  0  0  0  0  0  0
  138.8950   72.0420  222.3960 C   0  0  0  0  0  0  0  0  0  0  0  0
  139.4530   73.3420  222.3220 N   0  0  0  0  0  0  0  0  0  0  0  0
  139.1850   74.2790  221.2620 C   0  0  0  0  0  0  0  0  0  0  0  0
  139.7860   75.6200  221.5400 C   0  0  0  0  0  0  0  0  0  0  0  0
  140.9330   75.5790  222.0550 O   0  0  0  0  0  0  0  0  0  0  0  0
  139.0700   76.7890  221.2270 N   0  0  0  0  0  0  0  0  0  0  0  0
  137.7800   76.5710  220.5120 C   0  0  0  0  0  0  0  0  0  0  0  0
  136.7170   77.1830  221.4000 C   0  0  0  0  0  0  0  0  0  0  0  0
  137.3120   77.6930  222.6930 C   0  0  0  0  0  0  0  0  0  0  0  0
  138.3870   78.7090  222.4720 C   0  0  0  0  0  0  0  0  0  0  0  0
  139.3970   78.1500  221.4780 C   0  0  1  0  0  0  0  0  0  0  0  0
  140.7770   78.5480  221.7890 C   0  0  0  0  0  0  0  0  0  0  0  0
  141.3370   78.2960  223.1340 C   0  0  0  0  0  0  0  0  0  0  0  0
  141.8240   79.6350  223.7660 C   0  0  0  0  0  0  0  0  0  0  0  0
  142.8200   80.0990  222.9380 O   0  0  0  0  0  0  0  0  0  0  0  0
  142.2070   80.6320  221.8200 C   0  0  0  0  0  0  0  0  0  0  0  0
  140.8610   80.0680  221.5380 C   0  0  0  0  0  0  0  0  0  0  0  0
  139.2260   71.1450  223.5190 C   0  0  0  0  0  0  0  0  0  0  0  0
  138.9070   69.8080  223.4100 C   0  0  0  0  0  0  0  0  0  0  0  0
  139.1980   68.9220  224.4340 C   0  0  0  0  0  0  0  0  0  0  0  0
  139.8220   69.4670  225.5480 C   0  0  0  0  0  0  0  0  0  0  0  0
  140.1520   68.6510  226.6210 C   0  0  0  0  0  0  0  0  0  0  0  0
  140.7730   69.1970  227.7270 C   0  0  0  0  0  0  0  0  0  0  0  0
  141.1630   68.1110  229.0410 Cl  0  0  0  0  0  0  0  0  0  0  0  0
  141.0820   70.5410  227.8080 C   0  0  0  0  0  0  0  0  0  0  0  0
  140.7490   71.3330  226.7380 C   0  0  0  0  0  0  0  0  0  0  0  0
  140.1230   70.8110  225.6120 C   0  0  0  0  0  0  0  0  0  0  0  0
  139.8290   71.6550  224.6020 N   0  0  0  0  0  0  0  0  0  0  0  0
  140.1080   73.5980  223.1230 H   0  0  0  0  0  0  0  0  0  0  0  0
  139.6075   73.8869  220.3251 H   0  0  0  0  0  0  0  0  0  0  0  0
  138.0949   74.4029  221.1831 H   0  0  0  0  0  0  0  0  0  0  0  0
  137.7951   77.0689  219.5313 H   0  0  0  0  0  0  0  0  0  0  0  0
  137.5916   75.5033  220.3263 H   0  0  0  0  0  0  0  0  0  0  0  0
  136.2437   78.0212  220.8676 H   0  0  0  0  0  0  0  0  0  0  0  0
  135.9748   76.4074  221.6401 H   0  0  0  0  0  0  0  0  0  0  0  0
  136.5116   78.1520  223.2919 H   0  0  0  0  0  0  0  0  0  0  0  0
  137.7664   76.8355  223.2108 H   0  0  0  0  0  0  0  0  0  0  0  0
  137.9452   79.6326  222.0697 H   0  0  0  0  0  0  0  0  0  0  0  0
  138.8877   78.9353  223.4249 H   0  0  0  0  0  0  0  0  0  0  0  0
  139.3302   78.6124  220.4821 H   0  0  0  0  0  0  0  0  0  0  0  0
  141.3847   77.8946  221.1458 H   0  0  0  0  0  0  0  0  0  0  0  0
  140.5611   77.8514  223.7746 H   0  0  0  0  0  0  0  0  0  0  0  0
  142.1890   77.6056  223.0477 H   0  0  0  0  0  0  0  0  0  0  0  0
  140.9973   80.3591  223.8141 H   0  0  0  0  0  0  0  0  0  0  0  0
  142.1868   79.4894  224.7942 H   0  0  0  0  0  0  0  0  0  0  0  0
  142.1027   81.7170  221.9677 H   0  0  0  0  0  0  0  0  0  0  0  0
  142.8432   80.3792  220.9590 H   0  0  0  0  0  0  0  0  0  0  0  0
  140.1279   80.5709  222.1859 H   0  0  0  0  0  0  0  0  0  0  0  0
  140.6517   80.2364  220.4713 H   0  0  0  0  0  0  0  0  0  0  0  0
  138.4148   69.4402  222.4976 H   0  0  0  0  0  0  0  0  0  0  0  0
  138.9500   67.8523  224.3687 H   0  0  0  0  0  0  0  0  0  0  0  0
  139.9203   67.5761  226.5907 H   0  0  0  0  0  0  0  0  0  0  0  0
  141.5763   70.9605  228.6966 H   0  0  0  0  0  0  0  0  0  0  0  0
  140.9832   72.4072  226.7722 H   0  0  0  0  0  0  0  0  0  0  0  0
  1  2  2  0
  2  3  1  0
  3  4  1  0
  4  5  1  0
  5  6  2  0
  5  7  1  0
  7  8  1  0
  8  9  1  0
  9 10  1  0
 10 11  1  0
 11 12  1  0
 12 13  1  0
 13 14  1  0
 14 15  1  0
 15 16  1  0
 16 17  1  0
 17 18  1  0
  2 19  1  0
 19 20  2  0
 20 21  1  0
 21 22  2  0
 22 23  1  0
 23 24  2  0
 24 25  1  0
 24 26  1  0
 26 27  2  0
 27 28  1  0
 28 29  2  0
 12  7  1  0
 18 13  1  0
 29 19  1  0
 28 22  1  0
  3 30  1  0
  4 31  1  0
  4 32  1  0
  8 33  1  0
  8 34  1  0
  9 35  1  0
  9 36  1  0
 10 37  1  0
 10 38  1  0
 11 39  1  0
 11 40  1  0
 12 41  1  6
 13 42  1  0
 14 43  1  0
 14 44  1  0
 15 45  1  0
 15 46  1  0
 17 47  1  0
 17 48  1  0
 18 49  1  0
 18 50  1  0
 20 51  1  0
 21 52  1  0
 23 53  1  0
 26 54  1  0
 27 55  1  0
M  END
>  <smiles>  (78) 
O=C(NCC(=O)N1CCCCC1C1CCOCC1)c1ccc2cc(Cl)ccc2n1

>  <score_type>  (78) 
oracle

>  <origin>  (78) 
autodockgpu

>  <m_score__min__energy>  (78) 
-8.9700000000000006

>  <m_primary>  (78) 
energy

>  <rmsd>  (78) 
2.7105661077909016

>  <m_score__min__rmsd>  (78) 
2.7105661077909016

>  <meeko>  (78) 
{"free_energy": -7.95, "intermolecular_energy": -9.44, "internal_energy": -1.91, "cluster_size": 43, "cluster_id": 1, "rank_in_cluster": 19}

>  <energy>  (78) 
-7.83

>  <cluster_rmsd>  (78) 
1.59

>  <cluster>  (78) 
1

$$$$

     RDKit          3D

 55 58  0  0  0  0  0  0  0  0999 V2000
  138.9840   71.8340  220.7340 O   0  0  0  0  0  0  0  0  0  0  0  0
  139.1360   72.2930  221.9040 C   0  0  0  0  0  0  0  0  0  0  0  0
  139.0630   73.6950  222.0930 N   0  0  0  0  0  0  0  0  0  0  0  0
  138.8290   74.6440  221.0360 C   0  0  0  0  0  0  0  0  0  0  0  0
  139.4430   75.9740  221.3350 C   0  0  0  0  0  0  0  0  0  0  0  0
  138.6300   76.8380  221.7570 O   0  0  0  0  0  0  0  0  0  0  0  0
  140.8190   76.1740  221.1360 N   0  0  0  0  0  0  0  0  0  0  0  0
  141.6130   74.9340  220.8930 C   0  0  0  0  0  0  0  0  0  0  0  0
  142.2580   75.1260  219.5370 C   0  0  0  0  0  0  0  0  0  0  0  0
  141.8080   76.4190  218.8960 C   0  0  0  0  0  0  0  0  0  0  0  0
  142.1100   77.6180  219.7380 C   0  0  0  0  0  0  0  0  0  0  0  0
  141.5750   77.3790  221.1440 C   0  0  1  0  0  0  0  0  0  0  0  0
  141.0370   78.6010  221.7590 C   0  0  0  0  0  0  0  0  0  0  0  0
  141.1210   79.8910  221.0440 C   0  0  0  0  0  0  0  0  0  0  0  0
  141.8820   80.9340  221.9170 C   0  0  0  0  0  0  0  0  0  0  0  0
  141.1250   81.0930  223.0540 O   0  0  0  0  0  0  0  0  0  0  0  0
  141.3450   79.9860  223.8520 C   0  0  0  0  0  0  0  0  0  0  0  0
  141.7750   78.7750  223.1030 C   0  0  0  0  0  0  0  0  0  0  0  0
  139.3820   71.3920  223.0450 C   0  0  0  0  0  0  0  0  0  0  0  0
  139.0180   70.0680  222.9290 C   0  0  0  0  0  0  0  0  0  0  0  0
  139.2290   69.1790  223.9710 C   0  0  0  0  0  0  0  0  0  0  0  0
  139.8210   69.7090  225.1090 C   0  0  0  0  0  0  0  0  0  0  0  0
  140.0710   68.8880  226.2000 C   0  0  0  0  0  0  0  0  0  0  0  0
  140.6610   69.4190  227.3310 C   0  0  0  0  0  0  0  0  0  0  0  0
  140.9490   68.3290  228.6680 Cl  0  0  0  0  0  0  0  0  0  0  0  0
  141.0160   70.7520  227.4190 C   0  0  0  0  0  0  0  0  0  0  0  0
  140.7620   71.5480  226.3300 C   0  0  0  0  0  0  0  0  0  0  0  0
  140.1690   71.0410  225.1800 C   0  0  0  0  0  0  0  0  0  0  0  0
  139.9530   71.8880  224.1530 N   0  0  0  0  0  0  0  0  0  0  0  0
  139.1980   74.0220  223.0990 H   0  0  0  0  0  0  0  0  0  0  0  0
  139.2637   74.2530  220.1043 H   0  0  0  0  0  0  0  0  0  0  0  0
  137.7424   74.7843  220.9382 H   0  0  0  0  0  0  0  0  0  0  0  0
  142.3815   74.8111  221.6703 H   0  0  0  0  0  0  0  0  0  0  0  0
  140.9821   74.0334  220.9210 H   0  0  0  0  0  0  0  0  0  0  0  0
  143.3510   75.1475  219.6593 H   0  0  0  0  0  0  0  0  0  0  0  0
  141.9569   74.2915  218.8867 H   0  0  0  0  0  0  0  0  0  0  0  0
  142.3214   76.5297  217.9295 H   0  0  0  0  0  0  0  0  0  0  0  0
  140.7161   76.3661  218.7737 H   0  0  0  0  0  0  0  0  0  0  0  0
  143.1978   77.7766  219.7785 H   0  0  0  0  0  0  0  0  0  0  0  0
  141.6332   78.5090  219.3036 H   0  0  0  0  0  0  0  0  0  0  0  0
  142.3648   77.1749  221.8819 H   0  0  0  0  0  0  0  0  0  0  0  0
  139.9535   78.4150  221.7968 H   0  0  0  0  0  0  0  0  0  0  0  0
  141.6591   79.7476  220.0954 H   0  0  0  0  0  0  0  0  0  0  0  0
  140.1044   80.2602  220.8433 H   0  0  0  0  0  0  0  0  0  0  0  0
  142.8845   80.5608  222.1732 H   0  0  0  0  0  0  0  0  0  0  0  0
  142.0179   81.8866  221.3840 H   0  0  0  0  0  0  0  0  0  0  0  0
  142.1280   80.2367  224.5828 H   0  0  0  0  0  0  0  0  0  0  0  0
  140.3839   79.7410  224.3276 H   0  0  0  0  0  0  0  0  0  0  0  0
  142.8539   78.8520  222.9026 H   0  0  0  0  0  0  0  0  0  0  0  0
  141.5332   77.9010  223.7256 H   0  0  0  0  0  0  0  0  0  0  0  0
  138.5540   69.7122  221.9973 H   0  0  0  0  0  0  0  0  0  0  0  0
  138.9448   68.1187  223.9005 H   0  0  0  0  0  0  0  0  0  0  0  0
  139.8013   67.8222  226.1644 H   0  0  0  0  0  0  0  0  0  0  0  0
  141.4843   71.1594  228.3272 H   0  0  0  0  0  0  0  0  0  0  0  0
  141.0344   72.6130  226.3685 H   0  0  0  0  0  0  0  0  0  0  0  0
  1  2  2  0
  2  3  1  0
  3  4  1  0
  4  5  1  0
  5  6  2  0
  5  7  1  0
  7  8  1  0
  8  9  1  0
  9 10  1  0
 10 11  1  0
 11 12  1  0
 12 13  1  0
 13 14  1  0
 14 15  1  0
 15 16  1  0
 16 17  1  0
 17 18  1  0
  2 19  1  0
 19 20  2  0
 20 21  1  0
 21 22  2  0
 22 23  1  0
 23 24  2  0
 24 25  1  0
 24 26  1  0
 26 27  2  0
 27 28  1  0
 28 29  2  0
 12  7  1  0
 18 13  1  0
 29 19  1  0
 28 22  1  0
  3 30  1  0
  4 31  1  0
  4 32  1  0
  8 33  1  0
  8 34  1  0
  9 35  1  0
  9 36  1  0
 10 37  1  0
 10 38  1  0
 11 39  1  0
 11 40  1  0
 12 41  1  1
 13 42  1  0
 14 43  1  0
 14 44  1  0
 15 45  1  0
 15 46  1  0
 17 47  1  0
 17 48  1  0
 18 49  1  0
 18 50  1  0
 20 51  1  0
 21 52  1  0
 23 53  1  0
 26 54  1  0
 27 55  1  0
M  END
>  <smiles>  (79) 
O=C(NCC(=O)N1CCCCC1C1CCOCC1)c1ccc2cc(Cl)ccc2n1

>  <score_type>  (79) 
oracle

>  <origin>  (79) 
autodockgpu

>  <m_score__min__energy>  (79) 
-8.9700000000000006

>  <m_primary>  (79) 
energy

>  <rmsd>  (79) 
1.907418213714383

>  <m_score__min__rmsd>  (79) 
1.907418213714383

>  <meeko>  (79) 
{"free_energy": -8.32, "intermolecular_energy": -9.81, "internal_energy": -1.63, "cluster_size": 43, "cluster_id": 1, "rank_in_cluster": 12}

>  <energy>  (79) 
-7.82

>  <cluster_rmsd>  (79) 
1.7

>  <cluster>  (79) 
1

$$$$

     RDKit          3D

 55 58  0  0  0  0  0  0  0  0999 V2000
  139.0430   71.6990  220.8420 O   0  0  0  0  0  0  0  0  0  0  0  0
  139.3670   72.1500  221.9790 C   0  0  0  0  0  0  0  0  0  0  0  0
  139.5560   73.5480  222.1220 N   0  0  0  0  0  0  0  0  0  0  0  0
  139.4050   74.4980  221.0500 C   0  0  0  0  0  0  0  0  0  0  0  0
  140.5920   75.4010  220.9360 C   0  0  0  0  0  0  0  0  0  0  0  0
  141.1950   75.6070  222.0220 O   0  0  0  0  0  0  0  0  0  0  0  0
  140.9460   75.9410  219.6880 N   0  0  0  0  0  0  0  0  0  0  0  0
  139.9650   76.9040  219.1110 C   0  0  0  0  0  0  0  0  0  0  0  0
  140.7290   78.1990  218.9290 C   0  0  0  0  0  0  0  0  0  0  0  0
  142.1370   78.0830  219.4660 C   0  0  0  0  0  0  0  0  0  0  0  0
  142.9130   76.9800  218.8180 C   0  0  0  0  0  0  0  0  0  0  0  0
  142.0930   75.6980  218.8840 C   0  0  1  0  0  0  0  0  0  0  0  0
  142.9250   74.5050  219.1000 C   0  0  0  0  0  0  0  0  0  0  0  0
  142.3010   73.2250  219.4930 C   0  0  0  0  0  0  0  0  0  0  0  0
  142.9170   72.7220  220.8340 C   0  0  0  0  0  0  0  0  0  0  0  0
  144.2530   72.5170  220.5770 O   0  0  0  0  0  0  0  0  0  0  0  0
  144.8600   73.7590  220.5460 C   0  0  0  0  0  0  0  0  0  0  0  0
  143.9400   74.8750  220.2020 C   0  0  0  0  0  0  0  0  0  0  0  0
  139.5440   71.2470  223.1310 C   0  0  0  0  0  0  0  0  0  0  0  0
  139.1040   69.9460  223.0220 C   0  0  0  0  0  0  0  0  0  0  0  0
  139.2480   69.0550  224.0730 C   0  0  0  0  0  0  0  0  0  0  0  0
  139.8560   69.5600  225.2150 C   0  0  0  0  0  0  0  0  0  0  0  0
  140.0440   68.7360  226.3160 C   0  0  0  0  0  0  0  0  0  0  0  0
  140.6500   69.2410  227.4500 C   0  0  0  0  0  0  0  0  0  0  0  0
  140.8550   68.1480  228.8000 Cl  0  0  0  0  0  0  0  0  0  0  0  0
  141.0820   70.5510  227.5310 C   0  0  0  0  0  0  0  0  0  0  0  0
  140.8890   71.3510  226.4330 C   0  0  0  0  0  0  0  0  0  0  0  0
  140.2830   70.8690  225.2790 C   0  0  0  0  0  0  0  0  0  0  0  0
  140.1300   71.7190  224.2420 N   0  0  0  0  0  0  0  0  0  0  0  0
  139.8270   73.8690  223.1010 H   0  0  0  0  0  0  0  0  0  0  0  0
  139.2821   73.9505  220.1039 H   0  0  0  0  0  0  0  0  0  0  0  0
  138.5228   75.1188  221.2654 H   0  0  0  0  0  0  0  0  0  0  0  0
  139.5914   76.5387  218.1430 H   0  0  0  0  0  0  0  0  0  0  0  0
  139.0892   77.0349  219.7636 H   0  0  0  0  0  0  0  0  0  0  0  0
  140.7727   78.4422  217.8571 H   0  0  0  0  0  0  0  0  0  0  0  0
  140.2081   78.9919  219.4857 H   0  0  0  0  0  0  0  0  0  0  0  0
  142.6610   79.0336  219.2880 H   0  0  0  0  0  0  0  0  0  0  0  0
  142.0654   77.8528  220.5393 H   0  0  0  0  0  0  0  0  0  0  0  0
  143.1135   77.2369  217.7674 H   0  0  0  0  0  0  0  0  0  0  0  0
  143.8700   76.8388  219.3417 H   0  0  0  0  0  0  0  0  0  0  0  0
  141.6623   75.4065  217.9147 H   0  0  0  0  0  0  0  0  0  0  0  0
  143.3223   74.2831  218.0985 H   0  0  0  0  0  0  0  0  0  0  0  0
  141.2184   73.3717  219.6216 H   0  0  0  0  0  0  0  0  0  0  0  0
  142.4850   72.4770  218.7077 H   0  0  0  0  0  0  0  0  0  0  0  0
  142.7899   73.4789  221.6220 H   0  0  0  0  0  0  0  0  0  0  0  0
  142.4260   71.8030  221.1865 H   0  0  0  0  0  0  0  0  0  0  0  0
  145.2894   73.9587  221.5389 H   0  0  0  0  0  0  0  0  0  0  0  0
  145.6223   73.7202  219.7539 H   0  0  0  0  0  0  0  0  0  0  0  0
  143.3848   75.1627  221.1070 H   0  0  0  0  0  0  0  0  0  0  0  0
  144.5559   75.7009  219.8167 H   0  0  0  0  0  0  0  0  0  0  0  0
  138.6316   69.6099  222.0872 H   0  0  0  0  0  0  0  0  0  0  0  0
  138.9024   68.0128  224.0071 H   0  0  0  0  0  0  0  0  0  0  0  0
  139.7126   67.6876  226.2857 H   0  0  0  0  0  0  0  0  0  0  0  0
  141.5626   70.9381  228.4416 H   0  0  0  0  0  0  0  0  0  0  0  0
  141.2219   72.3989  226.4670 H   0  0  0  0  0  0  0  0  0  0  0  0
  1  2  2  0
  2  3  1  0
  3  4  1  0
  4  5  1  0
  5  6  2  0
  5  7  1  0
  7  8  1  0
  8  9  1  0
  9 10  1  0
 10 11  1  0
 11 12  1  0
 12 13  1  0
 13 14  1  0
 14 15  1  0
 15 16  1  0
 16 17  1  0
 17 18  1  0
  2 19  1  0
 19 20  2  0
 20 21  1  0
 21 22  2  0
 22 23  1  0
 23 24  2  0
 24 25  1  0
 24 26  1  0
 26 27  2  0
 27 28  1  0
 28 29  2  0
 12  7  1  0
 18 13  1  0
 29 19  1  0
 28 22  1  0
  3 30  1  0
  4 31  1  0
  4 32  1  0
  8 33  1  0
  8 34  1  0
  9 35  1  0
  9 36  1  0
 10 37  1  0
 10 38  1  0
 11 39  1  0
 11 40  1  0
 12 41  1  6
 13 42  1  0
 14 43  1  0
 14 44  1  0
 15 45  1  0
 15 46  1  0
 17 47  1  0
 17 48  1  0
 18 49  1  0
 18 50  1  0
 20 51  1  0
 21 52  1  0
 23 53  1  0
 26 54  1  0
 27 55  1  0
M  END
>  <smiles>  (80) 
O=C(NCC(=O)N1CCCCC1C1CCOCC1)c1ccc2cc(Cl)ccc2n1

>  <score_type>  (80) 
oracle

>  <origin>  (80) 
autodockgpu

>  <m_score__min__energy>  (80) 
-8.9700000000000006

>  <m_primary>  (80) 
energy

>  <rmsd>  (80) 
1.772241271303936

>  <m_score__min__rmsd>  (80) 
1.772241271303936

>  <meeko>  (80) 
{"free_energy": -7.45, "intermolecular_energy": -8.94, "internal_energy": -2.3, "cluster_size": 43, "cluster_id": 1, "rank_in_cluster": 41}

>  <energy>  (80) 
-7.81

>  <cluster_rmsd>  (80) 
1.24

>  <cluster>  (80) 
1

$$$$

     RDKit          3D

 55 58  0  0  0  0  0  0  0  0999 V2000
  138.7620   71.8260  220.8380 O   0  0  0  0  0  0  0  0  0  0  0  0
  139.0500   72.2840  221.9830 C   0  0  0  0  0  0  0  0  0  0  0  0
  139.0940   73.6900  222.1550 N   0  0  0  0  0  0  0  0  0  0  0  0
  138.8340   74.6430  221.1070 C   0  0  0  0  0  0  0  0  0  0  0  0
  139.9330   74.6680  220.0920 C   0  0  0  0  0  0  0  0  0  0  0  0
  139.5570   74.4290  218.9150 O   0  0  0  0  0  0  0  0  0  0  0  0
  141.2520   74.9390  220.4920 N   0  0  0  0  0  0  0  0  0  0  0  0
  142.1250   73.7420  220.6580 C   0  0  0  0  0  0  0  0  0  0  0  0
  143.2800   73.9470  219.7000 C   0  0  0  0  0  0  0  0  0  0  0  0
  143.0920   75.2020  218.8790 C   0  0  0  0  0  0  0  0  0  0  0  0
  142.9540   76.4290  219.7230 C   0  0  0  0  0  0  0  0  0  0  0  0
  141.8790   76.1840  220.7750 C   0  0  1  0  0  0  0  0  0  0  0  0
  141.0780   77.3840  221.0540 C   0  0  0  0  0  0  0  0  0  0  0  0
  141.5020   78.6990  220.5290 C   0  0  0  0  0  0  0  0  0  0  0  0
  141.6750   79.7100  221.7030 C   0  0  0  0  0  0  0  0  0  0  0  0
  140.4320   79.8300  222.2790 O   0  0  0  0  0  0  0  0  0  0  0  0
  140.2210   78.6940  223.0390 C   0  0  0  0  0  0  0  0  0  0  0  0
  141.0000   77.5100  222.5900 C   0  0  0  0  0  0  0  0  0  0  0  0
  139.3320   71.3800  223.1120 C   0  0  0  0  0  0  0  0  0  0  0  0
  138.9800   70.0520  222.9960 C   0  0  0  0  0  0  0  0  0  0  0  0
  139.2250   69.1590  224.0270 C   0  0  0  0  0  0  0  0  0  0  0  0
  139.8380   69.6890  225.1540 C   0  0  0  0  0  0  0  0  0  0  0  0
  140.1220   68.8640  226.2350 C   0  0  0  0  0  0  0  0  0  0  0  0
  140.7330   69.3950  227.3550 C   0  0  0  0  0  0  0  0  0  0  0  0
  141.0630   68.3000  228.6770 Cl  0  0  0  0  0  0  0  0  0  0  0  0
  141.0750   70.7310  227.4420 C   0  0  0  0  0  0  0  0  0  0  0  0
  140.7870   71.5310  226.3650 C   0  0  0  0  0  0  0  0  0  0  0  0
  140.1730   71.0240  225.2250 C   0  0  0  0  0  0  0  0  0  0  0  0
  139.9230   71.8750  224.2090 N   0  0  0  0  0  0  0  0  0  0  0  0
  139.3400   74.0170  223.1390 H   0  0  0  0  0  0  0  0  0  0  0  0
  137.8928   74.3728  220.6058 H   0  0  0  0  0  0  0  0  0  0  0  0
  138.7673   75.6419  221.5627 H   0  0  0  0  0  0  0  0  0  0  0  0
  142.4915   73.6741  221.6929 H   0  0  0  0  0  0  0  0  0  0  0  0
  141.5818   72.8087  220.4483 H   0  0  0  0  0  0  0  0  0  0  0  0
  144.2134   74.0313  220.2759 H   0  0  0  0  0  0  0  0  0  0  0  0
  143.3229   73.0863  219.0163 H   0  0  0  0  0  0  0  0  0  0  0  0
  143.9637   75.3249  218.2194 H   0  0  0  0  0  0  0  0  0  0  0  0
  142.1605   75.0871  218.3053 H   0  0  0  0  0  0  0  0  0  0  0  0
  143.9121   76.6471  220.2175 H   0  0  0  0  0  0  0  0  0  0  0  0
  142.6719   77.2856  219.0933 H   0  0  0  0  0  0  0  0  0  0  0  0
  142.2847   76.0363  221.7867 H   0  0  0  0  0  0  0  0  0  0  0  0
  140.1387   77.1980  220.5127 H   0  0  0  0  0  0  0  0  0  0  0  0
  142.4596   78.5884  219.9992 H   0  0  0  0  0  0  0  0  0  0  0  0
  140.7348   79.0764  219.8370 H   0  0  0  0  0  0  0  0  0  0  0  0
  142.4012   79.3267  222.4350 H   0  0  0  0  0  0  0  0  0  0  0  0
  142.0534   80.6806  221.3497 H   0  0  0  0  0  0  0  0  0  0  0  0
  140.5007   78.9174  224.0791 H   0  0  0  0  0  0  0  0  0  0  0  0
  139.1577   78.4335  222.9316 H   0  0  0  0  0  0  0  0  0  0  0  0
  142.0226   77.5926  222.9869 H   0  0  0  0  0  0  0  0  0  0  0  0
  140.4831   76.6151  222.9668 H   0  0  0  0  0  0  0  0  0  0  0  0
  138.4984   69.6967  222.0731 H   0  0  0  0  0  0  0  0  0  0  0  0
  138.9507   68.0961  223.9566 H   0  0  0  0  0  0  0  0  0  0  0  0
  139.8624   67.7957  226.1997 H   0  0  0  0  0  0  0  0  0  0  0  0
  141.5602   71.1381  228.3414 H   0  0  0  0  0  0  0  0  0  0  0  0
  141.0481   72.5988  226.4044 H   0  0  0  0  0  0  0  0  0  0  0  0
  1  2  2  0
  2  3  1  0
  3  4  1  0
  4  5  1  0
  5  6  2  0
  5  7  1  0
  7  8  1  0
  8  9  1  0
  9 10  1  0
 10 11  1  0
 11 12  1  0
 12 13  1  0
 13 14  1  0
 14 15  1  0
 15 16  1  0
 16 17  1  0
 17 18  1  0
  2 19  1  0
 19 20  2  0
 20 21  1  0
 21 22  2  0
 22 23  1  0
 23 24  2  0
 24 25  1  0
 24 26  1  0
 26 27  2  0
 27 28  1  0
 28 29  2  0
 12  7  1  0
 18 13  1  0
 29 19  1  0
 28 22  1  0
  3 30  1  0
  4 31  1  0
  4 32  1  0
  8 33  1  0
  8 34  1  0
  9 35  1  0
  9 36  1  0
 10 37  1  0
 10 38  1  0
 11 39  1  0
 11 40  1  0
 12 41  1  1
 13 42  1  0
 14 43  1  0
 14 44  1  0
 15 45  1  0
 15 46  1  0
 17 47  1  0
 17 48  1  0
 18 49  1  0
 18 50  1  0
 20 51  1  0
 21 52  1  0
 23 53  1  0
 26 54  1  0
 27 55  1  0
M  END
>  <smiles>  (81) 
O=C(NCC(=O)N1CCCCC1C1CCOCC1)c1ccc2cc(Cl)ccc2n1

>  <score_type>  (81) 
oracle

>  <origin>  (81) 
autodockgpu

>  <m_score__min__energy>  (81) 
-8.9700000000000006

>  <m_primary>  (81) 
energy

>  <rmsd>  (81) 
2.200941645051757

>  <m_score__min__rmsd>  (81) 
2.200941645051757

>  <meeko>  (81) 
{"free_energy": -7.66, "intermolecular_energy": -9.15, "internal_energy": -1.86, "cluster_size": 43, "cluster_id": 1, "rank_in_cluster": 37}

>  <energy>  (81) 
-7.81

>  <cluster_rmsd>  (81) 
1.69

>  <cluster>  (81) 
1

$$$$

     RDKit          3D

 55 58  0  0  0  0  0  0  0  0999 V2000
  140.1990   72.5920  220.8580 O   0  0  0  0  0  0  0  0  0  0  0  0
  139.9160   72.8970  222.0530 C   0  0  0  0  0  0  0  0  0  0  0  0
  139.5510   74.2360  222.3390 N   0  0  0  0  0  0  0  0  0  0  0  0
  139.4800   75.2830  221.3540 C   0  0  0  0  0  0  0  0  0  0  0  0
  138.8910   76.5380  221.9170 C   0  0  0  0  0  0  0  0  0  0  0  0
  138.4290   76.4180  223.0820 O   0  0  0  0  0  0  0  0  0  0  0  0
  138.8840   77.7160  221.1510 N   0  0  0  0  0  0  0  0  0  0  0  0
  138.2210   77.6050  219.8200 C   0  0  0  0  0  0  0  0  0  0  0  0
  137.1030   78.6270  219.8380 C   0  0  0  0  0  0  0  0  0  0  0  0
  137.0040   79.3030  221.1860 C   0  0  0  0  0  0  0  0  0  0  0  0
  138.2740   79.9840  221.5860 C   0  0  0  0  0  0  0  0  0  0  0  0
  139.4260   78.9970  221.4470 C   0  0  1  0  0  0  0  0  0  0  0  0
  140.4400   79.1600  222.4990 C   0  0  0  0  0  0  0  0  0  0  0  0
  140.3050   80.2400  223.4990 C   0  0  0  0  0  0  0  0  0  0  0  0
  141.5690   81.1510  223.4730 C   0  0  0  0  0  0  0  0  0  0  0  0
  142.6220   80.3390  223.8200 O   0  0  0  0  0  0  0  0  0  0  0  0
  142.9260   79.5650  222.7150 C   0  0  0  0  0  0  0  0  0  0  0  0
  141.7870   79.3730  221.7780 C   0  0  0  0  0  0  0  0  0  0  0  0
  139.9650   71.8860  223.1250 C   0  0  0  0  0  0  0  0  0  0  0  0
  139.5040   70.6160  222.8540 C   0  0  0  0  0  0  0  0  0  0  0  0
  139.5290   69.6270  223.8250 C   0  0  0  0  0  0  0  0  0  0  0  0
  140.0420   70.0040  225.0590 C   0  0  0  0  0  0  0  0  0  0  0  0
  140.1060   69.0760  226.0900 C   0  0  0  0  0  0  0  0  0  0  0  0
  140.6170   69.4540  227.3160 C   0  0  0  0  0  0  0  0  0  0  0  0
  140.6710   68.2350  228.5690 Cl  0  0  0  0  0  0  0  0  0  0  0  0
  141.0720   70.7360  227.5590 C   0  0  0  0  0  0  0  0  0  0  0  0
  141.0020   71.6400  226.5290 C   0  0  0  0  0  0  0  0  0  0  0  0
  140.4920   71.2870  225.2850 C   0  0  0  0  0  0  0  0  0  0  0  0
  140.4570   72.2330  224.3240 N   0  0  0  0  0  0  0  0  0  0  0  0
  139.3240   74.4330  223.3610 H   0  0  0  0  0  0  0  0  0  0  0  0
  140.4954   75.4986  220.9900 H   0  0  0  0  0  0  0  0  0  0  0  0
  138.8308   74.9384  220.5356 H   0  0  0  0  0  0  0  0  0  0  0  0
  138.9354   77.8309  219.0147 H   0  0  0  0  0  0  0  0  0  0  0  0
  137.8419   76.5888  219.6365 H   0  0  0  0  0  0  0  0  0  0  0  0
  137.2997   79.3879  219.0683 H   0  0  0  0  0  0  0  0  0  0  0  0
  136.1536   78.1091  219.6368 H   0  0  0  0  0  0  0  0  0  0  0  0
  136.2005   80.0531  221.1451 H   0  0  0  0  0  0  0  0  0  0  0  0
  136.7959   78.5234  221.9336 H   0  0  0  0  0  0  0  0  0  0  0  0
  138.4497   80.8515  220.9329 H   0  0  0  0  0  0  0  0  0  0  0  0
  138.2009   80.3283  222.6282 H   0  0  0  0  0  0  0  0  0  0  0  0
  140.0732   79.2023  220.5815 H   0  0  0  0  0  0  0  0  0  0  0  0
  140.3294   78.2500  223.1070 H   0  0  0  0  0  0  0  0  0  0  0  0
  139.4158   80.8439  223.2652 H   0  0  0  0  0  0  0  0  0  0  0  0
  140.2010   79.7949  224.4995 H   0  0  0  0  0  0  0  0  0  0  0  0
  141.7212   81.5666  222.4660 H   0  0  0  0  0  0  0  0  0  0  0  0
  141.4693   82.0022  224.1626 H   0  0  0  0  0  0  0  0  0  0  0  0
  143.7462   80.0518  222.1670 H   0  0  0  0  0  0  0  0  0  0  0  0
  143.2000   78.5681  223.0908 H   0  0  0  0  0  0  0  0  0  0  0  0
  141.7050   80.2647  221.1391 H   0  0  0  0  0  0  0  0  0  0  0  0
  141.9931   78.4647  221.1927 H   0  0  0  0  0  0  0  0  0  0  0  0
  139.1107   70.3838  221.8533 H   0  0  0  0  0  0  0  0  0  0  0  0
  139.1652   68.6073  223.6301 H   0  0  0  0  0  0  0  0  0  0  0  0
  139.7520   68.0467  225.9312 H   0  0  0  0  0  0  0  0  0  0  0  0
  141.4754   71.0213  228.5418 H   0  0  0  0  0  0  0  0  0  0  0  0
  141.3578   72.6681  226.6916 H   0  0  0  0  0  0  0  0  0  0  0  0
  1  2  2  0
  2  3  1  0
  3  4  1  0
  4  5  1  0
  5  6  2  0
  5  7  1  0
  7  8  1  0
  8  9  1  0
  9 10  1  0
 10 11  1  0
 11 12  1  0
 12 13  1  0
 13 14  1  0
 14 15  1  0
 15 16  1  0
 16 17  1  0
 17 18  1  0
  2 19  1  0
 19 20  2  0
 20 21  1  0
 21 22  2  0
 22 23  1  0
 23 24  2  0
 24 25  1  0
 24 26  1  0
 26 27  2  0
 27 28  1  0
 28 29  2  0
 12  7  1  0
 18 13  1  0
 29 19  1  0
 28 22  1  0
  3 30  1  0
  4 31  1  0
  4 32  1  0
  8 33  1  0
  8 34  1  0
  9 35  1  0
  9 36  1  0
 10 37  1  0
 10 38  1  0
 11 39  1  0
 11 40  1  0
 12 41  1  6
 13 42  1  0
 14 43  1  0
 14 44  1  0
 15 45  1  0
 15 46  1  0
 17 47  1  0
 17 48  1  0
 18 49  1  0
 18 50  1  0
 20 51  1  0
 21 52  1  0
 23 53  1  0
 26 54  1  0
 27 55  1  0
M  END
>  <smiles>  (82) 
O=C(NCC(=O)N1CCCCC1C1CCOCC1)c1ccc2cc(Cl)ccc2n1

>  <score_type>  (82) 
oracle

>  <origin>  (82) 
autodockgpu

>  <m_score__min__energy>  (82) 
-8.9700000000000006

>  <m_primary>  (82) 
energy

>  <rmsd>  (82) 
2.898143955459126

>  <m_score__min__rmsd>  (82) 
2.898143955459126

>  <meeko>  (82) 
{"free_energy": -7.88, "intermolecular_energy": -9.37, "internal_energy": -1.96, "cluster_size": 43, "cluster_id": 1, "rank_in_cluster": 25}

>  <energy>  (82) 
-7.8

>  <cluster_rmsd>  (82) 
1.56

>  <cluster>  (82) 
1

$$$$

     RDKit          3D

 55 58  0  0  0  0  0  0  0  0999 V2000
  138.2300   72.2040  221.7570 O   0  0  0  0  0  0  0  0  0  0  0  0
  139.2610   72.3270  222.4810 C   0  0  0  0  0  0  0  0  0  0  0  0
  140.1530   73.3940  222.2100 N   0  0  0  0  0  0  0  0  0  0  0  0
  139.9660   74.3570  221.1560 C   0  0  0  0  0  0  0  0  0  0  0  0
  140.3210   75.7420  221.5970 C   0  0  0  0  0  0  0  0  0  0  0  0
  141.4310   75.8310  222.1840 O   0  0  0  0  0  0  0  0  0  0  0  0
  139.4400   76.8070  221.3460 N   0  0  0  0  0  0  0  0  0  0  0  0
  138.5240   76.6130  220.1850 C   0  0  0  0  0  0  0  0  0  0  0  0
  137.1230   76.7130  220.7540 C   0  0  0  0  0  0  0  0  0  0  0  0
  137.1540   76.8730  222.2570 C   0  0  0  0  0  0  0  0  0  0  0  0
  137.9300   78.0750  222.6930 C   0  0  0  0  0  0  0  0  0  0  0  0
  139.2970   78.0490  222.0230 C   0  0  1  0  0  0  0  0  0  0  0  0
  140.3650   78.5570  222.8970 C   0  0  0  0  0  0  0  0  0  0  0  0
  140.1120   79.7110  223.7840 C   0  0  0  0  0  0  0  0  0  0  0  0
  141.1340   80.8490  223.4800 C   0  0  0  0  0  0  0  0  0  0  0  0
  142.3730   80.3230  223.7610 O   0  0  0  0  0  0  0  0  0  0  0  0
  142.7090   79.4850  222.7130 C   0  0  0  0  0  0  0  0  0  0  0  0
  141.5400   78.9400  221.9740 C   0  0  0  0  0  0  0  0  0  0  0  0
  139.5310   71.3840  223.5810 C   0  0  0  0  0  0  0  0  0  0  0  0
  139.2530   70.0480  223.3860 C   0  0  0  0  0  0  0  0  0  0  0  0
  139.4910   69.1180  224.3860 C   0  0  0  0  0  0  0  0  0  0  0  0
  140.0170   69.6220  225.5680 C   0  0  0  0  0  0  0  0  0  0  0  0
  140.2880   68.7610  226.6230 C   0  0  0  0  0  0  0  0  0  0  0  0
  140.8120   69.2660  227.7970 C   0  0  0  0  0  0  0  0  0  0  0  0
  141.1310   68.1260  229.0840 Cl  0  0  0  0  0  0  0  0  0  0  0  0
  141.0810   70.6110  227.9640 C   0  0  0  0  0  0  0  0  0  0  0  0
  140.8080   71.4470  226.9100 C   0  0  0  0  0  0  0  0  0  0  0  0
  140.2800   70.9670  225.7180 C   0  0  0  0  0  0  0  0  0  0  0  0
  140.0390   71.8530  224.7300 N   0  0  0  0  0  0  0  0  0  0  0  0
  141.0020   73.4470  222.8510 H   0  0  0  0  0  0  0  0  0  0  0  0
  140.6044   74.0804  220.3040 H   0  0  0  0  0  0  0  0  0  0  0  0
  138.9030   74.3510  220.8731 H   0  0  0  0  0  0  0  0  0  0  0  0
  138.6891   77.3957  219.4300 H   0  0  0  0  0  0  0  0  0  0  0  0
  138.6945   75.6469  219.6874 H   0  0  0  0  0  0  0  0  0  0  0  0
  136.6169   77.5833  220.3108 H   0  0  0  0  0  0  0  0  0  0  0  0
  136.5821   75.7859  220.5133 H   0  0  0  0  0  0  0  0  0  0  0  0
  136.1209   76.9695  222.6221 H   0  0  0  0  0  0  0  0  0  0  0  0
  137.6519   75.9860  222.6756 H   0  0  0  0  0  0  0  0  0  0  0  0
  137.3920   78.9884  222.3991 H   0  0  0  0  0  0  0  0  0  0  0  0
  138.0505   78.0645  223.7863 H   0  0  0  0  0  0  0  0  0  0  0  0
  139.3997   78.7886  221.2152 H   0  0  0  0  0  0  0  0  0  0  0  0
  140.5282   77.7347  223.6091 H   0  0  0  0  0  0  0  0  0  0  0  0
  139.0908   80.0834  223.6155 H   0  0  0  0  0  0  0  0  0  0  0  0
  140.2244   79.3939  224.8313 H   0  0  0  0  0  0  0  0  0  0  0  0
  141.0743   81.1453  222.4223 H   0  0  0  0  0  0  0  0  0  0  0  0
  140.9298   81.7482  224.0798 H   0  0  0  0  0  0  0  0  0  0  0  0
  143.3326   80.0503  222.0048 H   0  0  0  0  0  0  0  0  0  0  0  0
  143.2370   78.6250  223.1508 H   0  0  0  0  0  0  0  0  0  0  0  0
  141.1910   79.7012  221.2607 H   0  0  0  0  0  0  0  0  0  0  0  0
  141.8716   78.0217  221.4673 H   0  0  0  0  0  0  0  0  0  0  0  0
  138.8366   69.7153  222.4237 H   0  0  0  0  0  0  0  0  0  0  0  0
  139.2765   68.0475  224.2515 H   0  0  0  0  0  0  0  0  0  0  0  0
  140.0868   67.6841  226.5246 H   0  0  0  0  0  0  0  0  0  0  0  0
  141.4981   70.9971  228.9058 H   0  0  0  0  0  0  0  0  0  0  0  0
  141.0123   72.5231  227.0117 H   0  0  0  0  0  0  0  0  0  0  0  0
  1  2  2  0
  2  3  1  0
  3  4  1  0
  4  5  1  0
  5  6  2  0
  5  7  1  0
  7  8  1  0
  8  9  1  0
  9 10  1  0
 10 11  1  0
 11 12  1  0
 12 13  1  0
 13 14  1  0
 14 15  1  0
 15 16  1  0
 16 17  1  0
 17 18  1  0
  2 19  1  0
 19 20  2  0
 20 21  1  0
 21 22  2  0
 22 23  1  0
 23 24  2  0
 24 25  1  0
 24 26  1  0
 26 27  2  0
 27 28  1  0
 28 29  2  0
 12  7  1  0
 18 13  1  0
 29 19  1  0
 28 22  1  0
  3 30  1  0
  4 31  1  0
  4 32  1  0
  8 33  1  0
  8 34  1  0
  9 35  1  0
  9 36  1  0
 10 37  1  0
 10 38  1  0
 11 39  1  0
 11 40  1  0
 12 41  1  6
 13 42  1  0
 14 43  1  0
 14 44  1  0
 15 45  1  0
 15 46  1  0
 17 47  1  0
 17 48  1  0
 18 49  1  0
 18 50  1  0
 20 51  1  0
 21 52  1  0
 23 53  1  0
 26 54  1  0
 27 55  1  0
M  END
>  <smiles>  (83) 
O=C(NCC(=O)N1CCCCC1C1CCOCC1)c1ccc2cc(Cl)ccc2n1

>  <score_type>  (83) 
oracle

>  <origin>  (83) 
autodockgpu

>  <m_score__min__energy>  (83) 
-8.9700000000000006

>  <m_primary>  (83) 
energy

>  <rmsd>  (83) 
2.7653582010510322

>  <m_score__min__rmsd>  (83) 
2.7653582010510322

>  <meeko>  (83) 
{"free_energy": -7.83, "intermolecular_energy": -9.33, "internal_energy": -1.75, "cluster_size": 43, "cluster_id": 1, "rank_in_cluster": 28}

>  <energy>  (83) 
-7.76

>  <cluster_rmsd>  (83) 
1.7

>  <cluster>  (83) 
1

$$$$

     RDKit          3D

 55 58  0  0  0  0  0  0  0  0999 V2000
  137.6890   72.9110  220.8240 O   0  0  0  0  0  0  0  0  0  0  0  0
  137.5660   73.4370  221.9690 C   0  0  0  0  0  0  0  0  0  0  0  0
  137.0280   72.6520  223.0180 N   0  0  0  0  0  0  0  0  0  0  0  0
  136.6040   71.2840  222.8700 C   0  0  0  0  0  0  0  0  0  0  0  0
  137.4010   70.3580  223.7330 C   0  0  0  0  0  0  0  0  0  0  0  0
  136.7260   69.7510  224.6050 O   0  0  0  0  0  0  0  0  0  0  0  0
  138.7850   70.2270  223.5320 N   0  0  0  0  0  0  0  0  0  0  0  0
  139.2090   70.0610  222.1110 C   0  0  0  0  0  0  0  0  0  0  0  0
  140.1420   71.2200  221.8290 C   0  0  0  0  0  0  0  0  0  0  0  0
  140.2330   72.1500  223.0180 C   0  0  0  0  0  0  0  0  0  0  0  0
  140.7000   71.4570  224.2590 C   0  0  0  0  0  0  0  0  0  0  0  0
  139.8450   70.2150  224.4800 C   0  0  1  0  0  0  0  0  0  0  0  0
  139.5800   69.9570  225.9020 C   0  0  0  0  0  0  0  0  0  0  0  0
  140.1240   70.8640  226.9350 C   0  0  0  0  0  0  0  0  0  0  0  0
  141.0040   70.0600  227.9400 C   0  0  0  0  0  0  0  0  0  0  0  0
  140.1580   69.1510  228.5320 O   0  0  0  0  0  0  0  0  0  0  0  0
  139.9420   68.1360  227.6180 C   0  0  0  0  0  0  0  0  0  0  0  0
  140.1280   68.5470  226.2010 C   0  0  0  0  0  0  0  0  0  0  0  0
  137.9730   74.8340  222.2090 C   0  0  0  0  0  0  0  0  0  0  0  0
  136.9930   75.7750  222.4380 C   0  0  0  0  0  0  0  0  0  0  0  0
  137.3210   77.1010  222.6720 C   0  0  0  0  0  0  0  0  0  0  0  0
  138.6760   77.4010  222.6590 C   0  0  0  0  0  0  0  0  0  0  0  0
  139.0940   78.7050  222.8860 C   0  0  0  0  0  0  0  0  0  0  0  0
  140.4440   79.0000  222.8730 C   0  0  0  0  0  0  0  0  0  0  0  0
  140.9010   80.6620  223.1670 Cl  0  0  0  0  0  0  0  0  0  0  0  0
  141.4050   78.0350  222.6400 C   0  0  0  0  0  0  0  0  0  0  0  0
  140.9730   76.7510  222.4180 C   0  0  0  0  0  0  0  0  0  0  0  0
  139.6220   76.4260  222.4260 C   0  0  0  0  0  0  0  0  0  0  0  0
  139.2790   75.1410  222.1990 N   0  0  0  0  0  0  0  0  0  0  0  0
  136.9490   73.1480  223.9580 H   0  0  0  0  0  0  0  0  0  0  0  0
  135.5432   71.2078  223.1510 H   0  0  0  0  0  0  0  0  0  0  0  0
  136.7577   70.9904  221.8211 H   0  0  0  0  0  0  0  0  0  0  0  0
  139.7335   69.1036  221.9757 H   0  0  0  0  0  0  0  0  0  0  0  0
  138.3480   70.0544  221.4264 H   0  0  0  0  0  0  0  0  0  0  0  0
  141.1443   70.8271  221.6031 H   0  0  0  0  0  0  0  0  0  0  0  0
  139.7457   71.7862  220.9732 H   0  0  0  0  0  0  0  0  0  0  0  0
  140.9398   72.9583  222.7792 H   0  0  0  0  0  0  0  0  0  0  0  0
  139.2226   72.5378  223.2144 H   0  0  0  0  0  0  0  0  0  0  0  0
  141.7542   71.1644  224.1445 H   0  0  0  0  0  0  0  0  0  0  0  0
  140.6068   72.1329  225.1218 H   0  0  0  0  0  0  0  0  0  0  0  0
  140.3731   69.2769  224.2538 H   0  0  0  0  0  0  0  0  0  0  0  0
  138.4941   70.1076  225.9923 H   0  0  0  0  0  0  0  0  0  0  0  0
  140.7375   71.6392  226.4527 H   0  0  0  0  0  0  0  0  0  0  0  0
  139.2909   71.3328  227.4791 H   0  0  0  0  0  0  0  0  0  0  0  0
  141.8147   69.5398  227.4088 H   0  0  0  0  0  0  0  0  0  0  0  0
  141.4758   70.7191  228.6836 H   0  0  0  0  0  0  0  0  0  0  0  0
  140.6454   67.3189  227.8361 H   0  0  0  0  0  0  0  0  0  0  0  0
  138.8907   67.8305  227.7249 H   0  0  0  0  0  0  0  0  0  0  0  0
  141.2036   68.5337  225.9712 H   0  0  0  0  0  0  0  0  0  0  0  0
  139.5642   67.8375  225.5775 H   0  0  0  0  0  0  0  0  0  0  0  0
  135.9362   75.4697  222.4351 H   0  0  0  0  0  0  0  0  0  0  0  0
  136.5547   77.8683  222.8566 H   0  0  0  0  0  0  0  0  0  0  0  0
  138.3557   79.4982  223.0750 H   0  0  0  0  0  0  0  0  0  0  0  0
  142.4759   78.2861  222.6327 H   0  0  0  0  0  0  0  0  0  0  0  0
  141.7142   75.9604  222.2292 H   0  0  0  0  0  0  0  0  0  0  0  0
  1  2  2  0
  2  3  1  0
  3  4  1  0
  4  5  1  0
  5  6  2  0
  5  7  1  0
  7  8  1  0
  8  9  1  0
  9 10  1  0
 10 11  1  0
 11 12  1  0
 12 13  1  0
 13 14  1  0
 14 15  1  0
 15 16  1  0
 16 17  1  0
 17 18  1  0
  2 19  1  0
 19 20  2  0
 20 21  1  0
 21 22  2  0
 22 23  1  0
 23 24  2  0
 24 25  1  0
 24 26  1  0
 26 27  2  0
 27 28  1  0
 28 29  2  0
 12  7  1  0
 18 13  1  0
 29 19  1  0
 28 22  1  0
  3 30  1  0
  4 31  1  0
  4 32  1  0
  8 33  1  0
  8 34  1  0
  9 35  1  0
  9 36  1  0
 10 37  1  0
 10 38  1  0
 11 39  1  0
 11 40  1  0
 12 41  1  6
 13 42  1  0
 14 43  1  0
 14 44  1  0
 15 45  1  0
 15 46  1  0
 17 47  1  0
 17 48  1  0
 18 49  1  0
 18 50  1  0
 20 51  1  0
 21 52  1  0
 23 53  1  0
 26 54  1  0
 27 55  1  0
M  END
>  <smiles>  (84) 
O=C(NCC(=O)N1CCCCC1C1CCOCC1)c1ccc2cc(Cl)ccc2n1

>  <score_type>  (84) 
oracle

>  <origin>  (84) 
autodockgpu

>  <m_score__min__energy>  (84) 
-8.9700000000000006

>  <m_primary>  (84) 
energy

>  <rmsd>  (84) 
7.306193633377426

>  <m_score__min__rmsd>  (84) 
7.306193633377426

>  <meeko>  (84) 
{"free_energy": -7.76, "intermolecular_energy": -9.25, "internal_energy": -1.78, "cluster_size": 2, "cluster_id": 2, "rank_in_cluster": 1}

>  <energy>  (84) 
-7.75

>  <cluster_rmsd>  (84) 
1.57

>  <cluster>  (84) 
1

$$$$

     RDKit          3D

 55 58  0  0  0  0  0  0  0  0999 V2000
  139.3670   71.9020  220.7120 O   0  0  0  0  0  0  0  0  0  0  0  0
  139.4980   72.3440  221.8900 C   0  0  0  0  0  0  0  0  0  0  0  0
  139.4980   73.7480  222.0880 N   0  0  0  0  0  0  0  0  0  0  0  0
  139.3590   74.7140  221.0290 C   0  0  0  0  0  0  0  0  0  0  0  0
  140.5890   75.5500  220.8730 C   0  0  0  0  0  0  0  0  0  0  0  0
  141.2270   75.7400  221.9410 O   0  0  0  0  0  0  0  0  0  0  0  0
  140.9420   76.0510  219.6090 N   0  0  0  0  0  0  0  0  0  0  0  0
  139.9830   77.0320  219.0240 C   0  0  0  0  0  0  0  0  0  0  0  0
  140.7840   78.2980  218.8020 C   0  0  0  0  0  0  0  0  0  0  0  0
  142.1960   78.1500  219.3230 C   0  0  0  0  0  0  0  0  0  0  0  0
  142.9270   77.0090  218.6890 C   0  0  0  0  0  0  0  0  0  0  0  0
  142.0690   75.7550  218.7950 C   0  0  1  0  0  0  0  0  0  0  0  0
  142.8670   74.5420  219.0260 C   0  0  0  0  0  0  0  0  0  0  0  0
  142.2070   73.2860  219.4390 C   0  0  0  0  0  0  0  0  0  0  0  0
  142.8120   72.7850  220.7860 C   0  0  0  0  0  0  0  0  0  0  0  0
  144.1400   72.5370  220.5290 O   0  0  0  0  0  0  0  0  0  0  0  0
  144.7830   73.7600  220.4790 C   0  0  0  0  0  0  0  0  0  0  0  0
  143.8950   74.8980  220.1210 C   0  0  0  0  0  0  0  0  0  0  0  0
  139.6490   71.4250  223.0330 C   0  0  0  0  0  0  0  0  0  0  0  0
  139.2210   70.1230  222.8910 C   0  0  0  0  0  0  0  0  0  0  0  0
  139.3420   69.2170  223.9320 C   0  0  0  0  0  0  0  0  0  0  0  0
  139.9130   69.7080  225.0980 C   0  0  0  0  0  0  0  0  0  0  0  0
  140.0740   68.8680  226.1930 C   0  0  0  0  0  0  0  0  0  0  0  0
  140.6430   69.3600  227.3510 C   0  0  0  0  0  0  0  0  0  0  0  0
  140.8180   68.2480  228.6890 Cl  0  0  0  0  0  0  0  0  0  0  0  0
  141.0630   70.6720  227.4650 C   0  0  0  0  0  0  0  0  0  0  0  0
  140.8970   71.4870  226.3730 C   0  0  0  0  0  0  0  0  0  0  0  0
  140.3270   71.0190  225.1950 C   0  0  0  0  0  0  0  0  0  0  0  0
  140.1990   71.8830  224.1670 N   0  0  0  0  0  0  0  0  0  0  0  0
  139.6120   74.0610  223.1000 H   0  0  0  0  0  0  0  0  0  0  0  0
  139.1682   74.1822  220.0852 H   0  0  0  0  0  0  0  0  0  0  0  0
  138.5226   75.3816  221.2836 H   0  0  0  0  0  0  0  0  0  0  0  0
  139.5839   76.6573  218.0699 H   0  0  0  0  0  0  0  0  0  0  0  0
  139.1216   77.2049  219.6859 H   0  0  0  0  0  0  0  0  0  0  0  0
  140.8201   78.5154  217.7243 H   0  0  0  0  0  0  0  0  0  0  0  0
  140.2958   79.1193  219.3471 H   0  0  0  0  0  0  0  0  0  0  0  0
  142.7468   79.0795  219.1165 H   0  0  0  0  0  0  0  0  0  0  0  0
  142.1331   77.9466  220.4022 H   0  0  0  0  0  0  0  0  0  0  0  0
  143.1197   77.2364  217.6301 H   0  0  0  0  0  0  0  0  0  0  0  0
  143.8866   76.8491  219.2025 H   0  0  0  0  0  0  0  0  0  0  0  0
  141.6153   75.4558  217.8386 H   0  0  0  0  0  0  0  0  0  0  0  0
  143.2555   74.2949  218.0270 H   0  0  0  0  0  0  0  0  0  0  0  0
  141.1295   73.4658  219.5679 H   0  0  0  0  0  0  0  0  0  0  0  0
  142.3671   72.5217  218.6642 H   0  0  0  0  0  0  0  0  0  0  0  0
  142.7095   73.5569  221.5629 H   0  0  0  0  0  0  0  0  0  0  0  0
  142.2952   71.8861  221.1534 H   0  0  0  0  0  0  0  0  0  0  0  0
  145.2206   73.9610  221.4680 H   0  0  0  0  0  0  0  0  0  0  0  0
  145.5417   73.6876  219.6858 H   0  0  0  0  0  0  0  0  0  0  0  0
  143.3505   75.2145  221.0229 H   0  0  0  0  0  0  0  0  0  0  0  0
  144.5338   75.7002  219.7231 H   0  0  0  0  0  0  0  0  0  0  0  0
  138.7772   69.7986  221.9382 H   0  0  0  0  0  0  0  0  0  0  0  0
  139.0065   68.1735  223.8403 H   0  0  0  0  0  0  0  0  0  0  0  0
  139.7504   67.8181  226.1378 H   0  0  0  0  0  0  0  0  0  0  0  0
  141.5131   71.0486  228.3954 H   0  0  0  0  0  0  0  0  0  0  0  0
  141.2230   72.5359  226.4317 H   0  0  0  0  0  0  0  0  0  0  0  0
  1  2  2  0
  2  3  1  0
  3  4  1  0
  4  5  1  0
  5  6  2  0
  5  7  1  0
  7  8  1  0
  8  9  1  0
  9 10  1  0
 10 11  1  0
 11 12  1  0
 12 13  1  0
 13 14  1  0
 14 15  1  0
 15 16  1  0
 16 17  1  0
 17 18  1  0
  2 19  1  0
 19 20  2  0
 20 21  1  0
 21 22  2  0
 22 23  1  0
 23 24  2  0
 24 25  1  0
 24 26  1  0
 26 27  2  0
 27 28  1  0
 28 29  2  0
 12  7  1  0
 18 13  1  0
 29 19  1  0
 28 22  1  0
  3 30  1  0
  4 31  1  0
  4 32  1  0
  8 33  1  0
  8 34  1  0
  9 35  1  0
  9 36  1  0
 10 37  1  0
 10 38  1  0
 11 39  1  0
 11 40  1  0
 12 41  1  6
 13 42  1  0
 14 43  1  0
 14 44  1  0
 15 45  1  0
 15 46  1  0
 17 47  1  0
 17 48  1  0
 18 49  1  0
 18 50  1  0
 20 51  1  0
 21 52  1  0
 23 53  1  0
 26 54  1  0
 27 55  1  0
M  END
>  <smiles>  (85) 
O=C(NCC(=O)N1CCCCC1C1CCOCC1)c1ccc2cc(Cl)ccc2n1

>  <score_type>  (85) 
oracle

>  <origin>  (85) 
autodockgpu

>  <m_score__min__energy>  (85) 
-8.9700000000000006

>  <m_primary>  (85) 
energy

>  <rmsd>  (85) 
1.8325992087181657

>  <m_score__min__rmsd>  (85) 
1.8325992087181657

>  <meeko>  (85) 
{"free_energy": -7.57, "intermolecular_energy": -9.06, "internal_energy": -2.21, "cluster_size": 43, "cluster_id": 1, "rank_in_cluster": 38}

>  <energy>  (85) 
-7.73

>  <cluster_rmsd>  (85) 
1.72

>  <cluster>  (85) 
1

$$$$

     RDKit          3D

 55 58  0  0  0  0  0  0  0  0999 V2000
  139.0900   71.9140  220.7860 O   0  0  0  0  0  0  0  0  0  0  0  0
  139.2840   72.3650  221.9530 C   0  0  0  0  0  0  0  0  0  0  0  0
  139.2790   73.7690  222.1430 N   0  0  0  0  0  0  0  0  0  0  0  0
  139.0700   74.7280  221.0900 C   0  0  0  0  0  0  0  0  0  0  0  0
  139.7010   76.0470  221.4030 C   0  0  0  0  0  0  0  0  0  0  0  0
  138.9310   76.8710  221.9630 O   0  0  0  0  0  0  0  0  0  0  0  0
  141.0460   76.2800  221.0700 N   0  0  0  0  0  0  0  0  0  0  0  0
  141.8560   75.0550  220.8080 C   0  0  0  0  0  0  0  0  0  0  0  0
  142.3700   75.2060  219.3910 C   0  0  0  0  0  0  0  0  0  0  0  0
  141.8180   76.4540  218.7400 C   0  0  0  0  0  0  0  0  0  0  0  0
  142.1540   77.6980  219.5000 C   0  0  0  0  0  0  0  0  0  0  0  0
  141.7560   77.5060  220.9580 C   0  0  1  0  0  0  0  0  0  0  0  0
  141.2340   78.7370  221.5680 C   0  0  0  0  0  0  0  0  0  0  0  0
  141.7930   80.0510  221.1840 C   0  0  0  0  0  0  0  0  0  0  0  0
  142.3280   80.7910  222.4470 C   0  0  0  0  0  0  0  0  0  0  0  0
  141.2340   80.9820  223.2590 O   0  0  0  0  0  0  0  0  0  0  0  0
  140.9530   79.7680  223.8590 C   0  0  0  0  0  0  0  0  0  0  0  0
  141.4290   78.5870  223.0910 C   0  0  0  0  0  0  0  0  0  0  0  0
  139.5090   71.4540  223.0900 C   0  0  0  0  0  0  0  0  0  0  0  0
  139.1570   70.1280  222.9510 C   0  0  0  0  0  0  0  0  0  0  0  0
  139.3500   69.2290  223.9880 C   0  0  0  0  0  0  0  0  0  0  0  0
  139.9100   69.7510  225.1460 C   0  0  0  0  0  0  0  0  0  0  0  0
  140.1400   68.9200  226.2340 C   0  0  0  0  0  0  0  0  0  0  0  0
  140.6980   69.4430  227.3850 C   0  0  0  0  0  0  0  0  0  0  0  0
  140.9620   68.3400  228.7160 Cl  0  0  0  0  0  0  0  0  0  0  0  0
  141.0410   70.7770  227.4950 C   0  0  0  0  0  0  0  0  0  0  0  0
  140.8080   71.5830  226.4090 C   0  0  0  0  0  0  0  0  0  0  0  0
  140.2470   71.0850  225.2390 C   0  0  0  0  0  0  0  0  0  0  0  0
  140.0490   71.9420  224.2170 N   0  0  0  0  0  0  0  0  0  0  0  0
  139.4470   74.0900  223.1450 H   0  0  0  0  0  0  0  0  0  0  0  0
  139.5080   74.3361  220.1602 H   0  0  0  0  0  0  0  0  0  0  0  0
  137.9866   74.8855  220.9828 H   0  0  0  0  0  0  0  0  0  0  0  0
  142.6949   74.9899  221.5165 H   0  0  0  0  0  0  0  0  0  0  0  0
  141.2611   74.1380  220.9311 H   0  0  0  0  0  0  0  0  0  0  0  0
  143.4681   75.2679  219.4122 H   0  0  0  0  0  0  0  0  0  0  0  0
  142.0422   74.3337  218.8064 H   0  0  0  0  0  0  0  0  0  0  0  0
  142.2369   76.5369  217.7263 H   0  0  0  0  0  0  0  0  0  0  0  0
  140.7220   76.3620  218.7208 H   0  0  0  0  0  0  0  0  0  0  0  0
  143.2350   77.8906  219.4343 H   0  0  0  0  0  0  0  0  0  0  0  0
  141.6103   78.5542  219.0741 H   0  0  0  0  0  0  0  0  0  0  0  0
  142.6155   77.3598  221.6287 H   0  0  0  0  0  0  0  0  0  0  0  0
  140.2015   78.7925  221.1927 H   0  0  0  0  0  0  0  0  0  0  0  0
  142.6181   79.9021  220.4720 H   0  0  0  0  0  0  0  0  0  0  0  0
  141.0030   80.6575  220.7171 H   0  0  0  0  0  0  0  0  0  0  0  0
  143.0834   80.1773  222.9596 H   0  0  0  0  0  0  0  0  0  0  0  0
  142.8099   81.7444  222.1848 H   0  0  0  0  0  0  0  0  0  0  0  0
  141.4325   79.7526  224.8488 H   0  0  0  0  0  0  0  0  0  0  0  0
  139.8574   79.6885  223.9166 H   0  0  0  0  0  0  0  0  0  0  0  0
  142.5007   78.4458  223.2945 H   0  0  0  0  0  0  0  0  0  0  0  0
  140.8310   77.7224  223.4147 H   0  0  0  0  0  0  0  0  0  0  0  0
  138.7174   69.7793  222.0049 H   0  0  0  0  0  0  0  0  0  0  0  0
  139.0763   68.1673  223.8990 H   0  0  0  0  0  0  0  0  0  0  0  0
  139.8799   67.8526  226.1803 H   0  0  0  0  0  0  0  0  0  0  0  0
  141.4842   71.1779  228.4185 H   0  0  0  0  0  0  0  0  0  0  0  0
  141.0717   72.6494  226.4659 H   0  0  0  0  0  0  0  0  0  0  0  0
  1  2  2  0
  2  3  1  0
  3  4  1  0
  4  5  1  0
  5  6  2  0
  5  7  1  0
  7  8  1  0
  8  9  1  0
  9 10  1  0
 10 11  1  0
 11 12  1  0
 12 13  1  0
 13 14  1  0
 14 15  1  0
 15 16  1  0
 16 17  1  0
 17 18  1  0
  2 19  1  0
 19 20  2  0
 20 21  1  0
 21 22  2  0
 22 23  1  0
 23 24  2  0
 24 25  1  0
 24 26  1  0
 26 27  2  0
 27 28  1  0
 28 29  2  0
 12  7  1  0
 18 13  1  0
 29 19  1  0
 28 22  1  0
  3 30  1  0
  4 31  1  0
  4 32  1  0
  8 33  1  0
  8 34  1  0
  9 35  1  0
  9 36  1  0
 10 37  1  0
 10 38  1  0
 11 39  1  0
 11 40  1  0
 12 41  1  1
 13 42  1  0
 14 43  1  0
 14 44  1  0
 15 45  1  0
 15 46  1  0
 17 47  1  0
 17 48  1  0
 18 49  1  0
 18 50  1  0
 20 51  1  0
 21 52  1  0
 23 53  1  0
 26 54  1  0
 27 55  1  0
M  END
>  <smiles>  (86) 
O=C(NCC(=O)N1CCCCC1C1CCOCC1)c1ccc2cc(Cl)ccc2n1

>  <score_type>  (86) 
oracle

>  <origin>  (86) 
autodockgpu

>  <m_score__min__energy>  (86) 
-8.9700000000000006

>  <m_primary>  (86) 
energy

>  <rmsd>  (86) 
1.9363767106999323

>  <m_score__min__rmsd>  (86) 
1.9363767106999323

>  <meeko>  (86) 
{"free_energy": -8.49, "intermolecular_energy": -9.98, "internal_energy": -1.68, "cluster_size": 43, "cluster_id": 1, "rank_in_cluster": 11}

>  <energy>  (86) 
-7.71

>  <cluster_rmsd>  (86) 
1.98

>  <cluster>  (86) 
1

$$$$

     RDKit          3D

 55 58  0  0  0  0  0  0  0  0999 V2000
  139.7190   73.6700  222.3990 O   0  0  0  0  0  0  0  0  0  0  0  0
  139.8150   72.4250  222.1930 C   0  0  0  0  0  0  0  0  0  0  0  0
  139.8390   71.9630  220.8540 N   0  0  0  0  0  0  0  0  0  0  0  0
  139.7600   72.8210  219.7000 C   0  0  0  0  0  0  0  0  0  0  0  0
  141.1140   73.1520  219.1580 C   0  0  0  0  0  0  0  0  0  0  0  0
  141.2070   73.0690  217.9060 O   0  0  0  0  0  0  0  0  0  0  0  0
  142.1520   73.5150  220.0330 N   0  0  0  0  0  0  0  0  0  0  0  0
  142.9820   72.3830  220.5380 C   0  0  0  0  0  0  0  0  0  0  0  0
  144.3980   72.6930  220.0990 C   0  0  0  0  0  0  0  0  0  0  0  0
  144.4460   73.9460  219.2540 C   0  0  0  0  0  0  0  0  0  0  0  0
  143.8980   75.1430  219.9660 C   0  0  0  0  0  0  0  0  0  0  0  0
  142.5230   74.7970  220.5230 C   0  0  1  0  0  0  0  0  0  0  0  0
  141.5860   75.9280  220.4580 C   0  0  0  0  0  0  0  0  0  0  0  0
  142.0470   77.2470  219.9780 C   0  0  0  0  0  0  0  0  0  0  0  0
  141.7830   78.3310  221.0660 C   0  0  0  0  0  0  0  0  0  0  0  0
  140.4190   78.3620  221.2390 O   0  0  0  0  0  0  0  0  0  0  0  0
  140.0760   77.2530  221.9920 C   0  0  0  0  0  0  0  0  0  0  0  0
  141.0420   76.1280  221.8870 C   0  0  0  0  0  0  0  0  0  0  0  0
  139.8990   71.4750  223.3170 C   0  0  0  0  0  0  0  0  0  0  0  0
  139.4730   70.1790  223.1170 C   0  0  0  0  0  0  0  0  0  0  0  0
  139.5330   69.2450  224.1390 C   0  0  0  0  0  0  0  0  0  0  0  0
  140.0420   69.7010  225.3470 C   0  0  0  0  0  0  0  0  0  0  0  0
  140.1400   68.8320  226.4250 C   0  0  0  0  0  0  0  0  0  0  0  0
  140.6480   69.2890  227.6250 C   0  0  0  0  0  0  0  0  0  0  0  0
  140.7450   68.1400  228.9400 Cl  0  0  0  0  0  0  0  0  0  0  0  0
  141.0680   70.5940  227.7970 C   0  0  0  0  0  0  0  0  0  0  0  0
  140.9650   71.4390  226.7200 C   0  0  0  0  0  0  0  0  0  0  0  0
  140.4570   71.0070  225.5010 C   0  0  0  0  0  0  0  0  0  0  0  0
  140.3880   71.8990  224.4910 N   0  0  0  0  0  0  0  0  0  0  0  0
  139.9210   70.9070  220.7420 H   0  0  0  0  0  0  0  0  0  0  0  0
  139.1783   72.3119  218.9174 H   0  0  0  0  0  0  0  0  0  0  0  0
  139.2760   73.7603  220.0058 H   0  0  0  0  0  0  0  0  0  0  0  0
  142.9239   72.3229  221.6348 H   0  0  0  0  0  0  0  0  0  0  0  0
  142.6353   71.4156  220.1455 H   0  0  0  0  0  0  0  0  0  0  0  0
  145.0267   72.8368  220.9901 H   0  0  0  0  0  0  0  0  0  0  0  0
  144.7680   71.8511  219.4954 H   0  0  0  0  0  0  0  0  0  0  0  0
  145.4926   74.1470  218.9815 H   0  0  0  0  0  0  0  0  0  0  0  0
  143.8210   73.7723  218.3656 H   0  0  0  0  0  0  0  0  0  0  0  0
  144.5708   75.4229  220.7900 H   0  0  0  0  0  0  0  0  0  0  0  0
  143.8158   75.9882  219.2668 H   0  0  0  0  0  0  0  0  0  0  0  0
  142.5167   74.6600  221.6144 H   0  0  0  0  0  0  0  0  0  0  0  0
  140.8688   75.6237  219.6814 H   0  0  0  0  0  0  0  0  0  0  0  0
  143.1249   77.2005  219.7638 H   0  0  0  0  0  0  0  0  0  0  0  0
  141.4964   77.5114  219.0631 H   0  0  0  0  0  0  0  0  0  0  0  0
  142.2827   78.0588  222.0074 H   0  0  0  0  0  0  0  0  0  0  0  0
  142.1757   79.3130  220.7636 H   0  0  0  0  0  0  0  0  0  0  0  0
  140.0131   77.5574  223.0472 H   0  0  0  0  0  0  0  0  0  0  0  0
  139.1164   76.8860  221.5989 H   0  0  0  0  0  0  0  0  0  0  0  0
  141.8892   76.3304  222.5588 H   0  0  0  0  0  0  0  0  0  0  0  0
  140.5058   75.2087  222.1650 H   0  0  0  0  0  0  0  0  0  0  0  0
  139.0803   69.8825  222.1332 H   0  0  0  0  0  0  0  0  0  0  0  0
  139.1979   68.2064  224.0013 H   0  0  0  0  0  0  0  0  0  0  0  0
  139.8151   67.7860  226.3240 H   0  0  0  0  0  0  0  0  0  0  0  0
  141.4695   70.9425  228.7600 H   0  0  0  0  0  0  0  0  0  0  0  0
  141.2927   72.4838  226.8246 H   0  0  0  0  0  0  0  0  0  0  0  0
  1  2  2  0
  2  3  1  0
  3  4  1  0
  4  5  1  0
  5  6  2  0
  5  7  1  0
  7  8  1  0
  8  9  1  0
  9 10  1  0
 10 11  1  0
 11 12  1  0
 12 13  1  0
 13 14  1  0
 14 15  1  0
 15 16  1  0
 16 17  1  0
 17 18  1  0
  2 19  1  0
 19 20  2  0
 20 21  1  0
 21 22  2  0
 22 23  1  0
 23 24  2  0
 24 25  1  0
 24 26  1  0
 26 27  2  0
 27 28  1  0
 28 29  2  0
 12  7  1  0
 18 13  1  0
 29 19  1  0
 28 22  1  0
  3 30  1  0
  4 31  1  0
  4 32  1  0
  8 33  1  0
  8 34  1  0
  9 35  1  0
  9 36  1  0
 10 37  1  0
 10 38  1  0
 11 39  1  0
 11 40  1  0
 12 41  1  1
 13 42  1  0
 14 43  1  0
 14 44  1  0
 15 45  1  0
 15 46  1  0
 17 47  1  0
 17 48  1  0
 18 49  1  0
 18 50  1  0
 20 51  1  0
 21 52  1  0
 23 53  1  0
 26 54  1  0
 27 55  1  0
M  END
>  <smiles>  (87) 
O=C(NCC(=O)N1CCCCC1C1CCOCC1)c1ccc2cc(Cl)ccc2n1

>  <score_type>  (87) 
oracle

>  <origin>  (87) 
autodockgpu

>  <m_score__min__energy>  (87) 
-8.9700000000000006

>  <m_primary>  (87) 
energy

>  <rmsd>  (87) 
3.0596791540733634

>  <m_score__min__rmsd>  (87) 
3.0596791540733634

>  <meeko>  (87) 
{"free_energy": -7.71, "intermolecular_energy": -9.2, "internal_energy": -1.71, "cluster_size": 43, "cluster_id": 1, "rank_in_cluster": 36}

>  <energy>  (87) 
-7.66

>  <cluster_rmsd>  (87) 
1.38

>  <cluster>  (87) 
1

$$$$

     RDKit          3D

 55 58  0  0  0  0  0  0  0  0999 V2000
  140.3270   72.1110  220.7460 O   0  0  0  0  0  0  0  0  0  0  0  0
  140.0150   72.4930  221.9120 C   0  0  0  0  0  0  0  0  0  0  0  0
  139.6470   73.8480  222.1020 N   0  0  0  0  0  0  0  0  0  0  0  0
  139.6040   74.8310  221.0500 C   0  0  0  0  0  0  0  0  0  0  0  0
  140.2020   76.1330  221.4800 C   0  0  0  0  0  0  0  0  0  0  0  0
  139.5790   76.7080  222.4100 O   0  0  0  0  0  0  0  0  0  0  0  0
  141.3620   76.6150  220.8510 N   0  0  0  0  0  0  0  0  0  0  0  0
  142.2760   75.5660  220.3140 C   0  0  0  0  0  0  0  0  0  0  0  0
  142.3870   75.8470  218.8300 C   0  0  0  0  0  0  0  0  0  0  0  0
  141.4880   76.9930  218.4220 C   0  0  0  0  0  0  0  0  0  0  0  0
  141.7880   78.2550  219.1670 C   0  0  0  0  0  0  0  0  0  0  0  0
  141.8050   77.9520  220.6600 C   0  0  1  0  0  0  0  0  0  0  0  0
  141.2520   79.0510  221.4660 C   0  0  0  0  0  0  0  0  0  0  0  0
  141.5070   80.4550  221.0820 C   0  0  0  0  0  0  0  0  0  0  0  0
  142.1910   81.2130  222.2600 C   0  0  0  0  0  0  0  0  0  0  0  0
  141.2890   81.1820  223.2970 O   0  0  0  0  0  0  0  0  0  0  0  0
  141.3330   79.9120  223.8410 C   0  0  0  0  0  0  0  0  0  0  0  0
  141.7990   78.8630  222.8960 C   0  0  0  0  0  0  0  0  0  0  0  0
  140.0340   71.5540  223.0480 C   0  0  0  0  0  0  0  0  0  0  0  0
  139.5380   70.2820  222.8580 C   0  0  0  0  0  0  0  0  0  0  0  0
  139.5350   69.3580  223.8920 C   0  0  0  0  0  0  0  0  0  0  0  0
  140.0550   69.8000  225.1000 C   0  0  0  0  0  0  0  0  0  0  0  0
  140.0920   68.9400  226.1900 C   0  0  0  0  0  0  0  0  0  0  0  0
  140.6120   69.3830  227.3910 C   0  0  0  0  0  0  0  0  0  0  0  0
  140.6290   68.2470  228.7200 Cl  0  0  0  0  0  0  0  0  0  0  0  0
  141.1020   70.6650  227.5510 C   0  0  0  0  0  0  0  0  0  0  0  0
  141.0580   71.5010  226.4640 C   0  0  0  0  0  0  0  0  0  0  0  0
  140.5410   71.0830  225.2440 C   0  0  0  0  0  0  0  0  0  0  0  0
  140.5330   71.9640  224.2230 N   0  0  0  0  0  0  0  0  0  0  0  0
  139.3950   74.1120  223.1040 H   0  0  0  0  0  0  0  0  0  0  0  0
  140.1654   74.4503  220.1841 H   0  0  0  0  0  0  0  0  0  0  0  0
  138.5497   75.0084  220.7914 H   0  0  0  0  0  0  0  0  0  0  0  0
  143.2637   75.6348  220.7932 H   0  0  0  0  0  0  0  0  0  0  0  0
  141.8945   74.5531  220.5101 H   0  0  0  0  0  0  0  0  0  0  0  0
  143.4290   76.1055  218.5906 H   0  0  0  0  0  0  0  0  0  0  0  0
  142.0750   74.9466  218.2805 H   0  0  0  0  0  0  0  0  0  0  0  0
  141.6214   77.1792  217.3461 H   0  0  0  0  0  0  0  0  0  0  0  0
  140.4534   76.7047  218.6595 H   0  0  0  0  0  0  0  0  0  0  0  0
  142.7698   78.6426  218.8573 H   0  0  0  0  0  0  0  0  0  0  0  0
  141.0187   79.0101  218.9478 H   0  0  0  0  0  0  0  0  0  0  0  0
  142.8170   77.9441  221.0910 H   0  0  0  0  0  0  0  0  0  0  0  0
  140.1657   78.9536  221.3227 H   0  0  0  0  0  0  0  0  0  0  0  0
  142.1665   80.4781  220.2019 H   0  0  0  0  0  0  0  0  0  0  0  0
  140.5509   80.9441  220.8441 H   0  0  0  0  0  0  0  0  0  0  0  0
  143.1251   80.7092  222.5492 H   0  0  0  0  0  0  0  0  0  0  0  0
  142.4531   82.2443  221.9810 H   0  0  0  0  0  0  0  0  0  0  0  0
  142.0163   79.9288  224.7029 H   0  0  0  0  0  0  0  0  0  0  0  0
  140.3019   79.6510  224.1215 H   0  0  0  0  0  0  0  0  0  0  0  0
  142.8980   78.8902  222.8569 H   0  0  0  0  0  0  0  0  0  0  0  0
  141.4239   77.8976  223.2665 H   0  0  0  0  0  0  0  0  0  0  0  0
  139.1394   69.9962  221.8734 H   0  0  0  0  0  0  0  0  0  0  0  0
  139.1446   68.3378  223.7625 H   0  0  0  0  0  0  0  0  0  0  0  0
  139.7097   67.9127  226.0977 H   0  0  0  0  0  0  0  0  0  0  0  0
  141.5122   71.0028  228.5141 H   0  0  0  0  0  0  0  0  0  0  0  0
  141.4415   72.5274  226.5608 H   0  0  0  0  0  0  0  0  0  0  0  0
  1  2  2  0
  2  3  1  0
  3  4  1  0
  4  5  1  0
  5  6  2  0
  5  7  1  0
  7  8  1  0
  8  9  1  0
  9 10  1  0
 10 11  1  0
 11 12  1  0
 12 13  1  0
 13 14  1  0
 14 15  1  0
 15 16  1  0
 16 17  1  0
 17 18  1  0
  2 19  1  0
 19 20  2  0
 20 21  1  0
 21 22  2  0
 22 23  1  0
 23 24  2  0
 24 25  1  0
 24 26  1  0
 26 27  2  0
 27 28  1  0
 28 29  2  0
 12  7  1  0
 18 13  1  0
 29 19  1  0
 28 22  1  0
  3 30  1  0
  4 31  1  0
  4 32  1  0
  8 33  1  0
  8 34  1  0
  9 35  1  0
  9 36  1  0
 10 37  1  0
 10 38  1  0
 11 39  1  0
 11 40  1  0
 12 41  1  1
 13 42  1  0
 14 43  1  0
 14 44  1  0
 15 45  1  0
 15 46  1  0
 17 47  1  0
 17 48  1  0
 18 49  1  0
 18 50  1  0
 20 51  1  0
 21 52  1  0
 23 53  1  0
 26 54  1  0
 27 55  1  0
M  END
>  <smiles>  (88) 
O=C(NCC(=O)N1CCCCC1C1CCOCC1)c1ccc2cc(Cl)ccc2n1

>  <score_type>  (88) 
oracle

>  <origin>  (88) 
autodockgpu

>  <m_score__min__energy>  (88) 
-8.9700000000000006

>  <m_primary>  (88) 
energy

>  <rmsd>  (88) 
2.0088851738608713

>  <m_score__min__rmsd>  (88) 
2.0088851738608713

>  <meeko>  (88) 
{"free_energy": -8.64, "intermolecular_energy": -10.13, "internal_energy": -1.6, "cluster_size": 43, "cluster_id": 1, "rank_in_cluster": 10}

>  <energy>  (88) 
-7.57

>  <cluster_rmsd>  (88) 
1.52

>  <cluster>  (88) 
1

$$$$

     RDKit          3D

 55 58  0  0  0  0  0  0  0  0999 V2000
  139.4800   72.5500  220.4690 O   0  0  0  0  0  0  0  0  0  0  0  0
  139.9600   72.8670  221.5960 C   0  0  0  0  0  0  0  0  0  0  0  0
  140.5330   74.1540  221.7480 N   0  0  0  0  0  0  0  0  0  0  0  0
  140.6090   75.1350  220.6980 C   0  0  0  0  0  0  0  0  0  0  0  0
  141.3320   76.3690  221.1380 C   0  0  0  0  0  0  0  0  0  0  0  0
  141.3870   76.5190  222.3870 O   0  0  0  0  0  0  0  0  0  0  0  0
  141.8760   77.2440  220.1830 N   0  0  0  0  0  0  0  0  0  0  0  0
  142.6550   76.5890  219.0930 C   0  0  0  0  0  0  0  0  0  0  0  0
  141.9610   76.9840  217.8060 C   0  0  0  0  0  0  0  0  0  0  0  0
  140.7150   77.7940  218.0840 C   0  0  0  0  0  0  0  0  0  0  0  0
  140.9970   79.0350  218.8710 C   0  0  0  0  0  0  0  0  0  0  0  0
  141.8070   78.6620  220.1050 C   0  0  1  0  0  0  0  0  0  0  0  0
  141.4460   79.4640  221.2830 C   0  0  0  0  0  0  0  0  0  0  0  0
  142.2880   79.4230  222.4960 C   0  0  0  0  0  0  0  0  0  0  0  0
  141.4330   78.9850  223.7230 C   0  0  0  0  0  0  0  0  0  0  0  0
  140.4690   79.9550  223.8720 O   0  0  0  0  0  0  0  0  0  0  0  0
  139.5160   79.7390  222.8930 C   0  0  0  0  0  0  0  0  0  0  0  0
  140.0280   79.0180  221.6970 C   0  0  0  0  0  0  0  0  0  0  0  0
  139.9260   71.9220  222.7270 C   0  0  0  0  0  0  0  0  0  0  0  0
  139.2980   70.7070  222.5520 C   0  0  0  0  0  0  0  0  0  0  0  0
  139.2400   69.7810  223.5810 C   0  0  0  0  0  0  0  0  0  0  0  0
  139.8470   70.1590  224.7710 C   0  0  0  0  0  0  0  0  0  0  0  0
  139.8380   69.2920  225.8550 C   0  0  0  0  0  0  0  0  0  0  0  0
  140.4440   69.6710  227.0370 C   0  0  0  0  0  0  0  0  0  0  0  0
  140.3970   68.5300  228.3600 Cl  0  0  0  0  0  0  0  0  0  0  0  0
  141.0670   70.8960  227.1830 C   0  0  0  0  0  0  0  0  0  0  0  0
  141.0670   71.7400  226.1010 C   0  0  0  0  0  0  0  0  0  0  0  0
  140.4650   71.3850  224.9000 C   0  0  0  0  0  0  0  0  0  0  0  0
  140.5080   72.2710  223.8840 N   0  0  0  0  0  0  0  0  0  0  0  0
  140.9210   74.3640  222.7190 H   0  0  0  0  0  0  0  0  0  0  0  0
  141.1415   74.6976  219.8406 H   0  0  0  0  0  0  0  0  0  0  0  0
  139.5828   75.4209  220.4239 H   0  0  0  0  0  0  0  0  0  0  0  0
  143.6949   76.9476  219.0947 H   0  0  0  0  0  0  0  0  0  0  0  0
  142.6925   75.4967  219.2178 H   0  0  0  0  0  0  0  0  0  0  0  0
  142.6512   77.5851  217.1959 H   0  0  0  0  0  0  0  0  0  0  0  0
  141.6693   76.0678  217.2718 H   0  0  0  0  0  0  0  0  0  0  0  0
  140.2607   78.0814  217.1243 H   0  0  0  0  0  0  0  0  0  0  0  0
  140.0379   77.1673  218.6829 H   0  0  0  0  0  0  0  0  0  0  0  0
  141.5697   79.7422  218.2530 H   0  0  0  0  0  0  0  0  0  0  0  0
  140.0510   79.5073  219.1745 H   0  0  0  0  0  0  0  0  0  0  0  0
  142.8633   78.9616  220.0388 H   0  0  0  0  0  0  0  0  0  0  0  0
  141.5703   80.5006  220.9366 H   0  0  0  0  0  0  0  0  0  0  0  0
  143.1068   78.7037  222.3470 H   0  0  0  0  0  0  0  0  0  0  0  0
  142.7014   80.4251  222.6829 H   0  0  0  0  0  0  0  0  0  0  0  0
  140.9665   78.0066  223.5355 H   0  0  0  0  0  0  0  0  0  0  0  0
  142.0477   78.8818  224.6294 H   0  0  0  0  0  0  0  0  0  0  0  0
  138.6992   79.1462  223.3306 H   0  0  0  0  0  0  0  0  0  0  0  0
  139.1841   80.7296  222.5488 H   0  0  0  0  0  0  0  0  0  0  0  0
  140.0509   77.9412  221.9205 H   0  0  0  0  0  0  0  0  0  0  0  0
  139.3533   79.2504  220.8599 H   0  0  0  0  0  0  0  0  0  0  0  0
  138.8367   70.4696  221.5820 H   0  0  0  0  0  0  0  0  0  0  0  0
  138.7437   68.8065  223.4624 H   0  0  0  0  0  0  0  0  0  0  0  0
  139.3512   68.3090  225.7732 H   0  0  0  0  0  0  0  0  0  0  0  0
  141.5450   71.1837  228.1310 H   0  0  0  0  0  0  0  0  0  0  0  0
  141.5556   72.7218  226.1865 H   0  0  0  0  0  0  0  0  0  0  0  0
  1  2  2  0
  2  3  1  0
  3  4  1  0
  4  5  1  0
  5  6  2  0
  5  7  1  0
  7  8  1  0
  8  9  1  0
  9 10  1  0
 10 11  1  0
 11 12  1  0
 12 13  1  0
 13 14  1  0
 14 15  1  0
 15 16  1  0
 16 17  1  0
 17 18  1  0
  2 19  1  0
 19 20  2  0
 20 21  1  0
 21 22  2  0
 22 23  1  0
 23 24  2  0
 24 25  1  0
 24 26  1  0
 26 27  2  0
 27 28  1  0
 28 29  2  0
 12  7  1  0
 18 13  1  0
 29 19  1  0
 28 22  1  0
  3 30  1  0
  4 31  1  0
  4 32  1  0
  8 33  1  0
  8 34  1  0
  9 35  1  0
  9 36  1  0
 10 37  1  0
 10 38  1  0
 11 39  1  0
 11 40  1  0
 12 41  1  6
 13 42  1  0
 14 43  1  0
 14 44  1  0
 15 45  1  0
 15 46  1  0
 17 47  1  0
 17 48  1  0
 18 49  1  0
 18 50  1  0
 20 51  1  0
 21 52  1  0
 23 53  1  0
 26 54  1  0
 27 55  1  0
M  END
>  <smiles>  (89) 
O=C(NCC(=O)N1CCCCC1C1CCOCC1)c1ccc2cc(Cl)ccc2n1

>  <score_type>  (89) 
oracle

>  <origin>  (89) 
autodockgpu

>  <m_score__min__energy>  (89) 
-8.9700000000000006

>  <m_primary>  (89) 
energy

>  <rmsd>  (89) 
2.3625979124200542

>  <m_score__min__rmsd>  (89) 
2.3625979124200542

>  <meeko>  (89) 
{"free_energy": -7.4, "intermolecular_energy": -8.9, "internal_energy": -2.08, "cluster_size": 43, "cluster_id": 1, "rank_in_cluster": 42}

>  <energy>  (89) 
-7.56

>  <cluster_rmsd>  (89) 
1.5

>  <cluster>  (89) 
1

$$$$

     RDKit          3D

 55 58  0  0  0  0  0  0  0  0999 V2000
  136.3850   78.0360  222.6640 O   0  0  0  0  0  0  0  0  0  0  0  0
  136.6250   76.8650  223.0800 C   0  0  0  0  0  0  0  0  0  0  0  0
  137.8530   76.2590  222.7170 N   0  0  0  0  0  0  0  0  0  0  0  0
  138.8550   76.8890  221.8970 C   0  0  0  0  0  0  0  0  0  0  0  0
  140.1040   76.0700  221.8160 C   0  0  0  0  0  0  0  0  0  0  0  0
  140.0090   74.9250  222.3310 O   0  0  0  0  0  0  0  0  0  0  0  0
  141.2530   76.5980  221.2040 N   0  0  0  0  0  0  0  0  0  0  0  0
  142.0010   75.6490  220.3290 C   0  0  0  0  0  0  0  0  0  0  0  0
  142.0170   76.2910  218.9570 C   0  0  0  0  0  0  0  0  0  0  0  0
  141.2160   77.5730  218.9440 C   0  0  0  0  0  0  0  0  0  0  0  0
  141.7110   78.5730  219.9410 C   0  0  0  0  0  0  0  0  0  0  0  0
  141.8200   77.8990  221.3020 C   0  0  1  0  0  0  0  0  0  0  0  0
  141.4570   78.7970  222.4080 C   0  0  0  0  0  0  0  0  0  0  0  0
  140.3590   79.7720  222.2430 C   0  0  0  0  0  0  0  0  0  0  0  0
  140.8840   81.2150  222.5120 C   0  0  0  0  0  0  0  0  0  0  0  0
  141.3040   81.2210  223.8210 O   0  0  0  0  0  0  0  0  0  0  0  0
  142.5220   80.5680  223.8640 C   0  0  0  0  0  0  0  0  0  0  0  0
  142.7280   79.5970  222.7570 C   0  0  0  0  0  0  0  0  0  0  0  0
  135.6530   76.1460  223.9240 C   0  0  0  0  0  0  0  0  0  0  0  0
  134.6760   76.8730  224.5690 C   0  0  0  0  0  0  0  0  0  0  0  0
  133.7360   76.2460  225.3710 C   0  0  0  0  0  0  0  0  0  0  0  0
  133.8500   74.8660  225.4720 C   0  0  0  0  0  0  0  0  0  0  0  0
  132.9490   74.1560  226.2540 C   0  0  0  0  0  0  0  0  0  0  0  0
  133.0650   72.7830  226.3510 C   0  0  0  0  0  0  0  0  0  0  0  0
  131.8950   71.9530  227.3520 Cl  0  0  0  0  0  0  0  0  0  0  0  0
  134.0550   72.0800  225.6930 C   0  0  0  0  0  0  0  0  0  0  0  0
  134.9370   72.7980  224.9240 C   0  0  0  0  0  0  0  0  0  0  0  0
  134.8440   74.1800  224.8080 C   0  0  0  0  0  0  0  0  0  0  0  0
  135.7490   74.8120  224.0330 N   0  0  0  0  0  0  0  0  0  0  0  0
  138.0010   75.2740  223.0960 H   0  0  0  0  0  0  0  0  0  0  0  0
  138.4514   77.0237  220.8826 H   0  0  0  0  0  0  0  0  0  0  0  0
  139.1105   77.8567  222.3534 H   0  0  0  0  0  0  0  0  0  0  0  0
  143.0270   75.5105  220.7007 H   0  0  0  0  0  0  0  0  0  0  0  0
  141.5306   74.6548  220.3091 H   0  0  0  0  0  0  0  0  0  0  0  0
  143.0571   76.5149  218.6777 H   0  0  0  0  0  0  0  0  0  0  0  0
  141.5650   75.5905  218.2394 H   0  0  0  0  0  0  0  0  0  0  0  0
  141.2785   78.0169  217.9395 H   0  0  0  0  0  0  0  0  0  0  0  0
  140.1798   77.3202  219.2131 H   0  0  0  0  0  0  0  0  0  0  0  0
  142.6994   78.9441  219.6324 H   0  0  0  0  0  0  0  0  0  0  0  0
  141.0112   79.4197  219.9990 H   0  0  0  0  0  0  0  0  0  0  0  0
  142.8577   77.6980  221.6065 H   0  0  0  0  0  0  0  0  0  0  0  0
  141.0623   78.1141  223.1747 H   0  0  0  0  0  0  0  0  0  0  0  0
  139.9691   79.7115  221.2162 H   0  0  0  0  0  0  0  0  0  0  0  0
  139.5579   79.5392  222.9600 H   0  0  0  0  0  0  0  0  0  0  0  0
  141.7222   81.4496  221.8394 H   0  0  0  0  0  0  0  0  0  0  0  0
  140.1046   81.9702  222.3326 H   0  0  0  0  0  0  0  0  0  0  0  0
  143.3208   81.3227  223.8150 H   0  0  0  0  0  0  0  0  0  0  0  0
  142.5405   79.9911  224.8004 H   0  0  0  0  0  0  0  0  0  0  0  0
  143.0501   80.1498  221.8622 H   0  0  0  0  0  0  0  0  0  0  0  0
  143.4876   78.8752  223.0917 H   0  0  0  0  0  0  0  0  0  0  0  0
  134.6419   77.9655  224.4455 H   0  0  0  0  0  0  0  0  0  0  0  0
  132.9482   76.8069  225.8952 H   0  0  0  0  0  0  0  0  0  0  0  0
  132.1480   74.6834  226.7928 H   0  0  0  0  0  0  0  0  0  0  0  0
  134.1338   70.9864  225.7817 H   0  0  0  0  0  0  0  0  0  0  0  0
  135.7365   72.2668  224.3867 H   0  0  0  0  0  0  0  0  0  0  0  0
  1  2  2  0
  2  3  1  0
  3  4  1  0
  4  5  1  0
  5  6  2  0
  5  7  1  0
  7  8  1  0
  8  9  1  0
  9 10  1  0
 10 11  1  0
 11 12  1  0
 12 13  1  0
 13 14  1  0
 14 15  1  0
 15 16  1  0
 16 17  1  0
 17 18  1  0
  2 19  1  0
 19 20  2  0
 20 21  1  0
 21 22  2  0
 22 23  1  0
 23 24  2  0
 24 25  1  0
 24 26  1  0
 26 27  2  0
 27 28  1  0
 28 29  2  0
 12  7  1  0
 18 13  1  0
 29 19  1  0
 28 22  1  0
  3 30  1  0
  4 31  1  0
  4 32  1  0
  8 33  1  0
  8 34  1  0
  9 35  1  0
  9 36  1  0
 10 37  1  0
 10 38  1  0
 11 39  1  0
 11 40  1  0
 12 41  1  1
 13 42  1  0
 14 43  1  0
 14 44  1  0
 15 45  1  0
 15 46  1  0
 17 47  1  0
 17 48  1  0
 18 49  1  0
 18 50  1  0
 20 51  1  0
 21 52  1  0
 23 53  1  0
 26 54  1  0
 27 55  1  0
M  END
>  <smiles>  (90) 
O=C(NCC(=O)N1CCCCC1C1CCOCC1)c1ccc2cc(Cl)ccc2n1

>  <score_type>  (90) 
oracle

>  <origin>  (90) 
autodockgpu

>  <m_score__min__energy>  (90) 
-8.9700000000000006

>  <m_primary>  (90) 
energy

>  <rmsd>  (90) 
5.9321104425861915

>  <m_score__min__rmsd>  (90) 
5.9321104425861915

>  <meeko>  (90) 
{"free_energy": -7.22, "intermolecular_energy": -8.71, "internal_energy": -2.16, "cluster_size": 2, "cluster_id": 4, "rank_in_cluster": 2}

>  <energy>  (90) 
-7.51

>  <cluster_rmsd>  (90) 
1.56

>  <cluster>  (90) 
1

$$$$

     RDKit          3D

 55 58  0  0  0  0  0  0  0  0999 V2000
  139.9740   72.3530  220.3530 O   0  0  0  0  0  0  0  0  0  0  0  0
  140.2790   72.7290  221.5220 C   0  0  0  0  0  0  0  0  0  0  0  0
  140.7160   74.0650  221.7080 N   0  0  0  0  0  0  0  0  0  0  0  0
  140.8400   75.0310  220.6480 C   0  0  0  0  0  0  0  0  0  0  0  0
  141.1680   76.3930  221.1720 C   0  0  0  0  0  0  0  0  0  0  0  0
  140.7950   76.5980  222.3560 O   0  0  0  0  0  0  0  0  0  0  0  0
  141.8360   77.3190  220.3530 N   0  0  0  0  0  0  0  0  0  0  0  0
  142.7000   76.7220  219.2930 C   0  0  0  0  0  0  0  0  0  0  0  0
  142.1540   77.2500  217.9820 C   0  0  0  0  0  0  0  0  0  0  0  0
  140.9150   78.0870  218.2040 C   0  0  0  0  0  0  0  0  0  0  0  0
  141.1580   79.2470  219.1170 C   0  0  0  0  0  0  0  0  0  0  0  0
  141.8260   78.7400  220.3890 C   0  0  1  0  0  0  0  0  0  0  0  0
  141.3740   79.4590  221.5890 C   0  0  0  0  0  0  0  0  0  0  0  0
  140.9510   80.8710  221.4930 C   0  0  0  0  0  0  0  0  0  0  0  0
  141.8050   81.7500  222.4570 C   0  0  0  0  0  0  0  0  0  0  0  0
  141.5400   81.2810  223.7230 O   0  0  0  0  0  0  0  0  0  0  0  0
  142.2410   80.0990  223.8760 C   0  0  0  0  0  0  0  0  0  0  0  0
  142.5400   79.4000  222.5980 C   0  0  0  0  0  0  0  0  0  0  0  0
  140.1840   71.8040  222.6660 C   0  0  0  0  0  0  0  0  0  0  0  0
  139.5830   70.5790  222.4730 C   0  0  0  0  0  0  0  0  0  0  0  0
  139.4690   69.6710  223.5130 C   0  0  0  0  0  0  0  0  0  0  0  0
  139.9940   70.0780  224.7320 C   0  0  0  0  0  0  0  0  0  0  0  0
  139.9250   69.2300  225.8290 C   0  0  0  0  0  0  0  0  0  0  0  0
  140.4500   69.6380  227.0400 C   0  0  0  0  0  0  0  0  0  0  0  0
  140.3310   68.5190  228.3790 Cl  0  0  0  0  0  0  0  0  0  0  0  0
  141.0470   70.8730  227.2040 C   0  0  0  0  0  0  0  0  0  0  0  0
  141.1070   71.6980  226.1090 C   0  0  0  0  0  0  0  0  0  0  0  0
  140.5880   71.3140  224.8780 C   0  0  0  0  0  0  0  0  0  0  0  0
  140.6860   72.1820  223.8510 N   0  0  0  0  0  0  0  0  0  0  0  0
  140.9590   74.3240  222.7130 H   0  0  0  0  0  0  0  0  0  0  0  0
  141.6408   74.7098  219.9657 H   0  0  0  0  0  0  0  0  0  0  0  0
  139.8741   75.0898  220.1249 H   0  0  0  0  0  0  0  0  0  0  0  0
  143.7459   77.0349  219.4279 H   0  0  0  0  0  0  0  0  0  0  0  0
  142.6878   75.6226  219.3273 H   0  0  0  0  0  0  0  0  0  0  0  0
  142.9229   77.8688  217.4962 H   0  0  0  0  0  0  0  0  0  0  0  0
  141.8867   76.3936  217.3456 H   0  0  0  0  0  0  0  0  0  0  0  0
  140.5703   78.4702  217.2322 H   0  0  0  0  0  0  0  0  0  0  0  0
  140.1597   77.4432  218.6784 H   0  0  0  0  0  0  0  0  0  0  0  0
  141.8144   79.9769  218.6206 H   0  0  0  0  0  0  0  0  0  0  0  0
  140.2031   79.7335  219.3650 H   0  0  0  0  0  0  0  0  0  0  0  0
  142.8937   78.9969  220.4525 H   0  0  0  0  0  0  0  0  0  0  0  0
  140.4410   78.9442  221.8621 H   0  0  0  0  0  0  0  0  0  0  0  0
  141.0892   81.2233  220.4601 H   0  0  0  0  0  0  0  0  0  0  0  0
  139.8909   80.9505  221.7755 H   0  0  0  0  0  0  0  0  0  0  0  0
  142.8751   81.6445  222.2253 H   0  0  0  0  0  0  0  0  0  0  0  0
  141.5569   82.8172  222.3597 H   0  0  0  0  0  0  0  0  0  0  0  0
  143.1938   80.3250  224.3771 H   0  0  0  0  0  0  0  0  0  0  0  0
  141.6009   79.4247  224.4638 H   0  0  0  0  0  0  0  0  0  0  0  0
  143.4232   79.8696  222.1404 H   0  0  0  0  0  0  0  0  0  0  0  0
  142.7143   78.3404  222.8365 H   0  0  0  0  0  0  0  0  0  0  0  0
  139.1885   70.3187  221.4797 H   0  0  0  0  0  0  0  0  0  0  0  0
  138.9921   68.6886  223.3811 H   0  0  0  0  0  0  0  0  0  0  0  0
  139.4554   68.2398  225.7346 H   0  0  0  0  0  0  0  0  0  0  0  0
  141.4587   71.1834  228.1757 H   0  0  0  0  0  0  0  0  0  0  0  0
  141.5773   72.6874  226.2079 H   0  0  0  0  0  0  0  0  0  0  0  0
  1  2  2  0
  2  3  1  0
  3  4  1  0
  4  5  1  0
  5  6  2  0
  5  7  1  0
  7  8  1  0
  8  9  1  0
  9 10  1  0
 10 11  1  0
 11 12  1  0
 12 13  1  0
 13 14  1  0
 14 15  1  0
 15 16  1  0
 16 17  1  0
 17 18  1  0
  2 19  1  0
 19 20  2  0
 20 21  1  0
 21 22  2  0
 22 23  1  0
 23 24  2  0
 24 25  1  0
 24 26  1  0
 26 27  2  0
 27 28  1  0
 28 29  2  0
 12  7  1  0
 18 13  1  0
 29 19  1  0
 28 22  1  0
  3 30  1  0
  4 31  1  0
  4 32  1  0
  8 33  1  0
  8 34  1  0
  9 35  1  0
  9 36  1  0
 10 37  1  0
 10 38  1  0
 11 39  1  0
 11 40  1  0
 12 41  1  6
 13 42  1  0
 14 43  1  0
 14 44  1  0
 15 45  1  0
 15 46  1  0
 17 47  1  0
 17 48  1  0
 18 49  1  0
 18 50  1  0
 20 51  1  0
 21 52  1  0
 23 53  1  0
 26 54  1  0
 27 55  1  0
M  END
>  <smiles>  (91) 
O=C(NCC(=O)N1CCCCC1C1CCOCC1)c1ccc2cc(Cl)ccc2n1

>  <score_type>  (91) 
oracle

>  <origin>  (91) 
autodockgpu

>  <m_score__min__energy>  (91) 
-8.9700000000000006

>  <m_primary>  (91) 
energy

>  <rmsd>  (91) 
2.469745598059787

>  <m_score__min__rmsd>  (91) 
2.469745598059787

>  <meeko>  (91) 
{"free_energy": -7.92, "intermolecular_energy": -9.41, "internal_energy": -2.03, "cluster_size": 43, "cluster_id": 1, "rank_in_cluster": 20}

>  <energy>  (91) 
-7.45

>  <cluster_rmsd>  (91) 
1.59

>  <cluster>  (91) 
1

$$$$

     RDKit          3D

 55 58  0  0  0  0  0  0  0  0999 V2000
  139.4040   71.7800  220.9400 O   0  0  0  0  0  0  0  0  0  0  0  0
  139.5220   72.2200  222.1210 C   0  0  0  0  0  0  0  0  0  0  0  0
  139.4660   73.6200  222.3290 N   0  0  0  0  0  0  0  0  0  0  0  0
  139.2840   74.5870  221.2780 C   0  0  0  0  0  0  0  0  0  0  0  0
  140.4200   75.5580  221.2100 C   0  0  0  0  0  0  0  0  0  0  0  0
  140.6630   76.1500  222.2940 O   0  0  0  0  0  0  0  0  0  0  0  0
  141.1140   75.7440  220.0030 N   0  0  0  0  0  0  0  0  0  0  0  0
  140.3140   76.3450  218.8960 C   0  0  0  0  0  0  0  0  0  0  0  0
  141.0390   77.6190  218.5190 C   0  0  0  0  0  0  0  0  0  0  0  0
  142.2210   77.8660  219.4290 C   0  0  0  0  0  0  0  0  0  0  0  0
  143.2040   76.7390  219.4170 C   0  0  0  0  0  0  0  0  0  0  0  0
  142.4610   75.4340  219.6700 C   0  0  1  0  0  0  0  0  0  0  0  0
  143.2390   74.4890  220.4840 C   0  0  0  0  0  0  0  0  0  0  0  0
  144.7160   74.5390  220.4700 C   0  0  0  0  0  0  0  0  0  0  0  0
  145.2910   73.1560  220.0380 C   0  0  0  0  0  0  0  0  0  0  0  0
  144.8750   72.2620  220.9970 O   0  0  0  0  0  0  0  0  0  0  0  0
  143.5400   71.9940  220.7560 C   0  0  0  0  0  0  0  0  0  0  0  0
  142.8270   73.0750  220.0260 C   0  0  0  0  0  0  0  0  0  0  0  0
  139.7150   71.2990  223.2570 C   0  0  0  0  0  0  0  0  0  0  0  0
  139.3750   69.9730  223.0940 C   0  0  0  0  0  0  0  0  0  0  0  0
  139.5380   69.0660  224.1290 C   0  0  0  0  0  0  0  0  0  0  0  0
  140.0570   69.5800  225.3090 C   0  0  0  0  0  0  0  0  0  0  0  0
  140.2550   68.7400  226.3970 C   0  0  0  0  0  0  0  0  0  0  0  0
  140.7730   69.2550  227.5700 C   0  0  0  0  0  0  0  0  0  0  0  0
  140.9980   68.1420  228.8990 Cl  0  0  0  0  0  0  0  0  0  0  0  0
  141.1040   70.5900  227.7040 C   0  0  0  0  0  0  0  0  0  0  0  0
  140.9030   71.4050  226.6180 C   0  0  0  0  0  0  0  0  0  0  0  0
  140.3840   70.9140  225.4260 C   0  0  0  0  0  0  0  0  0  0  0  0
  140.2150   71.7790  224.4050 N   0  0  0  0  0  0  0  0  0  0  0  0
  139.5720   73.9310  223.3420 H   0  0  0  0  0  0  0  0  0  0  0  0
  139.2107   74.0576  220.3166 H   0  0  0  0  0  0  0  0  0  0  0  0
  138.3647   75.1524  221.4907 H   0  0  0  0  0  0  0  0  0  0  0  0
  140.2700   75.6591  218.0371 H   0  0  0  0  0  0  0  0  0  0  0  0
  139.2760   76.5415  219.2025 H   0  0  0  0  0  0  0  0  0  0  0  0
  141.3961   77.5350  217.4820 H   0  0  0  0  0  0  0  0  0  0  0  0
  140.3389   78.4612  218.6215 H   0  0  0  0  0  0  0  0  0  0  0  0
  142.7326   78.7827  219.1004 H   0  0  0  0  0  0  0  0  0  0  0  0
  141.8362   77.9604  220.4552 H   0  0  0  0  0  0  0  0  0  0  0  0
  143.7040   76.6955  218.4382 H   0  0  0  0  0  0  0  0  0  0  0  0
  143.9601   76.8954  220.2005 H   0  0  0  0  0  0  0  0  0  0  0  0
  142.3601   74.8089  218.7705 H   0  0  0  0  0  0  0  0  0  0  0  0
  142.9952   74.7774  221.5171 H   0  0  0  0  0  0  0  0  0  0  0  0
  145.0479   75.3099  219.7590 H   0  0  0  0  0  0  0  0  0  0  0  0
  145.0791   74.7822  221.4795 H   0  0  0  0  0  0  0  0  0  0  0  0
  144.8989   72.8693  219.0510 H   0  0  0  0  0  0  0  0  0  0  0  0
  146.3876   73.1809  219.9557 H   0  0  0  0  0  0  0  0  0  0  0  0
  143.4748   71.0725  220.1589 H   0  0  0  0  0  0  0  0  0  0  0  0
  143.0529   71.8989  221.7377 H   0  0  0  0  0  0  0  0  0  0  0  0
  143.0472   72.9767  218.9528 H   0  0  0  0  0  0  0  0  0  0  0  0
  141.7538   72.9614  220.2387 H   0  0  0  0  0  0  0  0  0  0  0  0
  138.9693   69.6307  222.1305 H   0  0  0  0  0  0  0  0  0  0  0  0
  139.2723   68.0040  224.0218 H   0  0  0  0  0  0  0  0  0  0  0  0
  140.0013   67.6721  226.3255 H   0  0  0  0  0  0  0  0  0  0  0  0
  141.5132   70.9847  228.6457 H   0  0  0  0  0  0  0  0  0  0  0  0
  141.1588   72.4722  226.6930 H   0  0  0  0  0  0  0  0  0  0  0  0
  1  2  2  0
  2  3  1  0
  3  4  1  0
  4  5  1  0
  5  6  2  0
  5  7  1  0
  7  8  1  0
  8  9  1  0
  9 10  1  0
 10 11  1  0
 11 12  1  0
 12 13  1  0
 13 14  1  0
 14 15  1  0
 15 16  1  0
 16 17  1  0
 17 18  1  0
  2 19  1  0
 19 20  2  0
 20 21  1  0
 21 22  2  0
 22 23  1  0
 23 24  2  0
 24 25  1  0
 24 26  1  0
 26 27  2  0
 27 28  1  0
 28 29  2  0
 12  7  1  0
 18 13  1  0
 29 19  1  0
 28 22  1  0
  3 30  1  0
  4 31  1  0
  4 32  1  0
  8 33  1  0
  8 34  1  0
  9 35  1  0
  9 36  1  0
 10 37  1  0
 10 38  1  0
 11 39  1  0
 11 40  1  0
 12 41  1  6
 13 42  1  0
 14 43  1  0
 14 44  1  0
 15 45  1  0
 15 46  1  0
 17 47  1  0
 17 48  1  0
 18 49  1  0
 18 50  1  0
 20 51  1  0
 21 52  1  0
 23 53  1  0
 26 54  1  0
 27 55  1  0
M  END
>  <smiles>  (92) 
O=C(NCC(=O)N1CCCCC1C1CCOCC1)c1ccc2cc(Cl)ccc2n1

>  <score_type>  (92) 
oracle

>  <origin>  (92) 
autodockgpu

>  <m_score__min__energy>  (92) 
-8.9700000000000006

>  <m_primary>  (92) 
energy

>  <rmsd>  (92) 
1.7421631945077842

>  <m_score__min__rmsd>  (92) 
1.7421631945077842

>  <meeko>  (92) 
{"free_energy": -7.92, "intermolecular_energy": -9.41, "internal_energy": -2.05, "cluster_size": 43, "cluster_id": 1, "rank_in_cluster": 22}

>  <energy>  (92) 
-7.4

>  <cluster_rmsd>  (92) 
1.04

>  <cluster>  (92) 
1

$$$$

     RDKit          3D

 55 58  0  0  0  0  0  0  0  0999 V2000
  140.1430   72.4210  220.7190 O   0  0  0  0  0  0  0  0  0  0  0  0
  139.9520   72.8080  221.9090 C   0  0  0  0  0  0  0  0  0  0  0  0
  139.6970   74.1830  222.1380 N   0  0  0  0  0  0  0  0  0  0  0  0
  139.6420   75.1800  221.1010 C   0  0  0  0  0  0  0  0  0  0  0  0
  140.1500   76.5050  221.5750 C   0  0  0  0  0  0  0  0  0  0  0  0
  139.5210   76.9820  222.5550 O   0  0  0  0  0  0  0  0  0  0  0  0
  141.2420   77.1100  220.9290 N   0  0  0  0  0  0  0  0  0  0  0  0
  141.8640   76.3020  219.8410 C   0  0  0  0  0  0  0  0  0  0  0  0
  141.7520   77.1520  218.5920 C   0  0  0  0  0  0  0  0  0  0  0  0
  140.9910   78.4290  218.8670 C   0  0  0  0  0  0  0  0  0  0  0  0
  141.6190   79.2530  219.9460 C   0  0  0  0  0  0  0  0  0  0  0  0
  141.8530   78.3710  221.1660 C   0  0  1  0  0  0  0  0  0  0  0  0
  141.6370   79.0870  222.4310 C   0  0  0  0  0  0  0  0  0  0  0  0
  140.5210   80.0470  222.5600 C   0  0  0  0  0  0  0  0  0  0  0  0
  141.0690   81.4480  222.9690 C   0  0  0  0  0  0  0  0  0  0  0  0
  141.6620   81.2730  224.1970 O   0  0  0  0  0  0  0  0  0  0  0  0
  142.8780   80.6520  223.9810 C   0  0  0  0  0  0  0  0  0  0  0  0
  142.9400   79.8610  222.7240 C   0  0  0  0  0  0  0  0  0  0  0  0
  139.9930   71.8540  223.0320 C   0  0  0  0  0  0  0  0  0  0  0  0
  139.5320   70.5720  222.8240 C   0  0  0  0  0  0  0  0  0  0  0  0
  139.5510   69.6350  223.8450 C   0  0  0  0  0  0  0  0  0  0  0  0
  140.0560   70.0740  225.0610 C   0  0  0  0  0  0  0  0  0  0  0  0
  140.1140   69.2010  226.1380 C   0  0  0  0  0  0  0  0  0  0  0  0
  140.6180   69.6410  227.3470 C   0  0  0  0  0  0  0  0  0  0  0  0
  140.6630   68.4890  228.6610 Cl  0  0  0  0  0  0  0  0  0  0  0  0
  141.0730   70.9340  227.5260 C   0  0  0  0  0  0  0  0  0  0  0  0
  141.0100   71.7830  226.4500 C   0  0  0  0  0  0  0  0  0  0  0  0
  140.5070   71.3670  225.2230 C   0  0  0  0  0  0  0  0  0  0  0  0
  140.4780   72.2620  224.2140 N   0  0  0  0  0  0  0  0  0  0  0  0
  139.5440   74.4490  223.1590 H   0  0  0  0  0  0  0  0  0  0  0  0
  140.2575   74.8456  220.2529 H   0  0  0  0  0  0  0  0  0  0  0  0
  138.5906   75.3044  220.8025 H   0  0  0  0  0  0  0  0  0  0  0  0
  142.9193   76.0944  220.0715 H   0  0  0  0  0  0  0  0  0  0  0  0
  141.3655   75.3291  219.7189 H   0  0  0  0  0  0  0  0  0  0  0  0
  142.7624   77.4053  218.2384 H   0  0  0  0  0  0  0  0  0  0  0  0
  141.2065   76.5787  217.8279 H   0  0  0  0  0  0  0  0  0  0  0  0
  140.9577   79.0250  217.9431 H   0  0  0  0  0  0  0  0  0  0  0  0
  139.9828   78.1490  219.2063 H   0  0  0  0  0  0  0  0  0  0  0  0
  142.5793   79.6558  219.5917 H   0  0  0  0  0  0  0  0  0  0  0  0
  140.9549   80.0887  220.2116 H   0  0  0  0  0  0  0  0  0  0  0  0
  142.9108   78.1120  221.3206 H   0  0  0  0  0  0  0  0  0  0  0  0
  141.3534   78.2889  223.1328 H   0  0  0  0  0  0  0  0  0  0  0  0
  139.9965   80.1278  221.5965 H   0  0  0  0  0  0  0  0  0  0  0  0
  139.8253   79.6908  223.3340 H   0  0  0  0  0  0  0  0  0  0  0  0
  141.8072   81.8004  222.2336 H   0  0  0  0  0  0  0  0  0  0  0  0
  140.2679   82.2007  223.0092 H   0  0  0  0  0  0  0  0  0  0  0  0
  143.6589   81.4257  223.9413 H   0  0  0  0  0  0  0  0  0  0  0  0
  143.0242   79.9434  224.8096 H   0  0  0  0  0  0  0  0  0  0  0  0
  143.1349   80.5480  221.8873 H   0  0  0  0  0  0  0  0  0  0  0  0
  143.7430   79.1186  222.8428 H   0  0  0  0  0  0  0  0  0  0  0  0
  139.1438   70.2887  221.8345 H   0  0  0  0  0  0  0  0  0  0  0  0
  139.1882   68.6067  223.7005 H   0  0  0  0  0  0  0  0  0  0  0  0
  139.7609   68.1648  226.0300 H   0  0  0  0  0  0  0  0  0  0  0  0
  141.4708   71.2697  228.4950 H   0  0  0  0  0  0  0  0  0  0  0  0
  141.3662   72.8178  226.5612 H   0  0  0  0  0  0  0  0  0  0  0  0
  1  2  2  0
  2  3  1  0
  3  4  1  0
  4  5  1  0
  5  6  2  0
  5  7  1  0
  7  8  1  0
  8  9  1  0
  9 10  1  0
 10 11  1  0
 11 12  1  0
 12 13  1  0
 13 14  1  0
 14 15  1  0
 15 16  1  0
 16 17  1  0
 17 18  1  0
  2 19  1  0
 19 20  2  0
 20 21  1  0
 21 22  2  0
 22 23  1  0
 23 24  2  0
 24 25  1  0
 24 26  1  0
 26 27  2  0
 27 28  1  0
 28 29  2  0
 12  7  1  0
 18 13  1  0
 29 19  1  0
 28 22  1  0
  3 30  1  0
  4 31  1  0
  4 32  1  0
  8 33  1  0
  8 34  1  0
  9 35  1  0
  9 36  1  0
 10 37  1  0
 10 38  1  0
 11 39  1  0
 11 40  1  0
 12 41  1  1
 13 42  1  0
 14 43  1  0
 14 44  1  0
 15 45  1  0
 15 46  1  0
 17 47  1  0
 17 48  1  0
 18 49  1  0
 18 50  1  0
 20 51  1  0
 21 52  1  0
 23 53  1  0
 26 54  1  0
 27 55  1  0
M  END
>  <smiles>  (93) 
O=C(NCC(=O)N1CCCCC1C1CCOCC1)c1ccc2cc(Cl)ccc2n1

>  <score_type>  (93) 
oracle

>  <origin>  (93) 
autodockgpu

>  <m_score__min__energy>  (93) 
-8.9700000000000006

>  <m_primary>  (93) 
energy

>  <rmsd>  (93) 
2.2127512545651715

>  <m_score__min__rmsd>  (93) 
2.2127512545651715

>  <meeko>  (93) 
{"free_energy": -8.89, "intermolecular_energy": -10.38, "internal_energy": -1.64, "cluster_size": 43, "cluster_id": 1, "rank_in_cluster": 5}

>  <energy>  (93) 
-7.39

>  <cluster_rmsd>  (93) 
1.58

>  <cluster>  (93) 
1

$$$$

     RDKit          3D

 55 58  0  0  0  0  0  0  0  0999 V2000
  140.5080   72.3310  220.7360 O   0  0  0  0  0  0  0  0  0  0  0  0
  140.1660   72.7180  221.8910 C   0  0  0  0  0  0  0  0  0  0  0  0
  139.8360   74.0840  222.0750 N   0  0  0  0  0  0  0  0  0  0  0  0
  139.8650   75.0710  221.0270 C   0  0  0  0  0  0  0  0  0  0  0  0
  140.3130   76.4060  221.5310 C   0  0  0  0  0  0  0  0  0  0  0  0
  139.6990   76.8080  222.5540 O   0  0  0  0  0  0  0  0  0  0  0  0
  141.3390   77.1000  220.8670 N   0  0  0  0  0  0  0  0  0  0  0  0
  141.9760   76.3640  219.7370 C   0  0  0  0  0  0  0  0  0  0  0  0
  141.7640   77.2360  218.5170 C   0  0  0  0  0  0  0  0  0  0  0  0
  140.9290   78.4510  218.8520 C   0  0  0  0  0  0  0  0  0  0  0  0
  141.5370   79.2890  219.9320 C   0  0  0  0  0  0  0  0  0  0  0  0
  141.8720   78.3940  221.1180 C   0  0  1  0  0  0  0  0  0  0  0  0
  141.6520   79.0620  222.4090 C   0  0  0  0  0  0  0  0  0  0  0  0
  140.4100   79.8260  222.6480 C   0  0  0  0  0  0  0  0  0  0  0  0
  140.7560   81.2970  223.0330 C   0  0  0  0  0  0  0  0  0  0  0  0
  141.4730   81.2170  224.2040 O   0  0  0  0  0  0  0  0  0  0  0  0
  142.7510   80.8050  223.8750 C   0  0  0  0  0  0  0  0  0  0  0  0
  142.8310   80.0370  222.6040 C   0  0  0  0  0  0  0  0  0  0  0  0
  140.1120   71.7740  223.0230 C   0  0  0  0  0  0  0  0  0  0  0  0
  139.5510   70.5320  222.8170 C   0  0  0  0  0  0  0  0  0  0  0  0
  139.4770   69.6060  223.8450 C   0  0  0  0  0  0  0  0  0  0  0  0
  139.9980   70.0140  225.0660 C   0  0  0  0  0  0  0  0  0  0  0  0
  139.9670   69.1490  226.1510 C   0  0  0  0  0  0  0  0  0  0  0  0
  140.4860   69.5580  227.3640 C   0  0  0  0  0  0  0  0  0  0  0  0
  140.4160   68.4170  228.6880 Cl  0  0  0  0  0  0  0  0  0  0  0  0
  141.0420   70.8100  227.5410 C   0  0  0  0  0  0  0  0  0  0  0  0
  141.0650   71.6520  226.4570 C   0  0  0  0  0  0  0  0  0  0  0  0
  140.5500   71.2670  225.2250 C   0  0  0  0  0  0  0  0  0  0  0  0
  140.6100   72.1520  224.2090 N   0  0  0  0  0  0  0  0  0  0  0  0
  139.5560   74.3520  223.0670 H   0  0  0  0  0  0  0  0  0  0  0  0
  140.5589   74.7360  220.2420 H   0  0  0  0  0  0  0  0  0  0  0  0
  138.8438   75.1803  220.6330 H   0  0  0  0  0  0  0  0  0  0  0  0
  143.0502   76.2228  219.9269 H   0  0  0  0  0  0  0  0  0  0  0  0
  141.5402   75.3628  219.6043 H   0  0  0  0  0  0  0  0  0  0  0  0
  142.7423   77.5664  218.1377 H   0  0  0  0  0  0  0  0  0  0  0  0
  141.2318   76.6467  217.7558 H   0  0  0  0  0  0  0  0  0  0  0  0
  140.8236   79.0663  217.9463 H   0  0  0  0  0  0  0  0  0  0  0  0
  139.9545   78.0943  219.2169 H   0  0  0  0  0  0  0  0  0  0  0  0
  142.4550   79.7655  219.5576 H   0  0  0  0  0  0  0  0  0  0  0  0
  140.8280   80.0707  220.2423 H   0  0  0  0  0  0  0  0  0  0  0  0
  142.9495   78.2031  221.2295 H   0  0  0  0  0  0  0  0  0  0  0  0
  141.5635   78.2262  223.1186 H   0  0  0  0  0  0  0  0  0  0  0  0
  139.7984   79.8227  221.7337 H   0  0  0  0  0  0  0  0  0  0  0  0
  139.8508   79.3585  223.4719 H   0  0  0  0  0  0  0  0  0  0  0  0
  141.3613   81.7676  222.2442 H   0  0  0  0  0  0  0  0  0  0  0  0
  139.8498   81.9088  223.1531 H   0  0  0  0  0  0  0  0  0  0  0  0
  143.3883   81.6966  223.7810 H   0  0  0  0  0  0  0  0  0  0  0  0
  143.0835   80.1290  224.6766 H   0  0  0  0  0  0  0  0  0  0  0  0
  142.8388   80.7486  221.7652 H   0  0  0  0  0  0  0  0  0  0  0  0
  143.7507   79.4348  222.6429 H   0  0  0  0  0  0  0  0  0  0  0  0
  139.1568   70.2725  221.8234 H   0  0  0  0  0  0  0  0  0  0  0  0
  139.0332   68.6096  223.7029 H   0  0  0  0  0  0  0  0  0  0  0  0
  139.5319   68.1442  226.0456 H   0  0  0  0  0  0  0  0  0  0  0  0
  141.4509   71.1206  228.5138 H   0  0  0  0  0  0  0  0  0  0  0  0
  141.5016   72.6557  226.5662 H   0  0  0  0  0  0  0  0  0  0  0  0
  1  2  2  0
  2  3  1  0
  3  4  1  0
  4  5  1  0
  5  6  2  0
  5  7  1  0
  7  8  1  0
  8  9  1  0
  9 10  1  0
 10 11  1  0
 11 12  1  0
 12 13  1  0
 13 14  1  0
 14 15  1  0
 15 16  1  0
 16 17  1  0
 17 18  1  0
  2 19  1  0
 19 20  2  0
 20 21  1  0
 21 22  2  0
 22 23  1  0
 23 24  2  0
 24 25  1  0
 24 26  1  0
 26 27  2  0
 27 28  1  0
 28 29  2  0
 12  7  1  0
 18 13  1  0
 29 19  1  0
 28 22  1  0
  3 30  1  0
  4 31  1  0
  4 32  1  0
  8 33  1  0
  8 34  1  0
  9 35  1  0
  9 36  1  0
 10 37  1  0
 10 38  1  0
 11 39  1  0
 11 40  1  0
 12 41  1  6
 13 42  1  0
 14 43  1  0
 14 44  1  0
 15 45  1  0
 15 46  1  0
 17 47  1  0
 17 48  1  0
 18 49  1  0
 18 50  1  0
 20 51  1  0
 21 52  1  0
 23 53  1  0
 26 54  1  0
 27 55  1  0
M  END
>  <smiles>  (94) 
O=C(NCC(=O)N1CCCCC1C1CCOCC1)c1ccc2cc(Cl)ccc2n1

>  <score_type>  (94) 
oracle

>  <origin>  (94) 
autodockgpu

>  <m_score__min__energy>  (94) 
-8.9700000000000006

>  <m_primary>  (94) 
energy

>  <rmsd>  (94) 
2.230382639387209

>  <m_score__min__rmsd>  (94) 
2.230382639387209

>  <meeko>  (94) 
{"free_energy": -8.83, "intermolecular_energy": -10.32, "internal_energy": -1.64, "cluster_size": 43, "cluster_id": 1, "rank_in_cluster": 6}

>  <energy>  (94) 
-7.76

>  <cluster_rmsd>  (94) 
0.0

>  <cluster>  (94) 
2

$$$$

     RDKit          3D

 55 58  0  0  0  0  0  0  0  0999 V2000
  139.6640   72.1200  220.6760 O   0  0  0  0  0  0  0  0  0  0  0  0
  139.6210   72.5450  221.8680 C   0  0  0  0  0  0  0  0  0  0  0  0
  139.4290   73.9320  222.0830 N   0  0  0  0  0  0  0  0  0  0  0  0
  139.2810   74.9020  221.0290 C   0  0  0  0  0  0  0  0  0  0  0  0
  140.3420   74.7560  219.9850 C   0  0  0  0  0  0  0  0  0  0  0  0
  139.9370   74.2640  218.8990 O   0  0  0  0  0  0  0  0  0  0  0  0
  141.6600   75.1530  220.2620 N   0  0  0  0  0  0  0  0  0  0  0  0
  142.6480   74.0410  220.3800 C   0  0  0  0  0  0  0  0  0  0  0  0
  143.6950   74.3170  219.3210 C   0  0  0  0  0  0  0  0  0  0  0  0
  143.3280   75.5260  218.4910 C   0  0  0  0  0  0  0  0  0  0  0  0
  143.1520   76.7610  219.3170 C   0  0  0  0  0  0  0  0  0  0  0  0
  142.1950   76.4550  220.4630 C   0  0  1  0  0  0  0  0  0  0  0  0
  141.3170   77.5890  220.7840 C   0  0  0  0  0  0  0  0  0  0  0  0
  141.7340   78.9680  220.4550 C   0  0  0  0  0  0  0  0  0  0  0  0
  141.7400   79.8440  221.7440 C   0  0  0  0  0  0  0  0  0  0  0  0
  140.4400   79.8570  222.1920 O   0  0  0  0  0  0  0  0  0  0  0  0
  140.2020   78.6370  222.7970 C   0  0  0  0  0  0  0  0  0  0  0  0
  141.0750   77.5380  222.3070 C   0  0  0  0  0  0  0  0  0  0  0  0
  139.7660   71.6210  223.0070 C   0  0  0  0  0  0  0  0  0  0  0  0
  139.3900   70.3050  222.8400 C   0  0  0  0  0  0  0  0  0  0  0  0
  139.5090   69.3950  223.8780 C   0  0  0  0  0  0  0  0  0  0  0  0
  140.0220   69.8950  225.0670 C   0  0  0  0  0  0  0  0  0  0  0  0
  140.1760   69.0510  226.1590 C   0  0  0  0  0  0  0  0  0  0  0  0
  140.6880   69.5530  227.3400 C   0  0  0  0  0  0  0  0  0  0  0  0
  140.8570   68.4350  228.6740 Cl  0  0  0  0  0  0  0  0  0  0  0  0
  141.0570   70.8770  227.4780 C   0  0  0  0  0  0  0  0  0  0  0  0
  140.8980   71.6960  226.3880 C   0  0  0  0  0  0  0  0  0  0  0  0
  140.3850   71.2190  225.1880 C   0  0  0  0  0  0  0  0  0  0  0  0
  140.2600   72.0880  224.1630 N   0  0  0  0  0  0  0  0  0  0  0  0
  139.4010   74.2310  223.1060 H   0  0  0  0  0  0  0  0  0  0  0  0
  138.2965   74.7673  220.5571 H   0  0  0  0  0  0  0  0  0  0  0  0
  139.3739   75.9045  221.4722 H   0  0  0  0  0  0  0  0  0  0  0  0
  143.1048   74.0370  221.3806 H   0  0  0  0  0  0  0  0  0  0  0  0
  142.1749   73.0578  220.2402 H   0  0  0  0  0  0  0  0  0  0  0  0
  144.6624   74.4991  219.8118 H   0  0  0  0  0  0  0  0  0  0  0  0
  143.7559   73.4433  218.6555 H   0  0  0  0  0  0  0  0  0  0  0  0
  144.1273   75.7046  217.7567 H   0  0  0  0  0  0  0  0  0  0  0  0
  142.3661   75.3136  218.0014 H   0  0  0  0  0  0  0  0  0  0  0  0
  144.1248   77.0762  219.7223 H   0  0  0  0  0  0  0  0  0  0  0  0
  142.7425   77.5706  218.6950 H   0  0  0  0  0  0  0  0  0  0  0  0
  142.6952   76.3730  221.4393 H   0  0  0  0  0  0  0  0  0  0  0  0
  140.4480   77.4345  220.1275 H   0  0  0  0  0  0  0  0  0  0  0  0
  142.7451   78.9495  220.0222 H   0  0  0  0  0  0  0  0  0  0  0  0
  141.0261   79.3964  219.7302 H   0  0  0  0  0  0  0  0  0  0  0  0
  142.4029   79.4039  222.5035 H   0  0  0  0  0  0  0  0  0  0  0  0
  142.1097   80.8602  221.5422 H   0  0  0  0  0  0  0  0  0  0  0  0
  140.3633   78.7504  223.8792 H   0  0  0  0  0  0  0  0  0  0  0  0
  139.1677   78.3558  222.5498 H   0  0  0  0  0  0  0  0  0  0  0  0
  142.0465   77.6085  222.8182 H   0  0  0  0  0  0  0  0  0  0  0  0
  140.5618   76.5899  222.5255 H   0  0  0  0  0  0  0  0  0  0  0  0
  138.9904   69.9733  221.8703 H   0  0  0  0  0  0  0  0  0  0  0  0
  139.2150   68.3409  223.7667 H   0  0  0  0  0  0  0  0  0  0  0  0
  139.8925   67.9908  226.0843 H   0  0  0  0  0  0  0  0  0  0  0  0
  141.4630   71.2605  228.4257 H   0  0  0  0  0  0  0  0  0  0  0  0
  141.1835   72.7554  226.4664 H   0  0  0  0  0  0  0  0  0  0  0  0
  1  2  2  0
  2  3  1  0
  3  4  1  0
  4  5  1  0
  5  6  2  0
  5  7  1  0
  7  8  1  0
  8  9  1  0
  9 10  1  0
 10 11  1  0
 11 12  1  0
 12 13  1  0
 13 14  1  0
 14 15  1  0
 15 16  1  0
 16 17  1  0
 17 18  1  0
  2 19  1  0
 19 20  2  0
 20 21  1  0
 21 22  2  0
 22 23  1  0
 23 24  2  0
 24 25  1  0
 24 26  1  0
 26 27  2  0
 27 28  1  0
 28 29  2  0
 12  7  1  0
 18 13  1  0
 29 19  1  0
 28 22  1  0
  3 30  1  0
  4 31  1  0
  4 32  1  0
  8 33  1  0
  8 34  1  0
  9 35  1  0
  9 36  1  0
 10 37  1  0
 10 38  1  0
 11 39  1  0
 11 40  1  0
 12 41  1  1
 13 42  1  0
 14 43  1  0
 14 44  1  0
 15 45  1  0
 15 46  1  0
 17 47  1  0
 17 48  1  0
 18 49  1  0
 18 50  1  0
 20 51  1  0
 21 52  1  0
 23 53  1  0
 26 54  1  0
 27 55  1  0
M  END
>  <smiles>  (95) 
O=C(NCC(=O)N1CCCCC1C1CCOCC1)c1ccc2cc(Cl)ccc2n1

>  <score_type>  (95) 
oracle

>  <origin>  (95) 
autodockgpu

>  <m_score__min__energy>  (95) 
-8.9700000000000006

>  <m_primary>  (95) 
energy

>  <rmsd>  (95) 
2.3133977300153825

>  <m_score__min__rmsd>  (95) 
2.3133977300153825

>  <meeko>  (95) 
{"free_energy": -7.81, "intermolecular_energy": -9.3, "internal_energy": -1.69, "cluster_size": 43, "cluster_id": 1, "rank_in_cluster": 30}

>  <energy>  (95) 
-7.45

>  <cluster_rmsd>  (95) 
0.43

>  <cluster>  (95) 
2

$$$$

     RDKit          3D

 55 58  0  0  0  0  0  0  0  0999 V2000
  139.4030   71.8980  220.7730 O   0  0  0  0  0  0  0  0  0  0  0  0
  139.5180   72.3340  221.9550 C   0  0  0  0  0  0  0  0  0  0  0  0
  139.4960   73.7360  222.1620 N   0  0  0  0  0  0  0  0  0  0  0  0
  139.3520   74.7070  221.1090 C   0  0  0  0  0  0  0  0  0  0  0  0
  140.5600   75.5810  220.9880 C   0  0  0  0  0  0  0  0  0  0  0  0
  140.8940   76.1560  222.0570 O   0  0  0  0  0  0  0  0  0  0  0  0
  141.2170   75.7050  219.7520 N   0  0  0  0  0  0  0  0  0  0  0  0
  140.4120   76.3350  218.6650 C   0  0  0  0  0  0  0  0  0  0  0  0
  141.1980   77.5570  218.2370 C   0  0  0  0  0  0  0  0  0  0  0  0
  142.4270   77.7460  219.0980 C   0  0  0  0  0  0  0  0  0  0  0  0
  143.3390   76.5610  219.0690 C   0  0  0  0  0  0  0  0  0  0  0  0
  142.5290   75.3080  219.3740 C   0  0  1  0  0  0  0  0  0  0  0  0
  143.2800   74.3310  220.1760 C   0  0  0  0  0  0  0  0  0  0  0  0
  144.7020   74.5700  220.4970 C   0  0  0  0  0  0  0  0  0  0  0  0
  145.5710   73.3820  219.9850 C   0  0  0  0  0  0  0  0  0  0  0  0
  145.1300   72.2740  220.6710 O   0  0  0  0  0  0  0  0  0  0  0  0
  143.9310   71.8890  220.1000 C   0  0  0  0  0  0  0  0  0  0  0  0
  143.2040   72.9910  219.4150 C   0  0  0  0  0  0  0  0  0  0  0  0
  139.6720   71.4100  223.0930 C   0  0  0  0  0  0  0  0  0  0  0  0
  139.2610   70.1030  222.9400 C   0  0  0  0  0  0  0  0  0  0  0  0
  139.3860   69.1920  223.9770 C   0  0  0  0  0  0  0  0  0  0  0  0
  139.9430   69.6820  225.1500 C   0  0  0  0  0  0  0  0  0  0  0  0
  140.1060   68.8380  226.2400 C   0  0  0  0  0  0  0  0  0  0  0  0
  140.6620   69.3300  227.4050 C   0  0  0  0  0  0  0  0  0  0  0  0
  140.8400   68.2110  228.7370 Cl  0  0  0  0  0  0  0  0  0  0  0  0
  141.0650   70.6450  227.5300 C   0  0  0  0  0  0  0  0  0  0  0  0
  140.8960   71.4650  226.4420 C   0  0  0  0  0  0  0  0  0  0  0  0
  140.3400   70.9980  225.2570 C   0  0  0  0  0  0  0  0  0  0  0  0
  140.2080   71.8670  224.2340 N   0  0  0  0  0  0  0  0  0  0  0  0
  139.5970   74.0440  223.1770 H   0  0  0  0  0  0  0  0  0  0  0  0
  139.1983   74.1787  220.1565 H   0  0  0  0  0  0  0  0  0  0  0  0
  138.4906   75.3470  221.3505 H   0  0  0  0  0  0  0  0  0  0  0  0
  140.2935   75.6390  217.8214 H   0  0  0  0  0  0  0  0  0  0  0  0
  139.4003   76.5991  219.0066 H   0  0  0  0  0  0  0  0  0  0  0  0
  141.5094   77.4344  217.1891 H   0  0  0  0  0  0  0  0  0  0  0  0
  140.5545   78.4420  218.3494 H   0  0  0  0  0  0  0  0  0  0  0  0
  142.9799   78.6247  218.7344 H   0  0  0  0  0  0  0  0  0  0  0  0
  142.0885   77.8798  220.1360 H   0  0  0  0  0  0  0  0  0  0  0  0
  143.7967   76.4715  218.0727 H   0  0  0  0  0  0  0  0  0  0  0  0
  144.1334   76.6834  219.8200 H   0  0  0  0  0  0  0  0  0  0  0  0
  142.3556   74.6756  218.4908 H   0  0  0  0  0  0  0  0  0  0  0  0
  142.7964   74.3817  221.1627 H   0  0  0  0  0  0  0  0  0  0  0  0
  145.0337   75.4997  220.0116 H   0  0  0  0  0  0  0  0  0  0  0  0
  144.8162   74.6572  221.5876 H   0  0  0  0  0  0  0  0  0  0  0  0
  145.4314   73.2435  218.9027 H   0  0  0  0  0  0  0  0  0  0  0  0
  146.6432   73.5623  220.1522 H   0  0  0  0  0  0  0  0  0  0  0  0
  144.1373   71.0999  219.3619 H   0  0  0  0  0  0  0  0  0  0  0  0
  143.2847   71.5441  220.9206 H   0  0  0  0  0  0  0  0  0  0  0  0
  143.6414   73.1307  218.4154 H   0  0  0  0  0  0  0  0  0  0  0  0
  142.1437   72.7025  219.3639 H   0  0  0  0  0  0  0  0  0  0  0  0
  138.8281   69.7788  221.9821 H   0  0  0  0  0  0  0  0  0  0  0  0
  139.0636   68.1451  223.8766 H   0  0  0  0  0  0  0  0  0  0  0  0
  139.7947   67.7849  226.1765 H   0  0  0  0  0  0  0  0  0  0  0  0
  141.5046   71.0210  228.4656 H   0  0  0  0  0  0  0  0  0  0  0  0
  141.2083   72.5175  226.5098 H   0  0  0  0  0  0  0  0  0  0  0  0
  1  2  2  0
  2  3  1  0
  3  4  1  0
  4  5  1  0
  5  6  2  0
  5  7  1  0
  7  8  1  0
  8  9  1  0
  9 10  1  0
 10 11  1  0
 11 12  1  0
 12 13  1  0
 13 14  1  0
 14 15  1  0
 15 16  1  0
 16 17  1  0
 17 18  1  0
  2 19  1  0
 19 20  2  0
 20 21  1  0
 21 22  2  0
 22 23  1  0
 23 24  2  0
 24 25  1  0
 24 26  1  0
 26 27  2  0
 27 28  1  0
 28 29  2  0
 12  7  1  0
 18 13  1  0
 29 19  1  0
 28 22  1  0
  3 30  1  0
  4 31  1  0
  4 32  1  0
  8 33  1  0
  8 34  1  0
  9 35  1  0
  9 36  1  0
 10 37  1  0
 10 38  1  0
 11 39  1  0
 11 40  1  0
 12 41  1  6
 13 42  1  0
 14 43  1  0
 14 44  1  0
 15 45  1  0
 15 46  1  0
 17 47  1  0
 17 48  1  0
 18 49  1  0
 18 50  1  0
 20 51  1  0
 21 52  1  0
 23 53  1  0
 26 54  1  0
 27 55  1  0
M  END
>  <smiles>  (96) 
O=C(NCC(=O)N1CCCCC1C1CCOCC1)c1ccc2cc(Cl)ccc2n1

>  <score_type>  (96) 
oracle

>  <origin>  (96) 
autodockgpu

>  <m_score__min__energy>  (96) 
-8.9700000000000006

>  <m_primary>  (96) 
energy

>  <rmsd>  (96) 
1.7939661277187728

>  <m_score__min__rmsd>  (96) 
1.7939661277187728

>  <meeko>  (96) 
{"free_energy": -7.86, "intermolecular_energy": -9.35, "internal_energy": -1.93, "cluster_size": 43, "cluster_id": 1, "rank_in_cluster": 27}

>  <energy>  (96) 
-7.55

>  <cluster_rmsd>  (96) 
0.0

>  <cluster>  (96) 
3

$$$$

     RDKit          3D

 55 58  0  0  0  0  0  0  0  0999 V2000
  138.4430   71.2940  221.1410 O   0  0  0  0  0  0  0  0  0  0  0  0
  139.2600   71.6490  222.0400 C   0  0  0  0  0  0  0  0  0  0  0  0
  139.9770   72.8580  221.8610 N   0  0  0  0  0  0  0  0  0  0  0  0
  139.8410   73.7170  220.7150 C   0  0  0  0  0  0  0  0  0  0  0  0
  140.7870   74.8740  220.7700 C   0  0  0  0  0  0  0  0  0  0  0  0
  141.0560   75.2690  221.9350 O   0  0  0  0  0  0  0  0  0  0  0  0
  141.2930   75.4260  219.5810 N   0  0  0  0  0  0  0  0  0  0  0  0
  140.3830   76.3830  218.8880 C   0  0  0  0  0  0  0  0  0  0  0  0
  141.1490   77.6870  218.8120 C   0  0  0  0  0  0  0  0  0  0  0  0
  142.4770   77.5830  219.5260 C   0  0  0  0  0  0  0  0  0  0  0  0
  143.3430   76.4930  218.9780 C   0  0  0  0  0  0  0  0  0  0  0  0
  142.5360   75.2010  218.9310 C   0  0  1  0  0  0  0  0  0  0  0  0
  143.3480   74.0170  219.2460 C   0  0  0  0  0  0  0  0  0  0  0  0
  144.1810   73.9910  220.4670 C   0  0  0  0  0  0  0  0  0  0  0  0
  145.6700   73.7270  220.0900 C   0  0  0  0  0  0  0  0  0  0  0  0
  145.6900   72.4850  219.5000 O   0  0  0  0  0  0  0  0  0  0  0  0
  145.1960   72.6330  218.2170 C   0  0  0  0  0  0  0  0  0  0  0  0
  144.2930   73.8010  218.0460 C   0  0  0  0  0  0  0  0  0  0  0  0
  139.4630   70.8260  223.2470 C   0  0  0  0  0  0  0  0  0  0  0  0
  139.0290   69.5180  223.2330 C   0  0  0  0  0  0  0  0  0  0  0  0
  139.1980   68.7010  224.3390 C   0  0  0  0  0  0  0  0  0  0  0  0
  139.8220   69.2840  225.4330 C   0  0  0  0  0  0  0  0  0  0  0  0
  140.0340   68.5370  226.5840 C   0  0  0  0  0  0  0  0  0  0  0  0
  140.6560   69.1210  227.6710 C   0  0  0  0  0  0  0  0  0  0  0  0
  140.8920   68.1220  229.0870 Cl  0  0  0  0  0  0  0  0  0  0  0  0
  141.0810   70.4360  227.6560 C   0  0  0  0  0  0  0  0  0  0  0  0
  140.8640   71.1590  226.5090 C   0  0  0  0  0  0  0  0  0  0  0  0
  140.2410   70.5980  225.4010 C   0  0  0  0  0  0  0  0  0  0  0  0
  140.0640   71.3740  224.3130 N   0  0  0  0  0  0  0  0  0  0  0  0
  140.6500   73.1050  222.6500 H   0  0  0  0  0  0  0  0  0  0  0  0
  140.0465   73.1325  219.8061 H   0  0  0  0  0  0  0  0  0  0  0  0
  138.8156   74.1151  220.7071 H   0  0  0  0  0  0  0  0  0  0  0  0
  140.1404   76.0202  217.8783 H   0  0  0  0  0  0  0  0  0  0  0  0
  139.4296   76.5005  219.4240 H   0  0  0  0  0  0  0  0  0  0  0  0
  141.3280   77.9369  217.7558 H   0  0  0  0  0  0  0  0  0  0  0  0
  140.5515   78.4710  219.3001 H   0  0  0  0  0  0  0  0  0  0  0  0
  143.0084   78.5405  219.4221 H   0  0  0  0  0  0  0  0  0  0  0  0
  142.2701   77.3450  220.5798 H   0  0  0  0  0  0  0  0  0  0  0  0
  143.6744   76.7590  217.9634 H   0  0  0  0  0  0  0  0  0  0  0  0
  144.2260   76.3588  219.6201 H   0  0  0  0  0  0  0  0  0  0  0  0
  142.2362   74.9105  217.9133 H   0  0  0  0  0  0  0  0  0  0  0  0
  142.5979   73.2377  219.4460 H   0  0  0  0  0  0  0  0  0  0  0  0
  144.1019   74.9593  220.9828 H   0  0  0  0  0  0  0  0  0  0  0  0
  143.8276   73.1863  221.1285 H   0  0  0  0  0  0  0  0  0  0  0  0
  146.0287   74.4920  219.3857 H   0  0  0  0  0  0  0  0  0  0  0  0
  146.3255   73.7679  220.9724 H   0  0  0  0  0  0  0  0  0  0  0  0
  146.0473   72.7509  217.5304 H   0  0  0  0  0  0  0  0  0  0  0  0
  144.5980   71.7352  218.0016 H   0  0  0  0  0  0  0  0  0  0  0  0
  144.9087   74.7036  217.9185 H   0  0  0  0  0  0  0  0  0  0  0  0
  143.6643   73.6030  217.1653 H   0  0  0  0  0  0  0  0  0  0  0  0
  138.5420   69.1174  222.3317 H   0  0  0  0  0  0  0  0  0  0  0  0
  138.8585   67.6547  224.3494 H   0  0  0  0  0  0  0  0  0  0  0  0
  139.7089   67.4872  226.6303 H   0  0  0  0  0  0  0  0  0  0  0  0
  141.5744   70.8864  228.5299 H   0  0  0  0  0  0  0  0  0  0  0  0
  141.1915   72.2082  226.4663 H   0  0  0  0  0  0  0  0  0  0  0  0
  1  2  2  0
  2  3  1  0
  3  4  1  0
  4  5  1  0
  5  6  2  0
  5  7  1  0
  7  8  1  0
  8  9  1  0
  9 10  1  0
 10 11  1  0
 11 12  1  0
 12 13  1  0
 13 14  1  0
 14 15  1  0
 15 16  1  0
 16 17  1  0
 17 18  1  0
  2 19  1  0
 19 20  2  0
 20 21  1  0
 21 22  2  0
 22 23  1  0
 23 24  2  0
 24 25  1  0
 24 26  1  0
 26 27  2  0
 27 28  1  0
 28 29  2  0
 12  7  1  0
 18 13  1  0
 29 19  1  0
 28 22  1  0
  3 30  1  0
  4 31  1  0
  4 32  1  0
  8 33  1  0
  8 34  1  0
  9 35  1  0
  9 36  1  0
 10 37  1  0
 10 38  1  0
 11 39  1  0
 11 40  1  0
 12 41  1  6
 13 42  1  0
 14 43  1  0
 14 44  1  0
 15 45  1  0
 15 46  1  0
 17 47  1  0
 17 48  1  0
 18 49  1  0
 18 50  1  0
 20 51  1  0
 21 52  1  0
 23 53  1  0
 26 54  1  0
 27 55  1  0
M  END
>  <smiles>  (97) 
O=C(NCC(=O)N1CCCCC1C1CCOCC1)c1ccc2cc(Cl)ccc2n1

>  <score_type>  (97) 
oracle

>  <origin>  (97) 
autodockgpu

>  <m_score__min__energy>  (97) 
-8.9700000000000006

>  <m_primary>  (97) 
energy

>  <rmsd>  (97) 
1.841334507834717

>  <m_score__min__rmsd>  (97) 
1.841334507834717

>  <meeko>  (97) 
{"free_energy": -7.55, "intermolecular_energy": -9.04, "internal_energy": -2.05, "cluster_size": 2, "cluster_id": 3, "rank_in_cluster": 1}

>  <energy>  (97) 
-7.5

>  <cluster_rmsd>  (97) 
0.1

>  <cluster>  (97) 
3

$$$$

     RDKit          3D

 55 58  0  0  0  0  0  0  0  0999 V2000
  139.9750   73.4520  220.4170 O   0  0  0  0  0  0  0  0  0  0  0  0
  139.6940   73.5610  221.6460 C   0  0  0  0  0  0  0  0  0  0  0  0
  139.3940   74.8490  222.1570 N   0  0  0  0  0  0  0  0  0  0  0  0
  139.3890   76.0520  221.3670 C   0  0  0  0  0  0  0  0  0  0  0  0
  139.1090   77.2630  222.1990 C   0  0  0  0  0  0  0  0  0  0  0  0
  138.1960   77.1080  223.0520 O   0  0  0  0  0  0  0  0  0  0  0  0
  139.8410   78.4440  221.9890 N   0  0  0  0  0  0  0  0  0  0  0  0
  139.3900   79.6210  222.7880 C   0  0  0  0  0  0  0  0  0  0  0  0
  140.5920   80.0360  223.6100 C   0  0  0  0  0  0  0  0  0  0  0  0
  141.7490   79.0840  223.4060 C   0  0  0  0  0  0  0  0  0  0  0  0
  142.1670   78.9840  221.9730 C   0  0  0  0  0  0  0  0  0  0  0  0
  140.9390   78.6930  221.1210 C   0  0  1  0  0  0  0  0  0  0  0  0
  141.2310   77.7880  219.9990 C   0  0  0  0  0  0  0  0  0  0  0  0
  142.1170   76.6230  220.1970 C   0  0  0  0  0  0  0  0  0  0  0  0
  143.3160   76.6910  219.2030 C   0  0  0  0  0  0  0  0  0  0  0  0
  142.7630   76.6340  217.9450 O   0  0  0  0  0  0  0  0  0  0  0  0
  142.2250   77.8790  217.6770 C   0  0  0  0  0  0  0  0  0  0  0  0
  141.8610   78.6570  218.8900 C   0  0  0  0  0  0  0  0  0  0  0  0
  139.6780   72.3810  222.5280 C   0  0  0  0  0  0  0  0  0  0  0  0
  139.0020   71.2550  222.1100 C   0  0  0  0  0  0  0  0  0  0  0  0
  138.9570   70.1170  222.8990 C   0  0  0  0  0  0  0  0  0  0  0  0
  139.6290   70.1940  224.1110 C   0  0  0  0  0  0  0  0  0  0  0  0
  139.6380   69.0990  224.9650 C   0  0  0  0  0  0  0  0  0  0  0  0
  140.3090   69.1800  226.1700 C   0  0  0  0  0  0  0  0  0  0  0  0
  140.2810   67.7640  227.1950 Cl  0  0  0  0  0  0  0  0  0  0  0  0
  140.9790   70.3230  226.5640 C   0  0  0  0  0  0  0  0  0  0  0  0
  140.9600   71.3950  225.7070 C   0  0  0  0  0  0  0  0  0  0  0  0
  140.2940   71.3420  224.4890 C   0  0  0  0  0  0  0  0  0  0  0  0
  140.3220   72.4390  223.7030 N   0  0  0  0  0  0  0  0  0  0  0  0
  139.1660   74.8790  223.1970 H   0  0  0  0  0  0  0  0  0  0  0  0
  140.3731   76.1682  220.8894 H   0  0  0  0  0  0  0  0  0  0  0  0
  138.5917   75.9630  220.6144 H   0  0  0  0  0  0  0  0  0  0  0  0
  139.0774   80.4399  222.1234 H   0  0  0  0  0  0  0  0  0  0  0  0
  138.5258   79.3764  223.4231 H   0  0  0  0  0  0  0  0  0  0  0  0
  140.9018   81.0472  223.3075 H   0  0  0  0  0  0  0  0  0  0  0  0
  140.3098   80.0186  224.6731 H   0  0  0  0  0  0  0  0  0  0  0  0
  142.6053   79.4383  223.9987 H   0  0  0  0  0  0  0  0  0  0  0  0
  141.4185   78.0850  223.7268 H   0  0  0  0  0  0  0  0  0  0  0  0
  142.6216   79.9334  221.6537 H   0  0  0  0  0  0  0  0  0  0  0  0
  142.9032   78.1753  221.8548 H   0  0  0  0  0  0  0  0  0  0  0  0
  140.6027   79.5593  220.5324 H   0  0  0  0  0  0  0  0  0  0  0  0
  140.2588   77.3201  219.7848 H   0  0  0  0  0  0  0  0  0  0  0  0
  142.4984   76.6264  221.2288 H   0  0  0  0  0  0  0  0  0  0  0  0
  141.5472   75.7002  220.0133 H   0  0  0  0  0  0  0  0  0  0  0  0
  143.8706   77.6317  219.3355 H   0  0  0  0  0  0  0  0  0  0  0  0
  144.0278   75.8692  219.3702 H   0  0  0  0  0  0  0  0  0  0  0  0
  142.9638   78.4584  217.1039 H   0  0  0  0  0  0  0  0  0  0  0  0
  141.2929   77.7081  217.1184 H   0  0  0  0  0  0  0  0  0  0  0  0
  142.7707   79.1292  219.2893 H   0  0  0  0  0  0  0  0  0  0  0  0
  141.1092   79.4015  218.5893 H   0  0  0  0  0  0  0  0  0  0  0  0
  138.4909   71.2599  221.1360 H   0  0  0  0  0  0  0  0  0  0  0  0
  138.4219   69.2089  222.5844 H   0  0  0  0  0  0  0  0  0  0  0  0
  139.1144   68.1733  224.6840 H   0  0  0  0  0  0  0  0  0  0  0  0
  141.5073   70.3716  227.5276 H   0  0  0  0  0  0  0  0  0  0  0  0
  141.4850   72.3188  225.9916 H   0  0  0  0  0  0  0  0  0  0  0  0
  1  2  2  0
  2  3  1  0
  3  4  1  0
  4  5  1  0
  5  6  2  0
  5  7  1  0
  7  8  1  0
  8  9  1  0
  9 10  1  0
 10 11  1  0
 11 12  1  0
 12 13  1  0
 13 14  1  0
 14 15  1  0
 15 16  1  0
 16 17  1  0
 17 18  1  0
  2 19  1  0
 19 20  2  0
 20 21  1  0
 21 22  2  0
 22 23  1  0
 23 24  2  0
 24 25  1  0
 24 26  1  0
 26 27  2  0
 27 28  1  0
 28 29  2  0
 12  7  1  0
 18 13  1  0
 29 19  1  0
 28 22  1  0
  3 30  1  0
  4 31  1  0
  4 32  1  0
  8 33  1  0
  8 34  1  0
  9 35  1  0
  9 36  1  0
 10 37  1  0
 10 38  1  0
 11 39  1  0
 11 40  1  0
 12 41  1  6
 13 42  1  0
 14 43  1  0
 14 44  1  0
 15 45  1  0
 15 46  1  0
 17 47  1  0
 17 48  1  0
 18 49  1  0
 18 50  1  0
 20 51  1  0
 21 52  1  0
 23 53  1  0
 26 54  1  0
 27 55  1  0
M  END
>  <smiles>  (98) 
O=C(NCC(=O)N1CCCCC1C1CCOCC1)c1ccc2cc(Cl)ccc2n1

>  <score_type>  (98) 
oracle

>  <origin>  (98) 
autodockgpu

>  <m_score__min__energy>  (98) 
-8.9700000000000006

>  <m_primary>  (98) 
energy

>  <rmsd>  (98) 
3.766874349434157

>  <m_score__min__rmsd>  (98) 
3.766874349434157

>  <meeko>  (98) 
{"free_energy": -7.99, "intermolecular_energy": -9.48, "internal_energy": -1.47, "cluster_size": 43, "cluster_id": 1, "rank_in_cluster": 18}

>  <energy>  (98) 
-7.27

>  <cluster_rmsd>  (98) 
0.0

>  <cluster>  (98) 
4

$$$$

     RDKit          3D

 55 58  0  0  0  0  0  0  0  0999 V2000
  139.9230   72.3490  220.3930 O   0  0  0  0  0  0  0  0  0  0  0  0
  140.2730   72.7170  221.5520 C   0  0  0  0  0  0  0  0  0  0  0  0
  140.7550   74.0390  221.7230 N   0  0  0  0  0  0  0  0  0  0  0  0
  140.8770   75.0000  220.6580 C   0  0  0  0  0  0  0  0  0  0  0  0
  141.2040   76.3650  221.1750 C   0  0  0  0  0  0  0  0  0  0  0  0
  140.8500   76.5680  222.3660 O   0  0  0  0  0  0  0  0  0  0  0  0
  141.8510   77.2950  220.3440 N   0  0  0  0  0  0  0  0  0  0  0  0
  142.7190   76.7040  219.2850 C   0  0  0  0  0  0  0  0  0  0  0  0
  142.1570   77.2100  217.9730 C   0  0  0  0  0  0  0  0  0  0  0  0
  140.9040   78.0270  218.1940 C   0  0  0  0  0  0  0  0  0  0  0  0
  141.1310   79.1990  219.0950 C   0  0  0  0  0  0  0  0  0  0  0  0
  141.8150   78.7160  220.3680 C   0  0  1  0  0  0  0  0  0  0  0  0
  141.3570   79.4380  221.5640 C   0  0  0  0  0  0  0  0  0  0  0  0
  140.9130   80.8430  221.4590 C   0  0  0  0  0  0  0  0  0  0  0  0
  141.7570   81.7410  222.4130 C   0  0  0  0  0  0  0  0  0  0  0  0
  141.5040   81.2790  223.6830 O   0  0  0  0  0  0  0  0  0  0  0  0
  142.2220   80.1080  223.8430 C   0  0  0  0  0  0  0  0  0  0  0  0
  142.5270   79.4040  222.5690 C   0  0  0  0  0  0  0  0  0  0  0  0
  140.1830   71.7960  222.6990 C   0  0  0  0  0  0  0  0  0  0  0  0
  139.5830   70.5690  222.5130 C   0  0  0  0  0  0  0  0  0  0  0  0
  139.4740   69.6650  223.5570 C   0  0  0  0  0  0  0  0  0  0  0  0
  140.0030   70.0770  224.7730 C   0  0  0  0  0  0  0  0  0  0  0  0
  139.9400   69.2330  225.8730 C   0  0  0  0  0  0  0  0  0  0  0  0
  140.4690   69.6460  227.0810 C   0  0  0  0  0  0  0  0  0  0  0  0
  140.3560   68.5320  228.4240 Cl  0  0  0  0  0  0  0  0  0  0  0  0
  141.0650   70.8820  227.2380 C   0  0  0  0  0  0  0  0  0  0  0  0
  141.1200   71.7030  226.1390 C   0  0  0  0  0  0  0  0  0  0  0  0
  140.5960   71.3140  224.9120 C   0  0  0  0  0  0  0  0  0  0  0  0
  140.6890   72.1780  223.8810 N   0  0  0  0  0  0  0  0  0  0  0  0
  141.0340   74.2920  222.7200 H   0  0  0  0  0  0  0  0  0  0  0  0
  141.6776   74.6763  219.9766 H   0  0  0  0  0  0  0  0  0  0  0  0
  139.9106   75.0552  220.1355 H   0  0  0  0  0  0  0  0  0  0  0  0
  143.7599   77.0364  219.4112 H   0  0  0  0  0  0  0  0  0  0  0  0
  142.7263   75.6049  219.3293 H   0  0  0  0  0  0  0  0  0  0  0  0
  142.9121   77.8379  217.4775 H   0  0  0  0  0  0  0  0  0  0  0  0
  141.9016   76.3431  217.3459 H   0  0  0  0  0  0  0  0  0  0  0  0
  140.5476   78.3952  217.2206 H   0  0  0  0  0  0  0  0  0  0  0  0
  140.1626   77.3743  218.6781 H   0  0  0  0  0  0  0  0  0  0  0  0
  141.7714   79.9360  218.5883 H   0  0  0  0  0  0  0  0  0  0  0  0
  140.1687   79.6702  219.3441 H   0  0  0  0  0  0  0  0  0  0  0  0
  142.8781   78.9929  220.4242 H   0  0  0  0  0  0  0  0  0  0  0  0
  140.4326   78.9117  221.8441 H   0  0  0  0  0  0  0  0  0  0  0  0
  141.0424   81.1896  220.4231 H   0  0  0  0  0  0  0  0  0  0  0  0
  139.8528   80.9091  221.7446 H   0  0  0  0  0  0  0  0  0  0  0  0
  142.8277   81.6491  222.1781 H   0  0  0  0  0  0  0  0  0  0  0  0
  141.4926   82.8036  222.3084 H   0  0  0  0  0  0  0  0  0  0  0  0
  143.1729   80.3510  224.3397 H   0  0  0  0  0  0  0  0  0  0  0  0
  141.5933   79.4292  224.4379 H   0  0  0  0  0  0  0  0  0  0  0  0
  143.4014   79.8834  222.1047 H   0  0  0  0  0  0  0  0  0  0  0  0
  142.7179   78.3489  222.8147 H   0  0  0  0  0  0  0  0  0  0  0  0
  139.1854   70.3041  221.5222 H   0  0  0  0  0  0  0  0  0  0  0  0
  138.9978   68.6815  223.4306 H   0  0  0  0  0  0  0  0  0  0  0  0
  139.4719   68.2416  225.7838 H   0  0  0  0  0  0  0  0  0  0  0  0
  141.4799   71.1967  228.2069 H   0  0  0  0  0  0  0  0  0  0  0  0
  141.5904   72.6930  226.2319 H   0  0  0  0  0  0  0  0  0  0  0  0
  1  2  2  0
  2  3  1  0
  3  4  1  0
  4  5  1  0
  5  6  2  0
  5  7  1  0
  7  8  1  0
  8  9  1  0
  9 10  1  0
 10 11  1  0
 11 12  1  0
 12 13  1  0
 13 14  1  0
 14 15  1  0
 15 16  1  0
 16 17  1  0
 17 18  1  0
  2 19  1  0
 19 20  2  0
 20 21  1  0
 21 22  2  0
 22 23  1  0
 23 24  2  0
 24 25  1  0
 24 26  1  0
 26 27  2  0
 27 28  1  0
 28 29  2  0
 12  7  1  0
 18 13  1  0
 29 19  1  0
 28 22  1  0
  3 30  1  0
  4 31  1  0
  4 32  1  0
  8 33  1  0
  8 34  1  0
  9 35  1  0
  9 36  1  0
 10 37  1  0
 10 38  1  0
 11 39  1  0
 11 40  1  0
 12 41  1  6
 13 42  1  0
 14 43  1  0
 14 44  1  0
 15 45  1  0
 15 46  1  0
 17 47  1  0
 17 48  1  0
 18 49  1  0
 18 50  1  0
 20 51  1  0
 21 52  1  0
 23 53  1  0
 26 54  1  0
 27 55  1  0
M  END
>  <smiles>  (99) 
O=C(NCC(=O)N1CCCCC1C1CCOCC1)c1ccc2cc(Cl)ccc2n1

>  <score_type>  (99) 
oracle

>  <origin>  (99) 
autodockgpu

>  <m_score__min__energy>  (99) 
-8.9700000000000006

>  <m_primary>  (99) 
energy

>  <rmsd>  (99) 
2.4595692549332124

>  <m_score__min__rmsd>  (99) 
2.4595692549332124

>  <meeko>  (99) 
{"free_energy": -7.92, "intermolecular_energy": -9.41, "internal_energy": -2.03, "cluster_size": 43, "cluster_id": 1, "rank_in_cluster": 21}

>  <energy>  (99) 
-7.22

>  <cluster_rmsd>  (99) 
0.7

>  <cluster>  (99) 
4

$$$$

     RDKit          3D

 55 58  0  0  0  0  0  0  0  0999 V2000
  140.3020   72.4000  220.7190 O   0  0  0  0  0  0  0  0  0  0  0  0
  140.0540   72.7940  221.8960 C   0  0  0  0  0  0  0  0  0  0  0  0
  139.8110   74.1740  222.1090 N   0  0  0  0  0  0  0  0  0  0  0  0
  139.8290   75.1680  221.0680 C   0  0  0  0  0  0  0  0  0  0  0  0
  140.6400   76.3640  221.4560 C   0  0  0  0  0  0  0  0  0  0  0  0
  140.4780   76.7380  222.6470 O   0  0  0  0  0  0  0  0  0  0  0  0
  141.4880   76.9720  220.5150 N   0  0  0  0  0  0  0  0  0  0  0  0
  142.1760   76.0350  219.5800 C   0  0  0  0  0  0  0  0  0  0  0  0
  141.7440   76.4600  218.1920 C   0  0  0  0  0  0  0  0  0  0  0  0
  140.7330   77.5820  218.2540 C   0  0  0  0  0  0  0  0  0  0  0  0
  141.2490   78.7850  218.9780 C   0  0  0  0  0  0  0  0  0  0  0  0
  141.8030   78.3460  220.3280 C   0  0  1  0  0  0  0  0  0  0  0  0
  141.5470   79.3290  221.3900 C   0  0  0  0  0  0  0  0  0  0  0  0
  142.1970   79.1830  222.7090 C   0  0  0  0  0  0  0  0  0  0  0  0
  141.1170   79.1160  223.8310 C   0  0  0  0  0  0  0  0  0  0  0  0
  140.4520   80.3190  223.7820 O   0  0  0  0  0  0  0  0  0  0  0  0
  139.5980   80.2720  222.6960 C   0  0  0  0  0  0  0  0  0  0  0  0
  140.0230   79.3250  221.6310 C   0  0  0  0  0  0  0  0  0  0  0  0
  140.0180   71.8420  223.0220 C   0  0  0  0  0  0  0  0  0  0  0  0
  139.5340   70.5720  222.7940 C   0  0  0  0  0  0  0  0  0  0  0  0
  139.4810   69.6380  223.8170 C   0  0  0  0  0  0  0  0  0  0  0  0
  139.9400   70.0670  225.0540 C   0  0  0  0  0  0  0  0  0  0  0  0
  139.9240   69.1960  226.1350 C   0  0  0  0  0  0  0  0  0  0  0  0
  140.3830   69.6270  227.3650 C   0  0  0  0  0  0  0  0  0  0  0  0
  140.3360   68.4780  228.6810 Cl  0  0  0  0  0  0  0  0  0  0  0  0
  140.8630   70.9080  227.5630 C   0  0  0  0  0  0  0  0  0  0  0  0
  140.8710   71.7550  226.4830 C   0  0  0  0  0  0  0  0  0  0  0  0
  140.4160   71.3490  225.2350 C   0  0  0  0  0  0  0  0  0  0  0  0
  140.4570   72.2410  224.2240 N   0  0  0  0  0  0  0  0  0  0  0  0
  139.6080   74.4450  223.1190 H   0  0  0  0  0  0  0  0  0  0  0  0
  140.2615   74.7241  220.1592 H   0  0  0  0  0  0  0  0  0  0  0  0
  138.7945   75.4985  220.8927 H   0  0  0  0  0  0  0  0  0  0  0  0
  143.2677   76.1189  219.6856 H   0  0  0  0  0  0  0  0  0  0  0  0
  141.9141   74.9867  219.7862 H   0  0  0  0  0  0  0  0  0  0  0  0
  142.6260   76.8023  217.6308 H   0  0  0  0  0  0  0  0  0  0  0  0
  141.2775   75.5978  217.6930 H   0  0  0  0  0  0  0  0  0  0  0  0
  140.4696   77.8755  217.2271 H   0  0  0  0  0  0  0  0  0  0  0  0
  139.8583   77.2107  218.8081 H   0  0  0  0  0  0  0  0  0  0  0  0
  142.0472   79.2579  218.3870 H   0  0  0  0  0  0  0  0  0  0  0  0
  140.4348   79.5097  219.1261 H   0  0  0  0  0  0  0  0  0  0  0  0
  142.9020   78.3594  220.3740 H   0  0  0  0  0  0  0  0  0  0  0  0
  141.9956   80.2539  220.9984 H   0  0  0  0  0  0  0  0  0  0  0  0
  142.7928   78.2584  222.7212 H   0  0  0  0  0  0  0  0  0  0  0  0
  142.8501   80.0499  222.8877 H   0  0  0  0  0  0  0  0  0  0  0  0
  140.4207   78.2853  223.6436 H   0  0  0  0  0  0  0  0  0  0  0  0
  141.5690   78.9427  224.8188 H   0  0  0  0  0  0  0  0  0  0  0  0
  138.6027   79.9678  223.0520 H   0  0  0  0  0  0  0  0  0  0  0  0
  139.5995   81.2762  222.2471 H   0  0  0  0  0  0  0  0  0  0  0  0
  139.7175   78.3095  221.9233 H   0  0  0  0  0  0  0  0  0  0  0  0
  139.5422   79.6466  220.6953 H   0  0  0  0  0  0  0  0  0  0  0  0
  139.1854   70.2960  221.7879 H   0  0  0  0  0  0  0  0  0  0  0  0
  139.0984   68.6190  223.6577 H   0  0  0  0  0  0  0  0  0  0  0  0
  139.5483   68.1693  226.0131 H   0  0  0  0  0  0  0  0  0  0  0  0
  141.2248   71.2361  228.5486 H   0  0  0  0  0  0  0  0  0  0  0  0
  141.2471   72.7810  226.6089 H   0  0  0  0  0  0  0  0  0  0  0  0
  1  2  2  0
  2  3  1  0
  3  4  1  0
  4  5  1  0
  5  6  2  0
  5  7  1  0
  7  8  1  0
  8  9  1  0
  9 10  1  0
 10 11  1  0
 11 12  1  0
 12 13  1  0
 13 14  1  0
 14 15  1  0
 15 16  1  0
 16 17  1  0
 17 18  1  0
  2 19  1  0
 19 20  2  0
 20 21  1  0
 21 22  2  0
 22 23  1  0
 23 24  2  0
 24 25  1  0
 24 26  1  0
 26 27  2  0
 27 28  1  0
 28 29  2  0
 12  7  1  0
 18 13  1  0
 29 19  1  0
 28 22  1  0
  3 30  1  0
  4 31  1  0
  4 32  1  0
  8 33  1  0
  8 34  1  0
  9 35  1  0
  9 36  1  0
 10 37  1  0
 10 38  1  0
 11 39  1  0
 11 40  1  0
 12 41  1  6
 13 42  1  0
 14 43  1  0
 14 44  1  0
 15 45  1  0
 15 46  1  0
 17 47  1  0
 17 48  1  0
 18 49  1  0
 18 50  1  0
 20 51  1  0
 21 52  1  0
 23 53  1  0
 26 54  1  0
 27 55  1  0
M  END
>  <smiles>  (100) 
O=C(NCC(=O)N1CCCCC1C1CCOCC1)c1ccc2cc(Cl)ccc2n1

>  <score_type>  (100) 
oracle

>  <origin>  (100) 
autodockgpu

>  <m_score__min__energy>  (100) 
-8.9700000000000006

>  <m_primary>  (100) 
energy

>  <rmsd>  (100) 
2.051943274903882

>  <m_score__min__rmsd>  (100) 
2.051943274903882

>  <meeko>  (100) 
{"free_energy": -8.13, "intermolecular_energy": -9.62, "internal_energy": -1.59, "cluster_size": 43, "cluster_id": 1, "rank_in_cluster": 15}

>  <energy>  (100) 
-6.53

>  <cluster_rmsd>  (100) 
0.0

>  <cluster>  (100) 
5

$$$$
