
     RDKit          3D

 53 56  0  0  0  0  0  0  0  0999 V2000
  140.5220   71.0900  221.3330 O   0  0  0  0  0  0  0  0  0  0  0  0
  140.1550   71.6890  222.3860 C   0  0  0  0  0  0  0  0  0  0  0  0
  139.8700   73.0650  222.4060 N   0  0  0  0  0  0  0  0  0  0  0  0
  139.9870   73.8530  221.2160 C   0  0  0  0  0  0  0  0  0  0  0  0
  140.9650   74.9670  221.4040 C   0  0  0  0  0  0  0  0  0  0  0  0
  140.7220   75.7720  222.3220 O   0  0  0  0  0  0  0  0  0  0  0  0
  142.0680   75.0100  220.5310 N   0  0  0  0  0  0  0  0  0  0  0  0
  143.2600   74.1430  220.5480 C   0  0  0  0  0  0  0  0  0  0  0  0
  143.4960   73.8820  219.0760 C   0  0  2  0  0  0  0  0  0  0  0  0
  144.8270   74.1260  218.7800 O   0  0  0  0  0  0  0  0  0  0  0  0
  142.6240   74.8990  218.3280 C   0  0  0  0  0  0  0  0  0  0  0  0
  142.3350   75.9050  219.3910 C   0  0  1  0  0  0  0  0  0  0  0  0
  141.1680   76.8050  219.1550 C   0  0  0  0  0  0  0  0  0  0  0  0
  141.0960   77.9370  219.8600 O   0  0  0  0  0  0  0  0  0  0  0  0
  141.0020   78.4970  221.0520 C   0  0  0  0  0  0  0  0  0  0  0  0
  139.7590   78.3790  221.7180 C   0  0  0  0  0  0  0  0  0  0  0  0
  139.5270   78.9100  222.9470 C   0  0  0  0  0  0  0  0  0  0  0  0
  140.5250   79.5940  223.5890 C   0  0  0  0  0  0  0  0  0  0  0  0
  141.7440   79.7440  223.0050 C   0  0  0  0  0  0  0  0  0  0  0  0
  143.0400   80.6240  223.8260 Cl  0  0  0  0  0  0  0  0  0  0  0  0
  141.9550   79.1980  221.7610 C   0  0  0  0  0  0  0  0  0  0  0  0
  140.0230   70.9070  223.6350 C   0  0  0  0  0  0  0  0  0  0  0  0
  139.3920   69.6800  223.6300 C   0  0  0  0  0  0  0  0  0  0  0  0
  139.2780   68.9580  224.8180 C   0  0  0  0  0  0  0  0  0  0  0  0
  139.8120   69.5100  225.9730 C   0  0  0  0  0  0  0  0  0  0  0  0
  139.7160   68.8180  227.1770 C   0  0  0  0  0  0  0  0  0  0  0  0
  140.2540   69.3740  228.3360 C   0  0  0  0  0  0  0  0  0  0  0  0
  140.8850   70.6050  228.3310 C   0  0  0  0  0  0  0  0  0  0  0  0
  140.9770   71.2890  227.1360 C   0  0  0  0  0  0  0  0  0  0  0  0
  140.4450   70.7430  225.9710 C   0  0  0  0  0  0  0  0  0  0  0  0
  140.5220   71.3880  224.7950 N   0  0  0  0  0  0  0  0  0  0  0  0
  139.5680   73.4890  223.3330 H   0  0  0  0  0  0  0  0  0  0  0  0
  140.3285   73.2102  220.3913 H   0  0  0  0  0  0  0  0  0  0  0  0
  139.0028   74.2866  220.9853 H   0  0  0  0  0  0  0  0  0  0  0  0
  144.1192   74.6573  221.0033 H   0  0  0  0  0  0  0  0  0  0  0  0
  143.1267   73.2257  221.1402 H   0  0  0  0  0  0  0  0  0  0  0  0
  143.2536   72.8457  218.7979 H   0  0  0  0  0  0  0  0  0  0  0  0
  144.8200   74.9420  218.1880 H   0  0  0  0  0  0  0  0  0  0  0  0
  143.1706   75.3519  217.4877 H   0  0  0  0  0  0  0  0  0  0  0  0
  141.7217   74.4608  217.8765 H   0  0  0  0  0  0  0  0  0  0  0  0
  143.1563   76.6294  219.4947 H   0  0  0  0  0  0  0  0  0  0  0  0
  141.1792   77.0828  218.0907 H   0  0  0  0  0  0  0  0  0  0  0  0
  140.2981   76.2192  219.4868 H   0  0  0  0  0  0  0  0  0  0  0  0
  138.9447   77.8334  221.2188 H   0  0  0  0  0  0  0  0  0  0  0  0
  138.5429   78.7912  223.4238 H   0  0  0  0  0  0  0  0  0  0  0  0
  140.3392   80.0250  224.5839 H   0  0  0  0  0  0  0  0  0  0  0  0
  142.9462   79.3284  221.3023 H   0  0  0  0  0  0  0  0  0  0  0  0
  138.9810   69.2733  222.6942 H   0  0  0  0  0  0  0  0  0  0  0  0
  138.7785   67.9781  224.8383 H   0  0  0  0  0  0  0  0  0  0  0  0
  139.2182   67.8377  227.2133 H   0  0  0  0  0  0  0  0  0  0  0  0
  140.1746   68.8181  229.2819 H   0  0  0  0  0  0  0  0  0  0  0  0
  141.3029   71.0281  229.2564 H   0  0  0  0  0  0  0  0  0  0  0  0
  141.4730   72.2703  227.1038 H   0  0  0  0  0  0  0  0  0  0  0  0
  1  2  2  0
  2  3  1  0
  3  4  1  0
  4  5  1  0
  5  6  2  0
  5  7  1  0
  7  8  1  0
  8  9  1  0
  9 10  1  0
  9 11  1  0
 11 12  1  0
 12 13  1  0
 13 14  1  0
 14 15  1  0
 15 16  2  0
 16 17  1  0
 17 18  2  0
 18 19  1  0
 19 20  1  0
 19 21  2  0
  2 22  1  0
 22 23  2  0
 23 24  1  0
 24 25  2  0
 25 26  1  0
 26 27  2  0
 27 28  1  0
 28 29  2  0
 29 30  1  0
 30 31  2  0
 12  7  1  0
 21 15  1  0
 31 22  1  0
 30 25  1  0
  3 32  1  0
  4 33  1  0
  4 34  1  0
  8 35  1  0
  8 36  1  0
  9 37  1  6
 10 38  1  0
 11 39  1  0
 11 40  1  0
 12 41  1  1
 13 42  1  0
 13 43  1  0
 16 44  1  0
 17 45  1  0
 18 46  1  0
 21 47  1  0
 23 48  1  0
 24 49  1  0
 26 50  1  0
 27 51  1  0
 28 52  1  0
 29 53  1  0
M  END
>  <smiles>  (1) 
O=C(NCC(=O)N1C[C@H](O)C[C@H]1COc1cccc(Cl)c1)c1ccc2ccccc2n1

>  <score_type>  (1) 
oracle

>  <origin>  (1) 
autodockgpu

>  <m_score__min__energy>  (1) 
-9.2899999999999991

>  <m_primary>  (1) 
energy

>  <rmsd>  (1) 
2.3541553470643164

>  <m_score__min__rmsd>  (1) 
2.3541553470643164

>  <meeko>  (1) 
{"free_energy": -8.75, "intermolecular_energy": -11.14, "internal_energy": -1.78, "cluster_size": 17, "cluster_id": 1, "rank_in_cluster": 11}

>  <energy>  (1) 
-9.29

>  <cluster_rmsd>  (1) 
0.0

>  <cluster>  (1) 
1

$$$$

     RDKit          3D

 53 56  0  0  0  0  0  0  0  0999 V2000
  139.9580   73.6440  222.5220 O   0  0  0  0  0  0  0  0  0  0  0  0
  140.0250   72.3990  222.3070 C   0  0  0  0  0  0  0  0  0  0  0  0
  140.0920   71.8640  221.0090 N   0  0  0  0  0  0  0  0  0  0  0  0
  140.0840   72.7230  219.8640 C   0  0  0  0  0  0  0  0  0  0  0  0
  141.4410   72.8060  219.2450 C   0  0  0  0  0  0  0  0  0  0  0  0
  141.5060   72.6160  218.0160 O   0  0  0  0  0  0  0  0  0  0  0  0
  142.5230   73.0900  220.0990 N   0  0  0  0  0  0  0  0  0  0  0  0
  143.6250   72.1890  220.4820 C   0  0  0  0  0  0  0  0  0  0  0  0
  144.8270   73.1080  220.4500 C   0  0  2  0  0  0  0  0  0  0  0  0
  145.5420   72.9610  221.6270 O   0  0  0  0  0  0  0  0  0  0  0  0
  144.2590   74.5320  220.3850 C   0  0  0  0  0  0  0  0  0  0  0  0
  142.8500   74.3280  220.8290 C   0  0  1  0  0  0  0  0  0  0  0  0
  141.8790   75.4070  220.4800 C   0  0  0  0  0  0  0  0  0  0  0  0
  141.1600   75.9490  221.4660 O   0  0  0  0  0  0  0  0  0  0  0  0
  140.7710   77.0530  222.0770 C   0  0  0  0  0  0  0  0  0  0  0  0
  139.3940   77.1600  222.3880 C   0  0  0  0  0  0  0  0  0  0  0  0
  138.8610   78.2430  223.0130 C   0  0  0  0  0  0  0  0  0  0  0  0
  139.6720   79.2890  223.3660 C   0  0  0  0  0  0  0  0  0  0  0  0
  141.0040   79.2500  223.0950 C   0  0  0  0  0  0  0  0  0  0  0  0
  142.0600   80.5960  223.5470 Cl  0  0  0  0  0  0  0  0  0  0  0  0
  141.5210   78.1440  222.4630 C   0  0  0  0  0  0  0  0  0  0  0  0
  140.0350   71.4800  223.4670 C   0  0  0  0  0  0  0  0  0  0  0  0
  139.5600   70.1900  223.3430 C   0  0  0  0  0  0  0  0  0  0  0  0
  139.5790   69.3390  224.4480 C   0  0  0  0  0  0  0  0  0  0  0  0
  140.0800   69.8310  225.6440 C   0  0  0  0  0  0  0  0  0  0  0  0
  140.1140   69.0100  226.7680 C   0  0  0  0  0  0  0  0  0  0  0  0
  140.6190   69.5050  227.9680 C   0  0  0  0  0  0  0  0  0  0  0  0
  141.0930   70.8000  228.0830 C   0  0  0  0  0  0  0  0  0  0  0  0
  141.0570   71.6110  226.9670 C   0  0  0  0  0  0  0  0  0  0  0  0
  140.5560   71.1270  225.7620 C   0  0  0  0  0  0  0  0  0  0  0  0
  140.5110   71.8970  224.6610 N   0  0  0  0  0  0  0  0  0  0  0  0
  140.1460   70.8060  220.9180 H   0  0  0  0  0  0  0  0  0  0  0  0
  139.3745   72.3269  219.1226 H   0  0  0  0  0  0  0  0  0  0  0  0
  139.7842   73.7313  220.1856 H   0  0  0  0  0  0  0  0  0  0  0  0
  143.4681   71.7750  221.4890 H   0  0  0  0  0  0  0  0  0  0  0  0
  143.7248   71.3141  219.8228 H   0  0  0  0  0  0  0  0  0  0  0  0
  145.4910   72.8881  219.6011 H   0  0  0  0  0  0  0  0  0  0  0  0
  145.7090   71.9710  221.7110 H   0  0  0  0  0  0  0  0  0  0  0  0
  144.7979   75.2080  221.0651 H   0  0  0  0  0  0  0  0  0  0  0  0
  144.3468   74.9982  219.3925 H   0  0  0  0  0  0  0  0  0  0  0  0
  142.7725   74.3071  221.9261 H   0  0  0  0  0  0  0  0  0  0  0  0
  142.4499   76.2197  220.0072 H   0  0  0  0  0  0  0  0  0  0  0  0
  141.1351   74.9094  219.8405 H   0  0  0  0  0  0  0  0  0  0  0  0
  138.7263   76.3306  222.1118 H   0  0  0  0  0  0  0  0  0  0  0  0
  137.7841   78.2793  223.2342 H   0  0  0  0  0  0  0  0  0  0  0  0
  139.2429   80.1664  223.8721 H   0  0  0  0  0  0  0  0  0  0  0  0
  142.6005   78.1283  222.2520 H   0  0  0  0  0  0  0  0  0  0  0  0
  139.1687   69.8350  222.3782 H   0  0  0  0  0  0  0  0  0  0  0  0
  139.2070   68.3065  224.3729 H   0  0  0  0  0  0  0  0  0  0  0  0
  139.7439   67.9758  226.7086 H   0  0  0  0  0  0  0  0  0  0  0  0
  140.6417   68.8476  228.8497 H   0  0  0  0  0  0  0  0  0  0  0  0
  141.4883   71.1733  229.0392 H   0  0  0  0  0  0  0  0  0  0  0  0
  141.4262   72.6453  227.0301 H   0  0  0  0  0  0  0  0  0  0  0  0
  1  2  2  0
  2  3  1  0
  3  4  1  0
  4  5  1  0
  5  6  2  0
  5  7  1  0
  7  8  1  0
  8  9  1  0
  9 10  1  0
  9 11  1  0
 11 12  1  0
 12 13  1  0
 13 14  1  0
 14 15  1  0
 15 16  2  0
 16 17  1  0
 17 18  2  0
 18 19  1  0
 19 20  1  0
 19 21  2  0
  2 22  1  0
 22 23  2  0
 23 24  1  0
 24 25  2  0
 25 26  1  0
 26 27  2  0
 27 28  1  0
 28 29  2  0
 29 30  1  0
 30 31  2  0
 12  7  1  0
 21 15  1  0
 31 22  1  0
 30 25  1  0
  3 32  1  0
  4 33  1  0
  4 34  1  0
  8 35  1  0
  8 36  1  0
  9 37  1  6
 10 38  1  0
 11 39  1  0
 11 40  1  0
 12 41  1  1
 13 42  1  0
 13 43  1  0
 16 44  1  0
 17 45  1  0
 18 46  1  0
 21 47  1  0
 23 48  1  0
 24 49  1  0
 26 50  1  0
 27 51  1  0
 28 52  1  0
 29 53  1  0
M  END
>  <smiles>  (2) 
O=C(NCC(=O)N1C[C@H](O)C[C@H]1COc1cccc(Cl)c1)c1ccc2ccccc2n1

>  <score_type>  (2) 
oracle

>  <origin>  (2) 
autodockgpu

>  <m_score__min__energy>  (2) 
-9.2899999999999991

>  <m_primary>  (2) 
energy

>  <rmsd>  (2) 
3.2965598860624095

>  <m_score__min__rmsd>  (2) 
3.2965598860624095

>  <meeko>  (2) 
{"free_energy": -8.98, "intermolecular_energy": -11.37, "internal_energy": -1.58, "cluster_size": 2, "cluster_id": 2, "rank_in_cluster": 1}

>  <energy>  (2) 
-9.1

>  <cluster_rmsd>  (2) 
0.96

>  <cluster>  (2) 
1

$$$$

     RDKit          3D

 53 56  0  0  0  0  0  0  0  0999 V2000
  139.5150   71.1620  221.3090 O   0  0  0  0  0  0  0  0  0  0  0  0
  139.6060   71.8590  222.3610 C   0  0  0  0  0  0  0  0  0  0  0  0
  139.5150   73.2620  222.3410 N   0  0  0  0  0  0  0  0  0  0  0  0
  139.3130   73.9640  221.1100 C   0  0  0  0  0  0  0  0  0  0  0  0
  140.3750   73.6230  220.1160 C   0  0  0  0  0  0  0  0  0  0  0  0
  140.0080   73.0060  219.0980 O   0  0  0  0  0  0  0  0  0  0  0  0
  141.6910   74.0240  220.4140 N   0  0  0  0  0  0  0  0  0  0  0  0
  142.9070   73.1900  220.4060 C   0  0  0  0  0  0  0  0  0  0  0  0
  143.9320   74.1130  219.7840 C   0  0  2  0  0  0  0  0  0  0  0  0
  145.0710   74.1230  220.5720 O   0  0  0  0  0  0  0  0  0  0  0  0
  143.3000   75.5110  219.8020 C   0  0  0  0  0  0  0  0  0  0  0  0
  142.2080   75.3470  220.8050 C   0  0  1  0  0  0  0  0  0  0  0  0
  141.1140   76.3620  220.7700 C   0  0  0  0  0  0  0  0  0  0  0  0
  141.4060   77.6150  221.1280 O   0  0  0  0  0  0  0  0  0  0  0  0
  141.2280   78.5880  222.0020 C   0  0  0  0  0  0  0  0  0  0  0  0
  142.3800   79.3070  222.4030 C   0  0  0  0  0  0  0  0  0  0  0  0
  142.3370   80.3300  223.2970 C   0  0  0  0  0  0  0  0  0  0  0  0
  141.1380   80.7000  223.8470 C   0  0  0  0  0  0  0  0  0  0  0  0
  139.9930   80.0500  223.5050 C   0  0  0  0  0  0  0  0  0  0  0  0
  138.4400   80.5200  224.2100 Cl  0  0  0  0  0  0  0  0  0  0  0  0
  140.0610   79.0190  222.5990 C   0  0  0  0  0  0  0  0  0  0  0  0
  139.8150   71.1680  223.6520 C   0  0  0  0  0  0  0  0  0  0  0  0
  139.5120   69.8290  223.7870 C   0  0  0  0  0  0  0  0  0  0  0  0
  139.7160   69.1950  225.0120 C   0  0  0  0  0  0  0  0  0  0  0  0
  140.2240   69.9480  226.0610 C   0  0  0  0  0  0  0  0  0  0  0  0
  140.4410   69.3480  227.2990 C   0  0  0  0  0  0  0  0  0  0  0  0
  140.9510   70.1060  228.3510 C   0  0  0  0  0  0  0  0  0  0  0  0
  141.2530   71.4480  228.2060 C   0  0  0  0  0  0  0  0  0  0  0  0
  141.0360   72.0390  226.9790 C   0  0  0  0  0  0  0  0  0  0  0  0
  140.5270   71.2930  225.9190 C   0  0  0  0  0  0  0  0  0  0  0  0
  140.3080   71.8440  224.7140 N   0  0  0  0  0  0  0  0  0  0  0  0
  139.6020   73.7710  223.2710 H   0  0  0  0  0  0  0  0  0  0  0  0
  138.3318   73.6885  220.6962 H   0  0  0  0  0  0  0  0  0  0  0  0
  139.3577   75.0443  221.3124 H   0  0  0  0  0  0  0  0  0  0  0  0
  143.1986   72.9023  221.4269 H   0  0  0  0  0  0  0  0  0  0  0  0
  142.7846   72.2409  219.8636 H   0  0  0  0  0  0  0  0  0  0  0  0
  144.2059   73.7967  218.7667 H   0  0  0  0  0  0  0  0  0  0  0  0
  145.7770   74.5700  220.0080 H   0  0  0  0  0  0  0  0  0  0  0  0
  144.0255   76.2731  220.1226 H   0  0  0  0  0  0  0  0  0  0  0  0
  142.9487   75.8508  218.8165 H   0  0  0  0  0  0  0  0  0  0  0  0
  142.5840   75.4625  221.8323 H   0  0  0  0  0  0  0  0  0  0  0  0
  140.7343   76.3973  219.7382 H   0  0  0  0  0  0  0  0  0  0  0  0
  140.3989   76.0195  221.5324 H   0  0  0  0  0  0  0  0  0  0  0  0
  143.3522   79.0254  221.9722 H   0  0  0  0  0  0  0  0  0  0  0  0
  143.2603   80.8582  223.5775 H   0  0  0  0  0  0  0  0  0  0  0  0
  141.1010   81.5282  224.5700 H   0  0  0  0  0  0  0  0  0  0  0  0
  139.1258   78.5047  222.3328 H   0  0  0  0  0  0  0  0  0  0  0  0
  139.1113   69.2642  222.9324 H   0  0  0  0  0  0  0  0  0  0  0  0
  139.4810   68.1284  225.1431 H   0  0  0  0  0  0  0  0  0  0  0  0
  140.2112   68.2823  227.4453 H   0  0  0  0  0  0  0  0  0  0  0  0
  141.1183   69.6232  229.3251 H   0  0  0  0  0  0  0  0  0  0  0  0
  141.6562   72.0293  229.0483 H   0  0  0  0  0  0  0  0  0  0  0  0
  141.2662   73.1052  226.8369 H   0  0  0  0  0  0  0  0  0  0  0  0
  1  2  2  0
  2  3  1  0
  3  4  1  0
  4  5  1  0
  5  6  2  0
  5  7  1  0
  7  8  1  0
  8  9  1  0
  9 10  1  0
  9 11  1  0
 11 12  1  0
 12 13  1  0
 13 14  1  0
 14 15  1  0
 15 16  2  0
 16 17  1  0
 17 18  2  0
 18 19  1  0
 19 20  1  0
 19 21  2  0
  2 22  1  0
 22 23  2  0
 23 24  1  0
 24 25  2  0
 25 26  1  0
 26 27  2  0
 27 28  1  0
 28 29  2  0
 29 30  1  0
 30 31  2  0
 12  7  1  0
 21 15  1  0
 31 22  1  0
 30 25  1  0
  3 32  1  0
  4 33  1  0
  4 34  1  0
  8 35  1  0
  8 36  1  0
  9 37  1  6
 10 38  1  0
 11 39  1  0
 11 40  1  0
 12 41  1  1
 13 42  1  0
 13 43  1  0
 16 44  1  0
 17 45  1  0
 18 46  1  0
 21 47  1  0
 23 48  1  0
 24 49  1  0
 26 50  1  0
 27 51  1  0
 28 52  1  0
 29 53  1  0
M  END
>  <smiles>  (3) 
O=C(NCC(=O)N1C[C@H](O)C[C@H]1COc1cccc(Cl)c1)c1ccc2ccccc2n1

>  <score_type>  (3) 
oracle

>  <origin>  (3) 
autodockgpu

>  <m_score__min__energy>  (3) 
-9.2899999999999991

>  <m_primary>  (3) 
energy

>  <rmsd>  (3) 
2.4577332185165894

>  <m_score__min__rmsd>  (3) 
2.4577332185165894

>  <meeko>  (3) 
{"free_energy": -8.79, "intermolecular_energy": -11.18, "internal_energy": -1.41, "cluster_size": 17, "cluster_id": 1, "rank_in_cluster": 10}

>  <energy>  (3) 
-9.09

>  <cluster_rmsd>  (3) 
1.16

>  <cluster>  (3) 
1

$$$$

     RDKit          3D

 53 56  0  0  0  0  0  0  0  0999 V2000
  139.0760   74.8760  222.0900 O   0  0  0  0  0  0  0  0  0  0  0  0
  140.1810   75.4860  221.9970 C   0  0  0  0  0  0  0  0  0  0  0  0
  141.3590   74.8440  221.5770 N   0  0  0  0  0  0  0  0  0  0  0  0
  141.3520   73.4540  221.2370 C   0  0  0  0  0  0  0  0  0  0  0  0
  142.0050   73.2220  219.9130 C   0  0  0  0  0  0  0  0  0  0  0  0
  141.2790   73.3330  218.9070 O   0  0  0  0  0  0  0  0  0  0  0  0
  143.3740   72.8970  219.9170 N   0  0  0  0  0  0  0  0  0  0  0  0
  143.9810   71.5640  219.7480 C   0  0  0  0  0  0  0  0  0  0  0  0
  145.1730   71.8570  218.8630 C   0  0  2  0  0  0  0  0  0  0  0  0
  146.3020   71.2730  219.4140 O   0  0  0  0  0  0  0  0  0  0  0  0
  145.3400   73.3830  218.8820 C   0  0  0  0  0  0  0  0  0  0  0  0
  144.5500   73.7700  220.0860 C   0  0  1  0  0  0  0  0  0  0  0  0
  144.1260   75.1980  220.1740 C   0  0  0  0  0  0  0  0  0  0  0  0
  143.0580   75.5810  219.4710 O   0  0  0  0  0  0  0  0  0  0  0  0
  142.2040   76.5490  219.1900 C   0  0  0  0  0  0  0  0  0  0  0  0
  141.0440   76.1870  218.4640 C   0  0  0  0  0  0  0  0  0  0  0  0
  140.0870   77.0850  218.1070 C   0  0  0  0  0  0  0  0  0  0  0  0
  140.2300   78.4020  218.4560 C   0  0  0  0  0  0  0  0  0  0  0  0
  141.3210   78.8160  219.1540 C   0  0  0  0  0  0  0  0  0  0  0  0
  141.5150   80.5140  219.6090 Cl  0  0  0  0  0  0  0  0  0  0  0  0
  142.2760   77.8900  219.5030 C   0  0  0  0  0  0  0  0  0  0  0  0
  140.2260   76.9240  222.3410 C   0  0  0  0  0  0  0  0  0  0  0  0
  139.0610   77.6520  222.4650 C   0  0  0  0  0  0  0  0  0  0  0  0
  139.1250   79.0070  222.7900 C   0  0  0  0  0  0  0  0  0  0  0  0
  140.3760   79.5760  222.9790 C   0  0  0  0  0  0  0  0  0  0  0  0
  140.4780   80.9260  223.3050 C   0  0  0  0  0  0  0  0  0  0  0  0
  141.7350   81.4950  223.4940 C   0  0  0  0  0  0  0  0  0  0  0  0
  142.8990   80.7570  223.3670 C   0  0  0  0  0  0  0  0  0  0  0  0
  142.7940   79.4200  223.0440 C   0  0  0  0  0  0  0  0  0  0  0  0
  141.5430   78.8400  222.8530 C   0  0  0  0  0  0  0  0  0  0  0  0
  141.4140   77.5400  222.5380 N   0  0  0  0  0  0  0  0  0  0  0  0
  142.2440   75.4310  221.5270 H   0  0  0  0  0  0  0  0  0  0  0  0
  141.8968   72.8921  222.0099 H   0  0  0  0  0  0  0  0  0  0  0  0
  140.3077   73.1138  221.1765 H   0  0  0  0  0  0  0  0  0  0  0  0
  144.2971   71.1456  220.7150 H   0  0  0  0  0  0  0  0  0  0  0  0
  143.2921   70.8190  219.3234 H   0  0  0  0  0  0  0  0  0  0  0  0
  145.0336   71.4687  217.8433 H   0  0  0  0  0  0  0  0  0  0  0  0
  146.1500   71.2960  220.4100 H   0  0  0  0  0  0  0  0  0  0  0  0
  146.3971   73.6675  218.9899 H   0  0  0  0  0  0  0  0  0  0  0  0
  145.0061   73.8758  217.9570 H   0  0  0  0  0  0  0  0  0  0  0  0
  145.1396   73.6575  221.0078 H   0  0  0  0  0  0  0  0  0  0  0  0
  143.9142   75.4112  221.2321 H   0  0  0  0  0  0  0  0  0  0  0  0
  144.9615   75.7594  219.7303 H   0  0  0  0  0  0  0  0  0  0  0  0
  140.9108   75.1337  218.1761 H   0  0  0  0  0  0  0  0  0  0  0  0
  139.2031   76.7556  217.5412 H   0  0  0  0  0  0  0  0  0  0  0  0
  139.4566   79.1299  218.1695 H   0  0  0  0  0  0  0  0  0  0  0  0
  143.1525   78.2412  220.0674 H   0  0  0  0  0  0  0  0  0  0  0  0
  138.0864   77.1665  222.3084 H   0  0  0  0  0  0  0  0  0  0  0  0
  138.2092   79.6075  222.8935 H   0  0  0  0  0  0  0  0  0  0  0  0
  139.5712   81.5393  223.4126 H   0  0  0  0  0  0  0  0  0  0  0  0
  141.8048   82.5621  223.7517 H   0  0  0  0  0  0  0  0  0  0  0  0
  143.8828   81.2247  223.5198 H   0  0  0  0  0  0  0  0  0  0  0  0
  143.7028   78.8095  222.9369 H   0  0  0  0  0  0  0  0  0  0  0  0
  1  2  2  0
  2  3  1  0
  3  4  1  0
  4  5  1  0
  5  6  2  0
  5  7  1  0
  7  8  1  0
  8  9  1  0
  9 10  1  0
  9 11  1  0
 11 12  1  0
 12 13  1  0
 13 14  1  0
 14 15  1  0
 15 16  2  0
 16 17  1  0
 17 18  2  0
 18 19  1  0
 19 20  1  0
 19 21  2  0
  2 22  1  0
 22 23  2  0
 23 24  1  0
 24 25  2  0
 25 26  1  0
 26 27  2  0
 27 28  1  0
 28 29  2  0
 29 30  1  0
 30 31  2  0
 12  7  1  0
 21 15  1  0
 31 22  1  0
 30 25  1  0
  3 32  1  0
  4 33  1  0
  4 34  1  0
  8 35  1  0
  8 36  1  0
  9 37  1  6
 10 38  1  0
 11 39  1  0
 11 40  1  0
 12 41  1  1
 13 42  1  0
 13 43  1  0
 16 44  1  0
 17 45  1  0
 18 46  1  0
 21 47  1  0
 23 48  1  0
 24 49  1  0
 26 50  1  0
 27 51  1  0
 28 52  1  0
 29 53  1  0
M  END
>  <smiles>  (4) 
O=C(NCC(=O)N1C[C@H](O)C[C@H]1COc1cccc(Cl)c1)c1ccc2ccccc2n1

>  <score_type>  (4) 
oracle

>  <origin>  (4) 
autodockgpu

>  <m_score__min__energy>  (4) 
-9.2899999999999991

>  <m_primary>  (4) 
energy

>  <rmsd>  (4) 
7.76726716624925

>  <m_score__min__rmsd>  (4) 
7.76726716624925

>  <meeko>  (4) 
{"free_energy": -6.8, "intermolecular_energy": -9.19, "internal_energy": -3.73, "cluster_size": 21, "cluster_id": 8, "rank_in_cluster": 15}

>  <energy>  (4) 
-9.02

>  <cluster_rmsd>  (4) 
1.14

>  <cluster>  (4) 
1

$$$$

     RDKit          3D

 53 56  0  0  0  0  0  0  0  0999 V2000
  139.0520   74.9460  221.8820 O   0  0  0  0  0  0  0  0  0  0  0  0
  140.1840   75.5050  221.9700 C   0  0  0  0  0  0  0  0  0  0  0  0
  141.3780   74.8340  221.6570 N   0  0  0  0  0  0  0  0  0  0  0  0
  141.3580   73.4710  221.2210 C   0  0  0  0  0  0  0  0  0  0  0  0
  141.6870   73.3660  219.7670 C   0  0  0  0  0  0  0  0  0  0  0  0
  140.7500   73.5540  218.9690 O   0  0  0  0  0  0  0  0  0  0  0  0
  143.0190   73.0650  219.4270 N   0  0  0  0  0  0  0  0  0  0  0  0
  144.1100   74.0160  219.1440 C   0  0  0  0  0  0  0  0  0  0  0  0
  145.2930   73.3730  219.8370 C   0  0  2  0  0  0  0  0  0  0  0  0
  146.3620   73.3260  218.9570 O   0  0  0  0  0  0  0  0  0  0  0  0
  144.8530   71.9400  220.1650 C   0  0  0  0  0  0  0  0  0  0  0  0
  143.6790   71.7570  219.2640 C   0  0  1  0  0  0  0  0  0  0  0  0
  142.7360   70.6540  219.6130 C   0  0  0  0  0  0  0  0  0  0  0  0
  143.1350   69.3970  219.4050 O   0  0  0  0  0  0  0  0  0  0  0  0
  144.1010   68.5930  219.0000 C   0  0  0  0  0  0  0  0  0  0  0  0
  144.8990   67.9950  220.0050 C   0  0  0  0  0  0  0  0  0  0  0  0
  145.9270   67.1510  219.7260 C   0  0  0  0  0  0  0  0  0  0  0  0
  146.2220   66.8500  218.4220 C   0  0  0  0  0  0  0  0  0  0  0  0
  145.4940   67.3910  217.4080 C   0  0  0  0  0  0  0  0  0  0  0  0
  145.8680   67.0080  215.7220 Cl  0  0  0  0  0  0  0  0  0  0  0  0
  144.4600   68.2420  217.7150 C   0  0  0  0  0  0  0  0  0  0  0  0
  140.2440   76.9130  222.4180 C   0  0  0  0  0  0  0  0  0  0  0  0
  139.0860   77.6090  222.7010 C   0  0  0  0  0  0  0  0  0  0  0  0
  139.1640   78.9360  223.1220 C   0  0  0  0  0  0  0  0  0  0  0  0
  140.4200   79.5130  223.2410 C   0  0  0  0  0  0  0  0  0  0  0  0
  140.5360   80.8360  223.6580 C   0  0  0  0  0  0  0  0  0  0  0  0
  141.7990   81.4120  223.7770 C   0  0  0  0  0  0  0  0  0  0  0  0
  142.9540   80.7070  223.4910 C   0  0  0  0  0  0  0  0  0  0  0  0
  142.8350   79.3970  223.0770 C   0  0  0  0  0  0  0  0  0  0  0  0
  141.5800   78.8090  222.9550 C   0  0  0  0  0  0  0  0  0  0  0  0
  141.4370   77.5340  222.5540 N   0  0  0  0  0  0  0  0  0  0  0  0
  142.2860   75.3780  221.7580 H   0  0  0  0  0  0  0  0  0  0  0  0
  142.0980   72.8981  221.7990 H   0  0  0  0  0  0  0  0  0  0  0  0
  140.3469   73.0682  221.3802 H   0  0  0  0  0  0  0  0  0  0  0  0
  144.2855   74.1092  218.0621 H   0  0  0  0  0  0  0  0  0  0  0  0
  143.9013   75.0388  219.4909 H   0  0  0  0  0  0  0  0  0  0  0  0
  145.5962   73.9288  220.7365 H   0  0  0  0  0  0  0  0  0  0  0  0
  146.2160   74.0960  218.3240 H   0  0  0  0  0  0  0  0  0  0  0  0
  145.6487   71.2160  219.9353 H   0  0  0  0  0  0  0  0  0  0  0  0
  144.6222   71.7815  221.2288 H   0  0  0  0  0  0  0  0  0  0  0  0
  143.9914   71.4673  218.2499 H   0  0  0  0  0  0  0  0  0  0  0  0
  142.5029   70.7499  220.6837 H   0  0  0  0  0  0  0  0  0  0  0  0
  141.8887   70.7899  218.9248 H   0  0  0  0  0  0  0  0  0  0  0  0
  144.6772   68.2236  221.0579 H   0  0  0  0  0  0  0  0  0  0  0  0
  146.5191   66.7118  220.5424 H   0  0  0  0  0  0  0  0  0  0  0  0
  147.0530   66.1664  218.1936 H   0  0  0  0  0  0  0  0  0  0  0  0
  143.8816   68.6707  216.8833 H   0  0  0  0  0  0  0  0  0  0  0  0
  138.1067   77.1193  222.5950 H   0  0  0  0  0  0  0  0  0  0  0  0
  138.2544   79.5097  223.3534 H   0  0  0  0  0  0  0  0  0  0  0  0
  139.6358   81.4232  223.8922 H   0  0  0  0  0  0  0  0  0  0  0  0
  141.8799   82.4579  224.1080 H   0  0  0  0  0  0  0  0  0  0  0  0
  143.9424   81.1792  223.5912 H   0  0  0  0  0  0  0  0  0  0  0  0
  143.7375   78.8136  222.8419 H   0  0  0  0  0  0  0  0  0  0  0  0
  1  2  2  0
  2  3  1  0
  3  4  1  0
  4  5  1  0
  5  6  2  0
  5  7  1  0
  7  8  1  0
  8  9  1  0
  9 10  1  0
  9 11  1  0
 11 12  1  0
 12 13  1  0
 13 14  1  0
 14 15  1  0
 15 16  2  0
 16 17  1  0
 17 18  2  0
 18 19  1  0
 19 20  1  0
 19 21  2  0
  2 22  1  0
 22 23  2  0
 23 24  1  0
 24 25  2  0
 25 26  1  0
 26 27  2  0
 27 28  1  0
 28 29  2  0
 29 30  1  0
 30 31  2  0
 12  7  1  0
 21 15  1  0
 31 22  1  0
 30 25  1  0
  3 32  1  0
  4 33  1  0
  4 34  1  0
  8 35  1  0
  8 36  1  0
  9 37  1  1
 10 38  1  0
 11 39  1  0
 11 40  1  0
 12 41  1  6
 13 42  1  0
 13 43  1  0
 16 44  1  0
 17 45  1  0
 18 46  1  0
 21 47  1  0
 23 48  1  0
 24 49  1  0
 26 50  1  0
 27 51  1  0
 28 52  1  0
 29 53  1  0
M  END
>  <smiles>  (5) 
O=C(NCC(=O)N1C[C@H](O)C[C@H]1COc1cccc(Cl)c1)c1ccc2ccccc2n1

>  <score_type>  (5) 
oracle

>  <origin>  (5) 
autodockgpu

>  <m_score__min__energy>  (5) 
-9.2899999999999991

>  <m_primary>  (5) 
energy

>  <rmsd>  (5) 
7.843559264351836

>  <m_score__min__rmsd>  (5) 
7.843559264351836

>  <meeko>  (5) 
{"free_energy": -8.14, "intermolecular_energy": -10.52, "internal_energy": -1.58, "cluster_size": 1, "cluster_id": 4, "rank_in_cluster": 1}

>  <energy>  (5) 
-8.99

>  <cluster_rmsd>  (5) 
1.83

>  <cluster>  (5) 
1

$$$$

     RDKit          3D

 53 56  0  0  0  0  0  0  0  0999 V2000
  139.9590   71.3590  221.2230 O   0  0  0  0  0  0  0  0  0  0  0  0
  139.8630   72.0040  222.3080 C   0  0  0  0  0  0  0  0  0  0  0  0
  139.6650   73.3950  222.3380 N   0  0  0  0  0  0  0  0  0  0  0  0
  139.5650   74.1460  221.1240 C   0  0  0  0  0  0  0  0  0  0  0  0
  139.7230   75.6090  221.3820 C   0  0  0  0  0  0  0  0  0  0  0  0
  139.9930   75.9430  222.5510 O   0  0  0  0  0  0  0  0  0  0  0  0
  139.5540   76.4790  220.2890 N   0  0  0  0  0  0  0  0  0  0  0  0
  138.2850   76.9580  219.7110 C   0  0  0  0  0  0  0  0  0  0  0  0
  138.5860   78.4120  219.4180 C   0  0  2  0  0  0  0  0  0  0  0  0
  138.2070   78.7000  218.1170 O   0  0  0  0  0  0  0  0  0  0  0  0
  140.1100   78.5530  219.5370 C   0  0  0  0  0  0  0  0  0  0  0  0
  140.5640   77.1360  219.4400 C   0  0  1  0  0  0  0  0  0  0  0  0
  141.9370   76.8400  219.9460 C   0  0  0  0  0  0  0  0  0  0  0  0
  142.4910   75.6710  219.6150 O   0  0  0  0  0  0  0  0  0  0  0  0
  143.1640   74.6090  220.0190 C   0  0  0  0  0  0  0  0  0  0  0  0
  142.5130   73.3580  219.9060 C   0  0  0  0  0  0  0  0  0  0  0  0
  143.0910   72.1880  220.2870 C   0  0  0  0  0  0  0  0  0  0  0  0
  144.3590   72.1960  220.8050 C   0  0  0  0  0  0  0  0  0  0  0  0
  145.0410   73.3650  220.9390 C   0  0  0  0  0  0  0  0  0  0  0  0
  146.6800   73.3860  221.6060 Cl  0  0  0  0  0  0  0  0  0  0  0  0
  144.4360   74.5350  220.5470 C   0  0  0  0  0  0  0  0  0  0  0  0
  139.9620   71.2620  223.5830 C   0  0  0  0  0  0  0  0  0  0  0  0
  139.5720   69.9400  223.6570 C   0  0  0  0  0  0  0  0  0  0  0  0
  139.6730   69.2570  224.8690 C   0  0  0  0  0  0  0  0  0  0  0  0
  140.1700   69.9440  225.9680 C   0  0  0  0  0  0  0  0  0  0  0  0
  140.2850   69.2940  227.1940 C   0  0  0  0  0  0  0  0  0  0  0  0
  140.7840   69.9860  228.2950 C   0  0  0  0  0  0  0  0  0  0  0  0
  141.1730   71.3110  228.2120 C   0  0  0  0  0  0  0  0  0  0  0  0
  141.0560   71.9520  226.9960 C   0  0  0  0  0  0  0  0  0  0  0  0
  140.5600   71.2710  225.8870 C   0  0  0  0  0  0  0  0  0  0  0  0
  140.4380   71.8730  224.6920 N   0  0  0  0  0  0  0  0  0  0  0  0
  139.5950   73.8590  223.2930 H   0  0  0  0  0  0  0  0  0  0  0  0
  140.3534   73.8161  220.4315 H   0  0  0  0  0  0  0  0  0  0  0  0
  138.5701   73.9737  220.6875 H   0  0  0  0  0  0  0  0  0  0  0  0
  138.0360   76.4103  218.7901 H   0  0  0  0  0  0  0  0  0  0  0  0
  137.4195   76.8147  220.3746 H   0  0  0  0  0  0  0  0  0  0  0  0
  138.0532   79.0889  220.1021 H   0  0  0  0  0  0  0  0  0  0  0  0
  137.3540   78.1850  217.9710 H   0  0  0  0  0  0  0  0  0  0  0  0
  140.5199   79.1605  218.7167 H   0  0  0  0  0  0  0  0  0  0  0  0
  140.4368   79.0602  220.4568 H   0  0  0  0  0  0  0  0  0  0  0  0
  140.6388   76.8086  218.3925 H   0  0  0  0  0  0  0  0  0  0  0  0
  142.6009   77.6335  219.5723 H   0  0  0  0  0  0  0  0  0  0  0  0
  141.8206   76.7879  221.0386 H   0  0  0  0  0  0  0  0  0  0  0  0
  141.4944   73.3308  219.4917 H   0  0  0  0  0  0  0  0  0  0  0  0
  142.5434   71.2400  220.1799 H   0  0  0  0  0  0  0  0  0  0  0  0
  144.8287   71.2508  221.1146 H   0  0  0  0  0  0  0  0  0  0  0  0
  145.0018   75.4714  220.6615 H   0  0  0  0  0  0  0  0  0  0  0  0
  139.1835   69.4276  222.7645 H   0  0  0  0  0  0  0  0  0  0  0  0
  139.3674   68.2035  224.9516 H   0  0  0  0  0  0  0  0  0  0  0  0
  139.9837   68.2407  227.2924 H   0  0  0  0  0  0  0  0  0  0  0  0
  140.8713   69.4635  229.2590 H   0  0  0  0  0  0  0  0  0  0  0  0
  141.5656   71.8399  229.0930 H   0  0  0  0  0  0  0  0  0  0  0  0
  141.3559   73.0061  226.9019 H   0  0  0  0  0  0  0  0  0  0  0  0
  1  2  2  0
  2  3  1  0
  3  4  1  0
  4  5  1  0
  5  6  2  0
  5  7  1  0
  7  8  1  0
  8  9  1  0
  9 10  1  0
  9 11  1  0
 11 12  1  0
 12 13  1  0
 13 14  1  0
 14 15  1  0
 15 16  2  0
 16 17  1  0
 17 18  2  0
 18 19  1  0
 19 20  1  0
 19 21  2  0
  2 22  1  0
 22 23  2  0
 23 24  1  0
 24 25  2  0
 25 26  1  0
 26 27  2  0
 27 28  1  0
 28 29  2  0
 29 30  1  0
 30 31  2  0
 12  7  1  0
 21 15  1  0
 31 22  1  0
 30 25  1  0
  3 32  1  0
  4 33  1  0
  4 34  1  0
  8 35  1  0
  8 36  1  0
  9 37  1  1
 10 38  1  0
 11 39  1  0
 11 40  1  0
 12 41  1  6
 13 42  1  0
 13 43  1  0
 16 44  1  0
 17 45  1  0
 18 46  1  0
 21 47  1  0
 23 48  1  0
 24 49  1  0
 26 50  1  0
 27 51  1  0
 28 52  1  0
 29 53  1  0
M  END
>  <smiles>  (6) 
O=C(NCC(=O)N1C[C@H](O)C[C@H]1COc1cccc(Cl)c1)c1ccc2ccccc2n1

>  <score_type>  (6) 
oracle

>  <origin>  (6) 
autodockgpu

>  <m_score__min__energy>  (6) 
-9.2899999999999991

>  <m_primary>  (6) 
energy

>  <rmsd>  (6) 
1.795550001710528

>  <m_score__min__rmsd>  (6) 
1.795550001710528

>  <meeko>  (6) 
{"free_energy": -7.5, "intermolecular_energy": -9.88, "internal_energy": -2.53, "cluster_size": 4, "cluster_id": 5, "rank_in_cluster": 3}

>  <energy>  (6) 
-8.95

>  <cluster_rmsd>  (6) 
1.53

>  <cluster>  (6) 
1

$$$$

     RDKit          3D

 53 56  0  0  0  0  0  0  0  0999 V2000
  139.4470   71.1600  221.2160 O   0  0  0  0  0  0  0  0  0  0  0  0
  139.6330   71.8680  222.2480 C   0  0  0  0  0  0  0  0  0  0  0  0
  139.6520   73.2720  222.2000 N   0  0  0  0  0  0  0  0  0  0  0  0
  139.4610   73.9640  220.9620 C   0  0  0  0  0  0  0  0  0  0  0  0
  140.5340   73.6190  219.9820 C   0  0  0  0  0  0  0  0  0  0  0  0
  140.1610   73.2850  218.8410 O   0  0  0  0  0  0  0  0  0  0  0  0
  141.8660   73.6990  220.4280 N   0  0  0  0  0  0  0  0  0  0  0  0
  142.7030   72.6060  220.9570 C   0  0  0  0  0  0  0  0  0  0  0  0
  144.0490   72.8900  220.3250 C   0  0  2  0  0  0  0  0  0  0  0  0
  145.0260   72.8580  221.3060 O   0  0  0  0  0  0  0  0  0  0  0  0
  143.9530   74.3140  219.7620 C   0  0  0  0  0  0  0  0  0  0  0  0
  142.7720   74.8600  220.4920 C   0  0  1  0  0  0  0  0  0  0  0  0
  142.1170   76.0610  219.8940 C   0  0  0  0  0  0  0  0  0  0  0  0
  141.2050   76.7080  220.6250 O   0  0  0  0  0  0  0  0  0  0  0  0
  140.9700   77.6090  221.5610 C   0  0  0  0  0  0  0  0  0  0  0  0
  139.6710   77.6240  222.1220 C   0  0  0  0  0  0  0  0  0  0  0  0
  139.2960   78.5000  223.0910 C   0  0  0  0  0  0  0  0  0  0  0  0
  140.1980   79.4180  223.5610 C   0  0  0  0  0  0  0  0  0  0  0  0
  141.4640   79.4570  223.0640 C   0  0  0  0  0  0  0  0  0  0  0  0
  142.6360   80.6380  223.6640 Cl  0  0  0  0  0  0  0  0  0  0  0  0
  141.8200   78.5610  222.0850 C   0  0  0  0  0  0  0  0  0  0  0  0
  139.8350   71.1870  223.5450 C   0  0  0  0  0  0  0  0  0  0  0  0
  139.5180   69.8520  223.6930 C   0  0  0  0  0  0  0  0  0  0  0  0
  139.7160   69.2290  224.9250 C   0  0  0  0  0  0  0  0  0  0  0  0
  140.2310   69.9860  225.9670 C   0  0  0  0  0  0  0  0  0  0  0  0
  140.4420   69.3970  227.2110 C   0  0  0  0  0  0  0  0  0  0  0  0
  140.9590   70.1590  228.2550 C   0  0  0  0  0  0  0  0  0  0  0  0
  141.2740   71.4970  228.0970 C   0  0  0  0  0  0  0  0  0  0  0  0
  141.0640   72.0780  226.8640 C   0  0  0  0  0  0  0  0  0  0  0  0
  140.5480   71.3270  225.8120 C   0  0  0  0  0  0  0  0  0  0  0  0
  140.3340   71.8690  224.6010 N   0  0  0  0  0  0  0  0  0  0  0  0
  139.8150   73.7910  223.1140 H   0  0  0  0  0  0  0  0  0  0  0  0
  138.4850   73.6825  220.5400 H   0  0  0  0  0  0  0  0  0  0  0  0
  139.5005   75.0459  221.1568 H   0  0  0  0  0  0  0  0  0  0  0  0
  142.7626   72.6463  222.0546 H   0  0  0  0  0  0  0  0  0  0  0  0
  142.3128   71.6036  220.7268 H   0  0  0  0  0  0  0  0  0  0  0  0
  144.3014   72.1545  219.5470 H   0  0  0  0  0  0  0  0  0  0  0  0
  145.1680   71.8800  221.5050 H   0  0  0  0  0  0  0  0  0  0  0  0
  144.8618   74.8929  219.9833 H   0  0  0  0  0  0  0  0  0  0  0  0
  143.8525   74.3511  218.6672 H   0  0  0  0  0  0  0  0  0  0  0  0
  143.0515   75.2328  221.4885 H   0  0  0  0  0  0  0  0  0  0  0  0
  142.9127   76.7809  219.6520 H   0  0  0  0  0  0  0  0  0  0  0  0
  141.5520   75.6670  219.0364 H   0  0  0  0  0  0  0  0  0  0  0  0
  138.9324   76.8947  221.7578 H   0  0  0  0  0  0  0  0  0  0  0  0
  138.2736   78.4722  223.4959 H   0  0  0  0  0  0  0  0  0  0  0  0
  139.8967   80.1281  224.3452 H   0  0  0  0  0  0  0  0  0  0  0  0
  142.8474   78.6055  221.6945 H   0  0  0  0  0  0  0  0  0  0  0  0
  139.1115   69.2826  222.8442 H   0  0  0  0  0  0  0  0  0  0  0  0
  139.4704   68.1661  225.0665 H   0  0  0  0  0  0  0  0  0  0  0  0
  140.2014   68.3352  227.3679 H   0  0  0  0  0  0  0  0  0  0  0  0
  141.1218   69.6838  229.2336 H   0  0  0  0  0  0  0  0  0  0  0  0
  141.6818   72.0827  228.9340 H   0  0  0  0  0  0  0  0  0  0  0  0
  141.3055   73.1402  226.7113 H   0  0  0  0  0  0  0  0  0  0  0  0
  1  2  2  0
  2  3  1  0
  3  4  1  0
  4  5  1  0
  5  6  2  0
  5  7  1  0
  7  8  1  0
  8  9  1  0
  9 10  1  0
  9 11  1  0
 11 12  1  0
 12 13  1  0
 13 14  1  0
 14 15  1  0
 15 16  2  0
 16 17  1  0
 17 18  2  0
 18 19  1  0
 19 20  1  0
 19 21  2  0
  2 22  1  0
 22 23  2  0
 23 24  1  0
 24 25  2  0
 25 26  1  0
 26 27  2  0
 27 28  1  0
 28 29  2  0
 29 30  1  0
 30 31  2  0
 12  7  1  0
 21 15  1  0
 31 22  1  0
 30 25  1  0
  3 32  1  0
  4 33  1  0
  4 34  1  0
  8 35  1  0
  8 36  1  0
  9 37  1  6
 10 38  1  0
 11 39  1  0
 11 40  1  0
 12 41  1  1
 13 42  1  0
 13 43  1  0
 16 44  1  0
 17 45  1  0
 18 46  1  0
 21 47  1  0
 23 48  1  0
 24 49  1  0
 26 50  1  0
 27 51  1  0
 28 52  1  0
 29 53  1  0
M  END
>  <smiles>  (7) 
O=C(NCC(=O)N1C[C@H](O)C[C@H]1COc1cccc(Cl)c1)c1ccc2ccccc2n1

>  <score_type>  (7) 
oracle

>  <origin>  (7) 
autodockgpu

>  <m_score__min__energy>  (7) 
-9.2899999999999991

>  <m_primary>  (7) 
energy

>  <rmsd>  (7) 
2.85113687541804

>  <m_score__min__rmsd>  (7) 
2.85113687541804

>  <meeko>  (7) 
{"free_energy": -8.69, "intermolecular_energy": -11.08, "internal_energy": -1.97, "cluster_size": 17, "cluster_id": 1, "rank_in_cluster": 12}

>  <energy>  (7) 
-8.91

>  <cluster_rmsd>  (7) 
1.02

>  <cluster>  (7) 
1

$$$$

     RDKit          3D

 53 56  0  0  0  0  0  0  0  0999 V2000
  139.7650   74.3120  222.3430 O   0  0  0  0  0  0  0  0  0  0  0  0
  140.3540   75.2100  221.6750 C   0  0  0  0  0  0  0  0  0  0  0  0
  141.0800   74.9210  220.5060 N   0  0  0  0  0  0  0  0  0  0  0  0
  141.1820   73.5780  220.0230 C   0  0  0  0  0  0  0  0  0  0  0  0
  142.0310   72.7450  220.9270 C   0  0  0  0  0  0  0  0  0  0  0  0
  141.4810   72.2960  221.9510 O   0  0  0  0  0  0  0  0  0  0  0  0
  143.3700   72.5400  220.5470 N   0  0  0  0  0  0  0  0  0  0  0  0
  144.0400   71.2540  220.2770 C   0  0  0  0  0  0  0  0  0  0  0  0
  144.8910   71.5760  219.0670 C   0  0  2  0  0  0  0  0  0  0  0  0
  146.1850   71.1360  219.2930 O   0  0  0  0  0  0  0  0  0  0  0  0
  144.8960   73.1060  218.9570 C   0  0  0  0  0  0  0  0  0  0  0  0
  144.4470   73.5200  220.3180 C   0  0  1  0  0  0  0  0  0  0  0  0
  143.9190   74.9090  220.4520 C   0  0  0  0  0  0  0  0  0  0  0  0
  143.4740   75.5210  219.3520 O   0  0  0  0  0  0  0  0  0  0  0  0
  143.0990   76.6560  218.7890 C   0  0  0  0  0  0  0  0  0  0  0  0
  143.2860   76.7670  217.3900 C   0  0  0  0  0  0  0  0  0  0  0  0
  142.9460   77.8800  216.6870 C   0  0  0  0  0  0  0  0  0  0  0  0
  142.3970   78.9520  217.3390 C   0  0  0  0  0  0  0  0  0  0  0  0
  142.1910   78.9100  218.6830 C   0  0  0  0  0  0  0  0  0  0  0  0
  141.4830   80.2900  219.5340 Cl  0  0  0  0  0  0  0  0  0  0  0  0
  142.5430   77.7740  219.3730 C   0  0  0  0  0  0  0  0  0  0  0  0
  140.2700   76.6100  222.1450 C   0  0  0  0  0  0  0  0  0  0  0  0
  139.0480   77.1800  222.4370 C   0  0  0  0  0  0  0  0  0  0  0  0
  138.9900   78.5010  222.8790 C   0  0  0  0  0  0  0  0  0  0  0  0
  140.1820   79.2000  223.0090 C   0  0  0  0  0  0  0  0  0  0  0  0
  140.1630   80.5220  223.4470 C   0  0  0  0  0  0  0  0  0  0  0  0
  141.3600   81.2220  223.5770 C   0  0  0  0  0  0  0  0  0  0  0  0
  142.5810   80.6420  223.2820 C   0  0  0  0  0  0  0  0  0  0  0  0
  142.5960   79.3330  222.8470 C   0  0  0  0  0  0  0  0  0  0  0  0
  141.4070   78.6230  222.7140 C   0  0  0  0  0  0  0  0  0  0  0  0
  141.3950   77.3470  222.2930 N   0  0  0  0  0  0  0  0  0  0  0  0
  141.5450   75.7360  220.0050 H   0  0  0  0  0  0  0  0  0  0  0  0
  140.1753   73.1380  219.9691 H   0  0  0  0  0  0  0  0  0  0  0  0
  141.6481   73.5991  219.0269 H   0  0  0  0  0  0  0  0  0  0  0  0
  144.6621   70.9432  221.1293 H   0  0  0  0  0  0  0  0  0  0  0  0
  143.3406   70.4211  220.1123 H   0  0  0  0  0  0  0  0  0  0  0  0
  144.5065   71.0973  218.1543 H   0  0  0  0  0  0  0  0  0  0  0  0
  146.2860   71.1220  220.2960 H   0  0  0  0  0  0  0  0  0  0  0  0
  145.9041   73.4869  218.7363 H   0  0  0  0  0  0  0  0  0  0  0  0
  144.2620   73.4929  218.1456 H   0  0  0  0  0  0  0  0  0  0  0  0
  145.2845   73.5322  221.0311 H   0  0  0  0  0  0  0  0  0  0  0  0
  143.0836   74.8734  221.1667 H   0  0  0  0  0  0  0  0  0  0  0  0
  144.7901   75.5043  220.7632 H   0  0  0  0  0  0  0  0  0  0  0  0
  143.7252   75.9162  216.8485 H   0  0  0  0  0  0  0  0  0  0  0  0
  143.1110   77.9193  215.6002 H   0  0  0  0  0  0  0  0  0  0  0  0
  142.1207   79.8532  216.7720 H   0  0  0  0  0  0  0  0  0  0  0  0
  142.3701   77.7562  220.4592 H   0  0  0  0  0  0  0  0  0  0  0  0
  138.1237   76.5949  222.3216 H   0  0  0  0  0  0  0  0  0  0  0  0
  138.0269   78.9758  223.1179 H   0  0  0  0  0  0  0  0  0  0  0  0
  139.2076   81.0106  223.6890 H   0  0  0  0  0  0  0  0  0  0  0  0
  141.3339   82.2655  223.9240 H   0  0  0  0  0  0  0  0  0  0  0  0
  143.5163   81.2104  223.3916 H   0  0  0  0  0  0  0  0  0  0  0  0
  143.5530   78.8481  222.6040 H   0  0  0  0  0  0  0  0  0  0  0  0
  1  2  2  0
  2  3  1  0
  3  4  1  0
  4  5  1  0
  5  6  2  0
  5  7  1  0
  7  8  1  0
  8  9  1  0
  9 10  1  0
  9 11  1  0
 11 12  1  0
 12 13  1  0
 13 14  1  0
 14 15  1  0
 15 16  2  0
 16 17  1  0
 17 18  2  0
 18 19  1  0
 19 20  1  0
 19 21  2  0
  2 22  1  0
 22 23  2  0
 23 24  1  0
 24 25  2  0
 25 26  1  0
 26 27  2  0
 27 28  1  0
 28 29  2  0
 29 30  1  0
 30 31  2  0
 12  7  1  0
 21 15  1  0
 31 22  1  0
 30 25  1  0
  3 32  1  0
  4 33  1  0
  4 34  1  0
  8 35  1  0
  8 36  1  0
  9 37  1  6
 10 38  1  0
 11 39  1  0
 11 40  1  0
 12 41  1  1
 13 42  1  0
 13 43  1  0
 16 44  1  0
 17 45  1  0
 18 46  1  0
 21 47  1  0
 23 48  1  0
 24 49  1  0
 26 50  1  0
 27 51  1  0
 28 52  1  0
 29 53  1  0
M  END
>  <smiles>  (8) 
O=C(NCC(=O)N1C[C@H](O)C[C@H]1COc1cccc(Cl)c1)c1ccc2ccccc2n1

>  <score_type>  (8) 
oracle

>  <origin>  (8) 
autodockgpu

>  <m_score__min__energy>  (8) 
-9.2899999999999991

>  <m_primary>  (8) 
energy

>  <rmsd>  (8) 
7.607293360491423

>  <m_score__min__rmsd>  (8) 
7.607293360491423

>  <meeko>  (8) 
{"free_energy": -7.52, "intermolecular_energy": -9.9, "internal_energy": -2.98, "cluster_size": 21, "cluster_id": 8, "rank_in_cluster": 2}

>  <energy>  (8) 
-8.88

>  <cluster_rmsd>  (8) 
1.17

>  <cluster>  (8) 
1

$$$$

     RDKit          3D

 53 56  0  0  0  0  0  0  0  0999 V2000
  139.1520   74.7540  222.0320 O   0  0  0  0  0  0  0  0  0  0  0  0
  140.2440   75.3910  221.9820 C   0  0  0  0  0  0  0  0  0  0  0  0
  141.4500   74.7830  221.5920 N   0  0  0  0  0  0  0  0  0  0  0  0
  141.4870   73.3980  221.2320 C   0  0  0  0  0  0  0  0  0  0  0  0
  142.1530   73.2040  219.9080 C   0  0  0  0  0  0  0  0  0  0  0  0
  141.4740   73.4740  218.8990 O   0  0  0  0  0  0  0  0  0  0  0  0
  143.4790   72.7350  219.9160 N   0  0  0  0  0  0  0  0  0  0  0  0
  143.9510   71.3710  219.6160 C   0  0  0  0  0  0  0  0  0  0  0  0
  145.2020   71.6280  218.8040 C   0  0  2  0  0  0  0  0  0  0  0  0
  146.2400   70.8690  219.3180 O   0  0  0  0  0  0  0  0  0  0  0  0
  145.5260   73.1150  218.9990 C   0  0  0  0  0  0  0  0  0  0  0  0
  144.7320   73.4520  220.2160 C   0  0  1  0  0  0  0  0  0  0  0  0
  144.4560   74.9000  220.4520 C   0  0  0  0  0  0  0  0  0  0  0  0
  143.4890   75.4800  219.7370 O   0  0  0  0  0  0  0  0  0  0  0  0
  143.0700   76.5660  219.1130 C   0  0  0  0  0  0  0  0  0  0  0  0
  143.3320   76.6460  217.7240 C   0  0  0  0  0  0  0  0  0  0  0  0
  142.9590   77.7080  216.9630 C   0  0  0  0  0  0  0  0  0  0  0  0
  142.2990   78.7590  217.5430 C   0  0  0  0  0  0  0  0  0  0  0  0
  142.0160   78.7450  218.8740 C   0  0  0  0  0  0  0  0  0  0  0  0
  141.1640   80.0970  219.6320 Cl  0  0  0  0  0  0  0  0  0  0  0  0
  142.4040   77.6600  219.6230 C   0  0  0  0  0  0  0  0  0  0  0  0
  140.2440   76.8240  222.3470 C   0  0  0  0  0  0  0  0  0  0  0  0
  139.0560   77.5140  222.4780 C   0  0  0  0  0  0  0  0  0  0  0  0
  139.0780   78.8650  222.8240 C   0  0  0  0  0  0  0  0  0  0  0  0
  140.3100   79.4700  223.0240 C   0  0  0  0  0  0  0  0  0  0  0  0
  140.3700   80.8180  223.3700 C   0  0  0  0  0  0  0  0  0  0  0  0
  141.6080   81.4230  223.5710 C   0  0  0  0  0  0  0  0  0  0  0  0
  142.7940   80.7230  223.4370 C   0  0  0  0  0  0  0  0  0  0  0  0
  142.7310   79.3880  223.0940 C   0  0  0  0  0  0  0  0  0  0  0  0
  141.5000   78.7720  222.8910 C   0  0  0  0  0  0  0  0  0  0  0  0
  141.4120   77.4730  222.5570 N   0  0  0  0  0  0  0  0  0  0  0  0
  142.3220   75.3910  221.5770 H   0  0  0  0  0  0  0  0  0  0  0  0
  142.0450   72.8420  221.9998 H   0  0  0  0  0  0  0  0  0  0  0  0
  140.4537   73.0276  221.1610 H   0  0  0  0  0  0  0  0  0  0  0  0
  144.1825   70.8186  220.5386 H   0  0  0  0  0  0  0  0  0  0  0  0
  143.2063   70.7551  219.0906 H   0  0  0  0  0  0  0  0  0  0  0  0
  145.0645   71.3705  217.7434 H   0  0  0  0  0  0  0  0  0  0  0  0
  146.2490   71.0700  220.3060 H   0  0  0  0  0  0  0  0  0  0  0  0
  146.6017   73.2701  219.1687 H   0  0  0  0  0  0  0  0  0  0  0  0
  145.2832   73.7386  218.1260 H   0  0  0  0  0  0  0  0  0  0  0  0
  145.2686   73.1767  221.1359 H   0  0  0  0  0  0  0  0  0  0  0  0
  144.1903   75.0132  221.5134 H   0  0  0  0  0  0  0  0  0  0  0  0
  145.3766   75.4100  220.1321 H   0  0  0  0  0  0  0  0  0  0  0  0
  143.8607   75.8118  217.2397 H   0  0  0  0  0  0  0  0  0  0  0  0
  143.1858   77.7238  215.8868 H   0  0  0  0  0  0  0  0  0  0  0  0
  141.9958   79.6198  216.9289 H   0  0  0  0  0  0  0  0  0  0  0  0
  142.1682   77.6648  220.6974 H   0  0  0  0  0  0  0  0  0  0  0  0
  138.0972   77.0014  222.3105 H   0  0  0  0  0  0  0  0  0  0  0  0
  138.1439   79.4351  222.9352 H   0  0  0  0  0  0  0  0  0  0  0  0
  139.4444   81.4014  223.4838 H   0  0  0  0  0  0  0  0  0  0  0  0
  141.6441   82.4879  223.8441 H   0  0  0  0  0  0  0  0  0  0  0  0
  143.7626   81.2183  223.5998 H   0  0  0  0  0  0  0  0  0  0  0  0
  143.6586   78.8078  222.9805 H   0  0  0  0  0  0  0  0  0  0  0  0
  1  2  2  0
  2  3  1  0
  3  4  1  0
  4  5  1  0
  5  6  2  0
  5  7  1  0
  7  8  1  0
  8  9  1  0
  9 10  1  0
  9 11  1  0
 11 12  1  0
 12 13  1  0
 13 14  1  0
 14 15  1  0
 15 16  2  0
 16 17  1  0
 17 18  2  0
 18 19  1  0
 19 20  1  0
 19 21  2  0
  2 22  1  0
 22 23  2  0
 23 24  1  0
 24 25  2  0
 25 26  1  0
 26 27  2  0
 27 28  1  0
 28 29  2  0
 29 30  1  0
 30 31  2  0
 12  7  1  0
 21 15  1  0
 31 22  1  0
 30 25  1  0
  3 32  1  0
  4 33  1  0
  4 34  1  0
  8 35  1  0
  8 36  1  0
  9 37  1  6
 10 38  1  0
 11 39  1  0
 11 40  1  0
 12 41  1  1
 13 42  1  0
 13 43  1  0
 16 44  1  0
 17 45  1  0
 18 46  1  0
 21 47  1  0
 23 48  1  0
 24 49  1  0
 26 50  1  0
 27 51  1  0
 28 52  1  0
 29 53  1  0
M  END
>  <smiles>  (9) 
O=C(NCC(=O)N1C[C@H](O)C[C@H]1COc1cccc(Cl)c1)c1ccc2ccccc2n1

>  <score_type>  (9) 
oracle

>  <origin>  (9) 
autodockgpu

>  <m_score__min__energy>  (9) 
-9.2899999999999991

>  <m_primary>  (9) 
energy

>  <rmsd>  (9) 
7.763486398975868

>  <m_score__min__rmsd>  (9) 
7.763486398975868

>  <meeko>  (9) 
{"free_energy": -7.47, "intermolecular_energy": -9.86, "internal_energy": -3.44, "cluster_size": 21, "cluster_id": 8, "rank_in_cluster": 5}

>  <energy>  (9) 
-8.8

>  <cluster_rmsd>  (9) 
1.49

>  <cluster>  (9) 
1

$$$$

     RDKit          3D

 53 56  0  0  0  0  0  0  0  0999 V2000
  140.5790   71.3410  221.2920 O   0  0  0  0  0  0  0  0  0  0  0  0
  140.2180   71.9550  222.3370 C   0  0  0  0  0  0  0  0  0  0  0  0
  139.9530   73.3360  222.3410 N   0  0  0  0  0  0  0  0  0  0  0  0
  140.0860   74.1090  221.1450 C   0  0  0  0  0  0  0  0  0  0  0  0
  141.1230   75.1730  221.3040 C   0  0  0  0  0  0  0  0  0  0  0  0
  140.9970   75.9320  222.2840 O   0  0  0  0  0  0  0  0  0  0  0  0
  142.1460   75.2260  220.3390 N   0  0  0  0  0  0  0  0  0  0  0  0
  142.9790   74.1120  219.8520 C   0  0  0  0  0  0  0  0  0  0  0  0
  143.0630   74.3910  218.3670 C   0  0  2  0  0  0  0  0  0  0  0  0
  144.3880   74.3260  217.9670 O   0  0  0  0  0  0  0  0  0  0  0  0
  142.5570   75.8280  218.1840 C   0  0  0  0  0  0  0  0  0  0  0  0
  142.6580   76.3740  219.5690 C   0  0  1  0  0  0  0  0  0  0  0  0
  141.8530   77.5960  219.8630 C   0  0  0  0  0  0  0  0  0  0  0  0
  142.2070   78.3440  220.9110 O   0  0  0  0  0  0  0  0  0  0  0  0
  141.8230   79.1900  221.8490 C   0  0  0  0  0  0  0  0  0  0  0  0
  142.8340   79.9750  222.4550 C   0  0  0  0  0  0  0  0  0  0  0  0
  142.5760   80.8810  223.4350 C   0  0  0  0  0  0  0  0  0  0  0  0
  141.2900   81.0620  223.8690 C   0  0  0  0  0  0  0  0  0  0  0  0
  140.2710   80.3400  223.3290 C   0  0  0  0  0  0  0  0  0  0  0  0
  138.6070   80.5670  223.8840 Cl  0  0  0  0  0  0  0  0  0  0  0  0
  140.5560   79.4290  222.3400 C   0  0  0  0  0  0  0  0  0  0  0  0
  140.0710   71.1890  223.5930 C   0  0  0  0  0  0  0  0  0  0  0  0
  139.5540   69.9090  223.5770 C   0  0  0  0  0  0  0  0  0  0  0  0
  139.4230   69.2030  224.7720 C   0  0  0  0  0  0  0  0  0  0  0  0
  139.8240   69.8230  225.9470 C   0  0  0  0  0  0  0  0  0  0  0  0
  139.7080   69.1480  227.1590 C   0  0  0  0  0  0  0  0  0  0  0  0
  140.1110   69.7730  228.3370 C   0  0  0  0  0  0  0  0  0  0  0  0
  140.6280   71.0560  228.3430 C   0  0  0  0  0  0  0  0  0  0  0  0
  140.7410   71.7220  227.1400 C   0  0  0  0  0  0  0  0  0  0  0  0
  140.3430   71.1080  225.9570 C   0  0  0  0  0  0  0  0  0  0  0  0
  140.4430   71.7360  224.7720 N   0  0  0  0  0  0  0  0  0  0  0  0
  139.6550   73.7740  223.2640 H   0  0  0  0  0  0  0  0  0  0  0  0
  140.3772   73.4443  220.3183 H   0  0  0  0  0  0  0  0  0  0  0  0
  139.1207   74.5914  220.9319 H   0  0  0  0  0  0  0  0  0  0  0  0
  143.9759   74.1284  220.3166 H   0  0  0  0  0  0  0  0  0  0  0  0
  142.5671   73.1200  220.0893 H   0  0  0  0  0  0  0  0  0  0  0  0
  142.4778   73.6683  217.7794 H   0  0  0  0  0  0  0  0  0  0  0  0
  144.7890   75.2090  218.2420 H   0  0  0  0  0  0  0  0  0  0  0  0
  143.1948   76.3900  217.4858 H   0  0  0  0  0  0  0  0  0  0  0  0
  141.5453   75.8898  217.7567 H   0  0  0  0  0  0  0  0  0  0  0  0
  143.6773   76.7222  219.7921 H   0  0  0  0  0  0  0  0  0  0  0  0
  141.8983   78.2394  218.9720 H   0  0  0  0  0  0  0  0  0  0  0  0
  140.8563   77.2113  220.1249 H   0  0  0  0  0  0  0  0  0  0  0  0
  143.8731   79.8460  222.1181 H   0  0  0  0  0  0  0  0  0  0  0  0
  143.3961   81.4657  223.8771 H   0  0  0  0  0  0  0  0  0  0  0  0
  141.0791   81.7966  224.6601 H   0  0  0  0  0  0  0  0  0  0  0  0
  139.7211   78.8541  221.9129 H   0  0  0  0  0  0  0  0  0  0  0  0
  139.2470   69.4486  222.6263 H   0  0  0  0  0  0  0  0  0  0  0  0
  139.0130   68.1823  224.7832 H   0  0  0  0  0  0  0  0  0  0  0  0
  139.3003   68.1267  227.1864 H   0  0  0  0  0  0  0  0  0  0  0  0
  140.0154   69.2309  229.2894 H   0  0  0  0  0  0  0  0  0  0  0  0
  140.9412   71.5333  229.2833 H   0  0  0  0  0  0  0  0  0  0  0  0
  141.1479   72.7437  227.1163 H   0  0  0  0  0  0  0  0  0  0  0  0
  1  2  2  0
  2  3  1  0
  3  4  1  0
  4  5  1  0
  5  6  2  0
  5  7  1  0
  7  8  1  0
  8  9  1  0
  9 10  1  0
  9 11  1  0
 11 12  1  0
 12 13  1  0
 13 14  1  0
 14 15  1  0
 15 16  2  0
 16 17  1  0
 17 18  2  0
 18 19  1  0
 19 20  1  0
 19 21  2  0
  2 22  1  0
 22 23  2  0
 23 24  1  0
 24 25  2  0
 25 26  1  0
 26 27  2  0
 27 28  1  0
 28 29  2  0
 29 30  1  0
 30 31  2  0
 12  7  1  0
 21 15  1  0
 31 22  1  0
 30 25  1  0
  3 32  1  0
  4 33  1  0
  4 34  1  0
  8 35  1  0
  8 36  1  0
  9 37  1  6
 10 38  1  0
 11 39  1  0
 11 40  1  0
 12 41  1  1
 13 42  1  0
 13 43  1  0
 16 44  1  0
 17 45  1  0
 18 46  1  0
 21 47  1  0
 23 48  1  0
 24 49  1  0
 26 50  1  0
 27 51  1  0
 28 52  1  0
 29 53  1  0
M  END
>  <smiles>  (10) 
O=C(NCC(=O)N1C[C@H](O)C[C@H]1COc1cccc(Cl)c1)c1ccc2ccccc2n1

>  <score_type>  (10) 
oracle

>  <origin>  (10) 
autodockgpu

>  <m_score__min__energy>  (10) 
-9.2899999999999991

>  <m_primary>  (10) 
energy

>  <rmsd>  (10) 
2.097235753339801

>  <m_score__min__rmsd>  (10) 
2.097235753339801

>  <meeko>  (10) 
{"free_energy": -9.1, "intermolecular_energy": -11.49, "internal_energy": -1.61, "cluster_size": 17, "cluster_id": 1, "rank_in_cluster": 2}

>  <energy>  (10) 
-8.79

>  <cluster_rmsd>  (10) 
1.51

>  <cluster>  (10) 
1

$$$$

     RDKit          3D

 53 56  0  0  0  0  0  0  0  0999 V2000
  140.7840   71.5910  221.3370 O   0  0  0  0  0  0  0  0  0  0  0  0
  140.3160   72.1720  222.3590 C   0  0  0  0  0  0  0  0  0  0  0  0
  139.9230   73.5210  222.3410 N   0  0  0  0  0  0  0  0  0  0  0  0
  140.0400   74.3000  221.1460 C   0  0  0  0  0  0  0  0  0  0  0  0
  141.0990   75.3450  221.2860 C   0  0  0  0  0  0  0  0  0  0  0  0
  141.0160   76.0930  222.2790 O   0  0  0  0  0  0  0  0  0  0  0  0
  142.0930   75.3940  220.2910 N   0  0  0  0  0  0  0  0  0  0  0  0
  143.0880   74.3560  219.9650 C   0  0  0  0  0  0  0  0  0  0  0  0
  143.1150   74.3920  218.4520 C   0  0  2  0  0  0  0  0  0  0  0  0
  144.4300   74.4670  218.0230 O   0  0  0  0  0  0  0  0  0  0  0  0
  142.3850   75.6820  218.0540 C   0  0  0  0  0  0  0  0  0  0  0  0
  142.4100   76.4610  219.3260 C   0  0  1  0  0  0  0  0  0  0  0  0
  141.4230   77.5750  219.4430 C   0  0  0  0  0  0  0  0  0  0  0  0
  141.7180   78.5920  220.2570 O   0  0  0  0  0  0  0  0  0  0  0  0
  141.4670   79.2090  221.3970 C   0  0  0  0  0  0  0  0  0  0  0  0
  142.5840   79.6510  222.1450 C   0  0  0  0  0  0  0  0  0  0  0  0
  142.4670   80.2970  223.3350 C   0  0  0  0  0  0  0  0  0  0  0  0
  141.2230   80.5410  223.8540 C   0  0  0  0  0  0  0  0  0  0  0  0
  140.1070   80.1420  223.1860 C   0  0  0  0  0  0  0  0  0  0  0  0
  138.4960   80.4530  223.8470 Cl  0  0  0  0  0  0  0  0  0  0  0  0
  140.2510   79.4910  221.9840 C   0  0  0  0  0  0  0  0  0  0  0  0
  140.1810   71.3990  223.6130 C   0  0  0  0  0  0  0  0  0  0  0  0
  139.5800   70.1570  223.6090 C   0  0  0  0  0  0  0  0  0  0  0  0
  139.4620   69.4430  224.8010 C   0  0  0  0  0  0  0  0  0  0  0  0
  139.9600   70.0190  225.9610 C   0  0  0  0  0  0  0  0  0  0  0  0
  139.8600   69.3360  227.1700 C   0  0  0  0  0  0  0  0  0  0  0  0
  140.3620   69.9160  228.3320 C   0  0  0  0  0  0  0  0  0  0  0  0
  140.9630   71.1620  228.3270 C   0  0  0  0  0  0  0  0  0  0  0  0
  141.0600   71.8360  227.1280 C   0  0  0  0  0  0  0  0  0  0  0  0
  140.5630   71.2670  225.9590 C   0  0  0  0  0  0  0  0  0  0  0  0
  140.6460   71.9030  224.7780 N   0  0  0  0  0  0  0  0  0  0  0  0
  139.5400   73.9320  223.2440 H   0  0  0  0  0  0  0  0  0  0  0  0
  140.2992   73.6359  220.3083 H   0  0  0  0  0  0  0  0  0  0  0  0
  139.0782   74.8003  220.9597 H   0  0  0  0  0  0  0  0  0  0  0  0
  144.0735   74.6037  220.3862 H   0  0  0  0  0  0  0  0  0  0  0  0
  142.8399   73.3662  220.3758 H   0  0  0  0  0  0  0  0  0  0  0  0
  142.6478   73.4993  218.0107 H   0  0  0  0  0  0  0  0  0  0  0  0
  144.7940   75.3100  218.4390 H   0  0  0  0  0  0  0  0  0  0  0  0
  142.9190   76.2114  217.2511 H   0  0  0  0  0  0  0  0  0  0  0  0
  141.3726   75.5133  217.6584 H   0  0  0  0  0  0  0  0  0  0  0  0
  143.3632   76.9950  219.4533 H   0  0  0  0  0  0  0  0  0  0  0  0
  141.2810   77.9932  218.4355 H   0  0  0  0  0  0  0  0  0  0  0  0
  140.5357   77.1090  219.8965 H   0  0  0  0  0  0  0  0  0  0  0  0
  143.5916   79.4634  221.7456 H   0  0  0  0  0  0  0  0  0  0  0  0
  143.3664   80.6222  223.8785 H   0  0  0  0  0  0  0  0  0  0  0  0
  141.1257   81.0630  224.8173 H   0  0  0  0  0  0  0  0  0  0  0  0
  139.3388   79.1749  221.4568 H   0  0  0  0  0  0  0  0  0  0  0  0
  139.1958   69.7321  222.6700 H   0  0  0  0  0  0  0  0  0  0  0  0
  138.9874   68.4509  224.8211 H   0  0  0  0  0  0  0  0  0  0  0  0
  139.3870   68.3436  227.2070 H   0  0  0  0  0  0  0  0  0  0  0  0
  140.2783   69.3674  229.2818 H   0  0  0  0  0  0  0  0  0  0  0  0
  141.3535   71.6037  229.2557 H   0  0  0  0  0  0  0  0  0  0  0  0
  141.5327   72.8287  227.0952 H   0  0  0  0  0  0  0  0  0  0  0  0
  1  2  2  0
  2  3  1  0
  3  4  1  0
  4  5  1  0
  5  6  2  0
  5  7  1  0
  7  8  1  0
  8  9  1  0
  9 10  1  0
  9 11  1  0
 11 12  1  0
 12 13  1  0
 13 14  1  0
 14 15  1  0
 15 16  2  0
 16 17  1  0
 17 18  2  0
 18 19  1  0
 19 20  1  0
 19 21  2  0
  2 22  1  0
 22 23  2  0
 23 24  1  0
 24 25  2  0
 25 26  1  0
 26 27  2  0
 27 28  1  0
 28 29  2  0
 29 30  1  0
 30 31  2  0
 12  7  1  0
 21 15  1  0
 31 22  1  0
 30 25  1  0
  3 32  1  0
  4 33  1  0
  4 34  1  0
  8 35  1  0
  8 36  1  0
  9 37  1  6
 10 38  1  0
 11 39  1  0
 11 40  1  0
 12 41  1  1
 13 42  1  0
 13 43  1  0
 16 44  1  0
 17 45  1  0
 18 46  1  0
 21 47  1  0
 23 48  1  0
 24 49  1  0
 26 50  1  0
 27 51  1  0
 28 52  1  0
 29 53  1  0
M  END
>  <smiles>  (11) 
O=C(NCC(=O)N1C[C@H](O)C[C@H]1COc1cccc(Cl)c1)c1ccc2ccccc2n1

>  <score_type>  (11) 
oracle

>  <origin>  (11) 
autodockgpu

>  <m_score__min__energy>  (11) 
-9.2899999999999991

>  <m_primary>  (11) 
energy

>  <rmsd>  (11) 
2.186196840057505

>  <m_score__min__rmsd>  (11) 
2.186196840057505

>  <meeko>  (11) 
{"free_energy": -8.91, "intermolecular_energy": -11.29, "internal_energy": -1.68, "cluster_size": 17, "cluster_id": 1, "rank_in_cluster": 7}

>  <energy>  (11) 
-8.75

>  <cluster_rmsd>  (11) 
1.25

>  <cluster>  (11) 
1

$$$$

     RDKit          3D

 53 56  0  0  0  0  0  0  0  0999 V2000
  139.1810   74.7560  222.0870 O   0  0  0  0  0  0  0  0  0  0  0  0
  140.2650   75.3990  221.9850 C   0  0  0  0  0  0  0  0  0  0  0  0
  141.4580   74.7940  221.5530 N   0  0  0  0  0  0  0  0  0  0  0  0
  141.4900   73.4050  221.2090 C   0  0  0  0  0  0  0  0  0  0  0  0
  142.1770   73.1910  219.8990 C   0  0  0  0  0  0  0  0  0  0  0  0
  141.5070   73.4200  218.8750 O   0  0  0  0  0  0  0  0  0  0  0  0
  143.5140   72.7520  219.9360 N   0  0  0  0  0  0  0  0  0  0  0  0
  144.0200   71.3950  219.6590 C   0  0  0  0  0  0  0  0  0  0  0  0
  145.2800   71.6710  218.8680 C   0  0  2  0  0  0  0  0  0  0  0  0
  146.3250   70.9410  219.4090 O   0  0  0  0  0  0  0  0  0  0  0  0
  145.5680   73.1670  219.0530 C   0  0  0  0  0  0  0  0  0  0  0  0
  144.7440   73.4990  220.2510 C   0  0  1  0  0  0  0  0  0  0  0  0
  144.4330   74.9430  220.4660 C   0  0  0  0  0  0  0  0  0  0  0  0
  143.5160   75.5120  219.6800 O   0  0  0  0  0  0  0  0  0  0  0  0
  143.1000   76.6110  219.0780 C   0  0  0  0  0  0  0  0  0  0  0  0
  143.3500   76.7130  217.6880 C   0  0  0  0  0  0  0  0  0  0  0  0
  142.9780   77.7910  216.9480 C   0  0  0  0  0  0  0  0  0  0  0  0
  142.3300   78.8360  217.5520 C   0  0  0  0  0  0  0  0  0  0  0  0
  142.0590   78.8020  218.8850 C   0  0  0  0  0  0  0  0  0  0  0  0
  141.2220   80.1460  219.6740 Cl  0  0  0  0  0  0  0  0  0  0  0  0
  142.4450   77.7010  219.6120 C   0  0  0  0  0  0  0  0  0  0  0  0
  140.2710   76.8370  222.3330 C   0  0  0  0  0  0  0  0  0  0  0  0
  139.0860   77.5350  222.4430 C   0  0  0  0  0  0  0  0  0  0  0  0
  139.1120   78.8910  222.7720 C   0  0  0  0  0  0  0  0  0  0  0  0
  140.3460   79.4900  222.9780 C   0  0  0  0  0  0  0  0  0  0  0  0
  140.4110   80.8410  223.3080 C   0  0  0  0  0  0  0  0  0  0  0  0
  141.6510   81.4410  223.5160 C   0  0  0  0  0  0  0  0  0  0  0  0
  142.8340   80.7320  223.4040 C   0  0  0  0  0  0  0  0  0  0  0  0
  142.7660   79.3940  223.0760 C   0  0  0  0  0  0  0  0  0  0  0  0
  141.5330   78.7830  222.8670 C   0  0  0  0  0  0  0  0  0  0  0  0
  141.4400   77.4810  222.5480 N   0  0  0  0  0  0  0  0  0  0  0  0
  142.3250   75.4070  221.4960 H   0  0  0  0  0  0  0  0  0  0  0  0
  142.0302   72.8532  221.9924 H   0  0  0  0  0  0  0  0  0  0  0  0
  140.4551   73.0420  221.1243 H   0  0  0  0  0  0  0  0  0  0  0  0
  144.2458   70.8568  220.5914 H   0  0  0  0  0  0  0  0  0  0  0  0
  143.2985   70.7579  219.1265 H   0  0  0  0  0  0  0  0  0  0  0  0
  145.1677   71.3991  217.8081 H   0  0  0  0  0  0  0  0  0  0  0  0
  146.2930   71.1290  220.3990 H   0  0  0  0  0  0  0  0  0  0  0  0
  146.6367   73.3474  219.2412 H   0  0  0  0  0  0  0  0  0  0  0  0
  145.3284   73.7761  218.1689 H   0  0  0  0  0  0  0  0  0  0  0  0
  145.2685   73.2450  221.1839 H   0  0  0  0  0  0  0  0  0  0  0  0
  144.0861   75.0515  221.5042 H   0  0  0  0  0  0  0  0  0  0  0  0
  145.3689   75.4648  220.2172 H   0  0  0  0  0  0  0  0  0  0  0  0
  143.8681   75.8833  217.1848 H   0  0  0  0  0  0  0  0  0  0  0  0
  143.1961   77.8240  215.8703 H   0  0  0  0  0  0  0  0  0  0  0  0
  142.0266   79.7088  216.9551 H   0  0  0  0  0  0  0  0  0  0  0  0
  142.2170   77.6885  220.6880 H   0  0  0  0  0  0  0  0  0  0  0  0
  138.1261   77.0256  222.2723 H   0  0  0  0  0  0  0  0  0  0  0  0
  138.1804   79.4684  222.8653 H   0  0  0  0  0  0  0  0  0  0  0  0
  139.4880   81.4317  223.4040 H   0  0  0  0  0  0  0  0  0  0  0  0
  141.6908   82.5089  223.7767 H   0  0  0  0  0  0  0  0  0  0  0  0
  143.8039   81.2229  223.5723 H   0  0  0  0  0  0  0  0  0  0  0  0
  143.6911   78.8067  222.9791 H   0  0  0  0  0  0  0  0  0  0  0  0
  1  2  2  0
  2  3  1  0
  3  4  1  0
  4  5  1  0
  5  6  2  0
  5  7  1  0
  7  8  1  0
  8  9  1  0
  9 10  1  0
  9 11  1  0
 11 12  1  0
 12 13  1  0
 13 14  1  0
 14 15  1  0
 15 16  2  0
 16 17  1  0
 17 18  2  0
 18 19  1  0
 19 20  1  0
 19 21  2  0
  2 22  1  0
 22 23  2  0
 23 24  1  0
 24 25  2  0
 25 26  1  0
 26 27  2  0
 27 28  1  0
 28 29  2  0
 29 30  1  0
 30 31  2  0
 12  7  1  0
 21 15  1  0
 31 22  1  0
 30 25  1  0
  3 32  1  0
  4 33  1  0
  4 34  1  0
  8 35  1  0
  8 36  1  0
  9 37  1  6
 10 38  1  0
 11 39  1  0
 11 40  1  0
 12 41  1  1
 13 42  1  0
 13 43  1  0
 16 44  1  0
 17 45  1  0
 18 46  1  0
 21 47  1  0
 23 48  1  0
 24 49  1  0
 26 50  1  0
 27 51  1  0
 28 52  1  0
 29 53  1  0
M  END
>  <smiles>  (12) 
O=C(NCC(=O)N1C[C@H](O)C[C@H]1COc1cccc(Cl)c1)c1ccc2ccccc2n1

>  <score_type>  (12) 
oracle

>  <origin>  (12) 
autodockgpu

>  <m_score__min__energy>  (12) 
-9.2899999999999991

>  <m_primary>  (12) 
energy

>  <rmsd>  (12) 
7.787007682545053

>  <m_score__min__rmsd>  (12) 
7.787007682545053

>  <meeko>  (12) 
{"free_energy": -7.46, "intermolecular_energy": -9.84, "internal_energy": -3.45, "cluster_size": 21, "cluster_id": 8, "rank_in_cluster": 8}

>  <energy>  (12) 
-8.69

>  <cluster_rmsd>  (12) 
1.89

>  <cluster>  (12) 
1

$$$$

     RDKit          3D

 53 56  0  0  0  0  0  0  0  0999 V2000
  139.1280   74.8140  222.1690 O   0  0  0  0  0  0  0  0  0  0  0  0
  140.2230   75.4330  222.0240 C   0  0  0  0  0  0  0  0  0  0  0  0
  141.3970   74.7890  221.5980 N   0  0  0  0  0  0  0  0  0  0  0  0
  141.3980   73.3870  221.3090 C   0  0  0  0  0  0  0  0  0  0  0  0
  142.0490   73.1090  219.9940 C   0  0  0  0  0  0  0  0  0  0  0  0
  141.3280   73.2080  218.9830 O   0  0  0  0  0  0  0  0  0  0  0  0
  143.4130   72.7610  220.0090 N   0  0  0  0  0  0  0  0  0  0  0  0
  144.0010   71.4260  219.7930 C   0  0  0  0  0  0  0  0  0  0  0  0
  145.2150   71.7370  218.9440 C   0  0  2  0  0  0  0  0  0  0  0  0
  146.3220   71.1100  219.4900 O   0  0  0  0  0  0  0  0  0  0  0  0
  145.4070   73.2560  219.0330 C   0  0  0  0  0  0  0  0  0  0  0  0
  144.5990   73.6050  220.2370 C   0  0  1  0  0  0  0  0  0  0  0  0
  144.1980   75.0350  220.3800 C   0  0  0  0  0  0  0  0  0  0  0  0
  143.2720   75.5140  219.5460 O   0  0  0  0  0  0  0  0  0  0  0  0
  142.4130   76.4810  219.2800 C   0  0  0  0  0  0  0  0  0  0  0  0
  141.1880   76.1010  218.6800 C   0  0  0  0  0  0  0  0  0  0  0  0
  140.2180   76.9960  218.3530 C   0  0  0  0  0  0  0  0  0  0  0  0
  140.4120   78.3280  218.6060 C   0  0  0  0  0  0  0  0  0  0  0  0
  141.5660   78.7600  219.1810 C   0  0  0  0  0  0  0  0  0  0  0  0
  141.8260   80.4780  219.5120 Cl  0  0  0  0  0  0  0  0  0  0  0  0
  142.5320   77.8370  219.5030 C   0  0  0  0  0  0  0  0  0  0  0  0
  140.2600   76.8830  222.3130 C   0  0  0  0  0  0  0  0  0  0  0  0
  139.0930   77.6170  222.3640 C   0  0  0  0  0  0  0  0  0  0  0  0
  139.1490   78.9840  222.6380 C   0  0  0  0  0  0  0  0  0  0  0  0
  140.3930   79.5580  222.8530 C   0  0  0  0  0  0  0  0  0  0  0  0
  140.4880   80.9190  223.1290 C   0  0  0  0  0  0  0  0  0  0  0  0
  141.7380   81.4930  223.3450 C   0  0  0  0  0  0  0  0  0  0  0  0
  142.9030   80.7480  223.2920 C   0  0  0  0  0  0  0  0  0  0  0  0
  142.8060   79.4000  223.0170 C   0  0  0  0  0  0  0  0  0  0  0  0
  141.5620   78.8140  222.8010 C   0  0  0  0  0  0  0  0  0  0  0  0
  141.4410   77.5030  222.5320 N   0  0  0  0  0  0  0  0  0  0  0  0
  142.2740   75.3830  221.5020 H   0  0  0  0  0  0  0  0  0  0  0  0
  141.9478   72.8574  222.1010 H   0  0  0  0  0  0  0  0  0  0  0  0
  140.3554   73.0393  221.2629 H   0  0  0  0  0  0  0  0  0  0  0  0
  144.2912   70.9603  220.7464 H   0  0  0  0  0  0  0  0  0  0  0  0
  143.3083   70.7122  219.3233 H   0  0  0  0  0  0  0  0  0  0  0  0
  145.0892   71.3967  217.9056 H   0  0  0  0  0  0  0  0  0  0  0  0
  146.2640   71.2880  220.4810 H   0  0  0  0  0  0  0  0  0  0  0  0
  146.4663   73.5166  219.1742 H   0  0  0  0  0  0  0  0  0  0  0  0
  145.1003   73.7941  218.1239 H   0  0  0  0  0  0  0  0  0  0  0  0
  145.1683   73.4428  221.1641 H   0  0  0  0  0  0  0  0  0  0  0  0
  143.8158   75.1665  221.4031 H   0  0  0  0  0  0  0  0  0  0  0  0
  145.1083   75.6009  220.1330 H   0  0  0  0  0  0  0  0  0  0  0  0
  141.0135   75.0356  218.4693 H   0  0  0  0  0  0  0  0  0  0  0  0
  139.2824   76.6521  217.8877 H   0  0  0  0  0  0  0  0  0  0  0  0
  139.6285   79.0536  218.3421 H   0  0  0  0  0  0  0  0  0  0  0  0
  143.4592   78.2029  219.9682 H   0  0  0  0  0  0  0  0  0  0  0  0
  138.1236   77.1272  222.1896 H   0  0  0  0  0  0  0  0  0  0  0  0
  138.2318   79.5896  222.6823 H   0  0  0  0  0  0  0  0  0  0  0  0
  139.5800   81.5380  223.1762 H   0  0  0  0  0  0  0  0  0  0  0  0
  141.8013   82.5691  223.5640 H   0  0  0  0  0  0  0  0  0  0  0  0
  143.8819   81.2191  223.4649 H   0  0  0  0  0  0  0  0  0  0  0  0
  143.7165   78.7847  222.9681 H   0  0  0  0  0  0  0  0  0  0  0  0
  1  2  2  0
  2  3  1  0
  3  4  1  0
  4  5  1  0
  5  6  2  0
  5  7  1  0
  7  8  1  0
  8  9  1  0
  9 10  1  0
  9 11  1  0
 11 12  1  0
 12 13  1  0
 13 14  1  0
 14 15  1  0
 15 16  2  0
 16 17  1  0
 17 18  2  0
 18 19  1  0
 19 20  1  0
 19 21  2  0
  2 22  1  0
 22 23  2  0
 23 24  1  0
 24 25  2  0
 25 26  1  0
 26 27  2  0
 27 28  1  0
 28 29  2  0
 29 30  1  0
 30 31  2  0
 12  7  1  0
 21 15  1  0
 31 22  1  0
 30 25  1  0
  3 32  1  0
  4 33  1  0
  4 34  1  0
  8 35  1  0
  8 36  1  0
  9 37  1  6
 10 38  1  0
 11 39  1  0
 11 40  1  0
 12 41  1  1
 13 42  1  0
 13 43  1  0
 16 44  1  0
 17 45  1  0
 18 46  1  0
 21 47  1  0
 23 48  1  0
 24 49  1  0
 26 50  1  0
 27 51  1  0
 28 52  1  0
 29 53  1  0
M  END
>  <smiles>  (13) 
O=C(NCC(=O)N1C[C@H](O)C[C@H]1COc1cccc(Cl)c1)c1ccc2ccccc2n1

>  <score_type>  (13) 
oracle

>  <origin>  (13) 
autodockgpu

>  <m_score__min__energy>  (13) 
-9.2899999999999991

>  <m_primary>  (13) 
energy

>  <rmsd>  (13) 
7.8051939271067905

>  <m_score__min__rmsd>  (13) 
7.8051939271067905

>  <meeko>  (13) 
{"free_energy": -6.69, "intermolecular_energy": -9.07, "internal_energy": -3.87, "cluster_size": 21, "cluster_id": 8, "rank_in_cluster": 19}

>  <energy>  (13) 
-8.64

>  <cluster_rmsd>  (13) 
1.19

>  <cluster>  (13) 
1

$$$$

     RDKit          3D

 53 56  0  0  0  0  0  0  0  0999 V2000
  141.6800   71.9830  221.8870 O   0  0  0  0  0  0  0  0  0  0  0  0
  140.6720   72.2280  222.6110 C   0  0  0  0  0  0  0  0  0  0  0  0
  139.8920   73.3850  222.4440 N   0  0  0  0  0  0  0  0  0  0  0  0
  140.2160   74.3450  221.4330 C   0  0  0  0  0  0  0  0  0  0  0  0
  139.5080   75.6390  221.6740 C   0  0  0  0  0  0  0  0  0  0  0  0
  138.4020   75.5720  222.2440 O   0  0  0  0  0  0  0  0  0  0  0  0
  140.1480   76.8140  221.2390 N   0  0  0  0  0  0  0  0  0  0  0  0
  140.3590   78.0570  222.0040 C   0  0  0  0  0  0  0  0  0  0  0  0
  141.7670   78.4490  221.6080 C   0  0  2  0  0  0  0  0  0  0  0  0
  141.7760   79.7820  221.2310 O   0  0  0  0  0  0  0  0  0  0  0  0
  142.1120   77.5840  220.3890 C   0  0  0  0  0  0  0  0  0  0  0  0
  140.7660   77.1250  219.9380 C   0  0  1  0  0  0  0  0  0  0  0  0
  140.7340   75.9270  219.0490 C   0  0  0  0  0  0  0  0  0  0  0  0
  141.8760   75.2650  218.8450 O   0  0  0  0  0  0  0  0  0  0  0  0
  142.7910   74.4540  219.3430 C   0  0  0  0  0  0  0  0  0  0  0  0
  143.8760   75.0560  220.0240 C   0  0  0  0  0  0  0  0  0  0  0  0
  144.8870   74.3380  220.5810 C   0  0  0  0  0  0  0  0  0  0  0  0
  144.8770   72.9710  220.4930 C   0  0  0  0  0  0  0  0  0  0  0  0
  143.8630   72.3300  219.8520 C   0  0  0  0  0  0  0  0  0  0  0  0
  143.8400   70.5650  219.7320 Cl  0  0  0  0  0  0  0  0  0  0  0  0
  142.8520   73.0770  219.2960 C   0  0  0  0  0  0  0  0  0  0  0  0
  140.3070   71.2580  223.6670 C   0  0  0  0  0  0  0  0  0  0  0  0
  139.5250   70.1610  223.3710 C   0  0  0  0  0  0  0  0  0  0  0  0
  139.1920   69.2580  224.3800 C   0  0  0  0  0  0  0  0  0  0  0  0
  139.6670   69.5030  225.6600 C   0  0  0  0  0  0  0  0  0  0  0  0
  139.3550   68.6230  226.6930 C   0  0  0  0  0  0  0  0  0  0  0  0
  139.8340   68.8700  227.9780 C   0  0  0  0  0  0  0  0  0  0  0  0
  140.6180   69.9730  228.2650 C   0  0  0  0  0  0  0  0  0  0  0  0
  140.9250   70.8440  227.2400 C   0  0  0  0  0  0  0  0  0  0  0  0
  140.4530   70.6070  225.9520 C   0  0  0  0  0  0  0  0  0  0  0  0
  140.7390   71.4380  224.9360 N   0  0  0  0  0  0  0  0  0  0  0  0
  139.0610   73.5130  223.0960 H   0  0  0  0  0  0  0  0  0  0  0  0
  141.3016   74.5225  221.4406 H   0  0  0  0  0  0  0  0  0  0  0  0
  139.8964   73.9478  220.4583 H   0  0  0  0  0  0  0  0  0  0  0  0
  139.6338   78.8312  221.7128 H   0  0  0  0  0  0  0  0  0  0  0  0
  140.2266   77.9326  223.0889 H   0  0  0  0  0  0  0  0  0  0  0  0
  142.4816   78.3063  222.4320 H   0  0  0  0  0  0  0  0  0  0  0  0
  142.7500   80.0420  221.2070 H   0  0  0  0  0  0  0  0  0  0  0  0
  142.6137   78.1757  219.6091 H   0  0  0  0  0  0  0  0  0  0  0  0
  142.8070   76.7614  220.6134 H   0  0  0  0  0  0  0  0  0  0  0  0
  140.2729   77.8799  219.3080 H   0  0  0  0  0  0  0  0  0  0  0  0
  140.0173   75.2155  219.4851 H   0  0  0  0  0  0  0  0  0  0  0  0
  140.4688   76.3273  218.0593 H   0  0  0  0  0  0  0  0  0  0  0  0
  143.9023   76.1526  220.1061 H   0  0  0  0  0  0  0  0  0  0  0  0
  145.7093   74.8523  221.1000 H   0  0  0  0  0  0  0  0  0  0  0  0
  145.6940   72.3882  220.9435 H   0  0  0  0  0  0  0  0  0  0  0  0
  142.0401   72.5427  218.7809 H   0  0  0  0  0  0  0  0  0  0  0  0
  139.1658   69.9993  222.3440 H   0  0  0  0  0  0  0  0  0  0  0  0
  138.5701   68.3761  224.1669 H   0  0  0  0  0  0  0  0  0  0  0  0
  138.7334   67.7372  226.4956 H   0  0  0  0  0  0  0  0  0  0  0  0
  139.5817   68.1684  228.7867 H   0  0  0  0  0  0  0  0  0  0  0  0
  140.9876   70.1513  229.2856 H   0  0  0  0  0  0  0  0  0  0  0  0
  141.5455   71.7297  227.4414 H   0  0  0  0  0  0  0  0  0  0  0  0
  1  2  2  0
  2  3  1  0
  3  4  1  0
  4  5  1  0
  5  6  2  0
  5  7  1  0
  7  8  1  0
  8  9  1  0
  9 10  1  0
  9 11  1  0
 11 12  1  0
 12 13  1  0
 13 14  1  0
 14 15  1  0
 15 16  2  0
 16 17  1  0
 17 18  2  0
 18 19  1  0
 19 20  1  0
 19 21  2  0
  2 22  1  0
 22 23  2  0
 23 24  1  0
 24 25  2  0
 25 26  1  0
 26 27  2  0
 27 28  1  0
 28 29  2  0
 29 30  1  0
 30 31  2  0
 12  7  1  0
 21 15  1  0
 31 22  1  0
 30 25  1  0
  3 32  1  0
  4 33  1  0
  4 34  1  0
  8 35  1  0
  8 36  1  0
  9 37  1  1
 10 38  1  0
 11 39  1  0
 11 40  1  0
 12 41  1  6
 13 42  1  0
 13 43  1  0
 16 44  1  0
 17 45  1  0
 18 46  1  0
 21 47  1  0
 23 48  1  0
 24 49  1  0
 26 50  1  0
 27 51  1  0
 28 52  1  0
 29 53  1  0
M  END
>  <smiles>  (14) 
O=C(NCC(=O)N1C[C@H](O)C[C@H]1COc1cccc(Cl)c1)c1ccc2ccccc2n1

>  <score_type>  (14) 
oracle

>  <origin>  (14) 
autodockgpu

>  <m_score__min__energy>  (14) 
-9.2899999999999991

>  <m_primary>  (14) 
energy

>  <rmsd>  (14) 
2.6712711665032898

>  <m_score__min__rmsd>  (14) 
2.6712711665032898

>  <meeko>  (14) 
{"free_energy": -7.65, "intermolecular_energy": -10.04, "internal_energy": -2.06, "cluster_size": 4, "cluster_id": 5, "rank_in_cluster": 2}

>  <energy>  (14) 
-8.58

>  <cluster_rmsd>  (14) 
1.64

>  <cluster>  (14) 
1

$$$$

     RDKit          3D

 53 56  0  0  0  0  0  0  0  0999 V2000
  140.2280   70.4360  221.8030 O   0  0  0  0  0  0  0  0  0  0  0  0
  140.0410   71.3390  222.6700 C   0  0  0  0  0  0  0  0  0  0  0  0
  139.6990   72.6560  222.3200 N   0  0  0  0  0  0  0  0  0  0  0  0
  139.5470   73.0310  220.9470 C   0  0  0  0  0  0  0  0  0  0  0  0
  140.0900   74.4010  220.7010 C   0  0  0  0  0  0  0  0  0  0  0  0
  139.2610   75.3300  220.6590 O   0  0  0  0  0  0  0  0  0  0  0  0
  141.4820   74.5240  220.5370 N   0  0  0  0  0  0  0  0  0  0  0  0
  142.4750   73.4370  220.4510 C   0  0  0  0  0  0  0  0  0  0  0  0
  143.4050   73.9290  219.3630 C   0  0  2  0  0  0  0  0  0  0  0  0
  144.7140   73.8280  219.8050 O   0  0  0  0  0  0  0  0  0  0  0  0
  143.0600   75.4100  219.1590 C   0  0  0  0  0  0  0  0  0  0  0  0
  142.3150   75.7330  220.4090 C   0  0  1  0  0  0  0  0  0  0  0  0
  141.4550   76.9530  220.3760 C   0  0  0  0  0  0  0  0  0  0  0  0
  141.0670   77.4800  221.5400 O   0  0  0  0  0  0  0  0  0  0  0  0
  140.9490   78.5670  222.2800 C   0  0  0  0  0  0  0  0  0  0  0  0
  142.1380   79.2850  222.5550 C   0  0  0  0  0  0  0  0  0  0  0  0
  142.1590   80.4180  223.3060 C   0  0  0  0  0  0  0  0  0  0  0  0
  140.9910   80.9060  223.8290 C   0  0  0  0  0  0  0  0  0  0  0  0
  139.8130   80.2640  223.6030 C   0  0  0  0  0  0  0  0  0  0  0  0
  138.2990   80.8870  224.2730 Cl  0  0  0  0  0  0  0  0  0  0  0  0
  139.8170   79.1200  222.8410 C   0  0  0  0  0  0  0  0  0  0  0  0
  140.1890   70.9880  224.1000 C   0  0  0  0  0  0  0  0  0  0  0  0
  140.7360   71.8900  224.9890 C   0  0  0  0  0  0  0  0  0  0  0  0
  140.8670   71.5410  226.3330 C   0  0  0  0  0  0  0  0  0  0  0  0
  140.4360   70.2820  226.7270 C   0  0  0  0  0  0  0  0  0  0  0  0
  140.5510   69.8990  228.0610 C   0  0  0  0  0  0  0  0  0  0  0  0
  140.1180   68.6350  228.4540 C   0  0  0  0  0  0  0  0  0  0  0  0
  139.5710   67.7370  227.5550 C   0  0  0  0  0  0  0  0  0  0  0  0
  139.4590   68.1200  226.2340 C   0  0  0  0  0  0  0  0  0  0  0  0
  139.8880   69.3800  225.8290 C   0  0  0  0  0  0  0  0  0  0  0  0
  139.7890   69.7770  224.5490 N   0  0  0  0  0  0  0  0  0  0  0  0
  139.5600   73.3530  223.1110 H   0  0  0  0  0  0  0  0  0  0  0  0
  140.0885   72.3111  220.3158 H   0  0  0  0  0  0  0  0  0  0  0  0
  138.4749   73.0304  220.7010 H   0  0  0  0  0  0  0  0  0  0  0  0
  143.0097   73.3106  221.4040 H   0  0  0  0  0  0  0  0  0  0  0  0
  142.0314   72.4534  220.2373 H   0  0  0  0  0  0  0  0  0  0  0  0
  143.2968   73.3476  218.4355 H   0  0  0  0  0  0  0  0  0  0  0  0
  145.2590   74.3460  219.1340 H   0  0  0  0  0  0  0  0  0  0  0  0
  143.9690   76.0225  219.0665 H   0  0  0  0  0  0  0  0  0  0  0  0
  142.4890   75.6086  218.2400 H   0  0  0  0  0  0  0  0  0  0  0  0
  143.0008   75.9681  221.2363 H   0  0  0  0  0  0  0  0  0  0  0  0
  142.0127   77.7314  219.8347 H   0  0  0  0  0  0  0  0  0  0  0  0
  140.5208   76.6169  219.9025 H   0  0  0  0  0  0  0  0  0  0  0  0
  143.0863   78.9096  222.1429 H   0  0  0  0  0  0  0  0  0  0  0  0
  143.1090   80.9401  223.4927 H   0  0  0  0  0  0  0  0  0  0  0  0
  141.0055   81.8233  224.4359 H   0  0  0  0  0  0  0  0  0  0  0  0
  138.8562   78.6133  222.6676 H   0  0  0  0  0  0  0  0  0  0  0  0
  141.0670   72.8792  224.6398 H   0  0  0  0  0  0  0  0  0  0  0  0
  141.2997   72.2438  227.0602 H   0  0  0  0  0  0  0  0  0  0  0  0
  140.9813   70.5908  228.8000 H   0  0  0  0  0  0  0  0  0  0  0  0
  140.2137   68.3422  229.5100 H   0  0  0  0  0  0  0  0  0  0  0  0
  139.2340   66.7432  227.8847 H   0  0  0  0  0  0  0  0  0  0  0  0
  139.0284   67.4256  225.4975 H   0  0  0  0  0  0  0  0  0  0  0  0
  1  2  2  0
  2  3  1  0
  3  4  1  0
  4  5  1  0
  5  6  2  0
  5  7  1  0
  7  8  1  0
  8  9  1  0
  9 10  1  0
  9 11  1  0
 11 12  1  0
 12 13  1  0
 13 14  1  0
 14 15  1  0
 15 16  2  0
 16 17  1  0
 17 18  2  0
 18 19  1  0
 19 20  1  0
 19 21  2  0
  2 22  1  0
 22 23  2  0
 23 24  1  0
 24 25  2  0
 25 26  1  0
 26 27  2  0
 27 28  1  0
 28 29  2  0
 29 30  1  0
 30 31  2  0
 12  7  1  0
 21 15  1  0
 31 22  1  0
 30 25  1  0
  3 32  1  0
  4 33  1  0
  4 34  1  0
  8 35  1  0
  8 36  1  0
  9 37  1  6
 10 38  1  0
 11 39  1  0
 11 40  1  0
 12 41  1  1
 13 42  1  0
 13 43  1  0
 16 44  1  0
 17 45  1  0
 18 46  1  0
 21 47  1  0
 23 48  1  0
 24 49  1  0
 26 50  1  0
 27 51  1  0
 28 52  1  0
 29 53  1  0
M  END
>  <smiles>  (15) 
O=C(NCC(=O)N1C[C@H](O)C[C@H]1COc1cccc(Cl)c1)c1ccc2ccccc2n1

>  <score_type>  (15) 
oracle

>  <origin>  (15) 
autodockgpu

>  <m_score__min__energy>  (15) 
-9.2899999999999991

>  <m_primary>  (15) 
energy

>  <rmsd>  (15) 
3.1393033728570994

>  <m_score__min__rmsd>  (15) 
3.1393033728570994

>  <meeko>  (15) 
{"free_energy": -8.52, "intermolecular_energy": -10.91, "internal_energy": -1.16, "cluster_size": 17, "cluster_id": 1, "rank_in_cluster": 16}

>  <energy>  (15) 
-8.54

>  <cluster_rmsd>  (15) 
1.91

>  <cluster>  (15) 
1

$$$$

     RDKit          3D

 53 56  0  0  0  0  0  0  0  0999 V2000
  139.3560   70.9770  221.3550 O   0  0  0  0  0  0  0  0  0  0  0  0
  139.6010   71.6340  222.4080 C   0  0  0  0  0  0  0  0  0  0  0  0
  139.7380   73.0330  222.4040 N   0  0  0  0  0  0  0  0  0  0  0  0
  139.6040   73.7770  221.1890 C   0  0  0  0  0  0  0  0  0  0  0  0
  140.6900   73.4280  220.2230 C   0  0  0  0  0  0  0  0  0  0  0  0
  140.3980   72.6110  219.3280 O   0  0  0  0  0  0  0  0  0  0  0  0
  141.9400   74.0480  220.4060 N   0  0  0  0  0  0  0  0  0  0  0  0
  143.2130   73.4060  220.7790 C   0  0  0  0  0  0  0  0  0  0  0  0
  144.2130   74.1250  219.8980 C   0  0  2  0  0  0  0  0  0  0  0  0
  145.2770   74.5530  220.6760 O   0  0  0  0  0  0  0  0  0  0  0  0
  143.4740   75.3510  219.3450 C   0  0  0  0  0  0  0  0  0  0  0  0
  142.3170   75.4670  220.2800 C   0  0  1  0  0  0  0  0  0  0  0  0
  141.1540   76.2720  219.8030 C   0  0  0  0  0  0  0  0  0  0  0  0
  140.5450   77.0760  220.6780 O   0  0  0  0  0  0  0  0  0  0  0  0
  140.6770   77.9680  221.6420 C   0  0  0  0  0  0  0  0  0  0  0  0
  139.5350   78.2230  222.4390 C   0  0  0  0  0  0  0  0  0  0  0  0
  139.5340   79.1190  223.4610 C   0  0  0  0  0  0  0  0  0  0  0  0
  140.6760   79.8170  223.7520 C   0  0  0  0  0  0  0  0  0  0  0  0
  141.8090   79.6190  223.0250 C   0  0  0  0  0  0  0  0  0  0  0  0
  143.2890   80.5150  223.3930 Cl  0  0  0  0  0  0  0  0  0  0  0  0
  141.7860   78.7080  221.9960 C   0  0  0  0  0  0  0  0  0  0  0  0
  139.7470   70.8990  223.6830 C   0  0  0  0  0  0  0  0  0  0  0  0
  139.3860   69.5700  223.7710 C   0  0  0  0  0  0  0  0  0  0  0  0
  139.5310   68.8950  224.9830 C   0  0  0  0  0  0  0  0  0  0  0  0
  140.0390   69.5960  226.0670 C   0  0  0  0  0  0  0  0  0  0  0  0
  140.1980   68.9540  227.2920 C   0  0  0  0  0  0  0  0  0  0  0  0
  140.7080   69.6600  228.3790 C   0  0  0  0  0  0  0  0  0  0  0  0
  141.0670   70.9930  228.2810 C   0  0  0  0  0  0  0  0  0  0  0  0
  140.9080   71.6260  227.0660 C   0  0  0  0  0  0  0  0  0  0  0  0
  140.4000   70.9310  225.9720 C   0  0  0  0  0  0  0  0  0  0  0  0
  140.2360   71.5250  224.7780 N   0  0  0  0  0  0  0  0  0  0  0  0
  139.9450   73.5070  223.3330 H   0  0  0  0  0  0  0  0  0  0  0  0
  138.6297   73.5478  220.7327 H   0  0  0  0  0  0  0  0  0  0  0  0
  139.6770   74.8488  221.4252 H   0  0  0  0  0  0  0  0  0  0  0  0
  143.4388   73.5602  221.8445 H   0  0  0  0  0  0  0  0  0  0  0  0
  143.2111   72.3148  220.6401 H   0  0  0  0  0  0  0  0  0  0  0  0
  144.5962   73.4767  219.0962 H   0  0  0  0  0  0  0  0  0  0  0  0
  146.0390   74.6850  220.0290 H   0  0  0  0  0  0  0  0  0  0  0  0
  144.1080   76.2492  219.3811 H   0  0  0  0  0  0  0  0  0  0  0  0
  143.1815   75.2523  218.2892 H   0  0  0  0  0  0  0  0  0  0  0  0
  142.5944   76.0028  221.1998 H   0  0  0  0  0  0  0  0  0  0  0  0
  141.5102   76.9013  218.9741 H   0  0  0  0  0  0  0  0  0  0  0  0
  140.3914   75.5235  219.5421 H   0  0  0  0  0  0  0  0  0  0  0  0
  138.6081   77.6719  222.2216 H   0  0  0  0  0  0  0  0  0  0  0  0
  138.6205   79.2828  224.0515 H   0  0  0  0  0  0  0  0  0  0  0  0
  140.6772   80.5424  224.5789 H   0  0  0  0  0  0  0  0  0  0  0  0
  142.7103   78.5597  221.4183 H   0  0  0  0  0  0  0  0  0  0  0  0
  138.9862   69.0459  222.8904 H   0  0  0  0  0  0  0  0  0  0  0  0
  139.2502   67.8356  225.0767 H   0  0  0  0  0  0  0  0  0  0  0  0
  139.9223   67.8947  227.4009 H   0  0  0  0  0  0  0  0  0  0  0  0
  140.8288   69.1434  229.3426 H   0  0  0  0  0  0  0  0  0  0  0  0
  141.4690   71.5340  229.1503 H   0  0  0  0  0  0  0  0  0  0  0  0
  141.1841   72.6856  226.9609 H   0  0  0  0  0  0  0  0  0  0  0  0
  1  2  2  0
  2  3  1  0
  3  4  1  0
  4  5  1  0
  5  6  2  0
  5  7  1  0
  7  8  1  0
  8  9  1  0
  9 10  1  0
  9 11  1  0
 11 12  1  0
 12 13  1  0
 13 14  1  0
 14 15  1  0
 15 16  2  0
 16 17  1  0
 17 18  2  0
 18 19  1  0
 19 20  1  0
 19 21  2  0
  2 22  1  0
 22 23  2  0
 23 24  1  0
 24 25  2  0
 25 26  1  0
 26 27  2  0
 27 28  1  0
 28 29  2  0
 29 30  1  0
 30 31  2  0
 12  7  1  0
 21 15  1  0
 31 22  1  0
 30 25  1  0
  3 32  1  0
  4 33  1  0
  4 34  1  0
  8 35  1  0
  8 36  1  0
  9 37  1  6
 10 38  1  0
 11 39  1  0
 11 40  1  0
 12 41  1  1
 13 42  1  0
 13 43  1  0
 16 44  1  0
 17 45  1  0
 18 46  1  0
 21 47  1  0
 23 48  1  0
 24 49  1  0
 26 50  1  0
 27 51  1  0
 28 52  1  0
 29 53  1  0
M  END
>  <smiles>  (16) 
O=C(NCC(=O)N1C[C@H](O)C[C@H]1COc1cccc(Cl)c1)c1ccc2ccccc2n1

>  <score_type>  (16) 
oracle

>  <origin>  (16) 
autodockgpu

>  <m_score__min__energy>  (16) 
-9.2899999999999991

>  <m_primary>  (16) 
energy

>  <rmsd>  (16) 
2.556897596306921

>  <m_score__min__rmsd>  (16) 
2.556897596306921

>  <meeko>  (16) 
{"free_energy": -8.58, "intermolecular_energy": -10.97, "internal_energy": -1.67, "cluster_size": 17, "cluster_id": 1, "rank_in_cluster": 14}

>  <energy>  (16) 
-8.52

>  <cluster_rmsd>  (16) 
1.54

>  <cluster>  (16) 
1

$$$$

     RDKit          3D

 53 56  0  0  0  0  0  0  0  0999 V2000
  141.3970   71.8900  221.6150 O   0  0  0  0  0  0  0  0  0  0  0  0
  140.5150   72.2760  222.4360 C   0  0  0  0  0  0  0  0  0  0  0  0
  139.7760   73.4560  222.2440 N   0  0  0  0  0  0  0  0  0  0  0  0
  139.9990   74.2790  221.0940 C   0  0  0  0  0  0  0  0  0  0  0  0
  141.1110   75.2470  221.3330 C   0  0  0  0  0  0  0  0  0  0  0  0
  140.9880   76.0070  222.3130 O   0  0  0  0  0  0  0  0  0  0  0  0
  142.1960   75.2180  220.4370 N   0  0  0  0  0  0  0  0  0  0  0  0
  143.0130   74.0520  220.0550 C   0  0  0  0  0  0  0  0  0  0  0  0
  143.2040   74.2580  218.5680 C   0  0  2  0  0  0  0  0  0  0  0  0
  144.5480   74.1270  218.2600 O   0  0  0  0  0  0  0  0  0  0  0  0
  142.7680   75.7030  218.2890 C   0  0  0  0  0  0  0  0  0  0  0  0
  142.8010   76.3090  219.6520 C   0  0  1  0  0  0  0  0  0  0  0  0
  142.0270   77.5720  219.8380 C   0  0  0  0  0  0  0  0  0  0  0  0
  142.2020   78.2540  220.9730 O   0  0  0  0  0  0  0  0  0  0  0  0
  142.0280   79.3910  221.6210 C   0  0  0  0  0  0  0  0  0  0  0  0
  142.4040   79.4140  222.9850 C   0  0  0  0  0  0  0  0  0  0  0  0
  142.2760   80.5180  223.7680 C   0  0  0  0  0  0  0  0  0  0  0  0
  141.7630   81.6710  223.2340 C   0  0  0  0  0  0  0  0  0  0  0  0
  141.3820   81.7170  221.9290 C   0  0  0  0  0  0  0  0  0  0  0  0
  140.7190   83.2010  221.2300 Cl  0  0  0  0  0  0  0  0  0  0  0  0
  141.5220   80.5880  221.1570 C   0  0  0  0  0  0  0  0  0  0  0  0
  140.2580   71.4510  223.6360 C   0  0  0  0  0  0  0  0  0  0  0  0
  139.5370   70.2790  223.5390 C   0  0  0  0  0  0  0  0  0  0  0  0
  139.3050   69.5150  224.6830 C   0  0  0  0  0  0  0  0  0  0  0  0
  139.8150   69.9710  225.8890 C   0  0  0  0  0  0  0  0  0  0  0  0
  139.6030   69.2340  227.0520 C   0  0  0  0  0  0  0  0  0  0  0  0
  140.1170   69.6940  228.2620 C   0  0  0  0  0  0  0  0  0  0  0  0
  140.8390   70.8710  228.3490 C   0  0  0  0  0  0  0  0  0  0  0  0
  141.0470   71.5990  227.1960 C   0  0  0  0  0  0  0  0  0  0  0  0
  140.5390   71.1490  225.9800 C   0  0  0  0  0  0  0  0  0  0  0  0
  140.7280   71.8390  224.8430 N   0  0  0  0  0  0  0  0  0  0  0  0
  139.0540   73.7070  222.9830 H   0  0  0  0  0  0  0  0  0  0  0  0
  140.2582   73.6381  220.2384 H   0  0  0  0  0  0  0  0  0  0  0  0
  139.0799   74.8468  220.8872 H   0  0  0  0  0  0  0  0  0  0  0  0
  143.9778   74.0525  220.5834 H   0  0  0  0  0  0  0  0  0  0  0  0
  142.5465   73.0884  220.3076 H   0  0  0  0  0  0  0  0  0  0  0  0
  142.6303   73.5301  217.9755 H   0  0  0  0  0  0  0  0  0  0  0  0
  144.8310   75.0330  217.9230 H   0  0  0  0  0  0  0  0  0  0  0  0
  143.4712   76.2081  217.6105 H   0  0  0  0  0  0  0  0  0  0  0  0
  141.7891   75.7818  217.7936 H   0  0  0  0  0  0  0  0  0  0  0  0
  143.8169   76.6299  219.9258 H   0  0  0  0  0  0  0  0  0  0  0  0
  142.2931   78.2437  219.0086 H   0  0  0  0  0  0  0  0  0  0  0  0
  140.9765   77.2476  219.8720 H   0  0  0  0  0  0  0  0  0  0  0  0
  142.8182   78.4980  223.4316 H   0  0  0  0  0  0  0  0  0  0  0  0
  142.5824   80.4859  224.8240 H   0  0  0  0  0  0  0  0  0  0  0  0
  141.6585   82.5658  223.8652 H   0  0  0  0  0  0  0  0  0  0  0  0
  141.2111   80.6423  220.1032 H   0  0  0  0  0  0  0  0  0  0  0  0
  139.1471   69.9486  222.5649 H   0  0  0  0  0  0  0  0  0  0  0  0
  138.7333   68.5768  224.6297 H   0  0  0  0  0  0  0  0  0  0  0  0
  139.0328   68.2940  227.0149 H   0  0  0  0  0  0  0  0  0  0  0  0
  139.9440   69.1047  229.1745 H   0  0  0  0  0  0  0  0  0  0  0  0
  141.2374   71.2177  229.3139 H   0  0  0  0  0  0  0  0  0  0  0  0
  141.6166   72.5391  227.2372 H   0  0  0  0  0  0  0  0  0  0  0  0
  1  2  2  0
  2  3  1  0
  3  4  1  0
  4  5  1  0
  5  6  2  0
  5  7  1  0
  7  8  1  0
  8  9  1  0
  9 10  1  0
  9 11  1  0
 11 12  1  0
 12 13  1  0
 13 14  1  0
 14 15  1  0
 15 16  2  0
 16 17  1  0
 17 18  2  0
 18 19  1  0
 19 20  1  0
 19 21  2  0
  2 22  1  0
 22 23  2  0
 23 24  1  0
 24 25  2  0
 25 26  1  0
 26 27  2  0
 27 28  1  0
 28 29  2  0
 29 30  1  0
 30 31  2  0
 12  7  1  0
 21 15  1  0
 31 22  1  0
 30 25  1  0
  3 32  1  0
  4 33  1  0
  4 34  1  0
  8 35  1  0
  8 36  1  0
  9 37  1  6
 10 38  1  0
 11 39  1  0
 11 40  1  0
 12 41  1  1
 13 42  1  0
 13 43  1  0
 16 44  1  0
 17 45  1  0
 18 46  1  0
 21 47  1  0
 23 48  1  0
 24 49  1  0
 26 50  1  0
 27 51  1  0
 28 52  1  0
 29 53  1  0
M  END
>  <smiles>  (17) 
O=C(NCC(=O)N1C[C@H](O)C[C@H]1COc1cccc(Cl)c1)c1ccc2ccccc2n1

>  <score_type>  (17) 
oracle

>  <origin>  (17) 
autodockgpu

>  <m_score__min__energy>  (17) 
-9.2899999999999991

>  <m_primary>  (17) 
energy

>  <rmsd>  (17) 
2.228451776146998

>  <m_score__min__rmsd>  (17) 
2.228451776146998

>  <meeko>  (17) 
{"free_energy": -9.29, "intermolecular_energy": -11.68, "internal_energy": -1.39, "cluster_size": 17, "cluster_id": 1, "rank_in_cluster": 1}

>  <energy>  (17) 
-8.07

>  <cluster_rmsd>  (17) 
1.75

>  <cluster>  (17) 
1

$$$$

     RDKit          3D

 53 56  0  0  0  0  0  0  0  0999 V2000
  138.9450   75.2570  221.8930 O   0  0  0  0  0  0  0  0  0  0  0  0
  140.0950   75.7720  222.0040 C   0  0  0  0  0  0  0  0  0  0  0  0
  141.2690   75.0530  221.7170 N   0  0  0  0  0  0  0  0  0  0  0  0
  141.2040   73.6900  221.2840 C   0  0  0  0  0  0  0  0  0  0  0  0
  141.7830   73.5320  219.9160 C   0  0  0  0  0  0  0  0  0  0  0  0
  140.9750   73.4960  218.9690 O   0  0  0  0  0  0  0  0  0  0  0  0
  143.1830   73.4350  219.8160 N   0  0  0  0  0  0  0  0  0  0  0  0
  144.0660   72.4630  220.4860 C   0  0  0  0  0  0  0  0  0  0  0  0
  145.0600   72.1190  219.3980 C   0  0  2  0  0  0  0  0  0  0  0  0
  146.3440   72.2260  219.9060 O   0  0  0  0  0  0  0  0  0  0  0  0
  144.8650   73.1790  218.3060 C   0  0  0  0  0  0  0  0  0  0  0  0
  144.1320   74.2520  219.0390 C   0  0  1  0  0  0  0  0  0  0  0  0
  143.3960   75.2460  218.2030 C   0  0  0  0  0  0  0  0  0  0  0  0
  143.0470   76.4050  218.7660 O   0  0  0  0  0  0  0  0  0  0  0  0
  142.0860   77.2810  218.9970 C   0  0  0  0  0  0  0  0  0  0  0  0
  140.7550   76.8240  218.8420 C   0  0  0  0  0  0  0  0  0  0  0  0
  139.6730   77.6210  219.0450 C   0  0  0  0  0  0  0  0  0  0  0  0
  139.8540   78.9270  219.4170 C   0  0  0  0  0  0  0  0  0  0  0  0
  141.1070   79.4290  219.5830 C   0  0  0  0  0  0  0  0  0  0  0  0
  141.3510   81.1140  220.0640 Cl  0  0  0  0  0  0  0  0  0  0  0  0
  142.1860   78.6040  219.3720 C   0  0  0  0  0  0  0  0  0  0  0  0
  140.2020   77.1780  222.4490 C   0  0  0  0  0  0  0  0  0  0  0  0
  139.0680   77.9150  222.7220 C   0  0  0  0  0  0  0  0  0  0  0  0
  139.1900   79.2390  223.1410 C   0  0  0  0  0  0  0  0  0  0  0  0
  140.4650   79.7710  223.2680 C   0  0  0  0  0  0  0  0  0  0  0  0
  140.6250   81.0910  223.6830 C   0  0  0  0  0  0  0  0  0  0  0  0
  141.9060   81.6220  223.8100 C   0  0  0  0  0  0  0  0  0  0  0  0
  143.0370   80.8760  223.5330 C   0  0  0  0  0  0  0  0  0  0  0  0
  142.8750   79.5700  223.1210 C   0  0  0  0  0  0  0  0  0  0  0  0
  141.6000   79.0260  222.9920 C   0  0  0  0  0  0  0  0  0  0  0  0
  141.4160   77.7570  222.5930 N   0  0  0  0  0  0  0  0  0  0  0  0
  142.1950   75.5610  221.8360 H   0  0  0  0  0  0  0  0  0  0  0  0
  141.7695   73.0620  221.9882 H   0  0  0  0  0  0  0  0  0  0  0  0
  140.1481   73.3830  221.2540 H   0  0  0  0  0  0  0  0  0  0  0  0
  144.5678   72.9146  221.3545 H   0  0  0  0  0  0  0  0  0  0  0  0
  143.5321   71.5878  220.8847 H   0  0  0  0  0  0  0  0  0  0  0  0
  144.9132   71.0985  219.0145 H   0  0  0  0  0  0  0  0  0  0  0  0
  146.2810   71.8920  220.8550 H   0  0  0  0  0  0  0  0  0  0  0  0
  145.8309   73.5432  217.9261 H   0  0  0  0  0  0  0  0  0  0  0  0
  144.3330   72.8069  217.4180 H   0  0  0  0  0  0  0  0  0  0  0  0
  144.8216   74.9010  219.5987 H   0  0  0  0  0  0  0  0  0  0  0  0
  144.0339   75.4818  217.3384 H   0  0  0  0  0  0  0  0  0  0  0  0
  142.4393   74.7547  217.9722 H   0  0  0  0  0  0  0  0  0  0  0  0
  140.5894   75.7781  218.5442 H   0  0  0  0  0  0  0  0  0  0  0  0
  138.6576   77.2197  218.9113 H   0  0  0  0  0  0  0  0  0  0  0  0
  138.9799   79.5740  219.5826 H   0  0  0  0  0  0  0  0  0  0  0  0
  143.1924   79.0257  219.5110 H   0  0  0  0  0  0  0  0  0  0  0  0
  138.0727   77.4602  222.6096 H   0  0  0  0  0  0  0  0  0  0  0  0
  138.2998   79.8452  223.3648 H   0  0  0  0  0  0  0  0  0  0  0  0
  139.7445   81.7104  223.9091 H   0  0  0  0  0  0  0  0  0  0  0  0
  142.0216   82.6649  224.1402 H   0  0  0  0  0  0  0  0  0  0  0  0
  144.0407   81.3134  223.6387 H   0  0  0  0  0  0  0  0  0  0  0  0
  143.7579   78.9548  222.8931 H   0  0  0  0  0  0  0  0  0  0  0  0
  1  2  2  0
  2  3  1  0
  3  4  1  0
  4  5  1  0
  5  6  2  0
  5  7  1  0
  7  8  1  0
  8  9  1  0
  9 10  1  0
  9 11  1  0
 11 12  1  0
 12 13  1  0
 13 14  1  0
 14 15  1  0
 15 16  2  0
 16 17  1  0
 17 18  2  0
 18 19  1  0
 19 20  1  0
 19 21  2  0
  2 22  1  0
 22 23  2  0
 23 24  1  0
 24 25  2  0
 25 26  1  0
 26 27  2  0
 27 28  1  0
 28 29  2  0
 29 30  1  0
 30 31  2  0
 12  7  1  0
 21 15  1  0
 31 22  1  0
 30 25  1  0
  3 32  1  0
  4 33  1  0
  4 34  1  0
  8 35  1  0
  8 36  1  0
  9 37  1  6
 10 38  1  0
 11 39  1  0
 11 40  1  0
 12 41  1  1
 13 42  1  0
 13 43  1  0
 16 44  1  0
 17 45  1  0
 18 46  1  0
 21 47  1  0
 23 48  1  0
 24 49  1  0
 26 50  1  0
 27 51  1  0
 28 52  1  0
 29 53  1  0
M  END
>  <smiles>  (18) 
O=C(NCC(=O)N1C[C@H](O)C[C@H]1COc1cccc(Cl)c1)c1ccc2ccccc2n1

>  <score_type>  (18) 
oracle

>  <origin>  (18) 
autodockgpu

>  <m_score__min__energy>  (18) 
-9.2899999999999991

>  <m_primary>  (18) 
energy

>  <rmsd>  (18) 
7.811117119502435

>  <m_score__min__rmsd>  (18) 
7.811117119502435

>  <meeko>  (18) 
{"free_energy": -6.96, "intermolecular_energy": -9.35, "internal_energy": -3.56, "cluster_size": 21, "cluster_id": 8, "rank_in_cluster": 13}

>  <energy>  (18) 
-8.98

>  <cluster_rmsd>  (18) 
0.0

>  <cluster>  (18) 
2

$$$$

     RDKit          3D

 53 56  0  0  0  0  0  0  0  0999 V2000
  137.3890   76.2870  222.0130 O   0  0  0  0  0  0  0  0  0  0  0  0
  138.6370   76.3440  222.2150 C   0  0  0  0  0  0  0  0  0  0  0  0
  139.4770   75.2310  222.0420 N   0  0  0  0  0  0  0  0  0  0  0  0
  138.9420   73.9700  221.6250 C   0  0  0  0  0  0  0  0  0  0  0  0
  139.9920   72.9070  221.6480 C   0  0  0  0  0  0  0  0  0  0  0  0
  140.9330   73.0700  222.4480 O   0  0  0  0  0  0  0  0  0  0  0  0
  139.8290   71.8200  220.7690 N   0  0  0  0  0  0  0  0  0  0  0  0
  140.3300   71.7000  219.3880 C   0  0  0  0  0  0  0  0  0  0  0  0
  140.8000   70.2620  219.3340 C   0  0  2  0  0  0  0  0  0  0  0  0
  140.2760   69.6560  218.2040 O   0  0  0  0  0  0  0  0  0  0  0  0
  140.2150   69.5860  220.5800 C   0  0  0  0  0  0  0  0  0  0  0  0
  139.1350   70.5360  220.9750 C   0  0  1  0  0  0  0  0  0  0  0  0
  138.6380   70.4350  222.3780 C   0  0  0  0  0  0  0  0  0  0  0  0
  139.5370   70.4490  223.3660 O   0  0  0  0  0  0  0  0  0  0  0  0
  139.7890   70.2060  224.6390 C   0  0  0  0  0  0  0  0  0  0  0  0
  139.5370   68.8920  225.1010 C   0  0  0  0  0  0  0  0  0  0  0  0
  139.7500   68.5080  226.3880 C   0  0  0  0  0  0  0  0  0  0  0  0
  140.2300   69.4160  227.2950 C   0  0  0  0  0  0  0  0  0  0  0  0
  140.4930   70.6960  226.9160 C   0  0  0  0  0  0  0  0  0  0  0  0
  141.1130   71.8760  228.0790 Cl  0  0  0  0  0  0  0  0  0  0  0  0
  140.2700   71.0600  225.6090 C   0  0  0  0  0  0  0  0  0  0  0  0
  139.2250   77.6310  222.6480 C   0  0  0  0  0  0  0  0  0  0  0  0
  138.4140   78.6650  223.0700 C   0  0  0  0  0  0  0  0  0  0  0  0
  138.9880   79.8700  223.4740 C   0  0  0  0  0  0  0  0  0  0  0  0
  140.3700   79.9820  223.4350 C   0  0  0  0  0  0  0  0  0  0  0  0
  140.9780   81.1710  223.8310 C   0  0  0  0  0  0  0  0  0  0  0  0
  142.3660   81.2820  223.7910 C   0  0  0  0  0  0  0  0  0  0  0  0
  143.1700   80.2400  223.3660 C   0  0  0  0  0  0  0  0  0  0  0  0
  142.5650   79.0640  222.9730 C   0  0  0  0  0  0  0  0  0  0  0  0
  141.1790   78.9400  223.0100 C   0  0  0  0  0  0  0  0  0  0  0  0
  140.5650   77.8050  222.6340 N   0  0  0  0  0  0  0  0  0  0  0  0
  140.5140   75.3660  222.2340 H   0  0  0  0  0  0  0  0  0  0  0  0
  138.1256   73.6836  222.3044 H   0  0  0  0  0  0  0  0  0  0  0  0
  138.5696   74.0715  220.5950 H   0  0  0  0  0  0  0  0  0  0  0  0
  139.5289   71.8841  218.6570 H   0  0  0  0  0  0  0  0  0  0  0  0
  141.1170   72.4282  219.1421 H   0  0  0  0  0  0  0  0  0  0  0  0
  141.8970   70.1886  219.3008 H   0  0  0  0  0  0  0  0  0  0  0  0
  139.9960   70.4160  217.6030 H   0  0  0  0  0  0  0  0  0  0  0  0
  139.8055   68.5936  220.3404 H   0  0  0  0  0  0  0  0  0  0  0  0
  140.9554   69.4042  221.3729 H   0  0  0  0  0  0  0  0  0  0  0  0
  138.2132   70.3579  220.4018 H   0  0  0  0  0  0  0  0  0  0  0  0
  137.9560   71.2818  222.5448 H   0  0  0  0  0  0  0  0  0  0  0  0
  138.1828   69.4353  222.4360 H   0  0  0  0  0  0  0  0  0  0  0  0
  139.1519   68.1487  224.3875 H   0  0  0  0  0  0  0  0  0  0  0  0
  139.5382   67.4744  226.6991 H   0  0  0  0  0  0  0  0  0  0  0  0
  140.4039   69.1080  228.3366 H   0  0  0  0  0  0  0  0  0  0  0  0
  140.4892   72.0981  225.3187 H   0  0  0  0  0  0  0  0  0  0  0  0
  137.3213   78.5393  223.0876 H   0  0  0  0  0  0  0  0  0  0  0  0
  138.3623   80.7083  223.8141 H   0  0  0  0  0  0  0  0  0  0  0  0
  140.3653   82.0179  224.1735 H   0  0  0  0  0  0  0  0  0  0  0  0
  142.8359   82.2252  224.1064 H   0  0  0  0  0  0  0  0  0  0  0  0
  144.2646   80.3462  223.3419 H   0  0  0  0  0  0  0  0  0  0  0  0
  143.1809   78.2202  222.6287 H   0  0  0  0  0  0  0  0  0  0  0  0
  1  2  2  0
  2  3  1  0
  3  4  1  0
  4  5  1  0
  5  6  2  0
  5  7  1  0
  7  8  1  0
  8  9  1  0
  9 10  1  0
  9 11  1  0
 11 12  1  0
 12 13  1  0
 13 14  1  0
 14 15  1  0
 15 16  2  0
 16 17  1  0
 17 18  2  0
 18 19  1  0
 19 20  1  0
 19 21  2  0
  2 22  1  0
 22 23  2  0
 23 24  1  0
 24 25  2  0
 25 26  1  0
 26 27  2  0
 27 28  1  0
 28 29  2  0
 29 30  1  0
 30 31  2  0
 12  7  1  0
 21 15  1  0
 31 22  1  0
 30 25  1  0
  3 32  1  0
  4 33  1  0
  4 34  1  0
  8 35  1  0
  8 36  1  0
  9 37  1  1
 10 38  1  0
 11 39  1  0
 11 40  1  0
 12 41  1  6
 13 42  1  0
 13 43  1  0
 16 44  1  0
 17 45  1  0
 18 46  1  0
 21 47  1  0
 23 48  1  0
 24 49  1  0
 26 50  1  0
 27 51  1  0
 28 52  1  0
 29 53  1  0
M  END
>  <smiles>  (19) 
O=C(NCC(=O)N1C[C@H](O)C[C@H]1COc1cccc(Cl)c1)c1ccc2ccccc2n1

>  <score_type>  (19) 
oracle

>  <origin>  (19) 
autodockgpu

>  <m_score__min__energy>  (19) 
-9.2899999999999991

>  <m_primary>  (19) 
energy

>  <rmsd>  (19) 
8.002401502870613

>  <m_score__min__rmsd>  (19) 
8.002401502870613

>  <meeko>  (19) 
{"free_energy": -7.65, "intermolecular_energy": -10.04, "internal_energy": -2.07, "cluster_size": 1, "cluster_id": 7, "rank_in_cluster": 1}

>  <energy>  (19) 
-8.35

>  <cluster_rmsd>  (19) 
0.77

>  <cluster>  (19) 
2

$$$$

     RDKit          3D

 53 56  0  0  0  0  0  0  0  0999 V2000
  139.1870   74.7430  222.0660 O   0  0  0  0  0  0  0  0  0  0  0  0
  140.2770   75.3830  222.0000 C   0  0  0  0  0  0  0  0  0  0  0  0
  141.4810   74.7750  221.6030 N   0  0  0  0  0  0  0  0  0  0  0  0
  141.5180   73.3870  221.2550 C   0  0  0  0  0  0  0  0  0  0  0  0
  142.1790   73.1820  219.9300 C   0  0  0  0  0  0  0  0  0  0  0  0
  141.4980   73.4470  218.9210 O   0  0  0  0  0  0  0  0  0  0  0  0
  143.5050   72.7110  219.9370 N   0  0  0  0  0  0  0  0  0  0  0  0
  143.9710   71.3400  219.6560 C   0  0  0  0  0  0  0  0  0  0  0  0
  145.2180   71.5810  218.8320 C   0  0  2  0  0  0  0  0  0  0  0  0
  146.2580   70.8290  219.3530 O   0  0  0  0  0  0  0  0  0  0  0  0
  145.5460   73.0710  219.0010 C   0  0  0  0  0  0  0  0  0  0  0  0
  144.7610   73.4290  220.2170 C   0  0  1  0  0  0  0  0  0  0  0  0
  144.4900   74.8820  220.4300 C   0  0  0  0  0  0  0  0  0  0  0  0
  143.5140   75.4500  219.7180 O   0  0  0  0  0  0  0  0  0  0  0  0
  143.0810   76.5320  219.0960 C   0  0  0  0  0  0  0  0  0  0  0  0
  143.3180   76.6050  217.7020 C   0  0  0  0  0  0  0  0  0  0  0  0
  142.9280   77.6630  216.9420 C   0  0  0  0  0  0  0  0  0  0  0  0
  142.2750   78.7140  217.5290 C   0  0  0  0  0  0  0  0  0  0  0  0
  142.0160   78.7070  218.8640 C   0  0  0  0  0  0  0  0  0  0  0  0
  141.1720   80.0600  219.6310 Cl  0  0  0  0  0  0  0  0  0  0  0  0
  142.4200   77.6260  219.6120 C   0  0  0  0  0  0  0  0  0  0  0  0
  140.2770   76.8190  222.3520 C   0  0  0  0  0  0  0  0  0  0  0  0
  139.0890   77.5120  222.4710 C   0  0  0  0  0  0  0  0  0  0  0  0
  139.1100   78.8660  222.8050 C   0  0  0  0  0  0  0  0  0  0  0  0
  140.3420   79.4710  223.0070 C   0  0  0  0  0  0  0  0  0  0  0  0
  140.4020   80.8210  223.3410 C   0  0  0  0  0  0  0  0  0  0  0  0
  141.6400   81.4270  223.5440 C   0  0  0  0  0  0  0  0  0  0  0  0
  142.8250   80.7240  223.4230 C   0  0  0  0  0  0  0  0  0  0  0  0
  142.7630   79.3870  223.0910 C   0  0  0  0  0  0  0  0  0  0  0  0
  141.5320   78.7700  222.8870 C   0  0  0  0  0  0  0  0  0  0  0  0
  141.4440   77.4690  222.5630 N   0  0  0  0  0  0  0  0  0  0  0  0
  142.3510   75.3850  221.5750 H   0  0  0  0  0  0  0  0  0  0  0  0
  142.0796   72.8383  222.0254 H   0  0  0  0  0  0  0  0  0  0  0  0
  140.4848   73.0150  221.1914 H   0  0  0  0  0  0  0  0  0  0  0  0
  144.2067   70.8017  220.5859 H   0  0  0  0  0  0  0  0  0  0  0  0
  143.2212   70.7177  219.1455 H   0  0  0  0  0  0  0  0  0  0  0  0
  145.0738   71.3060  217.7767 H   0  0  0  0  0  0  0  0  0  0  0  0
  146.3010   71.0780  220.3280 H   0  0  0  0  0  0  0  0  0  0  0  0
  146.6231   73.2268  219.1611 H   0  0  0  0  0  0  0  0  0  0  0  0
  145.2985   73.6809  218.1196 H   0  0  0  0  0  0  0  0  0  0  0  0
  145.3024   73.1669  221.1379 H   0  0  0  0  0  0  0  0  0  0  0  0
  144.2392   75.0153  221.4927 H   0  0  0  0  0  0  0  0  0  0  0  0
  145.4067   75.3847  220.0880 H   0  0  0  0  0  0  0  0  0  0  0  0
  143.8402   75.7697  217.2126 H   0  0  0  0  0  0  0  0  0  0  0  0
  143.1358   77.6746  215.8619 H   0  0  0  0  0  0  0  0  0  0  0  0
  141.9576   79.5704  216.9159 H   0  0  0  0  0  0  0  0  0  0  0  0
  142.2019   77.6349  220.6901 H   0  0  0  0  0  0  0  0  0  0  0  0
  138.1306   76.9989  222.3032 H   0  0  0  0  0  0  0  0  0  0  0  0
  138.1759   79.4381  222.9054 H   0  0  0  0  0  0  0  0  0  0  0  0
  139.4765   81.4065  223.4442 H   0  0  0  0  0  0  0  0  0  0  0  0
  141.6760   82.4943  223.8079 H   0  0  0  0  0  0  0  0  0  0  0  0
  143.7933   81.2193  223.5876 H   0  0  0  0  0  0  0  0  0  0  0  0
  143.6908   78.8053  222.9869 H   0  0  0  0  0  0  0  0  0  0  0  0
  1  2  2  0
  2  3  1  0
  3  4  1  0
  4  5  1  0
  5  6  2  0
  5  7  1  0
  7  8  1  0
  8  9  1  0
  9 10  1  0
  9 11  1  0
 11 12  1  0
 12 13  1  0
 13 14  1  0
 14 15  1  0
 15 16  2  0
 16 17  1  0
 17 18  2  0
 18 19  1  0
 19 20  1  0
 19 21  2  0
  2 22  1  0
 22 23  2  0
 23 24  1  0
 24 25  2  0
 25 26  1  0
 26 27  2  0
 27 28  1  0
 28 29  2  0
 29 30  1  0
 30 31  2  0
 12  7  1  0
 21 15  1  0
 31 22  1  0
 30 25  1  0
  3 32  1  0
  4 33  1  0
  4 34  1  0
  8 35  1  0
  8 36  1  0
  9 37  1  6
 10 38  1  0
 11 39  1  0
 11 40  1  0
 12 41  1  1
 13 42  1  0
 13 43  1  0
 16 44  1  0
 17 45  1  0
 18 46  1  0
 21 47  1  0
 23 48  1  0
 24 49  1  0
 26 50  1  0
 27 51  1  0
 28 52  1  0
 29 53  1  0
M  END
>  <smiles>  (20) 
O=C(NCC(=O)N1C[C@H](O)C[C@H]1COc1cccc(Cl)c1)c1ccc2ccccc2n1

>  <score_type>  (20) 
oracle

>  <origin>  (20) 
autodockgpu

>  <m_score__min__energy>  (20) 
-9.2899999999999991

>  <m_primary>  (20) 
energy

>  <rmsd>  (20) 
7.780657092595004

>  <m_score__min__rmsd>  (20) 
7.780657092595004

>  <meeko>  (20) 
{"free_energy": -7.46, "intermolecular_energy": -9.84, "internal_energy": -3.42, "cluster_size": 21, "cluster_id": 8, "rank_in_cluster": 7}

>  <energy>  (20) 
-8.27

>  <cluster_rmsd>  (20) 
0.0

>  <cluster>  (20) 
3

$$$$

     RDKit          3D

 53 56  0  0  0  0  0  0  0  0999 V2000
  139.1850   74.7150  222.0630 O   0  0  0  0  0  0  0  0  0  0  0  0
  140.2730   75.3570  221.9910 C   0  0  0  0  0  0  0  0  0  0  0  0
  141.4770   74.7500  221.5940 N   0  0  0  0  0  0  0  0  0  0  0  0
  141.5170   73.3600  221.2540 C   0  0  0  0  0  0  0  0  0  0  0  0
  142.1700   73.1500  219.9260 C   0  0  0  0  0  0  0  0  0  0  0  0
  141.4770   73.3900  218.9200 O   0  0  0  0  0  0  0  0  0  0  0  0
  143.5040   72.7020  219.9280 N   0  0  0  0  0  0  0  0  0  0  0  0
  143.9940   71.3410  219.6390 C   0  0  0  0  0  0  0  0  0  0  0  0
  145.2340   71.6080  218.8140 C   0  0  2  0  0  0  0  0  0  0  0  0
  146.2880   70.8710  219.3280 O   0  0  0  0  0  0  0  0  0  0  0  0
  145.5370   73.1020  218.9900 C   0  0  0  0  0  0  0  0  0  0  0  0
  144.7480   73.4400  220.2090 C   0  0  1  0  0  0  0  0  0  0  0  0
  144.4520   74.8860  220.4310 C   0  0  0  0  0  0  0  0  0  0  0  0
  143.4840   75.4490  219.7040 O   0  0  0  0  0  0  0  0  0  0  0  0
  143.0570   76.5260  219.0700 C   0  0  0  0  0  0  0  0  0  0  0  0
  143.3150   76.5930  217.6800 C   0  0  0  0  0  0  0  0  0  0  0  0
  142.9330   77.6450  216.9090 C   0  0  0  0  0  0  0  0  0  0  0  0
  142.2670   78.6970  217.4800 C   0  0  0  0  0  0  0  0  0  0  0  0
  141.9880   78.6960  218.8110 C   0  0  0  0  0  0  0  0  0  0  0  0
  141.1280   80.0490  219.5580 Cl  0  0  0  0  0  0  0  0  0  0  0  0
  142.3840   77.6210  219.5700 C   0  0  0  0  0  0  0  0  0  0  0  0
  140.2700   76.7950  222.3350 C   0  0  0  0  0  0  0  0  0  0  0  0
  139.0810   77.4860  222.4490 C   0  0  0  0  0  0  0  0  0  0  0  0
  139.0990   78.8420  222.7750 C   0  0  0  0  0  0  0  0  0  0  0  0
  140.3300   79.4510  222.9750 C   0  0  0  0  0  0  0  0  0  0  0  0
  140.3870   80.8030  223.3020 C   0  0  0  0  0  0  0  0  0  0  0  0
  141.6230   81.4110  223.5030 C   0  0  0  0  0  0  0  0  0  0  0  0
  142.8100   80.7100  223.3870 C   0  0  0  0  0  0  0  0  0  0  0  0
  142.7500   79.3710  223.0620 C   0  0  0  0  0  0  0  0  0  0  0  0
  141.5210   78.7510  222.8600 C   0  0  0  0  0  0  0  0  0  0  0  0
  141.4350   77.4480  222.5440 N   0  0  0  0  0  0  0  0  0  0  0  0
  142.3450   75.3620  221.5600 H   0  0  0  0  0  0  0  0  0  0  0  0
  142.0858   72.8180  222.0239 H   0  0  0  0  0  0  0  0  0  0  0  0
  140.4848   72.9836  221.1995 H   0  0  0  0  0  0  0  0  0  0  0  0
  144.2414   70.8024  220.5657 H   0  0  0  0  0  0  0  0  0  0  0  0
  143.2543   70.7080  219.1269 H   0  0  0  0  0  0  0  0  0  0  0  0
  145.0916   71.3365  217.7576 H   0  0  0  0  0  0  0  0  0  0  0  0
  146.3130   71.0960  220.3100 H   0  0  0  0  0  0  0  0  0  0  0  0
  146.6115   73.2753  219.1493 H   0  0  0  0  0  0  0  0  0  0  0  0
  145.2780   73.7122  218.1122 H   0  0  0  0  0  0  0  0  0  0  0  0
  145.2963   73.1824  221.1271 H   0  0  0  0  0  0  0  0  0  0  0  0
  144.1762   75.0041  221.4893 H   0  0  0  0  0  0  0  0  0  0  0  0
  145.3688   75.4046  220.1140 H   0  0  0  0  0  0  0  0  0  0  0  0
  143.8479   75.7573  217.2030 H   0  0  0  0  0  0  0  0  0  0  0  0
  143.1574   77.6516  215.8322 H   0  0  0  0  0  0  0  0  0  0  0  0
  141.9556   79.5487  216.8575 H   0  0  0  0  0  0  0  0  0  0  0  0
  142.1493   77.6348  220.6446 H   0  0  0  0  0  0  0  0  0  0  0  0
  138.1237   76.9699  222.2836 H   0  0  0  0  0  0  0  0  0  0  0  0
  138.1636   79.4129  222.8709 H   0  0  0  0  0  0  0  0  0  0  0  0
  139.4605   81.3876  223.4010 H   0  0  0  0  0  0  0  0  0  0  0  0
  141.6569   82.4797  223.7615 H   0  0  0  0  0  0  0  0  0  0  0  0
  143.7772   81.2080  223.5498 H   0  0  0  0  0  0  0  0  0  0  0  0
  143.6788   78.7902  222.9620 H   0  0  0  0  0  0  0  0  0  0  0  0
  1  2  2  0
  2  3  1  0
  3  4  1  0
  4  5  1  0
  5  6  2  0
  5  7  1  0
  7  8  1  0
  8  9  1  0
  9 10  1  0
  9 11  1  0
 11 12  1  0
 12 13  1  0
 13 14  1  0
 14 15  1  0
 15 16  2  0
 16 17  1  0
 17 18  2  0
 18 19  1  0
 19 20  1  0
 19 21  2  0
  2 22  1  0
 22 23  2  0
 23 24  1  0
 24 25  2  0
 25 26  1  0
 26 27  2  0
 27 28  1  0
 28 29  2  0
 29 30  1  0
 30 31  2  0
 12  7  1  0
 21 15  1  0
 31 22  1  0
 30 25  1  0
  3 32  1  0
  4 33  1  0
  4 34  1  0
  8 35  1  0
  8 36  1  0
  9 37  1  6
 10 38  1  0
 11 39  1  0
 11 40  1  0
 12 41  1  1
 13 42  1  0
 13 43  1  0
 16 44  1  0
 17 45  1  0
 18 46  1  0
 21 47  1  0
 23 48  1  0
 24 49  1  0
 26 50  1  0
 27 51  1  0
 28 52  1  0
 29 53  1  0
M  END
>  <smiles>  (21) 
O=C(NCC(=O)N1C[C@H](O)C[C@H]1COc1cccc(Cl)c1)c1ccc2ccccc2n1

>  <score_type>  (21) 
oracle

>  <origin>  (21) 
autodockgpu

>  <m_score__min__energy>  (21) 
-9.2899999999999991

>  <m_primary>  (21) 
energy

>  <rmsd>  (21) 
7.771373846038626

>  <m_score__min__rmsd>  (21) 
7.771373846038626

>  <meeko>  (21) 
{"free_energy": -7.43, "intermolecular_energy": -9.82, "internal_energy": -3.45, "cluster_size": 21, "cluster_id": 8, "rank_in_cluster": 9}

>  <energy>  (21) 
-7.74

>  <cluster_rmsd>  (21) 
1.77

>  <cluster>  (21) 
3

$$$$

     RDKit          3D

 53 56  0  0  0  0  0  0  0  0999 V2000
  139.1300   74.7180  222.0150 O   0  0  0  0  0  0  0  0  0  0  0  0
  140.2190   75.3600  221.9710 C   0  0  0  0  0  0  0  0  0  0  0  0
  141.4290   74.7610  221.5800 N   0  0  0  0  0  0  0  0  0  0  0  0
  141.4740   73.3780  221.2130 C   0  0  0  0  0  0  0  0  0  0  0  0
  142.1690   73.1910  219.9040 C   0  0  0  0  0  0  0  0  0  0  0  0
  141.5140   73.4690  218.8810 O   0  0  0  0  0  0  0  0  0  0  0  0
  143.4940   72.7190  219.9380 N   0  0  0  0  0  0  0  0  0  0  0  0
  143.9670   71.3500  219.6610 C   0  0  0  0  0  0  0  0  0  0  0  0
  145.2320   71.5950  218.8670 C   0  0  2  0  0  0  0  0  0  0  0  0
  146.2590   70.8390  219.4070 O   0  0  0  0  0  0  0  0  0  0  0  0
  145.5570   73.0830  219.0520 C   0  0  0  0  0  0  0  0  0  0  0  0
  144.7430   73.4360  220.2510 C   0  0  1  0  0  0  0  0  0  0  0  0
  144.4680   74.8870  220.4660 C   0  0  0  0  0  0  0  0  0  0  0  0
  143.4880   75.4520  219.7580 O   0  0  0  0  0  0  0  0  0  0  0  0
  143.0520   76.5300  219.1310 C   0  0  0  0  0  0  0  0  0  0  0  0
  143.3330   76.6230  217.7470 C   0  0  0  0  0  0  0  0  0  0  0  0
  142.9460   77.6790  216.9850 C   0  0  0  0  0  0  0  0  0  0  0  0
  142.2500   78.7110  217.5590 C   0  0  0  0  0  0  0  0  0  0  0  0
  141.9470   78.6840  218.8850 C   0  0  0  0  0  0  0  0  0  0  0  0
  141.0500   80.0100  219.6350 Cl  0  0  0  0  0  0  0  0  0  0  0  0
  142.3500   77.6050  219.6350 C   0  0  0  0  0  0  0  0  0  0  0  0
  140.2120   76.7920  222.3430 C   0  0  0  0  0  0  0  0  0  0  0  0
  139.0200   77.4710  222.4920 C   0  0  0  0  0  0  0  0  0  0  0  0
  139.0340   78.8200  222.8440 C   0  0  0  0  0  0  0  0  0  0  0  0
  140.2630   79.4350  223.0330 C   0  0  0  0  0  0  0  0  0  0  0  0
  140.3150   80.7810  223.3850 C   0  0  0  0  0  0  0  0  0  0  0  0
  141.5510   81.3960  223.5750 C   0  0  0  0  0  0  0  0  0  0  0  0
  142.7410   80.7060  223.4240 C   0  0  0  0  0  0  0  0  0  0  0  0
  142.6850   79.3730  223.0740 C   0  0  0  0  0  0  0  0  0  0  0  0
  141.4570   78.7470  222.8830 C   0  0  0  0  0  0  0  0  0  0  0  0
  141.3760   77.4500  222.5430 N   0  0  0  0  0  0  0  0  0  0  0  0
  142.2980   75.3730  221.5710 H   0  0  0  0  0  0  0  0  0  0  0  0
  142.0146   72.8176  221.9900 H   0  0  0  0  0  0  0  0  0  0  0  0
  140.4424   73.0085  221.1166 H   0  0  0  0  0  0  0  0  0  0  0  0
  144.1817   70.8073  220.5934 H   0  0  0  0  0  0  0  0  0  0  0  0
  143.2293   70.7301  219.1304 H   0  0  0  0  0  0  0  0  0  0  0  0
  145.1116   71.3267  217.8071 H   0  0  0  0  0  0  0  0  0  0  0  0
  146.1630   70.9390  220.4060 H   0  0  0  0  0  0  0  0  0  0  0  0
  146.6300   73.2367  219.2390 H   0  0  0  0  0  0  0  0  0  0  0  0
  145.3313   73.6977  218.1682 H   0  0  0  0  0  0  0  0  0  0  0  0
  145.2625   73.1697  221.1833 H   0  0  0  0  0  0  0  0  0  0  0  0
  144.2204   75.0186  221.5297 H   0  0  0  0  0  0  0  0  0  0  0  0
  145.3819   75.3931  220.1214 H   0  0  0  0  0  0  0  0  0  0  0  0
  143.8892   75.8042  217.2672 H   0  0  0  0  0  0  0  0  0  0  0  0
  143.1900   77.7058  215.9127 H   0  0  0  0  0  0  0  0  0  0  0  0
  141.9345   79.5664  216.9436 H   0  0  0  0  0  0  0  0  0  0  0  0
  142.0965   77.5984  220.7054 H   0  0  0  0  0  0  0  0  0  0  0  0
  138.0638   76.9507  222.3339 H   0  0  0  0  0  0  0  0  0  0  0  0
  138.0962   79.3813  222.9684 H   0  0  0  0  0  0  0  0  0  0  0  0
  139.3858   81.3557  223.5124 H   0  0  0  0  0  0  0  0  0  0  0  0
  141.5816   82.4599  223.8528 H   0  0  0  0  0  0  0  0  0  0  0  0
  143.7074   81.2080  223.5792 H   0  0  0  0  0  0  0  0  0  0  0  0
  143.6161   78.8017  222.9452 H   0  0  0  0  0  0  0  0  0  0  0  0
  1  2  2  0
  2  3  1  0
  3  4  1  0
  4  5  1  0
  5  6  2  0
  5  7  1  0
  7  8  1  0
  8  9  1  0
  9 10  1  0
  9 11  1  0
 11 12  1  0
 12 13  1  0
 13 14  1  0
 14 15  1  0
 15 16  2  0
 16 17  1  0
 17 18  2  0
 18 19  1  0
 19 20  1  0
 19 21  2  0
  2 22  1  0
 22 23  2  0
 23 24  1  0
 24 25  2  0
 25 26  1  0
 26 27  2  0
 27 28  1  0
 28 29  2  0
 29 30  1  0
 30 31  2  0
 12  7  1  0
 21 15  1  0
 31 22  1  0
 30 25  1  0
  3 32  1  0
  4 33  1  0
  4 34  1  0
  8 35  1  0
  8 36  1  0
  9 37  1  6
 10 38  1  0
 11 39  1  0
 11 40  1  0
 12 41  1  1
 13 42  1  0
 13 43  1  0
 16 44  1  0
 17 45  1  0
 18 46  1  0
 21 47  1  0
 23 48  1  0
 24 49  1  0
 26 50  1  0
 27 51  1  0
 28 52  1  0
 29 53  1  0
M  END
>  <smiles>  (22) 
O=C(NCC(=O)N1C[C@H](O)C[C@H]1COc1cccc(Cl)c1)c1ccc2ccccc2n1

>  <score_type>  (22) 
oracle

>  <origin>  (22) 
autodockgpu

>  <m_score__min__energy>  (22) 
-9.2899999999999991

>  <m_primary>  (22) 
energy

>  <rmsd>  (22) 
7.753336812733552

>  <m_score__min__rmsd>  (22) 
7.753336812733552

>  <meeko>  (22) 
{"free_energy": -7.46, "intermolecular_energy": -9.85, "internal_energy": -3.42, "cluster_size": 21, "cluster_id": 8, "rank_in_cluster": 6}

>  <energy>  (22) 
-8.14

>  <cluster_rmsd>  (22) 
0.0

>  <cluster>  (22) 
4

$$$$

     RDKit          3D

 53 56  0  0  0  0  0  0  0  0999 V2000
  141.2980   71.7560  221.5660 O   0  0  0  0  0  0  0  0  0  0  0  0
  140.4610   72.1490  222.4300 C   0  0  0  0  0  0  0  0  0  0  0  0
  139.7430   73.3490  222.2870 N   0  0  0  0  0  0  0  0  0  0  0  0
  139.9360   74.1840  221.1410 C   0  0  0  0  0  0  0  0  0  0  0  0
  140.9740   75.2250  221.4030 C   0  0  0  0  0  0  0  0  0  0  0  0
  140.6950   76.0880  222.2580 O   0  0  0  0  0  0  0  0  0  0  0  0
  142.1700   75.1440  220.6660 N   0  0  0  0  0  0  0  0  0  0  0  0
  143.2410   74.1390  220.8020 C   0  0  0  0  0  0  0  0  0  0  0  0
  143.6170   73.8660  219.3610 C   0  0  2  0  0  0  0  0  0  0  0  0
  144.9930   73.9500  219.2280 O   0  0  0  0  0  0  0  0  0  0  0  0
  142.9670   74.9880  218.5410 C   0  0  0  0  0  0  0  0  0  0  0  0
  142.6740   76.0110  219.5860 C   0  0  1  0  0  0  0  0  0  0  0  0
  141.6590   77.0480  219.2380 C   0  0  0  0  0  0  0  0  0  0  0  0
  141.6520   78.1820  219.9420 O   0  0  0  0  0  0  0  0  0  0  0  0
  141.3650   78.7750  221.0860 C   0  0  0  0  0  0  0  0  0  0  0  0
  140.0130   78.7360  221.5050 C   0  0  0  0  0  0  0  0  0  0  0  0
  139.5810   79.3090  222.6590 C   0  0  0  0  0  0  0  0  0  0  0  0
  140.4750   79.9560  223.4700 C   0  0  0  0  0  0  0  0  0  0  0  0
  141.7890   80.0300  223.1270 C   0  0  0  0  0  0  0  0  0  0  0  0
  142.9510   80.8640  224.1680 Cl  0  0  0  0  0  0  0  0  0  0  0  0
  142.2020   79.4440  221.9550 C   0  0  0  0  0  0  0  0  0  0  0  0
  140.2360   71.3120  223.6290 C   0  0  0  0  0  0  0  0  0  0  0  0
  139.5670   70.1090  223.5280 C   0  0  0  0  0  0  0  0  0  0  0  0
  139.3650   69.3340  224.6690 C   0  0  0  0  0  0  0  0  0  0  0  0
  139.8510   69.8110  225.8780 C   0  0  0  0  0  0  0  0  0  0  0  0
  139.6670   69.0640  227.0390 C   0  0  0  0  0  0  0  0  0  0  0  0
  140.1560   69.5440  228.2520 C   0  0  0  0  0  0  0  0  0  0  0  0
  140.8260   70.7510  228.3430 C   0  0  0  0  0  0  0  0  0  0  0  0
  141.0050   71.4890  227.1910 C   0  0  0  0  0  0  0  0  0  0  0  0
  140.5220   71.0190  225.9730 C   0  0  0  0  0  0  0  0  0  0  0  0
  140.6850   71.7190  224.8370 N   0  0  0  0  0  0  0  0  0  0  0  0
  139.0590   73.6050  223.0600 H   0  0  0  0  0  0  0  0  0  0  0  0
  140.2575   73.5615  220.2930 H   0  0  0  0  0  0  0  0  0  0  0  0
  138.9856   74.6882  220.9121 H   0  0  0  0  0  0  0  0  0  0  0  0
  144.0950   74.5416  221.3665 H   0  0  0  0  0  0  0  0  0  0  0  0
  142.9311   73.2388  221.3530 H   0  0  0  0  0  0  0  0  0  0  0  0
  143.2875   72.8695  219.0318 H   0  0  0  0  0  0  0  0  0  0  0  0
  145.1490   74.7080  218.5820 H   0  0  0  0  0  0  0  0  0  0  0  0
  143.6597   75.3801  217.7818 H   0  0  0  0  0  0  0  0  0  0  0  0
  142.0795   74.6658  217.9766 H   0  0  0  0  0  0  0  0  0  0  0  0
  143.5571   76.6305  219.8011 H   0  0  0  0  0  0  0  0  0  0  0  0
  141.8172   77.3190  218.1837 H   0  0  0  0  0  0  0  0  0  0  0  0
  140.6936   76.5751  219.4713 H   0  0  0  0  0  0  0  0  0  0  0  0
  139.2800   78.2190  220.8682 H   0  0  0  0  0  0  0  0  0  0  0  0
  138.5190   79.2535  222.9402 H   0  0  0  0  0  0  0  0  0  0  0  0
  140.1279   80.4191  224.4054 H   0  0  0  0  0  0  0  0  0  0  0  0
  143.2681   79.5126  221.6928 H   0  0  0  0  0  0  0  0  0  0  0  0
  139.1951   69.7635  222.5521 H   0  0  0  0  0  0  0  0  0  0  0  0
  138.8353   68.3716  224.6125 H   0  0  0  0  0  0  0  0  0  0  0  0
  139.1384   68.1002  226.9984 H   0  0  0  0  0  0  0  0  0  0  0  0
  140.0051   68.9464  229.1631 H   0  0  0  0  0  0  0  0  0  0  0  0
  141.2064   71.1132  229.3095 H   0  0  0  0  0  0  0  0  0  0  0  0
  141.5320   72.4535  227.2353 H   0  0  0  0  0  0  0  0  0  0  0  0
  1  2  2  0
  2  3  1  0
  3  4  1  0
  4  5  1  0
  5  6  2  0
  5  7  1  0
  7  8  1  0
  8  9  1  0
  9 10  1  0
  9 11  1  0
 11 12  1  0
 12 13  1  0
 13 14  1  0
 14 15  1  0
 15 16  2  0
 16 17  1  0
 17 18  2  0
 18 19  1  0
 19 20  1  0
 19 21  2  0
  2 22  1  0
 22 23  2  0
 23 24  1  0
 24 25  2  0
 25 26  1  0
 26 27  2  0
 27 28  1  0
 28 29  2  0
 29 30  1  0
 30 31  2  0
 12  7  1  0
 21 15  1  0
 31 22  1  0
 30 25  1  0
  3 32  1  0
  4 33  1  0
  4 34  1  0
  8 35  1  0
  8 36  1  0
  9 37  1  6
 10 38  1  0
 11 39  1  0
 11 40  1  0
 12 41  1  1
 13 42  1  0
 13 43  1  0
 16 44  1  0
 17 45  1  0
 18 46  1  0
 21 47  1  0
 23 48  1  0
 24 49  1  0
 26 50  1  0
 27 51  1  0
 28 52  1  0
 29 53  1  0
M  END
>  <smiles>  (23) 
O=C(NCC(=O)N1C[C@H](O)C[C@H]1COc1cccc(Cl)c1)c1ccc2ccccc2n1

>  <score_type>  (23) 
oracle

>  <origin>  (23) 
autodockgpu

>  <m_score__min__energy>  (23) 
-9.2899999999999991

>  <m_primary>  (23) 
energy

>  <rmsd>  (23) 
2.473945040438035

>  <m_score__min__rmsd>  (23) 
2.473945040438035

>  <meeko>  (23) 
{"free_energy": -9.02, "intermolecular_energy": -11.41, "internal_energy": -1.67, "cluster_size": 17, "cluster_id": 1, "rank_in_cluster": 4}

>  <energy>  (23) 
-7.72

>  <cluster_rmsd>  (23) 
0.0

>  <cluster>  (23) 
5

$$$$

     RDKit          3D

 53 56  0  0  0  0  0  0  0  0999 V2000
  139.9480   71.2290  221.1960 O   0  0  0  0  0  0  0  0  0  0  0  0
  139.8560   71.9280  222.2470 C   0  0  0  0  0  0  0  0  0  0  0  0
  139.6770   73.3220  222.2070 N   0  0  0  0  0  0  0  0  0  0  0  0
  139.5920   74.0120  220.9560 C   0  0  0  0  0  0  0  0  0  0  0  0
  140.3330   75.3090  221.0050 C   0  0  0  0  0  0  0  0  0  0  0  0
  139.6930   76.3010  221.4030 O   0  0  0  0  0  0  0  0  0  0  0  0
  141.6800   75.2980  220.5990 N   0  0  0  0  0  0  0  0  0  0  0  0
  142.6900   74.2590  220.8700 C   0  0  0  0  0  0  0  0  0  0  0  0
  143.4310   74.1720  219.5530 C   0  0  2  0  0  0  0  0  0  0  0  0
  144.7930   74.2400  219.7930 O   0  0  0  0  0  0  0  0  0  0  0  0
  143.0030   75.4090  218.7520 C   0  0  0  0  0  0  0  0  0  0  0  0
  142.4370   76.2890  219.8150 C   0  0  1  0  0  0  0  0  0  0  0  0
  141.5350   77.3880  219.3600 C   0  0  0  0  0  0  0  0  0  0  0  0
  141.4950   78.5090  220.0840 O   0  0  0  0  0  0  0  0  0  0  0  0
  141.3540   79.0520  221.2790 C   0  0  0  0  0  0  0  0  0  0  0  0
  142.5350   79.2500  222.0340 C   0  0  0  0  0  0  0  0  0  0  0  0
  142.5320   79.7970  223.2790 C   0  0  0  0  0  0  0  0  0  0  0  0
  141.3470   80.1800  223.8480 C   0  0  0  0  0  0  0  0  0  0  0  0
  140.1750   80.0180  223.1760 C   0  0  0  0  0  0  0  0  0  0  0  0
  138.6390   80.5100  223.9010 Cl  0  0  0  0  0  0  0  0  0  0  0  0
  140.2030   79.4630  221.9180 C   0  0  0  0  0  0  0  0  0  0  0  0
  139.9410   71.2500  223.5580 C   0  0  0  0  0  0  0  0  0  0  0  0
  139.5330   69.9390  223.6970 C   0  0  0  0  0  0  0  0  0  0  0  0
  139.6200   69.3170  224.9420 C   0  0  0  0  0  0  0  0  0  0  0  0
  140.1220   70.0510  226.0070 C   0  0  0  0  0  0  0  0  0  0  0  0
  140.2230   69.4620  227.2640 C   0  0  0  0  0  0  0  0  0  0  0  0
  140.7270   70.2020  228.3320 C   0  0  0  0  0  0  0  0  0  0  0  0
  141.1340   71.5150  228.1840 C   0  0  0  0  0  0  0  0  0  0  0  0
  141.0310   72.0960  226.9370 C   0  0  0  0  0  0  0  0  0  0  0  0
  140.5300   71.3670  225.8610 C   0  0  0  0  0  0  0  0  0  0  0  0
  140.4200   71.9090  224.6370 N   0  0  0  0  0  0  0  0  0  0  0  0
  139.6100   73.8340  223.1360 H   0  0  0  0  0  0  0  0  0  0  0  0
  140.0258   73.3801  220.1670 H   0  0  0  0  0  0  0  0  0  0  0  0
  138.5332   74.2225  220.7445 H   0  0  0  0  0  0  0  0  0  0  0  0
  143.3630   74.5618  221.6857 H   0  0  0  0  0  0  0  0  0  0  0  0
  142.2578   73.3009  221.1944 H   0  0  0  0  0  0  0  0  0  0  0  0
  143.2104   73.2363  219.0184 H   0  0  0  0  0  0  0  0  0  0  0  0
  145.1900   74.6340  218.9540 H   0  0  0  0  0  0  0  0  0  0  0  0
  143.8643   75.8826  218.2582 H   0  0  0  0  0  0  0  0  0  0  0  0
  142.2966   75.1870  217.9386 H   0  0  0  0  0  0  0  0  0  0  0  0
  143.2268   76.8520  220.3338 H   0  0  0  0  0  0  0  0  0  0  0  0
  141.8475   77.6670  218.3429 H   0  0  0  0  0  0  0  0  0  0  0  0
  140.5229   76.9669  219.4514 H   0  0  0  0  0  0  0  0  0  0  0  0
  143.4971   78.9482  221.5944 H   0  0  0  0  0  0  0  0  0  0  0  0
  143.4768   79.9311  223.8262 H   0  0  0  0  0  0  0  0  0  0  0  0
  141.3424   80.6217  224.8554 H   0  0  0  0  0  0  0  0  0  0  0  0
  139.2471   79.3391  221.3880 H   0  0  0  0  0  0  0  0  0  0  0  0
  139.1410   69.3873  222.8298 H   0  0  0  0  0  0  0  0  0  0  0  0
  139.2995   68.2733  225.0760 H   0  0  0  0  0  0  0  0  0  0  0  0
  139.9070   68.4190  227.4135 H   0  0  0  0  0  0  0  0  0  0  0  0
  140.8032   69.7276  229.3215 H   0  0  0  0  0  0  0  0  0  0  0  0
  141.5301   72.0822  229.0392 H   0  0  0  0  0  0  0  0  0  0  0  0
  141.3460   73.1399  226.7917 H   0  0  0  0  0  0  0  0  0  0  0  0
  1  2  2  0
  2  3  1  0
  3  4  1  0
  4  5  1  0
  5  6  2  0
  5  7  1  0
  7  8  1  0
  8  9  1  0
  9 10  1  0
  9 11  1  0
 11 12  1  0
 12 13  1  0
 13 14  1  0
 14 15  1  0
 15 16  2  0
 16 17  1  0
 17 18  2  0
 18 19  1  0
 19 20  1  0
 19 21  2  0
  2 22  1  0
 22 23  2  0
 23 24  1  0
 24 25  2  0
 25 26  1  0
 26 27  2  0
 27 28  1  0
 28 29  2  0
 29 30  1  0
 30 31  2  0
 12  7  1  0
 21 15  1  0
 31 22  1  0
 30 25  1  0
  3 32  1  0
  4 33  1  0
  4 34  1  0
  8 35  1  0
  8 36  1  0
  9 37  1  6
 10 38  1  0
 11 39  1  0
 11 40  1  0
 12 41  1  1
 13 42  1  0
 13 43  1  0
 16 44  1  0
 17 45  1  0
 18 46  1  0
 21 47  1  0
 23 48  1  0
 24 49  1  0
 26 50  1  0
 27 51  1  0
 28 52  1  0
 29 53  1  0
M  END
>  <smiles>  (24) 
O=C(NCC(=O)N1C[C@H](O)C[C@H]1COc1cccc(Cl)c1)c1ccc2ccccc2n1

>  <score_type>  (24) 
oracle

>  <origin>  (24) 
autodockgpu

>  <m_score__min__energy>  (24) 
-9.2899999999999991

>  <m_primary>  (24) 
energy

>  <rmsd>  (24) 
2.2776966338148084

>  <m_score__min__rmsd>  (24) 
2.2776966338148084

>  <meeko>  (24) 
{"free_energy": -8.64, "intermolecular_energy": -11.02, "internal_energy": -1.76, "cluster_size": 17, "cluster_id": 1, "rank_in_cluster": 13}

>  <energy>  (24) 
-7.65

>  <cluster_rmsd>  (24) 
1.57

>  <cluster>  (24) 
5

$$$$

     RDKit          3D

 53 56  0  0  0  0  0  0  0  0999 V2000
  139.5090   71.1750  221.3090 O   0  0  0  0  0  0  0  0  0  0  0  0
  139.5940   71.8670  222.3650 C   0  0  0  0  0  0  0  0  0  0  0  0
  139.4940   73.2690  222.3530 N   0  0  0  0  0  0  0  0  0  0  0  0
  139.2920   73.9770  221.1260 C   0  0  0  0  0  0  0  0  0  0  0  0
  140.3190   73.5960  220.1100 C   0  0  0  0  0  0  0  0  0  0  0  0
  139.9100   72.9740  219.1100 O   0  0  0  0  0  0  0  0  0  0  0  0
  141.6510   73.9680  220.3670 N   0  0  0  0  0  0  0  0  0  0  0  0
  142.8590   73.1330  220.2320 C   0  0  0  0  0  0  0  0  0  0  0  0
  143.8570   74.0970  219.6280 C   0  0  2  0  0  0  0  0  0  0  0  0
  145.0360   74.0430  220.3530 O   0  0  0  0  0  0  0  0  0  0  0  0
  143.2370   75.4920  219.7860 C   0  0  0  0  0  0  0  0  0  0  0  0
  142.1980   75.2560  220.8300 C   0  0  1  0  0  0  0  0  0  0  0  0
  141.1110   76.2740  220.9300 C   0  0  0  0  0  0  0  0  0  0  0  0
  141.0300   76.9990  222.0490 O   0  0  0  0  0  0  0  0  0  0  0  0
  140.9270   78.2000  222.5870 C   0  0  0  0  0  0  0  0  0  0  0  0
  142.1190   78.9560  222.6950 C   0  0  0  0  0  0  0  0  0  0  0  0
  142.1550   80.2050  223.2310 C   0  0  0  0  0  0  0  0  0  0  0  0
  140.9990   80.7780  223.6920 C   0  0  0  0  0  0  0  0  0  0  0  0
  139.8190   80.1050  223.6170 C   0  0  0  0  0  0  0  0  0  0  0  0
  138.3210   80.8360  224.2090 Cl  0  0  0  0  0  0  0  0  0  0  0  0
  139.8080   78.8440  223.0720 C   0  0  0  0  0  0  0  0  0  0  0  0
  139.8040   71.1700  223.6530 C   0  0  0  0  0  0  0  0  0  0  0  0
  139.4960   69.8310  223.7830 C   0  0  0  0  0  0  0  0  0  0  0  0
  139.7020   69.1920  225.0060 C   0  0  0  0  0  0  0  0  0  0  0  0
  140.2140   69.9380  226.0570 C   0  0  0  0  0  0  0  0  0  0  0  0
  140.4320   69.3330  227.2920 C   0  0  0  0  0  0  0  0  0  0  0  0
  140.9470   70.0850  228.3450 C   0  0  0  0  0  0  0  0  0  0  0  0
  141.2530   71.4270  228.2050 C   0  0  0  0  0  0  0  0  0  0  0  0
  141.0350   72.0230  226.9810 C   0  0  0  0  0  0  0  0  0  0  0  0
  140.5220   71.2830  225.9200 C   0  0  0  0  0  0  0  0  0  0  0  0
  140.3010   71.8400  224.7170 N   0  0  0  0  0  0  0  0  0  0  0  0
  139.5770   73.7730  223.2860 H   0  0  0  0  0  0  0  0  0  0  0  0
  138.2925   73.7380  220.7337 H   0  0  0  0  0  0  0  0  0  0  0  0
  139.3813   75.0550  221.3258 H   0  0  0  0  0  0  0  0  0  0  0  0
  143.2015   72.7679  221.2115 H   0  0  0  0  0  0  0  0  0  0  0  0
  142.7015   72.2281  219.6267 H   0  0  0  0  0  0  0  0  0  0  0  0
  144.0746   73.8581  218.5765 H   0  0  0  0  0  0  0  0  0  0  0  0
  145.7250   74.4900  219.7690 H   0  0  0  0  0  0  0  0  0  0  0  0
  143.9841   76.2249  220.1247 H   0  0  0  0  0  0  0  0  0  0  0  0
  142.8367   75.9070  218.8492 H   0  0  0  0  0  0  0  0  0  0  0  0
  142.6284   75.2919  221.8417 H   0  0  0  0  0  0  0  0  0  0  0  0
  141.2435   76.9767  220.0942 H   0  0  0  0  0  0  0  0  0  0  0  0
  140.1820   75.6851  220.9172 H   0  0  0  0  0  0  0  0  0  0  0  0
  143.0573   78.5135  222.3292 H   0  0  0  0  0  0  0  0  0  0  0  0
  143.1070   80.7525  223.2942 H   0  0  0  0  0  0  0  0  0  0  0  0
  141.0251   81.7886  224.1255 H   0  0  0  0  0  0  0  0  0  0  0  0
  138.8454   78.3142  223.0191 H   0  0  0  0  0  0  0  0  0  0  0  0
  139.0905   69.2709  222.9275 H   0  0  0  0  0  0  0  0  0  0  0  0
  139.4647   68.1254  225.1332 H   0  0  0  0  0  0  0  0  0  0  0  0
  140.1989   68.2676  227.4351 H   0  0  0  0  0  0  0  0  0  0  0  0
  141.1155   69.5976  229.3167 H   0  0  0  0  0  0  0  0  0  0  0  0
  141.6598   72.0037  229.0487 H   0  0  0  0  0  0  0  0  0  0  0  0
  141.2678   73.0891  226.8424 H   0  0  0  0  0  0  0  0  0  0  0  0
  1  2  2  0
  2  3  1  0
  3  4  1  0
  4  5  1  0
  5  6  2  0
  5  7  1  0
  7  8  1  0
  8  9  1  0
  9 10  1  0
  9 11  1  0
 11 12  1  0
 12 13  1  0
 13 14  1  0
 14 15  1  0
 15 16  2  0
 16 17  1  0
 17 18  2  0
 18 19  1  0
 19 20  1  0
 19 21  2  0
  2 22  1  0
 22 23  2  0
 23 24  1  0
 24 25  2  0
 25 26  1  0
 26 27  2  0
 27 28  1  0
 28 29  2  0
 29 30  1  0
 30 31  2  0
 12  7  1  0
 21 15  1  0
 31 22  1  0
 30 25  1  0
  3 32  1  0
  4 33  1  0
  4 34  1  0
  8 35  1  0
  8 36  1  0
  9 37  1  6
 10 38  1  0
 11 39  1  0
 11 40  1  0
 12 41  1  1
 13 42  1  0
 13 43  1  0
 16 44  1  0
 17 45  1  0
 18 46  1  0
 21 47  1  0
 23 48  1  0
 24 49  1  0
 26 50  1  0
 27 51  1  0
 28 52  1  0
 29 53  1  0
M  END
>  <smiles>  (25) 
O=C(NCC(=O)N1C[C@H](O)C[C@H]1COc1cccc(Cl)c1)c1ccc2ccccc2n1

>  <score_type>  (25) 
oracle

>  <origin>  (25) 
autodockgpu

>  <m_score__min__energy>  (25) 
-9.2899999999999991

>  <m_primary>  (25) 
energy

>  <rmsd>  (25) 
2.4203769657849565

>  <m_score__min__rmsd>  (25) 
2.4203769657849565

>  <meeko>  (25) 
{"free_energy": -8.95, "intermolecular_energy": -11.34, "internal_energy": -1.37, "cluster_size": 17, "cluster_id": 1, "rank_in_cluster": 6}

>  <energy>  (25) 
-7.5

>  <cluster_rmsd>  (25) 
1.05

>  <cluster>  (25) 
5

$$$$

     RDKit          3D

 53 56  0  0  0  0  0  0  0  0999 V2000
  139.5770   74.7670  222.4310 O   0  0  0  0  0  0  0  0  0  0  0  0
  139.9640   75.7060  221.6770 C   0  0  0  0  0  0  0  0  0  0  0  0
  140.2460   75.5070  220.3150 N   0  0  0  0  0  0  0  0  0  0  0  0
  140.1050   74.2120  219.7220 C   0  0  0  0  0  0  0  0  0  0  0  0
  141.3730   73.7850  219.0550 C   0  0  0  0  0  0  0  0  0  0  0  0
  141.2760   73.3840  217.8800 O   0  0  0  0  0  0  0  0  0  0  0  0
  142.5580   73.8710  219.8080 N   0  0  0  0  0  0  0  0  0  0  0  0
  143.0900   72.8810  220.7620 C   0  0  0  0  0  0  0  0  0  0  0  0
  144.5730   72.9000  220.4610 C   0  0  2  0  0  0  0  0  0  0  0  0
  145.2740   73.0350  221.6480 O   0  0  0  0  0  0  0  0  0  0  0  0
  144.8060   74.1470  219.5990 C   0  0  0  0  0  0  0  0  0  0  0  0
  143.5700   74.9420  219.8550 C   0  0  1  0  0  0  0  0  0  0  0  0
  143.2440   76.0070  218.8620 C   0  0  0  0  0  0  0  0  0  0  0  0
  142.5390   77.0610  219.2790 O   0  0  0  0  0  0  0  0  0  0  0  0
  142.2020   78.3210  219.0740 C   0  0  0  0  0  0  0  0  0  0  0  0
  142.8550   78.9920  218.0120 C   0  0  0  0  0  0  0  0  0  0  0  0
  142.6050   80.2900  217.6950 C   0  0  0  0  0  0  0  0  0  0  0  0
  141.6830   80.9990  218.4190 C   0  0  0  0  0  0  0  0  0  0  0  0
  141.0210   80.4140  219.4530 C   0  0  0  0  0  0  0  0  0  0  0  0
  139.8290   81.3210  220.3950 Cl  0  0  0  0  0  0  0  0  0  0  0  0
  141.2910   79.1000  219.7550 C   0  0  0  0  0  0  0  0  0  0  0  0
  140.1210   77.0590  222.2560 C   0  0  0  0  0  0  0  0  0  0  0  0
  139.0210   77.7620  222.7030 C   0  0  0  0  0  0  0  0  0  0  0  0
  139.1900   79.0350  223.2460 C   0  0  0  0  0  0  0  0  0  0  0  0
  140.4760   79.5520  223.3150 C   0  0  0  0  0  0  0  0  0  0  0  0
  140.6830   80.8200  223.8500 C   0  0  0  0  0  0  0  0  0  0  0  0
  141.9750   81.3370  223.9180 C   0  0  0  0  0  0  0  0  0  0  0  0
  143.0710   80.6250  223.4670 C   0  0  0  0  0  0  0  0  0  0  0  0
  142.8630   79.3680  222.9370 C   0  0  0  0  0  0  0  0  0  0  0  0
  141.5770   78.8410  222.8640 C   0  0  0  0  0  0  0  0  0  0  0  0
  141.3470   77.6200  222.3520 N   0  0  0  0  0  0  0  0  0  0  0  0
  140.5660   76.3510  219.7530 H   0  0  0  0  0  0  0  0  0  0  0  0
  139.8484   73.4839  220.5056 H   0  0  0  0  0  0  0  0  0  0  0  0
  139.3098   74.2596  218.9634 H   0  0  0  0  0  0  0  0  0  0  0  0
  142.8913   73.1833  221.8008 H   0  0  0  0  0  0  0  0  0  0  0  0
  142.6346   71.8849  220.6598 H   0  0  0  0  0  0  0  0  0  0  0  0
  144.9027   71.9804  219.9553 H   0  0  0  0  0  0  0  0  0  0  0  0
  145.5830   72.1040  221.8790 H   0  0  0  0  0  0  0  0  0  0  0  0
  145.7051   74.6925  219.9215 H   0  0  0  0  0  0  0  0  0  0  0  0
  144.9750   73.9234  218.5353 H   0  0  0  0  0  0  0  0  0  0  0  0
  143.6516   75.5254  220.7840 H   0  0  0  0  0  0  0  0  0  0  0  0
  144.1973   76.3875  218.4664 H   0  0  0  0  0  0  0  0  0  0  0  0
  142.5873   75.5096  218.1330 H   0  0  0  0  0  0  0  0  0  0  0  0
  143.5970   78.4388  217.4175 H   0  0  0  0  0  0  0  0  0  0  0  0
  143.1401   80.7686  216.8616 H   0  0  0  0  0  0  0  0  0  0  0  0
  141.4768   82.0485  218.1623 H   0  0  0  0  0  0  0  0  0  0  0  0
  140.7456   78.6414  220.5930 H   0  0  0  0  0  0  0  0  0  0  0  0
  138.0161   77.3204  222.6313 H   0  0  0  0  0  0  0  0  0  0  0  0
  138.3279   79.6135  223.6096 H   0  0  0  0  0  0  0  0  0  0  0  0
  139.8310   81.4109  224.2173 H   0  0  0  0  0  0  0  0  0  0  0  0
  142.1274   82.3402  224.3426 H   0  0  0  0  0  0  0  0  0  0  0  0
  144.0837   81.0500  223.5291 H   0  0  0  0  0  0  0  0  0  0  0  0
  143.7174   78.7800  222.5706 H   0  0  0  0  0  0  0  0  0  0  0  0
  1  2  2  0
  2  3  1  0
  3  4  1  0
  4  5  1  0
  5  6  2  0
  5  7  1  0
  7  8  1  0
  8  9  1  0
  9 10  1  0
  9 11  1  0
 11 12  1  0
 12 13  1  0
 13 14  1  0
 14 15  1  0
 15 16  2  0
 16 17  1  0
 17 18  2  0
 18 19  1  0
 19 20  1  0
 19 21  2  0
  2 22  1  0
 22 23  2  0
 23 24  1  0
 24 25  2  0
 25 26  1  0
 26 27  2  0
 27 28  1  0
 28 29  2  0
 29 30  1  0
 30 31  2  0
 12  7  1  0
 21 15  1  0
 31 22  1  0
 30 25  1  0
  3 32  1  0
  4 33  1  0
  4 34  1  0
  8 35  1  0
  8 36  1  0
  9 37  1  6
 10 38  1  0
 11 39  1  0
 11 40  1  0
 12 41  1  1
 13 42  1  0
 13 43  1  0
 16 44  1  0
 17 45  1  0
 18 46  1  0
 21 47  1  0
 23 48  1  0
 24 49  1  0
 26 50  1  0
 27 51  1  0
 28 52  1  0
 29 53  1  0
M  END
>  <smiles>  (26) 
O=C(NCC(=O)N1C[C@H](O)C[C@H]1COc1cccc(Cl)c1)c1ccc2ccccc2n1

>  <score_type>  (26) 
oracle

>  <origin>  (26) 
autodockgpu

>  <m_score__min__energy>  (26) 
-9.2899999999999991

>  <m_primary>  (26) 
energy

>  <rmsd>  (26) 
7.542953731267248

>  <m_score__min__rmsd>  (26) 
7.542953731267248

>  <meeko>  (26) 
{"free_energy": -6.91, "intermolecular_energy": -9.3, "internal_energy": -3.51, "cluster_size": 21, "cluster_id": 8, "rank_in_cluster": 14}

>  <energy>  (26) 
-7.48

>  <cluster_rmsd>  (26) 
0.48

>  <cluster>  (26) 
5

$$$$

     RDKit          3D

 53 56  0  0  0  0  0  0  0  0999 V2000
  139.1860   74.7690  222.0420 O   0  0  0  0  0  0  0  0  0  0  0  0
  140.2780   75.4060  221.9820 C   0  0  0  0  0  0  0  0  0  0  0  0
  141.4790   74.7990  221.5770 N   0  0  0  0  0  0  0  0  0  0  0  0
  141.5120   73.4150  221.2150 C   0  0  0  0  0  0  0  0  0  0  0  0
  142.1860   73.2210  219.8950 C   0  0  0  0  0  0  0  0  0  0  0  0
  141.5130   73.4890  218.8810 O   0  0  0  0  0  0  0  0  0  0  0  0
  143.5130   72.7530  219.9110 N   0  0  0  0  0  0  0  0  0  0  0  0
  143.9880   71.3890  219.6160 C   0  0  0  0  0  0  0  0  0  0  0  0
  145.2430   71.6460  218.8100 C   0  0  2  0  0  0  0  0  0  0  0  0
  146.2790   70.8890  219.3320 O   0  0  0  0  0  0  0  0  0  0  0  0
  145.5640   73.1330  219.0040 C   0  0  0  0  0  0  0  0  0  0  0  0
  144.7630   73.4720  220.2160 C   0  0  1  0  0  0  0  0  0  0  0  0
  144.4840   74.9200  220.4470 C   0  0  0  0  0  0  0  0  0  0  0  0
  143.5250   75.4990  219.7210 O   0  0  0  0  0  0  0  0  0  0  0  0
  143.1110   76.5860  219.0950 C   0  0  0  0  0  0  0  0  0  0  0  0
  143.3260   76.6400  217.6970 C   0  0  0  0  0  0  0  0  0  0  0  0
  142.9520   77.7010  216.9340 C   0  0  0  0  0  0  0  0  0  0  0  0
  142.3380   78.7760  217.5210 C   0  0  0  0  0  0  0  0  0  0  0  0
  142.1020   78.7870  218.8610 C   0  0  0  0  0  0  0  0  0  0  0  0
  141.3090   80.1700  219.6280 Cl  0  0  0  0  0  0  0  0  0  0  0  0
  142.4890   77.7040  219.6120 C   0  0  0  0  0  0  0  0  0  0  0  0
  140.2820   76.8390  222.3500 C   0  0  0  0  0  0  0  0  0  0  0  0
  139.0960   77.5310  222.4850 C   0  0  0  0  0  0  0  0  0  0  0  0
  139.1210   78.8820  222.8330 C   0  0  0  0  0  0  0  0  0  0  0  0
  140.3560   79.4830  223.0320 C   0  0  0  0  0  0  0  0  0  0  0  0
  140.4190   80.8300  223.3800 C   0  0  0  0  0  0  0  0  0  0  0  0
  141.6600   81.4320  223.5790 C   0  0  0  0  0  0  0  0  0  0  0  0
  142.8430   80.7290  223.4410 C   0  0  0  0  0  0  0  0  0  0  0  0
  142.7770   79.3960  223.0950 C   0  0  0  0  0  0  0  0  0  0  0  0
  141.5430   78.7820  222.8940 C   0  0  0  0  0  0  0  0  0  0  0  0
  141.4510   77.4850  222.5580 N   0  0  0  0  0  0  0  0  0  0  0  0
  142.3510   75.4070  221.5550 H   0  0  0  0  0  0  0  0  0  0  0  0
  142.0624   72.8550  221.9854 H   0  0  0  0  0  0  0  0  0  0  0  0
  140.4776   73.0491  221.1367 H   0  0  0  0  0  0  0  0  0  0  0  0
  144.2154   70.8386  220.5409 H   0  0  0  0  0  0  0  0  0  0  0  0
  143.2467   70.7713  219.0879 H   0  0  0  0  0  0  0  0  0  0  0  0
  145.1119   71.3865  217.7491 H   0  0  0  0  0  0  0  0  0  0  0  0
  146.3120   71.1270  220.3110 H   0  0  0  0  0  0  0  0  0  0  0  0
  146.6386   73.2896  219.1793 H   0  0  0  0  0  0  0  0  0  0  0  0
  145.3251   73.7545  218.1284 H   0  0  0  0  0  0  0  0  0  0  0  0
  145.2950   73.1996  221.1395 H   0  0  0  0  0  0  0  0  0  0  0  0
  144.2066   75.0344  221.5053 H   0  0  0  0  0  0  0  0  0  0  0  0
  145.4079   75.4297  220.1364 H   0  0  0  0  0  0  0  0  0  0  0  0
  143.8170   75.7864  217.2068 H   0  0  0  0  0  0  0  0  0  0  0  0
  143.1414   77.6965  215.8504 H   0  0  0  0  0  0  0  0  0  0  0  0
  142.0340   79.6353  216.9053 H   0  0  0  0  0  0  0  0  0  0  0  0
  142.2906   77.7295  220.6937 H   0  0  0  0  0  0  0  0  0  0  0  0
  138.1359   77.0204  222.3192 H   0  0  0  0  0  0  0  0  0  0  0  0
  138.1885   79.4543  222.9464 H   0  0  0  0  0  0  0  0  0  0  0  0
  139.4949   81.4151  223.4971 H   0  0  0  0  0  0  0  0  0  0  0  0
  141.6998   82.4964  223.8536 H   0  0  0  0  0  0  0  0  0  0  0  0
  143.8131   81.2214  223.6034 H   0  0  0  0  0  0  0  0  0  0  0  0
  143.7033   78.8146  222.9771 H   0  0  0  0  0  0  0  0  0  0  0  0
  1  2  2  0
  2  3  1  0
  3  4  1  0
  4  5  1  0
  5  6  2  0
  5  7  1  0
  7  8  1  0
  8  9  1  0
  9 10  1  0
  9 11  1  0
 11 12  1  0
 12 13  1  0
 13 14  1  0
 14 15  1  0
 15 16  2  0
 16 17  1  0
 17 18  2  0
 18 19  1  0
 19 20  1  0
 19 21  2  0
  2 22  1  0
 22 23  2  0
 23 24  1  0
 24 25  2  0
 25 26  1  0
 26 27  2  0
 27 28  1  0
 28 29  2  0
 29 30  1  0
 30 31  2  0
 12  7  1  0
 21 15  1  0
 31 22  1  0
 30 25  1  0
  3 32  1  0
  4 33  1  0
  4 34  1  0
  8 35  1  0
  8 36  1  0
  9 37  1  6
 10 38  1  0
 11 39  1  0
 11 40  1  0
 12 41  1  1
 13 42  1  0
 13 43  1  0
 16 44  1  0
 17 45  1  0
 18 46  1  0
 21 47  1  0
 23 48  1  0
 24 49  1  0
 26 50  1  0
 27 51  1  0
 28 52  1  0
 29 53  1  0
M  END
>  <smiles>  (27) 
O=C(NCC(=O)N1C[C@H](O)C[C@H]1COc1cccc(Cl)c1)c1ccc2ccccc2n1

>  <score_type>  (27) 
oracle

>  <origin>  (27) 
autodockgpu

>  <m_score__min__energy>  (27) 
-9.2899999999999991

>  <m_primary>  (27) 
energy

>  <rmsd>  (27) 
7.778574468632525

>  <m_score__min__rmsd>  (27) 
7.778574468632525

>  <meeko>  (27) 
{"free_energy": -7.47, "intermolecular_energy": -9.86, "internal_energy": -3.43, "cluster_size": 21, "cluster_id": 8, "rank_in_cluster": 4}

>  <energy>  (27) 
-7.68

>  <cluster_rmsd>  (27) 
0.0

>  <cluster>  (27) 
6

$$$$

     RDKit          3D

 53 56  0  0  0  0  0  0  0  0999 V2000
  138.7750   75.3450  222.2080 O   0  0  0  0  0  0  0  0  0  0  0  0
  139.9270   75.8540  222.0820 C   0  0  0  0  0  0  0  0  0  0  0  0
  141.0160   75.1270  221.5700 N   0  0  0  0  0  0  0  0  0  0  0  0
  140.8590   73.7630  221.1680 C   0  0  0  0  0  0  0  0  0  0  0  0
  141.7320   73.4430  219.9980 C   0  0  0  0  0  0  0  0  0  0  0  0
  141.1540   73.1260  218.9410 O   0  0  0  0  0  0  0  0  0  0  0  0
  143.1240   73.5270  220.1900 N   0  0  0  0  0  0  0  0  0  0  0  0
  143.9950   72.5540  220.8750 C   0  0  0  0  0  0  0  0  0  0  0  0
  145.2210   72.5310  219.9870 C   0  0  2  0  0  0  0  0  0  0  0  0
  146.3520   72.6870  220.7720 O   0  0  0  0  0  0  0  0  0  0  0  0
  145.0860   73.7460  219.0600 C   0  0  0  0  0  0  0  0  0  0  0  0
  144.0730   74.5750  219.7750 C   0  0  1  0  0  0  0  0  0  0  0  0
  143.3720   75.6160  218.9660 C   0  0  0  0  0  0  0  0  0  0  0  0
  142.5820   76.4820  219.6060 O   0  0  0  0  0  0  0  0  0  0  0  0
  141.7520   77.5050  219.5100 C   0  0  0  0  0  0  0  0  0  0  0  0
  140.4290   77.2180  219.0970 C   0  0  0  0  0  0  0  0  0  0  0  0
  139.4760   78.1770  218.9550 C   0  0  0  0  0  0  0  0  0  0  0  0
  139.7860   79.4850  219.2190 C   0  0  0  0  0  0  0  0  0  0  0  0
  141.0400   79.8290  219.6190 C   0  0  0  0  0  0  0  0  0  0  0  0
  141.4510   81.5150  219.9620 Cl  0  0  0  0  0  0  0  0  0  0  0  0
  141.9870   78.8420  219.7550 C   0  0  0  0  0  0  0  0  0  0  0  0
  140.1260   77.2620  222.4870 C   0  0  0  0  0  0  0  0  0  0  0  0
  139.0430   78.0790  222.7400 C   0  0  0  0  0  0  0  0  0  0  0  0
  139.2520   79.4040  223.1210 C   0  0  0  0  0  0  0  0  0  0  0  0
  140.5600   79.8540  223.2330 C   0  0  0  0  0  0  0  0  0  0  0  0
  140.8070   81.1710  223.6120 C   0  0  0  0  0  0  0  0  0  0  0  0
  142.1200   81.6210  223.7240 C   0  0  0  0  0  0  0  0  0  0  0  0
  143.2000   80.7950  223.4690 C   0  0  0  0  0  0  0  0  0  0  0  0
  142.9520   79.4910  223.0930 C   0  0  0  0  0  0  0  0  0  0  0  0
  141.6440   79.0290  222.9790 C   0  0  0  0  0  0  0  0  0  0  0  0
  141.3760   77.7630  222.6150 N   0  0  0  0  0  0  0  0  0  0  0  0
  141.9490   75.6310  221.4980 H   0  0  0  0  0  0  0  0  0  0  0  0
  141.1301   73.1073  222.0085 H   0  0  0  0  0  0  0  0  0  0  0  0
  139.8106   73.6034  220.8757 H   0  0  0  0  0  0  0  0  0  0  0  0
  144.2463   72.8918  221.8912 H   0  0  0  0  0  0  0  0  0  0  0  0
  143.5302   71.5658  221.0071 H   0  0  0  0  0  0  0  0  0  0  0  0
  145.3044   71.5891  219.4249 H   0  0  0  0  0  0  0  0  0  0  0  0
  146.2670   71.9920  221.4970 H   0  0  0  0  0  0  0  0  0  0  0  0
  146.0420   74.2811  218.9616 H   0  0  0  0  0  0  0  0  0  0  0  0
  144.7982   73.4868  218.0305 H   0  0  0  0  0  0  0  0  0  0  0  0
  144.5370   75.1838  220.5650 H   0  0  0  0  0  0  0  0  0  0  0  0
  144.1448   76.2011  218.4460 H   0  0  0  0  0  0  0  0  0  0  0  0
  142.6878   75.0465  218.3198 H   0  0  0  0  0  0  0  0  0  0  0  0
  140.1602   76.1733  218.8815 H   0  0  0  0  0  0  0  0  0  0  0  0
  138.4612   77.9041  218.6298 H   0  0  0  0  0  0  0  0  0  0  0  0
  139.0158   80.2623  219.1068 H   0  0  0  0  0  0  0  0  0  0  0  0
  142.9958   79.1369  220.0797 H   0  0  0  0  0  0  0  0  0  0  0  0
  138.0200   77.6870  222.6416 H   0  0  0  0  0  0  0  0  0  0  0  0
  138.4040   80.0737  223.3270 H   0  0  0  0  0  0  0  0  0  0  0  0
  139.9693   81.8523  223.8218 H   0  0  0  0  0  0  0  0  0  0  0  0
  142.3037   82.6633  224.0239 H   0  0  0  0  0  0  0  0  0  0  0  0
  144.2303   81.1684  223.5636 H   0  0  0  0  0  0  0  0  0  0  0  0
  143.7922   78.8130  222.8823 H   0  0  0  0  0  0  0  0  0  0  0  0
  1  2  2  0
  2  3  1  0
  3  4  1  0
  4  5  1  0
  5  6  2  0
  5  7  1  0
  7  8  1  0
  8  9  1  0
  9 10  1  0
  9 11  1  0
 11 12  1  0
 12 13  1  0
 13 14  1  0
 14 15  1  0
 15 16  2  0
 16 17  1  0
 17 18  2  0
 18 19  1  0
 19 20  1  0
 19 21  2  0
  2 22  1  0
 22 23  2  0
 23 24  1  0
 24 25  2  0
 25 26  1  0
 26 27  2  0
 27 28  1  0
 28 29  2  0
 29 30  1  0
 30 31  2  0
 12  7  1  0
 21 15  1  0
 31 22  1  0
 30 25  1  0
  3 32  1  0
  4 33  1  0
  4 34  1  0
  8 35  1  0
  8 36  1  0
  9 37  1  6
 10 38  1  0
 11 39  1  0
 11 40  1  0
 12 41  1  1
 13 42  1  0
 13 43  1  0
 16 44  1  0
 17 45  1  0
 18 46  1  0
 21 47  1  0
 23 48  1  0
 24 49  1  0
 26 50  1  0
 27 51  1  0
 28 52  1  0
 29 53  1  0
M  END
>  <smiles>  (28) 
O=C(NCC(=O)N1C[C@H](O)C[C@H]1COc1cccc(Cl)c1)c1ccc2ccccc2n1

>  <score_type>  (28) 
oracle

>  <origin>  (28) 
autodockgpu

>  <m_score__min__energy>  (28) 
-9.2899999999999991

>  <m_primary>  (28) 
energy

>  <rmsd>  (28) 
7.818596050886688

>  <m_score__min__rmsd>  (28) 
7.818596050886688

>  <meeko>  (28) 
{"free_energy": -6.74, "intermolecular_energy": -9.12, "internal_energy": -4.11, "cluster_size": 21, "cluster_id": 8, "rank_in_cluster": 17}

>  <energy>  (28) 
-7.6

>  <cluster_rmsd>  (28) 
1.37

>  <cluster>  (28) 
6

$$$$

     RDKit          3D

 53 56  0  0  0  0  0  0  0  0999 V2000
  139.0890   74.8690  222.0860 O   0  0  0  0  0  0  0  0  0  0  0  0
  140.1970   75.4710  221.9870 C   0  0  0  0  0  0  0  0  0  0  0  0
  141.3720   74.8170  221.5800 N   0  0  0  0  0  0  0  0  0  0  0  0
  141.3580   73.4220  221.2580 C   0  0  0  0  0  0  0  0  0  0  0  0
  142.0340   73.1650  219.9500 C   0  0  0  0  0  0  0  0  0  0  0  0
  141.3300   73.2770  218.9280 O   0  0  0  0  0  0  0  0  0  0  0  0
  143.3980   72.8200  219.9860 N   0  0  0  0  0  0  0  0  0  0  0  0
  143.9920   71.4870  219.7790 C   0  0  0  0  0  0  0  0  0  0  0  0
  145.2170   71.8000  218.9470 C   0  0  2  0  0  0  0  0  0  0  0  0
  146.3180   71.1760  219.5090 O   0  0  0  0  0  0  0  0  0  0  0  0
  145.4040   73.3200  219.0370 C   0  0  0  0  0  0  0  0  0  0  0  0
  144.5790   73.6670  220.2300 C   0  0  1  0  0  0  0  0  0  0  0  0
  144.1730   75.0970  220.3660 C   0  0  0  0  0  0  0  0  0  0  0  0
  143.2220   75.5600  219.5510 O   0  0  0  0  0  0  0  0  0  0  0  0
  142.3750   76.5350  219.2760 C   0  0  0  0  0  0  0  0  0  0  0  0
  141.1570   76.1690  218.6540 C   0  0  0  0  0  0  0  0  0  0  0  0
  140.2000   77.0730  218.3160 C   0  0  0  0  0  0  0  0  0  0  0  0
  140.4010   78.4020  218.5790 C   0  0  0  0  0  0  0  0  0  0  0  0
  141.5490   78.8210  219.1750 C   0  0  0  0  0  0  0  0  0  0  0  0
  141.8170   80.5360  219.5200 Cl  0  0  0  0  0  0  0  0  0  0  0  0
  142.5020   77.8890  219.5080 C   0  0  0  0  0  0  0  0  0  0  0  0
  140.2500   76.9130  222.3120 C   0  0  0  0  0  0  0  0  0  0  0  0
  139.0900   77.6540  222.4050 C   0  0  0  0  0  0  0  0  0  0  0  0
  139.1610   79.0120  222.7120 C   0  0  0  0  0  0  0  0  0  0  0  0
  140.4140   79.5730  222.9160 C   0  0  0  0  0  0  0  0  0  0  0  0
  140.5230   80.9260  223.2240 C   0  0  0  0  0  0  0  0  0  0  0  0
  141.7820   81.4860  223.4280 C   0  0  0  0  0  0  0  0  0  0  0  0
  142.9400   80.7360  223.3330 C   0  0  0  0  0  0  0  0  0  0  0  0
  142.8280   79.3950  223.0260 C   0  0  0  0  0  0  0  0  0  0  0  0
  141.5760   78.8240  222.8210 C   0  0  0  0  0  0  0  0  0  0  0  0
  141.4400   77.5210  222.5220 N   0  0  0  0  0  0  0  0  0  0  0  0
  142.2620   75.3980  221.5240 H   0  0  0  0  0  0  0  0  0  0  0  0
  141.8823   72.8655  222.0488 H   0  0  0  0  0  0  0  0  0  0  0  0
  140.3116   73.0915  221.1814 H   0  0  0  0  0  0  0  0  0  0  0  0
  144.2699   71.0226  220.7366 H   0  0  0  0  0  0  0  0  0  0  0  0
  143.3076   70.7715  219.2999 H   0  0  0  0  0  0  0  0  0  0  0  0
  145.1066   71.4583  217.9073 H   0  0  0  0  0  0  0  0  0  0  0  0
  146.2830   71.4120  220.4880 H   0  0  0  0  0  0  0  0  0  0  0  0
  146.4606   73.5837  219.1920 H   0  0  0  0  0  0  0  0  0  0  0  0
  145.1084   73.8568  218.1235 H   0  0  0  0  0  0  0  0  0  0  0  0
  145.1354   73.5060  221.1652 H   0  0  0  0  0  0  0  0  0  0  0  0
  143.8174   75.2392  221.3972 H   0  0  0  0  0  0  0  0  0  0  0  0
  145.0729   75.6651  220.0878 H   0  0  0  0  0  0  0  0  0  0  0  0
  140.9773   75.1062  218.4346 H   0  0  0  0  0  0  0  0  0  0  0  0
  139.2693   76.7391  217.8339 H   0  0  0  0  0  0  0  0  0  0  0  0
  139.6282   79.1356  218.3061 H   0  0  0  0  0  0  0  0  0  0  0  0
  143.4245   78.2449  219.9900 H   0  0  0  0  0  0  0  0  0  0  0  0
  138.1137   77.1756  222.2377 H   0  0  0  0  0  0  0  0  0  0  0  0
  138.2491   79.6221  222.7904 H   0  0  0  0  0  0  0  0  0  0  0  0
  139.6203   81.5493  223.3058 H   0  0  0  0  0  0  0  0  0  0  0  0
  141.8573   82.5560  223.6718 H   0  0  0  0  0  0  0  0  0  0  0  0
  143.9253   81.1965  223.4979 H   0  0  0  0  0  0  0  0  0  0  0  0
  143.7328   78.7749  222.9430 H   0  0  0  0  0  0  0  0  0  0  0  0
  1  2  2  0
  2  3  1  0
  3  4  1  0
  4  5  1  0
  5  6  2  0
  5  7  1  0
  7  8  1  0
  8  9  1  0
  9 10  1  0
  9 11  1  0
 11 12  1  0
 12 13  1  0
 13 14  1  0
 14 15  1  0
 15 16  2  0
 16 17  1  0
 17 18  2  0
 18 19  1  0
 19 20  1  0
 19 21  2  0
  2 22  1  0
 22 23  2  0
 23 24  1  0
 24 25  2  0
 25 26  1  0
 26 27  2  0
 27 28  1  0
 28 29  2  0
 29 30  1  0
 30 31  2  0
 12  7  1  0
 21 15  1  0
 31 22  1  0
 30 25  1  0
  3 32  1  0
  4 33  1  0
  4 34  1  0
  8 35  1  0
  8 36  1  0
  9 37  1  6
 10 38  1  0
 11 39  1  0
 11 40  1  0
 12 41  1  1
 13 42  1  0
 13 43  1  0
 16 44  1  0
 17 45  1  0
 18 46  1  0
 21 47  1  0
 23 48  1  0
 24 49  1  0
 26 50  1  0
 27 51  1  0
 28 52  1  0
 29 53  1  0
M  END
>  <smiles>  (29) 
O=C(NCC(=O)N1C[C@H](O)C[C@H]1COc1cccc(Cl)c1)c1ccc2ccccc2n1

>  <score_type>  (29) 
oracle

>  <origin>  (29) 
autodockgpu

>  <m_score__min__energy>  (29) 
-9.2899999999999991

>  <m_primary>  (29) 
energy

>  <rmsd>  (29) 
7.792660011556232

>  <m_score__min__rmsd>  (29) 
7.792660011556232

>  <meeko>  (29) 
{"free_energy": -6.71, "intermolecular_energy": -9.1, "internal_energy": -3.84, "cluster_size": 21, "cluster_id": 8, "rank_in_cluster": 18}

>  <energy>  (29) 
-7.65

>  <cluster_rmsd>  (29) 
0.0

>  <cluster>  (29) 
7

$$$$

     RDKit          3D

 53 56  0  0  0  0  0  0  0  0999 V2000
  139.1830   74.6860  222.0530 O   0  0  0  0  0  0  0  0  0  0  0  0
  140.2670   75.3340  221.9760 C   0  0  0  0  0  0  0  0  0  0  0  0
  141.4770   74.7300  221.5910 N   0  0  0  0  0  0  0  0  0  0  0  0
  141.5270   73.3370  221.2690 C   0  0  0  0  0  0  0  0  0  0  0  0
  142.1890   73.1140  219.9480 C   0  0  0  0  0  0  0  0  0  0  0  0
  141.5000   73.3400  218.9340 O   0  0  0  0  0  0  0  0  0  0  0  0
  143.5240   72.6700  219.9620 N   0  0  0  0  0  0  0  0  0  0  0  0
  144.0200   71.3090  219.6880 C   0  0  0  0  0  0  0  0  0  0  0  0
  145.2650   71.5720  218.8680 C   0  0  2  0  0  0  0  0  0  0  0  0
  146.3180   70.8440  219.3960 O   0  0  0  0  0  0  0  0  0  0  0  0
  145.5620   73.0690  219.0320 C   0  0  0  0  0  0  0  0  0  0  0  0
  144.7640   73.4160  220.2430 C   0  0  1  0  0  0  0  0  0  0  0  0
  144.4620   74.8630  220.4500 C   0  0  0  0  0  0  0  0  0  0  0  0
  143.4890   75.4130  219.7180 O   0  0  0  0  0  0  0  0  0  0  0  0
  143.1440   76.3620  218.8680 C   0  0  0  0  0  0  0  0  0  0  0  0
  142.5130   77.5070  219.4110 C   0  0  0  0  0  0  0  0  0  0  0  0
  142.1040   78.5550  218.6480 C   0  0  0  0  0  0  0  0  0  0  0  0
  142.3010   78.5250  217.2920 C   0  0  0  0  0  0  0  0  0  0  0  0
  142.9010   77.4530  216.7070 C   0  0  0  0  0  0  0  0  0  0  0  0
  143.1610   77.4040  214.9580 Cl  0  0  0  0  0  0  0  0  0  0  0  0
  143.3060   76.4060  217.4990 C   0  0  0  0  0  0  0  0  0  0  0  0
  140.2530   76.7770  222.3020 C   0  0  0  0  0  0  0  0  0  0  0  0
  139.0600   77.4650  222.3870 C   0  0  0  0  0  0  0  0  0  0  0  0
  139.0680   78.8250  222.6960 C   0  0  0  0  0  0  0  0  0  0  0  0
  140.2930   79.4400  222.9090 C   0  0  0  0  0  0  0  0  0  0  0  0
  140.3400   80.7970  223.2190 C   0  0  0  0  0  0  0  0  0  0  0  0
  141.5710   81.4130  223.4320 C   0  0  0  0  0  0  0  0  0  0  0  0
  142.7620   80.7150  223.3440 C   0  0  0  0  0  0  0  0  0  0  0  0
  142.7120   79.3710  223.0360 C   0  0  0  0  0  0  0  0  0  0  0  0
  141.4880   78.7440  222.8220 C   0  0  0  0  0  0  0  0  0  0  0  0
  141.4130   77.4370  222.5210 N   0  0  0  0  0  0  0  0  0  0  0  0
  142.3410   75.3480  221.5520 H   0  0  0  0  0  0  0  0  0  0  0  0
  142.0942   72.8080  222.0490 H   0  0  0  0  0  0  0  0  0  0  0  0
  140.4973   72.9540  221.2131 H   0  0  0  0  0  0  0  0  0  0  0  0
  144.2632   70.7794  220.6209 H   0  0  0  0  0  0  0  0  0  0  0  0
  143.2854   70.6696  219.1766 H   0  0  0  0  0  0  0  0  0  0  0  0
  145.1304   71.2896  217.8134 H   0  0  0  0  0  0  0  0  0  0  0  0
  146.3170   71.0550  220.3820 H   0  0  0  0  0  0  0  0  0  0  0  0
  146.6349   73.2473  219.1964 H   0  0  0  0  0  0  0  0  0  0  0  0
  145.3065   73.6701  218.1469 H   0  0  0  0  0  0  0  0  0  0  0  0
  145.3076   73.1693  221.1669 H   0  0  0  0  0  0  0  0  0  0  0  0
  144.1879   74.9916  221.5075 H   0  0  0  0  0  0  0  0  0  0  0  0
  145.3758   75.3827  220.1261 H   0  0  0  0  0  0  0  0  0  0  0  0
  142.3465   77.5505  220.4974 H   0  0  0  0  0  0  0  0  0  0  0  0
  141.6172   79.4230  219.1166 H   0  0  0  0  0  0  0  0  0  0  0  0
  141.9721   79.3727  216.6729 H   0  0  0  0  0  0  0  0  0  0  0  0
  143.7904   75.5479  217.0100 H   0  0  0  0  0  0  0  0  0  0  0  0
  138.1074   76.9435  222.2119 H   0  0  0  0  0  0  0  0  0  0  0  0
  138.1294   79.3939  222.7688 H   0  0  0  0  0  0  0  0  0  0  0  0
  139.4098   81.3792  223.2952 H   0  0  0  0  0  0  0  0  0  0  0  0
  141.5968   82.4850  223.6772 H   0  0  0  0  0  0  0  0  0  0  0  0
  143.7247   81.2188  223.5153 H   0  0  0  0  0  0  0  0  0  0  0  0
  143.6442   78.7921  222.9592 H   0  0  0  0  0  0  0  0  0  0  0  0
  1  2  2  0
  2  3  1  0
  3  4  1  0
  4  5  1  0
  5  6  2  0
  5  7  1  0
  7  8  1  0
  8  9  1  0
  9 10  1  0
  9 11  1  0
 11 12  1  0
 12 13  1  0
 13 14  1  0
 14 15  1  0
 15 16  2  0
 16 17  1  0
 17 18  2  0
 18 19  1  0
 19 20  1  0
 19 21  2  0
  2 22  1  0
 22 23  2  0
 23 24  1  0
 24 25  2  0
 25 26  1  0
 26 27  2  0
 27 28  1  0
 28 29  2  0
 29 30  1  0
 30 31  2  0
 12  7  1  0
 21 15  1  0
 31 22  1  0
 30 25  1  0
  3 32  1  0
  4 33  1  0
  4 34  1  0
  8 35  1  0
  8 36  1  0
  9 37  1  6
 10 38  1  0
 11 39  1  0
 11 40  1  0
 12 41  1  1
 13 42  1  0
 13 43  1  0
 16 44  1  0
 17 45  1  0
 18 46  1  0
 21 47  1  0
 23 48  1  0
 24 49  1  0
 26 50  1  0
 27 51  1  0
 28 52  1  0
 29 53  1  0
M  END
>  <smiles>  (30) 
O=C(NCC(=O)N1C[C@H](O)C[C@H]1COc1cccc(Cl)c1)c1ccc2ccccc2n1

>  <score_type>  (30) 
oracle

>  <origin>  (30) 
autodockgpu

>  <m_score__min__energy>  (30) 
-9.2899999999999991

>  <m_primary>  (30) 
energy

>  <rmsd>  (30) 
7.78443696663128

>  <m_score__min__rmsd>  (30) 
7.78443696663128

>  <meeko>  (30) 
{"free_energy": -7.29, "intermolecular_energy": -9.67, "internal_energy": -3.08, "cluster_size": 21, "cluster_id": 8, "rank_in_cluster": 12}

>  <energy>  (30) 
-7.53

>  <cluster_rmsd>  (30) 
0.0

>  <cluster>  (30) 
8

$$$$

     RDKit          3D

 53 56  0  0  0  0  0  0  0  0999 V2000
  138.5720   70.2130  221.6500 O   0  0  0  0  0  0  0  0  0  0  0  0
  138.9910   70.8720  222.6450 C   0  0  0  0  0  0  0  0  0  0  0  0
  139.1890   72.2620  222.5960 N   0  0  0  0  0  0  0  0  0  0  0  0
  138.9200   72.9960  221.3970 C   0  0  0  0  0  0  0  0  0  0  0  0
  138.9250   74.4680  221.6540 C   0  0  0  0  0  0  0  0  0  0  0  0
  139.9660   74.9440  222.1460 O   0  0  0  0  0  0  0  0  0  0  0  0
  137.7610   75.1850  221.3230 N   0  0  0  0  0  0  0  0  0  0  0  0
  136.7810   74.8670  220.2670 C   0  0  0  0  0  0  0  0  0  0  0  0
  135.4620   75.1750  220.9420 C   0  0  2  0  0  0  0  0  0  0  0  0
  134.7020   75.9780  220.1070 O   0  0  0  0  0  0  0  0  0  0  0  0
  135.8160   75.9670  222.2080 C   0  0  0  0  0  0  0  0  0  0  0  0
  137.2090   76.4160  221.9170 C   0  0  1  0  0  0  0  0  0  0  0  0
  138.0310   76.8390  223.0880 C   0  0  0  0  0  0  0  0  0  0  0  0
  138.7340   77.9700  222.9870 O   0  0  0  0  0  0  0  0  0  0  0  0
  139.9100   78.5280  222.7700 C   0  0  0  0  0  0  0  0  0  0  0  0
  140.6150   78.1050  221.6170 C   0  0  0  0  0  0  0  0  0  0  0  0
  141.8360   78.5960  221.2770 C   0  0  0  0  0  0  0  0  0  0  0  0
  142.4300   79.5430  222.0690 C   0  0  0  0  0  0  0  0  0  0  0  0
  141.8070   79.9930  223.1910 C   0  0  0  0  0  0  0  0  0  0  0  0
  142.5650   81.2160  224.2200 Cl  0  0  0  0  0  0  0  0  0  0  0  0
  140.5720   79.4820  223.5140 C   0  0  0  0  0  0  0  0  0  0  0  0
  139.2800   70.1470  223.9020 C   0  0  0  0  0  0  0  0  0  0  0  0
  138.9430   68.8150  224.0360 C   0  0  0  0  0  0  0  0  0  0  0  0
  139.2240   68.1490  225.2290 C   0  0  0  0  0  0  0  0  0  0  0  0
  139.8390   68.8630  226.2480 C   0  0  0  0  0  0  0  0  0  0  0  0
  140.1350   68.2310  227.4530 C   0  0  0  0  0  0  0  0  0  0  0  0
  140.7530   68.9490  228.4740 C   0  0  0  0  0  0  0  0  0  0  0  0
  141.0870   70.2830  228.3300 C   0  0  0  0  0  0  0  0  0  0  0  0
  140.7920   70.9070  227.1350 C   0  0  0  0  0  0  0  0  0  0  0  0
  140.1750   70.2000  226.1070 C   0  0  0  0  0  0  0  0  0  0  0  0
  139.8780   70.7840  224.9340 N   0  0  0  0  0  0  0  0  0  0  0  0
  139.5440   72.7380  223.4780 H   0  0  0  0  0  0  0  0  0  0  0  0
  139.6921   72.7592  220.6501 H   0  0  0  0  0  0  0  0  0  0  0  0
  137.9241   72.7094  221.0283 H   0  0  0  0  0  0  0  0  0  0  0  0
  136.9317   75.5008  219.3807 H   0  0  0  0  0  0  0  0  0  0  0  0
  136.8540   73.8336  219.8973 H   0  0  0  0  0  0  0  0  0  0  0  0
  134.8947   74.2609  221.1713 H   0  0  0  0  0  0  0  0  0  0  0  0
  134.0130   76.4030  220.7070 H   0  0  0  0  0  0  0  0  0  0  0  0
  135.1405   76.8244  222.3444 H   0  0  0  0  0  0  0  0  0  0  0  0
  135.7241   75.3828  223.1355 H   0  0  0  0  0  0  0  0  0  0  0  0
  137.2176   77.3270  221.3005 H   0  0  0  0  0  0  0  0  0  0  0  0
  137.3477   76.9543  223.9423 H   0  0  0  0  0  0  0  0  0  0  0  0
  138.7924   76.0513  223.1869 H   0  0  0  0  0  0  0  0  0  0  0  0
  140.1543   77.3457  220.9680 H   0  0  0  0  0  0  0  0  0  0  0  0
  142.3444   78.2350  220.3708 H   0  0  0  0  0  0  0  0  0  0  0  0
  143.4178   79.9422  221.7955 H   0  0  0  0  0  0  0  0  0  0  0  0
  140.0809   79.8580  224.4236 H   0  0  0  0  0  0  0  0  0  0  0  0
  138.4555   68.2817  223.2065 H   0  0  0  0  0  0  0  0  0  0  0  0
  138.9654   67.0877  225.3586 H   0  0  0  0  0  0  0  0  0  0  0  0
  139.8821   67.1703  227.5978 H   0  0  0  0  0  0  0  0  0  0  0  0
  140.9819   68.4402  229.4220 H   0  0  0  0  0  0  0  0  0  0  0  0
  141.5757   70.8332  229.1476 H   0  0  0  0  0  0  0  0  0  0  0  0
  141.0457   71.9681  226.9942 H   0  0  0  0  0  0  0  0  0  0  0  0
  1  2  2  0
  2  3  1  0
  3  4  1  0
  4  5  1  0
  5  6  2  0
  5  7  1  0
  7  8  1  0
  8  9  1  0
  9 10  1  0
  9 11  1  0
 11 12  1  0
 12 13  1  0
 13 14  1  0
 14 15  1  0
 15 16  2  0
 16 17  1  0
 17 18  2  0
 18 19  1  0
 19 20  1  0
 19 21  2  0
  2 22  1  0
 22 23  2  0
 23 24  1  0
 24 25  2  0
 25 26  1  0
 26 27  2  0
 27 28  1  0
 28 29  2  0
 29 30  1  0
 30 31  2  0
 12  7  1  0
 21 15  1  0
 31 22  1  0
 30 25  1  0
  3 32  1  0
  4 33  1  0
  4 34  1  0
  8 35  1  0
  8 36  1  0
  9 37  1  1
 10 38  1  0
 11 39  1  0
 11 40  1  0
 12 41  1  6
 13 42  1  0
 13 43  1  0
 16 44  1  0
 17 45  1  0
 18 46  1  0
 21 47  1  0
 23 48  1  0
 24 49  1  0
 26 50  1  0
 27 51  1  0
 28 52  1  0
 29 53  1  0
M  END
>  <smiles>  (31) 
O=C(NCC(=O)N1C[C@H](O)C[C@H]1COc1cccc(Cl)c1)c1ccc2ccccc2n1

>  <score_type>  (31) 
oracle

>  <origin>  (31) 
autodockgpu

>  <m_score__min__energy>  (31) 
-9.2899999999999991

>  <m_primary>  (31) 
energy

>  <rmsd>  (31) 
3.0481255807426186

>  <m_score__min__rmsd>  (31) 
3.0481255807426186

>  <meeko>  (31) 
{"free_energy": -7.74, "intermolecular_energy": -10.12, "internal_energy": -1.76, "cluster_size": 2, "cluster_id": 3, "rank_in_cluster": 2}

>  <energy>  (31) 
-7.52

>  <cluster_rmsd>  (31) 
0.08

>  <cluster>  (31) 
8

$$$$

     RDKit          3D

 53 56  0  0  0  0  0  0  0  0999 V2000
  140.6730   73.3940  222.6710 O   0  0  0  0  0  0  0  0  0  0  0  0
  140.1510   72.2490  222.5340 C   0  0  0  0  0  0  0  0  0  0  0  0
  139.6160   71.8110  221.3100 N   0  0  0  0  0  0  0  0  0  0  0  0
  139.6390   72.6570  220.1570 C   0  0  0  0  0  0  0  0  0  0  0  0
  140.9630   72.5900  219.4670 C   0  0  0  0  0  0  0  0  0  0  0  0
  140.9640   72.1430  218.3040 O   0  0  0  0  0  0  0  0  0  0  0  0
  142.0880   73.0330  220.1870 N   0  0  0  0  0  0  0  0  0  0  0  0
  143.2250   72.2240  220.6630 C   0  0  0  0  0  0  0  0  0  0  0  0
  144.4080   73.1270  220.3880 C   0  0  2  0  0  0  0  0  0  0  0  0
  145.1930   73.2060  221.5260 O   0  0  0  0  0  0  0  0  0  0  0  0
  143.8150   74.5120  220.0940 C   0  0  0  0  0  0  0  0  0  0  0  0
  142.4370   74.3870  220.6520 C   0  0  1  0  0  0  0  0  0  0  0  0
  141.4300   75.3770  220.1680 C   0  0  0  0  0  0  0  0  0  0  0  0
  141.2370   76.4820  220.8920 O   0  0  0  0  0  0  0  0  0  0  0  0
  141.5280   77.7590  221.0660 C   0  0  0  0  0  0  0  0  0  0  0  0
  141.5690   78.5690  219.9050 C   0  0  0  0  0  0  0  0  0  0  0  0
  141.8580   79.8960  219.9420 C   0  0  0  0  0  0  0  0  0  0  0  0
  142.1230   80.4990  221.1440 C   0  0  0  0  0  0  0  0  0  0  0  0
  142.1000   79.7780  222.2970 C   0  0  0  0  0  0  0  0  0  0  0  0
  142.4410   80.5470  223.8530 Cl  0  0  0  0  0  0  0  0  0  0  0  0
  141.8060   78.4360  222.2340 C   0  0  0  0  0  0  0  0  0  0  0  0
  140.1090   71.3470  223.7050 C   0  0  0  0  0  0  0  0  0  0  0  0
  139.6020   70.0680  223.5860 C   0  0  0  0  0  0  0  0  0  0  0  0
  139.5710   69.2330  224.7020 C   0  0  0  0  0  0  0  0  0  0  0  0
  140.0570   69.7270  225.9040 C   0  0  0  0  0  0  0  0  0  0  0  0
  140.0410   68.9210  227.0390 C   0  0  0  0  0  0  0  0  0  0  0  0
  140.5290   69.4190  228.2450 C   0  0  0  0  0  0  0  0  0  0  0  0
  141.0350   70.7020  228.3540 C   0  0  0  0  0  0  0  0  0  0  0  0
  141.0480   71.4980  227.2280 C   0  0  0  0  0  0  0  0  0  0  0  0
  140.5640   71.0120  226.0170 C   0  0  0  0  0  0  0  0  0  0  0  0
  140.5670   71.7670  224.9050 N   0  0  0  0  0  0  0  0  0  0  0  0
  139.1960   70.8340  221.2820 H   0  0  0  0  0  0  0  0  0  0  0  0
  138.8531   72.3338  219.4585 H   0  0  0  0  0  0  0  0  0  0  0  0
  139.4658   73.6939  220.4809 H   0  0  0  0  0  0  0  0  0  0  0  0
  143.1342   72.0039  221.7369 H   0  0  0  0  0  0  0  0  0  0  0  0
  143.2999   71.2420  220.1729 H   0  0  0  0  0  0  0  0  0  0  0  0
  145.0240   72.7553  219.5559 H   0  0  0  0  0  0  0  0  0  0  0  0
  145.4960   72.2610  221.7030 H   0  0  0  0  0  0  0  0  0  0  0  0
  144.3816   75.3053  220.6035 H   0  0  0  0  0  0  0  0  0  0  0  0
  143.8380   74.7862  219.0290 H   0  0  0  0  0  0  0  0  0  0  0  0
  142.4239   74.5709  221.7364 H   0  0  0  0  0  0  0  0  0  0  0  0
  141.7421   75.6956  219.1625 H   0  0  0  0  0  0  0  0  0  0  0  0
  140.4707   74.8417  220.2241 H   0  0  0  0  0  0  0  0  0  0  0  0
  141.3577   78.1035  218.9310 H   0  0  0  0  0  0  0  0  0  0  0  0
  141.8792   80.4834  219.0122 H   0  0  0  0  0  0  0  0  0  0  0  0
  142.3559   81.5736  221.1764 H   0  0  0  0  0  0  0  0  0  0  0  0
  141.7918   77.8669  223.1752 H   0  0  0  0  0  0  0  0  0  0  0  0
  139.2249   69.7102  222.6166 H   0  0  0  0  0  0  0  0  0  0  0  0
  139.1721   68.2103  224.6315 H   0  0  0  0  0  0  0  0  0  0  0  0
  139.6451   67.8962  226.9838 H   0  0  0  0  0  0  0  0  0  0  0  0
  140.5115   68.7739  229.1358 H   0  0  0  0  0  0  0  0  0  0  0  0
  141.4173   71.0777  229.3146 H   0  0  0  0  0  0  0  0  0  0  0  0
  141.4432   72.5229  227.2873 H   0  0  0  0  0  0  0  0  0  0  0  0
  1  2  2  0
  2  3  1  0
  3  4  1  0
  4  5  1  0
  5  6  2  0
  5  7  1  0
  7  8  1  0
  8  9  1  0
  9 10  1  0
  9 11  1  0
 11 12  1  0
 12 13  1  0
 13 14  1  0
 14 15  1  0
 15 16  2  0
 16 17  1  0
 17 18  2  0
 18 19  1  0
 19 20  1  0
 19 21  2  0
  2 22  1  0
 22 23  2  0
 23 24  1  0
 24 25  2  0
 25 26  1  0
 26 27  2  0
 27 28  1  0
 28 29  2  0
 29 30  1  0
 30 31  2  0
 12  7  1  0
 21 15  1  0
 31 22  1  0
 30 25  1  0
  3 32  1  0
  4 33  1  0
  4 34  1  0
  8 35  1  0
  8 36  1  0
  9 37  1  6
 10 38  1  0
 11 39  1  0
 11 40  1  0
 12 41  1  1
 13 42  1  0
 13 43  1  0
 16 44  1  0
 17 45  1  0
 18 46  1  0
 21 47  1  0
 23 48  1  0
 24 49  1  0
 26 50  1  0
 27 51  1  0
 28 52  1  0
 29 53  1  0
M  END
>  <smiles>  (32) 
O=C(NCC(=O)N1C[C@H](O)C[C@H]1COc1cccc(Cl)c1)c1ccc2ccccc2n1

>  <score_type>  (32) 
oracle

>  <origin>  (32) 
autodockgpu

>  <m_score__min__energy>  (32) 
-9.2899999999999991

>  <m_primary>  (32) 
energy

>  <rmsd>  (32) 
3.0988713091529316

>  <m_score__min__rmsd>  (32) 
3.0988713091529316

>  <meeko>  (32) 
{"free_energy": -8.54, "intermolecular_energy": -10.92, "internal_energy": -1.4, "cluster_size": 17, "cluster_id": 1, "rank_in_cluster": 15}

>  <energy>  (32) 
-7.48

>  <cluster_rmsd>  (32) 
0.8

>  <cluster>  (32) 
8

$$$$

     RDKit          3D

 53 56  0  0  0  0  0  0  0  0999 V2000
  139.1360   74.7600  222.1560 O   0  0  0  0  0  0  0  0  0  0  0  0
  140.2160   75.4030  222.0190 C   0  0  0  0  0  0  0  0  0  0  0  0
  141.3970   74.7970  221.5550 N   0  0  0  0  0  0  0  0  0  0  0  0
  141.4200   73.4060  221.2180 C   0  0  0  0  0  0  0  0  0  0  0  0
  142.1140   73.1800  219.9150 C   0  0  0  0  0  0  0  0  0  0  0  0
  141.4420   73.3780  218.8840 O   0  0  0  0  0  0  0  0  0  0  0  0
  143.4580   72.7650  219.9620 N   0  0  0  0  0  0  0  0  0  0  0  0
  143.9890   71.4140  219.7060 C   0  0  0  0  0  0  0  0  0  0  0  0
  145.2480   71.7020  218.9150 C   0  0  2  0  0  0  0  0  0  0  0  0
  146.3030   70.9980  219.4710 O   0  0  0  0  0  0  0  0  0  0  0  0
  145.5090   73.2050  219.0810 C   0  0  0  0  0  0  0  0  0  0  0  0
  144.6740   73.5380  220.2720 C   0  0  1  0  0  0  0  0  0  0  0  0
  144.3360   74.9790  220.4660 C   0  0  0  0  0  0  0  0  0  0  0  0
  143.4480   75.5340  219.6380 O   0  0  0  0  0  0  0  0  0  0  0  0
  143.0250   76.6330  219.0400 C   0  0  0  0  0  0  0  0  0  0  0  0
  143.2900   76.7490  217.6550 C   0  0  0  0  0  0  0  0  0  0  0  0
  142.9130   77.8290  216.9190 C   0  0  0  0  0  0  0  0  0  0  0  0
  142.2450   78.8600  217.5240 C   0  0  0  0  0  0  0  0  0  0  0  0
  141.9590   78.8120  218.8530 C   0  0  0  0  0  0  0  0  0  0  0  0
  141.0970   80.1390  219.6430 Cl  0  0  0  0  0  0  0  0  0  0  0  0
  142.3510   77.7100  219.5760 C   0  0  0  0  0  0  0  0  0  0  0  0
  140.2300   76.8430  222.3580 C   0  0  0  0  0  0  0  0  0  0  0  0
  139.0500   77.5500  222.4600 C   0  0  0  0  0  0  0  0  0  0  0  0
  139.0840   78.9070  222.7810 C   0  0  0  0  0  0  0  0  0  0  0  0
  140.3210   79.5000  222.9870 C   0  0  0  0  0  0  0  0  0  0  0  0
  140.3940   80.8530  223.3090 C   0  0  0  0  0  0  0  0  0  0  0  0
  141.6370   81.4460  223.5160 C   0  0  0  0  0  0  0  0  0  0  0  0
  142.8150   80.7280  223.4110 C   0  0  0  0  0  0  0  0  0  0  0  0
  142.7400   79.3890  223.0920 C   0  0  0  0  0  0  0  0  0  0  0  0
  141.5030   78.7840  222.8830 C   0  0  0  0  0  0  0  0  0  0  0  0
  141.4030   77.4810  222.5710 N   0  0  0  0  0  0  0  0  0  0  0  0
  142.2610   75.4110  221.4690 H   0  0  0  0  0  0  0  0  0  0  0  0
  141.9500   72.8537  222.0079 H   0  0  0  0  0  0  0  0  0  0  0  0
  140.3827   73.0512  221.1276 H   0  0  0  0  0  0  0  0  0  0  0  0
  144.2208   70.8930  220.6466 H   0  0  0  0  0  0  0  0  0  0  0  0
  143.2810   70.7566  219.1800 H   0  0  0  0  0  0  0  0  0  0  0  0
  145.1450   71.4143  217.8583 H   0  0  0  0  0  0  0  0  0  0  0  0
  146.2250   71.1470  220.4650 H   0  0  0  0  0  0  0  0  0  0  0  0
  146.5736   73.4068  219.2708 H   0  0  0  0  0  0  0  0  0  0  0  0
  145.2625   73.7981  218.1880 H   0  0  0  0  0  0  0  0  0  0  0  0
  145.1992   73.3055  221.2101 H   0  0  0  0  0  0  0  0  0  0  0  0
  143.9422   75.0874  221.4874 H   0  0  0  0  0  0  0  0  0  0  0  0
  145.2756   75.5109  220.2557 H   0  0  0  0  0  0  0  0  0  0  0  0
  143.8243   75.9299  217.1514 H   0  0  0  0  0  0  0  0  0  0  0  0
  143.1433   77.8739  215.8443 H   0  0  0  0  0  0  0  0  0  0  0  0
  141.9373   79.7337  216.9307 H   0  0  0  0  0  0  0  0  0  0  0  0
  142.1119   77.6861  220.6494 H   0  0  0  0  0  0  0  0  0  0  0  0
  138.0872   77.0463  222.2891 H   0  0  0  0  0  0  0  0  0  0  0  0
  138.1557   79.4907  222.8684 H   0  0  0  0  0  0  0  0  0  0  0  0
  139.4746   81.4502  223.3994 H   0  0  0  0  0  0  0  0  0  0  0  0
  141.6835   82.5152  223.7701 H   0  0  0  0  0  0  0  0  0  0  0  0
  143.7877   81.2138  223.5780 H   0  0  0  0  0  0  0  0  0  0  0  0
  143.6617   78.7954  223.0021 H   0  0  0  0  0  0  0  0  0  0  0  0
  1  2  2  0
  2  3  1  0
  3  4  1  0
  4  5  1  0
  5  6  2  0
  5  7  1  0
  7  8  1  0
  8  9  1  0
  9 10  1  0
  9 11  1  0
 11 12  1  0
 12 13  1  0
 13 14  1  0
 14 15  1  0
 15 16  2  0
 16 17  1  0
 17 18  2  0
 18 19  1  0
 19 20  1  0
 19 21  2  0
  2 22  1  0
 22 23  2  0
 23 24  1  0
 24 25  2  0
 25 26  1  0
 26 27  2  0
 27 28  1  0
 28 29  2  0
 29 30  1  0
 30 31  2  0
 12  7  1  0
 21 15  1  0
 31 22  1  0
 30 25  1  0
  3 32  1  0
  4 33  1  0
  4 34  1  0
  8 35  1  0
  8 36  1  0
  9 37  1  6
 10 38  1  0
 11 39  1  0
 11 40  1  0
 12 41  1  1
 13 42  1  0
 13 43  1  0
 16 44  1  0
 17 45  1  0
 18 46  1  0
 21 47  1  0
 23 48  1  0
 24 49  1  0
 26 50  1  0
 27 51  1  0
 28 52  1  0
 29 53  1  0
M  END
>  <smiles>  (33) 
O=C(NCC(=O)N1C[C@H](O)C[C@H]1COc1cccc(Cl)c1)c1ccc2ccccc2n1

>  <score_type>  (33) 
oracle

>  <origin>  (33) 
autodockgpu

>  <m_score__min__energy>  (33) 
-9.2899999999999991

>  <m_primary>  (33) 
energy

>  <rmsd>  (33) 
7.771537663863659

>  <m_score__min__rmsd>  (33) 
7.771537663863659

>  <meeko>  (33) 
{"free_energy": -7.42, "intermolecular_energy": -9.8, "internal_energy": -3.44, "cluster_size": 21, "cluster_id": 8, "rank_in_cluster": 10}

>  <energy>  (33) 
-7.47

>  <cluster_rmsd>  (33) 
0.8

>  <cluster>  (33) 
8

$$$$

     RDKit          3D

 53 56  0  0  0  0  0  0  0  0999 V2000
  140.4290   71.3930  221.2840 O   0  0  0  0  0  0  0  0  0  0  0  0
  139.8800   71.9910  222.2550 C   0  0  0  0  0  0  0  0  0  0  0  0
  139.3150   73.2720  222.1250 N   0  0  0  0  0  0  0  0  0  0  0  0
  139.3440   73.9580  220.8690 C   0  0  0  0  0  0  0  0  0  0  0  0
  138.7330   75.3170  220.9860 C   0  0  0  0  0  0  0  0  0  0  0  0
  137.7320   75.5410  220.2790 O   0  0  0  0  0  0  0  0  0  0  0  0
  139.3390   76.2220  221.8780 N   0  0  0  0  0  0  0  0  0  0  0  0
  140.7740   76.3460  222.1930 C   0  0  0  0  0  0  0  0  0  0  0  0
  140.9650   77.8460  222.2610 C   0  0  2  0  0  0  0  0  0  0  0  0
  141.6360   78.1650  223.4300 O   0  0  0  0  0  0  0  0  0  0  0  0
  139.5530   78.4440  222.3170 C   0  0  0  0  0  0  0  0  0  0  0  0
  138.7310   77.2660  222.7210 C   0  0  1  0  0  0  0  0  0  0  0  0
  137.2650   77.3560  222.4570 C   0  0  0  0  0  0  0  0  0  0  0  0
  136.5470   76.2310  222.5090 O   0  0  0  0  0  0  0  0  0  0  0  0
  136.0610   75.2610  223.2610 C   0  0  0  0  0  0  0  0  0  0  0  0
  135.3230   75.6470  224.4060 C   0  0  0  0  0  0  0  0  0  0  0  0
  134.7710   74.7500  225.2660 C   0  0  0  0  0  0  0  0  0  0  0  0
  134.9220   73.4080  225.0340 C   0  0  0  0  0  0  0  0  0  0  0  0
  135.6200   72.9700  223.9520 C   0  0  0  0  0  0  0  0  0  0  0  0
  135.8200   71.2390  223.6440 Cl  0  0  0  0  0  0  0  0  0  0  0  0
  136.1690   73.8960  223.0970 C   0  0  0  0  0  0  0  0  0  0  0  0
  139.8330   71.3120  223.5680 C   0  0  0  0  0  0  0  0  0  0  0  0
  139.1950   70.0960  223.7060 C   0  0  0  0  0  0  0  0  0  0  0  0
  139.1620   69.4720  224.9520 C   0  0  0  0  0  0  0  0  0  0  0  0
  139.7800   70.1080  226.0200 C   0  0  0  0  0  0  0  0  0  0  0  0
  139.7660   69.5140  227.2790 C   0  0  0  0  0  0  0  0  0  0  0  0
  140.3870   70.1540  228.3490 C   0  0  0  0  0  0  0  0  0  0  0  0
  141.0240   71.3730  228.2010 C   0  0  0  0  0  0  0  0  0  0  0  0
  141.0350   71.9590  226.9520 C   0  0  0  0  0  0  0  0  0  0  0  0
  140.4190   71.3290  225.8750 C   0  0  0  0  0  0  0  0  0  0  0  0
  140.4160   71.8780  224.6490 N   0  0  0  0  0  0  0  0  0  0  0  0
  138.8740   73.7020  222.9910 H   0  0  0  0  0  0  0  0  0  0  0  0
  140.3884   74.0605  220.5392 H   0  0  0  0  0  0  0  0  0  0  0  0
  138.7642   73.3751  220.1382 H   0  0  0  0  0  0  0  0  0  0  0  0
  141.0123   75.8707  223.1560 H   0  0  0  0  0  0  0  0  0  0  0  0
  141.4286   75.8530  221.4592 H   0  0  0  0  0  0  0  0  0  0  0  0
  141.5410   78.2263  221.4045 H   0  0  0  0  0  0  0  0  0  0  0  0
  142.6120   78.1820  223.1780 H   0  0  0  0  0  0  0  0  0  0  0  0
  139.4899   79.2498  223.0631 H   0  0  0  0  0  0  0  0  0  0  0  0
  139.2301   78.9063  221.3725 H   0  0  0  0  0  0  0  0  0  0  0  0
  138.7511   77.1153  223.8104 H   0  0  0  0  0  0  0  0  0  0  0  0
  136.8412   78.0487  223.1990 H   0  0  0  0  0  0  0  0  0  0  0  0
  137.1948   77.6777  221.4074 H   0  0  0  0  0  0  0  0  0  0  0  0
  135.1903   76.7200  224.6088 H   0  0  0  0  0  0  0  0  0  0  0  0
  134.2065   75.0997  226.1429 H   0  0  0  0  0  0  0  0  0  0  0  0
  134.4757   72.6801  225.7275 H   0  0  0  0  0  0  0  0  0  0  0  0
  136.7301   73.5246  222.2268 H   0  0  0  0  0  0  0  0  0  0  0  0
  138.7151   69.6217  222.8373 H   0  0  0  0  0  0  0  0  0  0  0  0
  138.6601   68.5023  225.0853 H   0  0  0  0  0  0  0  0  0  0  0  0
  139.2674   68.5449  227.4279 H   0  0  0  0  0  0  0  0  0  0  0  0
  140.3704   69.6765  229.3398 H   0  0  0  0  0  0  0  0  0  0  0  0
  141.5097   71.8629  229.0578 H   0  0  0  0  0  0  0  0  0  0  0  0
  141.5332   72.9289  226.8069 H   0  0  0  0  0  0  0  0  0  0  0  0
  1  2  2  0
  2  3  1  0
  3  4  1  0
  4  5  1  0
  5  6  2  0
  5  7  1  0
  7  8  1  0
  8  9  1  0
  9 10  1  0
  9 11  1  0
 11 12  1  0
 12 13  1  0
 13 14  1  0
 14 15  1  0
 15 16  2  0
 16 17  1  0
 17 18  2  0
 18 19  1  0
 19 20  1  0
 19 21  2  0
  2 22  1  0
 22 23  2  0
 23 24  1  0
 24 25  2  0
 25 26  1  0
 26 27  2  0
 27 28  1  0
 28 29  2  0
 29 30  1  0
 30 31  2  0
 12  7  1  0
 21 15  1  0
 31 22  1  0
 30 25  1  0
  3 32  1  0
  4 33  1  0
  4 34  1  0
  8 35  1  0
  8 36  1  0
  9 37  1  6
 10 38  1  0
 11 39  1  0
 11 40  1  0
 12 41  1  1
 13 42  1  0
 13 43  1  0
 16 44  1  0
 17 45  1  0
 18 46  1  0
 21 47  1  0
 23 48  1  0
 24 49  1  0
 26 50  1  0
 27 51  1  0
 28 52  1  0
 29 53  1  0
M  END
>  <smiles>  (34) 
O=C(NCC(=O)N1C[C@H](O)C[C@H]1COc1cccc(Cl)c1)c1ccc2ccccc2n1

>  <score_type>  (34) 
oracle

>  <origin>  (34) 
autodockgpu

>  <m_score__min__energy>  (34) 
-9.2899999999999991

>  <m_primary>  (34) 
energy

>  <rmsd>  (34) 
2.791007584170462

>  <m_score__min__rmsd>  (34) 
2.791007584170462

>  <meeko>  (34) 
{"free_energy": -7.6, "intermolecular_energy": -9.99, "internal_energy": -2.15, "cluster_size": 2, "cluster_id": 6, "rank_in_cluster": 2}

>  <energy>  (34) 
-7.47

>  <cluster_rmsd>  (34) 
0.8

>  <cluster>  (34) 
8

$$$$

     RDKit          3D

 53 56  0  0  0  0  0  0  0  0999 V2000
  139.1120   74.8420  222.1530 O   0  0  0  0  0  0  0  0  0  0  0  0
  140.1880   75.4850  221.9820 C   0  0  0  0  0  0  0  0  0  0  0  0
  141.3370   74.8910  221.4310 N   0  0  0  0  0  0  0  0  0  0  0  0
  141.3310   73.5140  221.0390 C   0  0  0  0  0  0  0  0  0  0  0  0
  142.1120   73.3100  219.7810 C   0  0  0  0  0  0  0  0  0  0  0  0
  141.5110   73.5230  218.7110 O   0  0  0  0  0  0  0  0  0  0  0  0
  143.4510   72.8970  219.9140 N   0  0  0  0  0  0  0  0  0  0  0  0
  143.9970   71.5430  219.7070 C   0  0  0  0  0  0  0  0  0  0  0  0
  145.2990   71.8210  218.9880 C   0  0  2  0  0  0  0  0  0  0  0  0
  146.3200   71.1250  219.6130 O   0  0  0  0  0  0  0  0  0  0  0  0
  145.5500   73.3270  219.1490 C   0  0  0  0  0  0  0  0  0  0  0  0
  144.6470   73.6750  220.2840 C   0  0  1  0  0  0  0  0  0  0  0  0
  144.2980   75.1180  220.4390 C   0  0  0  0  0  0  0  0  0  0  0  0
  143.4430   75.6550  219.5650 O   0  0  0  0  0  0  0  0  0  0  0  0
  142.9770   76.7560  219.0040 C   0  0  0  0  0  0  0  0  0  0  0  0
  143.1580   76.8860  217.6060 C   0  0  0  0  0  0  0  0  0  0  0  0
  142.7290   77.9690  216.9040 C   0  0  0  0  0  0  0  0  0  0  0  0
  142.0910   78.9900  217.5570 C   0  0  0  0  0  0  0  0  0  0  0  0
  141.8860   78.9280  218.9000 C   0  0  0  0  0  0  0  0  0  0  0  0
  141.0630   80.2420  219.7520 Cl  0  0  0  0  0  0  0  0  0  0  0  0
  142.3280   77.8230  219.5880 C   0  0  0  0  0  0  0  0  0  0  0  0
  140.2320   76.9100  222.3760 C   0  0  0  0  0  0  0  0  0  0  0  0
  139.0640   77.6170  222.5770 C   0  0  0  0  0  0  0  0  0  0  0  0
  139.1270   78.9600  222.9490 C   0  0  0  0  0  0  0  0  0  0  0  0
  140.3780   79.5390  223.1030 C   0  0  0  0  0  0  0  0  0  0  0  0
  140.4780   80.8780  223.4730 C   0  0  0  0  0  0  0  0  0  0  0  0
  141.7360   81.4570  223.6290 C   0  0  0  0  0  0  0  0  0  0  0  0
  142.9010   80.7390  223.4250 C   0  0  0  0  0  0  0  0  0  0  0  0
  142.7980   79.4140  223.0580 C   0  0  0  0  0  0  0  0  0  0  0  0
  141.5470   78.8230  222.9000 C   0  0  0  0  0  0  0  0  0  0  0  0
  141.4200   77.5340  222.5440 N   0  0  0  0  0  0  0  0  0  0  0  0
  142.2000   75.5030  221.3220 H   0  0  0  0  0  0  0  0  0  0  0  0
  141.7786   72.9098  221.8419 H   0  0  0  0  0  0  0  0  0  0  0  0
  140.2904   73.2064  220.8584 H   0  0  0  0  0  0  0  0  0  0  0  0
  144.1734   71.0346  220.6664 H   0  0  0  0  0  0  0  0  0  0  0  0
  143.3212   70.8784  219.1488 H   0  0  0  0  0  0  0  0  0  0  0  0
  145.2577   71.5191  217.9311 H   0  0  0  0  0  0  0  0  0  0  0  0
  146.2950   71.4280  220.5750 H   0  0  0  0  0  0  0  0  0  0  0  0
  146.6016   73.5321  219.3981 H   0  0  0  0  0  0  0  0  0  0  0  0
  145.3563   73.9080  218.2353 H   0  0  0  0  0  0  0  0  0  0  0  0
  145.1168   73.4554  221.2541 H   0  0  0  0  0  0  0  0  0  0  0  0
  143.8624   75.2430  221.4413 H   0  0  0  0  0  0  0  0  0  0  0  0
  145.2440   75.6496  220.2588 H   0  0  0  0  0  0  0  0  0  0  0  0
  143.6678   76.0759  217.0639 H   0  0  0  0  0  0  0  0  0  0  0  0
  142.8935   78.0246  215.8178 H   0  0  0  0  0  0  0  0  0  0  0  0
  141.7419   79.8663  216.9912 H   0  0  0  0  0  0  0  0  0  0  0  0
  142.1527   77.7879  220.6734 H   0  0  0  0  0  0  0  0  0  0  0  0
  138.0893   77.1246  222.4447 H   0  0  0  0  0  0  0  0  0  0  0  0
  138.2097   79.5438  223.1157 H   0  0  0  0  0  0  0  0  0  0  0  0
  139.5695   81.4749  223.6411 H   0  0  0  0  0  0  0  0  0  0  0  0
  141.8047   82.5149  223.9226 H   0  0  0  0  0  0  0  0  0  0  0  0
  143.8851   81.2136  223.5525 H   0  0  0  0  0  0  0  0  0  0  0  0
  143.7087   78.8206  222.8891 H   0  0  0  0  0  0  0  0  0  0  0  0
  1  2  2  0
  2  3  1  0
  3  4  1  0
  4  5  1  0
  5  6  2  0
  5  7  1  0
  7  8  1  0
  8  9  1  0
  9 10  1  0
  9 11  1  0
 11 12  1  0
 12 13  1  0
 13 14  1  0
 14 15  1  0
 15 16  2  0
 16 17  1  0
 17 18  2  0
 18 19  1  0
 19 20  1  0
 19 21  2  0
  2 22  1  0
 22 23  2  0
 23 24  1  0
 24 25  2  0
 25 26  1  0
 26 27  2  0
 27 28  1  0
 28 29  2  0
 29 30  1  0
 30 31  2  0
 12  7  1  0
 21 15  1  0
 31 22  1  0
 30 25  1  0
  3 32  1  0
  4 33  1  0
  4 34  1  0
  8 35  1  0
  8 36  1  0
  9 37  1  6
 10 38  1  0
 11 39  1  0
 11 40  1  0
 12 41  1  1
 13 42  1  0
 13 43  1  0
 16 44  1  0
 17 45  1  0
 18 46  1  0
 21 47  1  0
 23 48  1  0
 24 49  1  0
 26 50  1  0
 27 51  1  0
 28 52  1  0
 29 53  1  0
M  END
>  <smiles>  (35) 
O=C(NCC(=O)N1C[C@H](O)C[C@H]1COc1cccc(Cl)c1)c1ccc2ccccc2n1

>  <score_type>  (35) 
oracle

>  <origin>  (35) 
autodockgpu

>  <m_score__min__energy>  (35) 
-9.2899999999999991

>  <m_primary>  (35) 
energy

>  <rmsd>  (35) 
7.771051859282916

>  <m_score__min__rmsd>  (35) 
7.771051859282916

>  <meeko>  (35) 
{"free_energy": -7.36, "intermolecular_energy": -9.75, "internal_energy": -3.44, "cluster_size": 21, "cluster_id": 8, "rank_in_cluster": 11}

>  <energy>  (35) 
-7.46

>  <cluster_rmsd>  (35) 
0.8

>  <cluster>  (35) 
8

$$$$

     RDKit          3D

 53 56  0  0  0  0  0  0  0  0999 V2000
  139.1730   74.7430  222.0330 O   0  0  0  0  0  0  0  0  0  0  0  0
  140.2640   75.3820  221.9740 C   0  0  0  0  0  0  0  0  0  0  0  0
  141.4690   74.7750  221.5790 N   0  0  0  0  0  0  0  0  0  0  0  0
  141.5060   73.3890  221.2240 C   0  0  0  0  0  0  0  0  0  0  0  0
  142.1780   73.1900  219.9040 C   0  0  0  0  0  0  0  0  0  0  0  0
  141.5050   73.4590  218.8900 O   0  0  0  0  0  0  0  0  0  0  0  0
  143.5030   72.7180  219.9190 N   0  0  0  0  0  0  0  0  0  0  0  0
  143.9730   71.3510  219.6290 C   0  0  0  0  0  0  0  0  0  0  0  0
  145.2270   71.6000  218.8200 C   0  0  2  0  0  0  0  0  0  0  0  0
  146.2620   70.8420  219.3430 O   0  0  0  0  0  0  0  0  0  0  0  0
  145.5540   73.0870  219.0070 C   0  0  0  0  0  0  0  0  0  0  0  0
  144.7560   73.4340  220.2180 C   0  0  1  0  0  0  0  0  0  0  0  0
  144.4830   74.8840  220.4440 C   0  0  0  0  0  0  0  0  0  0  0  0
  143.5080   75.4570  219.7350 O   0  0  0  0  0  0  0  0  0  0  0  0
  143.0830   76.5380  219.1060 C   0  0  0  0  0  0  0  0  0  0  0  0
  143.3330   76.6080  217.7150 C   0  0  0  0  0  0  0  0  0  0  0  0
  142.9520   77.6640  216.9490 C   0  0  0  0  0  0  0  0  0  0  0  0
  142.2940   78.7180  217.5260 C   0  0  0  0  0  0  0  0  0  0  0  0
  142.0220   78.7130  218.8590 C   0  0  0  0  0  0  0  0  0  0  0  0
  141.1730   80.0690  219.6140 Cl  0  0  0  0  0  0  0  0  0  0  0  0
  142.4170   77.6340  219.6130 C   0  0  0  0  0  0  0  0  0  0  0  0
  140.2640   76.8160  222.3340 C   0  0  0  0  0  0  0  0  0  0  0  0
  139.0760   77.5050  222.4670 C   0  0  0  0  0  0  0  0  0  0  0  0
  139.0970   78.8580  222.8080 C   0  0  0  0  0  0  0  0  0  0  0  0
  140.3290   79.4650  223.0020 C   0  0  0  0  0  0  0  0  0  0  0  0
  140.3880   80.8130  223.3430 C   0  0  0  0  0  0  0  0  0  0  0  0
  141.6270   81.4210  223.5380 C   0  0  0  0  0  0  0  0  0  0  0  0
  142.8130   80.7220  223.4020 C   0  0  0  0  0  0  0  0  0  0  0  0
  142.7500   79.3860  223.0640 C   0  0  0  0  0  0  0  0  0  0  0  0
  141.5190   78.7670  222.8670 C   0  0  0  0  0  0  0  0  0  0  0  0
  141.4310   77.4680  222.5380 N   0  0  0  0  0  0  0  0  0  0  0  0
  142.3400   75.3840  221.5570 H   0  0  0  0  0  0  0  0  0  0  0  0
  142.0597   72.8349  221.9963 H   0  0  0  0  0  0  0  0  0  0  0  0
  140.4726   73.0195  221.1495 H   0  0  0  0  0  0  0  0  0  0  0  0
  144.2001   70.8038  220.5558 H   0  0  0  0  0  0  0  0  0  0  0  0
  143.2287   70.7336  219.1048 H   0  0  0  0  0  0  0  0  0  0  0  0
  145.0924   71.3361  217.7607 H   0  0  0  0  0  0  0  0  0  0  0  0
  146.3050   71.0920  220.3180 H   0  0  0  0  0  0  0  0  0  0  0  0
  146.6294   73.2403  219.1803 H   0  0  0  0  0  0  0  0  0  0  0  0
  145.3165   73.7056  218.1290 H   0  0  0  0  0  0  0  0  0  0  0  0
  145.2886   73.1635  221.1417 H   0  0  0  0  0  0  0  0  0  0  0  0
  144.2296   75.0071  221.5073 H   0  0  0  0  0  0  0  0  0  0  0  0
  145.3999   75.3911  220.1092 H   0  0  0  0  0  0  0  0  0  0  0  0
  143.8588   75.7709  217.2325 H   0  0  0  0  0  0  0  0  0  0  0  0
  143.1709   77.6724  215.8710 H   0  0  0  0  0  0  0  0  0  0  0  0
  141.9838   79.5734  216.9079 H   0  0  0  0  0  0  0  0  0  0  0  0
  142.1875   77.6453  220.6887 H   0  0  0  0  0  0  0  0  0  0  0  0
  138.1173   76.9905  222.3051 H   0  0  0  0  0  0  0  0  0  0  0  0
  138.1625   79.4273  222.9198 H   0  0  0  0  0  0  0  0  0  0  0  0
  139.4620   81.3954  223.4580 H   0  0  0  0  0  0  0  0  0  0  0  0
  141.6627   82.4868  223.8077 H   0  0  0  0  0  0  0  0  0  0  0  0
  143.7817   81.2189  223.5594 H   0  0  0  0  0  0  0  0  0  0  0  0
  143.6780   78.8066  222.9495 H   0  0  0  0  0  0  0  0  0  0  0  0
  1  2  2  0
  2  3  1  0
  3  4  1  0
  4  5  1  0
  5  6  2  0
  5  7  1  0
  7  8  1  0
  8  9  1  0
  9 10  1  0
  9 11  1  0
 11 12  1  0
 12 13  1  0
 13 14  1  0
 14 15  1  0
 15 16  2  0
 16 17  1  0
 17 18  2  0
 18 19  1  0
 19 20  1  0
 19 21  2  0
  2 22  1  0
 22 23  2  0
 23 24  1  0
 24 25  2  0
 25 26  1  0
 26 27  2  0
 27 28  1  0
 28 29  2  0
 29 30  1  0
 30 31  2  0
 12  7  1  0
 21 15  1  0
 31 22  1  0
 30 25  1  0
  3 32  1  0
  4 33  1  0
  4 34  1  0
  8 35  1  0
  8 36  1  0
  9 37  1  6
 10 38  1  0
 11 39  1  0
 11 40  1  0
 12 41  1  1
 13 42  1  0
 13 43  1  0
 16 44  1  0
 17 45  1  0
 18 46  1  0
 21 47  1  0
 23 48  1  0
 24 49  1  0
 26 50  1  0
 27 51  1  0
 28 52  1  0
 29 53  1  0
M  END
>  <smiles>  (36) 
O=C(NCC(=O)N1C[C@H](O)C[C@H]1COc1cccc(Cl)c1)c1ccc2ccccc2n1

>  <score_type>  (36) 
oracle

>  <origin>  (36) 
autodockgpu

>  <m_score__min__energy>  (36) 
-9.2899999999999991

>  <m_primary>  (36) 
energy

>  <rmsd>  (36) 
7.776418000766055

>  <m_score__min__rmsd>  (36) 
7.776418000766055

>  <meeko>  (36) 
{"free_energy": -7.48, "intermolecular_energy": -9.87, "internal_energy": -3.42, "cluster_size": 21, "cluster_id": 8, "rank_in_cluster": 3}

>  <energy>  (36) 
-7.46

>  <cluster_rmsd>  (36) 
0.81

>  <cluster>  (36) 
8

$$$$

     RDKit          3D

 53 56  0  0  0  0  0  0  0  0999 V2000
  138.7890   75.0290  222.3330 O   0  0  0  0  0  0  0  0  0  0  0  0
  139.6830   75.7350  221.7820 C   0  0  0  0  0  0  0  0  0  0  0  0
  140.4130   75.2860  220.6670 N   0  0  0  0  0  0  0  0  0  0  0  0
  140.1680   73.9920  220.1060 C   0  0  0  0  0  0  0  0  0  0  0  0
  141.3480   73.5120  219.3260 C   0  0  0  0  0  0  0  0  0  0  0  0
  141.1110   72.9970  218.2170 O   0  0  0  0  0  0  0  0  0  0  0  0
  142.6180   73.6810  219.9080 N   0  0  0  0  0  0  0  0  0  0  0  0
  143.2560   72.8320  220.9320 C   0  0  0  0  0  0  0  0  0  0  0  0
  144.6910   72.7670  220.4540 C   0  0  2  0  0  0  0  0  0  0  0  0
  145.5350   73.0620  221.5130 O   0  0  0  0  0  0  0  0  0  0  0  0
  144.8250   73.8620  219.3880 C   0  0  0  0  0  0  0  0  0  0  0  0
  143.6360   74.7180  219.6670 C   0  0  1  0  0  0  0  0  0  0  0  0
  143.1980   75.6290  218.5680 C   0  0  0  0  0  0  0  0  0  0  0  0
  142.3030   76.5770  218.8570 O   0  0  0  0  0  0  0  0  0  0  0  0
  142.0250   77.8670  218.8840 C   0  0  0  0  0  0  0  0  0  0  0  0
  142.9220   78.7290  218.2070 C   0  0  0  0  0  0  0  0  0  0  0  0
  142.7550   80.0770  218.1590 C   0  0  0  0  0  0  0  0  0  0  0  0
  141.6800   80.6490  218.7850 C   0  0  0  0  0  0  0  0  0  0  0  0
  140.7800   79.8780  219.4540 C   0  0  0  0  0  0  0  0  0  0  0  0
  139.3880   80.6080  220.2650 Cl  0  0  0  0  0  0  0  0  0  0  0  0
  140.9700   78.5180  219.4890 C   0  0  0  0  0  0  0  0  0  0  0  0
  139.9640   77.0780  222.3340 C   0  0  0  0  0  0  0  0  0  0  0  0
  138.9500   77.8380  222.8790 C   0  0  0  0  0  0  0  0  0  0  0  0
  139.2350   79.1020  223.3950 C   0  0  0  0  0  0  0  0  0  0  0  0
  140.5460   79.5510  223.3380 C   0  0  0  0  0  0  0  0  0  0  0  0
  140.8680   80.8080  223.8440 C   0  0  0  0  0  0  0  0  0  0  0  0
  142.1860   81.2570  223.7860 C   0  0  0  0  0  0  0  0  0  0  0  0
  143.1960   80.4880  223.2380 C   0  0  0  0  0  0  0  0  0  0  0  0
  142.8740   79.2430  222.7370 C   0  0  0  0  0  0  0  0  0  0  0  0
  141.5610   78.7830  222.7900 C   0  0  0  0  0  0  0  0  0  0  0  0
  141.2220   77.5750  222.3100 N   0  0  0  0  0  0  0  0  0  0  0  0
  141.1460   75.9430  220.2650 H   0  0  0  0  0  0  0  0  0  0  0  0
  139.9617   73.2809  220.9195 H   0  0  0  0  0  0  0  0  0  0  0  0
  139.3057   74.0632  219.4268 H   0  0  0  0  0  0  0  0  0  0  0  0
  143.1892   73.2927  221.9286 H   0  0  0  0  0  0  0  0  0  0  0  0
  142.7839   71.8443  221.0398 H   0  0  0  0  0  0  0  0  0  0  0  0
  144.9488   71.7731  220.0594 H   0  0  0  0  0  0  0  0  0  0  0  0
  145.8280   72.1680  221.8730 H   0  0  0  0  0  0  0  0  0  0  0  0
  145.7610   74.4266  219.5112 H   0  0  0  0  0  0  0  0  0  0  0  0
  144.8599   73.4754  218.3588 H   0  0  0  0  0  0  0  0  0  0  0  0
  143.8362   75.4323  220.4793 H   0  0  0  0  0  0  0  0  0  0  0  0
  144.0968   76.1341  218.1845 H   0  0  0  0  0  0  0  0  0  0  0  0
  142.6791   74.9701  217.8563 H   0  0  0  0  0  0  0  0  0  0  0  0
  143.7918   78.2883  217.6978 H   0  0  0  0  0  0  0  0  0  0  0  0
  143.4796   80.7051  217.6201 H   0  0  0  0  0  0  0  0  0  0  0  0
  141.5428   81.7397  218.7469 H   0  0  0  0  0  0  0  0  0  0  0  0
  140.2338   77.9092  220.0343 H   0  0  0  0  0  0  0  0  0  0  0  0
  137.9215   77.4490  222.9065 H   0  0  0  0  0  0  0  0  0  0  0  0
  138.4424   79.7252  223.8348 H   0  0  0  0  0  0  0  0  0  0  0  0
  140.0864   81.4428  224.2869 H   0  0  0  0  0  0  0  0  0  0  0  0
  142.4298   82.2516  224.1876 H   0  0  0  0  0  0  0  0  0  0  0  0
  144.2308   80.8594  223.2022 H   0  0  0  0  0  0  0  0  0  0  0  0
  143.6581   78.6114  222.2939 H   0  0  0  0  0  0  0  0  0  0  0  0
  1  2  2  0
  2  3  1  0
  3  4  1  0
  4  5  1  0
  5  6  2  0
  5  7  1  0
  7  8  1  0
  8  9  1  0
  9 10  1  0
  9 11  1  0
 11 12  1  0
 12 13  1  0
 13 14  1  0
 14 15  1  0
 15 16  2  0
 16 17  1  0
 17 18  2  0
 18 19  1  0
 19 20  1  0
 19 21  2  0
  2 22  1  0
 22 23  2  0
 23 24  1  0
 24 25  2  0
 25 26  1  0
 26 27  2  0
 27 28  1  0
 28 29  2  0
 29 30  1  0
 30 31  2  0
 12  7  1  0
 21 15  1  0
 31 22  1  0
 30 25  1  0
  3 32  1  0
  4 33  1  0
  4 34  1  0
  8 35  1  0
  8 36  1  0
  9 37  1  6
 10 38  1  0
 11 39  1  0
 11 40  1  0
 12 41  1  1
 13 42  1  0
 13 43  1  0
 16 44  1  0
 17 45  1  0
 18 46  1  0
 21 47  1  0
 23 48  1  0
 24 49  1  0
 26 50  1  0
 27 51  1  0
 28 52  1  0
 29 53  1  0
M  END
>  <smiles>  (37) 
O=C(NCC(=O)N1C[C@H](O)C[C@H]1COc1cccc(Cl)c1)c1ccc2ccccc2n1

>  <score_type>  (37) 
oracle

>  <origin>  (37) 
autodockgpu

>  <m_score__min__energy>  (37) 
-9.2899999999999991

>  <m_primary>  (37) 
energy

>  <rmsd>  (37) 
7.581250300523875

>  <m_score__min__rmsd>  (37) 
7.581250300523875

>  <meeko>  (37) 
{"free_energy": -6.33, "intermolecular_energy": -8.72, "internal_energy": -3.76, "cluster_size": 21, "cluster_id": 8, "rank_in_cluster": 21}

>  <energy>  (37) 
-7.46

>  <cluster_rmsd>  (37) 
0.8

>  <cluster>  (37) 
8

$$$$

     RDKit          3D

 53 56  0  0  0  0  0  0  0  0999 V2000
  139.8870   74.2440  222.3280 O   0  0  0  0  0  0  0  0  0  0  0  0
  140.3980   75.1550  221.6140 C   0  0  0  0  0  0  0  0  0  0  0  0
  141.0580   74.8790  220.4040 N   0  0  0  0  0  0  0  0  0  0  0  0
  141.1790   73.5340  219.9280 C   0  0  0  0  0  0  0  0  0  0  0  0
  142.0140   72.7100  220.8530 C   0  0  0  0  0  0  0  0  0  0  0  0
  141.4410   72.2450  221.8570 O   0  0  0  0  0  0  0  0  0  0  0  0
  143.3680   72.5310  220.5120 N   0  0  0  0  0  0  0  0  0  0  0  0
  144.0690   71.2590  220.2590 C   0  0  0  0  0  0  0  0  0  0  0  0
  144.9500   71.6000  219.0760 C   0  0  2  0  0  0  0  0  0  0  0  0
  146.2440   71.1830  219.3400 O   0  0  0  0  0  0  0  0  0  0  0  0
  144.9290   73.1300  218.9710 C   0  0  0  0  0  0  0  0  0  0  0  0
  144.4330   73.5310  220.3190 C   0  0  1  0  0  0  0  0  0  0  0  0
  143.8760   74.9100  220.4400 C   0  0  0  0  0  0  0  0  0  0  0  0
  143.5050   75.5400  219.3220 O   0  0  0  0  0  0  0  0  0  0  0  0
  143.1130   76.6700  218.7640 C   0  0  0  0  0  0  0  0  0  0  0  0
  143.2780   76.7830  217.3630 C   0  0  0  0  0  0  0  0  0  0  0  0
  142.9200   77.8920  216.6640 C   0  0  0  0  0  0  0  0  0  0  0  0
  142.3720   78.9610  217.3240 C   0  0  0  0  0  0  0  0  0  0  0  0
  142.1860   78.9180  218.6710 C   0  0  0  0  0  0  0  0  0  0  0  0
  141.4790   80.2920  219.5310 Cl  0  0  0  0  0  0  0  0  0  0  0  0
  142.5560   77.7850  219.3560 C   0  0  0  0  0  0  0  0  0  0  0  0
  140.2930   76.5570  222.0750 C   0  0  0  0  0  0  0  0  0  0  0  0
  139.0610   77.1150  222.3450 C   0  0  0  0  0  0  0  0  0  0  0  0
  138.9820   78.4380  222.7780 C   0  0  0  0  0  0  0  0  0  0  0  0
  140.1640   79.1510  222.9220 C   0  0  0  0  0  0  0  0  0  0  0  0
  140.1250   80.4740  223.3530 C   0  0  0  0  0  0  0  0  0  0  0  0
  141.3130   81.1870  223.4970 C   0  0  0  0  0  0  0  0  0  0  0  0
  142.5440   80.6190  223.2240 C   0  0  0  0  0  0  0  0  0  0  0  0
  142.5790   79.3080  222.7970 C   0  0  0  0  0  0  0  0  0  0  0  0
  141.4000   78.5840  222.6500 C   0  0  0  0  0  0  0  0  0  0  0  0
  141.4070   77.3060  222.2360 N   0  0  0  0  0  0  0  0  0  0  0  0
  141.4590   75.7040  219.8660 H   0  0  0  0  0  0  0  0  0  0  0  0
  140.1765   73.0872  219.8545 H   0  0  0  0  0  0  0  0  0  0  0  0
  141.6660   73.5545  218.9419 H   0  0  0  0  0  0  0  0  0  0  0  0
  144.6708   70.9570  221.1288 H   0  0  0  0  0  0  0  0  0  0  0  0
  143.3902   70.4141  220.0711 H   0  0  0  0  0  0  0  0  0  0  0  0
  144.6030   71.1173  218.1505 H   0  0  0  0  0  0  0  0  0  0  0  0
  146.3080   71.1420  220.3450 H   0  0  0  0  0  0  0  0  0  0  0  0
  145.9356   73.5307  218.7809 H   0  0  0  0  0  0  0  0  0  0  0  0
  144.3114   73.5075  218.1427 H   0  0  0  0  0  0  0  0  0  0  0  0
  145.2479   73.5559  221.0575 H   0  0  0  0  0  0  0  0  0  0  0  0
  142.9902   74.8485  221.0893 H   0  0  0  0  0  0  0  0  0  0  0  0
  144.7131   75.5098  220.8266 H   0  0  0  0  0  0  0  0  0  0  0  0
  143.7156   75.9353  216.8154 H   0  0  0  0  0  0  0  0  0  0  0  0
  143.0691   77.9316  215.5749 H   0  0  0  0  0  0  0  0  0  0  0  0
  142.0806   79.8598  216.7607 H   0  0  0  0  0  0  0  0  0  0  0  0
  142.3981   77.7661  220.4444 H   0  0  0  0  0  0  0  0  0  0  0  0
  138.1450   76.5191  222.2193 H   0  0  0  0  0  0  0  0  0  0  0  0
  138.0102   78.9035  222.9992 H   0  0  0  0  0  0  0  0  0  0  0  0
  139.1613   80.9539  223.5787 H   0  0  0  0  0  0  0  0  0  0  0  0
  141.2708   82.2320  223.8377 H   0  0  0  0  0  0  0  0  0  0  0  0
  143.4715   81.1980  223.3443 H   0  0  0  0  0  0  0  0  0  0  0  0
  143.5447   78.8320  222.5713 H   0  0  0  0  0  0  0  0  0  0  0  0
  1  2  2  0
  2  3  1  0
  3  4  1  0
  4  5  1  0
  5  6  2  0
  5  7  1  0
  7  8  1  0
  8  9  1  0
  9 10  1  0
  9 11  1  0
 11 12  1  0
 12 13  1  0
 13 14  1  0
 14 15  1  0
 15 16  2  0
 16 17  1  0
 17 18  2  0
 18 19  1  0
 19 20  1  0
 19 21  2  0
  2 22  1  0
 22 23  2  0
 23 24  1  0
 24 25  2  0
 25 26  1  0
 26 27  2  0
 27 28  1  0
 28 29  2  0
 29 30  1  0
 30 31  2  0
 12  7  1  0
 21 15  1  0
 31 22  1  0
 30 25  1  0
  3 32  1  0
  4 33  1  0
  4 34  1  0
  8 35  1  0
  8 36  1  0
  9 37  1  6
 10 38  1  0
 11 39  1  0
 11 40  1  0
 12 41  1  1
 13 42  1  0
 13 43  1  0
 16 44  1  0
 17 45  1  0
 18 46  1  0
 21 47  1  0
 23 48  1  0
 24 49  1  0
 26 50  1  0
 27 51  1  0
 28 52  1  0
 29 53  1  0
M  END
>  <smiles>  (38) 
O=C(NCC(=O)N1C[C@H](O)C[C@H]1COc1cccc(Cl)c1)c1ccc2ccccc2n1

>  <score_type>  (38) 
oracle

>  <origin>  (38) 
autodockgpu

>  <m_score__min__energy>  (38) 
-9.2899999999999991

>  <m_primary>  (38) 
energy

>  <rmsd>  (38) 
7.597118673553273

>  <m_score__min__rmsd>  (38) 
7.597118673553273

>  <meeko>  (38) 
{"free_energy": -7.53, "intermolecular_energy": -9.92, "internal_energy": -2.95, "cluster_size": 21, "cluster_id": 8, "rank_in_cluster": 1}

>  <energy>  (38) 
-7.43

>  <cluster_rmsd>  (38) 
0.8

>  <cluster>  (38) 
8

$$$$

     RDKit          3D

 53 56  0  0  0  0  0  0  0  0999 V2000
  140.6340   71.4960  221.2500 O   0  0  0  0  0  0  0  0  0  0  0  0
  140.2490   72.1110  222.2870 C   0  0  0  0  0  0  0  0  0  0  0  0
  139.9160   73.4770  222.2680 N   0  0  0  0  0  0  0  0  0  0  0  0
  140.0050   74.2340  221.0570 C   0  0  0  0  0  0  0  0  0  0  0  0
  140.0940   75.6980  221.3430 C   0  0  0  0  0  0  0  0  0  0  0  0
  140.3200   76.0220  222.5250 O   0  0  0  0  0  0  0  0  0  0  0  0
  139.9150   76.5790  220.2610 N   0  0  0  0  0  0  0  0  0  0  0  0
  138.6460   77.1320  219.7540 C   0  0  0  0  0  0  0  0  0  0  0  0
  139.0140   78.5670  219.4440 C   0  0  2  0  0  0  0  0  0  0  0  0
  138.5820   78.8810  218.1660 O   0  0  0  0  0  0  0  0  0  0  0  0
  140.5470   78.6200  219.4800 C   0  0  0  0  0  0  0  0  0  0  0  0
  140.9140   77.1790  219.3580 C   0  0  1  0  0  0  0  0  0  0  0  0
  142.2930   76.8040  219.7880 C   0  0  0  0  0  0  0  0  0  0  0  0
  142.7140   75.5630  219.5330 O   0  0  0  0  0  0  0  0  0  0  0  0
  143.4880   74.5580  219.9000 C   0  0  0  0  0  0  0  0  0  0  0  0
  144.7430   74.8910  220.4660 C   0  0  0  0  0  0  0  0  0  0  0  0
  145.6360   73.9540  220.8840 C   0  0  0  0  0  0  0  0  0  0  0  0
  145.3300   72.6250  220.7620 C   0  0  0  0  0  0  0  0  0  0  0  0
  144.1410   72.2370  220.2260 C   0  0  0  0  0  0  0  0  0  0  0  0
  143.7370   70.5220  220.0650 Cl  0  0  0  0  0  0  0  0  0  0  0  0
  143.2540   73.2020  219.8110 C   0  0  0  0  0  0  0  0  0  0  0  0
  140.1450   71.3610  223.5570 C   0  0  0  0  0  0  0  0  0  0  0  0
  139.5980   70.0940  223.5810 C   0  0  0  0  0  0  0  0  0  0  0  0
  139.5100   69.4030  224.7890 C   0  0  0  0  0  0  0  0  0  0  0  0
  139.9820   70.0260  225.9350 C   0  0  0  0  0  0  0  0  0  0  0  0
  139.9090   69.3660  227.1590 C   0  0  0  0  0  0  0  0  0  0  0  0
  140.3840   69.9930  228.3090 C   0  0  0  0  0  0  0  0  0  0  0  0
  140.9310   71.2630  228.2750 C   0  0  0  0  0  0  0  0  0  0  0  0
  141.0010   71.9150  227.0610 C   0  0  0  0  0  0  0  0  0  0  0  0
  140.5300   71.2980  225.9050 C   0  0  0  0  0  0  0  0  0  0  0  0
  140.5870   71.9110  224.7110 N   0  0  0  0  0  0  0  0  0  0  0  0
  139.6010   73.9160  223.1840 H   0  0  0  0  0  0  0  0  0  0  0  0
  140.9022   73.9210  220.5028 H   0  0  0  0  0  0  0  0  0  0  0  0
  139.0987   74.0488  220.4618 H   0  0  0  0  0  0  0  0  0  0  0  0
  138.3151   76.6021  218.8486 H   0  0  0  0  0  0  0  0  0  0  0  0
  137.8116   77.0372  220.4645 H   0  0  0  0  0  0  0  0  0  0  0  0
  138.5587   79.2712  220.1559 H   0  0  0  0  0  0  0  0  0  0  0  0
  139.1390   79.6730  217.8870 H   0  0  0  0  0  0  0  0  0  0  0  0
  140.9459   79.2059  218.6388 H   0  0  0  0  0  0  0  0  0  0  0  0
  140.9515   79.1044  220.3810 H   0  0  0  0  0  0  0  0  0  0  0  0
  140.9136   76.8504  218.3082 H   0  0  0  0  0  0  0  0  0  0  0  0
  142.9898   77.4944  219.2902 H   0  0  0  0  0  0  0  0  0  0  0  0
  142.2638   76.8637  220.8860 H   0  0  0  0  0  0  0  0  0  0  0  0
  145.0069   75.9536  220.5721 H   0  0  0  0  0  0  0  0  0  0  0  0
  146.5988   74.2623  221.3177 H   0  0  0  0  0  0  0  0  0  0  0  0
  146.0505   71.8655  221.0997 H   0  0  0  0  0  0  0  0  0  0  0  0
  142.2971   72.8715  219.3808 H   0  0  0  0  0  0  0  0  0  0  0  0
  139.2333   69.6317  222.6519 H   0  0  0  0  0  0  0  0  0  0  0  0
  139.0783   68.3921  224.8320 H   0  0  0  0  0  0  0  0  0  0  0  0
  139.4787   68.3553  227.2176 H   0  0  0  0  0  0  0  0  0  0  0  0
  140.3223   69.4631  229.2710 H   0  0  0  0  0  0  0  0  0  0  0  0
  141.3012   71.7416  229.1936 H   0  0  0  0  0  0  0  0  0  0  0  0
  141.4306   72.9262  227.0062 H   0  0  0  0  0  0  0  0  0  0  0  0
  1  2  2  0
  2  3  1  0
  3  4  1  0
  4  5  1  0
  5  6  2  0
  5  7  1  0
  7  8  1  0
  8  9  1  0
  9 10  1  0
  9 11  1  0
 11 12  1  0
 12 13  1  0
 13 14  1  0
 14 15  1  0
 15 16  2  0
 16 17  1  0
 17 18  2  0
 18 19  1  0
 19 20  1  0
 19 21  2  0
  2 22  1  0
 22 23  2  0
 23 24  1  0
 24 25  2  0
 25 26  1  0
 26 27  2  0
 27 28  1  0
 28 29  2  0
 29 30  1  0
 30 31  2  0
 12  7  1  0
 21 15  1  0
 31 22  1  0
 30 25  1  0
  3 32  1  0
  4 33  1  0
  4 34  1  0
  8 35  1  0
  8 36  1  0
  9 37  1  1
 10 38  1  0
 11 39  1  0
 11 40  1  0
 12 41  1  6
 13 42  1  0
 13 43  1  0
 16 44  1  0
 17 45  1  0
 18 46  1  0
 21 47  1  0
 23 48  1  0
 24 49  1  0
 26 50  1  0
 27 51  1  0
 28 52  1  0
 29 53  1  0
M  END
>  <smiles>  (39) 
O=C(NCC(=O)N1C[C@H](O)C[C@H]1COc1cccc(Cl)c1)c1ccc2ccccc2n1

>  <score_type>  (39) 
oracle

>  <origin>  (39) 
autodockgpu

>  <m_score__min__energy>  (39) 
-9.2899999999999991

>  <m_primary>  (39) 
energy

>  <rmsd>  (39) 
1.8863185680536747

>  <m_score__min__rmsd>  (39) 
1.8863185680536747

>  <meeko>  (39) 
{"free_energy": -7.48, "intermolecular_energy": -9.86, "internal_energy": -2.38, "cluster_size": 4, "cluster_id": 5, "rank_in_cluster": 4}

>  <energy>  (39) 
-7.42

>  <cluster_rmsd>  (39) 
0.8

>  <cluster>  (39) 
8

$$$$

     RDKit          3D

 53 56  0  0  0  0  0  0  0  0999 V2000
  139.1080   74.8170  222.1380 O   0  0  0  0  0  0  0  0  0  0  0  0
  140.2080   75.4290  222.0080 C   0  0  0  0  0  0  0  0  0  0  0  0
  141.3830   74.7800  221.5910 N   0  0  0  0  0  0  0  0  0  0  0  0
  141.3790   73.3800  221.2950 C   0  0  0  0  0  0  0  0  0  0  0  0
  142.0460   73.1050  219.9870 C   0  0  0  0  0  0  0  0  0  0  0  0
  141.3380   73.2080  218.9670 O   0  0  0  0  0  0  0  0  0  0  0  0
  143.4080   72.7530  220.0190 N   0  0  0  0  0  0  0  0  0  0  0  0
  143.9980   71.4230  219.7790 C   0  0  0  0  0  0  0  0  0  0  0  0
  145.2280   71.7530  218.9610 C   0  0  2  0  0  0  0  0  0  0  0  0
  146.3240   71.1090  219.5110 O   0  0  0  0  0  0  0  0  0  0  0  0
  145.4210   73.2690  219.0940 C   0  0  0  0  0  0  0  0  0  0  0  0
  144.5920   73.5870  220.2920 C   0  0  1  0  0  0  0  0  0  0  0  0
  144.1910   75.0140  220.4650 C   0  0  0  0  0  0  0  0  0  0  0  0
  143.3320   75.5370  219.5860 O   0  0  0  0  0  0  0  0  0  0  0  0
  142.4610   76.4930  219.3220 C   0  0  0  0  0  0  0  0  0  0  0  0
  141.2360   76.0970  218.7320 C   0  0  0  0  0  0  0  0  0  0  0  0
  140.2540   76.9790  218.4070 C   0  0  0  0  0  0  0  0  0  0  0  0
  140.4350   78.3140  218.6520 C   0  0  0  0  0  0  0  0  0  0  0  0
  141.5890   78.7620  219.2170 C   0  0  0  0  0  0  0  0  0  0  0  0
  141.8310   80.4850  219.5370 Cl  0  0  0  0  0  0  0  0  0  0  0  0
  142.5670   77.8510  219.5370 C   0  0  0  0  0  0  0  0  0  0  0  0
  140.2510   76.8780  222.3050 C   0  0  0  0  0  0  0  0  0  0  0  0
  139.0870   77.6180  222.3530 C   0  0  0  0  0  0  0  0  0  0  0  0
  139.1490   78.9820  222.6350 C   0  0  0  0  0  0  0  0  0  0  0  0
  140.3950   79.5490  222.8590 C   0  0  0  0  0  0  0  0  0  0  0  0
  140.4950   80.9090  223.1430 C   0  0  0  0  0  0  0  0  0  0  0  0
  141.7470   81.4750  223.3680 C   0  0  0  0  0  0  0  0  0  0  0  0
  142.9090   80.7250  223.3180 C   0  0  0  0  0  0  0  0  0  0  0  0
  142.8060   79.3780  223.0350 C   0  0  0  0  0  0  0  0  0  0  0  0
  141.5610   78.8000  222.8100 C   0  0  0  0  0  0  0  0  0  0  0  0
  141.4340   77.4910  222.5330 N   0  0  0  0  0  0  0  0  0  0  0  0
  142.2640   75.3700  221.5070 H   0  0  0  0  0  0  0  0  0  0  0  0
  141.9148   72.8429  222.0915 H   0  0  0  0  0  0  0  0  0  0  0  0
  140.3350   73.0389  221.2334 H   0  0  0  0  0  0  0  0  0  0  0  0
  144.2698   70.9321  220.7251 H   0  0  0  0  0  0  0  0  0  0  0  0
  143.3129   70.7233  219.2779 H   0  0  0  0  0  0  0  0  0  0  0  0
  145.1210   71.4403  217.9118 H   0  0  0  0  0  0  0  0  0  0  0  0
  146.2690   71.2940  220.5010 H   0  0  0  0  0  0  0  0  0  0  0  0
  146.4780   73.5235  219.2612 H   0  0  0  0  0  0  0  0  0  0  0  0
  145.1319   73.8320  218.1943 H   0  0  0  0  0  0  0  0  0  0  0  0
  145.1436   73.3978  221.2247 H   0  0  0  0  0  0  0  0  0  0  0  0
  143.7353   75.1067  221.4618 H   0  0  0  0  0  0  0  0  0  0  0  0
  145.1210   75.5804  220.3091 H   0  0  0  0  0  0  0  0  0  0  0  0
  141.0719   75.0287  218.5277 H   0  0  0  0  0  0  0  0  0  0  0  0
  139.3193   76.6223  217.9498 H   0  0  0  0  0  0  0  0  0  0  0  0
  139.6417   79.0296  218.3901 H   0  0  0  0  0  0  0  0  0  0  0  0
  143.4934   78.2292  219.9938 H   0  0  0  0  0  0  0  0  0  0  0  0
  138.1161   77.1345  222.1699 H   0  0  0  0  0  0  0  0  0  0  0  0
  138.2347   79.5920  222.6787 H   0  0  0  0  0  0  0  0  0  0  0  0
  139.5898   81.5323  223.1893 H   0  0  0  0  0  0  0  0  0  0  0  0
  141.8145   82.5498  223.5921 H   0  0  0  0  0  0  0  0  0  0  0  0
  143.8892   81.1903  223.4991 H   0  0  0  0  0  0  0  0  0  0  0  0
  143.7135   78.7582  222.9872 H   0  0  0  0  0  0  0  0  0  0  0  0
  1  2  2  0
  2  3  1  0
  3  4  1  0
  4  5  1  0
  5  6  2  0
  5  7  1  0
  7  8  1  0
  8  9  1  0
  9 10  1  0
  9 11  1  0
 11 12  1  0
 12 13  1  0
 13 14  1  0
 14 15  1  0
 15 16  2  0
 16 17  1  0
 17 18  2  0
 18 19  1  0
 19 20  1  0
 19 21  2  0
  2 22  1  0
 22 23  2  0
 23 24  1  0
 24 25  2  0
 25 26  1  0
 26 27  2  0
 27 28  1  0
 28 29  2  0
 29 30  1  0
 30 31  2  0
 12  7  1  0
 21 15  1  0
 31 22  1  0
 30 25  1  0
  3 32  1  0
  4 33  1  0
  4 34  1  0
  8 35  1  0
  8 36  1  0
  9 37  1  6
 10 38  1  0
 11 39  1  0
 11 40  1  0
 12 41  1  1
 13 42  1  0
 13 43  1  0
 16 44  1  0
 17 45  1  0
 18 46  1  0
 21 47  1  0
 23 48  1  0
 24 49  1  0
 26 50  1  0
 27 51  1  0
 28 52  1  0
 29 53  1  0
M  END
>  <smiles>  (40) 
O=C(NCC(=O)N1C[C@H](O)C[C@H]1COc1cccc(Cl)c1)c1ccc2ccccc2n1

>  <score_type>  (40) 
oracle

>  <origin>  (40) 
autodockgpu

>  <m_score__min__energy>  (40) 
-9.2899999999999991

>  <m_primary>  (40) 
energy

>  <rmsd>  (40) 
7.7967411911257845

>  <m_score__min__rmsd>  (40) 
7.7967411911257845

>  <meeko>  (40) 
{"free_energy": -6.66, "intermolecular_energy": -9.05, "internal_energy": -3.89, "cluster_size": 21, "cluster_id": 8, "rank_in_cluster": 20}

>  <energy>  (40) 
-7.36

>  <cluster_rmsd>  (40) 
0.8

>  <cluster>  (40) 
8

$$$$

     RDKit          3D

 53 56  0  0  0  0  0  0  0  0999 V2000
  139.4280   71.1410  221.2580 O   0  0  0  0  0  0  0  0  0  0  0  0
  139.6480   71.8550  222.2790 C   0  0  0  0  0  0  0  0  0  0  0  0
  139.7080   73.2580  222.2140 N   0  0  0  0  0  0  0  0  0  0  0  0
  139.5210   73.9410  220.9700 C   0  0  0  0  0  0  0  0  0  0  0  0
  140.5370   73.5120  219.9630 C   0  0  0  0  0  0  0  0  0  0  0  0
  140.1000   73.0770  218.8800 O   0  0  0  0  0  0  0  0  0  0  0  0
  141.8920   73.6330  220.3220 N   0  0  0  0  0  0  0  0  0  0  0  0
  142.6910   72.7010  221.1380 C   0  0  0  0  0  0  0  0  0  0  0  0
  144.0180   72.6820  220.4090 C   0  0  2  0  0  0  0  0  0  0  0  0
  145.0400   72.8860  221.3220 O   0  0  0  0  0  0  0  0  0  0  0  0
  143.9740   73.8660  219.4350 C   0  0  0  0  0  0  0  0  0  0  0  0
  142.8640   74.6910  219.9940 C   0  0  1  0  0  0  0  0  0  0  0  0
  142.2490   75.6920  219.0730 C   0  0  0  0  0  0  0  0  0  0  0  0
  141.8290   76.8480  219.5920 O   0  0  0  0  0  0  0  0  0  0  0  0
  141.5940   77.5530  220.6830 C   0  0  0  0  0  0  0  0  0  0  0  0
  141.0500   76.8570  221.7890 C   0  0  0  0  0  0  0  0  0  0  0  0
  140.7580   77.4620  222.9710 C   0  0  0  0  0  0  0  0  0  0  0  0
  140.9940   78.8020  223.1220 C   0  0  0  0  0  0  0  0  0  0  0  0
  141.5150   79.5310  222.0980 C   0  0  0  0  0  0  0  0  0  0  0  0
  141.8230   81.2630  222.2840 Cl  0  0  0  0  0  0  0  0  0  0  0  0
  141.8020   78.8970  220.9130 C   0  0  0  0  0  0  0  0  0  0  0  0
  139.8470   71.1840  223.5820 C   0  0  0  0  0  0  0  0  0  0  0  0
  139.5330   69.8490  223.7380 C   0  0  0  0  0  0  0  0  0  0  0  0
  139.7280   69.2350  224.9750 C   0  0  0  0  0  0  0  0  0  0  0  0
  140.2380   70.0010  226.0130 C   0  0  0  0  0  0  0  0  0  0  0  0
  140.4450   69.4210  227.2620 C   0  0  0  0  0  0  0  0  0  0  0  0
  140.9570   70.1920  228.3030 C   0  0  0  0  0  0  0  0  0  0  0  0
  141.2690   71.5290  228.1370 C   0  0  0  0  0  0  0  0  0  0  0  0
  141.0610   72.1010  226.8990 C   0  0  0  0  0  0  0  0  0  0  0  0
  140.5510   71.3410  225.8500 C   0  0  0  0  0  0  0  0  0  0  0  0
  140.3410   71.8740  224.6350 N   0  0  0  0  0  0  0  0  0  0  0  0
  139.8980   73.7820  223.1200 H   0  0  0  0  0  0  0  0  0  0  0  0
  138.5157   73.7161  220.5843 H   0  0  0  0  0  0  0  0  0  0  0  0
  139.6358   75.0211  221.1438 H   0  0  0  0  0  0  0  0  0  0  0  0
  142.8078   73.0730  222.1666 H   0  0  0  0  0  0  0  0  0  0  0  0
  142.2334   71.7061  221.2418 H   0  0  0  0  0  0  0  0  0  0  0  0
  144.1897   71.7269  219.8910 H   0  0  0  0  0  0  0  0  0  0  0  0
  145.3320   71.9630  221.6010 H   0  0  0  0  0  0  0  0  0  0  0  0
  144.9239   74.4206  219.4378 H   0  0  0  0  0  0  0  0  0  0  0  0
  143.8206   73.5705  218.3866 H   0  0  0  0  0  0  0  0  0  0  0  0
  143.2140   75.3327  220.8160 H   0  0  0  0  0  0  0  0  0  0  0  0
  142.9980   75.9320  218.3040 H   0  0  0  0  0  0  0  0  0  0  0  0
  141.3316   75.2045  218.7115 H   0  0  0  0  0  0  0  0  0  0  0  0
  140.8549   75.7792  221.6877 H   0  0  0  0  0  0  0  0  0  0  0  0
  140.3344   76.8780  223.8014 H   0  0  0  0  0  0  0  0  0  0  0  0
  140.7607   79.2930  224.0783 H   0  0  0  0  0  0  0  0  0  0  0  0
  142.2246   79.4999  220.0957 H   0  0  0  0  0  0  0  0  0  0  0  0
  139.1313   69.2727  222.8916 H   0  0  0  0  0  0  0  0  0  0  0  0
  139.4841   68.1727  225.1234 H   0  0  0  0  0  0  0  0  0  0  0  0
  140.2055   68.3599  227.4256 H   0  0  0  0  0  0  0  0  0  0  0  0
  141.1178   69.7239  229.2854 H   0  0  0  0  0  0  0  0  0  0  0  0
  141.6729   72.1215  228.9712 H   0  0  0  0  0  0  0  0  0  0  0  0
  141.2994   73.1630  226.7399 H   0  0  0  0  0  0  0  0  0  0  0  0
  1  2  2  0
  2  3  1  0
  3  4  1  0
  4  5  1  0
  5  6  2  0
  5  7  1  0
  7  8  1  0
  8  9  1  0
  9 10  1  0
  9 11  1  0
 11 12  1  0
 12 13  1  0
 13 14  1  0
 14 15  1  0
 15 16  2  0
 16 17  1  0
 17 18  2  0
 18 19  1  0
 19 20  1  0
 19 21  2  0
  2 22  1  0
 22 23  2  0
 23 24  1  0
 24 25  2  0
 25 26  1  0
 26 27  2  0
 27 28  1  0
 28 29  2  0
 29 30  1  0
 30 31  2  0
 12  7  1  0
 21 15  1  0
 31 22  1  0
 30 25  1  0
  3 32  1  0
  4 33  1  0
  4 34  1  0
  8 35  1  0
  8 36  1  0
  9 37  1  6
 10 38  1  0
 11 39  1  0
 11 40  1  0
 12 41  1  1
 13 42  1  0
 13 43  1  0
 16 44  1  0
 17 45  1  0
 18 46  1  0
 21 47  1  0
 23 48  1  0
 24 49  1  0
 26 50  1  0
 27 51  1  0
 28 52  1  0
 29 53  1  0
M  END
>  <smiles>  (41) 
O=C(NCC(=O)N1C[C@H](O)C[C@H]1COc1cccc(Cl)c1)c1ccc2ccccc2n1

>  <score_type>  (41) 
oracle

>  <origin>  (41) 
autodockgpu

>  <m_score__min__energy>  (41) 
-9.2899999999999991

>  <m_primary>  (41) 
energy

>  <rmsd>  (41) 
2.963716837658041

>  <m_score__min__rmsd>  (41) 
2.963716837658041

>  <meeko>  (41) 
{"free_energy": -8.07, "intermolecular_energy": -10.45, "internal_energy": -2.02, "cluster_size": 17, "cluster_id": 1, "rank_in_cluster": 17}

>  <energy>  (41) 
-7.29

>  <cluster_rmsd>  (41) 
1.27

>  <cluster>  (41) 
8

$$$$

     RDKit          3D

 53 56  0  0  0  0  0  0  0  0999 V2000
  139.7800   71.1750  221.3040 O   0  0  0  0  0  0  0  0  0  0  0  0
  139.2400   71.7300  222.3050 C   0  0  0  0  0  0  0  0  0  0  0  0
  138.4110   72.8580  222.1800 N   0  0  0  0  0  0  0  0  0  0  0  0
  138.1450   73.4310  220.8960 C   0  0  0  0  0  0  0  0  0  0  0  0
  139.1910   74.4320  220.5260 C   0  0  0  0  0  0  0  0  0  0  0  0
  139.6660   74.3440  219.3780 O   0  0  0  0  0  0  0  0  0  0  0  0
  139.5480   75.3820  221.5010 N   0  0  0  0  0  0  0  0  0  0  0  0
  140.9050   75.8300  221.8630 C   0  0  0  0  0  0  0  0  0  0  0  0
  140.7190   77.3200  222.0530 C   0  0  2  0  0  0  0  0  0  0  0  0
  141.2820   77.6970  223.2610 O   0  0  0  0  0  0  0  0  0  0  0  0
  139.2020   77.5440  222.1170 C   0  0  0  0  0  0  0  0  0  0  0  0
  138.6940   76.1720  222.4060 C   0  0  1  0  0  0  0  0  0  0  0  0
  137.2530   75.9200  222.1110 C   0  0  0  0  0  0  0  0  0  0  0  0
  136.6350   74.9460  222.7840 O   0  0  0  0  0  0  0  0  0  0  0  0
  135.8230   74.6270  223.7750 C   0  0  0  0  0  0  0  0  0  0  0  0
  135.5210   73.2530  223.9360 C   0  0  0  0  0  0  0  0  0  0  0  0
  134.6980   72.7890  224.9140 C   0  0  0  0  0  0  0  0  0  0  0  0
  134.1260   73.6700  225.7930 C   0  0  0  0  0  0  0  0  0  0  0  0
  134.3750   75.0030  225.6930 C   0  0  0  0  0  0  0  0  0  0  0  0
  133.6410   76.1480  226.8240 Cl  0  0  0  0  0  0  0  0  0  0  0  0
  135.2100   75.4490  224.6970 C   0  0  0  0  0  0  0  0  0  0  0  0
  139.4930   71.1660  223.6490 C   0  0  0  0  0  0  0  0  0  0  0  0
  139.0610   69.8950  223.9680 C   0  0  0  0  0  0  0  0  0  0  0  0
  139.3090   69.3810  225.2400 C   0  0  0  0  0  0  0  0  0  0  0  0
  139.9900   70.1800  226.1470 C   0  0  0  0  0  0  0  0  0  0  0  0
  140.2560   69.7000  227.4270 C   0  0  0  0  0  0  0  0  0  0  0  0
  140.9400   70.5030  228.3360 C   0  0  0  0  0  0  0  0  0  0  0  0
  141.3700   71.7760  228.0070 C   0  0  0  0  0  0  0  0  0  0  0  0
  141.1040   72.2490  226.7380 C   0  0  0  0  0  0  0  0  0  0  0  0
  140.4220   71.4560  225.8210 C   0  0  0  0  0  0  0  0  0  0  0  0
  140.1520   71.8930  224.5790 N   0  0  0  0  0  0  0  0  0  0  0  0
  137.9980   73.2630  223.0720 H   0  0  0  0  0  0  0  0  0  0  0  0
  138.1309   72.6307  220.1415 H   0  0  0  0  0  0  0  0  0  0  0  0
  137.1716   73.9418  220.9364 H   0  0  0  0  0  0  0  0  0  0  0  0
  141.2472   75.3506  222.7920 H   0  0  0  0  0  0  0  0  0  0  0  0
  141.6658   75.5758  221.1103 H   0  0  0  0  0  0  0  0  0  0  0  0
  141.1893   77.9002  221.2454 H   0  0  0  0  0  0  0  0  0  0  0  0
  142.2750   77.5800  223.1370 H   0  0  0  0  0  0  0  0  0  0  0  0
  138.9358   78.2457  222.9213 H   0  0  0  0  0  0  0  0  0  0  0  0
  138.7817   77.9874  221.2022 H   0  0  0  0  0  0  0  0  0  0  0  0
  138.7427   75.9421  223.4806 H   0  0  0  0  0  0  0  0  0  0  0  0
  136.7094   76.8542  222.3153 H   0  0  0  0  0  0  0  0  0  0  0  0
  137.2428   75.5795  221.0651 H   0  0  0  0  0  0  0  0  0  0  0  0
  135.9715   72.5299  223.2401 H   0  0  0  0  0  0  0  0  0  0  0  0
  134.4927   71.7117  224.9988 H   0  0  0  0  0  0  0  0  0  0  0  0
  133.4606   73.2966  226.5853 H   0  0  0  0  0  0  0  0  0  0  0  0
  135.4016   76.5302  224.6310 H   0  0  0  0  0  0  0  0  0  0  0  0
  138.5237   69.2904  223.2225 H   0  0  0  0  0  0  0  0  0  0  0  0
  138.9742   68.3704  225.5167 H   0  0  0  0  0  0  0  0  0  0  0  0
  139.9274   68.6915  227.7185 H   0  0  0  0  0  0  0  0  0  0  0  0
  141.1443   70.1140  229.3444 H   0  0  0  0  0  0  0  0  0  0  0  0
  141.9101   72.3955  228.7381 H   0  0  0  0  0  0  0  0  0  0  0  0
  141.4331   73.2584  226.4503 H   0  0  0  0  0  0  0  0  0  0  0  0
  1  2  2  0
  2  3  1  0
  3  4  1  0
  4  5  1  0
  5  6  2  0
  5  7  1  0
  7  8  1  0
  8  9  1  0
  9 10  1  0
  9 11  1  0
 11 12  1  0
 12 13  1  0
 13 14  1  0
 14 15  1  0
 15 16  2  0
 16 17  1  0
 17 18  2  0
 18 19  1  0
 19 20  1  0
 19 21  2  0
  2 22  1  0
 22 23  2  0
 23 24  1  0
 24 25  2  0
 25 26  1  0
 26 27  2  0
 27 28  1  0
 28 29  2  0
 29 30  1  0
 30 31  2  0
 12  7  1  0
 21 15  1  0
 31 22  1  0
 30 25  1  0
  3 32  1  0
  4 33  1  0
  4 34  1  0
  8 35  1  0
  8 36  1  0
  9 37  1  6
 10 38  1  0
 11 39  1  0
 11 40  1  0
 12 41  1  1
 13 42  1  0
 13 43  1  0
 16 44  1  0
 17 45  1  0
 18 46  1  0
 21 47  1  0
 23 48  1  0
 24 49  1  0
 26 50  1  0
 27 51  1  0
 28 52  1  0
 29 53  1  0
M  END
>  <smiles>  (42) 
O=C(NCC(=O)N1C[C@H](O)C[C@H]1COc1cccc(Cl)c1)c1ccc2ccccc2n1

>  <score_type>  (42) 
oracle

>  <origin>  (42) 
autodockgpu

>  <m_score__min__energy>  (42) 
-9.2899999999999991

>  <m_primary>  (42) 
energy

>  <rmsd>  (42) 
2.607123857267906

>  <m_score__min__rmsd>  (42) 
2.607123857267906

>  <meeko>  (42) 
{"free_energy": -7.68, "intermolecular_energy": -10.06, "internal_energy": -2.24, "cluster_size": 2, "cluster_id": 6, "rank_in_cluster": 1}

>  <energy>  (42) 
-6.96

>  <cluster_rmsd>  (42) 
1.38

>  <cluster>  (42) 
8

$$$$

     RDKit          3D

 53 56  0  0  0  0  0  0  0  0999 V2000
  139.9080   71.1470  221.2070 O   0  0  0  0  0  0  0  0  0  0  0  0
  139.8810   71.8470  222.2600 C   0  0  0  0  0  0  0  0  0  0  0  0
  139.7940   73.2500  222.2260 N   0  0  0  0  0  0  0  0  0  0  0  0
  139.7350   73.9480  220.9790 C   0  0  0  0  0  0  0  0  0  0  0  0
  140.7990   73.4720  220.0440 C   0  0  0  0  0  0  0  0  0  0  0  0
  140.4150   72.9650  218.9730 O   0  0  0  0  0  0  0  0  0  0  0  0
  142.1360   73.6350  220.4530 N   0  0  0  0  0  0  0  0  0  0  0  0
  143.1000   72.5780  220.8090 C   0  0  0  0  0  0  0  0  0  0  0  0
  144.3810   73.0760  220.1740 C   0  0  2  0  0  0  0  0  0  0  0  0
  145.4010   73.0260  221.1100 O   0  0  0  0  0  0  0  0  0  0  0  0
  144.1180   74.5410  219.8000 C   0  0  0  0  0  0  0  0  0  0  0  0
  142.9240   74.8670  220.6330 C   0  0  1  0  0  0  0  0  0  0  0  0
  142.1270   76.0580  220.2160 C   0  0  0  0  0  0  0  0  0  0  0  0
  141.2840   76.5920  221.1030 O   0  0  0  0  0  0  0  0  0  0  0  0
  141.0110   77.6080  221.9000 C   0  0  0  0  0  0  0  0  0  0  0  0
  139.6680   77.7410  222.3300 C   0  0  0  0  0  0  0  0  0  0  0  0
  139.2520   78.7420  223.1500 C   0  0  0  0  0  0  0  0  0  0  0  0
  140.1520   79.6750  223.5910 C   0  0  0  0  0  0  0  0  0  0  0  0
  141.4570   79.6050  223.2150 C   0  0  0  0  0  0  0  0  0  0  0  0
  142.6280   80.8050  223.7810 Cl  0  0  0  0  0  0  0  0  0  0  0  0
  141.8550   78.5840  222.3870 C   0  0  0  0  0  0  0  0  0  0  0  0
  139.9420   71.1600  223.5690 C   0  0  0  0  0  0  0  0  0  0  0  0
  139.4880   69.8630  223.7010 C   0  0  0  0  0  0  0  0  0  0  0  0
  139.5540   69.2330  224.9430 C   0  0  0  0  0  0  0  0  0  0  0  0
  140.0800   69.9440  226.0110 C   0  0  0  0  0  0  0  0  0  0  0  0
  140.1610   69.3460  227.2660 C   0  0  0  0  0  0  0  0  0  0  0  0
  140.6900   70.0630  228.3370 C   0  0  0  0  0  0  0  0  0  0  0  0
  141.1430   71.3620  228.1950 C   0  0  0  0  0  0  0  0  0  0  0  0
  141.0600   71.9520  226.9510 C   0  0  0  0  0  0  0  0  0  0  0  0
  140.5340   71.2460  225.8720 C   0  0  0  0  0  0  0  0  0  0  0  0
  140.4440   71.7970  224.6500 N   0  0  0  0  0  0  0  0  0  0  0  0
  139.7770   73.7620  223.1580 H   0  0  0  0  0  0  0  0  0  0  0  0
  138.7504   73.7783  220.5188 H   0  0  0  0  0  0  0  0  0  0  0  0
  139.8931   75.0195  221.1711 H   0  0  0  0  0  0  0  0  0  0  0  0
  143.2061   72.4877  221.9002 H   0  0  0  0  0  0  0  0  0  0  0  0
  142.8003   71.5770  220.4652 H   0  0  0  0  0  0  0  0  0  0  0  0
  144.6692   72.4716  219.3012 H   0  0  0  0  0  0  0  0  0  0  0  0
  145.3340   72.1080  221.5230 H   0  0  0  0  0  0  0  0  0  0  0  0
  144.9742   75.1799  220.0622 H   0  0  0  0  0  0  0  0  0  0  0  0
  143.9633   74.7018  218.7229 H   0  0  0  0  0  0  0  0  0  0  0  0
  143.2109   75.1413  221.6589 H   0  0  0  0  0  0  0  0  0  0  0  0
  142.8406   76.8444  219.9289 H   0  0  0  0  0  0  0  0  0  0  0  0
  141.4771   75.6844  219.4110 H   0  0  0  0  0  0  0  0  0  0  0  0
  138.9296   77.0021  221.9854 H   0  0  0  0  0  0  0  0  0  0  0  0
  138.1977   78.8023  223.4578 H   0  0  0  0  0  0  0  0  0  0  0  0
  139.8172   80.4865  224.2538 H   0  0  0  0  0  0  0  0  0  0  0  0
  142.9143   78.5421  222.0936 H   0  0  0  0  0  0  0  0  0  0  0  0
  139.0766   69.3297  222.8313 H   0  0  0  0  0  0  0  0  0  0  0  0
  139.1985   68.2001  225.0722 H   0  0  0  0  0  0  0  0  0  0  0  0
  139.8094   68.3138  227.4109 H   0  0  0  0  0  0  0  0  0  0  0  0
  140.7491   69.5819  229.3244 H   0  0  0  0  0  0  0  0  0  0  0  0
  141.5591   71.9109  229.0527 H   0  0  0  0  0  0  0  0  0  0  0  0
  141.4109   72.9850  226.8106 H   0  0  0  0  0  0  0  0  0  0  0  0
  1  2  2  0
  2  3  1  0
  3  4  1  0
  4  5  1  0
  5  6  2  0
  5  7  1  0
  7  8  1  0
  8  9  1  0
  9 10  1  0
  9 11  1  0
 11 12  1  0
 12 13  1  0
 13 14  1  0
 14 15  1  0
 15 16  2  0
 16 17  1  0
 17 18  2  0
 18 19  1  0
 19 20  1  0
 19 21  2  0
  2 22  1  0
 22 23  2  0
 23 24  1  0
 24 25  2  0
 25 26  1  0
 26 27  2  0
 27 28  1  0
 28 29  2  0
 29 30  1  0
 30 31  2  0
 12  7  1  0
 21 15  1  0
 31 22  1  0
 30 25  1  0
  3 32  1  0
  4 33  1  0
  4 34  1  0
  8 35  1  0
  8 36  1  0
  9 37  1  6
 10 38  1  0
 11 39  1  0
 11 40  1  0
 12 41  1  1
 13 42  1  0
 13 43  1  0
 16 44  1  0
 17 45  1  0
 18 46  1  0
 21 47  1  0
 23 48  1  0
 24 49  1  0
 26 50  1  0
 27 51  1  0
 28 52  1  0
 29 53  1  0
M  END
>  <smiles>  (43) 
O=C(NCC(=O)N1C[C@H](O)C[C@H]1COc1cccc(Cl)c1)c1ccc2ccccc2n1

>  <score_type>  (43) 
oracle

>  <origin>  (43) 
autodockgpu

>  <m_score__min__energy>  (43) 
-9.2899999999999991

>  <m_primary>  (43) 
energy

>  <rmsd>  (43) 
2.9096175280733085

>  <m_score__min__rmsd>  (43) 
2.9096175280733085

>  <meeko>  (43) 
{"free_energy": -8.99, "intermolecular_energy": -11.38, "internal_energy": -1.7, "cluster_size": 17, "cluster_id": 1, "rank_in_cluster": 5}

>  <energy>  (43) 
-6.91

>  <cluster_rmsd>  (43) 
1.42

>  <cluster>  (43) 
8

$$$$

     RDKit          3D

 53 56  0  0  0  0  0  0  0  0999 V2000
  137.9080   69.5980  222.0120 O   0  0  0  0  0  0  0  0  0  0  0  0
  138.2380   70.4050  222.9290 C   0  0  0  0  0  0  0  0  0  0  0  0
  138.0450   71.7920  222.8140 N   0  0  0  0  0  0  0  0  0  0  0  0
  137.4590   72.3530  221.6340 C   0  0  0  0  0  0  0  0  0  0  0  0
  137.5840   73.8420  221.6280 C   0  0  0  0  0  0  0  0  0  0  0  0
  136.5220   74.4890  221.5520 O   0  0  0  0  0  0  0  0  0  0  0  0
  138.8810   74.3810  221.7060 N   0  0  0  0  0  0  0  0  0  0  0  0
  140.1520   73.7120  221.3730 C   0  0  0  0  0  0  0  0  0  0  0  0
  140.9220   74.8070  220.6660 C   0  0  2  0  0  0  0  0  0  0  0  0
  142.1910   74.8960  221.2150 O   0  0  0  0  0  0  0  0  0  0  0  0
  140.1600   76.1070  220.9570 C   0  0  0  0  0  0  0  0  0  0  0  0
  139.3220   75.7220  222.1300 C   0  0  1  0  0  0  0  0  0  0  0  0
  138.1410   76.5880  222.4170 C   0  0  0  0  0  0  0  0  0  0  0  0
  138.3540   77.7630  223.0150 O   0  0  0  0  0  0  0  0  0  0  0  0
  139.1210   78.8330  223.1140 C   0  0  0  0  0  0  0  0  0  0  0  0
  138.4670   80.0710  223.3250 C   0  0  0  0  0  0  0  0  0  0  0  0
  139.1360   81.2490  223.4430 C   0  0  0  0  0  0  0  0  0  0  0  0
  140.5030   81.2620  223.3570 C   0  0  0  0  0  0  0  0  0  0  0  0
  141.1930   80.1070  223.1550 C   0  0  0  0  0  0  0  0  0  0  0  0
  142.9590   80.1150  223.0440 Cl  0  0  0  0  0  0  0  0  0  0  0  0
  140.4950   78.9290  223.0400 C   0  0  0  0  0  0  0  0  0  0  0  0
  138.8470   69.8610  224.1630 C   0  0  0  0  0  0  0  0  0  0  0  0
  138.8730   68.5010  224.3910 C   0  0  0  0  0  0  0  0  0  0  0  0
  139.4520   68.0080  225.5600 C   0  0  0  0  0  0  0  0  0  0  0  0
  139.9870   68.9190  226.4600 C   0  0  0  0  0  0  0  0  0  0  0  0
  140.5730   68.4640  227.6380 C   0  0  0  0  0  0  0  0  0  0  0  0
  141.1090   69.3800  228.5400 C   0  0  0  0  0  0  0  0  0  0  0  0
  141.0780   70.7430  228.3020 C   0  0  0  0  0  0  0  0  0  0  0  0
  140.4960   71.1910  227.1340 C   0  0  0  0  0  0  0  0  0  0  0  0
  139.9580   70.2850  226.2250 C   0  0  0  0  0  0  0  0  0  0  0  0
  139.3860   70.6960  225.0800 N   0  0  0  0  0  0  0  0  0  0  0  0
  138.3520   72.3980  223.6320 H   0  0  0  0  0  0  0  0  0  0  0  0
  137.9713   71.9458  220.7498 H   0  0  0  0  0  0  0  0  0  0  0  0
  136.3907   72.0916  221.6159 H   0  0  0  0  0  0  0  0  0  0  0  0
  140.6764   73.3798  222.2811 H   0  0  0  0  0  0  0  0  0  0  0  0
  140.0240   72.8035  220.7662 H   0  0  0  0  0  0  0  0  0  0  0  0
  141.0135   74.6143  219.5869 H   0  0  0  0  0  0  0  0  0  0  0  0
  142.2290   75.8080  221.6430 H   0  0  0  0  0  0  0  0  0  0  0  0
  140.8495   76.9258  221.2104 H   0  0  0  0  0  0  0  0  0  0  0  0
  139.5786   76.4804  220.1011 H   0  0  0  0  0  0  0  0  0  0  0  0
  139.8866   75.7983  223.0709 H   0  0  0  0  0  0  0  0  0  0  0  0
  137.6465   76.7950  221.4565 H   0  0  0  0  0  0  0  0  0  0  0  0
  137.5501   76.0130  223.1452 H   0  0  0  0  0  0  0  0  0  0  0  0
  137.3694   80.0803  223.3966 H   0  0  0  0  0  0  0  0  0  0  0  0
  138.5828   82.1856  223.6065 H   0  0  0  0  0  0  0  0  0  0  0  0
  141.0469   82.2134  223.4520 H   0  0  0  0  0  0  0  0  0  0  0  0
  141.0682   78.0041  222.8787 H   0  0  0  0  0  0  0  0  0  0  0  0
  138.4392   67.8087  223.6545 H   0  0  0  0  0  0  0  0  0  0  0  0
  139.4838   66.9274  225.7630 H   0  0  0  0  0  0  0  0  0  0  0  0
  140.6125   67.3864  227.8553 H   0  0  0  0  0  0  0  0  0  0  0  0
  141.5699   69.0097  229.4676 H   0  0  0  0  0  0  0  0  0  0  0  0
  141.5067   71.4515  229.0260 H   0  0  0  0  0  0  0  0  0  0  0  0
  140.4571   72.2693  226.9203 H   0  0  0  0  0  0  0  0  0  0  0  0
  1  2  2  0
  2  3  1  0
  3  4  1  0
  4  5  1  0
  5  6  2  0
  5  7  1  0
  7  8  1  0
  8  9  1  0
  9 10  1  0
  9 11  1  0
 11 12  1  0
 12 13  1  0
 13 14  1  0
 14 15  1  0
 15 16  2  0
 16 17  1  0
 17 18  2  0
 18 19  1  0
 19 20  1  0
 19 21  2  0
  2 22  1  0
 22 23  2  0
 23 24  1  0
 24 25  2  0
 25 26  1  0
 26 27  2  0
 27 28  1  0
 28 29  2  0
 29 30  1  0
 30 31  2  0
 12  7  1  0
 21 15  1  0
 31 22  1  0
 30 25  1  0
  3 32  1  0
  4 33  1  0
  4 34  1  0
  8 35  1  0
  8 36  1  0
  9 37  1  6
 10 38  1  0
 11 39  1  0
 11 40  1  0
 12 41  1  1
 13 42  1  0
 13 43  1  0
 16 44  1  0
 17 45  1  0
 18 46  1  0
 21 47  1  0
 23 48  1  0
 24 49  1  0
 26 50  1  0
 27 51  1  0
 28 52  1  0
 29 53  1  0
M  END
>  <smiles>  (44) 
O=C(NCC(=O)N1C[C@H](O)C[C@H]1COc1cccc(Cl)c1)c1ccc2ccccc2n1

>  <score_type>  (44) 
oracle

>  <origin>  (44) 
autodockgpu

>  <m_score__min__energy>  (44) 
-9.2899999999999991

>  <m_primary>  (44) 
energy

>  <rmsd>  (44) 
2.2588445462722246

>  <m_score__min__rmsd>  (44) 
2.2588445462722246

>  <meeko>  (44) 
{"free_energy": -8.27, "intermolecular_energy": -10.66, "internal_energy": -1.56, "cluster_size": 2, "cluster_id": 3, "rank_in_cluster": 1}

>  <energy>  (44) 
-6.8

>  <cluster_rmsd>  (44) 
1.12

>  <cluster>  (44) 
8

$$$$

     RDKit          3D

 53 56  0  0  0  0  0  0  0  0999 V2000
  139.6170   71.1650  221.2830 O   0  0  0  0  0  0  0  0  0  0  0  0
  139.6820   71.8620  222.3370 C   0  0  0  0  0  0  0  0  0  0  0  0
  139.5810   73.2640  222.3170 N   0  0  0  0  0  0  0  0  0  0  0  0
  139.4010   73.9660  221.0830 C   0  0  0  0  0  0  0  0  0  0  0  0
  140.4610   73.6000  220.0960 C   0  0  0  0  0  0  0  0  0  0  0  0
  140.0930   72.9550  219.0960 O   0  0  0  0  0  0  0  0  0  0  0  0
  141.7760   74.0130  220.3800 N   0  0  0  0  0  0  0  0  0  0  0  0
  142.9940   73.1820  220.3970 C   0  0  0  0  0  0  0  0  0  0  0  0
  144.0170   74.0860  219.7440 C   0  0  2  0  0  0  0  0  0  0  0  0
  145.1570   74.1230  220.5310 O   0  0  0  0  0  0  0  0  0  0  0  0
  143.3820   75.4820  219.7190 C   0  0  0  0  0  0  0  0  0  0  0  0
  142.2920   75.3490  220.7280 C   0  0  1  0  0  0  0  0  0  0  0  0
  141.1960   76.3600  220.6610 C   0  0  0  0  0  0  0  0  0  0  0  0
  141.4750   77.6150  221.0240 O   0  0  0  0  0  0  0  0  0  0  0  0
  141.3110   78.5730  221.9170 C   0  0  0  0  0  0  0  0  0  0  0  0
  142.4750   79.2600  222.3400 C   0  0  0  0  0  0  0  0  0  0  0  0
  142.4470   80.2640  223.2550 C   0  0  0  0  0  0  0  0  0  0  0  0
  141.2530   80.6470  223.8060 C   0  0  0  0  0  0  0  0  0  0  0  0
  140.0970   80.0280  223.4430 C   0  0  0  0  0  0  0  0  0  0  0  0
  138.5490   80.5150  224.1480 Cl  0  0  0  0  0  0  0  0  0  0  0  0
  140.1500   79.0150  222.5160 C   0  0  0  0  0  0  0  0  0  0  0  0
  139.8690   71.1710  223.6310 C   0  0  0  0  0  0  0  0  0  0  0  0
  139.5400   69.8380  223.7680 C   0  0  0  0  0  0  0  0  0  0  0  0
  139.7230   69.2040  224.9970 C   0  0  0  0  0  0  0  0  0  0  0  0
  140.2370   69.9500  226.0480 C   0  0  0  0  0  0  0  0  0  0  0  0
  140.4340   69.3510  227.2890 C   0  0  0  0  0  0  0  0  0  0  0  0
  140.9500   70.1020  228.3420 C   0  0  0  0  0  0  0  0  0  0  0  0
  141.2770   71.4380  228.1960 C   0  0  0  0  0  0  0  0  0  0  0  0
  141.0800   72.0290  226.9650 C   0  0  0  0  0  0  0  0  0  0  0  0
  140.5660   71.2890  225.9040 C   0  0  0  0  0  0  0  0  0  0  0  0
  140.3660   71.8410  224.6960 N   0  0  0  0  0  0  0  0  0  0  0  0
  139.6460   73.7730  223.2490 H   0  0  0  0  0  0  0  0  0  0  0  0
  138.4165   73.7099  220.6643 H   0  0  0  0  0  0  0  0  0  0  0  0
  139.4675   75.0457  221.2826 H   0  0  0  0  0  0  0  0  0  0  0  0
  143.2875   72.9280  221.4262 H   0  0  0  0  0  0  0  0  0  0  0  0
  142.8727   72.2159  219.8852 H   0  0  0  0  0  0  0  0  0  0  0  0
  144.2908   73.7383  218.7370 H   0  0  0  0  0  0  0  0  0  0  0  0
  145.8740   74.5100  219.9370 H   0  0  0  0  0  0  0  0  0  0  0  0
  144.1066   76.2553  220.0139 H   0  0  0  0  0  0  0  0  0  0  0  0
  143.0280   75.7889  218.7237 H   0  0  0  0  0  0  0  0  0  0  0  0
  142.6694   75.4984  221.7504 H   0  0  0  0  0  0  0  0  0  0  0  0
  140.8441   76.3918  219.6193 H   0  0  0  0  0  0  0  0  0  0  0  0
  140.4612   76.0169  221.4042 H   0  0  0  0  0  0  0  0  0  0  0  0
  143.4440   78.9680  221.9089 H   0  0  0  0  0  0  0  0  0  0  0  0
  143.3791   80.7670  223.5520 H   0  0  0  0  0  0  0  0  0  0  0  0
  141.2285   81.4600  224.5465 H   0  0  0  0  0  0  0  0  0  0  0  0
  139.2063   78.5254  222.2337 H   0  0  0  0  0  0  0  0  0  0  0  0
  139.1353   69.2779  222.9121 H   0  0  0  0  0  0  0  0  0  0  0  0
  139.4670   68.1424  225.1292 H   0  0  0  0  0  0  0  0  0  0  0  0
  140.1834   68.2902  227.4370 H   0  0  0  0  0  0  0  0  0  0  0  0
  141.1020   69.6187  229.3184 H   0  0  0  0  0  0  0  0  0  0  0  0
  141.6837   72.0146  229.0399 H   0  0  0  0  0  0  0  0  0  0  0  0
  141.3304   73.0904  226.8212 H   0  0  0  0  0  0  0  0  0  0  0  0
  1  2  2  0
  2  3  1  0
  3  4  1  0
  4  5  1  0
  5  6  2  0
  5  7  1  0
  7  8  1  0
  8  9  1  0
  9 10  1  0
  9 11  1  0
 11 12  1  0
 12 13  1  0
 13 14  1  0
 14 15  1  0
 15 16  2  0
 16 17  1  0
 17 18  2  0
 18 19  1  0
 19 20  1  0
 19 21  2  0
  2 22  1  0
 22 23  2  0
 23 24  1  0
 24 25  2  0
 25 26  1  0
 26 27  2  0
 27 28  1  0
 28 29  2  0
 29 30  1  0
 30 31  2  0
 12  7  1  0
 21 15  1  0
 31 22  1  0
 30 25  1  0
  3 32  1  0
  4 33  1  0
  4 34  1  0
  8 35  1  0
  8 36  1  0
  9 37  1  6
 10 38  1  0
 11 39  1  0
 11 40  1  0
 12 41  1  1
 13 42  1  0
 13 43  1  0
 16 44  1  0
 17 45  1  0
 18 46  1  0
 21 47  1  0
 23 48  1  0
 24 49  1  0
 26 50  1  0
 27 51  1  0
 28 52  1  0
 29 53  1  0
M  END
>  <smiles>  (45) 
O=C(NCC(=O)N1C[C@H](O)C[C@H]1COc1cccc(Cl)c1)c1ccc2ccccc2n1

>  <score_type>  (45) 
oracle

>  <origin>  (45) 
autodockgpu

>  <m_score__min__energy>  (45) 
-9.2899999999999991

>  <m_primary>  (45) 
energy

>  <rmsd>  (45) 
2.49327253543734

>  <m_score__min__rmsd>  (45) 
2.49327253543734

>  <meeko>  (45) 
{"free_energy": -8.8, "intermolecular_energy": -11.19, "internal_energy": -1.39, "cluster_size": 17, "cluster_id": 1, "rank_in_cluster": 9}

>  <energy>  (45) 
-6.79

>  <cluster_rmsd>  (45) 
1.11

>  <cluster>  (45) 
8

$$$$

     RDKit          3D

 53 56  0  0  0  0  0  0  0  0999 V2000
  141.1140   71.1820  221.3570 O   0  0  0  0  0  0  0  0  0  0  0  0
  140.6040   71.8460  222.3060 C   0  0  0  0  0  0  0  0  0  0  0  0
  140.3260   73.2190  222.1950 N   0  0  0  0  0  0  0  0  0  0  0  0
  140.6140   73.9280  220.9860 C   0  0  0  0  0  0  0  0  0  0  0  0
  141.6880   74.9440  221.2010 C   0  0  0  0  0  0  0  0  0  0  0  0
  141.4290   75.8710  221.9920 O   0  0  0  0  0  0  0  0  0  0  0  0
  142.8930   74.7680  220.4950 N   0  0  0  0  0  0  0  0  0  0  0  0
  143.9360   73.7550  220.7390 C   0  0  0  0  0  0  0  0  0  0  0  0
  144.3270   73.3440  219.3360 C   0  0  2  0  0  0  0  0  0  0  0  0
  145.7070   73.3840  219.2190 O   0  0  0  0  0  0  0  0  0  0  0  0
  143.7170   74.4020  218.4070 C   0  0  0  0  0  0  0  0  0  0  0  0
  143.4350   75.5220  219.3510 C   0  0  1  0  0  0  0  0  0  0  0  0
  142.4510   76.5470  218.8930 C   0  0  0  0  0  0  0  0  0  0  0  0
  141.9120   77.3540  219.8100 O   0  0  0  0  0  0  0  0  0  0  0  0
  141.8970   78.5550  220.3590 C   0  0  0  0  0  0  0  0  0  0  0  0
  141.6170   79.6460  219.5010 C   0  0  0  0  0  0  0  0  0  0  0  0
  141.5740   80.9340  219.9350 C   0  0  0  0  0  0  0  0  0  0  0  0
  141.8080   81.2120  221.2560 C   0  0  0  0  0  0  0  0  0  0  0  0
  142.0830   80.2090  222.1330 C   0  0  0  0  0  0  0  0  0  0  0  0
  142.3870   80.5580  223.8410 Cl  0  0  0  0  0  0  0  0  0  0  0  0
  142.1210   78.9150  221.6710 C   0  0  0  0  0  0  0  0  0  0  0  0
  140.2930   71.1470  223.5710 C   0  0  0  0  0  0  0  0  0  0  0  0
  139.5990   69.9540  223.5610 C   0  0  0  0  0  0  0  0  0  0  0  0
  139.3150   69.3100  224.7650 C   0  0  0  0  0  0  0  0  0  0  0  0
  139.7490   69.9030  225.9420 C   0  0  0  0  0  0  0  0  0  0  0  0
  139.4840   69.2880  227.1630 C   0  0  0  0  0  0  0  0  0  0  0  0
  139.9210   69.8850  228.3440 C   0  0  0  0  0  0  0  0  0  0  0  0
  140.6170   71.0800  228.3440 C   0  0  0  0  0  0  0  0  0  0  0  0
  140.8770   71.6870  227.1330 C   0  0  0  0  0  0  0  0  0  0  0  0
  140.4470   71.1000  225.9460 C   0  0  0  0  0  0  0  0  0  0  0  0
  140.6880   71.6710  224.7540 N   0  0  0  0  0  0  0  0  0  0  0  0
  139.8980   73.7010  223.0410 H   0  0  0  0  0  0  0  0  0  0  0  0
  140.9453   73.2117  220.2197 H   0  0  0  0  0  0  0  0  0  0  0  0
  139.7012   74.4482  220.6602 H   0  0  0  0  0  0  0  0  0  0  0  0
  144.7911   74.1869  221.2797 H   0  0  0  0  0  0  0  0  0  0  0  0
  143.5952   72.9158  221.3631 H   0  0  0  0  0  0  0  0  0  0  0  0
  143.9784   72.3294  219.0929 H   0  0  0  0  0  0  0  0  0  0  0  0
  145.9280   74.3520  219.0440 H   0  0  0  0  0  0  0  0  0  0  0  0
  144.4301   74.7072  217.6270 H   0  0  0  0  0  0  0  0  0  0  0  0
  142.8300   74.0512  217.8591 H   0  0  0  0  0  0  0  0  0  0  0  0
  144.3300   76.1372  219.5253 H   0  0  0  0  0  0  0  0  0  0  0  0
  142.9620   77.1845  218.1565 H   0  0  0  0  0  0  0  0  0  0  0  0
  141.6023   75.9607  218.5110 H   0  0  0  0  0  0  0  0  0  0  0  0
  141.4259   79.4428  218.4370 H   0  0  0  0  0  0  0  0  0  0  0  0
  141.3526   81.7482  219.2293 H   0  0  0  0  0  0  0  0  0  0  0  0
  141.7733   82.2530  221.6098 H   0  0  0  0  0  0  0  0  0  0  0  0
  142.3442   78.1162  222.3936 H   0  0  0  0  0  0  0  0  0  0  0  0
  139.2714   69.5132  222.6079 H   0  0  0  0  0  0  0  0  0  0  0  0
  138.7626   68.3589  224.7811 H   0  0  0  0  0  0  0  0  0  0  0  0
  138.9329   68.3365  227.1951 H   0  0  0  0  0  0  0  0  0  0  0  0
  139.7062   69.3917  229.3034 H   0  0  0  0  0  0  0  0  0  0  0  0
  140.9550   71.5353  229.2866 H   0  0  0  0  0  0  0  0  0  0  0  0
  141.4267   72.6394  227.1049 H   0  0  0  0  0  0  0  0  0  0  0  0
  1  2  2  0
  2  3  1  0
  3  4  1  0
  4  5  1  0
  5  6  2  0
  5  7  1  0
  7  8  1  0
  8  9  1  0
  9 10  1  0
  9 11  1  0
 11 12  1  0
 12 13  1  0
 13 14  1  0
 14 15  1  0
 15 16  2  0
 16 17  1  0
 17 18  2  0
 18 19  1  0
 19 20  1  0
 19 21  2  0
  2 22  1  0
 22 23  2  0
 23 24  1  0
 24 25  2  0
 25 26  1  0
 26 27  2  0
 27 28  1  0
 28 29  2  0
 29 30  1  0
 30 31  2  0
 12  7  1  0
 21 15  1  0
 31 22  1  0
 30 25  1  0
  3 32  1  0
  4 33  1  0
  4 34  1  0
  8 35  1  0
  8 36  1  0
  9 37  1  6
 10 38  1  0
 11 39  1  0
 11 40  1  0
 12 41  1  1
 13 42  1  0
 13 43  1  0
 16 44  1  0
 17 45  1  0
 18 46  1  0
 21 47  1  0
 23 48  1  0
 24 49  1  0
 26 50  1  0
 27 51  1  0
 28 52  1  0
 29 53  1  0
M  END
>  <smiles>  (46) 
O=C(NCC(=O)N1C[C@H](O)C[C@H]1COc1cccc(Cl)c1)c1ccc2ccccc2n1

>  <score_type>  (46) 
oracle

>  <origin>  (46) 
autodockgpu

>  <m_score__min__energy>  (46) 
-9.2899999999999991

>  <m_primary>  (46) 
energy

>  <rmsd>  (46) 
2.9316067325792674

>  <m_score__min__rmsd>  (46) 
2.9316067325792674

>  <meeko>  (46) 
{"free_energy": -9.09, "intermolecular_energy": -11.47, "internal_energy": -1.56, "cluster_size": 17, "cluster_id": 1, "rank_in_cluster": 3}

>  <energy>  (46) 
-6.74

>  <cluster_rmsd>  (46) 
1.42

>  <cluster>  (46) 
8

$$$$

     RDKit          3D

 53 56  0  0  0  0  0  0  0  0999 V2000
  139.0870   74.8780  222.1440 O   0  0  0  0  0  0  0  0  0  0  0  0
  140.1900   75.4880  222.0320 C   0  0  0  0  0  0  0  0  0  0  0  0
  141.3600   74.8460  221.5910 N   0  0  0  0  0  0  0  0  0  0  0  0
  141.3470   73.4570  221.2480 C   0  0  0  0  0  0  0  0  0  0  0  0
  142.0130   73.2210  219.9320 C   0  0  0  0  0  0  0  0  0  0  0  0
  141.2990   73.3380  218.9170 O   0  0  0  0  0  0  0  0  0  0  0  0
  143.3800   72.8900  219.9510 N   0  0  0  0  0  0  0  0  0  0  0  0
  143.9820   71.5540  219.7850 C   0  0  0  0  0  0  0  0  0  0  0  0
  145.1860   71.8430  218.9140 C   0  0  2  0  0  0  0  0  0  0  0  0
  146.3050   71.2510  219.4760 O   0  0  0  0  0  0  0  0  0  0  0  0
  145.3610   73.3670  218.9390 C   0  0  0  0  0  0  0  0  0  0  0  0
  144.5590   73.7550  220.1350 C   0  0  1  0  0  0  0  0  0  0  0  0
  144.1420   75.1860  220.2220 C   0  0  0  0  0  0  0  0  0  0  0  0
  143.0910   75.5790  219.4990 O   0  0  0  0  0  0  0  0  0  0  0  0
  142.2380   76.5480  219.2180 C   0  0  0  0  0  0  0  0  0  0  0  0
  141.0860   76.1900  218.4770 C   0  0  0  0  0  0  0  0  0  0  0  0
  140.1310   77.0890  218.1190 C   0  0  0  0  0  0  0  0  0  0  0  0
  140.2670   78.4030  218.4820 C   0  0  0  0  0  0  0  0  0  0  0  0
  141.3500   78.8130  219.1950 C   0  0  0  0  0  0  0  0  0  0  0  0
  141.5350   80.5080  219.6680 Cl  0  0  0  0  0  0  0  0  0  0  0  0
  142.3030   77.8860  219.5450 C   0  0  0  0  0  0  0  0  0  0  0  0
  140.2420   76.9250  222.3780 C   0  0  0  0  0  0  0  0  0  0  0  0
  139.0790   77.6560  222.5140 C   0  0  0  0  0  0  0  0  0  0  0  0
  139.1490   79.0100  222.8400 C   0  0  0  0  0  0  0  0  0  0  0  0
  140.4030   79.5760  223.0190 C   0  0  0  0  0  0  0  0  0  0  0  0
  140.5120   80.9250  223.3450 C   0  0  0  0  0  0  0  0  0  0  0  0
  141.7720   81.4910  223.5240 C   0  0  0  0  0  0  0  0  0  0  0  0
  142.9320   80.7510  223.3860 C   0  0  0  0  0  0  0  0  0  0  0  0
  142.8210   79.4150  223.0610 C   0  0  0  0  0  0  0  0  0  0  0  0
  141.5670   78.8370  222.8810 C   0  0  0  0  0  0  0  0  0  0  0  0
  141.4320   77.5380  222.5650 N   0  0  0  0  0  0  0  0  0  0  0  0
  142.2440   75.4330  221.5250 H   0  0  0  0  0  0  0  0  0  0  0  0
  141.8786   72.8899  222.0263 H   0  0  0  0  0  0  0  0  0  0  0  0
  140.3007   73.1255  221.1741 H   0  0  0  0  0  0  0  0  0  0  0  0
  144.2849   71.1312  220.7543 H   0  0  0  0  0  0  0  0  0  0  0  0
  143.2939   70.8139  219.3504 H   0  0  0  0  0  0  0  0  0  0  0  0
  145.0562   71.4586  217.8916 H   0  0  0  0  0  0  0  0  0  0  0  0
  146.1450   71.2790  220.4720 H   0  0  0  0  0  0  0  0  0  0  0  0
  146.4183   73.6454  219.0600 H   0  0  0  0  0  0  0  0  0  0  0  0
  145.0406   73.8641  218.0115 H   0  0  0  0  0  0  0  0  0  0  0  0
  145.1376   73.6360  221.0630 H   0  0  0  0  0  0  0  0  0  0  0  0
  143.9097   75.3951  221.2767 H   0  0  0  0  0  0  0  0  0  0  0  0
  144.9899   75.7447  219.7990 H   0  0  0  0  0  0  0  0  0  0  0  0
  140.9581   75.1392  218.1780 H   0  0  0  0  0  0  0  0  0  0  0  0
  139.2537   76.7630  217.5409 H   0  0  0  0  0  0  0  0  0  0  0  0
  139.4946   79.1316  218.1947 H   0  0  0  0  0  0  0  0  0  0  0  0
  143.1723   78.2336  220.1224 H   0  0  0  0  0  0  0  0  0  0  0  0
  138.1019   77.1729  222.3660 H   0  0  0  0  0  0  0  0  0  0  0  0
  138.2355   79.6125  222.9521 H   0  0  0  0  0  0  0  0  0  0  0  0
  139.6078   81.5407  223.4606 H   0  0  0  0  0  0  0  0  0  0  0  0
  141.8465   82.5576  223.7826 H   0  0  0  0  0  0  0  0  0  0  0  0
  143.9182   81.2159  223.5317 H   0  0  0  0  0  0  0  0  0  0  0  0
  143.7276   78.8032  222.9435 H   0  0  0  0  0  0  0  0  0  0  0  0
  1  2  2  0
  2  3  1  0
  3  4  1  0
  4  5  1  0
  5  6  2  0
  5  7  1  0
  7  8  1  0
  8  9  1  0
  9 10  1  0
  9 11  1  0
 11 12  1  0
 12 13  1  0
 13 14  1  0
 14 15  1  0
 15 16  2  0
 16 17  1  0
 17 18  2  0
 18 19  1  0
 19 20  1  0
 19 21  2  0
  2 22  1  0
 22 23  2  0
 23 24  1  0
 24 25  2  0
 25 26  1  0
 26 27  2  0
 27 28  1  0
 28 29  2  0
 29 30  1  0
 30 31  2  0
 12  7  1  0
 21 15  1  0
 31 22  1  0
 30 25  1  0
  3 32  1  0
  4 33  1  0
  4 34  1  0
  8 35  1  0
  8 36  1  0
  9 37  1  6
 10 38  1  0
 11 39  1  0
 11 40  1  0
 12 41  1  1
 13 42  1  0
 13 43  1  0
 16 44  1  0
 17 45  1  0
 18 46  1  0
 21 47  1  0
 23 48  1  0
 24 49  1  0
 26 50  1  0
 27 51  1  0
 28 52  1  0
 29 53  1  0
M  END
>  <smiles>  (47) 
O=C(NCC(=O)N1C[C@H](O)C[C@H]1COc1cccc(Cl)c1)c1ccc2ccccc2n1

>  <score_type>  (47) 
oracle

>  <origin>  (47) 
autodockgpu

>  <m_score__min__energy>  (47) 
-9.2899999999999991

>  <m_primary>  (47) 
energy

>  <rmsd>  (47) 
7.76982653430136

>  <m_score__min__rmsd>  (47) 
7.76982653430136

>  <meeko>  (47) 
{"free_energy": -6.79, "intermolecular_energy": -9.18, "internal_energy": -3.75, "cluster_size": 21, "cluster_id": 8, "rank_in_cluster": 16}

>  <energy>  (47) 
-6.71

>  <cluster_rmsd>  (47) 
1.08

>  <cluster>  (47) 
8

$$$$

     RDKit          3D

 53 56  0  0  0  0  0  0  0  0999 V2000
  140.7830   71.4530  221.2760 O   0  0  0  0  0  0  0  0  0  0  0  0
  140.3400   72.0610  222.2930 C   0  0  0  0  0  0  0  0  0  0  0  0
  139.9520   73.4110  222.2500 N   0  0  0  0  0  0  0  0  0  0  0  0
  140.0470   74.1600  221.0350 C   0  0  0  0  0  0  0  0  0  0  0  0
  140.0370   75.6300  221.3060 C   0  0  0  0  0  0  0  0  0  0  0  0
  139.9740   75.9750  222.5020 O   0  0  0  0  0  0  0  0  0  0  0  0
  140.0980   76.4910  220.1950 N   0  0  0  0  0  0  0  0  0  0  0  0
  138.9710   77.1440  219.5040 C   0  0  0  0  0  0  0  0  0  0  0  0
  139.5150   78.5300  219.2270 C   0  0  2  0  0  0  0  0  0  0  0  0
  139.2990   78.8440  217.8960 O   0  0  0  0  0  0  0  0  0  0  0  0
  141.0260   78.4410  219.4800 C   0  0  0  0  0  0  0  0  0  0  0  0
  141.2660   76.9690  219.4340 C   0  0  1  0  0  0  0  0  0  0  0  0
  142.5280   76.4800  220.0620 C   0  0  0  0  0  0  0  0  0  0  0  0
  142.7410   75.1630  220.1030 O   0  0  0  0  0  0  0  0  0  0  0  0
  143.6250   74.1830  220.1570 C   0  0  0  0  0  0  0  0  0  0  0  0
  144.9540   74.5400  220.4910 C   0  0  0  0  0  0  0  0  0  0  0  0
  145.9610   73.6310  220.5790 C   0  0  0  0  0  0  0  0  0  0  0  0
  145.7030   72.3080  220.3400 C   0  0  0  0  0  0  0  0  0  0  0  0
  144.4470   71.8980  220.0140 C   0  0  0  0  0  0  0  0  0  0  0  0
  144.1040   70.1910  219.7030 Cl  0  0  0  0  0  0  0  0  0  0  0  0
  143.4450   72.8350  219.9310 C   0  0  0  0  0  0  0  0  0  0  0  0
  140.2270   71.3190  223.5680 C   0  0  0  0  0  0  0  0  0  0  0  0
  139.6670   70.0580  223.5980 C   0  0  0  0  0  0  0  0  0  0  0  0
  139.5700   69.3750  224.8100 C   0  0  0  0  0  0  0  0  0  0  0  0
  140.0480   69.9980  225.9530 C   0  0  0  0  0  0  0  0  0  0  0  0
  139.9680   69.3460  227.1810 C   0  0  0  0  0  0  0  0  0  0  0  0
  140.4490   69.9740  228.3270 C   0  0  0  0  0  0  0  0  0  0  0  0
  141.0100   71.2380  228.2870 C   0  0  0  0  0  0  0  0  0  0  0  0
  141.0870   71.8820  227.0700 C   0  0  0  0  0  0  0  0  0  0  0  0
  140.6110   71.2650  225.9170 C   0  0  0  0  0  0  0  0  0  0  0  0
  140.6750   71.8700  224.7190 N   0  0  0  0  0  0  0  0  0  0  0  0
  139.5900   73.8460  223.1510 H   0  0  0  0  0  0  0  0  0  0  0  0
  140.9837   73.8957  220.5225 H   0  0  0  0  0  0  0  0  0  0  0  0
  139.1789   73.9152  220.4053 H   0  0  0  0  0  0  0  0  0  0  0  0
  138.7210   76.6209  218.5692 H   0  0  0  0  0  0  0  0  0  0  0  0
  138.0400   77.1474  220.0899 H   0  0  0  0  0  0  0  0  0  0  0  0
  139.0343   79.2943  219.8554 H   0  0  0  0  0  0  0  0  0  0  0  0
  139.4450   77.9820  217.3940 H   0  0  0  0  0  0  0  0  0  0  0  0
  141.5934   78.9625  218.6951 H   0  0  0  0  0  0  0  0  0  0  0  0
  141.3449   78.9116  220.4217 H   0  0  0  0  0  0  0  0  0  0  0  0
  141.3809   76.6118  218.4000 H   0  0  0  0  0  0  0  0  0  0  0  0
  143.3645   76.9289  219.5063 H   0  0  0  0  0  0  0  0  0  0  0  0
  142.4405   76.7758  221.1178 H   0  0  0  0  0  0  0  0  0  0  0  0
  145.1813   75.5981  220.6877 H   0  0  0  0  0  0  0  0  0  0  0  0
  146.9784   73.9570  220.8410 H   0  0  0  0  0  0  0  0  0  0  0  0
  146.5166   71.5712  220.4120 H   0  0  0  0  0  0  0  0  0  0  0  0
  142.4352   72.4873  219.6675 H   0  0  0  0  0  0  0  0  0  0  0  0
  139.2991   69.5941  222.6709 H   0  0  0  0  0  0  0  0  0  0  0  0
  139.1264   68.3695  224.8580 H   0  0  0  0  0  0  0  0  0  0  0  0
  139.5272   68.3402  227.2453 H   0  0  0  0  0  0  0  0  0  0  0  0
  140.3810   69.4500  229.2918 H   0  0  0  0  0  0  0  0  0  0  0  0
  141.3853   71.7174  229.2032 H   0  0  0  0  0  0  0  0  0  0  0  0
  141.5269   72.8884  227.0103 H   0  0  0  0  0  0  0  0  0  0  0  0
  1  2  2  0
  2  3  1  0
  3  4  1  0
  4  5  1  0
  5  6  2  0
  5  7  1  0
  7  8  1  0
  8  9  1  0
  9 10  1  0
  9 11  1  0
 11 12  1  0
 12 13  1  0
 13 14  1  0
 14 15  1  0
 15 16  2  0
 16 17  1  0
 17 18  2  0
 18 19  1  0
 19 20  1  0
 19 21  2  0
  2 22  1  0
 22 23  2  0
 23 24  1  0
 24 25  2  0
 25 26  1  0
 26 27  2  0
 27 28  1  0
 28 29  2  0
 29 30  1  0
 30 31  2  0
 12  7  1  0
 21 15  1  0
 31 22  1  0
 30 25  1  0
  3 32  1  0
  4 33  1  0
  4 34  1  0
  8 35  1  0
  8 36  1  0
  9 37  1  1
 10 38  1  0
 11 39  1  0
 11 40  1  0
 12 41  1  6
 13 42  1  0
 13 43  1  0
 16 44  1  0
 17 45  1  0
 18 46  1  0
 21 47  1  0
 23 48  1  0
 24 49  1  0
 26 50  1  0
 27 51  1  0
 28 52  1  0
 29 53  1  0
M  END
>  <smiles>  (48) 
O=C(NCC(=O)N1C[C@H](O)C[C@H]1COc1cccc(Cl)c1)c1ccc2ccccc2n1

>  <score_type>  (48) 
oracle

>  <origin>  (48) 
autodockgpu

>  <m_score__min__energy>  (48) 
-9.2899999999999991

>  <m_primary>  (48) 
energy

>  <rmsd>  (48) 
1.8340384917886352

>  <m_score__min__rmsd>  (48) 
1.8340384917886352

>  <meeko>  (48) 
{"free_energy": -7.72, "intermolecular_energy": -10.11, "internal_energy": -2.35, "cluster_size": 4, "cluster_id": 5, "rank_in_cluster": 1}

>  <energy>  (48) 
-6.69

>  <cluster_rmsd>  (48) 
1.06

>  <cluster>  (48) 
8

$$$$

     RDKit          3D

 53 56  0  0  0  0  0  0  0  0999 V2000
  141.0540   71.4250  221.3850 O   0  0  0  0  0  0  0  0  0  0  0  0
  140.4620   72.0130  222.3360 C   0  0  0  0  0  0  0  0  0  0  0  0
  140.0190   73.3430  222.2360 N   0  0  0  0  0  0  0  0  0  0  0  0
  140.2270   74.0940  221.0350 C   0  0  0  0  0  0  0  0  0  0  0  0
  141.3140   75.1040  221.2140 C   0  0  0  0  0  0  0  0  0  0  0  0
  141.0950   76.0190  222.0320 O   0  0  0  0  0  0  0  0  0  0  0  0
  142.4820   74.9380  220.4480 N   0  0  0  0  0  0  0  0  0  0  0  0
  143.6130   74.0320  220.7220 C   0  0  0  0  0  0  0  0  0  0  0  0
  143.9470   73.5000  219.3450 C   0  0  2  0  0  0  0  0  0  0  0  0
  145.3100   73.6230  219.1290 O   0  0  0  0  0  0  0  0  0  0  0  0
  143.2010   74.4060  218.3570 C   0  0  0  0  0  0  0  0  0  0  0  0
  142.8930   75.5990  219.1970 C   0  0  1  0  0  0  0  0  0  0  0  0
  141.8060   76.4970  218.7050 C   0  0  0  0  0  0  0  0  0  0  0  0
  141.9040   77.8030  218.9670 O   0  0  0  0  0  0  0  0  0  0  0  0
  141.8310   78.7600  219.8740 C   0  0  0  0  0  0  0  0  0  0  0  0
  141.7570   80.0900  219.3950 C   0  0  0  0  0  0  0  0  0  0  0  0
  141.6810   81.1680  220.2190 C   0  0  0  0  0  0  0  0  0  0  0  0
  141.6730   80.9840  221.5770 C   0  0  0  0  0  0  0  0  0  0  0  0
  141.7420   79.7310  222.1030 C   0  0  0  0  0  0  0  0  0  0  0  0
  141.7320   79.4830  223.8540 Cl  0  0  0  0  0  0  0  0  0  0  0  0
  141.8180   78.6570  221.2490 C   0  0  0  0  0  0  0  0  0  0  0  0
  140.2300   71.2680  223.5930 C   0  0  0  0  0  0  0  0  0  0  0  0
  139.5780   70.0520  223.5770 C   0  0  0  0  0  0  0  0  0  0  0  0
  139.3690   69.3660  224.7730 C   0  0  0  0  0  0  0  0  0  0  0  0
  139.8310   69.9410  225.9470 C   0  0  0  0  0  0  0  0  0  0  0  0
  139.6400   69.2840  227.1600 C   0  0  0  0  0  0  0  0  0  0  0  0
  140.1060   69.8630  228.3380 C   0  0  0  0  0  0  0  0  0  0  0  0
  140.7590   71.0830  228.3440 C   0  0  0  0  0  0  0  0  0  0  0  0
  140.9460   71.7320  227.1410 C   0  0  0  0  0  0  0  0  0  0  0  0
  140.4860   71.1630  225.9570 C   0  0  0  0  0  0  0  0  0  0  0  0
  140.6560   71.7740  224.7720 N   0  0  0  0  0  0  0  0  0  0  0  0
  139.5310   73.7610  223.0830 H   0  0  0  0  0  0  0  0  0  0  0  0
  140.5065   73.4051  220.2243 H   0  0  0  0  0  0  0  0  0  0  0  0
  139.2950   74.6235  220.7880 H   0  0  0  0  0  0  0  0  0  0  0  0
  144.4643   74.5782  221.1545 H   0  0  0  0  0  0  0  0  0  0  0  0
  143.3766   73.2434  221.4515 H   0  0  0  0  0  0  0  0  0  0  0  0
  143.6632   72.4432  219.2324 H   0  0  0  0  0  0  0  0  0  0  0  0
  145.4170   74.4780  218.6070 H   0  0  0  0  0  0  0  0  0  0  0  0
  143.8386   74.6740  217.5016 H   0  0  0  0  0  0  0  0  0  0  0  0
  142.3111   73.9368  217.9120 H   0  0  0  0  0  0  0  0  0  0  0  0
  143.7475   76.2901  219.2437 H   0  0  0  0  0  0  0  0  0  0  0  0
  141.7596   76.3855  217.6117 H   0  0  0  0  0  0  0  0  0  0  0  0
  140.9114   76.1728  219.2569 H   0  0  0  0  0  0  0  0  0  0  0  0
  141.7612   80.2584  218.3080 H   0  0  0  0  0  0  0  0  0  0  0  0
  141.6262   82.1828  219.7982 H   0  0  0  0  0  0  0  0  0  0  0  0
  141.6104   81.8549  222.2461 H   0  0  0  0  0  0  0  0  0  0  0  0
  141.8719   77.6509  221.6905 H   0  0  0  0  0  0  0  0  0  0  0  0
  139.2251   69.6261  222.6262 H   0  0  0  0  0  0  0  0  0  0  0  0
  138.8518   68.3953  224.7847 H   0  0  0  0  0  0  0  0  0  0  0  0
  139.1239   68.3130  227.1876 H   0  0  0  0  0  0  0  0  0  0  0  0
  139.9505   69.3354  229.2906 H   0  0  0  0  0  0  0  0  0  0  0  0
  141.1200   71.5244  229.2846 H   0  0  0  0  0  0  0  0  0  0  0  0
  141.4610   72.7037  227.1175 H   0  0  0  0  0  0  0  0  0  0  0  0
  1  2  2  0
  2  3  1  0
  3  4  1  0
  4  5  1  0
  5  6  2  0
  5  7  1  0
  7  8  1  0
  8  9  1  0
  9 10  1  0
  9 11  1  0
 11 12  1  0
 12 13  1  0
 13 14  1  0
 14 15  1  0
 15 16  2  0
 16 17  1  0
 17 18  2  0
 18 19  1  0
 19 20  1  0
 19 21  2  0
  2 22  1  0
 22 23  2  0
 23 24  1  0
 24 25  2  0
 25 26  1  0
 26 27  2  0
 27 28  1  0
 28 29  2  0
 29 30  1  0
 30 31  2  0
 12  7  1  0
 21 15  1  0
 31 22  1  0
 30 25  1  0
  3 32  1  0
  4 33  1  0
  4 34  1  0
  8 35  1  0
  8 36  1  0
  9 37  1  1
 10 38  1  0
 11 39  1  0
 11 40  1  0
 12 41  1  1
 13 42  1  0
 13 43  1  0
 16 44  1  0
 17 45  1  0
 18 46  1  0
 21 47  1  0
 23 48  1  0
 24 49  1  0
 26 50  1  0
 27 51  1  0
 28 52  1  0
 29 53  1  0
M  END
>  <smiles>  (49) 
O=C(NCC(=O)N1C[C@H](O)C[C@H]1COc1cccc(Cl)c1)c1ccc2ccccc2n1

>  <score_type>  (49) 
oracle

>  <origin>  (49) 
autodockgpu

>  <m_score__min__energy>  (49) 
-9.2899999999999991

>  <m_primary>  (49) 
energy

>  <rmsd>  (49) 
2.7303568966245404

>  <m_score__min__rmsd>  (49) 
2.7303568966245404

>  <meeko>  (49) 
{"free_energy": -8.88, "intermolecular_energy": -11.27, "internal_energy": -1.67, "cluster_size": 17, "cluster_id": 1, "rank_in_cluster": 8}

>  <energy>  (49) 
-6.66

>  <cluster_rmsd>  (49) 
1.05

>  <cluster>  (49) 
8

$$$$

     RDKit          3D

 53 56  0  0  0  0  0  0  0  0999 V2000
  140.5770   73.9930  222.3320 O   0  0  0  0  0  0  0  0  0  0  0  0
  140.2260   72.7980  222.1100 C   0  0  0  0  0  0  0  0  0  0  0  0
  139.8970   72.3400  220.8230 N   0  0  0  0  0  0  0  0  0  0  0  0
  139.9450   73.2240  219.6980 C   0  0  0  0  0  0  0  0  0  0  0  0
  141.2780   73.1660  219.0260 C   0  0  0  0  0  0  0  0  0  0  0  0
  141.2770   72.9200  217.8040 O   0  0  0  0  0  0  0  0  0  0  0  0
  142.4140   73.3930  219.8250 N   0  0  0  0  0  0  0  0  0  0  0  0
  143.1520   72.4070  220.6360 C   0  0  0  0  0  0  0  0  0  0  0  0
  144.5940   72.7980  220.3950 C   0  0  2  0  0  0  0  0  0  0  0  0
  145.2470   72.8980  221.6120 O   0  0  0  0  0  0  0  0  0  0  0  0
  144.5450   74.1850  219.7390 C   0  0  0  0  0  0  0  0  0  0  0  0
  143.1630   74.6380  220.0690 C   0  0  1  0  0  0  0  0  0  0  0  0
  142.6090   75.7470  219.2370 C   0  0  0  0  0  0  0  0  0  0  0  0
  142.3280   76.9050  219.8400 O   0  0  0  0  0  0  0  0  0  0  0  0
  141.7910   77.5100  220.8840 C   0  0  0  0  0  0  0  0  0  0  0  0
  140.6300   76.9190  221.4370 C   0  0  0  0  0  0  0  0  0  0  0  0
  139.9760   77.4400  222.5090 C   0  0  0  0  0  0  0  0  0  0  0  0
  140.4450   78.5850  223.0970 C   0  0  0  0  0  0  0  0  0  0  0  0
  141.5560   79.2030  222.6150 C   0  0  0  0  0  0  0  0  0  0  0  0
  142.1690   80.6820  223.3670 Cl  0  0  0  0  0  0  0  0  0  0  0  0
  142.2000   78.6580  221.5290 C   0  0  0  0  0  0  0  0  0  0  0  0
  140.1650   71.8560  223.2490 C   0  0  0  0  0  0  0  0  0  0  0  0
  139.6370   70.5910  223.0840 C   0  0  0  0  0  0  0  0  0  0  0  0
  139.5880   69.7170  224.1700 C   0  0  0  0  0  0  0  0  0  0  0  0
  140.0780   70.1610  225.3890 C   0  0  0  0  0  0  0  0  0  0  0  0
  140.0450   69.3160  226.4960 C   0  0  0  0  0  0  0  0  0  0  0  0
  140.5380   69.7630  227.7190 C   0  0  0  0  0  0  0  0  0  0  0  0
  141.0650   71.0320  227.8750 C   0  0  0  0  0  0  0  0  0  0  0  0
  141.0960   71.8680  226.7770 C   0  0  0  0  0  0  0  0  0  0  0  0
  140.6070   71.4320  225.5490 C   0  0  0  0  0  0  0  0  0  0  0  0
  140.6260   72.2260  224.4640 N   0  0  0  0  0  0  0  0  0  0  0  0
  139.6120   71.3200  220.7240 H   0  0  0  0  0  0  0  0  0  0  0  0
  139.1665   72.9319  218.9779 H   0  0  0  0  0  0  0  0  0  0  0  0
  139.7767   74.2514  220.0531 H   0  0  0  0  0  0  0  0  0  0  0  0
  142.8897   72.4921  221.7009 H   0  0  0  0  0  0  0  0  0  0  0  0
  142.9298   71.3638  220.3671 H   0  0  0  0  0  0  0  0  0  0  0  0
  145.1202   72.0625  219.7688 H   0  0  0  0  0  0  0  0  0  0  0  0
  145.7070   72.0100  221.7380 H   0  0  0  0  0  0  0  0  0  0  0  0
  145.2998   74.8582  220.1716 H   0  0  0  0  0  0  0  0  0  0  0  0
  144.7609   74.1724  218.6605 H   0  0  0  0  0  0  0  0  0  0  0  0
  143.1125   75.0721  221.0785 H   0  0  0  0  0  0  0  0  0  0  0  0
  143.3431   75.9602  218.4460 H   0  0  0  0  0  0  0  0  0  0  0  0
  141.6329   75.3720  218.8955 H   0  0  0  0  0  0  0  0  0  0  0  0
  140.2398   75.9979  220.9795 H   0  0  0  0  0  0  0  0  0  0  0  0
  139.0756   76.9451  222.9019 H   0  0  0  0  0  0  0  0  0  0  0  0
  139.9188   79.0076  223.9656 H   0  0  0  0  0  0  0  0  0  0  0  0
  143.0974   79.1698  221.1513 H   0  0  0  0  0  0  0  0  0  0  0  0
  139.2571   70.2741  222.1015 H   0  0  0  0  0  0  0  0  0  0  0  0
  139.1724   68.7042  224.0625 H   0  0  0  0  0  0  0  0  0  0  0  0
  139.6316   68.3008  226.4044 H   0  0  0  0  0  0  0  0  0  0  0  0
  140.5074   69.0871  228.5863 H   0  0  0  0  0  0  0  0  0  0  0  0
  141.4498   71.3668  228.8496 H   0  0  0  0  0  0  0  0  0  0  0  0
  141.5089   72.8830  226.8729 H   0  0  0  0  0  0  0  0  0  0  0  0
  1  2  2  0
  2  3  1  0
  3  4  1  0
  4  5  1  0
  5  6  2  0
  5  7  1  0
  7  8  1  0
  8  9  1  0
  9 10  1  0
  9 11  1  0
 11 12  1  0
 12 13  1  0
 13 14  1  0
 14 15  1  0
 15 16  2  0
 16 17  1  0
 17 18  2  0
 18 19  1  0
 19 20  1  0
 19 21  2  0
  2 22  1  0
 22 23  2  0
 23 24  1  0
 24 25  2  0
 25 26  1  0
 26 27  2  0
 27 28  1  0
 28 29  2  0
 29 30  1  0
 30 31  2  0
 12  7  1  0
 21 15  1  0
 31 22  1  0
 30 25  1  0
  3 32  1  0
  4 33  1  0
  4 34  1  0
  8 35  1  0
  8 36  1  0
  9 37  1  6
 10 38  1  0
 11 39  1  0
 11 40  1  0
 12 41  1  1
 13 42  1  0
 13 43  1  0
 16 44  1  0
 17 45  1  0
 18 46  1  0
 21 47  1  0
 23 48  1  0
 24 49  1  0
 26 50  1  0
 27 51  1  0
 28 52  1  0
 29 53  1  0
M  END
>  <smiles>  (50) 
O=C(NCC(=O)N1C[C@H](O)C[C@H]1COc1cccc(Cl)c1)c1ccc2ccccc2n1

>  <score_type>  (50) 
oracle

>  <origin>  (50) 
autodockgpu

>  <m_score__min__energy>  (50) 
-9.2899999999999991

>  <m_primary>  (50) 
energy

>  <rmsd>  (50) 
3.298462447997173

>  <m_score__min__rmsd>  (50) 
3.298462447997173

>  <meeko>  (50) 
{"free_energy": -8.35, "intermolecular_energy": -10.74, "internal_energy": -1.81, "cluster_size": 2, "cluster_id": 2, "rank_in_cluster": 2}

>  <energy>  (50) 
-6.33

>  <cluster_rmsd>  (50) 
1.41

>  <cluster>  (50) 
8

$$$$
