
     RDKit          3D

 64 67  0  0  0  0  0  0  0  0999 V2000
  136.3150   70.3300  224.2700 C   0  0  0  0  0  0  0  0  0  0  0  0
  136.9110   71.6410  223.7210 C   0  0  0  0  0  0  0  0  0  0  0  0
  138.1480   71.3290  222.9460 C   0  0  0  0  0  0  0  0  0  0  0  0
  137.9180   70.8420  221.7950 O   0  0  0  0  0  0  0  0  0  0  0  0
  139.4550   71.5590  223.4540 N   0  0  0  0  0  0  0  0  0  0  0  0
  139.9300   71.1350  224.7050 C   0  0  0  0  0  0  0  0  0  0  0  0
  140.7530   71.8710  225.5270 C   0  0  0  0  0  0  0  0  0  0  0  0
  141.2100   71.4210  226.7590 C   0  0  0  0  0  0  0  0  0  0  0  0
  140.8520   70.1840  227.2270 C   0  0  0  0  0  0  0  0  0  0  0  0
  140.0310   69.4230  226.4320 C   0  0  0  0  0  0  0  0  0  0  0  0
  139.5680   69.8760  225.1890 C   0  0  0  0  0  0  0  0  0  0  0  0
  140.3430   72.3110  222.5410 C   0  0  0  0  0  0  0  0  0  0  0  0
  139.5950   73.4650  222.0230 C   0  0  0  0  0  0  0  0  0  0  0  0
  139.9330   73.9510  220.6340 C   0  0  0  0  0  0  0  0  0  0  0  0
  141.2930   73.5410  220.3690 N   0  0  0  0  0  0  0  0  0  0  0  0
  142.4180   74.3550  220.1810 C   0  0  0  0  0  0  0  0  0  0  0  0
  143.5240   73.7320  219.9670 O   0  0  0  0  0  0  0  0  0  0  0  0
  142.5190   75.8140  220.1930 C   0  0  1  0  0  0  0  0  0  0  0  0
  143.6400   76.3990  219.5330 N   0  0  0  0  0  0  0  0  0  0  0  0
  141.2920   76.5200  219.6350 C   0  0  0  0  0  0  0  0  0  0  0  0
  140.8700   77.7050  220.4410 C   0  0  0  0  0  0  0  0  0  0  0  0
  141.8090   78.8810  220.0960 C   0  0  0  0  0  0  0  0  0  0  0  0
  141.6350   79.7340  221.3010 C   0  0  0  0  0  0  0  0  0  0  0  0
  141.7690   81.1090  221.5120 C   0  0  0  0  0  0  0  0  0  0  0  0
  141.5330   81.6080  222.7760 C   0  0  0  0  0  0  0  0  0  0  0  0
  141.1690   80.8180  223.8470 C   0  0  0  0  0  0  0  0  0  0  0  0
  141.0350   79.4500  223.6360 C   0  0  0  0  0  0  0  0  0  0  0  0
  141.2700   78.9450  222.3730 C   0  0  0  0  0  0  0  0  0  0  0  0
  141.1880   77.5320  221.9180 C   0  0  0  0  0  0  0  0  0  0  0  0
  141.4580   72.0620  220.3000 C   0  0  0  0  0  0  0  0  0  0  0  0
  141.1670   71.4810  221.6570 C   0  0  0  0  0  0  0  0  0  0  0  0
  136.3261   70.3544  225.3697 H   0  0  0  0  0  0  0  0  0  0  0  0
  135.2791   70.2216  223.9161 H   0  0  0  0  0  0  0  0  0  0  0  0
  136.9144   69.4782  223.9161 H   0  0  0  0  0  0  0  0  0  0  0  0
  136.1783   72.1316  223.0633 H   0  0  0  0  0  0  0  0  0  0  0  0
  137.1568   72.3141  224.5556 H   0  0  0  0  0  0  0  0  0  0  0  0
  141.0659   72.8702  225.1897 H   0  0  0  0  0  0  0  0  0  0  0  0
  141.8656   72.0638  227.3648 H   0  0  0  0  0  0  0  0  0  0  0  0
  141.2080   69.8155  228.2004 H   0  0  0  0  0  0  0  0  0  0  0  0
  139.7268   68.4255  226.7819 H   0  0  0  0  0  0  0  0  0  0  0  0
  138.9109   69.2314  224.5868 H   0  0  0  0  0  0  0  0  0  0  0  0
  141.1965   72.7621  223.0683 H   0  0  0  0  0  0  0  0  0  0  0  0
  138.5288   73.1945  222.0266 H   0  0  0  0  0  0  0  0  0  0  0  0
  139.8727   74.2980  222.6856 H   0  0  0  0  0  0  0  0  0  0  0  0
  139.2510   73.4998  219.8983 H   0  0  0  0  0  0  0  0  0  0  0  0
  139.8283   75.0436  220.5612 H   0  0  0  0  0  0  0  0  0  0  0  0
  142.6346   75.9735  221.2752 H   0  0  0  0  0  0  0  0  0  0  0  0
  144.3630   75.7440  219.1970 H   0  0  0  0  0  0  0  0  0  0  0  0
  144.0620   77.2230  219.9830 H   0  0  0  0  0  0  0  0  0  0  0  0
  141.5186   76.8568  218.6126 H   0  0  0  0  0  0  0  0  0  0  0  0
  140.4626   75.7980  219.6614 H   0  0  0  0  0  0  0  0  0  0  0  0
  139.7982   77.8466  220.2380 H   0  0  0  0  0  0  0  0  0  0  0  0
  142.8511   78.5478  219.9821 H   0  0  0  0  0  0  0  0  0  0  0  0
  141.5817   79.3831  219.1440 H   0  0  0  0  0  0  0  0  0  0  0  0
  142.0564   81.7787  220.6880 H   0  0  0  0  0  0  0  0  0  0  0  0
  141.6404   82.6906  222.9384 H   0  0  0  0  0  0  0  0  0  0  0  0
  140.9899   81.2576  224.8393 H   0  0  0  0  0  0  0  0  0  0  0  0
  140.7468   78.7821  224.4611 H   0  0  0  0  0  0  0  0  0  0  0  0
  142.1435   77.0070  222.0642 H   0  0  0  0  0  0  0  0  0  0  0  0
  140.4513   76.9270  222.4667 H   0  0  0  0  0  0  0  0  0  0  0  0
  140.7578   71.6454  219.5610 H   0  0  0  0  0  0  0  0  0  0  0  0
  142.4860   71.8130  219.9980 H   0  0  0  0  0  0  0  0  0  0  0  0
  140.6459   70.5235  221.5099 H   0  0  0  0  0  0  0  0  0  0  0  0
  142.1419   71.3863  222.1577 H   0  0  0  0  0  0  0  0  0  0  0  0
  1  2  1  0
  2  3  1  0
  3  4  2  0
  3  5  1  0
  5  6  1  0
  6  7  2  0
  7  8  1  0
  8  9  2  0
  9 10  1  0
 10 11  2  0
  5 12  1  0
 12 13  1  0
 13 14  1  0
 14 15  1  0
 15 16  1  0
 16 17  2  0
 16 18  1  0
 18 19  1  0
 18 20  1  0
 20 21  1  0
 21 22  1  0
 22 23  1  0
 23 24  2  0
 24 25  1  0
 25 26  2  0
 26 27  1  0
 27 28  2  0
 28 29  1  0
 15 30  1  0
 30 31  1  0
 11  6  1  0
 31 12  1  0
 29 21  1  0
 28 23  1  0
  1 32  1  0
  1 33  1  0
  1 34  1  0
  2 35  1  0
  2 36  1  0
  7 37  1  0
  8 38  1  0
  9 39  1  0
 10 40  1  0
 11 41  1  0
 12 42  1  0
 13 43  1  0
 13 44  1  0
 14 45  1  0
 14 46  1  0
 18 47  1  1
 19 48  1  0
 19 49  1  0
 20 50  1  0
 20 51  1  0
 21 52  1  0
 22 53  1  0
 22 54  1  0
 24 55  1  0
 25 56  1  0
 26 57  1  0
 27 58  1  0
 29 59  1  0
 29 60  1  0
 30 61  1  0
 30 62  1  0
 31 63  1  0
 31 64  1  0
M  END
>  <smiles>  (1) 
CCC(=O)N(c1ccccc1)C1CCN(C(=O)[C@@H](N)CC2Cc3ccccc3C2)CC1

>  <score_type>  (1) 
oracle

>  <origin>  (1) 
autodockgpu

>  <m_score__min__energy>  (1) 
-9.3200000000000003

>  <m_primary>  (1) 
energy

>  <rmsd>  (1) 
6.150794971388628

>  <m_score__min__rmsd>  (1) 
6.150794971388628

>  <meeko>  (1) 
{"free_energy": -7.84, "intermolecular_energy": -10.23, "internal_energy": -2.2, "cluster_size": 2, "cluster_id": 4, "rank_in_cluster": 1}

>  <energy>  (1) 
-9.32

>  <cluster_rmsd>  (1) 
0.0

>  <cluster>  (1) 
1

$$$$

     RDKit          3D

 64 67  0  0  0  0  0  0  0  0999 V2000
  137.2960   67.9940  222.0980 C   0  0  0  0  0  0  0  0  0  0  0  0
  138.4610   68.1260  223.0980 C   0  0  0  0  0  0  0  0  0  0  0  0
  138.0980   69.1310  224.1410 C   0  0  0  0  0  0  0  0  0  0  0  0
  136.8700   69.1020  224.4700 O   0  0  0  0  0  0  0  0  0  0  0  0
  139.0410   70.0310  224.7060 N   0  0  0  0  0  0  0  0  0  0  0  0
  139.7400   69.8310  225.9080 C   0  0  0  0  0  0  0  0  0  0  0  0
  139.9650   68.6060  226.4940 C   0  0  0  0  0  0  0  0  0  0  0  0
  140.6570   68.4400  227.6870 C   0  0  0  0  0  0  0  0  0  0  0  0
  141.1640   69.5230  228.3560 C   0  0  0  0  0  0  0  0  0  0  0  0
  140.9580   70.7610  227.7980 C   0  0  0  0  0  0  0  0  0  0  0  0
  140.2600   70.9300  226.5940 C   0  0  0  0  0  0  0  0  0  0  0  0
  139.2660   71.2600  223.9150 C   0  0  0  0  0  0  0  0  0  0  0  0
  138.1010   71.4600  223.0420 C   0  0  0  0  0  0  0  0  0  0  0  0
  138.3330   72.1350  221.7110 C   0  0  0  0  0  0  0  0  0  0  0  0
  139.5250   72.9380  221.8530 N   0  0  0  0  0  0  0  0  0  0  0  0
  139.6370   74.3330  221.8010 C   0  0  0  0  0  0  0  0  0  0  0  0
  140.8250   74.8020  221.9680 O   0  0  0  0  0  0  0  0  0  0  0  0
  138.5970   75.3390  221.5830 C   0  0  1  0  0  0  0  0  0  0  0  0
  137.7590   75.6650  222.6910 N   0  0  0  0  0  0  0  0  0  0  0  0
  139.1250   76.6640  221.0550 C   0  0  0  0  0  0  0  0  0  0  0  0
  139.9240   77.4280  222.0600 C   0  0  0  0  0  0  0  0  0  0  0  0
  139.3400   78.8540  222.1570 C   0  0  0  0  0  0  0  0  0  0  0  0
  140.5030   79.5900  222.7180 C   0  0  0  0  0  0  0  0  0  0  0  0
  140.6030   80.7500  223.4910 C   0  0  0  0  0  0  0  0  0  0  0  0
  141.8580   81.1890  223.8620 C   0  0  0  0  0  0  0  0  0  0  0  0
  143.0230   80.5400  223.5080 C   0  0  0  0  0  0  0  0  0  0  0  0
  142.9220   79.3850  222.7390 C   0  0  0  0  0  0  0  0  0  0  0  0
  141.6690   78.9420  222.3650 C   0  0  0  0  0  0  0  0  0  0  0  0
  141.3230   77.7450  221.5530 C   0  0  0  0  0  0  0  0  0  0  0  0
  140.7540   72.1280  222.0830 C   0  0  0  0  0  0  0  0  0  0  0  0
  140.6320   71.4310  223.4110 C   0  0  0  0  0  0  0  0  0  0  0  0
  136.3501   67.8868  222.6491 H   0  0  0  0  0  0  0  0  0  0  0  0
  137.2521   68.8929  221.4655 H   0  0  0  0  0  0  0  0  0  0  0  0
  137.4543   67.1080  221.4655 H   0  0  0  0  0  0  0  0  0  0  0  0
  138.6497   67.1526  223.5743 H   0  0  0  0  0  0  0  0  0  0  0  0
  139.3685   68.4523  222.5688 H   0  0  0  0  0  0  0  0  0  0  0  0
  139.5754   67.7093  225.9899 H   0  0  0  0  0  0  0  0  0  0  0  0
  140.7993   67.4298  228.0984 H   0  0  0  0  0  0  0  0  0  0  0  0
  141.7137   69.4057  229.3016 H   0  0  0  0  0  0  0  0  0  0  0  0
  141.3536   71.6490  228.3127 H   0  0  0  0  0  0  0  0  0  0  0  0
  140.1203   71.9414  226.1846 H   0  0  0  0  0  0  0  0  0  0  0  0
  139.2866   72.1624  224.5437 H   0  0  0  0  0  0  0  0  0  0  0  0
  137.6687   70.4693  222.8378 H   0  0  0  0  0  0  0  0  0  0  0  0
  137.4512   72.1525  223.5972 H   0  0  0  0  0  0  0  0  0  0  0  0
  138.4762   71.3804  220.9235 H   0  0  0  0  0  0  0  0  0  0  0  0
  137.4703   72.7556  221.4273 H   0  0  0  0  0  0  0  0  0  0  0  0
  137.9893   74.8068  220.8363 H   0  0  0  0  0  0  0  0  0  0  0  0
  137.7250   74.9720  223.4560 H   0  0  0  0  0  0  0  0  0  0  0  0
  136.8210   76.0240  222.4690 H   0  0  0  0  0  0  0  0  0  0  0  0
  139.7638   76.4619  220.1826 H   0  0  0  0  0  0  0  0  0  0  0  0
  138.2520   77.2816  220.7973 H   0  0  0  0  0  0  0  0  0  0  0  0
  139.9177   76.8234  222.9789 H   0  0  0  0  0  0  0  0  0  0  0  0
  139.0527   79.2425  221.1688 H   0  0  0  0  0  0  0  0  0  0  0  0
  138.4195   78.9309  222.7543 H   0  0  0  0  0  0  0  0  0  0  0  0
  139.7015   81.3010  223.7970 H   0  0  0  0  0  0  0  0  0  0  0  0
  141.9331   82.1023  224.4705 H   0  0  0  0  0  0  0  0  0  0  0  0
  144.0036   80.9248  223.8247 H   0  0  0  0  0  0  0  0  0  0  0  0
  143.8244   78.8346  222.4344 H   0  0  0  0  0  0  0  0  0  0  0  0
  141.3177   77.9768  220.4777 H   0  0  0  0  0  0  0  0  0  0  0  0
  142.0357   76.9133  221.6543 H   0  0  0  0  0  0  0  0  0  0  0  0
  140.8606   71.3818  221.2819 H   0  0  0  0  0  0  0  0  0  0  0  0
  141.6387   72.7817  222.0831 H   0  0  0  0  0  0  0  0  0  0  0  0
  141.0832   70.4327  223.3117 H   0  0  0  0  0  0  0  0  0  0  0  0
  141.1415   72.0798  224.1386 H   0  0  0  0  0  0  0  0  0  0  0  0
  1  2  1  0
  2  3  1  0
  3  4  2  0
  3  5  1  0
  5  6  1  0
  6  7  2  0
  7  8  1  0
  8  9  2  0
  9 10  1  0
 10 11  2  0
  5 12  1  0
 12 13  1  0
 13 14  1  0
 14 15  1  0
 15 16  1  0
 16 17  2  0
 16 18  1  0
 18 19  1  0
 18 20  1  0
 20 21  1  0
 21 22  1  0
 22 23  1  0
 23 24  2  0
 24 25  1  0
 25 26  2  0
 26 27  1  0
 27 28  2  0
 28 29  1  0
 15 30  1  0
 30 31  1  0
 11  6  1  0
 31 12  1  0
 29 21  1  0
 28 23  1  0
  1 32  1  0
  1 33  1  0
  1 34  1  0
  2 35  1  0
  2 36  1  0
  7 37  1  0
  8 38  1  0
  9 39  1  0
 10 40  1  0
 11 41  1  0
 12 42  1  0
 13 43  1  0
 13 44  1  0
 14 45  1  0
 14 46  1  0
 18 47  1  6
 19 48  1  0
 19 49  1  0
 20 50  1  0
 20 51  1  0
 21 52  1  0
 22 53  1  0
 22 54  1  0
 24 55  1  0
 25 56  1  0
 26 57  1  0
 27 58  1  0
 29 59  1  0
 29 60  1  0
 30 61  1  0
 30 62  1  0
 31 63  1  0
 31 64  1  0
M  END
>  <smiles>  (2) 
CCC(=O)N(c1ccccc1)C1CCN(C(=O)[C@@H](N)CC2Cc3ccccc3C2)CC1

>  <score_type>  (2) 
oracle

>  <origin>  (2) 
autodockgpu

>  <m_score__min__energy>  (2) 
-9.3200000000000003

>  <m_primary>  (2) 
energy

>  <rmsd>  (2) 
7.070941046927969

>  <m_score__min__rmsd>  (2) 
7.070941046927969

>  <meeko>  (2) 
{"free_energy": -9.2, "intermolecular_energy": -11.58, "internal_energy": -1.49, "cluster_size": 24, "cluster_id": 1, "rank_in_cluster": 5}

>  <energy>  (2) 
-9.31

>  <cluster_rmsd>  (2) 
0.33

>  <cluster>  (2) 
1

$$$$

     RDKit          3D

 64 67  0  0  0  0  0  0  0  0999 V2000
  142.5770   79.0680  218.2130 C   0  0  0  0  0  0  0  0  0  0  0  0
  142.2350   77.5660  218.2760 C   0  0  0  0  0  0  0  0  0  0  0  0
  142.5680   77.0460  219.6350 C   0  0  0  0  0  0  0  0  0  0  0  0
  143.7080   76.4870  219.7010 O   0  0  0  0  0  0  0  0  0  0  0  0
  141.6890   77.1690  220.7450 N   0  0  0  0  0  0  0  0  0  0  0  0
  141.6510   78.2510  221.6400 C   0  0  0  0  0  0  0  0  0  0  0  0
  141.8070   79.5720  221.2870 C   0  0  0  0  0  0  0  0  0  0  0  0
  141.7690   80.6210  222.1960 C   0  0  0  0  0  0  0  0  0  0  0  0
  141.5700   80.3800  223.5300 C   0  0  0  0  0  0  0  0  0  0  0  0
  141.4110   79.0720  223.9180 C   0  0  0  0  0  0  0  0  0  0  0  0
  141.4480   78.0130  223.0000 C   0  0  0  0  0  0  0  0  0  0  0  0
  140.7560   76.0340  220.9160 C   0  0  0  0  0  0  0  0  0  0  0  0
  141.4810   74.9460  221.5880 C   0  0  0  0  0  0  0  0  0  0  0  0
  141.0710   73.5290  221.2620 C   0  0  0  0  0  0  0  0  0  0  0  0
  139.6980   73.5830  220.8180 N   0  0  0  0  0  0  0  0  0  0  0  0
  138.5680   73.0350  221.4390 C   0  0  0  0  0  0  0  0  0  0  0  0
  137.4490   73.2370  220.8340 O   0  0  0  0  0  0  0  0  0  0  0  0
  138.4740   72.2650  222.6790 C   0  0  1  0  0  0  0  0  0  0  0  0
  137.1890   72.1630  223.2910 N   0  0  0  0  0  0  0  0  0  0  0  0
  138.9930   70.8400  222.5580 C   0  0  0  0  0  0  0  0  0  0  0  0
  139.8370   70.4160  223.7150 C   0  0  0  0  0  0  0  0  0  0  0  0
  139.0570   69.3490  224.5140 C   0  0  0  0  0  0  0  0  0  0  0  0
  139.7310   69.4490  225.8360 C   0  0  0  0  0  0  0  0  0  0  0  0
  139.9070   68.5330  226.8770 C   0  0  0  0  0  0  0  0  0  0  0  0
  140.5960   68.9390  228.0020 C   0  0  0  0  0  0  0  0  0  0  0  0
  141.1210   70.2050  228.1530 C   0  0  0  0  0  0  0  0  0  0  0  0
  140.9460   71.1160  227.1150 C   0  0  0  0  0  0  0  0  0  0  0  0
  140.2580   70.7150  225.9880 C   0  0  0  0  0  0  0  0  0  0  0  0
  139.9530   71.5080  224.7680 C   0  0  0  0  0  0  0  0  0  0  0  0
  139.5230   74.3280  219.5390 C   0  0  0  0  0  0  0  0  0  0  0  0
  139.8830   75.7710  219.7680 C   0  0  0  0  0  0  0  0  0  0  0  0
  142.6677   79.4665  219.2342 H   0  0  0  0  0  0  0  0  0  0  0  0
  143.5294   79.2052  217.6799 H   0  0  0  0  0  0  0  0  0  0  0  0
  141.7779   79.6040  217.6799 H   0  0  0  0  0  0  0  0  0  0  0  0
  141.1620   77.4240  218.0800 H   0  0  0  0  0  0  0  0  0  0  0  0
  142.8168   77.0213  217.5179 H   0  0  0  0  0  0  0  0  0  0  0  0
  141.9709   79.8101  220.2257 H   0  0  0  0  0  0  0  0  0  0  0  0
  141.8998   81.6543  221.8421 H   0  0  0  0  0  0  0  0  0  0  0  0
  141.5388   81.2013  224.2611 H   0  0  0  0  0  0  0  0  0  0  0  0
  141.2495   78.8483  224.9828 H   0  0  0  0  0  0  0  0  0  0  0  0
  141.3153   76.9809  223.3565 H   0  0  0  0  0  0  0  0  0  0  0  0
  139.9318   76.2714  221.6047 H   0  0  0  0  0  0  0  0  0  0  0  0
  142.5449   75.0492  221.3281 H   0  0  0  0  0  0  0  0  0  0  0  0
  141.2433   75.0680  222.6550 H   0  0  0  0  0  0  0  0  0  0  0  0
  141.7111   73.1236  220.4645 H   0  0  0  0  0  0  0  0  0  0  0  0
  141.1759   72.8759  222.1409 H   0  0  0  0  0  0  0  0  0  0  0  0
  139.1134   72.8870  223.3226 H   0  0  0  0  0  0  0  0  0  0  0  0
  136.3780   72.3510  222.6820 H   0  0  0  0  0  0  0  0  0  0  0  0
  137.0790   72.6120  224.2100 H   0  0  0  0  0  0  0  0  0  0  0  0
  138.1313   70.1599  222.4872 H   0  0  0  0  0  0  0  0  0  0  0  0
  139.6283   70.8008  221.6609 H   0  0  0  0  0  0  0  0  0  0  0  0
  140.8058   70.1131  223.2912 H   0  0  0  0  0  0  0  0  0  0  0  0
  137.9875   69.5965  224.5843 H   0  0  0  0  0  0  0  0  0  0  0  0
  139.0714   68.3433  224.0685 H   0  0  0  0  0  0  0  0  0  0  0  0
  139.5055   67.5117  226.8014 H   0  0  0  0  0  0  0  0  0  0  0  0
  140.7332   68.2159  228.8195 H   0  0  0  0  0  0  0  0  0  0  0  0
  141.6628   70.4872  229.0678 H   0  0  0  0  0  0  0  0  0  0  0  0
  141.3487   72.1367  227.1918 H   0  0  0  0  0  0  0  0  0  0  0  0
  139.0098   72.0637  224.8757 H   0  0  0  0  0  0  0  0  0  0  0  0
  140.7041   72.2770  224.5346 H   0  0  0  0  0  0  0  0  0  0  0  0
  140.1811   73.9001  218.7684 H   0  0  0  0  0  0  0  0  0  0  0  0
  138.4792   74.2513  219.2004 H   0  0  0  0  0  0  0  0  0  0  0  0
  140.3917   76.1398  218.8651 H   0  0  0  0  0  0  0  0  0  0  0  0
  138.9357   76.2851  219.9878 H   0  0  0  0  0  0  0  0  0  0  0  0
  1  2  1  0
  2  3  1  0
  3  4  2  0
  3  5  1  0
  5  6  1  0
  6  7  2  0
  7  8  1  0
  8  9  2  0
  9 10  1  0
 10 11  2  0
  5 12  1  0
 12 13  1  0
 13 14  1  0
 14 15  1  0
 15 16  1  0
 16 17  2  0
 16 18  1  0
 18 19  1  0
 18 20  1  0
 20 21  1  0
 21 22  1  0
 22 23  1  0
 23 24  2  0
 24 25  1  0
 25 26  2  0
 26 27  1  0
 27 28  2  0
 28 29  1  0
 15 30  1  0
 30 31  1  0
 11  6  1  0
 31 12  1  0
 29 21  1  0
 28 23  1  0
  1 32  1  0
  1 33  1  0
  1 34  1  0
  2 35  1  0
  2 36  1  0
  7 37  1  0
  8 38  1  0
  9 39  1  0
 10 40  1  0
 11 41  1  0
 12 42  1  0
 13 43  1  0
 13 44  1  0
 14 45  1  0
 14 46  1  0
 18 47  1  1
 19 48  1  0
 19 49  1  0
 20 50  1  0
 20 51  1  0
 21 52  1  0
 22 53  1  0
 22 54  1  0
 24 55  1  0
 25 56  1  0
 26 57  1  0
 27 58  1  0
 29 59  1  0
 29 60  1  0
 30 61  1  0
 30 62  1  0
 31 63  1  0
 31 64  1  0
M  END
>  <smiles>  (3) 
CCC(=O)N(c1ccccc1)C1CCN(C(=O)[C@@H](N)CC2Cc3ccccc3C2)CC1

>  <score_type>  (3) 
oracle

>  <origin>  (3) 
autodockgpu

>  <m_score__min__energy>  (3) 
-9.3200000000000003

>  <m_primary>  (3) 
energy

>  <rmsd>  (3) 
7.023038327189528

>  <m_score__min__rmsd>  (3) 
7.023038327189528

>  <meeko>  (3) 
{"free_energy": -8.09, "intermolecular_energy": -10.48, "internal_energy": -2.14, "cluster_size": 18, "cluster_id": 3, "rank_in_cluster": 2}

>  <energy>  (3) 
-9.27

>  <cluster_rmsd>  (3) 
0.64

>  <cluster>  (3) 
1

$$$$

     RDKit          3D

 64 67  0  0  0  0  0  0  0  0999 V2000
  142.6520   79.4530  217.8870 C   0  0  0  0  0  0  0  0  0  0  0  0
  142.3030   78.0720  218.4750 C   0  0  0  0  0  0  0  0  0  0  0  0
  140.9700   78.1500  219.1440 C   0  0  0  0  0  0  0  0  0  0  0  0
  140.0460   78.5850  218.3880 O   0  0  0  0  0  0  0  0  0  0  0  0
  140.7640   77.7690  220.4970 N   0  0  0  0  0  0  0  0  0  0  0  0
  141.0660   78.5560  221.6200 C   0  0  0  0  0  0  0  0  0  0  0  0
  140.3120   78.6110  222.7700 C   0  0  0  0  0  0  0  0  0  0  0  0
  140.6350   79.4030  223.8650 C   0  0  0  0  0  0  0  0  0  0  0  0
  141.7560   80.1910  223.8490 C   0  0  0  0  0  0  0  0  0  0  0  0
  142.5320   80.1590  222.7170 C   0  0  0  0  0  0  0  0  0  0  0  0
  142.2070   79.3600  221.6120 C   0  0  0  0  0  0  0  0  0  0  0  0
  140.1740   76.4240  220.6730 C   0  0  0  0  0  0  0  0  0  0  0  0
  141.0700   75.6430  221.5370 C   0  0  0  0  0  0  0  0  0  0  0  0
  141.1290   74.1500  221.3150 C   0  0  0  0  0  0  0  0  0  0  0  0
  139.8770   73.7700  220.7040 N   0  0  0  0  0  0  0  0  0  0  0  0
  138.8690   72.9560  221.2380 C   0  0  0  0  0  0  0  0  0  0  0  0
  137.8390   72.7800  220.4840 O   0  0  0  0  0  0  0  0  0  0  0  0
  138.8150   72.2750  222.5310 C   0  0  1  0  0  0  0  0  0  0  0  0
  137.5270   72.0530  223.1020 N   0  0  0  0  0  0  0  0  0  0  0  0
  139.5150   70.9240  222.5430 C   0  0  0  0  0  0  0  0  0  0  0  0
  140.2120   70.6280  223.8300 C   0  0  0  0  0  0  0  0  0  0  0  0
  139.2590   69.7940  224.7140 C   0  0  0  0  0  0  0  0  0  0  0  0
  139.8320   70.0560  226.0600 C   0  0  0  0  0  0  0  0  0  0  0  0
  139.8230   69.3210  227.2490 C   0  0  0  0  0  0  0  0  0  0  0  0
  140.4600   69.8490  228.3540 C   0  0  0  0  0  0  0  0  0  0  0  0
  141.1080   71.0670  228.3460 C   0  0  0  0  0  0  0  0  0  0  0  0
  141.1160   71.7970  227.1610 C   0  0  0  0  0  0  0  0  0  0  0  0
  140.4800   71.2730  226.0540 C   0  0  0  0  0  0  0  0  0  0  0  0
  140.3620   71.8690  224.6960 C   0  0  0  0  0  0  0  0  0  0  0  0
  139.6880   74.3450  219.3430 C   0  0  0  0  0  0  0  0  0  0  0  0
  139.5890   75.8420  219.4610 C   0  0  0  0  0  0  0  0  0  0  0  0
  142.8320   80.1653  218.7057 H   0  0  0  0  0  0  0  0  0  0  0  0
  143.5573   79.3697  217.2678 H   0  0  0  0  0  0  0  0  0  0  0  0
  141.8158   79.8098  217.2678 H   0  0  0  0  0  0  0  0  0  0  0  0
  142.2671   77.3259  217.6675 H   0  0  0  0  0  0  0  0  0  0  0  0
  143.0689   77.7759  219.2069 H   0  0  0  0  0  0  0  0  0  0  0  0
  139.4032   77.9937  222.8254 H   0  0  0  0  0  0  0  0  0  0  0  0
  139.9852   79.3974  224.7525 H   0  0  0  0  0  0  0  0  0  0  0  0
  142.0232   80.8235  224.7083 H   0  0  0  0  0  0  0  0  0  0  0  0
  143.4385   80.7807  222.6757 H   0  0  0  0  0  0  0  0  0  0  0  0
  142.8599   79.3667  220.7267 H   0  0  0  0  0  0  0  0  0  0  0  0
  139.2255   76.4538  221.2294 H   0  0  0  0  0  0  0  0  0  0  0  0
  142.0876   76.0370  221.3977 H   0  0  0  0  0  0  0  0  0  0  0  0
  140.6539   75.7589  222.5487 H   0  0  0  0  0  0  0  0  0  0  0  0
  141.9674   73.8989  220.6486 H   0  0  0  0  0  0  0  0  0  0  0  0
  141.2838   73.6154  222.2638 H   0  0  0  0  0  0  0  0  0  0  0  0
  139.3395   73.0213  223.1457 H   0  0  0  0  0  0  0  0  0  0  0  0
  136.7320   72.0430  222.4430 H   0  0  0  0  0  0  0  0  0  0  0  0
  137.3010   72.5860  223.9520 H   0  0  0  0  0  0  0  0  0  0  0  0
  138.7636   70.1405  222.3653 H   0  0  0  0  0  0  0  0  0  0  0  0
  140.2834   70.9497  221.7563 H   0  0  0  0  0  0  0  0  0  0  0  0
  141.1722   70.1658  223.5571 H   0  0  0  0  0  0  0  0  0  0  0  0
  138.2209   70.1501  224.6390 H   0  0  0  0  0  0  0  0  0  0  0  0
  139.1987   68.7297  224.4427 H   0  0  0  0  0  0  0  0  0  0  0  0
  139.3199   68.3443  227.3029 H   0  0  0  0  0  0  0  0  0  0  0  0
  140.4505   69.2690  229.2886 H   0  0  0  0  0  0  0  0  0  0  0  0
  141.6040   71.4501  229.2500 H   0  0  0  0  0  0  0  0  0  0  0  0
  141.6199   72.7734  227.1078 H   0  0  0  0  0  0  0  0  0  0  0  0
  139.4796   72.5213  224.6191 H   0  0  0  0  0  0  0  0  0  0  0  0
  141.2089   72.5120  224.4141 H   0  0  0  0  0  0  0  0  0  0  0  0
  140.5453   74.0798  218.7068 H   0  0  0  0  0  0  0  0  0  0  0  0
  138.7693   73.9432  218.8907 H   0  0  0  0  0  0  0  0  0  0  0  0
  140.1002   76.2840  218.5931 H   0  0  0  0  0  0  0  0  0  0  0  0
  138.5137   76.0687  219.5082 H   0  0  0  0  0  0  0  0  0  0  0  0
  1  2  1  0
  2  3  1  0
  3  4  2  0
  3  5  1  0
  5  6  1  0
  6  7  2  0
  7  8  1  0
  8  9  2  0
  9 10  1  0
 10 11  2  0
  5 12  1  0
 12 13  1  0
 13 14  1  0
 14 15  1  0
 15 16  1  0
 16 17  2  0
 16 18  1  0
 18 19  1  0
 18 20  1  0
 20 21  1  0
 21 22  1  0
 22 23  1  0
 23 24  2  0
 24 25  1  0
 25 26  2  0
 26 27  1  0
 27 28  2  0
 28 29  1  0
 15 30  1  0
 30 31  1  0
 11  6  1  0
 31 12  1  0
 29 21  1  0
 28 23  1  0
  1 32  1  0
  1 33  1  0
  1 34  1  0
  2 35  1  0
  2 36  1  0
  7 37  1  0
  8 38  1  0
  9 39  1  0
 10 40  1  0
 11 41  1  0
 12 42  1  0
 13 43  1  0
 13 44  1  0
 14 45  1  0
 14 46  1  0
 18 47  1  1
 19 48  1  0
 19 49  1  0
 20 50  1  0
 20 51  1  0
 21 52  1  0
 22 53  1  0
 22 54  1  0
 24 55  1  0
 25 56  1  0
 26 57  1  0
 27 58  1  0
 29 59  1  0
 29 60  1  0
 30 61  1  0
 30 62  1  0
 31 63  1  0
 31 64  1  0
M  END
>  <smiles>  (4) 
CCC(=O)N(c1ccccc1)C1CCN(C(=O)[C@@H](N)CC2Cc3ccccc3C2)CC1

>  <score_type>  (4) 
oracle

>  <origin>  (4) 
autodockgpu

>  <m_score__min__energy>  (4) 
-9.3200000000000003

>  <m_primary>  (4) 
energy

>  <rmsd>  (4) 
6.8214176008374

>  <m_score__min__rmsd>  (4) 
6.8214176008374

>  <meeko>  (4) 
{"free_energy": -7.78, "intermolecular_energy": -10.16, "internal_energy": -2.05, "cluster_size": 18, "cluster_id": 3, "rank_in_cluster": 17}

>  <energy>  (4) 
-9.27

>  <cluster_rmsd>  (4) 
0.65

>  <cluster>  (4) 
1

$$$$

     RDKit          3D

 64 67  0  0  0  0  0  0  0  0999 V2000
  142.9060   77.4710  216.9670 C   0  0  0  0  0  0  0  0  0  0  0  0
  142.3580   78.1980  218.2110 C   0  0  0  0  0  0  0  0  0  0  0  0
  142.5230   77.3170  219.4050 C   0  0  0  0  0  0  0  0  0  0  0  0
  143.4870   76.4950  219.3000 O   0  0  0  0  0  0  0  0  0  0  0  0
  141.6800   77.3980  220.5450 N   0  0  0  0  0  0  0  0  0  0  0  0
  141.6530   78.4570  221.4660 C   0  0  0  0  0  0  0  0  0  0  0  0
  141.4550   78.3190  222.8210 C   0  0  0  0  0  0  0  0  0  0  0  0
  141.4290   79.3880  223.7080 C   0  0  0  0  0  0  0  0  0  0  0  0
  141.6050   80.6700  223.2590 C   0  0  0  0  0  0  0  0  0  0  0  0
  141.8060   80.8450  221.9120 C   0  0  0  0  0  0  0  0  0  0  0  0
  141.8320   79.7670  221.0160 C   0  0  0  0  0  0  0  0  0  0  0  0
  140.7740   76.2410  220.7210 C   0  0  0  0  0  0  0  0  0  0  0  0
  141.4430   75.2680  221.5960 C   0  0  0  0  0  0  0  0  0  0  0  0
  141.1320   73.8060  221.3800 C   0  0  0  0  0  0  0  0  0  0  0  0
  139.8290   73.7440  220.7600 N   0  0  0  0  0  0  0  0  0  0  0  0
  138.6470   73.2080  221.2880 C   0  0  0  0  0  0  0  0  0  0  0  0
  137.6120   73.2880  220.5260 O   0  0  0  0  0  0  0  0  0  0  0  0
  138.4170   72.5690  222.5830 C   0  0  1  0  0  0  0  0  0  0  0  0
  137.0620   72.3430  222.9710 N   0  0  0  0  0  0  0  0  0  0  0  0
  139.1250   71.2320  222.7440 C   0  0  0  0  0  0  0  0  0  0  0  0
  139.1230   70.7230  224.1480 C   0  0  0  0  0  0  0  0  0  0  0  0
  140.2950   71.3880  224.9030 C   0  0  0  0  0  0  0  0  0  0  0  0
  140.4860   70.4220  226.0170 C   0  0  0  0  0  0  0  0  0  0  0  0
  141.0020   70.5620  227.3090 C   0  0  0  0  0  0  0  0  0  0  0  0
  141.0470   69.4490  228.1240 C   0  0  0  0  0  0  0  0  0  0  0  0
  140.6090   68.2030  227.7290 C   0  0  0  0  0  0  0  0  0  0  0  0
  140.0950   68.0650  226.4430 C   0  0  0  0  0  0  0  0  0  0  0  0
  140.0480   69.1750  225.6240 C   0  0  0  0  0  0  0  0  0  0  0  0
  139.5450   69.2640  224.2270 C   0  0  0  0  0  0  0  0  0  0  0  0
  139.7990   74.3390  219.3950 C   0  0  0  0  0  0  0  0  0  0  0  0
  140.0720   75.8150  219.5060 C   0  0  0  0  0  0  0  0  0  0  0  0
  143.5401   76.6298  217.2836 H   0  0  0  0  0  0  0  0  0  0  0  0
  142.0673   77.0916  216.3649 H   0  0  0  0  0  0  0  0  0  0  0  0
  143.5017   78.1729  216.3649 H   0  0  0  0  0  0  0  0  0  0  0  0
  142.9140   79.1346  218.3648 H   0  0  0  0  0  0  0  0  0  0  0  0
  141.2923   78.4286  218.0655 H   0  0  0  0  0  0  0  0  0  0  0  0
  141.3092   77.3060  223.2241 H   0  0  0  0  0  0  0  0  0  0  0  0
  141.2657   79.2032  224.7800 H   0  0  0  0  0  0  0  0  0  0  0  0
  141.5861   81.5255  223.9502 H   0  0  0  0  0  0  0  0  0  0  0  0
  141.9513   81.8638  221.5234 H   0  0  0  0  0  0  0  0  0  0  0  0
  141.9955   79.9554  219.9447 H   0  0  0  0  0  0  0  0  0  0  0  0
  139.8579   76.5068  221.2689 H   0  0  0  0  0  0  0  0  0  0  0  0
  142.5274   75.3971  221.4638 H   0  0  0  0  0  0  0  0  0  0  0  0
  141.0619   75.4894  222.6038 H   0  0  0  0  0  0  0  0  0  0  0  0
  141.8868   73.3515  220.7214 H   0  0  0  0  0  0  0  0  0  0  0  0
  141.1428   73.2552  222.3321 H   0  0  0  0  0  0  0  0  0  0  0  0
  138.8390   73.3444  223.2393 H   0  0  0  0  0  0  0  0  0  0  0  0
  136.3470   72.5110  222.2470 H   0  0  0  0  0  0  0  0  0  0  0  0
  136.7730   72.7280  223.8800 H   0  0  0  0  0  0  0  0  0  0  0  0
  138.6215   70.4920  222.1045 H   0  0  0  0  0  0  0  0  0  0  0  0
  140.1757   71.3852  222.4565 H   0  0  0  0  0  0  0  0  0  0  0  0
  138.1108   70.9064  224.5376 H   0  0  0  0  0  0  0  0  0  0  0  0
  141.1933   71.4629  224.2725 H   0  0  0  0  0  0  0  0  0  0  0  0
  140.1045   72.4231  225.2228 H   0  0  0  0  0  0  0  0  0  0  0  0
  141.3638   71.5369  227.6677 H   0  0  0  0  0  0  0  0  0  0  0  0
  141.4529   69.5619  229.1401 H   0  0  0  0  0  0  0  0  0  0  0  0
  140.6642   67.3419  228.4112 H   0  0  0  0  0  0  0  0  0  0  0  0
  139.7330   67.0896  226.0860 H   0  0  0  0  0  0  0  0  0  0  0  0
  140.3376   69.0352  223.4994 H   0  0  0  0  0  0  0  0  0  0  0  0
  138.7399   68.5514  223.9944 H   0  0  0  0  0  0  0  0  0  0  0  0
  140.5693   73.8662  218.7681 H   0  0  0  0  0  0  0  0  0  0  0  0
  138.8133   74.1736  218.9356 H   0  0  0  0  0  0  0  0  0  0  0  0
  140.6829   76.1120  218.6407 H   0  0  0  0  0  0  0  0  0  0  0  0
  139.0859   76.3010  219.5428 H   0  0  0  0  0  0  0  0  0  0  0  0
  1  2  1  0
  2  3  1  0
  3  4  2  0
  3  5  1  0
  5  6  1  0
  6  7  2  0
  7  8  1  0
  8  9  2  0
  9 10  1  0
 10 11  2  0
  5 12  1  0
 12 13  1  0
 13 14  1  0
 14 15  1  0
 15 16  1  0
 16 17  2  0
 16 18  1  0
 18 19  1  0
 18 20  1  0
 20 21  1  0
 21 22  1  0
 22 23  1  0
 23 24  2  0
 24 25  1  0
 25 26  2  0
 26 27  1  0
 27 28  2  0
 28 29  1  0
 15 30  1  0
 30 31  1  0
 11  6  1  0
 31 12  1  0
 29 21  1  0
 28 23  1  0
  1 32  1  0
  1 33  1  0
  1 34  1  0
  2 35  1  0
  2 36  1  0
  7 37  1  0
  8 38  1  0
  9 39  1  0
 10 40  1  0
 11 41  1  0
 12 42  1  0
 13 43  1  0
 13 44  1  0
 14 45  1  0
 14 46  1  0
 18 47  1  1
 19 48  1  0
 19 49  1  0
 20 50  1  0
 20 51  1  0
 21 52  1  0
 22 53  1  0
 22 54  1  0
 24 55  1  0
 25 56  1  0
 26 57  1  0
 27 58  1  0
 29 59  1  0
 29 60  1  0
 30 61  1  0
 30 62  1  0
 31 63  1  0
 31 64  1  0
M  END
>  <smiles>  (5) 
CCC(=O)N(c1ccccc1)C1CCN(C(=O)[C@@H](N)CC2Cc3ccccc3C2)CC1

>  <score_type>  (5) 
oracle

>  <origin>  (5) 
autodockgpu

>  <m_score__min__energy>  (5) 
-9.3200000000000003

>  <m_primary>  (5) 
energy

>  <rmsd>  (5) 
6.99944402490106

>  <m_score__min__rmsd>  (5) 
6.99944402490106

>  <meeko>  (5) 
{"free_energy": -7.88, "intermolecular_energy": -10.27, "internal_energy": -2.06, "cluster_size": 18, "cluster_id": 3, "rank_in_cluster": 13}

>  <energy>  (5) 
-9.2

>  <cluster_rmsd>  (5) 
0.39

>  <cluster>  (5) 
1

$$$$

     RDKit          3D

 64 67  0  0  0  0  0  0  0  0999 V2000
  134.8760   68.8970  224.9890 C   0  0  0  0  0  0  0  0  0  0  0  0
  135.9060   70.0420  224.9690 C   0  0  0  0  0  0  0  0  0  0  0  0
  137.1950   69.5300  224.4160 C   0  0  0  0  0  0  0  0  0  0  0  0
  137.0510   68.5710  223.5940 O   0  0  0  0  0  0  0  0  0  0  0  0
  138.4590   70.0690  224.7800 N   0  0  0  0  0  0  0  0  0  0  0  0
  139.2720   69.6070  225.8270 C   0  0  0  0  0  0  0  0  0  0  0  0
  139.9380   70.4130  226.7220 C   0  0  0  0  0  0  0  0  0  0  0  0
  140.7400   69.9270  227.7460 C   0  0  0  0  0  0  0  0  0  0  0  0
  140.9100   68.5780  227.9180 C   0  0  0  0  0  0  0  0  0  0  0  0
  140.2590   67.7440  227.0420 C   0  0  0  0  0  0  0  0  0  0  0  0
  139.4490   68.2340  226.0080 C   0  0  0  0  0  0  0  0  0  0  0  0
  138.9010   71.2080  223.9460 C   0  0  0  0  0  0  0  0  0  0  0  0
  137.8590   71.4720  222.9430 C   0  0  0  0  0  0  0  0  0  0  0  0
  138.2980   72.0210  221.6070 C   0  0  0  0  0  0  0  0  0  0  0  0
  139.5570   72.6960  221.8270 N   0  0  0  0  0  0  0  0  0  0  0  0
  139.8340   74.0640  221.7040 C   0  0  0  0  0  0  0  0  0  0  0  0
  141.0460   74.4100  221.9680 O   0  0  0  0  0  0  0  0  0  0  0  0
  138.9450   75.1590  221.3180 C   0  0  1  0  0  0  0  0  0  0  0  0
  137.6460   74.8110  220.8410 N   0  0  0  0  0  0  0  0  0  0  0  0
  138.7230   76.1870  222.4180 C   0  0  0  0  0  0  0  0  0  0  0  0
  139.4780   77.4570  222.2050 C   0  0  0  0  0  0  0  0  0  0  0  0
  140.9210   77.2510  222.7150 C   0  0  0  0  0  0  0  0  0  0  0  0
  141.3360   78.6610  222.9440 C   0  0  0  0  0  0  0  0  0  0  0  0
  142.5840   79.2890  222.9440 C   0  0  0  0  0  0  0  0  0  0  0  0
  142.6390   80.6450  223.1960 C   0  0  0  0  0  0  0  0  0  0  0  0
  141.5220   81.4140  223.4490 C   0  0  0  0  0  0  0  0  0  0  0  0
  140.2800   80.7870  223.4480 C   0  0  0  0  0  0  0  0  0  0  0  0
  140.2200   79.4320  223.1970 C   0  0  0  0  0  0  0  0  0  0  0  0
  139.0160   78.5600  223.1450 C   0  0  0  0  0  0  0  0  0  0  0  0
  140.6540   71.7750  222.2330 C   0  0  0  0  0  0  0  0  0  0  0  0
  140.3210   71.1920  223.5800 C   0  0  0  0  0  0  0  0  0  0  0  0
  134.6398   68.6344  226.0308 H   0  0  0  0  0  0  0  0  0  0  0  0
  133.9586   69.2201  224.4753 H   0  0  0  0  0  0  0  0  0  0  0  0
  135.2940   68.0188  224.4753 H   0  0  0  0  0  0  0  0  0  0  0  0
  135.5336   70.8615  224.3367 H   0  0  0  0  0  0  0  0  0  0  0  0
  136.0639   70.4163  225.9912 H   0  0  0  0  0  0  0  0  0  0  0  0
  139.8289   71.5029  226.6204 H   0  0  0  0  0  0  0  0  0  0  0  0
  141.2433   70.6309  228.4251 H   0  0  0  0  0  0  0  0  0  0  0  0
  141.5423   68.1792  228.7250 H   0  0  0  0  0  0  0  0  0  0  0  0
  140.3771   66.6563  227.1555 H   0  0  0  0  0  0  0  0  0  0  0  0
  138.9465   67.5278  225.3307 H   0  0  0  0  0  0  0  0  0  0  0  0
  138.9622   72.1448  224.5193 H   0  0  0  0  0  0  0  0  0  0  0  0
  137.3369   70.5226  222.7532 H   0  0  0  0  0  0  0  0  0  0  0  0
  137.2426   72.2694  223.3838 H   0  0  0  0  0  0  0  0  0  0  0  0
  138.4287   71.2014  220.8851 H   0  0  0  0  0  0  0  0  0  0  0  0
  137.5460   72.7114  221.1972 H   0  0  0  0  0  0  0  0  0  0  0  0
  139.5232   75.5681  220.4764 H   0  0  0  0  0  0  0  0  0  0  0  0
  137.1070   75.5700  220.3930 H   0  0  0  0  0  0  0  0  0  0  0  0
  137.0560   74.2560  221.4740 H   0  0  0  0  0  0  0  0  0  0  0  0
  137.6496   76.4230  222.4629 H   0  0  0  0  0  0  0  0  0  0  0  0
  139.0914   75.7440  223.3550 H   0  0  0  0  0  0  0  0  0  0  0  0
  139.3562   77.7096  221.1413 H   0  0  0  0  0  0  0  0  0  0  0  0
  140.9422   76.6658  223.6462 H   0  0  0  0  0  0  0  0  0  0  0  0
  141.5720   76.6889  222.0292 H   0  0  0  0  0  0  0  0  0  0  0  0
  143.5021   78.7158  222.7476 H   0  0  0  0  0  0  0  0  0  0  0  0
  143.6228   81.1371  223.1950 H   0  0  0  0  0  0  0  0  0  0  0  0
  141.6108   82.4926  223.6460 H   0  0  0  0  0  0  0  0  0  0  0  0
  139.3626   81.3614  223.6438 H   0  0  0  0  0  0  0  0  0  0  0  0
  138.7657   78.1615  224.1393 H   0  0  0  0  0  0  0  0  0  0  0  0
  138.1030   79.0767  222.8142 H   0  0  0  0  0  0  0  0  0  0  0  0
  140.7512   70.9665  221.4935 H   0  0  0  0  0  0  0  0  0  0  0  0
  141.6047   72.3257  222.2876 H   0  0  0  0  0  0  0  0  0  0  0  0
  140.6606   70.1458  223.5888 H   0  0  0  0  0  0  0  0  0  0  0  0
  140.8281   71.8316  224.3174 H   0  0  0  0  0  0  0  0  0  0  0  0
  1  2  1  0
  2  3  1  0
  3  4  2  0
  3  5  1  0
  5  6  1  0
  6  7  2  0
  7  8  1  0
  8  9  2  0
  9 10  1  0
 10 11  2  0
  5 12  1  0
 12 13  1  0
 13 14  1  0
 14 15  1  0
 15 16  1  0
 16 17  2  0
 16 18  1  0
 18 19  1  0
 18 20  1  0
 20 21  1  0
 21 22  1  0
 22 23  1  0
 23 24  2  0
 24 25  1  0
 25 26  2  0
 26 27  1  0
 27 28  2  0
 28 29  1  0
 15 30  1  0
 30 31  1  0
 11  6  1  0
 31 12  1  0
 29 21  1  0
 28 23  1  0
  1 32  1  0
  1 33  1  0
  1 34  1  0
  2 35  1  0
  2 36  1  0
  7 37  1  0
  8 38  1  0
  9 39  1  0
 10 40  1  0
 11 41  1  0
 12 42  1  0
 13 43  1  0
 13 44  1  0
 14 45  1  0
 14 46  1  0
 18 47  1  6
 19 48  1  0
 19 49  1  0
 20 50  1  0
 20 51  1  0
 21 52  1  0
 22 53  1  0
 22 54  1  0
 24 55  1  0
 25 56  1  0
 26 57  1  0
 27 58  1  0
 29 59  1  0
 29 60  1  0
 30 61  1  0
 30 62  1  0
 31 63  1  0
 31 64  1  0
M  END
>  <smiles>  (6) 
CCC(=O)N(c1ccccc1)C1CCN(C(=O)[C@@H](N)CC2Cc3ccccc3C2)CC1

>  <score_type>  (6) 
oracle

>  <origin>  (6) 
autodockgpu

>  <m_score__min__energy>  (6) 
-9.3200000000000003

>  <m_primary>  (6) 
energy

>  <rmsd>  (6) 
7.329202149074444

>  <m_score__min__rmsd>  (6) 
7.329202149074444

>  <meeko>  (6) 
{"free_energy": -8.52, "intermolecular_energy": -10.91, "internal_energy": -1.44, "cluster_size": 24, "cluster_id": 1, "rank_in_cluster": 21}

>  <energy>  (6) 
-9.19

>  <cluster_rmsd>  (6) 
0.38

>  <cluster>  (6) 
1

$$$$

     RDKit          3D

 64 67  0  0  0  0  0  0  0  0999 V2000
  135.4020   69.2800  223.7510 C   0  0  0  0  0  0  0  0  0  0  0  0
  136.4150   69.4310  224.9040 C   0  0  0  0  0  0  0  0  0  0  0  0
  137.7990   69.3300  224.3540 C   0  0  0  0  0  0  0  0  0  0  0  0
  137.9140   68.4770  223.4180 O   0  0  0  0  0  0  0  0  0  0  0  0
  138.8800   70.1170  224.8350 N   0  0  0  0  0  0  0  0  0  0  0  0
  139.6160   69.8640  226.0040 C   0  0  0  0  0  0  0  0  0  0  0  0
  140.2440   70.8240  226.7640 C   0  0  0  0  0  0  0  0  0  0  0  0
  140.9690   70.5420  227.9140 C   0  0  0  0  0  0  0  0  0  0  0  0
  141.0970   69.2530  228.3590 C   0  0  0  0  0  0  0  0  0  0  0  0
  140.4820   68.2690  227.6250 C   0  0  0  0  0  0  0  0  0  0  0  0
  139.7490   68.5520  226.4640 C   0  0  0  0  0  0  0  0  0  0  0  0
  139.2120   71.2840  223.9900 C   0  0  0  0  0  0  0  0  0  0  0  0
  138.0900   71.5130  223.0680 C   0  0  0  0  0  0  0  0  0  0  0  0
  138.4090   72.0980  221.7120 C   0  0  0  0  0  0  0  0  0  0  0  0
  139.6490   72.8260  221.8530 N   0  0  0  0  0  0  0  0  0  0  0  0
  139.8570   74.2060  221.7320 C   0  0  0  0  0  0  0  0  0  0  0  0
  141.0680   74.6030  221.9150 O   0  0  0  0  0  0  0  0  0  0  0  0
  138.8960   75.2650  221.4270 C   0  0  1  0  0  0  0  0  0  0  0  0
  137.5660   74.8680  221.0970 N   0  0  0  0  0  0  0  0  0  0  0  0
  138.7580   76.3060  222.5280 C   0  0  0  0  0  0  0  0  0  0  0  0
  139.5180   77.5630  222.2560 C   0  0  0  0  0  0  0  0  0  0  0  0
  140.9760   77.3530  222.7170 C   0  0  0  0  0  0  0  0  0  0  0  0
  141.4130   78.7630  222.8950 C   0  0  0  0  0  0  0  0  0  0  0  0
  142.6670   79.3780  222.8330 C   0  0  0  0  0  0  0  0  0  0  0  0
  142.7450   80.7390  223.0490 C   0  0  0  0  0  0  0  0  0  0  0  0
  141.6470   81.5260  223.3240 C   0  0  0  0  0  0  0  0  0  0  0  0
  140.3990   80.9130  223.3850 C   0  0  0  0  0  0  0  0  0  0  0  0
  140.3160   79.5530  223.1700 C   0  0  0  0  0  0  0  0  0  0  0  0
  139.1020   78.6930  223.1840 C   0  0  0  0  0  0  0  0  0  0  0  0
  140.8120   71.9500  222.1670 C   0  0  0  0  0  0  0  0  0  0  0  0
  140.6010   71.3360  223.5250 C   0  0  0  0  0  0  0  0  0  0  0  0
  134.3943   69.1298  224.1656 H   0  0  0  0  0  0  0  0  0  0  0  0
  135.4122   70.1896  223.1325 H   0  0  0  0  0  0  0  0  0  0  0  0
  135.6770   68.4129  223.1325 H   0  0  0  0  0  0  0  0  0  0  0  0
  136.2808   70.4104  225.3864 H   0  0  0  0  0  0  0  0  0  0  0  0
  136.2523   68.6363  225.6469 H   0  0  0  0  0  0  0  0  0  0  0  0
  140.1673   71.8732  226.4425 H   0  0  0  0  0  0  0  0  0  0  0  0
  141.4449   71.3613  228.4728 H   0  0  0  0  0  0  0  0  0  0  0  0
  141.6695   69.0156  229.2678 H   0  0  0  0  0  0  0  0  0  0  0  0
  140.5672   67.2244  227.9589 H   0  0  0  0  0  0  0  0  0  0  0  0
  139.2727   67.7307  225.9085 H   0  0  0  0  0  0  0  0  0  0  0  0
  139.2744   72.2159  224.5711 H   0  0  0  0  0  0  0  0  0  0  0  0
  137.5978   70.5435  222.9010 H   0  0  0  0  0  0  0  0  0  0  0  0
  137.4716   72.2758  223.5636 H   0  0  0  0  0  0  0  0  0  0  0  0
  138.5241   71.2940  220.9702 H   0  0  0  0  0  0  0  0  0  0  0  0
  137.6002   72.7589  221.3669 H   0  0  0  0  0  0  0  0  0  0  0  0
  139.3680   75.6759  220.5223 H   0  0  0  0  0  0  0  0  0  0  0  0
  137.4760   74.0610  220.4590 H   0  0  0  0  0  0  0  0  0  0  0  0
  136.9100   75.6190  220.8440 H   0  0  0  0  0  0  0  0  0  0  0  0
  137.6931   76.5592  222.6367 H   0  0  0  0  0  0  0  0  0  0  0  0
  139.1769   75.8657  223.4449 H   0  0  0  0  0  0  0  0  0  0  0  0
  139.3598   77.7914  221.1917 H   0  0  0  0  0  0  0  0  0  0  0  0
  141.0258   76.7907  223.6611 H   0  0  0  0  0  0  0  0  0  0  0  0
  141.5952   76.7667  222.0221 H   0  0  0  0  0  0  0  0  0  0  0  0
  143.5714   78.7903  222.6169 H   0  0  0  0  0  0  0  0  0  0  0  0
  143.7330   81.2200  222.9992 H   0  0  0  0  0  0  0  0  0  0  0  0
  141.7543   82.6080  223.4905 H   0  0  0  0  0  0  0  0  0  0  0  0
  139.4955   81.5022  223.6007 H   0  0  0  0  0  0  0  0  0  0  0  0
  138.8846   78.3217  224.1964 H   0  0  0  0  0  0  0  0  0  0  0  0
  138.1825   79.2113  222.8742 H   0  0  0  0  0  0  0  0  0  0  0  0
  140.8922   71.1558  221.4101 H   0  0  0  0  0  0  0  0  0  0  0  0
  141.7390   72.5422  222.1634 H   0  0  0  0  0  0  0  0  0  0  0  0
  140.9857   70.3059  223.4937 H   0  0  0  0  0  0  0  0  0  0  0  0
  141.1306   71.9885  224.2347 H   0  0  0  0  0  0  0  0  0  0  0  0
  1  2  1  0
  2  3  1  0
  3  4  2  0
  3  5  1  0
  5  6  1  0
  6  7  2  0
  7  8  1  0
  8  9  2  0
  9 10  1  0
 10 11  2  0
  5 12  1  0
 12 13  1  0
 13 14  1  0
 14 15  1  0
 15 16  1  0
 16 17  2  0
 16 18  1  0
 18 19  1  0
 18 20  1  0
 20 21  1  0
 21 22  1  0
 22 23  1  0
 23 24  2  0
 24 25  1  0
 25 26  2  0
 26 27  1  0
 27 28  2  0
 28 29  1  0
 15 30  1  0
 30 31  1  0
 11  6  1  0
 31 12  1  0
 29 21  1  0
 28 23  1  0
  1 32  1  0
  1 33  1  0
  1 34  1  0
  2 35  1  0
  2 36  1  0
  7 37  1  0
  8 38  1  0
  9 39  1  0
 10 40  1  0
 11 41  1  0
 12 42  1  0
 13 43  1  0
 13 44  1  0
 14 45  1  0
 14 46  1  0
 18 47  1  6
 19 48  1  0
 19 49  1  0
 20 50  1  0
 20 51  1  0
 21 52  1  0
 22 53  1  0
 22 54  1  0
 24 55  1  0
 25 56  1  0
 26 57  1  0
 27 58  1  0
 29 59  1  0
 29 60  1  0
 30 61  1  0
 30 62  1  0
 31 63  1  0
 31 64  1  0
M  END
>  <smiles>  (7) 
CCC(=O)N(c1ccccc1)C1CCN(C(=O)[C@@H](N)CC2Cc3ccccc3C2)CC1

>  <score_type>  (7) 
oracle

>  <origin>  (7) 
autodockgpu

>  <m_score__min__energy>  (7) 
-9.3200000000000003

>  <m_primary>  (7) 
energy

>  <rmsd>  (7) 
7.296758226661493

>  <m_score__min__rmsd>  (7) 
7.296758226661493

>  <meeko>  (7) 
{"free_energy": -8.59, "intermolecular_energy": -10.98, "internal_energy": -1.47, "cluster_size": 24, "cluster_id": 1, "rank_in_cluster": 20}

>  <energy>  (7) 
-9.17

>  <cluster_rmsd>  (7) 
0.39

>  <cluster>  (7) 
1

$$$$

     RDKit          3D

 64 67  0  0  0  0  0  0  0  0999 V2000
  134.5320   68.8270  225.2200 C   0  0  0  0  0  0  0  0  0  0  0  0
  135.7320   69.7880  225.3340 C   0  0  0  0  0  0  0  0  0  0  0  0
  136.8230   69.3160  224.4310 C   0  0  0  0  0  0  0  0  0  0  0  0
  136.4170   68.5560  223.4960 O   0  0  0  0  0  0  0  0  0  0  0  0
  138.1830   69.6870  224.6060 N   0  0  0  0  0  0  0  0  0  0  0  0
  139.0410   69.1930  225.6020 C   0  0  0  0  0  0  0  0  0  0  0  0
  139.2840   67.8600  225.8430 C   0  0  0  0  0  0  0  0  0  0  0  0
  140.1360   67.4000  226.8390 C   0  0  0  0  0  0  0  0  0  0  0  0
  140.7960   68.2830  227.6540 C   0  0  0  0  0  0  0  0  0  0  0  0
  140.5770   69.6220  227.4400 C   0  0  0  0  0  0  0  0  0  0  0  0
  139.7180   70.0860  226.4350 C   0  0  0  0  0  0  0  0  0  0  0  0
  138.6800   70.6770  223.6260 C   0  0  0  0  0  0  0  0  0  0  0  0
  137.5880   71.6170  223.3340 C   0  0  0  0  0  0  0  0  0  0  0  0
  137.5420   72.2260  221.9520 C   0  0  0  0  0  0  0  0  0  0  0  0
  138.8900   72.1920  221.4360 N   0  0  0  0  0  0  0  0  0  0  0  0
  139.7260   73.2760  221.1350 C   0  0  0  0  0  0  0  0  0  0  0  0
  140.8960   72.9680  220.6930 O   0  0  0  0  0  0  0  0  0  0  0  0
  139.4620   74.7100  221.2510 C   0  0  1  0  0  0  0  0  0  0  0  0
  138.9730   75.1870  222.5030 N   0  0  0  0  0  0  0  0  0  0  0  0
  140.6600   75.5840  220.9110 C   0  0  0  0  0  0  0  0  0  0  0  0
  140.5160   76.9960  221.3770 C   0  0  0  0  0  0  0  0  0  0  0  0
  141.4750   77.8780  220.5500 C   0  0  0  0  0  0  0  0  0  0  0  0
  141.6190   79.0500  221.4530 C   0  0  0  0  0  0  0  0  0  0  0  0
  141.9200   80.3940  221.2140 C   0  0  0  0  0  0  0  0  0  0  0  0
  141.9810   81.2560  222.2900 C   0  0  0  0  0  0  0  0  0  0  0  0
  141.7600   80.8600  223.5920 C   0  0  0  0  0  0  0  0  0  0  0  0
  141.4600   79.5220  223.8280 C   0  0  0  0  0  0  0  0  0  0  0  0
  141.3980   78.6550  222.7560 C   0  0  0  0  0  0  0  0  0  0  0  0
  141.0970   77.1990  222.7680 C   0  0  0  0  0  0  0  0  0  0  0  0
  139.4020   70.8100  221.2200 C   0  0  0  0  0  0  0  0  0  0  0  0
  139.5120   70.1220  222.5540 C   0  0  0  0  0  0  0  0  0  0  0  0
  134.1867   68.5505  226.2271 H   0  0  0  0  0  0  0  0  0  0  0  0
  133.7151   69.3234  224.6758 H   0  0  0  0  0  0  0  0  0  0  0  0
  134.8379   67.9214  224.6758 H   0  0  0  0  0  0  0  0  0  0  0  0
  135.4219   70.8012  225.0387 H   0  0  0  0  0  0  0  0  0  0  0  0
  136.0933   69.8082  226.3728 H   0  0  0  0  0  0  0  0  0  0  0  0
  138.7749   67.1171  225.2114 H   0  0  0  0  0  0  0  0  0  0  0  0
  140.2824   66.3183  226.9749 H   0  0  0  0  0  0  0  0  0  0  0  0
  141.4734   67.9334  228.4470 H   0  0  0  0  0  0  0  0  0  0  0  0
  141.0929   70.3541  228.0786 H   0  0  0  0  0  0  0  0  0  0  0  0
  139.5750   71.1683  226.3004 H   0  0  0  0  0  0  0  0  0  0  0  0
  139.4756   71.3127  224.0418 H   0  0  0  0  0  0  0  0  0  0  0  0
  136.6407   71.0798  223.4889 H   0  0  0  0  0  0  0  0  0  0  0  0
  137.7627   72.4676  224.0092 H   0  0  0  0  0  0  0  0  0  0  0  0
  136.8732   71.6418  221.3028 H   0  0  0  0  0  0  0  0  0  0  0  0
  137.1588   73.2565  221.9874 H   0  0  0  0  0  0  0  0  0  0  0  0
  138.6553   74.8022  220.5089 H   0  0  0  0  0  0  0  0  0  0  0  0
  139.5670   74.9990  223.3260 H   0  0  0  0  0  0  0  0  0  0  0  0
  137.9810   75.0070  222.7090 H   0  0  0  0  0  0  0  0  0  0  0  0
  141.5534   75.1502  221.3839 H   0  0  0  0  0  0  0  0  0  0  0  0
  140.7414   75.6108  219.8143 H   0  0  0  0  0  0  0  0  0  0  0  0
  139.4432   77.2303  221.3120 H   0  0  0  0  0  0  0  0  0  0  0  0
  142.4395   77.3776  220.3784 H   0  0  0  0  0  0  0  0  0  0  0  0
  141.1146   78.1215  219.5397 H   0  0  0  0  0  0  0  0  0  0  0  0
  142.1040   80.7562  220.1918 H   0  0  0  0  0  0  0  0  0  0  0  0
  142.2181   82.3130  222.0991 H   0  0  0  0  0  0  0  0  0  0  0  0
  141.8191   81.5812  224.4205 H   0  0  0  0  0  0  0  0  0  0  0  0
  141.2755   79.1616  224.8508 H   0  0  0  0  0  0  0  0  0  0  0  0
  142.0092   76.6016  222.9132 H   0  0  0  0  0  0  0  0  0  0  0  0
  140.4273   76.8869  223.5829 H   0  0  0  0  0  0  0  0  0  0  0  0
  138.7068   70.2546  220.5733 H   0  0  0  0  0  0  0  0  0  0  0  0
  140.3887   70.8474  220.7352 H   0  0  0  0  0  0  0  0  0  0  0  0
  139.2266   69.0687  222.4156 H   0  0  0  0  0  0  0  0  0  0  0  0
  140.5533   70.2630  222.8791 H   0  0  0  0  0  0  0  0  0  0  0  0
  1  2  1  0
  2  3  1  0
  3  4  2  0
  3  5  1  0
  5  6  1  0
  6  7  2  0
  7  8  1  0
  8  9  2  0
  9 10  1  0
 10 11  2  0
  5 12  1  0
 12 13  1  0
 13 14  1  0
 14 15  1  0
 15 16  1  0
 16 17  2  0
 16 18  1  0
 18 19  1  0
 18 20  1  0
 20 21  1  0
 21 22  1  0
 22 23  1  0
 23 24  2  0
 24 25  1  0
 25 26  2  0
 26 27  1  0
 27 28  2  0
 28 29  1  0
 15 30  1  0
 30 31  1  0
 11  6  1  0
 31 12  1  0
 29 21  1  0
 28 23  1  0
  1 32  1  0
  1 33  1  0
  1 34  1  0
  2 35  1  0
  2 36  1  0
  7 37  1  0
  8 38  1  0
  9 39  1  0
 10 40  1  0
 11 41  1  0
 12 42  1  0
 13 43  1  0
 13 44  1  0
 14 45  1  0
 14 46  1  0
 18 47  1  6
 19 48  1  0
 19 49  1  0
 20 50  1  0
 20 51  1  0
 21 52  1  0
 22 53  1  0
 22 54  1  0
 24 55  1  0
 25 56  1  0
 26 57  1  0
 27 58  1  0
 29 59  1  0
 29 60  1  0
 30 61  1  0
 30 62  1  0
 31 63  1  0
 31 64  1  0
M  END
>  <smiles>  (8) 
CCC(=O)N(c1ccccc1)C1CCN(C(=O)[C@@H](N)CC2Cc3ccccc3C2)CC1

>  <score_type>  (8) 
oracle

>  <origin>  (8) 
autodockgpu

>  <m_score__min__energy>  (8) 
-9.3200000000000003

>  <m_primary>  (8) 
energy

>  <rmsd>  (8) 
7.338198266682417

>  <m_score__min__rmsd>  (8) 
7.338198266682417

>  <meeko>  (8) 
{"free_energy": -8.32, "intermolecular_energy": -10.71, "internal_energy": -1.44, "cluster_size": 24, "cluster_id": 1, "rank_in_cluster": 23}

>  <energy>  (8) 
-9.14

>  <cluster_rmsd>  (8) 
0.43

>  <cluster>  (8) 
1

$$$$

     RDKit          3D

 64 67  0  0  0  0  0  0  0  0999 V2000
  138.8970   68.5350  221.6710 C   0  0  0  0  0  0  0  0  0  0  0  0
  138.7660   67.9730  223.1000 C   0  0  0  0  0  0  0  0  0  0  0  0
  138.2740   69.0530  224.0060 C   0  0  0  0  0  0  0  0  0  0  0  0
  137.0130   69.0460  224.1670 O   0  0  0  0  0  0  0  0  0  0  0  0
  139.1390   69.9940  224.6260 N   0  0  0  0  0  0  0  0  0  0  0  0
  139.7820   69.8190  225.8620 C   0  0  0  0  0  0  0  0  0  0  0  0
  139.9250   68.6150  226.5130 C   0  0  0  0  0  0  0  0  0  0  0  0
  140.5630   68.4740  227.7390 C   0  0  0  0  0  0  0  0  0  0  0  0
  141.0970   69.5640  228.3760 C   0  0  0  0  0  0  0  0  0  0  0  0
  140.9720   70.7810  227.7540 C   0  0  0  0  0  0  0  0  0  0  0  0
  140.3290   70.9240  226.5170 C   0  0  0  0  0  0  0  0  0  0  0  0
  139.3440   71.2390  223.8550 C   0  0  0  0  0  0  0  0  0  0  0  0
  138.1310   71.4900  223.0630 C   0  0  0  0  0  0  0  0  0  0  0  0
  138.2950   72.1950  221.7380 C   0  0  0  0  0  0  0  0  0  0  0  0
  139.5140   72.9660  221.8240 N   0  0  0  0  0  0  0  0  0  0  0  0
  139.6560   74.3600  221.8010 C   0  0  0  0  0  0  0  0  0  0  0  0
  140.8640   74.7960  221.9040 O   0  0  0  0  0  0  0  0  0  0  0  0
  138.6300   75.3940  221.6770 C   0  0  1  0  0  0  0  0  0  0  0  0
  137.2690   74.9680  221.6540 N   0  0  0  0  0  0  0  0  0  0  0  0
  138.7110   76.4720  222.7480 C   0  0  0  0  0  0  0  0  0  0  0  0
  139.5270   77.6540  222.3400 C   0  0  0  0  0  0  0  0  0  0  0  0
  140.9720   77.4370  222.8370 C   0  0  0  0  0  0  0  0  0  0  0  0
  141.4700   78.8380  222.8550 C   0  0  0  0  0  0  0  0  0  0  0  0
  142.7500   79.3870  222.7350 C   0  0  0  0  0  0  0  0  0  0  0  0
  142.8870   80.7590  222.7940 C   0  0  0  0  0  0  0  0  0  0  0  0
  141.8230   81.6200  222.9660 C   0  0  0  0  0  0  0  0  0  0  0  0
  140.5490   81.0720  223.0850 C   0  0  0  0  0  0  0  0  0  0  0  0
  140.4070   79.7000  223.0260 C   0  0  0  0  0  0  0  0  0  0  0  0
  139.1570   78.9020  223.1280 C   0  0  0  0  0  0  0  0  0  0  0  0
  140.7340   72.1220  221.9540 C   0  0  0  0  0  0  0  0  0  0  0  0
  140.6790   71.3920  223.2690 C   0  0  0  0  0  0  0  0  0  0  0  0
  139.1465   69.6053  221.7194 H   0  0  0  0  0  0  0  0  0  0  0  0
  139.6937   67.9966  221.1368 H   0  0  0  0  0  0  0  0  0  0  0  0
  137.9443   68.4043  221.1368 H   0  0  0  0  0  0  0  0  0  0  0  0
  138.0521   67.1361  223.1028 H   0  0  0  0  0  0  0  0  0  0  0  0
  139.7457   67.6142  223.4486 H   0  0  0  0  0  0  0  0  0  0  0  0
  139.5112   67.7143  226.0361 H   0  0  0  0  0  0  0  0  0  0  0  0
  140.6403   67.4794  228.2024 H   0  0  0  0  0  0  0  0  0  0  0  0
  141.6053   69.4672  229.3467 H   0  0  0  0  0  0  0  0  0  0  0  0
  141.3902   71.6735  228.2424 H   0  0  0  0  0  0  0  0  0  0  0  0
  140.2543   71.9200  226.0561 H   0  0  0  0  0  0  0  0  0  0  0  0
  139.4266   72.1226  224.5050 H   0  0  0  0  0  0  0  0  0  0  0  0
  137.6620   70.5156  222.8615 H   0  0  0  0  0  0  0  0  0  0  0  0
  137.5353   72.1823  223.6760 H   0  0  0  0  0  0  0  0  0  0  0  0
  138.3690   71.4589  220.9239 H   0  0  0  0  0  0  0  0  0  0  0  0
  137.4319   72.8432  221.5260 H   0  0  0  0  0  0  0  0  0  0  0  0
  138.8873   75.7784  220.6790 H   0  0  0  0  0  0  0  0  0  0  0  0
  136.5800   75.6600  221.3190 H   0  0  0  0  0  0  0  0  0  0  0  0
  136.9270   74.4730  222.4880 H   0  0  0  0  0  0  0  0  0  0  0  0
  137.6908   76.8146  222.9756 H   0  0  0  0  0  0  0  0  0  0  0  0
  139.2043   76.0236  223.6230 H   0  0  0  0  0  0  0  0  0  0  0  0
  139.3841   77.7632  221.2548 H   0  0  0  0  0  0  0  0  0  0  0  0
  140.9923   76.9866  223.8404 H   0  0  0  0  0  0  0  0  0  0  0  0
  141.5684   76.7481  222.2208 H   0  0  0  0  0  0  0  0  0  0  0  0
  143.6286   78.7398  222.5966 H   0  0  0  0  0  0  0  0  0  0  0  0
  143.8956   81.1877  222.6991 H   0  0  0  0  0  0  0  0  0  0  0  0
  141.9769   82.7084  223.0079 H   0  0  0  0  0  0  0  0  0  0  0  0
  139.6712   81.7204  223.2236 H   0  0  0  0  0  0  0  0  0  0  0  0
  138.9191   78.6604  224.1744 H   0  0  0  0  0  0  0  0  0  0  0  0
  138.2626   79.4204  222.7520 H   0  0  0  0  0  0  0  0  0  0  0  0
  140.7710   71.3956  221.1288 H   0  0  0  0  0  0  0  0  0  0  0  0
  141.6329   72.7547  221.9143 H   0  0  0  0  0  0  0  0  0  0  0  0
  141.0981   70.3866  223.1154 H   0  0  0  0  0  0  0  0  0  0  0  0
  141.2495   72.0089  223.9789 H   0  0  0  0  0  0  0  0  0  0  0  0
  1  2  1  0
  2  3  1  0
  3  4  2  0
  3  5  1  0
  5  6  1  0
  6  7  2  0
  7  8  1  0
  8  9  2  0
  9 10  1  0
 10 11  2  0
  5 12  1  0
 12 13  1  0
 13 14  1  0
 14 15  1  0
 15 16  1  0
 16 17  2  0
 16 18  1  0
 18 19  1  0
 18 20  1  0
 20 21  1  0
 21 22  1  0
 22 23  1  0
 23 24  2  0
 24 25  1  0
 25 26  2  0
 26 27  1  0
 27 28  2  0
 28 29  1  0
 15 30  1  0
 30 31  1  0
 11  6  1  0
 31 12  1  0
 29 21  1  0
 28 23  1  0
  1 32  1  0
  1 33  1  0
  1 34  1  0
  2 35  1  0
  2 36  1  0
  7 37  1  0
  8 38  1  0
  9 39  1  0
 10 40  1  0
 11 41  1  0
 12 42  1  0
 13 43  1  0
 13 44  1  0
 14 45  1  0
 14 46  1  0
 18 47  1  6
 19 48  1  0
 19 49  1  0
 20 50  1  0
 20 51  1  0
 21 52  1  0
 22 53  1  0
 22 54  1  0
 24 55  1  0
 25 56  1  0
 26 57  1  0
 27 58  1  0
 29 59  1  0
 29 60  1  0
 30 61  1  0
 30 62  1  0
 31 63  1  0
 31 64  1  0
M  END
>  <smiles>  (9) 
CCC(=O)N(c1ccccc1)C1CCN(C(=O)[C@@H](N)CC2Cc3ccccc3C2)CC1

>  <score_type>  (9) 
oracle

>  <origin>  (9) 
autodockgpu

>  <m_score__min__energy>  (9) 
-9.3200000000000003

>  <m_primary>  (9) 
energy

>  <rmsd>  (9) 
7.322126142206088

>  <m_score__min__rmsd>  (9) 
7.322126142206088

>  <meeko>  (9) 
{"free_energy": -8.64, "intermolecular_energy": -11.03, "internal_energy": -1.5, "cluster_size": 24, "cluster_id": 1, "rank_in_cluster": 19}

>  <energy>  (9) 
-9.05

>  <cluster_rmsd>  (9) 
0.72

>  <cluster>  (9) 
1

$$$$

     RDKit          3D

 64 67  0  0  0  0  0  0  0  0999 V2000
  138.4900   68.5770  221.7430 C   0  0  0  0  0  0  0  0  0  0  0  0
  138.4820   68.0120  223.1770 C   0  0  0  0  0  0  0  0  0  0  0  0
  138.0980   69.0970  224.1270 C   0  0  0  0  0  0  0  0  0  0  0  0
  136.8500   69.1530  224.3580 O   0  0  0  0  0  0  0  0  0  0  0  0
  139.0450   69.9790  224.7140 N   0  0  0  0  0  0  0  0  0  0  0  0
  139.7170   69.7630  225.9280 C   0  0  0  0  0  0  0  0  0  0  0  0
  140.2980   70.7480  226.6940 C   0  0  0  0  0  0  0  0  0  0  0  0
  140.9600   70.5040  227.8900 C   0  0  0  0  0  0  0  0  0  0  0  0
  141.0700   69.2270  228.3770 C   0  0  0  0  0  0  0  0  0  0  0  0
  140.5020   68.2200  227.6380 C   0  0  0  0  0  0  0  0  0  0  0  0
  139.8330   68.4660  226.4310 C   0  0  0  0  0  0  0  0  0  0  0  0
  139.3060   71.2070  223.9330 C   0  0  0  0  0  0  0  0  0  0  0  0
  138.1060   71.5040  223.1370 C   0  0  0  0  0  0  0  0  0  0  0  0
  138.3030   72.1900  221.8050 C   0  0  0  0  0  0  0  0  0  0  0  0
  139.5550   72.9070  221.8870 N   0  0  0  0  0  0  0  0  0  0  0  0
  139.7580   74.2930  221.8530 C   0  0  0  0  0  0  0  0  0  0  0  0
  140.9830   74.6770  221.9550 O   0  0  0  0  0  0  0  0  0  0  0  0
  138.7790   75.3710  221.7180 C   0  0  1  0  0  0  0  0  0  0  0  0
  138.1930   75.8770  222.9150 N   0  0  0  0  0  0  0  0  0  0  0  0
  139.3000   76.5850  220.9630 C   0  0  0  0  0  0  0  0  0  0  0  0
  139.6400   77.7350  221.8520 C   0  0  0  0  0  0  0  0  0  0  0  0
  139.9660   78.9530  220.9620 C   0  0  0  0  0  0  0  0  0  0  0  0
  140.7740   79.7740  221.9020 C   0  0  0  0  0  0  0  0  0  0  0  0
  141.0110   81.1480  221.9920 C   0  0  0  0  0  0  0  0  0  0  0  0
  141.8270   81.6110  223.0040 C   0  0  0  0  0  0  0  0  0  0  0  0
  142.4240   80.7860  223.9340 C   0  0  0  0  0  0  0  0  0  0  0  0
  142.1870   79.4180  223.8440 C   0  0  0  0  0  0  0  0  0  0  0  0
  141.3710   78.9490  222.8340 C   0  0  0  0  0  0  0  0  0  0  0  0
  140.9800   77.5430  222.5460 C   0  0  0  0  0  0  0  0  0  0  0  0
  140.7370   72.0120  222.0270 C   0  0  0  0  0  0  0  0  0  0  0  0
  140.6470   71.2970  223.3480 C   0  0  0  0  0  0  0  0  0  0  0  0
  138.5056   69.6762  221.7821 H   0  0  0  0  0  0  0  0  0  0  0  0
  139.3831   68.2163  221.2118 H   0  0  0  0  0  0  0  0  0  0  0  0
  137.5870   68.2418  221.2118 H   0  0  0  0  0  0  0  0  0  0  0  0
  137.7554   67.1889  223.2446 H   0  0  0  0  0  0  0  0  0  0  0  0
  139.4828   67.6333  223.4318 H   0  0  0  0  0  0  0  0  0  0  0  0
  140.2343   71.7871  226.3387 H   0  0  0  0  0  0  0  0  0  0  0  0
  141.3996   71.3418  228.4511 H   0  0  0  0  0  0  0  0  0  0  0  0
  141.5926   69.0182  229.3221 H   0  0  0  0  0  0  0  0  0  0  0  0
  140.5740   67.1855  228.0049 H   0  0  0  0  0  0  0  0  0  0  0  0
  139.3937   67.6260  225.8729 H   0  0  0  0  0  0  0  0  0  0  0  0
  139.4273   72.0914  224.5758 H   0  0  0  0  0  0  0  0  0  0  0  0
  137.5948   70.5494  222.9433 H   0  0  0  0  0  0  0  0  0  0  0  0
  137.5403   72.2270  223.7430 H   0  0  0  0  0  0  0  0  0  0  0  0
  138.3456   71.4443  220.9974 H   0  0  0  0  0  0  0  0  0  0  0  0
  137.4697   72.8737  221.5856 H   0  0  0  0  0  0  0  0  0  0  0  0
  138.0021   74.8335  221.1545 H   0  0  0  0  0  0  0  0  0  0  0  0
  138.6900   75.6610  223.7930 H   0  0  0  0  0  0  0  0  0  0  0  0
  137.1770   75.7510  223.0210 H   0  0  0  0  0  0  0  0  0  0  0  0
  140.2054   76.2907  220.4119 H   0  0  0  0  0  0  0  0  0  0  0  0
  138.4953   76.9201  220.2920 H   0  0  0  0  0  0  0  0  0  0  0  0
  138.7967   77.8398  222.5505 H   0  0  0  0  0  0  0  0  0  0  0  0
  140.5478   78.6624  220.0748 H   0  0  0  0  0  0  0  0  0  0  0  0
  139.0845   79.4660  220.5501 H   0  0  0  0  0  0  0  0  0  0  0  0
  140.5573   81.8452  221.2722 H   0  0  0  0  0  0  0  0  0  0  0  0
  142.0106   82.6934  223.0724 H   0  0  0  0  0  0  0  0  0  0  0  0
  143.0690   81.1977  224.7242 H   0  0  0  0  0  0  0  0  0  0  0  0
  142.6417   78.7225  224.5648 H   0  0  0  0  0  0  0  0  0  0  0  0
  141.7081   77.0513  221.8842 H   0  0  0  0  0  0  0  0  0  0  0  0
  140.9347   76.8994  223.4369 H   0  0  0  0  0  0  0  0  0  0  0  0
  140.7441   71.2774  221.2082 H   0  0  0  0  0  0  0  0  0  0  0  0
  141.6629   72.6044  221.9838 H   0  0  0  0  0  0  0  0  0  0  0  0
  141.0222   70.2730  223.2041 H   0  0  0  0  0  0  0  0  0  0  0  0
  141.2419   71.8955  224.0536 H   0  0  0  0  0  0  0  0  0  0  0  0
  1  2  1  0
  2  3  1  0
  3  4  2  0
  3  5  1  0
  5  6  1  0
  6  7  2  0
  7  8  1  0
  8  9  2  0
  9 10  1  0
 10 11  2  0
  5 12  1  0
 12 13  1  0
 13 14  1  0
 14 15  1  0
 15 16  1  0
 16 17  2  0
 16 18  1  0
 18 19  1  0
 18 20  1  0
 20 21  1  0
 21 22  1  0
 22 23  1  0
 23 24  2  0
 24 25  1  0
 25 26  2  0
 26 27  1  0
 27 28  2  0
 28 29  1  0
 15 30  1  0
 30 31  1  0
 11  6  1  0
 31 12  1  0
 29 21  1  0
 28 23  1  0
  1 32  1  0
  1 33  1  0
  1 34  1  0
  2 35  1  0
  2 36  1  0
  7 37  1  0
  8 38  1  0
  9 39  1  0
 10 40  1  0
 11 41  1  0
 12 42  1  0
 13 43  1  0
 13 44  1  0
 14 45  1  0
 14 46  1  0
 18 47  1  6
 19 48  1  0
 19 49  1  0
 20 50  1  0
 20 51  1  0
 21 52  1  0
 22 53  1  0
 22 54  1  0
 24 55  1  0
 25 56  1  0
 26 57  1  0
 27 58  1  0
 29 59  1  0
 29 60  1  0
 30 61  1  0
 30 62  1  0
 31 63  1  0
 31 64  1  0
M  END
>  <smiles>  (10) 
CCC(=O)N(c1ccccc1)C1CCN(C(=O)[C@@H](N)CC2Cc3ccccc3C2)CC1

>  <score_type>  (10) 
oracle

>  <origin>  (10) 
autodockgpu

>  <m_score__min__energy>  (10) 
-9.3200000000000003

>  <m_primary>  (10) 
energy

>  <rmsd>  (10) 
7.082800509887802

>  <m_score__min__rmsd>  (10) 
7.082800509887802

>  <meeko>  (10) 
{"free_energy": -8.87, "intermolecular_energy": -11.26, "internal_energy": -1.61, "cluster_size": 24, "cluster_id": 1, "rank_in_cluster": 12}

>  <energy>  (10) 
-8.99

>  <cluster_rmsd>  (10) 
0.93

>  <cluster>  (10) 
1

$$$$

     RDKit          3D

 64 67  0  0  0  0  0  0  0  0999 V2000
  138.7530   67.0800  222.3050 C   0  0  0  0  0  0  0  0  0  0  0  0
  139.0830   68.5700  222.5170 C   0  0  0  0  0  0  0  0  0  0  0  0
  138.7860   68.9400  223.9320 C   0  0  0  0  0  0  0  0  0  0  0  0
  137.8910   68.2160  224.4700 O   0  0  0  0  0  0  0  0  0  0  0  0
  139.4470   70.0020  224.6070 N   0  0  0  0  0  0  0  0  0  0  0  0
  140.0030   69.9300  225.8940 C   0  0  0  0  0  0  0  0  0  0  0  0
  140.4340   71.0110  226.6290 C   0  0  0  0  0  0  0  0  0  0  0  0
  140.9840   70.9070  227.9000 C   0  0  0  0  0  0  0  0  0  0  0  0
  141.1270   69.6840  228.5000 C   0  0  0  0  0  0  0  0  0  0  0  0
  140.7070   68.5830  227.7950 C   0  0  0  0  0  0  0  0  0  0  0  0
  140.1510   68.6860  226.5120 C   0  0  0  0  0  0  0  0  0  0  0  0
  139.5290   71.2610  223.8360 C   0  0  0  0  0  0  0  0  0  0  0  0
  138.2430   71.4610  223.1520 C   0  0  0  0  0  0  0  0  0  0  0  0
  138.2620   72.1840  221.8260 C   0  0  0  0  0  0  0  0  0  0  0  0
  139.4470   73.0100  221.8180 N   0  0  0  0  0  0  0  0  0  0  0  0
  139.5230   74.4090  221.7990 C   0  0  0  0  0  0  0  0  0  0  0  0
  140.7140   74.9000  221.8060 O   0  0  0  0  0  0  0  0  0  0  0  0
  138.4440   75.3950  221.7740 C   0  0  1  0  0  0  0  0  0  0  0  0
  137.8050   75.7000  223.0130 N   0  0  0  0  0  0  0  0  0  0  0  0
  138.8490   76.7340  221.1740 C   0  0  0  0  0  0  0  0  0  0  0  0
  139.8390   77.4820  222.0050 C   0  0  0  0  0  0  0  0  0  0  0  0
  139.1340   78.7220  222.5960 C   0  0  0  0  0  0  0  0  0  0  0  0
  140.3050   79.5880  222.8940 C   0  0  0  0  0  0  0  0  0  0  0  0
  140.5110   80.6090  223.8260 C   0  0  0  0  0  0  0  0  0  0  0  0
  141.7390   81.2370  223.8550 C   0  0  0  0  0  0  0  0  0  0  0  0
  142.7780   80.9080  223.0100 C   0  0  0  0  0  0  0  0  0  0  0  0
  142.5720   79.8910  222.0830 C   0  0  0  0  0  0  0  0  0  0  0  0
  141.3450   79.2600  222.0500 C   0  0  0  0  0  0  0  0  0  0  0  0
  140.9030   78.1580  221.1540 C   0  0  0  0  0  0  0  0  0  0  0  0
  140.7120   72.2230  221.8350 C   0  0  0  0  0  0  0  0  0  0  0  0
  140.8010   71.4810  223.1410 C   0  0  0  0  0  0  0  0  0  0  0  0
  138.6436   66.5861  223.2818 H   0  0  0  0  0  0  0  0  0  0  0  0
  137.8130   66.9893  221.7409 H   0  0  0  0  0  0  0  0  0  0  0  0
  139.5668   66.6009  221.7409 H   0  0  0  0  0  0  0  0  0  0  0  0
  140.1484   68.7448  222.3065 H   0  0  0  0  0  0  0  0  0  0  0  0
  138.4738   69.1845  221.8378 H   0  0  0  0  0  0  0  0  0  0  0  0
  140.3375   72.0128  226.1851 H   0  0  0  0  0  0  0  0  0  0  0  0
  141.3077   71.8151  228.4297 H   0  0  0  0  0  0  0  0  0  0  0  0
  141.5609   69.5877  229.5062 H   0  0  0  0  0  0  0  0  0  0  0  0
  140.8101   67.5877  228.2518 H   0  0  0  0  0  0  0  0  0  0  0  0
  139.8273   67.7760  225.9856 H   0  0  0  0  0  0  0  0  0  0  0  0
  139.6264   72.1422  224.4872 H   0  0  0  0  0  0  0  0  0  0  0  0
  137.8041   70.4673  222.9789 H   0  0  0  0  0  0  0  0  0  0  0  0
  137.6697   72.1193  223.8213 H   0  0  0  0  0  0  0  0  0  0  0  0
  138.3003   71.4588  220.9998 H   0  0  0  0  0  0  0  0  0  0  0  0
  137.3554   72.7931  221.6955 H   0  0  0  0  0  0  0  0  0  0  0  0
  137.7259   74.8543  221.1401 H   0  0  0  0  0  0  0  0  0  0  0  0
  138.4200   76.0270  223.7740 H   0  0  0  0  0  0  0  0  0  0  0  0
  137.1160   75.0170  223.3560 H   0  0  0  0  0  0  0  0  0  0  0  0
  139.2918   76.5525  220.1836 H   0  0  0  0  0  0  0  0  0  0  0  0
  137.9407   77.3519  221.1169 H   0  0  0  0  0  0  0  0  0  0  0  0
  140.2487   76.7536  222.7203 H   0  0  0  0  0  0  0  0  0  0  0  0
  138.4584   79.1909  221.8654 H   0  0  0  0  0  0  0  0  0  0  0  0
  138.4893   78.5115  223.4620 H   0  0  0  0  0  0  0  0  0  0  0  0
  139.7116   80.9053  224.5211 H   0  0  0  0  0  0  0  0  0  0  0  0
  141.8974   82.0407  224.5892 H   0  0  0  0  0  0  0  0  0  0  0  0
  143.7421   81.4345  223.0672 H   0  0  0  0  0  0  0  0  0  0  0  0
  143.3726   79.5953  221.3890 H   0  0  0  0  0  0  0  0  0  0  0  0
  140.4797   78.5479  220.2166 H   0  0  0  0  0  0  0  0  0  0  0  0
  141.7143   77.4873  220.8349 H   0  0  0  0  0  0  0  0  0  0  0  0
  140.7130   71.5058  221.0010 H   0  0  0  0  0  0  0  0  0  0  0  0
  141.5744   72.8973  221.7275 H   0  0  0  0  0  0  0  0  0  0  0  0
  141.2510   70.4975  222.9408 H   0  0  0  0  0  0  0  0  0  0  0  0
  141.4001   72.1188  223.8076 H   0  0  0  0  0  0  0  0  0  0  0  0
  1  2  1  0
  2  3  1  0
  3  4  2  0
  3  5  1  0
  5  6  1  0
  6  7  2  0
  7  8  1  0
  8  9  2  0
  9 10  1  0
 10 11  2  0
  5 12  1  0
 12 13  1  0
 13 14  1  0
 14 15  1  0
 15 16  1  0
 16 17  2  0
 16 18  1  0
 18 19  1  0
 18 20  1  0
 20 21  1  0
 21 22  1  0
 22 23  1  0
 23 24  2  0
 24 25  1  0
 25 26  2  0
 26 27  1  0
 27 28  2  0
 28 29  1  0
 15 30  1  0
 30 31  1  0
 11  6  1  0
 31 12  1  0
 29 21  1  0
 28 23  1  0
  1 32  1  0
  1 33  1  0
  1 34  1  0
  2 35  1  0
  2 36  1  0
  7 37  1  0
  8 38  1  0
  9 39  1  0
 10 40  1  0
 11 41  1  0
 12 42  1  0
 13 43  1  0
 13 44  1  0
 14 45  1  0
 14 46  1  0
 18 47  1  6
 19 48  1  0
 19 49  1  0
 20 50  1  0
 20 51  1  0
 21 52  1  0
 22 53  1  0
 22 54  1  0
 24 55  1  0
 25 56  1  0
 26 57  1  0
 27 58  1  0
 29 59  1  0
 29 60  1  0
 30 61  1  0
 30 62  1  0
 31 63  1  0
 31 64  1  0
M  END
>  <smiles>  (11) 
CCC(=O)N(c1ccccc1)C1CCN(C(=O)[C@@H](N)CC2Cc3ccccc3C2)CC1

>  <score_type>  (11) 
oracle

>  <origin>  (11) 
autodockgpu

>  <m_score__min__energy>  (11) 
-9.3200000000000003

>  <m_primary>  (11) 
energy

>  <rmsd>  (11) 
7.0713305628656

>  <m_score__min__rmsd>  (11) 
7.0713305628656

>  <meeko>  (11) 
{"free_energy": -8.69, "intermolecular_energy": -11.08, "internal_energy": -1.41, "cluster_size": 24, "cluster_id": 1, "rank_in_cluster": 17}

>  <energy>  (11) 
-8.88

>  <cluster_rmsd>  (11) 
0.55

>  <cluster>  (11) 
1

$$$$

     RDKit          3D

 64 67  0  0  0  0  0  0  0  0999 V2000
  142.5230   79.6320  218.3310 C   0  0  0  0  0  0  0  0  0  0  0  0
  141.7010   78.3280  218.3530 C   0  0  0  0  0  0  0  0  0  0  0  0
  142.1230   77.5050  219.5250 C   0  0  0  0  0  0  0  0  0  0  0  0
  143.2500   76.9370  219.3680 O   0  0  0  0  0  0  0  0  0  0  0  0
  141.3350   77.3760  220.7000 N   0  0  0  0  0  0  0  0  0  0  0  0
  141.2710   78.3100  221.7460 C   0  0  0  0  0  0  0  0  0  0  0  0
  140.3480   78.2880  222.7670 C   0  0  0  0  0  0  0  0  0  0  0  0
  140.3070   79.2300  223.7870 C   0  0  0  0  0  0  0  0  0  0  0  0
  141.2120   80.2580  223.8240 C   0  0  0  0  0  0  0  0  0  0  0  0
  142.1470   80.3110  222.8200 C   0  0  0  0  0  0  0  0  0  0  0  0
  142.1900   79.3600  221.7900 C   0  0  0  0  0  0  0  0  0  0  0  0
  140.5350   76.1340  220.7670 C   0  0  0  0  0  0  0  0  0  0  0  0
  141.1250   75.2660  221.7960 C   0  0  0  0  0  0  0  0  0  0  0  0
  141.0100   73.7720  221.6010 C   0  0  0  0  0  0  0  0  0  0  0  0
  139.8570   73.5500  220.7600 N   0  0  0  0  0  0  0  0  0  0  0  0
  138.6580   72.9050  221.0930 C   0  0  0  0  0  0  0  0  0  0  0  0
  137.7790   72.8480  220.1540 O   0  0  0  0  0  0  0  0  0  0  0  0
  138.2590   72.2850  222.3560 C   0  0  1  0  0  0  0  0  0  0  0  0
  136.9110   71.8300  222.4660 N   0  0  0  0  0  0  0  0  0  0  0  0
  139.1310   71.1060  222.7640 C   0  0  0  0  0  0  0  0  0  0  0  0
  139.1190   70.8410  224.2340 C   0  0  0  0  0  0  0  0  0  0  0  0
  140.3640   71.5110  224.8540 C   0  0  0  0  0  0  0  0  0  0  0  0
  140.4980   70.7300  226.1130 C   0  0  0  0  0  0  0  0  0  0  0  0
  141.0560   71.0350  227.3580 C   0  0  0  0  0  0  0  0  0  0  0  0
  141.0230   70.0740  228.3470 C   0  0  0  0  0  0  0  0  0  0  0  0
  140.4660   68.8250  228.1720 C   0  0  0  0  0  0  0  0  0  0  0  0
  139.9100   68.5230  226.9320 C   0  0  0  0  0  0  0  0  0  0  0  0
  139.9400   69.4810  225.9390 C   0  0  0  0  0  0  0  0  0  0  0  0
  139.4120   69.3830  224.5520 C   0  0  0  0  0  0  0  0  0  0  0  0
  140.0190   74.0970  219.3840 C   0  0  0  0  0  0  0  0  0  0  0  0
  140.1160   75.5960  219.4690 C   0  0  0  0  0  0  0  0  0  0  0  0
  142.7264   79.9547  219.3627 H   0  0  0  0  0  0  0  0  0  0  0  0
  143.4743   79.4570  217.8073 H   0  0  0  0  0  0  0  0  0  0  0  0
  141.9548   80.4148  217.8073 H   0  0  0  0  0  0  0  0  0  0  0  0
  140.6309   78.5684  218.4377 H   0  0  0  0  0  0  0  0  0  0  0  0
  141.8731   77.7654  217.4235 H   0  0  0  0  0  0  0  0  0  0  0  0
  139.6018   77.4799  222.7756 H   0  0  0  0  0  0  0  0  0  0  0  0
  139.5409   79.1499  224.5723 H   0  0  0  0  0  0  0  0  0  0  0  0
  141.1904   81.0107  224.6259 H   0  0  0  0  0  0  0  0  0  0  0  0
  142.8862   81.1256  222.8236 H   0  0  0  0  0  0  0  0  0  0  0  0
  142.9578   79.4426  221.0066 H   0  0  0  0  0  0  0  0  0  0  0  0
  139.5116   76.3174  221.1262 H   0  0  0  0  0  0  0  0  0  0  0  0
  142.1962   75.5085  221.8564 H   0  0  0  0  0  0  0  0  0  0  0  0
  140.5421   75.4747  222.7052 H   0  0  0  0  0  0  0  0  0  0  0  0
  141.9157   73.3827  221.1129 H   0  0  0  0  0  0  0  0  0  0  0  0
  140.9012   73.2546  222.5656 H   0  0  0  0  0  0  0  0  0  0  0  0
  138.3867   73.1488  223.0250 H   0  0  0  0  0  0  0  0  0  0  0  0
  136.3320   71.9100  221.6150 H   0  0  0  0  0  0  0  0  0  0  0  0
  136.3910   72.1280  223.3010 H   0  0  0  0  0  0  0  0  0  0  0  0
  138.7676   70.2071  222.2445 H   0  0  0  0  0  0  0  0  0  0  0  0
  140.1658   71.3559  222.4872 H   0  0  0  0  0  0  0  0  0  0  0  0
  138.1376   71.1794  224.5978 H   0  0  0  0  0  0  0  0  0  0  0  0
  141.2486   71.3973  224.2102 H   0  0  0  0  0  0  0  0  0  0  0  0
  140.2741   72.5979  224.9978 H   0  0  0  0  0  0  0  0  0  0  0  0
  141.5110   72.0189  227.5447 H   0  0  0  0  0  0  0  0  0  0  0  0
  141.4636   70.3165  229.3253 H   0  0  0  0  0  0  0  0  0  0  0  0
  140.4611   68.0882  228.9888 H   0  0  0  0  0  0  0  0  0  0  0  0
  139.4550   67.5387  226.7470 H   0  0  0  0  0  0  0  0  0  0  0  0
  140.1627   68.9651  223.8651 H   0  0  0  0  0  0  0  0  0  0  0  0
  138.5413   68.7185  224.4500 H   0  0  0  0  0  0  0  0  0  0  0  0
  140.9355   73.6919  218.9302 H   0  0  0  0  0  0  0  0  0  0  0  0
  139.1567   73.8119  218.7635 H   0  0  0  0  0  0  0  0  0  0  0  0
  140.8425   75.9309  218.7140 H   0  0  0  0  0  0  0  0  0  0  0  0
  139.0955   75.9721  219.3042 H   0  0  0  0  0  0  0  0  0  0  0  0
  1  2  1  0
  2  3  1  0
  3  4  2  0
  3  5  1  0
  5  6  1  0
  6  7  2  0
  7  8  1  0
  8  9  2  0
  9 10  1  0
 10 11  2  0
  5 12  1  0
 12 13  1  0
 13 14  1  0
 14 15  1  0
 15 16  1  0
 16 17  2  0
 16 18  1  0
 18 19  1  0
 18 20  1  0
 20 21  1  0
 21 22  1  0
 22 23  1  0
 23 24  2  0
 24 25  1  0
 25 26  2  0
 26 27  1  0
 27 28  2  0
 28 29  1  0
 15 30  1  0
 30 31  1  0
 11  6  1  0
 31 12  1  0
 29 21  1  0
 28 23  1  0
  1 32  1  0
  1 33  1  0
  1 34  1  0
  2 35  1  0
  2 36  1  0
  7 37  1  0
  8 38  1  0
  9 39  1  0
 10 40  1  0
 11 41  1  0
 12 42  1  0
 13 43  1  0
 13 44  1  0
 14 45  1  0
 14 46  1  0
 18 47  1  1
 19 48  1  0
 19 49  1  0
 20 50  1  0
 20 51  1  0
 21 52  1  0
 22 53  1  0
 22 54  1  0
 24 55  1  0
 25 56  1  0
 26 57  1  0
 27 58  1  0
 29 59  1  0
 29 60  1  0
 30 61  1  0
 30 62  1  0
 31 63  1  0
 31 64  1  0
M  END
>  <smiles>  (12) 
CCC(=O)N(c1ccccc1)C1CCN(C(=O)[C@@H](N)CC2Cc3ccccc3C2)CC1

>  <score_type>  (12) 
oracle

>  <origin>  (12) 
autodockgpu

>  <m_score__min__energy>  (12) 
-9.3200000000000003

>  <m_primary>  (12) 
energy

>  <rmsd>  (12) 
7.111886874560126

>  <m_score__min__rmsd>  (12) 
7.111886874560126

>  <meeko>  (12) 
{"free_energy": -7.55, "intermolecular_energy": -9.93, "internal_energy": -2.12, "cluster_size": 18, "cluster_id": 3, "rank_in_cluster": 18}

>  <energy>  (12) 
-8.87

>  <cluster_rmsd>  (12) 
0.62

>  <cluster>  (12) 
1

$$$$

     RDKit          3D

 64 67  0  0  0  0  0  0  0  0999 V2000
  138.8260   67.5940  223.0890 C   0  0  0  0  0  0  0  0  0  0  0  0
  137.5770   68.4990  223.0830 C   0  0  0  0  0  0  0  0  0  0  0  0
  137.5510   69.3010  224.3420 C   0  0  0  0  0  0  0  0  0  0  0  0
  136.4320   69.2670  224.9440 O   0  0  0  0  0  0  0  0  0  0  0  0
  138.6750   70.0310  224.8150 N   0  0  0  0  0  0  0  0  0  0  0  0
  139.4360   69.7100  225.9500 C   0  0  0  0  0  0  0  0  0  0  0  0
  139.6720   68.4330  226.4060 C   0  0  0  0  0  0  0  0  0  0  0  0
  140.4270   68.1470  227.5360 C   0  0  0  0  0  0  0  0  0  0  0  0
  140.9910   69.1560  228.2720 C   0  0  0  0  0  0  0  0  0  0  0  0
  140.7750   70.4430  227.8450 C   0  0  0  0  0  0  0  0  0  0  0  0
  140.0140   70.7330  226.7040 C   0  0  0  0  0  0  0  0  0  0  0  0
  139.0240   71.2150  223.9990 C   0  0  0  0  0  0  0  0  0  0  0  0
  137.8810   71.5210  223.1270 C   0  0  0  0  0  0  0  0  0  0  0  0
  138.1750   72.1420  221.7820 C   0  0  0  0  0  0  0  0  0  0  0  0
  139.4480   72.8150  221.9030 N   0  0  0  0  0  0  0  0  0  0  0  0
  139.7070   74.1900  221.8230 C   0  0  0  0  0  0  0  0  0  0  0  0
  140.9400   74.5320  221.9760 O   0  0  0  0  0  0  0  0  0  0  0  0
  138.7800   75.2960  221.5910 C   0  0  1  0  0  0  0  0  0  0  0  0
  137.4100   74.9660  221.3650 N   0  0  0  0  0  0  0  0  0  0  0  0
  138.7800   76.3410  222.6970 C   0  0  0  0  0  0  0  0  0  0  0  0
  139.5640   77.5650  222.3570 C   0  0  0  0  0  0  0  0  0  0  0  0
  141.0180   77.3530  222.8300 C   0  0  0  0  0  0  0  0  0  0  0  0
  141.4830   78.7620  222.9310 C   0  0  0  0  0  0  0  0  0  0  0  0
  142.7490   79.3470  222.8360 C   0  0  0  0  0  0  0  0  0  0  0  0
  142.8540   80.7160  222.9780 C   0  0  0  0  0  0  0  0  0  0  0  0
  141.7720   81.5390  223.2090 C   0  0  0  0  0  0  0  0  0  0  0  0
  140.5120   80.9540  223.3030 C   0  0  0  0  0  0  0  0  0  0  0  0
  140.4020   79.5860  223.1620 C   0  0  0  0  0  0  0  0  0  0  0  0
  139.1710   78.7530  223.2230 C   0  0  0  0  0  0  0  0  0  0  0  0
  140.5850   71.8830  222.1430 C   0  0  0  0  0  0  0  0  0  0  0  0
  140.3970   71.2290  223.4860 C   0  0  0  0  0  0  0  0  0  0  0  0
  139.1196   67.3812  224.1275 H   0  0  0  0  0  0  0  0  0  0  0  0
  138.5976   66.6504  222.5719 H   0  0  0  0  0  0  0  0  0  0  0  0
  139.6515   68.1050  222.5719 H   0  0  0  0  0  0  0  0  0  0  0  0
  137.6156   69.1749  222.2160 H   0  0  0  0  0  0  0  0  0  0  0  0
  136.6701   67.8799  223.0183 H   0  0  0  0  0  0  0  0  0  0  0  0
  139.2386   67.5924  225.8443 H   0  0  0  0  0  0  0  0  0  0  0  0
  140.5736   67.1009  227.8430 H   0  0  0  0  0  0  0  0  0  0  0  0
  141.5922   68.9436  229.1683 H   0  0  0  0  0  0  0  0  0  0  0  0
  141.2136   71.2739  228.4171 H   0  0  0  0  0  0  0  0  0  0  0  0
  139.8704   71.7800  226.3988 H   0  0  0  0  0  0  0  0  0  0  0  0
  139.1436   72.1223  224.6093 H   0  0  0  0  0  0  0  0  0  0  0  0
  137.3447   70.5782  222.9441 H   0  0  0  0  0  0  0  0  0  0  0  0
  137.3118   72.2891  223.6712 H   0  0  0  0  0  0  0  0  0  0  0  0
  138.2310   71.3618  221.0086 H   0  0  0  0  0  0  0  0  0  0  0  0
  137.3820   72.8463  221.4903 H   0  0  0  0  0  0  0  0  0  0  0  0
  139.2006   75.6848  220.6519 H   0  0  0  0  0  0  0  0  0  0  0  0
  136.9150   74.5140  222.1500 H   0  0  0  0  0  0  0  0  0  0  0  0
  137.1870   74.5110  220.4700 H   0  0  0  0  0  0  0  0  0  0  0  0
  137.7397   76.6376  222.8963 H   0  0  0  0  0  0  0  0  0  0  0  0
  139.2578   75.8834  223.5758 H   0  0  0  0  0  0  0  0  0  0  0  0
  139.4095   77.7371  221.2816 H   0  0  0  0  0  0  0  0  0  0  0  0
  141.0572   76.8424  223.8035 H   0  0  0  0  0  0  0  0  0  0  0  0
  141.6255   76.7179  222.1684 H   0  0  0  0  0  0  0  0  0  0  0  0
  143.6412   78.7304  222.6523 H   0  0  0  0  0  0  0  0  0  0  0  0
  143.8515   81.1737  222.9031 H   0  0  0  0  0  0  0  0  0  0  0  0
  141.9006   82.6262  223.3159 H   0  0  0  0  0  0  0  0  0  0  0  0
  139.6203   81.5715  223.4864 H   0  0  0  0  0  0  0  0  0  0  0  0
  138.9473   78.4418  224.2541 H   0  0  0  0  0  0  0  0  0  0  0  0
  138.2617   79.2720  222.8857 H   0  0  0  0  0  0  0  0  0  0  0  0
  140.6060   71.1143  221.3565 H   0  0  0  0  0  0  0  0  0  0  0  0
  141.5347   72.4377  222.1256 H   0  0  0  0  0  0  0  0  0  0  0  0
  140.7383   70.1864  223.4050 H   0  0  0  0  0  0  0  0  0  0  0  0
  140.9773   71.8340  224.1982 H   0  0  0  0  0  0  0  0  0  0  0  0
  1  2  1  0
  2  3  1  0
  3  4  2  0
  3  5  1  0
  5  6  1  0
  6  7  2  0
  7  8  1  0
  8  9  2  0
  9 10  1  0
 10 11  2  0
  5 12  1  0
 12 13  1  0
 13 14  1  0
 14 15  1  0
 15 16  1  0
 16 17  2  0
 16 18  1  0
 18 19  1  0
 18 20  1  0
 20 21  1  0
 21 22  1  0
 22 23  1  0
 23 24  2  0
 24 25  1  0
 25 26  2  0
 26 27  1  0
 27 28  2  0
 28 29  1  0
 15 30  1  0
 30 31  1  0
 11  6  1  0
 31 12  1  0
 29 21  1  0
 28 23  1  0
  1 32  1  0
  1 33  1  0
  1 34  1  0
  2 35  1  0
  2 36  1  0
  7 37  1  0
  8 38  1  0
  9 39  1  0
 10 40  1  0
 11 41  1  0
 12 42  1  0
 13 43  1  0
 13 44  1  0
 14 45  1  0
 14 46  1  0
 18 47  1  6
 19 48  1  0
 19 49  1  0
 20 50  1  0
 20 51  1  0
 21 52  1  0
 22 53  1  0
 22 54  1  0
 24 55  1  0
 25 56  1  0
 26 57  1  0
 27 58  1  0
 29 59  1  0
 29 60  1  0
 30 61  1  0
 30 62  1  0
 31 63  1  0
 31 64  1  0
M  END
>  <smiles>  (13) 
CCC(=O)N(c1ccccc1)C1CCN(C(=O)[C@@H](N)CC2Cc3ccccc3C2)CC1

>  <score_type>  (13) 
oracle

>  <origin>  (13) 
autodockgpu

>  <m_score__min__energy>  (13) 
-9.3200000000000003

>  <m_primary>  (13) 
energy

>  <rmsd>  (13) 
7.370629159031872

>  <m_score__min__rmsd>  (13) 
7.370629159031872

>  <meeko>  (13) 
{"free_energy": -8.69, "intermolecular_energy": -11.08, "internal_energy": -1.5, "cluster_size": 24, "cluster_id": 1, "rank_in_cluster": 16}

>  <energy>  (13) 
-8.74

>  <cluster_rmsd>  (13) 
1.32

>  <cluster>  (13) 
1

$$$$

     RDKit          3D

 64 67  0  0  0  0  0  0  0  0999 V2000
  136.2650   69.2590  224.5530 C   0  0  0  0  0  0  0  0  0  0  0  0
  137.3510   68.8590  223.5350 C   0  0  0  0  0  0  0  0  0  0  0  0
  138.6870   68.9110  224.1990 C   0  0  0  0  0  0  0  0  0  0  0  0
  139.2050   67.7660  224.3890 O   0  0  0  0  0  0  0  0  0  0  0  0
  139.3130   70.1290  224.5770 N   0  0  0  0  0  0  0  0  0  0  0  0
  139.8840   70.3960  225.8320 C   0  0  0  0  0  0  0  0  0  0  0  0
  139.7550   69.5950  226.9440 C   0  0  0  0  0  0  0  0  0  0  0  0
  140.3290   69.8890  228.1740 C   0  0  0  0  0  0  0  0  0  0  0  0
  141.0730   71.0270  228.3430 C   0  0  0  0  0  0  0  0  0  0  0  0
  141.2220   71.8500  227.2530 C   0  0  0  0  0  0  0  0  0  0  0  0
  140.6440   71.5540  226.0110 C   0  0  0  0  0  0  0  0  0  0  0  0
  139.3380   71.1600  223.5180 C   0  0  0  0  0  0  0  0  0  0  0  0
  138.0090   71.7860  223.4590 C   0  0  0  0  0  0  0  0  0  0  0  0
  137.5360   72.2950  222.1180 C   0  0  0  0  0  0  0  0  0  0  0  0
  138.7180   72.5700  221.3350 N   0  0  0  0  0  0  0  0  0  0  0  0
  139.1770   73.8100  220.8710 C   0  0  0  0  0  0  0  0  0  0  0  0
  140.2740   73.7790  220.1970 O   0  0  0  0  0  0  0  0  0  0  0  0
  138.5890   75.1380  221.0410 C   0  0  1  0  0  0  0  0  0  0  0  0
  137.1690   75.2430  220.9520 N   0  0  0  0  0  0  0  0  0  0  0  0
  138.9750   75.8180  222.3460 C   0  0  0  0  0  0  0  0  0  0  0  0
  139.6500   77.1360  222.1510 C   0  0  0  0  0  0  0  0  0  0  0  0
  141.0820   77.0340  222.7210 C   0  0  0  0  0  0  0  0  0  0  0  0
  141.3890   78.4700  222.9520 C   0  0  0  0  0  0  0  0  0  0  0  0
  142.5910   79.1830  222.9960 C   0  0  0  0  0  0  0  0  0  0  0  0
  142.5420   80.5410  223.2370 C   0  0  0  0  0  0  0  0  0  0  0  0
  141.3670   81.2330  223.4380 C   0  0  0  0  0  0  0  0  0  0  0  0
  140.1710   80.5220  223.3930 C   0  0  0  0  0  0  0  0  0  0  0  0
  140.2140   79.1640  223.1530 C   0  0  0  0  0  0  0  0  0  0  0  0
  139.0760   78.2120  223.0610 C   0  0  0  0  0  0  0  0  0  0  0  0
  139.5080   71.3480  221.0150 C   0  0  0  0  0  0  0  0  0  0  0  0
  140.0520   70.7760  222.2960 C   0  0  0  0  0  0  0  0  0  0  0  0
  136.6494   69.1174  225.5739 H   0  0  0  0  0  0  0  0  0  0  0  0
  135.9957   70.3153  224.4058 H   0  0  0  0  0  0  0  0  0  0  0  0
  135.3749   68.6297  224.4058 H   0  0  0  0  0  0  0  0  0  0  0  0
  137.1589   67.8379  223.1738 H   0  0  0  0  0  0  0  0  0  0  0  0
  137.3338   69.5543  222.6828 H   0  0  0  0  0  0  0  0  0  0  0  0
  139.1648   68.6712  226.8534 H   0  0  0  0  0  0  0  0  0  0  0  0
  140.1849   69.2016  229.0206 H   0  0  0  0  0  0  0  0  0  0  0  0
  141.5324   71.2718  229.3120 H   0  0  0  0  0  0  0  0  0  0  0  0
  141.8141   72.7710  227.3585 H   0  0  0  0  0  0  0  0  0  0  0  0
  140.7909   72.2428  225.1660 H   0  0  0  0  0  0  0  0  0  0  0  0
  140.0147   71.9920  223.7628 H   0  0  0  0  0  0  0  0  0  0  0  0
  137.2780   71.0402  223.8047 H   0  0  0  0  0  0  0  0  0  0  0  0
  138.0956   72.6861  224.0853 H   0  0  0  0  0  0  0  0  0  0  0  0
  136.9204   71.5320  221.6191 H   0  0  0  0  0  0  0  0  0  0  0  0
  136.9204   73.1992  222.2340 H   0  0  0  0  0  0  0  0  0  0  0  0
  139.0271   75.6381  220.1647 H   0  0  0  0  0  0  0  0  0  0  0  0
  136.7080   75.8190  221.6740 H   0  0  0  0  0  0  0  0  0  0  0  0
  136.6520   74.3690  220.7850 H   0  0  0  0  0  0  0  0  0  0  0  0
  138.0625   75.9779  222.9391 H   0  0  0  0  0  0  0  0  0  0  0  0
  139.6922   75.1582  222.8562 H   0  0  0  0  0  0  0  0  0  0  0  0
  139.5545   77.3713  221.0807 H   0  0  0  0  0  0  0  0  0  0  0  0
  141.1053   76.4586  223.6582 H   0  0  0  0  0  0  0  0  0  0  0  0
  141.7976   76.5132  222.0678 H   0  0  0  0  0  0  0  0  0  0  0  0
  143.5535   78.6732  222.8421 H   0  0  0  0  0  0  0  0  0  0  0  0
  143.4890   81.0997  223.2704 H   0  0  0  0  0  0  0  0  0  0  0  0
  141.3741   82.3163  223.6286 H   0  0  0  0  0  0  0  0  0  0  0  0
  139.2093   81.0335  223.5460 H   0  0  0  0  0  0  0  0  0  0  0  0
  138.8129   77.8043  224.0482 H   0  0  0  0  0  0  0  0  0  0  0  0
  138.1444   78.6629  222.6885 H   0  0  0  0  0  0  0  0  0  0  0  0
  138.8604   70.6066  220.5242 H   0  0  0  0  0  0  0  0  0  0  0  0
  140.3359   71.6037  220.3374 H   0  0  0  0  0  0  0  0  0  0  0  0
  140.0204   69.6793  222.2166 H   0  0  0  0  0  0  0  0  0  0  0  0
  141.0671   71.1868  222.4004 H   0  0  0  0  0  0  0  0  0  0  0  0
  1  2  1  0
  2  3  1  0
  3  4  2  0
  3  5  1  0
  5  6  1  0
  6  7  2  0
  7  8  1  0
  8  9  2  0
  9 10  1  0
 10 11  2  0
  5 12  1  0
 12 13  1  0
 13 14  1  0
 14 15  1  0
 15 16  1  0
 16 17  2  0
 16 18  1  0
 18 19  1  0
 18 20  1  0
 20 21  1  0
 21 22  1  0
 22 23  1  0
 23 24  2  0
 24 25  1  0
 25 26  2  0
 26 27  1  0
 27 28  2  0
 28 29  1  0
 15 30  1  0
 30 31  1  0
 11  6  1  0
 31 12  1  0
 29 21  1  0
 28 23  1  0
  1 32  1  0
  1 33  1  0
  1 34  1  0
  2 35  1  0
  2 36  1  0
  7 37  1  0
  8 38  1  0
  9 39  1  0
 10 40  1  0
 11 41  1  0
 12 42  1  0
 13 43  1  0
 13 44  1  0
 14 45  1  0
 14 46  1  0
 18 47  1  6
 19 48  1  0
 19 49  1  0
 20 50  1  0
 20 51  1  0
 21 52  1  0
 22 53  1  0
 22 54  1  0
 24 55  1  0
 25 56  1  0
 26 57  1  0
 27 58  1  0
 29 59  1  0
 29 60  1  0
 30 61  1  0
 30 62  1  0
 31 63  1  0
 31 64  1  0
M  END
>  <smiles>  (14) 
CCC(=O)N(c1ccccc1)C1CCN(C(=O)[C@@H](N)CC2Cc3ccccc3C2)CC1

>  <score_type>  (14) 
oracle

>  <origin>  (14) 
autodockgpu

>  <m_score__min__energy>  (14) 
-9.3200000000000003

>  <m_primary>  (14) 
energy

>  <rmsd>  (14) 
7.342609614634858

>  <m_score__min__rmsd>  (14) 
7.342609614634858

>  <meeko>  (14) 
{"free_energy": -7.98, "intermolecular_energy": -10.36, "internal_energy": -1.52, "cluster_size": 24, "cluster_id": 1, "rank_in_cluster": 24}

>  <energy>  (14) 
-8.72

>  <cluster_rmsd>  (14) 
1.11

>  <cluster>  (14) 
1

$$$$

     RDKit          3D

 64 67  0  0  0  0  0  0  0  0999 V2000
  146.3320   73.4040  221.6360 C   0  0  0  0  0  0  0  0  0  0  0  0
  145.3240   73.8380  220.5540 C   0  0  0  0  0  0  0  0  0  0  0  0
  145.3590   72.8540  219.4320 C   0  0  0  0  0  0  0  0  0  0  0  0
  146.2880   73.0730  218.5930 O   0  0  0  0  0  0  0  0  0  0  0  0
  144.4380   71.7780  219.3200 N   0  0  0  0  0  0  0  0  0  0  0  0
  144.7600   70.4650  218.9410 C   0  0  0  0  0  0  0  0  0  0  0  0
  143.9480   69.6370  218.2000 C   0  0  0  0  0  0  0  0  0  0  0  0
  144.2920   68.3390  217.8440 C   0  0  0  0  0  0  0  0  0  0  0  0
  145.4950   67.8070  218.2270 C   0  0  0  0  0  0  0  0  0  0  0  0
  146.3300   68.6060  218.9680 C   0  0  0  0  0  0  0  0  0  0  0  0
  145.9840   69.9160  219.3280 C   0  0  0  0  0  0  0  0  0  0  0  0
  143.0390   72.1320  219.6470 C   0  0  0  0  0  0  0  0  0  0  0  0
  142.5320   71.1450  220.6110 C   0  0  0  0  0  0  0  0  0  0  0  0
  141.0570   70.8220  220.5690 C   0  0  0  0  0  0  0  0  0  0  0  0
  140.3960   71.9690  219.9920 N   0  0  0  0  0  0  0  0  0  0  0  0
  139.4850   72.8390  220.6050 C   0  0  0  0  0  0  0  0  0  0  0  0
  139.0460   73.7960  219.8640 O   0  0  0  0  0  0  0  0  0  0  0  0
  138.9580   72.8180  221.9700 C   0  0  1  0  0  0  0  0  0  0  0  0
  137.9880   73.8060  222.3130 N   0  0  0  0  0  0  0  0  0  0  0  0
  138.3530   71.4820  222.3750 C   0  0  0  0  0  0  0  0  0  0  0  0
  138.5770   71.1400  223.8110 C   0  0  0  0  0  0  0  0  0  0  0  0
  140.0150   71.5550  224.1880 C   0  0  0  0  0  0  0  0  0  0  0  0
  140.2480   70.6940  225.3770 C   0  0  0  0  0  0  0  0  0  0  0  0
  141.0780   70.8300  226.4930 C   0  0  0  0  0  0  0  0  0  0  0  0
  141.0660   69.8340  227.4490 C   0  0  0  0  0  0  0  0  0  0  0  0
  140.2740   68.7080  227.3600 C   0  0  0  0  0  0  0  0  0  0  0  0
  139.4470   68.5750  226.2490 C   0  0  0  0  0  0  0  0  0  0  0  0
  139.4560   69.5680  225.2900 C   0  0  0  0  0  0  0  0  0  0  0  0
  138.6630   69.6380  224.0340 C   0  0  0  0  0  0  0  0  0  0  0  0
  140.7680   72.2070  218.5690 C   0  0  0  0  0  0  0  0  0  0  0  0
  142.2280   72.5670  218.5060 C   0  0  0  0  0  0  0  0  0  0  0  0
  145.9031   73.5887  222.6319 H   0  0  0  0  0  0  0  0  0  0  0  0
  146.5510   72.3318  221.5242 H   0  0  0  0  0  0  0  0  0  0  0  0
  147.2614   73.9817  221.5242 H   0  0  0  0  0  0  0  0  0  0  0  0
  144.3123   73.8701  220.9846 H   0  0  0  0  0  0  0  0  0  0  0  0
  145.5896   74.8375  220.1792 H   0  0  0  0  0  0  0  0  0  0  0  0
  142.9724   70.0245  217.8714 H   0  0  0  0  0  0  0  0  0  0  0  0
  143.5924   67.7331  217.2494 H   0  0  0  0  0  0  0  0  0  0  0  0
  145.7804   66.7809  217.9519 H   0  0  0  0  0  0  0  0  0  0  0  0
  147.3025   68.2052  219.2898 H   0  0  0  0  0  0  0  0  0  0  0  0
  146.6858   70.5190  219.9229 H   0  0  0  0  0  0  0  0  0  0  0  0
  142.9652   73.0898  220.1829 H   0  0  0  0  0  0  0  0  0  0  0  0
  143.0797   70.2064  220.4402 H   0  0  0  0  0  0  0  0  0  0  0  0
  142.6889   71.6094  221.5957 H   0  0  0  0  0  0  0  0  0  0  0  0
  140.8817   69.9314  219.9476 H   0  0  0  0  0  0  0  0  0  0  0  0
  140.6704   70.6085  221.5765 H   0  0  0  0  0  0  0  0  0  0  0  0
  139.8845   73.0389  222.5203 H   0  0  0  0  0  0  0  0  0  0  0  0
  137.3240   73.5520  223.0610 H   0  0  0  0  0  0  0  0  0  0  0  0
  137.5100   74.2740  221.5320 H   0  0  0  0  0  0  0  0  0  0  0  0
  137.2692   71.5199  222.1907 H   0  0  0  0  0  0  0  0  0  0  0  0
  138.8501   70.7055  221.7751 H   0  0  0  0  0  0  0  0  0  0  0  0
  137.7583   71.6183  224.3686 H   0  0  0  0  0  0  0  0  0  0  0  0
  140.7266   71.3309  223.3797 H   0  0  0  0  0  0  0  0  0  0  0  0
  140.1461   72.6317  224.3714 H   0  0  0  0  0  0  0  0  0  0  0  0
  141.7265   71.7111  226.6072 H   0  0  0  0  0  0  0  0  0  0  0  0
  141.7210   69.9438  228.3259 H   0  0  0  0  0  0  0  0  0  0  0  0
  140.2957   67.9375  228.1448 H   0  0  0  0  0  0  0  0  0  0  0  0
  138.7976   67.6943  226.1368 H   0  0  0  0  0  0  0  0  0  0  0  0
  139.1819   69.1378  223.2031 H   0  0  0  0  0  0  0  0  0  0  0  0
  137.6853   69.1373  224.0931 H   0  0  0  0  0  0  0  0  0  0  0  0
  140.5858   71.2952  217.9813 H   0  0  0  0  0  0  0  0  0  0  0  0
  140.1617   73.0261  218.1549 H   0  0  0  0  0  0  0  0  0  0  0  0
  142.6498   72.1112  217.5981 H   0  0  0  0  0  0  0  0  0  0  0  0
  142.2666   73.6663  218.5120 H   0  0  0  0  0  0  0  0  0  0  0  0
  1  2  1  0
  2  3  1  0
  3  4  2  0
  3  5  1  0
  5  6  1  0
  6  7  2  0
  7  8  1  0
  8  9  2  0
  9 10  1  0
 10 11  2  0
  5 12  1  0
 12 13  1  0
 13 14  1  0
 14 15  1  0
 15 16  1  0
 16 17  2  0
 16 18  1  0
 18 19  1  0
 18 20  1  0
 20 21  1  0
 21 22  1  0
 22 23  1  0
 23 24  2  0
 24 25  1  0
 25 26  2  0
 26 27  1  0
 27 28  2  0
 28 29  1  0
 15 30  1  0
 30 31  1  0
 11  6  1  0
 31 12  1  0
 29 21  1  0
 28 23  1  0
  1 32  1  0
  1 33  1  0
  1 34  1  0
  2 35  1  0
  2 36  1  0
  7 37  1  0
  8 38  1  0
  9 39  1  0
 10 40  1  0
 11 41  1  0
 12 42  1  0
 13 43  1  0
 13 44  1  0
 14 45  1  0
 14 46  1  0
 18 47  1  1
 19 48  1  0
 19 49  1  0
 20 50  1  0
 20 51  1  0
 21 52  1  0
 22 53  1  0
 22 54  1  0
 24 55  1  0
 25 56  1  0
 26 57  1  0
 27 58  1  0
 29 59  1  0
 29 60  1  0
 30 61  1  0
 30 62  1  0
 31 63  1  0
 31 64  1  0
M  END
>  <smiles>  (15) 
CCC(=O)N(c1ccccc1)C1CCN(C(=O)[C@@H](N)CC2Cc3ccccc3C2)CC1

>  <score_type>  (15) 
oracle

>  <origin>  (15) 
autodockgpu

>  <m_score__min__energy>  (15) 
-9.3200000000000003

>  <m_primary>  (15) 
energy

>  <rmsd>  (15) 
8.162928461926377

>  <m_score__min__rmsd>  (15) 
8.162928461926377

>  <meeko>  (15) 
{"free_energy": -7.37, "intermolecular_energy": -9.76, "internal_energy": -2.27, "cluster_size": 4, "cluster_id": 2, "rank_in_cluster": 4}

>  <energy>  (15) 
-8.72

>  <cluster_rmsd>  (15) 
0.75

>  <cluster>  (15) 
1

$$$$

     RDKit          3D

 64 67  0  0  0  0  0  0  0  0999 V2000
  142.5330   78.1130  217.1220 C   0  0  0  0  0  0  0  0  0  0  0  0
  141.8290   78.4850  218.4410 C   0  0  0  0  0  0  0  0  0  0  0  0
  142.1790   77.4750  219.4830 C   0  0  0  0  0  0  0  0  0  0  0  0
  143.1220   76.6960  219.1400 O   0  0  0  0  0  0  0  0  0  0  0  0
  141.5160   77.4000  220.7380 N   0  0  0  0  0  0  0  0  0  0  0  0
  141.6180   78.3440  221.7720 C   0  0  0  0  0  0  0  0  0  0  0  0
  141.3410   78.0950  223.0970 C   0  0  0  0  0  0  0  0  0  0  0  0
  141.4470   79.0520  224.0980 C   0  0  0  0  0  0  0  0  0  0  0  0
  141.8450   80.3300  223.8020 C   0  0  0  0  0  0  0  0  0  0  0  0
  142.1300   80.6130  222.4890 C   0  0  0  0  0  0  0  0  0  0  0  0
  142.0230   79.6480  221.4780 C   0  0  0  0  0  0  0  0  0  0  0  0
  140.6590   76.2070  220.9080 C   0  0  0  0  0  0  0  0  0  0  0  0
  141.4580   75.1590  221.5580 C   0  0  0  0  0  0  0  0  0  0  0  0
  141.1350   73.7230  221.2220 C   0  0  0  0  0  0  0  0  0  0  0  0
  139.7550   73.6950  220.7940 N   0  0  0  0  0  0  0  0  0  0  0  0
  138.6690   73.0710  221.4220 C   0  0  0  0  0  0  0  0  0  0  0  0
  137.5330   73.2080  220.8310 O   0  0  0  0  0  0  0  0  0  0  0  0
  138.6390   72.2840  222.6540 C   0  0  1  0  0  0  0  0  0  0  0  0
  137.3590   71.9740  223.2020 N   0  0  0  0  0  0  0  0  0  0  0  0
  139.3820   70.9600  222.5560 C   0  0  0  0  0  0  0  0  0  0  0  0
  140.0730   70.5720  223.8220 C   0  0  0  0  0  0  0  0  0  0  0  0
  139.0710   69.7880  224.6970 C   0  0  0  0  0  0  0  0  0  0  0  0
  139.6840   69.9650  226.0410 C   0  0  0  0  0  0  0  0  0  0  0  0
  139.6350   69.1980  227.2080 C   0  0  0  0  0  0  0  0  0  0  0  0
  140.3290   69.6410  228.3160 C   0  0  0  0  0  0  0  0  0  0  0  0
  141.0690   70.8040  228.3320 C   0  0  0  0  0  0  0  0  0  0  0  0
  141.1170   71.5660  227.1680 C   0  0  0  0  0  0  0  0  0  0  0  0
  140.4250   71.1280  226.0570 C   0  0  0  0  0  0  0  0  0  0  0  0
  140.3340   71.7710  224.7200 C   0  0  0  0  0  0  0  0  0  0  0  0
  139.5190   74.4410  219.5260 C   0  0  0  0  0  0  0  0  0  0  0  0
  139.7900   75.9010  219.7660 C   0  0  0  0  0  0  0  0  0  0  0  0
  143.4855   77.6097  217.3441 H   0  0  0  0  0  0  0  0  0  0  0  0
  141.8884   77.4378  216.5401 H   0  0  0  0  0  0  0  0  0  0  0  0
  142.7277   79.0260  216.5401 H   0  0  0  0  0  0  0  0  0  0  0  0
  142.1612   79.4815  218.7676 H   0  0  0  0  0  0  0  0  0  0  0  0
  140.7397   78.4983  218.2888 H   0  0  0  0  0  0  0  0  0  0  0  0
  141.0178   77.0820  223.3788 H   0  0  0  0  0  0  0  0  0  0  0  0
  141.2095   78.7820  225.1376 H   0  0  0  0  0  0  0  0  0  0  0  0
  141.9325   81.0978  224.5848 H   0  0  0  0  0  0  0  0  0  0  0  0
  142.4528   81.6301  222.2218 H   0  0  0  0  0  0  0  0  0  0  0  0
  142.2611   79.9213  220.4394 H   0  0  0  0  0  0  0  0  0  0  0  0
  139.8317   76.3861  221.6105 H   0  0  0  0  0  0  0  0  0  0  0  0
  142.5100   75.3316  221.2868 H   0  0  0  0  0  0  0  0  0  0  0  0
  141.2246   75.2542  222.6287 H   0  0  0  0  0  0  0  0  0  0  0  0
  141.7897   73.3668  220.4130 H   0  0  0  0  0  0  0  0  0  0  0  0
  141.2918   73.0689  222.0924 H   0  0  0  0  0  0  0  0  0  0  0  0
  139.1405   72.9932  223.3290 H   0  0  0  0  0  0  0  0  0  0  0  0
  136.5450   72.1710  222.5980 H   0  0  0  0  0  0  0  0  0  0  0  0
  137.1870   72.2740  224.1700 H   0  0  0  0  0  0  0  0  0  0  0  0
  138.6585   70.1725  222.2983 H   0  0  0  0  0  0  0  0  0  0  0  0
  140.1584   71.0798  221.7860 H   0  0  0  0  0  0  0  0  0  0  0  0
  140.9899   70.0447  223.5200 H   0  0  0  0  0  0  0  0  0  0  0  0
  138.0628   70.2254  224.6502 H   0  0  0  0  0  0  0  0  0  0  0  0
  138.9233   68.7403  224.3961 H   0  0  0  0  0  0  0  0  0  0  0  0
  139.0568   68.2629  227.2429 H   0  0  0  0  0  0  0  0  0  0  0  0
  140.2895   69.0350  229.2331 H   0  0  0  0  0  0  0  0  0  0  0  0
  141.6060   71.1207  229.2383 H   0  0  0  0  0  0  0  0  0  0  0  0
  141.6961   72.5006  227.1342 H   0  0  0  0  0  0  0  0  0  0  0  0
  139.5050   72.4927  224.6772 H   0  0  0  0  0  0  0  0  0  0  0  0
  141.2247   72.3534  224.4417 H   0  0  0  0  0  0  0  0  0  0  0  0
  140.1937   74.0633  218.7436 H   0  0  0  0  0  0  0  0  0  0  0  0
  138.4780   74.3026  219.1987 H   0  0  0  0  0  0  0  0  0  0  0  0
  140.2638   76.3100  218.8615 H   0  0  0  0  0  0  0  0  0  0  0  0
  138.8149   76.3524  220.0015 H   0  0  0  0  0  0  0  0  0  0  0  0
  1  2  1  0
  2  3  1  0
  3  4  2  0
  3  5  1  0
  5  6  1  0
  6  7  2  0
  7  8  1  0
  8  9  2  0
  9 10  1  0
 10 11  2  0
  5 12  1  0
 12 13  1  0
 13 14  1  0
 14 15  1  0
 15 16  1  0
 16 17  2  0
 16 18  1  0
 18 19  1  0
 18 20  1  0
 20 21  1  0
 21 22  1  0
 22 23  1  0
 23 24  2  0
 24 25  1  0
 25 26  2  0
 26 27  1  0
 27 28  2  0
 28 29  1  0
 15 30  1  0
 30 31  1  0
 11  6  1  0
 31 12  1  0
 29 21  1  0
 28 23  1  0
  1 32  1  0
  1 33  1  0
  1 34  1  0
  2 35  1  0
  2 36  1  0
  7 37  1  0
  8 38  1  0
  9 39  1  0
 10 40  1  0
 11 41  1  0
 12 42  1  0
 13 43  1  0
 13 44  1  0
 14 45  1  0
 14 46  1  0
 18 47  1  1
 19 48  1  0
 19 49  1  0
 20 50  1  0
 20 51  1  0
 21 52  1  0
 22 53  1  0
 22 54  1  0
 24 55  1  0
 25 56  1  0
 26 57  1  0
 27 58  1  0
 29 59  1  0
 29 60  1  0
 30 61  1  0
 30 62  1  0
 31 63  1  0
 31 64  1  0
M  END
>  <smiles>  (16) 
CCC(=O)N(c1ccccc1)C1CCN(C(=O)[C@@H](N)CC2Cc3ccccc3C2)CC1

>  <score_type>  (16) 
oracle

>  <origin>  (16) 
autodockgpu

>  <m_score__min__energy>  (16) 
-9.3200000000000003

>  <m_primary>  (16) 
energy

>  <rmsd>  (16) 
6.912771595557357

>  <m_score__min__rmsd>  (16) 
6.912771595557357

>  <meeko>  (16) 
{"free_energy": -8.08, "intermolecular_energy": -10.47, "internal_energy": -2.2, "cluster_size": 18, "cluster_id": 3, "rank_in_cluster": 3}

>  <energy>  (16) 
-8.69

>  <cluster_rmsd>  (16) 
0.84

>  <cluster>  (16) 
1

$$$$

     RDKit          3D

 64 67  0  0  0  0  0  0  0  0999 V2000
  142.5650   79.4870  218.0970 C   0  0  0  0  0  0  0  0  0  0  0  0
  141.6710   78.2700  218.4030 C   0  0  0  0  0  0  0  0  0  0  0  0
  142.2400   77.5250  219.5640 C   0  0  0  0  0  0  0  0  0  0  0  0
  143.3120   76.8980  219.2910 O   0  0  0  0  0  0  0  0  0  0  0  0
  141.6360   77.5240  220.8510 N   0  0  0  0  0  0  0  0  0  0  0  0
  141.7630   78.5390  221.8120 C   0  0  0  0  0  0  0  0  0  0  0  0
  142.1720   79.8260  221.5500 C   0  0  0  0  0  0  0  0  0  0  0  0
  142.2930   80.8090  222.5240 C   0  0  0  0  0  0  0  0  0  0  0  0
  142.0000   80.5320  223.8340 C   0  0  0  0  0  0  0  0  0  0  0  0
  141.5890   79.2560  224.1310 C   0  0  0  0  0  0  0  0  0  0  0  0
  141.4660   78.2640  223.1480 C   0  0  0  0  0  0  0  0  0  0  0  0
  140.8150   76.3280  221.1400 C   0  0  0  0  0  0  0  0  0  0  0  0
  141.5900   75.1390  220.7610 C   0  0  0  0  0  0  0  0  0  0  0  0
  140.8240   73.9300  220.2780 C   0  0  0  0  0  0  0  0  0  0  0  0
  139.4990   74.0230  220.8450 N   0  0  0  0  0  0  0  0  0  0  0  0
  138.9000   73.1700  221.7820 C   0  0  0  0  0  0  0  0  0  0  0  0
  137.7010   73.4840  222.1320 O   0  0  0  0  0  0  0  0  0  0  0  0
  139.4400   71.9710  222.4220 C   0  0  1  0  0  0  0  0  0  0  0  0
  140.0650   71.0040  221.5800 N   0  0  0  0  0  0  0  0  0  0  0  0
  140.4380   72.2640  223.5330 C   0  0  0  0  0  0  0  0  0  0  0  0
  140.7260   71.0820  224.3990 C   0  0  0  0  0  0  0  0  0  0  0  0
  139.4290   70.2550  224.5320 C   0  0  0  0  0  0  0  0  0  0  0  0
  139.7110   69.5010  225.7820 C   0  0  0  0  0  0  0  0  0  0  0  0
  139.2560   68.2710  226.2650 C   0  0  0  0  0  0  0  0  0  0  0  0
  139.7150   67.8340  227.4920 C   0  0  0  0  0  0  0  0  0  0  0  0
  140.6010   68.5520  228.2680 C   0  0  0  0  0  0  0  0  0  0  0  0
  141.0530   69.7760  227.7850 C   0  0  0  0  0  0  0  0  0  0  0  0
  140.5970   70.2170  226.5590 C   0  0  0  0  0  0  0  0  0  0  0  0
  140.9410   71.4790  225.8520 C   0  0  0  0  0  0  0  0  0  0  0  0
  138.7220   75.1870  220.3360 C   0  0  0  0  0  0  0  0  0  0  0  0
  139.3960   76.4530  220.7920 C   0  0  0  0  0  0  0  0  0  0  0  0
  142.8997   79.9426  219.0406 H   0  0  0  0  0  0  0  0  0  0  0  0
  143.4406   79.1619  217.5160 H   0  0  0  0  0  0  0  0  0  0  0  0
  141.9930   80.2253  217.5160 H   0  0  0  0  0  0  0  0  0  0  0  0
  140.6545   78.6120  218.6474 H   0  0  0  0  0  0  0  0  0  0  0  0
  141.6300   77.6102  217.5238 H   0  0  0  0  0  0  0  0  0  0  0  0
  142.4169   80.0916  220.5110 H   0  0  0  0  0  0  0  0  0  0  0  0
  142.6268   81.8183  222.2415 H   0  0  0  0  0  0  0  0  0  0  0  0
  142.0904   81.3007  224.6156 H   0  0  0  0  0  0  0  0  0  0  0  0
  141.3484   79.0039  225.1743 H   0  0  0  0  0  0  0  0  0  0  0  0
  141.1311   77.2558  223.4332 H   0  0  0  0  0  0  0  0  0  0  0  0
  140.6358   76.1964  222.2173 H   0  0  0  0  0  0  0  0  0  0  0  0
  142.2769   75.4369  219.9552 H   0  0  0  0  0  0  0  0  0  0  0  0
  142.0716   74.8104  221.6937 H   0  0  0  0  0  0  0  0  0  0  0  0
  140.7670   73.9316  219.1795 H   0  0  0  0  0  0  0  0  0  0  0  0
  141.3211   72.9983  220.5859 H   0  0  0  0  0  0  0  0  0  0  0  0
  138.5043   71.5392  222.8066 H   0  0  0  0  0  0  0  0  0  0  0  0
  139.7230   70.9570  220.6070 H   0  0  0  0  0  0  0  0  0  0  0  0
  140.1950   70.0630  221.9760 H   0  0  0  0  0  0  0  0  0  0  0  0
  141.3806   72.5989  223.0755 H   0  0  0  0  0  0  0  0  0  0  0  0
  139.9904   73.0361  224.1761 H   0  0  0  0  0  0  0  0  0  0  0  0
  141.5947   70.5785  223.9497 H   0  0  0  0  0  0  0  0  0  0  0  0
  138.5452   70.9012  224.6389 H   0  0  0  0  0  0  0  0  0  0  0  0
  139.1975   69.6249  223.6606 H   0  0  0  0  0  0  0  0  0  0  0  0
  138.5481   67.6646  225.6809 H   0  0  0  0  0  0  0  0  0  0  0  0
  139.3562   66.8650  227.8693 H   0  0  0  0  0  0  0  0  0  0  0  0
  140.9406   68.1677  229.2412 H   0  0  0  0  0  0  0  0  0  0  0  0
  141.7611   70.3815  228.3697 H   0  0  0  0  0  0  0  0  0  0  0  0
  140.2714   72.3002  226.1473 H   0  0  0  0  0  0  0  0  0  0  0  0
  141.9523   71.8532  226.0694 H   0  0  0  0  0  0  0  0  0  0  0  0
  138.6910   75.1593  219.2368 H   0  0  0  0  0  0  0  0  0  0  0  0
  137.6932   75.1494  220.7234 H   0  0  0  0  0  0  0  0  0  0  0  0
  139.3105   77.1921  219.9818 H   0  0  0  0  0  0  0  0  0  0  0  0
  138.8844   76.7475  221.7202 H   0  0  0  0  0  0  0  0  0  0  0  0
  1  2  1  0
  2  3  1  0
  3  4  2  0
  3  5  1  0
  5  6  1  0
  6  7  2  0
  7  8  1  0
  8  9  2  0
  9 10  1  0
 10 11  2  0
  5 12  1  0
 12 13  1  0
 13 14  1  0
 14 15  1  0
 15 16  1  0
 16 17  2  0
 16 18  1  0
 18 19  1  0
 18 20  1  0
 20 21  1  0
 21 22  1  0
 22 23  1  0
 23 24  2  0
 24 25  1  0
 25 26  2  0
 26 27  1  0
 27 28  2  0
 28 29  1  0
 15 30  1  0
 30 31  1  0
 11  6  1  0
 31 12  1  0
 29 21  1  0
 28 23  1  0
  1 32  1  0
  1 33  1  0
  1 34  1  0
  2 35  1  0
  2 36  1  0
  7 37  1  0
  8 38  1  0
  9 39  1  0
 10 40  1  0
 11 41  1  0
 12 42  1  0
 13 43  1  0
 13 44  1  0
 14 45  1  0
 14 46  1  0
 18 47  1  1
 19 48  1  0
 19 49  1  0
 20 50  1  0
 20 51  1  0
 21 52  1  0
 22 53  1  0
 22 54  1  0
 24 55  1  0
 25 56  1  0
 26 57  1  0
 27 58  1  0
 29 59  1  0
 29 60  1  0
 30 61  1  0
 30 62  1  0
 31 63  1  0
 31 64  1  0
M  END
>  <smiles>  (17) 
CCC(=O)N(c1ccccc1)C1CCN(C(=O)[C@@H](N)CC2Cc3ccccc3C2)CC1

>  <score_type>  (17) 
oracle

>  <origin>  (17) 
autodockgpu

>  <m_score__min__energy>  (17) 
-9.3200000000000003

>  <m_primary>  (17) 
energy

>  <rmsd>  (17) 
6.906138807947177

>  <m_score__min__rmsd>  (17) 
6.906138807947177

>  <meeko>  (17) 
{"free_energy": -8.04, "intermolecular_energy": -10.42, "internal_energy": -1.6, "cluster_size": 18, "cluster_id": 3, "rank_in_cluster": 5}

>  <energy>  (17) 
-8.69

>  <cluster_rmsd>  (17) 
0.52

>  <cluster>  (17) 
1

$$$$

     RDKit          3D

 64 67  0  0  0  0  0  0  0  0999 V2000
  137.3270   68.0710  222.0460 C   0  0  0  0  0  0  0  0  0  0  0  0
  138.4550   68.1500  223.0930 C   0  0  0  0  0  0  0  0  0  0  0  0
  138.1030   69.1800  224.1140 C   0  0  0  0  0  0  0  0  0  0  0  0
  136.8700   69.1890  224.4240 O   0  0  0  0  0  0  0  0  0  0  0  0
  139.0610   70.0630  224.6810 N   0  0  0  0  0  0  0  0  0  0  0  0
  139.7500   69.8530  225.8870 C   0  0  0  0  0  0  0  0  0  0  0  0
  139.9780   68.6230  226.4610 C   0  0  0  0  0  0  0  0  0  0  0  0
  140.6600   68.4460  227.6580 C   0  0  0  0  0  0  0  0  0  0  0  0
  141.1530   69.5250  228.3440 C   0  0  0  0  0  0  0  0  0  0  0  0
  140.9440   70.7680  227.8000 C   0  0  0  0  0  0  0  0  0  0  0  0
  140.2560   70.9470  226.5910 C   0  0  0  0  0  0  0  0  0  0  0  0
  139.3140   71.2850  223.8880 C   0  0  0  0  0  0  0  0  0  0  0  0
  138.1710   71.4880  222.9860 C   0  0  0  0  0  0  0  0  0  0  0  0
  138.4400   72.1510  221.6560 C   0  0  0  0  0  0  0  0  0  0  0  0
  139.6350   72.9450  221.8200 N   0  0  0  0  0  0  0  0  0  0  0  0
  139.7590   74.3400  221.7610 C   0  0  0  0  0  0  0  0  0  0  0  0
  140.9460   74.8000  221.9530 O   0  0  0  0  0  0  0  0  0  0  0  0
  138.7330   75.3520  221.5130 C   0  0  1  0  0  0  0  0  0  0  0  0
  137.8700   75.6900  222.5970 N   0  0  0  0  0  0  0  0  0  0  0  0
  139.2830   76.6710  220.9910 C   0  0  0  0  0  0  0  0  0  0  0  0
  140.0450   77.4430  222.0180 C   0  0  0  0  0  0  0  0  0  0  0  0
  139.4060   78.8430  222.1400 C   0  0  0  0  0  0  0  0  0  0  0  0
  140.5370   79.6120  222.7250 C   0  0  0  0  0  0  0  0  0  0  0  0
  140.5860   80.7580  223.5230 C   0  0  0  0  0  0  0  0  0  0  0  0
  141.8200   81.2370  223.9130 C   0  0  0  0  0  0  0  0  0  0  0  0
  143.0120   80.6410  223.5550 C   0  0  0  0  0  0  0  0  0  0  0  0
  142.9610   79.4990  222.7610 C   0  0  0  0  0  0  0  0  0  0  0  0
  141.7290   79.0160  222.3690 C   0  0  0  0  0  0  0  0  0  0  0  0
  141.4350   77.8240  221.5300 C   0  0  0  0  0  0  0  0  0  0  0  0
  140.8520   72.1280  222.0840 C   0  0  0  0  0  0  0  0  0  0  0  0
  140.6930   71.4420  223.4140 C   0  0  0  0  0  0  0  0  0  0  0  0
  136.3557   68.0030  222.5579 H   0  0  0  0  0  0  0  0  0  0  0  0
  137.3473   68.9728  221.4164 H   0  0  0  0  0  0  0  0  0  0  0  0
  137.4728   67.1809  221.4164 H   0  0  0  0  0  0  0  0  0  0  0  0
  138.5726   67.1718  223.5821 H   0  0  0  0  0  0  0  0  0  0  0  0
  139.3993   68.4246  222.6001 H   0  0  0  0  0  0  0  0  0  0  0  0
  139.5988   67.7300  225.9427 H   0  0  0  0  0  0  0  0  0  0  0  0
  140.8055   67.4318  228.0584 H   0  0  0  0  0  0  0  0  0  0  0  0
  141.6948   69.4001  229.2931 H   0  0  0  0  0  0  0  0  0  0  0  0
  141.3286   71.6522  228.3295 H   0  0  0  0  0  0  0  0  0  0  0  0
  140.1133   71.9623  226.1925 H   0  0  0  0  0  0  0  0  0  0  0  0
  139.3270   72.1908  224.5119 H   0  0  0  0  0  0  0  0  0  0  0  0
  137.7354   70.4994  222.7789 H   0  0  0  0  0  0  0  0  0  0  0  0
  137.5140   72.1899  223.5206 H   0  0  0  0  0  0  0  0  0  0  0  0
  138.5952   71.3894  220.8777 H   0  0  0  0  0  0  0  0  0  0  0  0
  137.5895   72.7767  221.3476 H   0  0  0  0  0  0  0  0  0  0  0  0
  138.1407   74.8193  220.7545 H   0  0  0  0  0  0  0  0  0  0  0  0
  137.7860   76.6960  222.8160 H   0  0  0  0  0  0  0  0  0  0  0  0
  137.9640   75.1280  223.4540 H   0  0  0  0  0  0  0  0  0  0  0  0
  139.9537   76.4590  220.1453 H   0  0  0  0  0  0  0  0  0  0  0  0
  138.4218   77.2874  220.6937 H   0  0  0  0  0  0  0  0  0  0  0  0
  140.0553   76.8188  222.9237 H   0  0  0  0  0  0  0  0  0  0  0  0
  139.1105   79.2407  221.1579 H   0  0  0  0  0  0  0  0  0  0  0  0
  138.4794   78.8721  222.7320 H   0  0  0  0  0  0  0  0  0  0  0  0
  139.6616   81.2670  223.8334 H   0  0  0  0  0  0  0  0  0  0  0  0
  141.8553   82.1395  224.5409 H   0  0  0  0  0  0  0  0  0  0  0  0
  143.9747   81.0565  223.8875 H   0  0  0  0  0  0  0  0  0  0  0  0
  143.8860   78.9905  222.4515 H   0  0  0  0  0  0  0  0  0  0  0  0
  141.4293   78.0778  220.4597 H   0  0  0  0  0  0  0  0  0  0  0  0
  142.1781   77.0181  221.6208 H   0  0  0  0  0  0  0  0  0  0  0  0
  140.9716   71.3751  221.2910 H   0  0  0  0  0  0  0  0  0  0  0  0
  141.7417   72.7747  222.0997 H   0  0  0  0  0  0  0  0  0  0  0  0
  141.1385   70.4396  223.3326 H   0  0  0  0  0  0  0  0  0  0  0  0
  141.1901   72.0929  224.1483 H   0  0  0  0  0  0  0  0  0  0  0  0
  1  2  1  0
  2  3  1  0
  3  4  2  0
  3  5  1  0
  5  6  1  0
  6  7  2  0
  7  8  1  0
  8  9  2  0
  9 10  1  0
 10 11  2  0
  5 12  1  0
 12 13  1  0
 13 14  1  0
 14 15  1  0
 15 16  1  0
 16 17  2  0
 16 18  1  0
 18 19  1  0
 18 20  1  0
 20 21  1  0
 21 22  1  0
 22 23  1  0
 23 24  2  0
 24 25  1  0
 25 26  2  0
 26 27  1  0
 27 28  2  0
 28 29  1  0
 15 30  1  0
 30 31  1  0
 11  6  1  0
 31 12  1  0
 29 21  1  0
 28 23  1  0
  1 32  1  0
  1 33  1  0
  1 34  1  0
  2 35  1  0
  2 36  1  0
  7 37  1  0
  8 38  1  0
  9 39  1  0
 10 40  1  0
 11 41  1  0
 12 42  1  0
 13 43  1  0
 13 44  1  0
 14 45  1  0
 14 46  1  0
 18 47  1  6
 19 48  1  0
 19 49  1  0
 20 50  1  0
 20 51  1  0
 21 52  1  0
 22 53  1  0
 22 54  1  0
 24 55  1  0
 25 56  1  0
 26 57  1  0
 27 58  1  0
 29 59  1  0
 29 60  1  0
 30 61  1  0
 30 62  1  0
 31 63  1  0
 31 64  1  0
M  END
>  <smiles>  (18) 
CCC(=O)N(c1ccccc1)C1CCN(C(=O)[C@@H](N)CC2Cc3ccccc3C2)CC1

>  <score_type>  (18) 
oracle

>  <origin>  (18) 
autodockgpu

>  <m_score__min__energy>  (18) 
-9.3200000000000003

>  <m_primary>  (18) 
energy

>  <rmsd>  (18) 
7.040268981514161

>  <m_score__min__rmsd>  (18) 
7.040268981514161

>  <meeko>  (18) 
{"free_energy": -9.14, "intermolecular_energy": -11.52, "internal_energy": -1.51, "cluster_size": 24, "cluster_id": 1, "rank_in_cluster": 8}

>  <energy>  (18) 
-8.66

>  <cluster_rmsd>  (18) 
0.79

>  <cluster>  (18) 
1

$$$$

     RDKit          3D

 64 67  0  0  0  0  0  0  0  0999 V2000
  138.8450   67.1140  223.0800 C   0  0  0  0  0  0  0  0  0  0  0  0
  137.9930   68.3700  222.8150 C   0  0  0  0  0  0  0  0  0  0  0  0
  137.8110   69.1160  224.0950 C   0  0  0  0  0  0  0  0  0  0  0  0
  136.6740   68.9360  224.6330 O   0  0  0  0  0  0  0  0  0  0  0  0
  138.8200   69.9470  224.6530 N   0  0  0  0  0  0  0  0  0  0  0  0
  139.5330   69.6830  225.8340 C   0  0  0  0  0  0  0  0  0  0  0  0
  139.7900   68.4270  226.3360 C   0  0  0  0  0  0  0  0  0  0  0  0
  140.4950   68.1980  227.5100 C   0  0  0  0  0  0  0  0  0  0  0  0
  140.9830   69.2450  228.2460 C   0  0  0  0  0  0  0  0  0  0  0  0
  140.7450   70.5120  227.7740 C   0  0  0  0  0  0  0  0  0  0  0  0
  140.0340   70.7450  226.5890 C   0  0  0  0  0  0  0  0  0  0  0  0
  139.1000   71.1750  223.8780 C   0  0  0  0  0  0  0  0  0  0  0  0
  137.9470   71.4370  223.0060 C   0  0  0  0  0  0  0  0  0  0  0  0
  138.2120   72.1170  221.6830 C   0  0  0  0  0  0  0  0  0  0  0  0
  139.4380   72.8650  221.8370 N   0  0  0  0  0  0  0  0  0  0  0  0
  139.6120   74.2550  221.8030 C   0  0  0  0  0  0  0  0  0  0  0  0
  140.8190   74.6690  221.9780 O   0  0  0  0  0  0  0  0  0  0  0  0
  138.6180   75.3080  221.5960 C   0  0  1  0  0  0  0  0  0  0  0  0
  137.8190   75.6840  222.7170 N   0  0  0  0  0  0  0  0  0  0  0  0
  139.1980   76.6020  221.0460 C   0  0  0  0  0  0  0  0  0  0  0  0
  139.9690   77.3850  222.0570 C   0  0  0  0  0  0  0  0  0  0  0  0
  139.3520   78.7970  222.1450 C   0  0  0  0  0  0  0  0  0  0  0  0
  140.4930   79.5600  222.7180 C   0  0  0  0  0  0  0  0  0  0  0  0
  140.5580   80.7240  223.4890 C   0  0  0  0  0  0  0  0  0  0  0  0
  141.7990   81.1910  223.8730 C   0  0  0  0  0  0  0  0  0  0  0  0
  142.9820   80.5680  223.5330 C   0  0  0  0  0  0  0  0  0  0  0  0
  142.9150   79.4090  222.7660 C   0  0  0  0  0  0  0  0  0  0  0  0
  141.6770   78.9380  222.3790 C   0  0  0  0  0  0  0  0  0  0  0  0
  141.3660   77.7320  221.5660 C   0  0  0  0  0  0  0  0  0  0  0  0
  140.6300   71.9990  222.0590 C   0  0  0  0  0  0  0  0  0  0  0  0
  140.4740   71.2920  223.3790 C   0  0  0  0  0  0  0  0  0  0  0  0
  138.9476   66.9627  224.1647 H   0  0  0  0  0  0  0  0  0  0  0  0
  138.3546   66.2371  222.6323 H   0  0  0  0  0  0  0  0  0  0  0  0
  139.8411   67.2455  222.6323 H   0  0  0  0  0  0  0  0  0  0  0  0
  138.5032   69.0134  222.0831 H   0  0  0  0  0  0  0  0  0  0  0  0
  137.0116   68.0745  222.4157 H   0  0  0  0  0  0  0  0  0  0  0  0
  139.4162   67.5570  225.7761 H   0  0  0  0  0  0  0  0  0  0  0  0
  140.6632   67.1662  227.8522 H   0  0  0  0  0  0  0  0  0  0  0  0
  141.5431   69.0774  229.1778 H   0  0  0  0  0  0  0  0  0  0  0  0
  141.1248   71.3724  228.3445 H   0  0  0  0  0  0  0  0  0  0  0  0
  139.8685   71.7781  226.2494 H   0  0  0  0  0  0  0  0  0  0  0  0
  139.1581   72.0681  224.5175 H   0  0  0  0  0  0  0  0  0  0  0  0
  137.4714   70.4691  222.7893 H   0  0  0  0  0  0  0  0  0  0  0  0
  137.3274   72.1510  223.5684 H   0  0  0  0  0  0  0  0  0  0  0  0
  138.3238   71.3662  220.8869 H   0  0  0  0  0  0  0  0  0  0  0  0
  137.3782   72.7783  221.4049 H   0  0  0  0  0  0  0  0  0  0  0  0
  137.9714   74.7989  220.8661 H   0  0  0  0  0  0  0  0  0  0  0  0
  137.7050   74.9710  223.4550 H   0  0  0  0  0  0  0  0  0  0  0  0
  136.9280   76.1550  222.5110 H   0  0  0  0  0  0  0  0  0  0  0  0
  139.8695   76.3553  220.2104 H   0  0  0  0  0  0  0  0  0  0  0  0
  138.3508   77.2278  220.7289 H   0  0  0  0  0  0  0  0  0  0  0  0
  139.9666   76.7816  222.9767 H   0  0  0  0  0  0  0  0  0  0  0  0
  139.0670   79.1776  221.1530 H   0  0  0  0  0  0  0  0  0  0  0  0
  138.4233   78.8542  222.7318 H   0  0  0  0  0  0  0  0  0  0  0  0
  139.6411   81.2558  223.7831 H   0  0  0  0  0  0  0  0  0  0  0  0
  141.8471   82.1064  224.4810 H   0  0  0  0  0  0  0  0  0  0  0  0
  143.9503   80.9757  223.8589 H   0  0  0  0  0  0  0  0  0  0  0  0
  143.8326   78.8776  222.4733 H   0  0  0  0  0  0  0  0  0  0  0  0
  141.3680   77.9615  220.4902 H   0  0  0  0  0  0  0  0  0  0  0  0
  142.0954   76.9163  221.6779 H   0  0  0  0  0  0  0  0  0  0  0  0
  140.7055   71.2585  221.2491 H   0  0  0  0  0  0  0  0  0  0  0  0
  141.5427   72.6129  222.0683 H   0  0  0  0  0  0  0  0  0  0  0  0
  140.8814   70.2762  223.2688 H   0  0  0  0  0  0  0  0  0  0  0  0
  141.0095   71.9092  224.1154 H   0  0  0  0  0  0  0  0  0  0  0  0
  1  2  1  0
  2  3  1  0
  3  4  2  0
  3  5  1  0
  5  6  1  0
  6  7  2  0
  7  8  1  0
  8  9  2  0
  9 10  1  0
 10 11  2  0
  5 12  1  0
 12 13  1  0
 13 14  1  0
 14 15  1  0
 15 16  1  0
 16 17  2  0
 16 18  1  0
 18 19  1  0
 18 20  1  0
 20 21  1  0
 21 22  1  0
 22 23  1  0
 23 24  2  0
 24 25  1  0
 25 26  2  0
 26 27  1  0
 27 28  2  0
 28 29  1  0
 15 30  1  0
 30 31  1  0
 11  6  1  0
 31 12  1  0
 29 21  1  0
 28 23  1  0
  1 32  1  0
  1 33  1  0
  1 34  1  0
  2 35  1  0
  2 36  1  0
  7 37  1  0
  8 38  1  0
  9 39  1  0
 10 40  1  0
 11 41  1  0
 12 42  1  0
 13 43  1  0
 13 44  1  0
 14 45  1  0
 14 46  1  0
 18 47  1  6
 19 48  1  0
 19 49  1  0
 20 50  1  0
 20 51  1  0
 21 52  1  0
 22 53  1  0
 22 54  1  0
 24 55  1  0
 25 56  1  0
 26 57  1  0
 27 58  1  0
 29 59  1  0
 29 60  1  0
 30 61  1  0
 30 62  1  0
 31 63  1  0
 31 64  1  0
M  END
>  <smiles>  (19) 
CCC(=O)N(c1ccccc1)C1CCN(C(=O)[C@@H](N)CC2Cc3ccccc3C2)CC1

>  <score_type>  (19) 
oracle

>  <origin>  (19) 
autodockgpu

>  <m_score__min__energy>  (19) 
-9.3200000000000003

>  <m_primary>  (19) 
energy

>  <rmsd>  (19) 
7.115455469512751

>  <m_score__min__rmsd>  (19) 
7.115455469512751

>  <meeko>  (19) 
{"free_energy": -9.19, "intermolecular_energy": -11.58, "internal_energy": -1.5, "cluster_size": 24, "cluster_id": 1, "rank_in_cluster": 6}

>  <energy>  (19) 
-8.64

>  <cluster_rmsd>  (19) 
0.72

>  <cluster>  (19) 
1

$$$$

     RDKit          3D

 64 67  0  0  0  0  0  0  0  0999 V2000
  136.4210   69.0140  223.9010 C   0  0  0  0  0  0  0  0  0  0  0  0
  137.5650   68.3850  223.0830 C   0  0  0  0  0  0  0  0  0  0  0  0
  138.7960   68.3330  223.9250 C   0  0  0  0  0  0  0  0  0  0  0  0
  139.2020   67.1520  224.1630 O   0  0  0  0  0  0  0  0  0  0  0  0
  139.4480   69.4990  224.4100 N   0  0  0  0  0  0  0  0  0  0  0  0
  139.9570   69.6690  225.7080 C   0  0  0  0  0  0  0  0  0  0  0  0
  140.0000   68.6880  226.6720 C   0  0  0  0  0  0  0  0  0  0  0  0
  140.5060   68.8880  227.9500 C   0  0  0  0  0  0  0  0  0  0  0  0
  141.0010   70.1110  228.3210 C   0  0  0  0  0  0  0  0  0  0  0  0
  140.9740   71.1120  227.3830 C   0  0  0  0  0  0  0  0  0  0  0  0
  140.4640   70.9120  226.0920 C   0  0  0  0  0  0  0  0  0  0  0  0
  139.5740   70.5880  223.4170 C   0  0  0  0  0  0  0  0  0  0  0  0
  138.4490   71.5140  223.6090 C   0  0  0  0  0  0  0  0  0  0  0  0
  137.9270   72.2420  222.3930 C   0  0  0  0  0  0  0  0  0  0  0  0
  139.0140   72.2990  221.4440 N   0  0  0  0  0  0  0  0  0  0  0  0
  139.6940   73.4320  220.9780 C   0  0  0  0  0  0  0  0  0  0  0  0
  140.6380   73.2050  220.1330 O   0  0  0  0  0  0  0  0  0  0  0  0
  139.4850   74.8410  221.3130 C   0  0  1  0  0  0  0  0  0  0  0  0
  139.1580   75.1500  222.6660 N   0  0  0  0  0  0  0  0  0  0  0  0
  140.6600   75.7380  220.9530 C   0  0  0  0  0  0  0  0  0  0  0  0
  140.4910   77.1490  221.4120 C   0  0  0  0  0  0  0  0  0  0  0  0
  141.4280   78.0450  220.5740 C   0  0  0  0  0  0  0  0  0  0  0  0
  141.5550   79.2250  221.4700 C   0  0  0  0  0  0  0  0  0  0  0  0
  141.8290   80.5730  221.2220 C   0  0  0  0  0  0  0  0  0  0  0  0
  141.8800   81.4420  222.2930 C   0  0  0  0  0  0  0  0  0  0  0  0
  141.6740   81.0490  223.5990 C   0  0  0  0  0  0  0  0  0  0  0  0
  141.4010   79.7070  223.8440 C   0  0  0  0  0  0  0  0  0  0  0  0
  141.3490   78.8330  222.7760 C   0  0  0  0  0  0  0  0  0  0  0  0
  141.0760   77.3710  222.7990 C   0  0  0  0  0  0  0  0  0  0  0  0
  139.4200   70.9590  220.9340 C   0  0  0  0  0  0  0  0  0  0  0  0
  139.9850   70.1590  222.0770 C   0  0  0  0  0  0  0  0  0  0  0  0
  136.6313   68.8984  224.9745 H   0  0  0  0  0  0  0  0  0  0  0  0
  136.3402   70.0834  223.6563 H   0  0  0  0  0  0  0  0  0  0  0  0
  135.4747   68.5093  223.6563 H   0  0  0  0  0  0  0  0  0  0  0  0
  137.2834   67.3661  222.7789 H   0  0  0  0  0  0  0  0  0  0  0  0
  137.7555   68.9913  222.1851 H   0  0  0  0  0  0  0  0  0  0  0  0
  139.6124   67.6908  226.4165 H   0  0  0  0  0  0  0  0  0  0  0  0
  140.5095   68.0572  228.6709 H   0  0  0  0  0  0  0  0  0  0  0  0
  141.4037   70.2831  229.3301 H   0  0  0  0  0  0  0  0  0  0  0  0
  141.3653   72.1041  227.6525 H   0  0  0  0  0  0  0  0  0  0  0  0
  140.4634   71.7446  225.3731 H   0  0  0  0  0  0  0  0  0  0  0  0
  140.4639   71.2104  223.5921 H   0  0  0  0  0  0  0  0  0  0  0  0
  137.6138   70.9345  224.0293 H   0  0  0  0  0  0  0  0  0  0  0  0
  138.8476   72.3066  224.2593 H   0  0  0  0  0  0  0  0  0  0  0  0
  137.0752   71.6961  221.9612 H   0  0  0  0  0  0  0  0  0  0  0  0
  137.5786   73.2516  222.6561 H   0  0  0  0  0  0  0  0  0  0  0  0
  138.6012   75.0429  220.6900 H   0  0  0  0  0  0  0  0  0  0  0  0
  139.5470   74.5200  223.3850 H   0  0  0  0  0  0  0  0  0  0  0  0
  138.1740   75.3780  222.8620 H   0  0  0  0  0  0  0  0  0  0  0  0
  141.5681   75.3265  221.4177 H   0  0  0  0  0  0  0  0  0  0  0  0
  140.7280   75.7594  219.8553 H   0  0  0  0  0  0  0  0  0  0  0  0
  139.4135   77.3622  221.3522 H   0  0  0  0  0  0  0  0  0  0  0  0
  142.4008   77.5623  220.3990 H   0  0  0  0  0  0  0  0  0  0  0  0
  141.0567   78.2760  219.5647 H   0  0  0  0  0  0  0  0  0  0  0  0
  142.0000   80.9330  220.1967 H   0  0  0  0  0  0  0  0  0  0  0  0
  142.0960   82.5022  222.0949 H   0  0  0  0  0  0  0  0  0  0  0  0
  141.7241   81.7758  224.4232 H   0  0  0  0  0  0  0  0  0  0  0  0
  141.2297   79.3486  224.8698 H   0  0  0  0  0  0  0  0  0  0  0  0
  142.0002   76.7920  222.9425 H   0  0  0  0  0  0  0  0  0  0  0  0
  140.4173   77.0509  223.6198 H   0  0  0  0  0  0  0  0  0  0  0  0
  138.5441   70.4407  220.5167 H   0  0  0  0  0  0  0  0  0  0  0  0
  140.1778   71.0720  220.1447 H   0  0  0  0  0  0  0  0  0  0  0  0
  139.6705   69.1131  221.9456 H   0  0  0  0  0  0  0  0  0  0  0  0
  141.0744   70.3055  222.0361 H   0  0  0  0  0  0  0  0  0  0  0  0
  1  2  1  0
  2  3  1  0
  3  4  2  0
  3  5  1  0
  5  6  1  0
  6  7  2  0
  7  8  1  0
  8  9  2  0
  9 10  1  0
 10 11  2  0
  5 12  1  0
 12 13  1  0
 13 14  1  0
 14 15  1  0
 15 16  1  0
 16 17  2  0
 16 18  1  0
 18 19  1  0
 18 20  1  0
 20 21  1  0
 21 22  1  0
 22 23  1  0
 23 24  2  0
 24 25  1  0
 25 26  2  0
 26 27  1  0
 27 28  2  0
 28 29  1  0
 15 30  1  0
 30 31  1  0
 11  6  1  0
 31 12  1  0
 29 21  1  0
 28 23  1  0
  1 32  1  0
  1 33  1  0
  1 34  1  0
  2 35  1  0
  2 36  1  0
  7 37  1  0
  8 38  1  0
  9 39  1  0
 10 40  1  0
 11 41  1  0
 12 42  1  0
 13 43  1  0
 13 44  1  0
 14 45  1  0
 14 46  1  0
 18 47  1  6
 19 48  1  0
 19 49  1  0
 20 50  1  0
 20 51  1  0
 21 52  1  0
 22 53  1  0
 22 54  1  0
 24 55  1  0
 25 56  1  0
 26 57  1  0
 27 58  1  0
 29 59  1  0
 29 60  1  0
 30 61  1  0
 30 62  1  0
 31 63  1  0
 31 64  1  0
M  END
>  <smiles>  (20) 
CCC(=O)N(c1ccccc1)C1CCN(C(=O)[C@@H](N)CC2Cc3ccccc3C2)CC1

>  <score_type>  (20) 
oracle

>  <origin>  (20) 
autodockgpu

>  <m_score__min__energy>  (20) 
-9.3200000000000003

>  <m_primary>  (20) 
energy

>  <rmsd>  (20) 
7.301623428461505

>  <m_score__min__rmsd>  (20) 
7.301623428461505

>  <meeko>  (20) 
{"free_energy": -8.74, "intermolecular_energy": -11.12, "internal_energy": -1.4, "cluster_size": 24, "cluster_id": 1, "rank_in_cluster": 13}

>  <energy>  (20) 
-8.59

>  <cluster_rmsd>  (20) 
1.12

>  <cluster>  (20) 
1

$$$$

     RDKit          3D

 64 67  0  0  0  0  0  0  0  0999 V2000
  142.9420   77.4930  216.9910 C   0  0  0  0  0  0  0  0  0  0  0  0
  142.4860   78.2320  218.2650 C   0  0  0  0  0  0  0  0  0  0  0  0
  142.5770   77.3020  219.4290 C   0  0  0  0  0  0  0  0  0  0  0  0
  143.4900   76.4250  219.3100 O   0  0  0  0  0  0  0  0  0  0  0  0
  141.7200   77.3940  220.5590 N   0  0  0  0  0  0  0  0  0  0  0  0
  141.6990   78.4530  221.4810 C   0  0  0  0  0  0  0  0  0  0  0  0
  141.9140   79.7760  221.1680 C   0  0  0  0  0  0  0  0  0  0  0  0
  141.8910   80.8010  222.1050 C   0  0  0  0  0  0  0  0  0  0  0  0
  141.6450   80.5330  223.4260 C   0  0  0  0  0  0  0  0  0  0  0  0
  141.4260   79.2230  223.7730 C   0  0  0  0  0  0  0  0  0  0  0  0
  141.4490   78.1870  222.8290 C   0  0  0  0  0  0  0  0  0  0  0  0
  140.7940   76.2530  220.7200 C   0  0  0  0  0  0  0  0  0  0  0  0
  141.4330   75.2690  221.6060 C   0  0  0  0  0  0  0  0  0  0  0  0
  141.1020   73.8120  221.3860 C   0  0  0  0  0  0  0  0  0  0  0  0
  139.8080   73.7700  220.7450 N   0  0  0  0  0  0  0  0  0  0  0  0
  138.6090   73.2540  221.2560 C   0  0  0  0  0  0  0  0  0  0  0  0
  137.5870   73.3500  220.4780 O   0  0  0  0  0  0  0  0  0  0  0  0
  138.3490   72.6190  222.5470 C   0  0  1  0  0  0  0  0  0  0  0  0
  136.9860   72.4740  222.9440 N   0  0  0  0  0  0  0  0  0  0  0  0
  138.9730   71.2390  222.6910 C   0  0  0  0  0  0  0  0  0  0  0  0
  139.0120   70.7490  224.1010 C   0  0  0  0  0  0  0  0  0  0  0  0
  140.1940   71.4340  224.8180 C   0  0  0  0  0  0  0  0  0  0  0  0
  140.4240   70.4850  225.9390 C   0  0  0  0  0  0  0  0  0  0  0  0
  140.9690   70.6460  227.2160 C   0  0  0  0  0  0  0  0  0  0  0  0
  141.0460   69.5440  228.0430 C   0  0  0  0  0  0  0  0  0  0  0  0
  140.6110   68.2880  227.6750 C   0  0  0  0  0  0  0  0  0  0  0  0
  140.0680   68.1290  226.4040 C   0  0  0  0  0  0  0  0  0  0  0  0
  139.9890   69.2280  225.5730 C   0  0  0  0  0  0  0  0  0  0  0  0
  139.4510   69.2950  224.1880 C   0  0  0  0  0  0  0  0  0  0  0  0
  139.8080   74.3660  219.3800 C   0  0  0  0  0  0  0  0  0  0  0  0
  140.1040   75.8370  219.4960 C   0  0  0  0  0  0  0  0  0  0  0  0
  143.5005   76.5880  217.2721 H   0  0  0  0  0  0  0  0  0  0  0  0
  142.0611   77.2102  216.3960 H   0  0  0  0  0  0  0  0  0  0  0  0
  143.5898   78.1535  216.3960 H   0  0  0  0  0  0  0  0  0  0  0  0
  143.1353   79.1029  218.4379 H   0  0  0  0  0  0  0  0  0  0  0  0
  141.4472   78.5727  218.1436 H   0  0  0  0  0  0  0  0  0  0  0  0
  142.1151   80.0358  220.1182 H   0  0  0  0  0  0  0  0  0  0  0  0
  142.0719   81.8373  221.7836 H   0  0  0  0  0  0  0  0  0  0  0  0
  141.6239   81.3353  224.1782 H   0  0  0  0  0  0  0  0  0  0  0  0
  141.2258   78.9782  224.8266 H   0  0  0  0  0  0  0  0  0  0  0  0
  141.2679   77.1518  223.1540 H   0  0  0  0  0  0  0  0  0  0  0  0
  139.8739   76.5357  221.2525 H   0  0  0  0  0  0  0  0  0  0  0  0
  142.5213   75.3803  221.4910 H   0  0  0  0  0  0  0  0  0  0  0  0
  141.0390   75.4971  222.6074 H   0  0  0  0  0  0  0  0  0  0  0  0
  141.8599   73.3449  220.7400 H   0  0  0  0  0  0  0  0  0  0  0  0
  141.0886   73.2621  222.3386 H   0  0  0  0  0  0  0  0  0  0  0  0
  138.8233   73.3610  223.2061 H   0  0  0  0  0  0  0  0  0  0  0  0
  136.2780   72.6540  222.2150 H   0  0  0  0  0  0  0  0  0  0  0  0
  136.7180   72.9050  223.8390 H   0  0  0  0  0  0  0  0  0  0  0  0
  138.3872   70.5273  222.0908 H   0  0  0  0  0  0  0  0  0  0  0  0
  140.0145   71.3164  222.3456 H   0  0  0  0  0  0  0  0  0  0  0  0
  138.0080   70.9282  224.5132 H   0  0  0  0  0  0  0  0  0  0  0  0
  141.0754   71.5103  224.1643 H   0  0  0  0  0  0  0  0  0  0  0  0
  139.9997   72.4707  225.1301 H   0  0  0  0  0  0  0  0  0  0  0  0
  141.3284   71.6291  227.5542 H   0  0  0  0  0  0  0  0  0  0  0  0
  141.4763   69.6739  229.0470 H   0  0  0  0  0  0  0  0  0  0  0  0
  140.6911   67.4364  228.3666 H   0  0  0  0  0  0  0  0  0  0  0  0
  139.7082   67.1454  226.0676 H   0  0  0  0  0  0  0  0  0  0  0  0
  140.2278   69.0649  223.4440 H   0  0  0  0  0  0  0  0  0  0  0  0
  138.6476   68.5718  223.9843 H   0  0  0  0  0  0  0  0  0  0  0  0
  140.5794   73.8806  218.7641 H   0  0  0  0  0  0  0  0  0  0  0  0
  138.8265   74.2173  218.9060 H   0  0  0  0  0  0  0  0  0  0  0  0
  140.7326   76.1235  218.6400 H   0  0  0  0  0  0  0  0  0  0  0  0
  139.1251   76.3383  219.5192 H   0  0  0  0  0  0  0  0  0  0  0  0
  1  2  1  0
  2  3  1  0
  3  4  2  0
  3  5  1  0
  5  6  1  0
  6  7  2  0
  7  8  1  0
  8  9  2  0
  9 10  1  0
 10 11  2  0
  5 12  1  0
 12 13  1  0
 13 14  1  0
 14 15  1  0
 15 16  1  0
 16 17  2  0
 16 18  1  0
 18 19  1  0
 18 20  1  0
 20 21  1  0
 21 22  1  0
 22 23  1  0
 23 24  2  0
 24 25  1  0
 25 26  2  0
 26 27  1  0
 27 28  2  0
 28 29  1  0
 15 30  1  0
 30 31  1  0
 11  6  1  0
 31 12  1  0
 29 21  1  0
 28 23  1  0
  1 32  1  0
  1 33  1  0
  1 34  1  0
  2 35  1  0
  2 36  1  0
  7 37  1  0
  8 38  1  0
  9 39  1  0
 10 40  1  0
 11 41  1  0
 12 42  1  0
 13 43  1  0
 13 44  1  0
 14 45  1  0
 14 46  1  0
 18 47  1  1
 19 48  1  0
 19 49  1  0
 20 50  1  0
 20 51  1  0
 21 52  1  0
 22 53  1  0
 22 54  1  0
 24 55  1  0
 25 56  1  0
 26 57  1  0
 27 58  1  0
 29 59  1  0
 29 60  1  0
 30 61  1  0
 30 62  1  0
 31 63  1  0
 31 64  1  0
M  END
>  <smiles>  (21) 
CCC(=O)N(c1ccccc1)C1CCN(C(=O)[C@@H](N)CC2Cc3ccccc3C2)CC1

>  <score_type>  (21) 
oracle

>  <origin>  (21) 
autodockgpu

>  <m_score__min__energy>  (21) 
-9.3200000000000003

>  <m_primary>  (21) 
energy

>  <rmsd>  (21) 
6.978436909831989

>  <m_score__min__rmsd>  (21) 
6.978436909831989

>  <meeko>  (21) 
{"free_energy": -7.91, "intermolecular_energy": -10.29, "internal_energy": -2.04, "cluster_size": 18, "cluster_id": 3, "rank_in_cluster": 11}

>  <energy>  (21) 
-8.52

>  <cluster_rmsd>  (21) 
1.21

>  <cluster>  (21) 
1

$$$$

     RDKit          3D

 64 67  0  0  0  0  0  0  0  0999 V2000
  135.6220   69.1050  223.7670 C   0  0  0  0  0  0  0  0  0  0  0  0
  136.5580   69.2740  224.9800 C   0  0  0  0  0  0  0  0  0  0  0  0
  137.9730   69.1140  224.5310 C   0  0  0  0  0  0  0  0  0  0  0  0
  138.1380   68.1710  223.6950 O   0  0  0  0  0  0  0  0  0  0  0  0
  139.0280   69.9430  224.9980 N   0  0  0  0  0  0  0  0  0  0  0  0
  139.7750   69.7310  226.1680 C   0  0  0  0  0  0  0  0  0  0  0  0
  140.3550   70.7240  226.9240 C   0  0  0  0  0  0  0  0  0  0  0  0
  141.0920   70.4830  228.0760 C   0  0  0  0  0  0  0  0  0  0  0  0
  141.2820   69.2030  228.5270 C   0  0  0  0  0  0  0  0  0  0  0  0
  140.7170   68.1870  227.7970 C   0  0  0  0  0  0  0  0  0  0  0  0
  139.9720   68.4290  226.6340 C   0  0  0  0  0  0  0  0  0  0  0  0
  139.3210   71.1070  224.1350 C   0  0  0  0  0  0  0  0  0  0  0  0
  138.1550   71.3370  223.2690 C   0  0  0  0  0  0  0  0  0  0  0  0
  138.4070   71.9180  221.8970 C   0  0  0  0  0  0  0  0  0  0  0  0
  139.6540   72.6440  221.9750 N   0  0  0  0  0  0  0  0  0  0  0  0
  139.8590   74.0240  221.8410 C   0  0  0  0  0  0  0  0  0  0  0  0
  141.0780   74.4180  221.9640 O   0  0  0  0  0  0  0  0  0  0  0  0
  138.8850   75.0840  221.5820 C   0  0  1  0  0  0  0  0  0  0  0  0
  138.2490   75.6800  222.7110 N   0  0  0  0  0  0  0  0  0  0  0  0
  139.4380   76.2380  220.7580 C   0  0  0  0  0  0  0  0  0  0  0  0
  139.7380   77.4560  221.5690 C   0  0  0  0  0  0  0  0  0  0  0  0
  140.4350   78.4840  220.6530 C   0  0  0  0  0  0  0  0  0  0  0  0
  141.1240   79.3290  221.6640 C   0  0  0  0  0  0  0  0  0  0  0  0
  141.5390   80.6640  221.6540 C   0  0  0  0  0  0  0  0  0  0  0  0
  142.1660   81.1680  222.7750 C   0  0  0  0  0  0  0  0  0  0  0  0
  142.4070   80.4200  223.9080 C   0  0  0  0  0  0  0  0  0  0  0  0
  141.9930   79.0910  223.9170 C   0  0  0  0  0  0  0  0  0  0  0  0
  141.3650   78.5830  222.7980 C   0  0  0  0  0  0  0  0  0  0  0  0
  140.8430   77.2070  222.5840 C   0  0  0  0  0  0  0  0  0  0  0  0
  140.8300   71.7660  222.2330 C   0  0  0  0  0  0  0  0  0  0  0  0
  140.6850   71.1560  223.6010 C   0  0  0  0  0  0  0  0  0  0  0  0
  134.5962   68.9198  224.1184 H   0  0  0  0  0  0  0  0  0  0  0  0
  135.6413   70.0212  223.1585 H   0  0  0  0  0  0  0  0  0  0  0  0
  135.9605   68.2535  223.1585 H   0  0  0  0  0  0  0  0  0  0  0  0
  136.4204   70.2750  225.4148 H   0  0  0  0  0  0  0  0  0  0  0  0
  136.3218   68.5139  225.7392 H   0  0  0  0  0  0  0  0  0  0  0  0
  140.2277   71.7667  226.5975 H   0  0  0  0  0  0  0  0  0  0  0  0
  141.5271   71.3269  228.6314 H   0  0  0  0  0  0  0  0  0  0  0  0
  141.8640   68.9979  229.4376 H   0  0  0  0  0  0  0  0  0  0  0  0
  140.8531   67.1492  228.1354 H   0  0  0  0  0  0  0  0  0  0  0  0
  139.5372   67.5829  226.0817 H   0  0  0  0  0  0  0  0  0  0  0  0
  139.4153   72.0391  224.7114 H   0  0  0  0  0  0  0  0  0  0  0  0
  137.6526   70.3685  223.1292 H   0  0  0  0  0  0  0  0  0  0  0  0
  137.5644   72.1030  223.7929 H   0  0  0  0  0  0  0  0  0  0  0  0
  138.4838   71.1119  221.1524 H   0  0  0  0  0  0  0  0  0  0  0  0
  137.5832   72.5793  221.5904 H   0  0  0  0  0  0  0  0  0  0  0  0
  138.1322   74.5015  221.0306 H   0  0  0  0  0  0  0  0  0  0  0  0
  138.7930   75.6880  223.5890 H   0  0  0  0  0  0  0  0  0  0  0  0
  137.2690   75.4160  222.8810 H   0  0  0  0  0  0  0  0  0  0  0  0
  140.3669   75.9054  220.2717 H   0  0  0  0  0  0  0  0  0  0  0  0
  138.6633   76.5165  220.0284 H   0  0  0  0  0  0  0  0  0  0  0  0
  138.7853   77.7611  222.0263 H   0  0  0  0  0  0  0  0  0  0  0  0
  141.1513   78.0007  219.9723 H   0  0  0  0  0  0  0  0  0  0  0  0
  139.7570   79.0335  219.9834 H   0  0  0  0  0  0  0  0  0  0  0  0
  141.3694   81.2987  220.7717 H   0  0  0  0  0  0  0  0  0  0  0  0
  142.4898   82.2192  222.7643 H   0  0  0  0  0  0  0  0  0  0  0  0
  142.9121   80.8610  224.7800 H   0  0  0  0  0  0  0  0  0  0  0  0
  142.1633   78.4573  224.7999 H   0  0  0  0  0  0  0  0  0  0  0  0
  141.6190   76.5415  222.1779 H   0  0  0  0  0  0  0  0  0  0  0  0
  140.5030   76.7084  223.5037 H   0  0  0  0  0  0  0  0  0  0  0  0
  140.8711   70.9699  221.4751 H   0  0  0  0  0  0  0  0  0  0  0  0
  141.7570   72.3560  222.1818 H   0  0  0  0  0  0  0  0  0  0  0  0
  141.0662   70.1253  223.5533 H   0  0  0  0  0  0  0  0  0  0  0  0
  141.2496   71.8101  224.2817 H   0  0  0  0  0  0  0  0  0  0  0  0
  1  2  1  0
  2  3  1  0
  3  4  2  0
  3  5  1  0
  5  6  1  0
  6  7  2  0
  7  8  1  0
  8  9  2  0
  9 10  1  0
 10 11  2  0
  5 12  1  0
 12 13  1  0
 13 14  1  0
 14 15  1  0
 15 16  1  0
 16 17  2  0
 16 18  1  0
 18 19  1  0
 18 20  1  0
 20 21  1  0
 21 22  1  0
 22 23  1  0
 23 24  2  0
 24 25  1  0
 25 26  2  0
 26 27  1  0
 27 28  2  0
 28 29  1  0
 15 30  1  0
 30 31  1  0
 11  6  1  0
 31 12  1  0
 29 21  1  0
 28 23  1  0
  1 32  1  0
  1 33  1  0
  1 34  1  0
  2 35  1  0
  2 36  1  0
  7 37  1  0
  8 38  1  0
  9 39  1  0
 10 40  1  0
 11 41  1  0
 12 42  1  0
 13 43  1  0
 13 44  1  0
 14 45  1  0
 14 46  1  0
 18 47  1  6
 19 48  1  0
 19 49  1  0
 20 50  1  0
 20 51  1  0
 21 52  1  0
 22 53  1  0
 22 54  1  0
 24 55  1  0
 25 56  1  0
 26 57  1  0
 27 58  1  0
 29 59  1  0
 29 60  1  0
 30 61  1  0
 30 62  1  0
 31 63  1  0
 31 64  1  0
M  END
>  <smiles>  (22) 
CCC(=O)N(c1ccccc1)C1CCN(C(=O)[C@@H](N)CC2Cc3ccccc3C2)CC1

>  <score_type>  (22) 
oracle

>  <origin>  (22) 
autodockgpu

>  <m_score__min__energy>  (22) 
-9.3200000000000003

>  <m_primary>  (22) 
energy

>  <rmsd>  (22) 
7.125757085854676

>  <m_score__min__rmsd>  (22) 
7.125757085854676

>  <meeko>  (22) 
{"free_energy": -8.99, "intermolecular_energy": -11.38, "internal_energy": -1.5, "cluster_size": 24, "cluster_id": 1, "rank_in_cluster": 10}

>  <energy>  (22) 
-8.5

>  <cluster_rmsd>  (22) 
0.79

>  <cluster>  (22) 
1

$$$$

     RDKit          3D

 64 67  0  0  0  0  0  0  0  0999 V2000
  142.5640   79.0590  218.1190 C   0  0  0  0  0  0  0  0  0  0  0  0
  142.0530   77.6160  218.3020 C   0  0  0  0  0  0  0  0  0  0  0  0
  142.4510   77.1250  219.6540 C   0  0  0  0  0  0  0  0  0  0  0  0
  143.6040   76.5900  219.6810 O   0  0  0  0  0  0  0  0  0  0  0  0
  141.6150   77.2480  220.7960 N   0  0  0  0  0  0  0  0  0  0  0  0
  141.6190   78.3240  221.6980 C   0  0  0  0  0  0  0  0  0  0  0  0
  141.4320   78.2140  223.0570 C   0  0  0  0  0  0  0  0  0  0  0  0
  141.4370   79.2990  223.9240 C   0  0  0  0  0  0  0  0  0  0  0  0
  141.6360   80.5700  223.4500 C   0  0  0  0  0  0  0  0  0  0  0  0
  141.8260   80.7150  222.0980 C   0  0  0  0  0  0  0  0  0  0  0  0
  141.8210   79.6210  221.2220 C   0  0  0  0  0  0  0  0  0  0  0  0
  140.6820   76.1180  220.9960 C   0  0  0  0  0  0  0  0  0  0  0  0
  141.4560   74.9660  221.4800 C   0  0  0  0  0  0  0  0  0  0  0  0
  140.9700   73.5880  221.0990 C   0  0  0  0  0  0  0  0  0  0  0  0
  139.5530   73.7020  220.8420 N   0  0  0  0  0  0  0  0  0  0  0  0
  138.4970   73.1230  221.5590 C   0  0  0  0  0  0  0  0  0  0  0  0
  137.3160   73.3930  221.1220 O   0  0  0  0  0  0  0  0  0  0  0  0
  138.5420   72.2560  222.7350 C   0  0  1  0  0  0  0  0  0  0  0  0
  137.3010   71.9420  223.3650 N   0  0  0  0  0  0  0  0  0  0  0  0
  139.2330   70.9230  222.4900 C   0  0  0  0  0  0  0  0  0  0  0  0
  139.9770   70.4120  223.6800 C   0  0  0  0  0  0  0  0  0  0  0  0
  139.0490   69.4480  224.4510 C   0  0  0  0  0  0  0  0  0  0  0  0
  139.6790   69.4790  225.7980 C   0  0  0  0  0  0  0  0  0  0  0  0
  139.7080   68.5570  226.8480 C   0  0  0  0  0  0  0  0  0  0  0  0
  140.3950   68.8890  227.9980 C   0  0  0  0  0  0  0  0  0  0  0  0
  141.0570   70.0870  228.1650 C   0  0  0  0  0  0  0  0  0  0  0  0
  141.0280   71.0040  227.1190 C   0  0  0  0  0  0  0  0  0  0  0  0
  140.3420   70.6770  225.9670 C   0  0  0  0  0  0  0  0  0  0  0  0
  140.1780   71.4910  224.7340 C   0  0  0  0  0  0  0  0  0  0  0  0
  139.2370   74.5510  219.6600 C   0  0  0  0  0  0  0  0  0  0  0  0
  139.6620   75.9650  219.9540 C   0  0  0  0  0  0  0  0  0  0  0  0
  142.7266   79.5182  219.1052 H   0  0  0  0  0  0  0  0  0  0  0  0
  143.5116   79.0444  217.5606 H   0  0  0  0  0  0  0  0  0  0  0  0
  141.8184   79.6440  217.5606 H   0  0  0  0  0  0  0  0  0  0  0  0
  140.9568   77.5992  218.2119 H   0  0  0  0  0  0  0  0  0  0  0  0
  142.4899   76.9672  217.5286 H   0  0  0  0  0  0  0  0  0  0  0  0
  141.2697   77.2116  223.4798 H   0  0  0  0  0  0  0  0  0  0  0  0
  141.2799   79.1371  225.0006 H   0  0  0  0  0  0  0  0  0  0  0  0
  141.6431   81.4382  224.1254 H   0  0  0  0  0  0  0  0  0  0  0  0
  141.9875   81.7232  221.6888 H   0  0  0  0  0  0  0  0  0  0  0  0
  141.9782   79.7862  220.1459 H   0  0  0  0  0  0  0  0  0  0  0  0
  139.9605   76.3119  221.8034 H   0  0  0  0  0  0  0  0  0  0  0  0
  142.4805   75.0721  221.0939 H   0  0  0  0  0  0  0  0  0  0  0  0
  141.3586   75.0039  222.5750 H   0  0  0  0  0  0  0  0  0  0  0  0
  141.4918   73.2386  220.1959 H   0  0  0  0  0  0  0  0  0  0  0  0
  141.1686   72.8631  221.9022 H   0  0  0  0  0  0  0  0  0  0  0  0
  139.1179   72.9051  223.4110 H   0  0  0  0  0  0  0  0  0  0  0  0
  136.4500   72.1180  222.8080 H   0  0  0  0  0  0  0  0  0  0  0  0
  137.1840   72.2600  224.3370 H   0  0  0  0  0  0  0  0  0  0  0  0
  138.4703   70.1812  222.2109 H   0  0  0  0  0  0  0  0  0  0  0  0
  139.9710   71.0824  221.6900 H   0  0  0  0  0  0  0  0  0  0  0  0
  140.9196   69.9958  223.2948 H   0  0  0  0  0  0  0  0  0  0  0  0
  138.0134   69.8178  224.4791 H   0  0  0  0  0  0  0  0  0  0  0  0
  138.9641   68.4442  224.0092 H   0  0  0  0  0  0  0  0  0  0  0  0
  139.1946   67.5882  226.7598 H   0  0  0  0  0  0  0  0  0  0  0  0
  140.4155   68.1614  228.8227 H   0  0  0  0  0  0  0  0  0  0  0  0
  141.5930   70.3114  229.0990 H   0  0  0  0  0  0  0  0  0  0  0  0
  141.5425   71.9721  227.2086 H   0  0  0  0  0  0  0  0  0  0  0  0
  139.3020   72.1526  224.8033 H   0  0  0  0  0  0  0  0  0  0  0  0
  141.0214   72.1664  224.5280 H   0  0  0  0  0  0  0  0  0  0  0  0
  139.7800   74.1767  218.7796 H   0  0  0  0  0  0  0  0  0  0  0  0
  138.1570   74.5194  219.4538 H   0  0  0  0  0  0  0  0  0  0  0  0
  140.0603   76.3984  219.0248 H   0  0  0  0  0  0  0  0  0  0  0  0
  138.7649   76.4750  220.3350 H   0  0  0  0  0  0  0  0  0  0  0  0
  1  2  1  0
  2  3  1  0
  3  4  2  0
  3  5  1  0
  5  6  1  0
  6  7  2  0
  7  8  1  0
  8  9  2  0
  9 10  1  0
 10 11  2  0
  5 12  1  0
 12 13  1  0
 13 14  1  0
 14 15  1  0
 15 16  1  0
 16 17  2  0
 16 18  1  0
 18 19  1  0
 18 20  1  0
 20 21  1  0
 21 22  1  0
 22 23  1  0
 23 24  2  0
 24 25  1  0
 25 26  2  0
 26 27  1  0
 27 28  2  0
 28 29  1  0
 15 30  1  0
 30 31  1  0
 11  6  1  0
 31 12  1  0
 29 21  1  0
 28 23  1  0
  1 32  1  0
  1 33  1  0
  1 34  1  0
  2 35  1  0
  2 36  1  0
  7 37  1  0
  8 38  1  0
  9 39  1  0
 10 40  1  0
 11 41  1  0
 12 42  1  0
 13 43  1  0
 13 44  1  0
 14 45  1  0
 14 46  1  0
 18 47  1  1
 19 48  1  0
 19 49  1  0
 20 50  1  0
 20 51  1  0
 21 52  1  0
 22 53  1  0
 22 54  1  0
 24 55  1  0
 25 56  1  0
 26 57  1  0
 27 58  1  0
 29 59  1  0
 29 60  1  0
 30 61  1  0
 30 62  1  0
 31 63  1  0
 31 64  1  0
M  END
>  <smiles>  (23) 
CCC(=O)N(c1ccccc1)C1CCN(C(=O)[C@@H](N)CC2Cc3ccccc3C2)CC1

>  <score_type>  (23) 
oracle

>  <origin>  (23) 
autodockgpu

>  <m_score__min__energy>  (23) 
-9.3200000000000003

>  <m_primary>  (23) 
energy

>  <rmsd>  (23) 
6.953750251832901

>  <m_score__min__rmsd>  (23) 
6.953750251832901

>  <meeko>  (23) 
{"free_energy": -8.1, "intermolecular_energy": -10.49, "internal_energy": -2.18, "cluster_size": 18, "cluster_id": 3, "rank_in_cluster": 1}

>  <energy>  (23) 
-8.32

>  <cluster_rmsd>  (23) 
1.43

>  <cluster>  (23) 
1

$$$$

     RDKit          3D

 64 67  0  0  0  0  0  0  0  0999 V2000
  143.2350   75.1400  218.6250 C   0  0  0  0  0  0  0  0  0  0  0  0
  143.5600   76.4090  219.4370 C   0  0  0  0  0  0  0  0  0  0  0  0
  142.3200   77.2280  219.5790 C   0  0  0  0  0  0  0  0  0  0  0  0
  142.0230   77.8860  218.5320 O   0  0  0  0  0  0  0  0  0  0  0  0
  141.5510   77.2630  220.7730 N   0  0  0  0  0  0  0  0  0  0  0  0
  141.5860   78.2840  221.7360 C   0  0  0  0  0  0  0  0  0  0  0  0
  141.4000   78.0990  223.0870 C   0  0  0  0  0  0  0  0  0  0  0  0
  141.4360   79.1300  224.0170 C   0  0  0  0  0  0  0  0  0  0  0  0
  141.6670   80.4210  223.6180 C   0  0  0  0  0  0  0  0  0  0  0  0
  141.8570   80.6410  222.2760 C   0  0  0  0  0  0  0  0  0  0  0  0
  141.8210   79.6010  221.3370 C   0  0  0  0  0  0  0  0  0  0  0  0
  140.6540   76.1020  220.9580 C   0  0  0  0  0  0  0  0  0  0  0  0
  141.4350   75.0150  221.5660 C   0  0  0  0  0  0  0  0  0  0  0  0
  141.0440   73.5970  221.2230 C   0  0  0  0  0  0  0  0  0  0  0  0
  139.6500   73.6290  220.8440 N   0  0  0  0  0  0  0  0  0  0  0  0
  138.5630   73.0380  221.5030 C   0  0  0  0  0  0  0  0  0  0  0  0
  137.4130   73.2270  220.9560 O   0  0  0  0  0  0  0  0  0  0  0  0
  138.5460   72.2350  222.7250 C   0  0  1  0  0  0  0  0  0  0  0  0
  137.2810   72.0190  223.3490 N   0  0  0  0  0  0  0  0  0  0  0  0
  139.1720   70.8580  222.5650 C   0  0  0  0  0  0  0  0  0  0  0  0
  139.9470   70.4150  223.7620 C   0  0  0  0  0  0  0  0  0  0  0  0
  139.0850   69.4030  224.5470 C   0  0  0  0  0  0  0  0  0  0  0  0
  139.7100   69.4950  225.8930 C   0  0  0  0  0  0  0  0  0  0  0  0
  139.7990   68.5920  226.9560 C   0  0  0  0  0  0  0  0  0  0  0  0
  140.4620   68.9860  228.1010 C   0  0  0  0  0  0  0  0  0  0  0  0
  141.0430   70.2280  228.2510 C   0  0  0  0  0  0  0  0  0  0  0  0
  140.9530   71.1250  227.1920 C   0  0  0  0  0  0  0  0  0  0  0  0
  140.2910   70.7370  226.0450 C   0  0  0  0  0  0  0  0  0  0  0  0
  140.0740   71.5200  224.8000 C   0  0  0  0  0  0  0  0  0  0  0  0
  139.3980   74.4010  219.5950 C   0  0  0  0  0  0  0  0  0  0  0  0
  139.7340   75.8460  219.8450 C   0  0  0  0  0  0  0  0  0  0  0  0
  143.0221   74.3088  219.3133 H   0  0  0  0  0  0  0  0  0  0  0  0
  142.3554   75.3256  217.9911 H   0  0  0  0  0  0  0  0  0  0  0  0
  144.0955   74.8799  217.9911 H   0  0  0  0  0  0  0  0  0  0  0  0
  143.9297   76.1244  220.4331 H   0  0  0  0  0  0  0  0  0  0  0  0
  144.3333   76.9938  218.9175 H   0  0  0  0  0  0  0  0  0  0  0  0
  141.2124   77.0779  223.4505 H   0  0  0  0  0  0  0  0  0  0  0  0
  141.2778   78.9087  225.0828 H   0  0  0  0  0  0  0  0  0  0  0  0
  141.6989   81.2472  224.3435 H   0  0  0  0  0  0  0  0  0  0  0  0
  142.0436   81.6671  221.9264 H   0  0  0  0  0  0  0  0  0  0  0  0
  141.9800   79.8254  220.2719 H   0  0  0  0  0  0  0  0  0  0  0  0
  139.8587   76.3027  221.6909 H   0  0  0  0  0  0  0  0  0  0  0  0
  142.4826   75.1509  221.2593 H   0  0  0  0  0  0  0  0  0  0  0  0
  141.2445   75.1041  222.6457 H   0  0  0  0  0  0  0  0  0  0  0  0
  141.6555   73.2272  220.3868 H   0  0  0  0  0  0  0  0  0  0  0  0
  141.2053   72.9249  222.0787 H   0  0  0  0  0  0  0  0  0  0  0  0
  139.1442   72.8903  223.3752 H   0  0  0  0  0  0  0  0  0  0  0  0
  136.4480   72.2320  222.7770 H   0  0  0  0  0  0  0  0  0  0  0  0
  137.1750   72.3720  224.3090 H   0  0  0  0  0  0  0  0  0  0  0  0
  138.3688   70.1294  222.3807 H   0  0  0  0  0  0  0  0  0  0  0  0
  139.8796   70.9191  221.7250 H   0  0  0  0  0  0  0  0  0  0  0  0
  140.9155   70.0569  223.3828 H   0  0  0  0  0  0  0  0  0  0  0  0
  138.0271   69.7034  224.5699 H   0  0  0  0  0  0  0  0  0  0  0  0
  139.0677   68.3895  224.1197 H   0  0  0  0  0  0  0  0  0  0  0  0
  139.3509   67.5901  226.8820 H   0  0  0  0  0  0  0  0  0  0  0  0
  140.5304   68.2733  228.9361 H   0  0  0  0  0  0  0  0  0  0  0  0
  141.5625   70.5011  229.1814 H   0  0  0  0  0  0  0  0  0  0  0  0
  141.4018   72.1265  227.2674 H   0  0  0  0  0  0  0  0  0  0  0  0
  139.1555   72.1223  224.8596 H   0  0  0  0  0  0  0  0  0  0  0  0
  140.8705   72.2473  224.5842 H   0  0  0  0  0  0  0  0  0  0  0  0
  140.0293   74.0091  218.7839 H   0  0  0  0  0  0  0  0  0  0  0  0
  138.3417   74.3069  219.3030 H   0  0  0  0  0  0  0  0  0  0  0  0
  140.1906   76.2500  218.9294 H   0  0  0  0  0  0  0  0  0  0  0  0
  138.7861   76.3304  220.1223 H   0  0  0  0  0  0  0  0  0  0  0  0
  1  2  1  0
  2  3  1  0
  3  4  2  0
  3  5  1  0
  5  6  1  0
  6  7  2  0
  7  8  1  0
  8  9  2  0
  9 10  1  0
 10 11  2  0
  5 12  1  0
 12 13  1  0
 13 14  1  0
 14 15  1  0
 15 16  1  0
 16 17  2  0
 16 18  1  0
 18 19  1  0
 18 20  1  0
 20 21  1  0
 21 22  1  0
 22 23  1  0
 23 24  2  0
 24 25  1  0
 25 26  2  0
 26 27  1  0
 27 28  2  0
 28 29  1  0
 15 30  1  0
 30 31  1  0
 11  6  1  0
 31 12  1  0
 29 21  1  0
 28 23  1  0
  1 32  1  0
  1 33  1  0
  1 34  1  0
  2 35  1  0
  2 36  1  0
  7 37  1  0
  8 38  1  0
  9 39  1  0
 10 40  1  0
 11 41  1  0
 12 42  1  0
 13 43  1  0
 13 44  1  0
 14 45  1  0
 14 46  1  0
 18 47  1  1
 19 48  1  0
 19 49  1  0
 20 50  1  0
 20 51  1  0
 21 52  1  0
 22 53  1  0
 22 54  1  0
 24 55  1  0
 25 56  1  0
 26 57  1  0
 27 58  1  0
 29 59  1  0
 29 60  1  0
 30 61  1  0
 30 62  1  0
 31 63  1  0
 31 64  1  0
M  END
>  <smiles>  (24) 
CCC(=O)N(c1ccccc1)C1CCN(C(=O)[C@@H](N)CC2Cc3ccccc3C2)CC1

>  <score_type>  (24) 
oracle

>  <origin>  (24) 
autodockgpu

>  <m_score__min__energy>  (24) 
-9.3200000000000003

>  <m_primary>  (24) 
energy

>  <rmsd>  (24) 
7.001891405041064

>  <m_score__min__rmsd>  (24) 
7.001891405041064

>  <meeko>  (24) 
{"free_energy": -8.02, "intermolecular_energy": -10.4, "internal_energy": -2.23, "cluster_size": 18, "cluster_id": 3, "rank_in_cluster": 7}

>  <energy>  (24) 
-7.98

>  <cluster_rmsd>  (24) 
1.26

>  <cluster>  (24) 
1

$$$$

     RDKit          3D

 64 67  0  0  0  0  0  0  0  0999 V2000
  137.3830   68.1770  222.0440 C   0  0  0  0  0  0  0  0  0  0  0  0
  138.4270   68.1460  223.1770 C   0  0  0  0  0  0  0  0  0  0  0  0
  138.0680   69.1710  224.2000 C   0  0  0  0  0  0  0  0  0  0  0  0
  136.8380   69.1610  224.5210 O   0  0  0  0  0  0  0  0  0  0  0  0
  139.0180   70.0680  224.7590 N   0  0  0  0  0  0  0  0  0  0  0  0
  139.7030   69.8810  225.9700 C   0  0  0  0  0  0  0  0  0  0  0  0
  140.2810   70.8850  226.7130 C   0  0  0  0  0  0  0  0  0  0  0  0
  140.9570   70.6680  227.9070 C   0  0  0  0  0  0  0  0  0  0  0  0
  141.0820   69.4020  228.4170 C   0  0  0  0  0  0  0  0  0  0  0  0
  140.5170   68.3760  227.7010 C   0  0  0  0  0  0  0  0  0  0  0  0
  139.8340   68.5940  226.4960 C   0  0  0  0  0  0  0  0  0  0  0  0
  139.2660   71.2810  223.9490 C   0  0  0  0  0  0  0  0  0  0  0  0
  138.1110   71.4810  223.0620 C   0  0  0  0  0  0  0  0  0  0  0  0
  138.3630   72.1290  221.7210 C   0  0  0  0  0  0  0  0  0  0  0  0
  139.5660   72.9170  221.8590 N   0  0  0  0  0  0  0  0  0  0  0  0
  139.6980   74.3100  221.7830 C   0  0  0  0  0  0  0  0  0  0  0  0
  140.8900   74.7650  221.9520 O   0  0  0  0  0  0  0  0  0  0  0  0
  138.6740   75.3260  221.5400 C   0  0  1  0  0  0  0  0  0  0  0  0
  137.8210   75.6710  222.6300 N   0  0  0  0  0  0  0  0  0  0  0  0
  139.2260   76.6410  221.0100 C   0  0  0  0  0  0  0  0  0  0  0  0
  139.9950   77.4160  222.0300 C   0  0  0  0  0  0  0  0  0  0  0  0
  139.3910   78.8340  222.1130 C   0  0  0  0  0  0  0  0  0  0  0  0
  140.5330   79.5850  222.6970 C   0  0  0  0  0  0  0  0  0  0  0  0
  140.6020   80.7480  223.4700 C   0  0  0  0  0  0  0  0  0  0  0  0
  141.8430   81.2030  223.8660 C   0  0  0  0  0  0  0  0  0  0  0  0
  143.0230   80.5690  223.5370 C   0  0  0  0  0  0  0  0  0  0  0  0
  142.9530   79.4120  222.7680 C   0  0  0  0  0  0  0  0  0  0  0  0
  141.7140   78.9520  222.3690 C   0  0  0  0  0  0  0  0  0  0  0  0
  141.4000   77.7500  221.5520 C   0  0  0  0  0  0  0  0  0  0  0  0
  140.7810   72.0950  222.1130 C   0  0  0  0  0  0  0  0  0  0  0  0
  140.6390   71.4240  223.4530 C   0  0  0  0  0  0  0  0  0  0  0  0
  136.3724   68.2070  222.4774 H   0  0  0  0  0  0  0  0  0  0  0  0
  137.5423   69.0708  221.4229 H   0  0  0  0  0  0  0  0  0  0  0  0
  137.4890   67.2753  221.4229 H   0  0  0  0  0  0  0  0  0  0  0  0
  138.4365   67.1491  223.6420 H   0  0  0  0  0  0  0  0  0  0  0  0
  139.4244   68.3644  222.7678 H   0  0  0  0  0  0  0  0  0  0  0  0
  140.2033   71.9171  226.3405 H   0  0  0  0  0  0  0  0  0  0  0  0
  141.3957   71.5195  228.4478 H   0  0  0  0  0  0  0  0  0  0  0  0
  141.6136   69.2156  229.3618 H   0  0  0  0  0  0  0  0  0  0  0  0
  140.6029   67.3489  228.0853 H   0  0  0  0  0  0  0  0  0  0  0  0
  139.3958   67.7404  225.9581 H   0  0  0  0  0  0  0  0  0  0  0  0
  139.2930   72.1937  224.5624 H   0  0  0  0  0  0  0  0  0  0  0  0
  137.6672   70.4927  222.8717 H   0  0  0  0  0  0  0  0  0  0  0  0
  137.4662   72.1921  223.5991 H   0  0  0  0  0  0  0  0  0  0  0  0
  138.5012   71.3587  220.9480 H   0  0  0  0  0  0  0  0  0  0  0  0
  137.5117   72.7569  221.4193 H   0  0  0  0  0  0  0  0  0  0  0  0
  138.0731   74.7939  220.7878 H   0  0  0  0  0  0  0  0  0  0  0  0
  137.7920   76.6710  222.8870 H   0  0  0  0  0  0  0  0  0  0  0  0
  137.8750   75.0730  223.4650 H   0  0  0  0  0  0  0  0  0  0  0  0
  139.8924   76.4230  220.1624 H   0  0  0  0  0  0  0  0  0  0  0  0
  138.3652   77.2587  220.7140 H   0  0  0  0  0  0  0  0  0  0  0  0
  139.9778   76.8121  222.9493 H   0  0  0  0  0  0  0  0  0  0  0  0
  139.1193   79.2179  221.1186 H   0  0  0  0  0  0  0  0  0  0  0  0
  138.4573   78.8999  222.6909 H   0  0  0  0  0  0  0  0  0  0  0  0
  139.6875   81.2882  223.7561 H   0  0  0  0  0  0  0  0  0  0  0  0
  141.8939   82.1177  224.4749 H   0  0  0  0  0  0  0  0  0  0  0  0
  143.9918   80.9670  223.8732 H   0  0  0  0  0  0  0  0  0  0  0  0
  143.8686   78.8731  222.4829 H   0  0  0  0  0  0  0  0  0  0  0  0
  141.4142   77.9804  220.4765 H   0  0  0  0  0  0  0  0  0  0  0  0
  142.1208   76.9274  221.6695 H   0  0  0  0  0  0  0  0  0  0  0  0
  140.8832   71.3328  221.3265 H   0  0  0  0  0  0  0  0  0  0  0  0
  141.6748   72.7362  222.1081 H   0  0  0  0  0  0  0  0  0  0  0  0
  141.0772   70.4180  223.3756 H   0  0  0  0  0  0  0  0  0  0  0  0
  141.1518   72.0789  224.1728 H   0  0  0  0  0  0  0  0  0  0  0  0
  1  2  1  0
  2  3  1  0
  3  4  2  0
  3  5  1  0
  5  6  1  0
  6  7  2  0
  7  8  1  0
  8  9  2  0
  9 10  1  0
 10 11  2  0
  5 12  1  0
 12 13  1  0
 13 14  1  0
 14 15  1  0
 15 16  1  0
 16 17  2  0
 16 18  1  0
 18 19  1  0
 18 20  1  0
 20 21  1  0
 21 22  1  0
 22 23  1  0
 23 24  2  0
 24 25  1  0
 25 26  2  0
 26 27  1  0
 27 28  2  0
 28 29  1  0
 15 30  1  0
 30 31  1  0
 11  6  1  0
 31 12  1  0
 29 21  1  0
 28 23  1  0
  1 32  1  0
  1 33  1  0
  1 34  1  0
  2 35  1  0
  2 36  1  0
  7 37  1  0
  8 38  1  0
  9 39  1  0
 10 40  1  0
 11 41  1  0
 12 42  1  0
 13 43  1  0
 13 44  1  0
 14 45  1  0
 14 46  1  0
 18 47  1  6
 19 48  1  0
 19 49  1  0
 20 50  1  0
 20 51  1  0
 21 52  1  0
 22 53  1  0
 22 54  1  0
 24 55  1  0
 25 56  1  0
 26 57  1  0
 27 58  1  0
 29 59  1  0
 29 60  1  0
 30 61  1  0
 30 62  1  0
 31 63  1  0
 31 64  1  0
M  END
>  <smiles>  (25) 
CCC(=O)N(c1ccccc1)C1CCN(C(=O)[C@@H](N)CC2Cc3ccccc3C2)CC1

>  <score_type>  (25) 
oracle

>  <origin>  (25) 
autodockgpu

>  <m_score__min__energy>  (25) 
-9.3200000000000003

>  <m_primary>  (25) 
energy

>  <rmsd>  (25) 
7.062094767937962

>  <m_score__min__rmsd>  (25) 
7.062094767937962

>  <meeko>  (25) 
{"free_energy": -9.17, "intermolecular_energy": -11.56, "internal_energy": -1.52, "cluster_size": 24, "cluster_id": 1, "rank_in_cluster": 7}

>  <energy>  (25) 
-8.89

>  <cluster_rmsd>  (25) 
0.0

>  <cluster>  (25) 
2

$$$$

     RDKit          3D

 64 67  0  0  0  0  0  0  0  0999 V2000
  137.3430   68.1060  222.0500 C   0  0  0  0  0  0  0  0  0  0  0  0
  138.4630   68.1520  223.1080 C   0  0  0  0  0  0  0  0  0  0  0  0
  138.1020   69.1490  224.1590 C   0  0  0  0  0  0  0  0  0  0  0  0
  136.8730   69.1210  224.4860 O   0  0  0  0  0  0  0  0  0  0  0  0
  139.0470   70.0400  224.7350 N   0  0  0  0  0  0  0  0  0  0  0  0
  139.7240   69.8370  225.9490 C   0  0  0  0  0  0  0  0  0  0  0  0
  140.2990   70.8330  226.7060 C   0  0  0  0  0  0  0  0  0  0  0  0
  140.9670   70.6010  227.9020 C   0  0  0  0  0  0  0  0  0  0  0  0
  141.0860   69.3300  228.3980 C   0  0  0  0  0  0  0  0  0  0  0  0
  140.5230   68.3120  227.6680 C   0  0  0  0  0  0  0  0  0  0  0  0
  139.8490   68.5450  226.4610 C   0  0  0  0  0  0  0  0  0  0  0  0
  139.3000   71.2620  223.9410 C   0  0  0  0  0  0  0  0  0  0  0  0
  138.1250   71.5060  223.0930 C   0  0  0  0  0  0  0  0  0  0  0  0
  138.3540   72.1750  221.7580 C   0  0  0  0  0  0  0  0  0  0  0  0
  139.5780   72.9320  221.8760 N   0  0  0  0  0  0  0  0  0  0  0  0
  139.7400   74.3230  221.8230 C   0  0  0  0  0  0  0  0  0  0  0  0
  140.9480   74.7470  221.9660 O   0  0  0  0  0  0  0  0  0  0  0  0
  138.7340   75.3670  221.6290 C   0  0  1  0  0  0  0  0  0  0  0  0
  137.3740   74.9510  221.5080 N   0  0  0  0  0  0  0  0  0  0  0  0
  138.7470   76.4410  222.7060 C   0  0  0  0  0  0  0  0  0  0  0  0
  139.5460   77.6470  222.3320 C   0  0  0  0  0  0  0  0  0  0  0  0
  140.9970   77.4320  222.8140 C   0  0  0  0  0  0  0  0  0  0  0  0
  141.4780   78.8370  222.8750 C   0  0  0  0  0  0  0  0  0  0  0  0
  142.7500   79.4050  222.7660 C   0  0  0  0  0  0  0  0  0  0  0  0
  142.8700   80.7770  222.8680 C   0  0  0  0  0  0  0  0  0  0  0  0
  141.7970   81.6180  223.0730 C   0  0  0  0  0  0  0  0  0  0  0  0
  140.5300   81.0510  223.1800 C   0  0  0  0  0  0  0  0  0  0  0  0
  140.4050   79.6800  223.0790 C   0  0  0  0  0  0  0  0  0  0  0  0
  139.1650   78.8630  223.1610 C   0  0  0  0  0  0  0  0  0  0  0  0
  140.7810   72.0770  222.0790 C   0  0  0  0  0  0  0  0  0  0  0  0
  140.6610   71.3830  223.4090 C   0  0  0  0  0  0  0  0  0  0  0  0
  136.3653   68.0659  222.5525 H   0  0  0  0  0  0  0  0  0  0  0  0
  137.3953   69.0071  221.4212 H   0  0  0  0  0  0  0  0  0  0  0  0
  137.4691   67.2123  221.4212 H   0  0  0  0  0  0  0  0  0  0  0  0
  138.5775   67.1587  223.5665 H   0  0  0  0  0  0  0  0  0  0  0  0
  139.4109   68.4427  222.6316 H   0  0  0  0  0  0  0  0  0  0  0  0
  140.2255   71.8692  226.3441 H   0  0  0  0  0  0  0  0  0  0  0  0
  141.4040   71.4454  228.4552 H   0  0  0  0  0  0  0  0  0  0  0  0
  141.6118   69.1323  229.3438 H   0  0  0  0  0  0  0  0  0  0  0  0
  140.6035   67.2808  228.0424 H   0  0  0  0  0  0  0  0  0  0  0  0
  139.4131   67.6983  225.9104 H   0  0  0  0  0  0  0  0  0  0  0  0
  139.3662   72.1624  224.5694 H   0  0  0  0  0  0  0  0  0  0  0  0
  137.6527   70.5322  222.8966 H   0  0  0  0  0  0  0  0  0  0  0  0
  137.5124   72.2204  223.6625 H   0  0  0  0  0  0  0  0  0  0  0  0
  138.4519   71.4174  220.9665 H   0  0  0  0  0  0  0  0  0  0  0  0
  137.5095   72.8283  221.4935 H   0  0  0  0  0  0  0  0  0  0  0  0
  139.0650   75.7529  220.6536 H   0  0  0  0  0  0  0  0  0  0  0  0
  136.7090   75.6620  221.1650 H   0  0  0  0  0  0  0  0  0  0  0  0
  136.9810   74.4240  222.3000 H   0  0  0  0  0  0  0  0  0  0  0  0
  137.7104   76.7552  222.8976 H   0  0  0  0  0  0  0  0  0  0  0  0
  139.2198   76.0018  223.5968 H   0  0  0  0  0  0  0  0  0  0  0  0
  139.3954   77.7898  221.2518 H   0  0  0  0  0  0  0  0  0  0  0  0
  141.0286   76.9495  223.8020 H   0  0  0  0  0  0  0  0  0  0  0  0
  141.5981   76.7710  222.1723 H   0  0  0  0  0  0  0  0  0  0  0  0
  143.6358   78.7736  222.6027 H   0  0  0  0  0  0  0  0  0  0  0  0
  143.8725   81.2213  222.7813 H   0  0  0  0  0  0  0  0  0  0  0  0
  141.9379   82.7062  223.1499 H   0  0  0  0  0  0  0  0  0  0  0  0
  139.6449   81.6838  223.3420 H   0  0  0  0  0  0  0  0  0  0  0  0
  138.9355   78.5847  224.2002 H   0  0  0  0  0  0  0  0  0  0  0  0
  138.2624   79.3820  222.8062 H   0  0  0  0  0  0  0  0  0  0  0  0
  140.8431   71.3286  221.2752 H   0  0  0  0  0  0  0  0  0  0  0  0
  141.6891   72.6974  222.0606 H   0  0  0  0  0  0  0  0  0  0  0  0
  141.0728   70.3689  223.2997 H   0  0  0  0  0  0  0  0  0  0  0  0
  141.2092   72.0114  224.1263 H   0  0  0  0  0  0  0  0  0  0  0  0
  1  2  1  0
  2  3  1  0
  3  4  2  0
  3  5  1  0
  5  6  1  0
  6  7  2  0
  7  8  1  0
  8  9  2  0
  9 10  1  0
 10 11  2  0
  5 12  1  0
 12 13  1  0
 13 14  1  0
 14 15  1  0
 15 16  1  0
 16 17  2  0
 16 18  1  0
 18 19  1  0
 18 20  1  0
 20 21  1  0
 21 22  1  0
 22 23  1  0
 23 24  2  0
 24 25  1  0
 25 26  2  0
 26 27  1  0
 27 28  2  0
 28 29  1  0
 15 30  1  0
 30 31  1  0
 11  6  1  0
 31 12  1  0
 29 21  1  0
 28 23  1  0
  1 32  1  0
  1 33  1  0
  1 34  1  0
  2 35  1  0
  2 36  1  0
  7 37  1  0
  8 38  1  0
  9 39  1  0
 10 40  1  0
 11 41  1  0
 12 42  1  0
 13 43  1  0
 13 44  1  0
 14 45  1  0
 14 46  1  0
 18 47  1  6
 19 48  1  0
 19 49  1  0
 20 50  1  0
 20 51  1  0
 21 52  1  0
 22 53  1  0
 22 54  1  0
 24 55  1  0
 25 56  1  0
 26 57  1  0
 27 58  1  0
 29 59  1  0
 29 60  1  0
 30 61  1  0
 30 62  1  0
 31 63  1  0
 31 64  1  0
M  END
>  <smiles>  (26) 
CCC(=O)N(c1ccccc1)C1CCN(C(=O)[C@@H](N)CC2Cc3ccccc3C2)CC1

>  <score_type>  (26) 
oracle

>  <origin>  (26) 
autodockgpu

>  <m_score__min__energy>  (26) 
-9.3200000000000003

>  <m_primary>  (26) 
energy

>  <rmsd>  (26) 
7.317672287490469

>  <m_score__min__rmsd>  (26) 
7.317672287490469

>  <meeko>  (26) 
{"free_energy": -8.72, "intermolecular_energy": -11.1, "internal_energy": -1.49, "cluster_size": 24, "cluster_id": 1, "rank_in_cluster": 15}

>  <energy>  (26) 
-8.88

>  <cluster_rmsd>  (26) 
0.25

>  <cluster>  (26) 
2

$$$$

     RDKit          3D

 64 67  0  0  0  0  0  0  0  0999 V2000
  143.2900   76.3860  217.7800 C   0  0  0  0  0  0  0  0  0  0  0  0
  143.2930   76.7090  219.2870 C   0  0  0  0  0  0  0  0  0  0  0  0
  142.1420   77.6070  219.5960 C   0  0  0  0  0  0  0  0  0  0  0  0
  141.9280   78.4870  218.7050 O   0  0  0  0  0  0  0  0  0  0  0  0
  141.3620   77.4820  220.7780 N   0  0  0  0  0  0  0  0  0  0  0  0
  141.2770   78.4370  221.8040 C   0  0  0  0  0  0  0  0  0  0  0  0
  140.3180   78.4500  222.7910 C   0  0  0  0  0  0  0  0  0  0  0  0
  140.2570   79.4120  223.7920 C   0  0  0  0  0  0  0  0  0  0  0  0
  141.1780   80.4250  223.8420 C   0  0  0  0  0  0  0  0  0  0  0  0
  142.1490   80.4430  222.8710 C   0  0  0  0  0  0  0  0  0  0  0  0
  142.2120   79.4720  221.8620 C   0  0  0  0  0  0  0  0  0  0  0  0
  140.5970   76.2200  220.8760 C   0  0  0  0  0  0  0  0  0  0  0  0
  141.3080   75.3260  221.8010 C   0  0  0  0  0  0  0  0  0  0  0  0
  141.2000   73.8390  221.5570 C   0  0  0  0  0  0  0  0  0  0  0  0
  139.9690   73.6240  220.8320 N   0  0  0  0  0  0  0  0  0  0  0  0
  138.8240   72.9400  221.2600 C   0  0  0  0  0  0  0  0  0  0  0  0
  137.8520   72.9000  220.4160 O   0  0  0  0  0  0  0  0  0  0  0  0
  138.5710   72.2610  222.5310 C   0  0  1  0  0  0  0  0  0  0  0  0
  137.2160   72.1730  222.9680 N   0  0  0  0  0  0  0  0  0  0  0  0
  139.1210   70.8440  222.5910 C   0  0  0  0  0  0  0  0  0  0  0  0
  139.9400   70.5760  223.8110 C   0  0  0  0  0  0  0  0  0  0  0  0
  139.0260   69.9250  224.8710 C   0  0  0  0  0  0  0  0  0  0  0  0
  139.7860   70.2280  226.1130 C   0  0  0  0  0  0  0  0  0  0  0  0
  139.8520   69.5960  227.3580 C   0  0  0  0  0  0  0  0  0  0  0  0
  140.6710   70.1360  228.3280 C   0  0  0  0  0  0  0  0  0  0  0  0
  141.4300   71.2710  228.1330 C   0  0  0  0  0  0  0  0  0  0  0  0
  141.3640   71.8990  226.8930 C   0  0  0  0  0  0  0  0  0  0  0  0
  140.5460   71.3630  225.9190 C   0  0  0  0  0  0  0  0  0  0  0  0
  140.3200   71.8580  224.5350 C   0  0  0  0  0  0  0  0  0  0  0  0
  139.9760   74.2290  219.4700 C   0  0  0  0  0  0  0  0  0  0  0  0
  140.0540   75.7260  219.6070 C   0  0  0  0  0  0  0  0  0  0  0  0
  143.2798   75.2951  217.6388 H   0  0  0  0  0  0  0  0  0  0  0  0
  142.3959   76.8245  217.3128 H   0  0  0  0  0  0  0  0  0  0  0  0
  144.1921   76.8078  217.3128 H   0  0  0  0  0  0  0  0  0  0  0  0
  143.1983   75.7771  219.8637 H   0  0  0  0  0  0  0  0  0  0  0  0
  144.2354   77.2079  219.5573 H   0  0  0  0  0  0  0  0  0  0  0  0
  139.5578   77.6550  222.7873 H   0  0  0  0  0  0  0  0  0  0  0  0
  139.4623   79.3597  224.5508 H   0  0  0  0  0  0  0  0  0  0  0  0
  141.1412   81.1932  224.6284 H   0  0  0  0  0  0  0  0  0  0  0  0
  142.9015   81.2452  222.8855 H   0  0  0  0  0  0  0  0  0  0  0  0
  143.0089   79.5263  221.1057 H   0  0  0  0  0  0  0  0  0  0  0  0
  139.6137   76.3634  221.3478 H   0  0  0  0  0  0  0  0  0  0  0  0
  142.3751   75.5899  221.7590 H   0  0  0  0  0  0  0  0  0  0  0  0
  140.8210   75.4858  222.7743 H   0  0  0  0  0  0  0  0  0  0  0  0
  142.0563   73.4897  220.9615 H   0  0  0  0  0  0  0  0  0  0  0  0
  141.2023   73.2819  222.5055 H   0  0  0  0  0  0  0  0  0  0  0  0
  139.1073   72.9441  223.2061 H   0  0  0  0  0  0  0  0  0  0  0  0
  136.4930   72.3440  222.2510 H   0  0  0  0  0  0  0  0  0  0  0  0
  136.9850   72.6460  223.8520 H   0  0  0  0  0  0  0  0  0  0  0  0
  138.2751   70.1409  222.5777 H   0  0  0  0  0  0  0  0  0  0  0  0
  139.7825   70.7157  221.7216 H   0  0  0  0  0  0  0  0  0  0  0  0
  140.8080   69.9904  223.4737 H   0  0  0  0  0  0  0  0  0  0  0  0
  138.0276   70.3865  224.8839 H   0  0  0  0  0  0  0  0  0  0  0  0
  138.8260   68.8558  224.7072 H   0  0  0  0  0  0  0  0  0  0  0  0
  139.2641   68.6884  227.5598 H   0  0  0  0  0  0  0  0  0  0  0  0
  140.7213   69.6360  229.3065 H   0  0  0  0  0  0  0  0  0  0  0  0
  142.0694   71.6685  228.9350 H   0  0  0  0  0  0  0  0  0  0  0  0
  141.9530   72.8061  226.6927 H   0  0  0  0  0  0  0  0  0  0  0  0
  139.5046   72.5955  224.5005 H   0  0  0  0  0  0  0  0  0  0  0  0
  141.1850   72.3791  224.0989 H   0  0  0  0  0  0  0  0  0  0  0  0
  140.8472   73.8630  218.9069 H   0  0  0  0  0  0  0  0  0  0  0  0
  139.0587   73.9494  218.9311 H   0  0  0  0  0  0  0  0  0  0  0  0
  140.6912   76.1071  218.7954 H   0  0  0  0  0  0  0  0  0  0  0  0
  139.0154   76.0859  219.5645 H   0  0  0  0  0  0  0  0  0  0  0  0
  1  2  1  0
  2  3  1  0
  3  4  2  0
  3  5  1  0
  5  6  1  0
  6  7  2  0
  7  8  1  0
  8  9  2  0
  9 10  1  0
 10 11  2  0
  5 12  1  0
 12 13  1  0
 13 14  1  0
 14 15  1  0
 15 16  1  0
 16 17  2  0
 16 18  1  0
 18 19  1  0
 18 20  1  0
 20 21  1  0
 21 22  1  0
 22 23  1  0
 23 24  2  0
 24 25  1  0
 25 26  2  0
 26 27  1  0
 27 28  2  0
 28 29  1  0
 15 30  1  0
 30 31  1  0
 11  6  1  0
 31 12  1  0
 29 21  1  0
 28 23  1  0
  1 32  1  0
  1 33  1  0
  1 34  1  0
  2 35  1  0
  2 36  1  0
  7 37  1  0
  8 38  1  0
  9 39  1  0
 10 40  1  0
 11 41  1  0
 12 42  1  0
 13 43  1  0
 13 44  1  0
 14 45  1  0
 14 46  1  0
 18 47  1  1
 19 48  1  0
 19 49  1  0
 20 50  1  0
 20 51  1  0
 21 52  1  0
 22 53  1  0
 22 54  1  0
 24 55  1  0
 25 56  1  0
 26 57  1  0
 27 58  1  0
 29 59  1  0
 29 60  1  0
 30 61  1  0
 30 62  1  0
 31 63  1  0
 31 64  1  0
M  END
>  <smiles>  (27) 
CCC(=O)N(c1ccccc1)C1CCN(C(=O)[C@@H](N)CC2Cc3ccccc3C2)CC1

>  <score_type>  (27) 
oracle

>  <origin>  (27) 
autodockgpu

>  <m_score__min__energy>  (27) 
-9.3200000000000003

>  <m_primary>  (27) 
energy

>  <rmsd>  (27) 
6.921477612058466

>  <m_score__min__rmsd>  (27) 
6.921477612058466

>  <meeko>  (27) 
{"free_energy": -7.84, "intermolecular_energy": -10.22, "internal_energy": -2.19, "cluster_size": 18, "cluster_id": 3, "rank_in_cluster": 16}

>  <energy>  (27) 
-8.87

>  <cluster_rmsd>  (27) 
0.41

>  <cluster>  (27) 
2

$$$$

     RDKit          3D

 64 67  0  0  0  0  0  0  0  0999 V2000
  138.8220   67.1390  222.9910 C   0  0  0  0  0  0  0  0  0  0  0  0
  138.0990   68.4740  222.7270 C   0  0  0  0  0  0  0  0  0  0  0  0
  137.8870   69.1800  224.0260 C   0  0  0  0  0  0  0  0  0  0  0  0
  136.7570   68.9410  224.5560 O   0  0  0  0  0  0  0  0  0  0  0  0
  138.8620   70.0340  224.6070 N   0  0  0  0  0  0  0  0  0  0  0  0
  139.5760   69.7720  225.7880 C   0  0  0  0  0  0  0  0  0  0  0  0
  140.2150   70.7240  226.5500 C   0  0  0  0  0  0  0  0  0  0  0  0
  140.9180   70.4340  227.7120 C   0  0  0  0  0  0  0  0  0  0  0  0
  141.0100   69.1450  228.1680 C   0  0  0  0  0  0  0  0  0  0  0  0
  140.3830   68.1700  227.4320 C   0  0  0  0  0  0  0  0  0  0  0  0
  139.6730   68.4620  226.2580 C   0  0  0  0  0  0  0  0  0  0  0  0
  139.1040   71.2860  223.8580 C   0  0  0  0  0  0  0  0  0  0  0  0
  137.8970   71.5910  223.0770 C   0  0  0  0  0  0  0  0  0  0  0  0
  138.0780   72.3160  221.7640 C   0  0  0  0  0  0  0  0  0  0  0  0
  139.3220   73.0440  221.8590 N   0  0  0  0  0  0  0  0  0  0  0  0
  139.5110   74.4330  221.8610 C   0  0  0  0  0  0  0  0  0  0  0  0
  140.7320   74.8270  221.9670 O   0  0  0  0  0  0  0  0  0  0  0  0
  138.5180   75.5030  221.7610 C   0  0  1  0  0  0  0  0  0  0  0  0
  137.9000   75.9380  222.9710 N   0  0  0  0  0  0  0  0  0  0  0  0
  139.0380   76.7620  221.0840 C   0  0  0  0  0  0  0  0  0  0  0  0
  139.5870   77.7680  222.0410 C   0  0  0  0  0  0  0  0  0  0  0  0
  139.5650   79.1500  221.3540 C   0  0  0  0  0  0  0  0  0  0  0  0
  140.5890   79.8720  222.1540 C   0  0  0  0  0  0  0  0  0  0  0  0
  140.7800   81.2270  222.4400 C   0  0  0  0  0  0  0  0  0  0  0  0
  141.8500   81.5880  223.2340 C   0  0  0  0  0  0  0  0  0  0  0  0
  142.7430   80.6780  223.7620 C   0  0  0  0  0  0  0  0  0  0  0  0
  142.5500   79.3300  223.4770 C   0  0  0  0  0  0  0  0  0  0  0  0
  141.4820   78.9640  222.6830 C   0  0  0  0  0  0  0  0  0  0  0  0
  141.0840   77.5970  222.2530 C   0  0  0  0  0  0  0  0  0  0  0  0
  140.5150   72.1580  221.9670 C   0  0  0  0  0  0  0  0  0  0  0  0
  140.4410   71.4060  223.2690 C   0  0  0  0  0  0  0  0  0  0  0  0
  138.9094   66.9776  224.0756 H   0  0  0  0  0  0  0  0  0  0  0  0
  138.2466   66.3155  222.5429 H   0  0  0  0  0  0  0  0  0  0  0  0
  139.8261   67.1709  222.5429 H   0  0  0  0  0  0  0  0  0  0  0  0
  138.7129   69.1004  222.0632 H   0  0  0  0  0  0  0  0  0  0  0  0
  137.1281   68.2812  222.2472 H   0  0  0  0  0  0  0  0  0  0  0  0
  140.1660   71.7723  226.2202 H   0  0  0  0  0  0  0  0  0  0  0  0
  141.4053   71.2462  228.2714 H   0  0  0  0  0  0  0  0  0  0  0  0
  141.5638   68.9012  229.0866 H   0  0  0  0  0  0  0  0  0  0  0  0
  140.4393   67.1261  227.7741 H   0  0  0  0  0  0  0  0  0  0  0  0
  139.1865   67.6478  225.7009 H   0  0  0  0  0  0  0  0  0  0  0  0
  139.2176   72.1546  224.5233 H   0  0  0  0  0  0  0  0  0  0  0  0
  137.3959   70.6363  222.8594 H   0  0  0  0  0  0  0  0  0  0  0  0
  137.3268   72.2905  223.7059 H   0  0  0  0  0  0  0  0  0  0  0  0
  138.1238   71.5938  220.9355 H   0  0  0  0  0  0  0  0  0  0  0  0
  137.2359   72.9961  221.5686 H   0  0  0  0  0  0  0  0  0  0  0  0
  137.7610   74.9857  221.1533 H   0  0  0  0  0  0  0  0  0  0  0  0
  137.6040   76.9260  223.0020 H   0  0  0  0  0  0  0  0  0  0  0  0
  138.3560   75.6560  223.8490 H   0  0  0  0  0  0  0  0  0  0  0  0
  139.8360   76.4763  220.3829 H   0  0  0  0  0  0  0  0  0  0  0  0
  138.1841   77.2320  220.5741 H   0  0  0  0  0  0  0  0  0  0  0  0
  138.9996   77.6614  222.9649 H   0  0  0  0  0  0  0  0  0  0  0  0
  139.8531   79.0806  220.2947 H   0  0  0  0  0  0  0  0  0  0  0  0
  138.5773   79.6338  221.3333 H   0  0  0  0  0  0  0  0  0  0  0  0
  140.0933   81.9882  222.0414 H   0  0  0  0  0  0  0  0  0  0  0  0
  141.9983   82.6549  223.4571 H   0  0  0  0  0  0  0  0  0  0  0  0
  143.5832   81.0089  224.3901 H   0  0  0  0  0  0  0  0  0  0  0  0
  143.2364   78.5694  223.8774 H   0  0  0  0  0  0  0  0  0  0  0  0
  141.5909   77.3056  221.3212 H   0  0  0  0  0  0  0  0  0  0  0  0
  141.3473   76.8069  222.9716 H   0  0  0  0  0  0  0  0  0  0  0  0
  140.5246   71.4462  221.1284 H   0  0  0  0  0  0  0  0  0  0  0  0
  141.4342   72.7612  221.9342 H   0  0  0  0  0  0  0  0  0  0  0  0
  140.8263   70.3904  223.0952 H   0  0  0  0  0  0  0  0  0  0  0  0
  141.0341   71.9909  223.9875 H   0  0  0  0  0  0  0  0  0  0  0  0
  1  2  1  0
  2  3  1  0
  3  4  2  0
  3  5  1  0
  5  6  1  0
  6  7  2  0
  7  8  1  0
  8  9  2  0
  9 10  1  0
 10 11  2  0
  5 12  1  0
 12 13  1  0
 13 14  1  0
 14 15  1  0
 15 16  1  0
 16 17  2  0
 16 18  1  0
 18 19  1  0
 18 20  1  0
 20 21  1  0
 21 22  1  0
 22 23  1  0
 23 24  2  0
 24 25  1  0
 25 26  2  0
 26 27  1  0
 27 28  2  0
 28 29  1  0
 15 30  1  0
 30 31  1  0
 11  6  1  0
 31 12  1  0
 29 21  1  0
 28 23  1  0
  1 32  1  0
  1 33  1  0
  1 34  1  0
  2 35  1  0
  2 36  1  0
  7 37  1  0
  8 38  1  0
  9 39  1  0
 10 40  1  0
 11 41  1  0
 12 42  1  0
 13 43  1  0
 13 44  1  0
 14 45  1  0
 14 46  1  0
 18 47  1  6
 19 48  1  0
 19 49  1  0
 20 50  1  0
 20 51  1  0
 21 52  1  0
 22 53  1  0
 22 54  1  0
 24 55  1  0
 25 56  1  0
 26 57  1  0
 27 58  1  0
 29 59  1  0
 29 60  1  0
 30 61  1  0
 30 62  1  0
 31 63  1  0
 31 64  1  0
M  END
>  <smiles>  (28) 
CCC(=O)N(c1ccccc1)C1CCN(C(=O)[C@@H](N)CC2Cc3ccccc3C2)CC1

>  <score_type>  (28) 
oracle

>  <origin>  (28) 
autodockgpu

>  <m_score__min__energy>  (28) 
-9.3200000000000003

>  <m_primary>  (28) 
energy

>  <rmsd>  (28) 
7.073656915251355

>  <m_score__min__rmsd>  (28) 
7.073656915251355

>  <meeko>  (28) 
{"free_energy": -8.88, "intermolecular_energy": -11.27, "internal_energy": -1.53, "cluster_size": 24, "cluster_id": 1, "rank_in_cluster": 11}

>  <energy>  (28) 
-7.37

>  <cluster_rmsd>  (28) 
1.48

>  <cluster>  (28) 
2

$$$$

     RDKit          3D

 64 67  0  0  0  0  0  0  0  0999 V2000
  142.5280   77.7320  217.3370 C   0  0  0  0  0  0  0  0  0  0  0  0
  142.1670   78.4080  218.6750 C   0  0  0  0  0  0  0  0  0  0  0  0
  142.2790   77.4050  219.7740 C   0  0  0  0  0  0  0  0  0  0  0  0
  143.1950   76.5440  219.5870 O   0  0  0  0  0  0  0  0  0  0  0  0
  141.4370   77.4180  220.9190 N   0  0  0  0  0  0  0  0  0  0  0  0
  141.3780   78.4450  221.8750 C   0  0  0  0  0  0  0  0  0  0  0  0
  140.3120   78.6810  222.7130 C   0  0  0  0  0  0  0  0  0  0  0  0
  140.2800   79.7080  223.6480 C   0  0  0  0  0  0  0  0  0  0  0  0
  141.3440   80.5610  223.7820 C   0  0  0  0  0  0  0  0  0  0  0  0
  142.4260   80.3540  222.9620 C   0  0  0  0  0  0  0  0  0  0  0  0
  142.4590   79.3170  222.0190 C   0  0  0  0  0  0  0  0  0  0  0  0
  140.5720   76.2270  221.0580 C   0  0  0  0  0  0  0  0  0  0  0  0
  141.3850   75.1340  221.6100 C   0  0  0  0  0  0  0  0  0  0  0  0
  141.0270   73.7240  221.2060 C   0  0  0  0  0  0  0  0  0  0  0  0
  139.6300   73.7370  220.8390 N   0  0  0  0  0  0  0  0  0  0  0  0
  138.5650   73.0890  221.4790 C   0  0  0  0  0  0  0  0  0  0  0  0
  137.4050   73.2730  220.9490 O   0  0  0  0  0  0  0  0  0  0  0  0
  138.5780   72.2310  222.6630 C   0  0  1  0  0  0  0  0  0  0  0  0
  137.3220   71.9320  223.2700 N   0  0  0  0  0  0  0  0  0  0  0  0
  139.2640   70.8910  222.4440 C   0  0  0  0  0  0  0  0  0  0  0  0
  139.9820   70.3870  223.6530 C   0  0  0  0  0  0  0  0  0  0  0  0
  139.0200   69.4700  224.4380 C   0  0  0  0  0  0  0  0  0  0  0  0
  139.6380   69.5140  225.7890 C   0  0  0  0  0  0  0  0  0  0  0  0
  139.6310   68.6170  226.8610 C   0  0  0  0  0  0  0  0  0  0  0  0
  140.3180   68.9560  228.0080 C   0  0  0  0  0  0  0  0  0  0  0  0
  141.0140   70.1370  228.1540 C   0  0  0  0  0  0  0  0  0  0  0  0
  141.0210   71.0300  227.0860 C   0  0  0  0  0  0  0  0  0  0  0  0
  140.3350   70.6950  225.9360 C   0  0  0  0  0  0  0  0  0  0  0  0
  140.2060   71.4850  224.6820 C   0  0  0  0  0  0  0  0  0  0  0  0
  139.3480   74.5570  219.6290 C   0  0  0  0  0  0  0  0  0  0  0  0
  139.6490   75.9980  219.9410 C   0  0  0  0  0  0  0  0  0  0  0  0
  143.0378   76.7774  217.5343 H   0  0  0  0  0  0  0  0  0  0  0  0
  141.6096   77.5451  216.7611 H   0  0  0  0  0  0  0  0  0  0  0  0
  143.1941   78.3912  216.7611 H   0  0  0  0  0  0  0  0  0  0  0  0
  142.8590   79.2417  218.8651 H   0  0  0  0  0  0  0  0  0  0  0  0
  141.1383   78.7948  218.6294 H   0  0  0  0  0  0  0  0  0  0  0  0
  139.4364   78.0194  222.6382 H   0  0  0  0  0  0  0  0  0  0  0  0
  139.3933   79.8375  224.2860 H   0  0  0  0  0  0  0  0  0  0  0  0
  141.3319   81.3791  224.5172 H   0  0  0  0  0  0  0  0  0  0  0  0
  143.2947   81.0233  223.0478 H   0  0  0  0  0  0  0  0  0  0  0  0
  143.3482   79.1887  221.3842 H   0  0  0  0  0  0  0  0  0  0  0  0
  139.7788   76.3738  221.8058 H   0  0  0  0  0  0  0  0  0  0  0  0
  142.4262   75.3103  221.3020 H   0  0  0  0  0  0  0  0  0  0  0  0
  141.2015   75.1692  222.6940 H   0  0  0  0  0  0  0  0  0  0  0  0
  141.6406   73.4081  220.3494 H   0  0  0  0  0  0  0  0  0  0  0  0
  141.2123   73.0184  222.0293 H   0  0  0  0  0  0  0  0  0  0  0  0
  139.1443   72.8818  223.3455 H   0  0  0  0  0  0  0  0  0  0  0  0
  136.4840   72.0970  222.6890 H   0  0  0  0  0  0  0  0  0  0  0  0
  137.1820   72.2710  224.2310 H   0  0  0  0  0  0  0  0  0  0  0  0
  138.5014   70.1516  222.1580 H   0  0  0  0  0  0  0  0  0  0  0  0
  140.0178   71.0372  221.6564 H   0  0  0  0  0  0  0  0  0  0  0  0
  140.9149   69.9335  223.2868 H   0  0  0  0  0  0  0  0  0  0  0  0
  137.9956   69.8707  224.4477 H   0  0  0  0  0  0  0  0  0  0  0  0
  138.9097   68.4588  224.0192 H   0  0  0  0  0  0  0  0  0  0  0  0
  139.0896   67.6620  226.7914 H   0  0  0  0  0  0  0  0  0  0  0  0
  140.3101   68.2476  228.8495 H   0  0  0  0  0  0  0  0  0  0  0  0
  141.5485   70.3671  229.0875 H   0  0  0  0  0  0  0  0  0  0  0  0
  141.5630   71.9846  227.1572 H   0  0  0  0  0  0  0  0  0  0  0  0
  139.3496   72.1738  224.7274 H   0  0  0  0  0  0  0  0  0  0  0  0
  141.0705   72.1305  224.4679 H   0  0  0  0  0  0  0  0  0  0  0  0
  139.9822   74.2184  218.7965 H   0  0  0  0  0  0  0  0  0  0  0  0
  138.2919   74.4489  219.3411 H   0  0  0  0  0  0  0  0  0  0  0  0
  140.0874   76.4543  219.0412 H   0  0  0  0  0  0  0  0  0  0  0  0
  138.6916   76.4453  220.2463 H   0  0  0  0  0  0  0  0  0  0  0  0
  1  2  1  0
  2  3  1  0
  3  4  2  0
  3  5  1  0
  5  6  1  0
  6  7  2  0
  7  8  1  0
  8  9  2  0
  9 10  1  0
 10 11  2  0
  5 12  1  0
 12 13  1  0
 13 14  1  0
 14 15  1  0
 15 16  1  0
 16 17  2  0
 16 18  1  0
 18 19  1  0
 18 20  1  0
 20 21  1  0
 21 22  1  0
 22 23  1  0
 23 24  2  0
 24 25  1  0
 25 26  2  0
 26 27  1  0
 27 28  2  0
 28 29  1  0
 15 30  1  0
 30 31  1  0
 11  6  1  0
 31 12  1  0
 29 21  1  0
 28 23  1  0
  1 32  1  0
  1 33  1  0
  1 34  1  0
  2 35  1  0
  2 36  1  0
  7 37  1  0
  8 38  1  0
  9 39  1  0
 10 40  1  0
 11 41  1  0
 12 42  1  0
 13 43  1  0
 13 44  1  0
 14 45  1  0
 14 46  1  0
 18 47  1  1
 19 48  1  0
 19 49  1  0
 20 50  1  0
 20 51  1  0
 21 52  1  0
 22 53  1  0
 22 54  1  0
 24 55  1  0
 25 56  1  0
 26 57  1  0
 27 58  1  0
 29 59  1  0
 29 60  1  0
 30 61  1  0
 30 62  1  0
 31 63  1  0
 31 64  1  0
M  END
>  <smiles>  (29) 
CCC(=O)N(c1ccccc1)C1CCN(C(=O)[C@@H](N)CC2Cc3ccccc3C2)CC1

>  <score_type>  (29) 
oracle

>  <origin>  (29) 
autodockgpu

>  <m_score__min__energy>  (29) 
-9.3200000000000003

>  <m_primary>  (29) 
energy

>  <rmsd>  (29) 
6.914851436970302

>  <m_score__min__rmsd>  (29) 
6.914851436970302

>  <meeko>  (29) 
{"free_energy": -7.96, "intermolecular_energy": -10.35, "internal_energy": -2.2, "cluster_size": 18, "cluster_id": 3, "rank_in_cluster": 8}

>  <energy>  (29) 
-8.1

>  <cluster_rmsd>  (29) 
0.0

>  <cluster>  (29) 
3

$$$$

     RDKit          3D

 64 67  0  0  0  0  0  0  0  0999 V2000
  143.4730   76.1120  219.6710 C   0  0  0  0  0  0  0  0  0  0  0  0
  142.9470   77.2120  218.7280 C   0  0  0  0  0  0  0  0  0  0  0  0
  141.5630   77.5890  219.1420 C   0  0  0  0  0  0  0  0  0  0  0  0
  140.8710   78.0940  218.2020 O   0  0  0  0  0  0  0  0  0  0  0  0
  141.0730   77.3980  220.4620 N   0  0  0  0  0  0  0  0  0  0  0  0
  141.2140   78.3050  221.5230 C   0  0  0  0  0  0  0  0  0  0  0  0
  142.2150   79.2440  221.6310 C   0  0  0  0  0  0  0  0  0  0  0  0
  142.3310   80.1270  222.6970 C   0  0  0  0  0  0  0  0  0  0  0  0
  141.4240   80.1030  223.7240 C   0  0  0  0  0  0  0  0  0  0  0  0
  140.4120   79.1780  223.6490 C   0  0  0  0  0  0  0  0  0  0  0  0
  140.2930   78.2870  222.5730 C   0  0  0  0  0  0  0  0  0  0  0  0
  140.3620   76.1180  220.6720 C   0  0  0  0  0  0  0  0  0  0  0  0
  141.0740   75.3660  221.7150 C   0  0  0  0  0  0  0  0  0  0  0  0
  141.0440   73.8580  221.6340 C   0  0  0  0  0  0  0  0  0  0  0  0
  139.8550   73.5050  220.8930 N   0  0  0  0  0  0  0  0  0  0  0  0
  138.7250   72.8150  221.3530 C   0  0  0  0  0  0  0  0  0  0  0  0
  137.7920   72.6360  220.4840 O   0  0  0  0  0  0  0  0  0  0  0  0
  138.4510   72.2670  222.6810 C   0  0  1  0  0  0  0  0  0  0  0  0
  137.0920   72.2530  223.1170 N   0  0  0  0  0  0  0  0  0  0  0  0
  138.9670   70.8500  222.8810 C   0  0  0  0  0  0  0  0  0  0  0  0
  139.0080   70.4290  224.3130 C   0  0  0  0  0  0  0  0  0  0  0  0
  140.1420   71.2090  225.0120 C   0  0  0  0  0  0  0  0  0  0  0  0
  140.4030   70.3270  226.1800 C   0  0  0  0  0  0  0  0  0  0  0  0
  140.9190   70.5760  227.4550 C   0  0  0  0  0  0  0  0  0  0  0  0
  141.0400   69.5200  228.3350 C   0  0  0  0  0  0  0  0  0  0  0  0
  140.6760   68.2270  228.0210 C   0  0  0  0  0  0  0  0  0  0  0  0
  140.1620   67.9800  226.7520 C   0  0  0  0  0  0  0  0  0  0  0  0
  140.0390   69.0330  225.8680 C   0  0  0  0  0  0  0  0  0  0  0  0
  139.5210   69.0060  224.4750 C   0  0  0  0  0  0  0  0  0  0  0  0
  139.8910   73.9560  219.4740 C   0  0  0  0  0  0  0  0  0  0  0  0
  139.8950   75.4610  219.4470 C   0  0  0  0  0  0  0  0  0  0  0  0
  143.3244   76.4227  220.7157 H   0  0  0  0  0  0  0  0  0  0  0  0
  142.9247   75.1767  219.4851 H   0  0  0  0  0  0  0  0  0  0  0  0
  144.5453   75.9516  219.4851 H   0  0  0  0  0  0  0  0  0  0  0  0
  143.6025   78.0933  218.7882 H   0  0  0  0  0  0  0  0  0  0  0  0
  142.9359   76.8391  217.6932 H   0  0  0  0  0  0  0  0  0  0  0  0
  142.9650   79.2981  220.8281 H   0  0  0  0  0  0  0  0  0  0  0  0
  143.1581   80.8519  222.7170 H   0  0  0  0  0  0  0  0  0  0  0  0
  141.5035   80.7967  224.5740 H   0  0  0  0  0  0  0  0  0  0  0  0
  139.6701   79.1346  224.4600 H   0  0  0  0  0  0  0  0  0  0  0  0
  139.4637   77.5645  222.5555 H   0  0  0  0  0  0  0  0  0  0  0  0
  139.3548   76.2649  221.0890 H   0  0  0  0  0  0  0  0  0  0  0  0
  142.1288   75.6763  221.6824 H   0  0  0  0  0  0  0  0  0  0  0  0
  140.5401   75.6063  222.6462 H   0  0  0  0  0  0  0  0  0  0  0  0
  141.9393   73.4886  221.1124 H   0  0  0  0  0  0  0  0  0  0  0  0
  141.0324   73.4083  222.6378 H   0  0  0  0  0  0  0  0  0  0  0  0
  139.0012   72.9994  223.2900 H   0  0  0  0  0  0  0  0  0  0  0  0
  136.3800   72.4370  222.3930 H   0  0  0  0  0  0  0  0  0  0  0  0
  136.8810   72.7620  223.9860 H   0  0  0  0  0  0  0  0  0  0  0  0
  138.3091   70.1591  222.3334 H   0  0  0  0  0  0  0  0  0  0  0  0
  140.0009   70.8256  222.5063 H   0  0  0  0  0  0  0  0  0  0  0  0
  137.9896   70.5735  224.7028 H   0  0  0  0  0  0  0  0  0  0  0  0
  141.0284   71.3006  224.3671 H   0  0  0  0  0  0  0  0  0  0  0  0
  139.8895   72.2478  225.2713 H   0  0  0  0  0  0  0  0  0  0  0  0
  141.2220   71.5914  227.7504 H   0  0  0  0  0  0  0  0  0  0  0  0
  141.4472   69.7193  229.3373 H   0  0  0  0  0  0  0  0  0  0  0  0
  140.7890   67.4141  228.7534 H   0  0  0  0  0  0  0  0  0  0  0  0
  139.8591   66.9641  226.4585 H   0  0  0  0  0  0  0  0  0  0  0  0
  140.3207   68.7828  223.7534 H   0  0  0  0  0  0  0  0  0  0  0  0
  138.7601   68.2323  224.2950 H   0  0  0  0  0  0  0  0  0  0  0  0
  140.8006   73.5745  218.9871 H   0  0  0  0  0  0  0  0  0  0  0  0
  139.0110   73.5734  218.9362 H   0  0  0  0  0  0  0  0  0  0  0  0
  140.5471   75.7824  218.6215 H   0  0  0  0  0  0  0  0  0  0  0  0
  138.8435   75.7614  219.3280 H   0  0  0  0  0  0  0  0  0  0  0  0
  1  2  1  0
  2  3  1  0
  3  4  2  0
  3  5  1  0
  5  6  1  0
  6  7  2  0
  7  8  1  0
  8  9  2  0
  9 10  1  0
 10 11  2  0
  5 12  1  0
 12 13  1  0
 13 14  1  0
 14 15  1  0
 15 16  1  0
 16 17  2  0
 16 18  1  0
 18 19  1  0
 18 20  1  0
 20 21  1  0
 21 22  1  0
 22 23  1  0
 23 24  2  0
 24 25  1  0
 25 26  2  0
 26 27  1  0
 27 28  2  0
 28 29  1  0
 15 30  1  0
 30 31  1  0
 11  6  1  0
 31 12  1  0
 29 21  1  0
 28 23  1  0
  1 32  1  0
  1 33  1  0
  1 34  1  0
  2 35  1  0
  2 36  1  0
  7 37  1  0
  8 38  1  0
  9 39  1  0
 10 40  1  0
 11 41  1  0
 12 42  1  0
 13 43  1  0
 13 44  1  0
 14 45  1  0
 14 46  1  0
 18 47  1  1
 19 48  1  0
 19 49  1  0
 20 50  1  0
 20 51  1  0
 21 52  1  0
 22 53  1  0
 22 54  1  0
 24 55  1  0
 25 56  1  0
 26 57  1  0
 27 58  1  0
 29 59  1  0
 29 60  1  0
 30 61  1  0
 30 62  1  0
 31 63  1  0
 31 64  1  0
M  END
>  <smiles>  (30) 
CCC(=O)N(c1ccccc1)C1CCN(C(=O)[C@@H](N)CC2Cc3ccccc3C2)CC1

>  <score_type>  (30) 
oracle

>  <origin>  (30) 
autodockgpu

>  <m_score__min__energy>  (30) 
-9.3200000000000003

>  <m_primary>  (30) 
energy

>  <rmsd>  (30) 
7.24513224080739

>  <m_score__min__rmsd>  (30) 
7.24513224080739

>  <meeko>  (30) 
{"free_energy": -7.86, "intermolecular_energy": -10.25, "internal_energy": -1.94, "cluster_size": 18, "cluster_id": 3, "rank_in_cluster": 14}

>  <energy>  (30) 
-8.09

>  <cluster_rmsd>  (30) 
0.21

>  <cluster>  (30) 
3

$$$$

     RDKit          3D

 64 67  0  0  0  0  0  0  0  0999 V2000
  138.5190   69.1650  222.1140 C   0  0  0  0  0  0  0  0  0  0  0  0
  137.7760   70.4920  221.8630 C   0  0  0  0  0  0  0  0  0  0  0  0
  138.0670   71.4340  222.9840 C   0  0  0  0  0  0  0  0  0  0  0  0
  137.0370   72.0320  223.4270 O   0  0  0  0  0  0  0  0  0  0  0  0
  139.3750   71.6370  223.5010 N   0  0  0  0  0  0  0  0  0  0  0  0
  139.8310   71.2080  224.7570 C   0  0  0  0  0  0  0  0  0  0  0  0
  140.7220   71.8960  225.5500 C   0  0  0  0  0  0  0  0  0  0  0  0
  141.1590   71.4440  226.7880 C   0  0  0  0  0  0  0  0  0  0  0  0
  140.7070   70.2540  227.2950 C   0  0  0  0  0  0  0  0  0  0  0  0
  139.8160   69.5410  226.5300 C   0  0  0  0  0  0  0  0  0  0  0  0
  139.3750   69.9970  225.2800 C   0  0  0  0  0  0  0  0  0  0  0  0
  140.2880   72.3620  222.5900 C   0  0  0  0  0  0  0  0  0  0  0  0
  139.5530   73.4990  222.0180 C   0  0  0  0  0  0  0  0  0  0  0  0
  139.9280   73.9440  220.6240 C   0  0  0  0  0  0  0  0  0  0  0  0
  141.2950   73.5290  220.4090 N   0  0  0  0  0  0  0  0  0  0  0  0
  142.4250   74.3390  220.2280 C   0  0  0  0  0  0  0  0  0  0  0  0
  143.5370   73.7120  220.0630 O   0  0  0  0  0  0  0  0  0  0  0  0
  142.5230   75.7980  220.1990 C   0  0  1  0  0  0  0  0  0  0  0  0
  143.6340   76.3660  219.5070 N   0  0  0  0  0  0  0  0  0  0  0  0
  141.2870   76.4870  219.6400 C   0  0  0  0  0  0  0  0  0  0  0  0
  140.8680   77.6850  220.4270 C   0  0  0  0  0  0  0  0  0  0  0  0
  141.8270   78.8460  220.0850 C   0  0  0  0  0  0  0  0  0  0  0  0
  141.6450   79.7140  221.2790 C   0  0  0  0  0  0  0  0  0  0  0  0
  141.7930   81.0900  221.4770 C   0  0  0  0  0  0  0  0  0  0  0  0
  141.5430   81.6050  222.7330 C   0  0  0  0  0  0  0  0  0  0  0  0
  141.1540   80.8300  223.8060 C   0  0  0  0  0  0  0  0  0  0  0  0
  141.0060   79.4610  223.6060 C   0  0  0  0  0  0  0  0  0  0  0  0
  141.2540   78.9410  222.3520 C   0  0  0  0  0  0  0  0  0  0  0  0
  141.1610   77.5240  221.9110 C   0  0  0  0  0  0  0  0  0  0  0  0
  141.4640   72.0490  220.3890 C   0  0  0  0  0  0  0  0  0  0  0  0
  141.1370   71.5080  221.7540 C   0  0  0  0  0  0  0  0  0  0  0  0
  138.6132   68.9967  223.1970 H   0  0  0  0  0  0  0  0  0  0  0  0
  137.9533   68.3369  221.6621 H   0  0  0  0  0  0  0  0  0  0  0  0
  139.5207   69.2144  221.6621 H   0  0  0  0  0  0  0  0  0  0  0  0
  138.1175   70.9317  220.9143 H   0  0  0  0  0  0  0  0  0  0  0  0
  136.6933   70.3058  221.8068 H   0  0  0  0  0  0  0  0  0  0  0  0
  141.1093   72.8576  225.1821 H   0  0  0  0  0  0  0  0  0  0  0  0
  141.8744   72.0466  227.3669 H   0  0  0  0  0  0  0  0  0  0  0  0
  141.0439   69.8845  228.2748 H   0  0  0  0  0  0  0  0  0  0  0  0
  139.4364   68.5813  226.9107 H   0  0  0  0  0  0  0  0  0  0  0  0
  138.6597   69.3921  224.7034 H   0  0  0  0  0  0  0  0  0  0  0  0
  141.1275   72.8285  223.1263 H   0  0  0  0  0  0  0  0  0  0  0  0
  138.4873   73.2270  222.0011 H   0  0  0  0  0  0  0  0  0  0  0  0
  139.8119   74.3519  222.6627 H   0  0  0  0  0  0  0  0  0  0  0  0
  139.2669   73.4694  219.8839 H   0  0  0  0  0  0  0  0  0  0  0  0
  139.8237   75.0336  220.5152 H   0  0  0  0  0  0  0  0  0  0  0  0
  142.6531   75.9874  221.2747 H   0  0  0  0  0  0  0  0  0  0  0  0
  144.3650   75.7060  219.1980 H   0  0  0  0  0  0  0  0  0  0  0  0
  144.0470   77.2150  219.9170 H   0  0  0  0  0  0  0  0  0  0  0  0
  141.5014   76.8048  218.6090 H   0  0  0  0  0  0  0  0  0  0  0  0
  140.4613   75.7618  219.6887 H   0  0  0  0  0  0  0  0  0  0  0  0
  139.8013   77.8373  220.2056 H   0  0  0  0  0  0  0  0  0  0  0  0
  142.8665   78.4988  219.9908 H   0  0  0  0  0  0  0  0  0  0  0  0
  141.6207   79.3411  219.1246 H   0  0  0  0  0  0  0  0  0  0  0  0
  142.1016   81.7473  220.6507 H   0  0  0  0  0  0  0  0  0  0  0  0
  141.6598   82.6880  222.8861 H   0  0  0  0  0  0  0  0  0  0  0  0
  140.9662   81.2814  224.7914 H   0  0  0  0  0  0  0  0  0  0  0  0
  140.6968   78.8048  224.4329 H   0  0  0  0  0  0  0  0  0  0  0  0
  142.1074   76.9887  222.0777 H   0  0  0  0  0  0  0  0  0  0  0  0
  140.4082   76.9343  222.4547 H   0  0  0  0  0  0  0  0  0  0  0  0
  140.7849   71.6089  219.6439 H   0  0  0  0  0  0  0  0  0  0  0  0
  142.5003   71.7936  220.1229 H   0  0  0  0  0  0  0  0  0  0  0  0
  140.6215   70.5454  221.6213 H   0  0  0  0  0  0  0  0  0  0  0  0
  142.0979   71.4304  222.2837 H   0  0  0  0  0  0  0  0  0  0  0  0
  1  2  1  0
  2  3  1  0
  3  4  2  0
  3  5  1  0
  5  6  1  0
  6  7  2  0
  7  8  1  0
  8  9  2  0
  9 10  1  0
 10 11  2  0
  5 12  1  0
 12 13  1  0
 13 14  1  0
 14 15  1  0
 15 16  1  0
 16 17  2  0
 16 18  1  0
 18 19  1  0
 18 20  1  0
 20 21  1  0
 21 22  1  0
 22 23  1  0
 23 24  2  0
 24 25  1  0
 25 26  2  0
 26 27  1  0
 27 28  2  0
 28 29  1  0
 15 30  1  0
 30 31  1  0
 11  6  1  0
 31 12  1  0
 29 21  1  0
 28 23  1  0
  1 32  1  0
  1 33  1  0
  1 34  1  0
  2 35  1  0
  2 36  1  0
  7 37  1  0
  8 38  1  0
  9 39  1  0
 10 40  1  0
 11 41  1  0
 12 42  1  0
 13 43  1  0
 13 44  1  0
 14 45  1  0
 14 46  1  0
 18 47  1  1
 19 48  1  0
 19 49  1  0
 20 50  1  0
 20 51  1  0
 21 52  1  0
 22 53  1  0
 22 54  1  0
 24 55  1  0
 25 56  1  0
 26 57  1  0
 27 58  1  0
 29 59  1  0
 29 60  1  0
 30 61  1  0
 30 62  1  0
 31 63  1  0
 31 64  1  0
M  END
>  <smiles>  (31) 
CCC(=O)N(c1ccccc1)C1CCN(C(=O)[C@@H](N)CC2Cc3ccccc3C2)CC1

>  <score_type>  (31) 
oracle

>  <origin>  (31) 
autodockgpu

>  <m_score__min__energy>  (31) 
-9.3200000000000003

>  <m_primary>  (31) 
energy

>  <rmsd>  (31) 
6.136698137764357

>  <m_score__min__rmsd>  (31) 
6.136698137764357

>  <meeko>  (31) 
{"free_energy": -7.79, "intermolecular_energy": -10.17, "internal_energy": -2.21, "cluster_size": 2, "cluster_id": 4, "rank_in_cluster": 2}

>  <energy>  (31) 
-8.08

>  <cluster_rmsd>  (31) 
0.49

>  <cluster>  (31) 
3

$$$$

     RDKit          3D

 64 67  0  0  0  0  0  0  0  0999 V2000
  136.3410   68.5750  222.6470 C   0  0  0  0  0  0  0  0  0  0  0  0
  136.8510   68.9480  224.0530 C   0  0  0  0  0  0  0  0  0  0  0  0
  138.3430   68.9040  224.0590 C   0  0  0  0  0  0  0  0  0  0  0  0
  138.8220   67.8310  223.5760 O   0  0  0  0  0  0  0  0  0  0  0  0
  139.1440   69.9670  224.5590 N   0  0  0  0  0  0  0  0  0  0  0  0
  139.7760   69.9920  225.8120 C   0  0  0  0  0  0  0  0  0  0  0  0
  140.3380   71.1080  226.3900 C   0  0  0  0  0  0  0  0  0  0  0  0
  140.9610   71.1000  227.6310 C   0  0  0  0  0  0  0  0  0  0  0  0
  141.0490   69.9440  228.3600 C   0  0  0  0  0  0  0  0  0  0  0  0
  140.4990   68.8110  227.8130 C   0  0  0  0  0  0  0  0  0  0  0  0
  139.8690   68.8170  226.5610 C   0  0  0  0  0  0  0  0  0  0  0  0
  139.2880   71.1120  223.6340 C   0  0  0  0  0  0  0  0  0  0  0  0
  137.9480   71.6460  223.3550 C   0  0  0  0  0  0  0  0  0  0  0  0
  137.7120   72.2710  222.0010 C   0  0  0  0  0  0  0  0  0  0  0  0
  138.9980   72.7150  221.5170 N   0  0  0  0  0  0  0  0  0  0  0  0
  139.4250   74.0290  221.2840 C   0  0  0  0  0  0  0  0  0  0  0  0
  140.6340   74.1530  220.8580 O   0  0  0  0  0  0  0  0  0  0  0  0
  138.6950   75.2850  221.4540 C   0  0  1  0  0  0  0  0  0  0  0  0
  138.2980   75.6370  222.7780 N   0  0  0  0  0  0  0  0  0  0  0  0
  139.4240   76.5000  220.9010 C   0  0  0  0  0  0  0  0  0  0  0  0
  140.1210   77.3030  221.9500 C   0  0  0  0  0  0  0  0  0  0  0  0
  139.3830   78.6510  222.0950 C   0  0  0  0  0  0  0  0  0  0  0  0
  140.4520   79.4850  222.7060 C   0  0  0  0  0  0  0  0  0  0  0  0
  140.4130   80.6150  223.5270 C   0  0  0  0  0  0  0  0  0  0  0  0
  141.6080   81.1720  223.9380 C   0  0  0  0  0  0  0  0  0  0  0  0
  142.8410   80.6700  223.5790 C   0  0  0  0  0  0  0  0  0  0  0  0
  142.8770   79.5440  222.7620 C   0  0  0  0  0  0  0  0  0  0  0  0
  141.6860   78.9840  222.3480 C   0  0  0  0  0  0  0  0  0  0  0  0
  141.4840   77.7920  221.4820 C   0  0  0  0  0  0  0  0  0  0  0  0
  139.9460   71.5960  221.2550 C   0  0  0  0  0  0  0  0  0  0  0  0
  140.2680   70.9200  222.5600 C   0  0  0  0  0  0  0  0  0  0  0  0
  135.4562   67.9278  222.7377 H   0  0  0  0  0  0  0  0  0  0  0  0
  136.0712   69.4904  222.1000 H   0  0  0  0  0  0  0  0  0  0  0  0
  137.1317   68.0405  222.1000 H   0  0  0  0  0  0  0  0  0  0  0  0
  136.5114   69.9619  224.3110 H   0  0  0  0  0  0  0  0  0  0  0  0
  136.4563   68.2348  224.7916 H   0  0  0  0  0  0  0  0  0  0  0  0
  140.2909   72.0585  225.8383 H   0  0  0  0  0  0  0  0  0  0  0  0
  141.3879   72.0310  228.0323 H   0  0  0  0  0  0  0  0  0  0  0  0
  141.5404   69.9240  229.3439 H   0  0  0  0  0  0  0  0  0  0  0  0
  140.5546   67.8676  228.3759 H   0  0  0  0  0  0  0  0  0  0  0  0
  139.4424   67.8843  226.1633 H   0  0  0  0  0  0  0  0  0  0  0  0
  139.8199   71.9564  224.0967 H   0  0  0  0  0  0  0  0  0  0  0  0
  137.2341   70.8162  223.4632 H   0  0  0  0  0  0  0  0  0  0  0  0
  137.8227   72.4728  224.0697 H   0  0  0  0  0  0  0  0  0  0  0  0
  137.2831   71.5294  221.3111 H   0  0  0  0  0  0  0  0  0  0  0  0
  137.0052   73.1109  222.0716 H   0  0  0  0  0  0  0  0  0  0  0  0
  137.7913   75.0438  220.8751 H   0  0  0  0  0  0  0  0  0  0  0  0
  139.0430   75.6370  223.4930 H   0  0  0  0  0  0  0  0  0  0  0  0
  137.4380   75.1980  223.1340 H   0  0  0  0  0  0  0  0  0  0  0  0
  140.1718   76.1556  220.1715 H   0  0  0  0  0  0  0  0  0  0  0  0
  138.6659   77.1526  220.4434 H   0  0  0  0  0  0  0  0  0  0  0  0
  140.1689   76.6625  222.8430 H   0  0  0  0  0  0  0  0  0  0  0  0
  139.0675   79.0476  221.1187 H   0  0  0  0  0  0  0  0  0  0  0  0
  138.4520   78.6018  222.6788 H   0  0  0  0  0  0  0  0  0  0  0  0
  139.4524   81.0509  223.8388 H   0  0  0  0  0  0  0  0  0  0  0  0
  141.5745   82.0613  224.5846 H   0  0  0  0  0  0  0  0  0  0  0  0
  143.7693   81.1457  223.9282 H   0  0  0  0  0  0  0  0  0  0  0  0
  143.8381   79.1081  222.4517 H   0  0  0  0  0  0  0  0  0  0  0  0
  141.4680   78.0673  220.4171 H   0  0  0  0  0  0  0  0  0  0  0  0
  142.2820   77.0392  221.5626 H   0  0  0  0  0  0  0  0  0  0  0  0
  139.4834   70.8724  220.5677 H   0  0  0  0  0  0  0  0  0  0  0  0
  140.8675   71.9853  220.7975 H   0  0  0  0  0  0  0  0  0  0  0  0
  140.3533   69.8400  222.3693 H   0  0  0  0  0  0  0  0  0  0  0  0
  141.1990   71.3846  222.9168 H   0  0  0  0  0  0  0  0  0  0  0  0
  1  2  1  0
  2  3  1  0
  3  4  2  0
  3  5  1  0
  5  6  1  0
  6  7  2  0
  7  8  1  0
  8  9  2  0
  9 10  1  0
 10 11  2  0
  5 12  1  0
 12 13  1  0
 13 14  1  0
 14 15  1  0
 15 16  1  0
 16 17  2  0
 16 18  1  0
 18 19  1  0
 18 20  1  0
 20 21  1  0
 21 22  1  0
 22 23  1  0
 23 24  2  0
 24 25  1  0
 25 26  2  0
 26 27  1  0
 27 28  2  0
 28 29  1  0
 15 30  1  0
 30 31  1  0
 11  6  1  0
 31 12  1  0
 29 21  1  0
 28 23  1  0
  1 32  1  0
  1 33  1  0
  1 34  1  0
  2 35  1  0
  2 36  1  0
  7 37  1  0
  8 38  1  0
  9 39  1  0
 10 40  1  0
 11 41  1  0
 12 42  1  0
 13 43  1  0
 13 44  1  0
 14 45  1  0
 14 46  1  0
 18 47  1  6
 19 48  1  0
 19 49  1  0
 20 50  1  0
 20 51  1  0
 21 52  1  0
 22 53  1  0
 22 54  1  0
 24 55  1  0
 25 56  1  0
 26 57  1  0
 27 58  1  0
 29 59  1  0
 29 60  1  0
 30 61  1  0
 30 62  1  0
 31 63  1  0
 31 64  1  0
M  END
>  <smiles>  (32) 
CCC(=O)N(c1ccccc1)C1CCN(C(=O)[C@@H](N)CC2Cc3ccccc3C2)CC1

>  <score_type>  (32) 
oracle

>  <origin>  (32) 
autodockgpu

>  <m_score__min__energy>  (32) 
-9.3200000000000003

>  <m_primary>  (32) 
energy

>  <rmsd>  (32) 
7.152483732496921

>  <m_score__min__rmsd>  (32) 
7.152483732496921

>  <meeko>  (32) 
{"free_energy": -8.5, "intermolecular_energy": -10.89, "internal_energy": -1.46, "cluster_size": 24, "cluster_id": 1, "rank_in_cluster": 22}

>  <energy>  (32) 
-8.08

>  <cluster_rmsd>  (32) 
0.09

>  <cluster>  (32) 
3

$$$$

     RDKit          3D

 64 67  0  0  0  0  0  0  0  0999 V2000
  146.1820   73.0130  221.8100 C   0  0  0  0  0  0  0  0  0  0  0  0
  146.2070   73.7660  220.4650 C   0  0  0  0  0  0  0  0  0  0  0  0
  145.5680   72.9150  219.4180 C   0  0  0  0  0  0  0  0  0  0  0  0
  145.9200   73.2160  218.2340 O   0  0  0  0  0  0  0  0  0  0  0  0
  144.6560   71.8690  219.7240 N   0  0  0  0  0  0  0  0  0  0  0  0
  144.9020   70.4970  219.5540 C   0  0  0  0  0  0  0  0  0  0  0  0
  144.1380   69.4870  220.0930 C   0  0  0  0  0  0  0  0  0  0  0  0
  144.4080   68.1370  219.9100 C   0  0  0  0  0  0  0  0  0  0  0  0
  145.4830   67.7360  219.1600 C   0  0  0  0  0  0  0  0  0  0  0  0
  146.2660   68.7190  218.6070 C   0  0  0  0  0  0  0  0  0  0  0  0
  145.9940   70.0820  218.7900 C   0  0  0  0  0  0  0  0  0  0  0  0
  143.3590   72.3270  220.2680 C   0  0  0  0  0  0  0  0  0  0  0  0
  142.2900   71.5940  219.5750 C   0  0  0  0  0  0  0  0  0  0  0  0
  140.9680   72.3010  219.3860 C   0  0  0  0  0  0  0  0  0  0  0  0
  140.8760   73.2990  220.4270 N   0  0  0  0  0  0  0  0  0  0  0  0
  139.9680   73.3520  221.4920 C   0  0  0  0  0  0  0  0  0  0  0  0
  140.1080   74.3520  222.2920 O   0  0  0  0  0  0  0  0  0  0  0  0
  138.8800   72.4350  221.8290 C   0  0  1  0  0  0  0  0  0  0  0  0
  137.9720   72.0840  220.7860 N   0  0  0  0  0  0  0  0  0  0  0  0
  139.3490   71.1200  222.4330 C   0  0  0  0  0  0  0  0  0  0  0  0
  139.2610   71.0870  223.9240 C   0  0  0  0  0  0  0  0  0  0  0  0
  140.5260   71.7610  224.4970 C   0  0  0  0  0  0  0  0  0  0  0  0
  140.5540   71.1780  225.8640 C   0  0  0  0  0  0  0  0  0  0  0  0
  141.0840   71.6340  227.0740 C   0  0  0  0  0  0  0  0  0  0  0  0
  140.9430   70.8410  228.1950 C   0  0  0  0  0  0  0  0  0  0  0  0
  140.3030   69.6190  228.1840 C   0  0  0  0  0  0  0  0  0  0  0  0
  139.7750   69.1670  226.9790 C   0  0  0  0  0  0  0  0  0  0  0  0
  139.9140   69.9560  225.8540 C   0  0  0  0  0  0  0  0  0  0  0  0
  139.4350   69.6790  224.4740 C   0  0  0  0  0  0  0  0  0  0  0  0
  141.8990   74.3750  220.3010 C   0  0  0  0  0  0  0  0  0  0  0  0
  143.2620   73.7710  220.5040 C   0  0  0  0  0  0  0  0  0  0  0  0
  146.2061   73.7382  222.6367 H   0  0  0  0  0  0  0  0  0  0  0  0
  145.2634   72.4115  221.8765 H   0  0  0  0  0  0  0  0  0  0  0  0
  147.0587   72.3520  221.8765 H   0  0  0  0  0  0  0  0  0  0  0  0
  145.6520   74.7108  220.5612 H   0  0  0  0  0  0  0  0  0  0  0  0
  147.2471   73.9847  220.1815 H   0  0  0  0  0  0  0  0  0  0  0  0
  143.2653   69.7644  220.7024 H   0  0  0  0  0  0  0  0  0  0  0  0
  143.7533   67.3828  220.3711 H   0  0  0  0  0  0  0  0  0  0  0  0
  145.7091   66.6704  219.0074 H   0  0  0  0  0  0  0  0  0  0  0  0
  147.1358   68.4273  218.0001 H   0  0  0  0  0  0  0  0  0  0  0  0
  146.6492   70.8338  218.3258 H   0  0  0  0  0  0  0  0  0  0  0  0
  143.2290   72.0521  221.3251 H   0  0  0  0  0  0  0  0  0  0  0  0
  142.6669   71.3278  218.5765 H   0  0  0  0  0  0  0  0  0  0  0  0
  142.0610   70.7434  220.2339 H   0  0  0  0  0  0  0  0  0  0  0  0
  140.9333   72.7811  218.3969 H   0  0  0  0  0  0  0  0  0  0  0  0
  140.1292   71.5918  219.4438 H   0  0  0  0  0  0  0  0  0  0  0  0
  138.3428   73.0593  222.5581 H   0  0  0  0  0  0  0  0  0  0  0  0
  138.2070   71.2380  220.2430 H   0  0  0  0  0  0  0  0  0  0  0  0
  137.6580   72.8470  220.1720 H   0  0  0  0  0  0  0  0  0  0  0  0
  138.7256   70.3087  222.0289 H   0  0  0  0  0  0  0  0  0  0  0  0
  140.4098   71.0009  222.1676 H   0  0  0  0  0  0  0  0  0  0  0  0
  138.2934   71.5418  224.1826 H   0  0  0  0  0  0  0  0  0  0  0  0
  141.4245   71.4910  223.9228 H   0  0  0  0  0  0  0  0  0  0  0  0
  140.5094   72.8605  224.4699 H   0  0  0  0  0  0  0  0  0  0  0  0
  141.6018   72.6028  227.1318 H   0  0  0  0  0  0  0  0  0  0  0  0
  141.3624   71.2019  229.1457 H   0  0  0  0  0  0  0  0  0  0  0  0
  140.2128   69.0193  229.1017 H   0  0  0  0  0  0  0  0  0  0  0  0
  139.2561   68.1987  226.9232 H   0  0  0  0  0  0  0  0  0  0  0  0
  140.1797   69.1114  223.8967 H   0  0  0  0  0  0  0  0  0  0  0  0
  138.5232   69.0652  224.4309 H   0  0  0  0  0  0  0  0  0  0  0  0
  141.8397   74.8267  219.2998 H   0  0  0  0  0  0  0  0  0  0  0  0
  141.7182   75.1543  221.0560 H   0  0  0  0  0  0  0  0  0  0  0  0
  143.9599   74.2732  219.8179 H   0  0  0  0  0  0  0  0  0  0  0  0
  143.4996   73.9176  221.5680 H   0  0  0  0  0  0  0  0  0  0  0  0
  1  2  1  0
  2  3  1  0
  3  4  2  0
  3  5  1  0
  5  6  1  0
  6  7  2  0
  7  8  1  0
  8  9  2  0
  9 10  1  0
 10 11  2  0
  5 12  1  0
 12 13  1  0
 13 14  1  0
 14 15  1  0
 15 16  1  0
 16 17  2  0
 16 18  1  0
 18 19  1  0
 18 20  1  0
 20 21  1  0
 21 22  1  0
 22 23  1  0
 23 24  2  0
 24 25  1  0
 25 26  2  0
 26 27  1  0
 27 28  2  0
 28 29  1  0
 15 30  1  0
 30 31  1  0
 11  6  1  0
 31 12  1  0
 29 21  1  0
 28 23  1  0
  1 32  1  0
  1 33  1  0
  1 34  1  0
  2 35  1  0
  2 36  1  0
  7 37  1  0
  8 38  1  0
  9 39  1  0
 10 40  1  0
 11 41  1  0
 12 42  1  0
 13 43  1  0
 13 44  1  0
 14 45  1  0
 14 46  1  0
 18 47  1  1
 19 48  1  0
 19 49  1  0
 20 50  1  0
 20 51  1  0
 21 52  1  0
 22 53  1  0
 22 54  1  0
 24 55  1  0
 25 56  1  0
 26 57  1  0
 27 58  1  0
 29 59  1  0
 29 60  1  0
 30 61  1  0
 30 62  1  0
 31 63  1  0
 31 64  1  0
M  END
>  <smiles>  (33) 
CCC(=O)N(c1ccccc1)C1CCN(C(=O)[C@@H](N)CC2Cc3ccccc3C2)CC1

>  <score_type>  (33) 
oracle

>  <origin>  (33) 
autodockgpu

>  <m_score__min__energy>  (33) 
-9.3200000000000003

>  <m_primary>  (33) 
energy

>  <rmsd>  (33) 
7.720352092986205

>  <m_score__min__rmsd>  (33) 
7.720352092986205

>  <meeko>  (33) 
{"free_energy": -8.87, "intermolecular_energy": -11.26, "internal_energy": -1.35, "cluster_size": 4, "cluster_id": 2, "rank_in_cluster": 3}

>  <energy>  (33) 
-8.04

>  <cluster_rmsd>  (33) 
1.39

>  <cluster>  (33) 
3

$$$$

     RDKit          3D

 64 67  0  0  0  0  0  0  0  0999 V2000
  142.1800   79.7730  218.8010 C   0  0  0  0  0  0  0  0  0  0  0  0
  141.8670   78.2890  218.5260 C   0  0  0  0  0  0  0  0  0  0  0  0
  142.2260   77.4820  219.7300 C   0  0  0  0  0  0  0  0  0  0  0  0
  143.3030   76.8200  219.5960 O   0  0  0  0  0  0  0  0  0  0  0  0
  141.4350   77.4630  220.9100 N   0  0  0  0  0  0  0  0  0  0  0  0
  141.4040   78.4700  221.8880 C   0  0  0  0  0  0  0  0  0  0  0  0
  140.3210   78.7620  222.6850 C   0  0  0  0  0  0  0  0  0  0  0  0
  140.3190   79.7690  223.6420 C   0  0  0  0  0  0  0  0  0  0  0  0
  141.4320   80.5420  223.8420 C   0  0  0  0  0  0  0  0  0  0  0  0
  142.5320   80.2780  223.0630 C   0  0  0  0  0  0  0  0  0  0  0  0
  142.5350   79.2620  222.0970 C   0  0  0  0  0  0  0  0  0  0  0  0
  140.5910   76.2580  221.0620 C   0  0  0  0  0  0  0  0  0  0  0  0
  141.4260   75.1840  221.6180 C   0  0  0  0  0  0  0  0  0  0  0  0
  141.0910   73.7640  221.2270 C   0  0  0  0  0  0  0  0  0  0  0  0
  139.6920   73.7500  220.8680 N   0  0  0  0  0  0  0  0  0  0  0  0
  138.6410   73.0890  221.5170 C   0  0  0  0  0  0  0  0  0  0  0  0
  137.4760   73.2490  220.9930 O   0  0  0  0  0  0  0  0  0  0  0  0
  138.6750   72.2410  222.7080 C   0  0  1  0  0  0  0  0  0  0  0  0
  137.4240   71.8660  223.2830 N   0  0  0  0  0  0  0  0  0  0  0  0
  139.4510   70.9460  222.5190 C   0  0  0  0  0  0  0  0  0  0  0  0
  140.1370   70.4770  223.7600 C   0  0  0  0  0  0  0  0  0  0  0  0
  139.1490   69.5940  224.5530 C   0  0  0  0  0  0  0  0  0  0  0  0
  139.7380   69.6790  225.9160 C   0  0  0  0  0  0  0  0  0  0  0  0
  139.6980   68.8180  227.0160 C   0  0  0  0  0  0  0  0  0  0  0  0
  140.3620   69.1900  228.1670 C   0  0  0  0  0  0  0  0  0  0  0  0
  141.0640   70.3710  228.2890 C   0  0  0  0  0  0  0  0  0  0  0  0
  141.1030   71.2270  227.1930 C   0  0  0  0  0  0  0  0  0  0  0  0
  140.4410   70.8590  226.0390 C   0  0  0  0  0  0  0  0  0  0  0  0
  140.3470   71.6070  224.7570 C   0  0  0  0  0  0  0  0  0  0  0  0
  139.3890   74.5560  219.6520 C   0  0  0  0  0  0  0  0  0  0  0  0
  139.6670   76.0050  219.9520 C   0  0  0  0  0  0  0  0  0  0  0  0
  142.2163   79.9450  219.8869 H   0  0  0  0  0  0  0  0  0  0  0  0
  143.1524   80.0312  218.3562 H   0  0  0  0  0  0  0  0  0  0  0  0
  141.3947   80.4019  218.3562 H   0  0  0  0  0  0  0  0  0  0  0  0
  140.7945   78.1726  218.3111 H   0  0  0  0  0  0  0  0  0  0  0  0
  142.4500   77.9419  217.6602 H   0  0  0  0  0  0  0  0  0  0  0  0
  139.4060   78.1649  222.5573 H   0  0  0  0  0  0  0  0  0  0  0  0
  139.4159   79.9471  224.2443 H   0  0  0  0  0  0  0  0  0  0  0  0
  141.4444   81.3424  224.5965 H   0  0  0  0  0  0  0  0  0  0  0  0
  143.4400   80.8833  223.2016 H   0  0  0  0  0  0  0  0  0  0  0  0
  143.4396   79.0865  221.4962 H   0  0  0  0  0  0  0  0  0  0  0  0
  139.7985   76.3961  221.8122 H   0  0  0  0  0  0  0  0  0  0  0  0
  142.4622   75.3763  221.3030 H   0  0  0  0  0  0  0  0  0  0  0  0
  141.2474   75.2245  222.7026 H   0  0  0  0  0  0  0  0  0  0  0  0
  141.7053   73.4522  220.3695 H   0  0  0  0  0  0  0  0  0  0  0  0
  141.2936   73.0681  222.0545 H   0  0  0  0  0  0  0  0  0  0  0  0
  139.1790   72.9314  223.4004 H   0  0  0  0  0  0  0  0  0  0  0  0
  136.5970   71.9540  222.6710 H   0  0  0  0  0  0  0  0  0  0  0  0
  137.2280   72.2180  224.2290 H   0  0  0  0  0  0  0  0  0  0  0  0
  138.7497   70.1642  222.1920 H   0  0  0  0  0  0  0  0  0  0  0  0
  140.2333   71.1433  221.7713 H   0  0  0  0  0  0  0  0  0  0  0  0
  141.0740   70.0042  223.4306 H   0  0  0  0  0  0  0  0  0  0  0  0
  138.1282   70.0029  224.5261 H   0  0  0  0  0  0  0  0  0  0  0  0
  139.0387   68.5703  224.1658 H   0  0  0  0  0  0  0  0  0  0  0  0
  139.1498   67.8657  226.9655 H   0  0  0  0  0  0  0  0  0  0  0  0
  140.3298   68.5101  229.0312 H   0  0  0  0  0  0  0  0  0  0  0  0
  141.5785   70.6288  229.2265 H   0  0  0  0  0  0  0  0  0  0  0  0
  141.6511   72.1793  227.2450 H   0  0  0  0  0  0  0  0  0  0  0  0
  139.4956   72.3035  224.7599 H   0  0  0  0  0  0  0  0  0  0  0  0
  141.2217   72.2381  224.5413 H   0  0  0  0  0  0  0  0  0  0  0  0
  140.0245   74.2220  218.8186 H   0  0  0  0  0  0  0  0  0  0  0  0
  138.3335   74.4273  219.3703 H   0  0  0  0  0  0  0  0  0  0  0  0
  140.0930   76.4620  219.0466 H   0  0  0  0  0  0  0  0  0  0  0  0
  138.7036   76.4381  220.2589 H   0  0  0  0  0  0  0  0  0  0  0  0
  1  2  1  0
  2  3  1  0
  3  4  2  0
  3  5  1  0
  5  6  1  0
  6  7  2  0
  7  8  1  0
  8  9  2  0
  9 10  1  0
 10 11  2  0
  5 12  1  0
 12 13  1  0
 13 14  1  0
 14 15  1  0
 15 16  1  0
 16 17  2  0
 16 18  1  0
 18 19  1  0
 18 20  1  0
 20 21  1  0
 21 22  1  0
 22 23  1  0
 23 24  2  0
 24 25  1  0
 25 26  2  0
 26 27  1  0
 27 28  2  0
 28 29  1  0
 15 30  1  0
 30 31  1  0
 11  6  1  0
 31 12  1  0
 29 21  1  0
 28 23  1  0
  1 32  1  0
  1 33  1  0
  1 34  1  0
  2 35  1  0
  2 36  1  0
  7 37  1  0
  8 38  1  0
  9 39  1  0
 10 40  1  0
 11 41  1  0
 12 42  1  0
 13 43  1  0
 13 44  1  0
 14 45  1  0
 14 46  1  0
 18 47  1  1
 19 48  1  0
 19 49  1  0
 20 50  1  0
 20 51  1  0
 21 52  1  0
 22 53  1  0
 22 54  1  0
 24 55  1  0
 25 56  1  0
 26 57  1  0
 27 58  1  0
 29 59  1  0
 29 60  1  0
 30 61  1  0
 30 62  1  0
 31 63  1  0
 31 64  1  0
M  END
>  <smiles>  (34) 
CCC(=O)N(c1ccccc1)C1CCN(C(=O)[C@@H](N)CC2Cc3ccccc3C2)CC1

>  <score_type>  (34) 
oracle

>  <origin>  (34) 
autodockgpu

>  <m_score__min__energy>  (34) 
-9.3200000000000003

>  <m_primary>  (34) 
energy

>  <rmsd>  (34) 
6.9029874295678795

>  <m_score__min__rmsd>  (34) 
6.9029874295678795

>  <meeko>  (34) 
{"free_energy": -7.95, "intermolecular_energy": -10.34, "internal_energy": -2.23, "cluster_size": 18, "cluster_id": 3, "rank_in_cluster": 9}

>  <energy>  (34) 
-8.02

>  <cluster_rmsd>  (34) 
0.69

>  <cluster>  (34) 
3

$$$$

     RDKit          3D

 64 67  0  0  0  0  0  0  0  0999 V2000
  135.5270   69.0890  223.7250 C   0  0  0  0  0  0  0  0  0  0  0  0
  136.4670   69.2490  224.9360 C   0  0  0  0  0  0  0  0  0  0  0  0
  137.8820   69.1370  224.4730 C   0  0  0  0  0  0  0  0  0  0  0  0
  138.0650   68.2200  223.6110 O   0  0  0  0  0  0  0  0  0  0  0  0
  138.9200   69.9790  224.9540 N   0  0  0  0  0  0  0  0  0  0  0  0
  139.6840   69.7530  226.1100 C   0  0  0  0  0  0  0  0  0  0  0  0
  140.2970   70.7350  226.8550 C   0  0  0  0  0  0  0  0  0  0  0  0
  141.0520   70.4790  227.9930 C   0  0  0  0  0  0  0  0  0  0  0  0
  141.2250   69.1960  228.4410 C   0  0  0  0  0  0  0  0  0  0  0  0
  140.6270   68.1910  227.7210 C   0  0  0  0  0  0  0  0  0  0  0  0
  139.8650   68.4480  226.5720 C   0  0  0  0  0  0  0  0  0  0  0  0
  139.1720   71.1770  224.1240 C   0  0  0  0  0  0  0  0  0  0  0  0
  137.9540   71.4600  223.3510 C   0  0  0  0  0  0  0  0  0  0  0  0
  138.1220   72.0980  221.9920 C   0  0  0  0  0  0  0  0  0  0  0  0
  139.3830   72.8020  222.0150 N   0  0  0  0  0  0  0  0  0  0  0  0
  139.6000   74.1840  221.9260 C   0  0  0  0  0  0  0  0  0  0  0  0
  140.8320   74.5560  221.9810 O   0  0  0  0  0  0  0  0  0  0  0  0
  138.6290   75.2680  221.7810 C   0  0  1  0  0  0  0  0  0  0  0  0
  137.9240   75.6780  222.9510 N   0  0  0  0  0  0  0  0  0  0  0  0
  139.2110   76.5380  221.1790 C   0  0  0  0  0  0  0  0  0  0  0  0
  140.0030   77.3480  222.1520 C   0  0  0  0  0  0  0  0  0  0  0  0
  139.3730   78.7550  222.2340 C   0  0  0  0  0  0  0  0  0  0  0  0
  140.5220   79.5400  222.7570 C   0  0  0  0  0  0  0  0  0  0  0  0
  140.5970   80.7180  223.5060 C   0  0  0  0  0  0  0  0  0  0  0  0
  141.8430   81.2060  223.8430 C   0  0  0  0  0  0  0  0  0  0  0  0
  143.0220   80.5900  223.4790 C   0  0  0  0  0  0  0  0  0  0  0  0
  142.9450   79.4170  222.7340 C   0  0  0  0  0  0  0  0  0  0  0  0
  141.7010   78.9250  222.3940 C   0  0  0  0  0  0  0  0  0  0  0  0
  141.3810   77.7010  221.6130 C   0  0  0  0  0  0  0  0  0  0  0  0
  140.5580   71.8980  222.1530 C   0  0  0  0  0  0  0  0  0  0  0  0
  140.4980   71.2300  223.5000 C   0  0  0  0  0  0  0  0  0  0  0  0
  134.5001   68.9142  224.0785 H   0  0  0  0  0  0  0  0  0  0  0  0
  135.5543   70.0047  223.1161 H   0  0  0  0  0  0  0  0  0  0  0  0
  135.8557   68.2339  223.1161 H   0  0  0  0  0  0  0  0  0  0  0  0
  136.3075   70.2341  225.3987 H   0  0  0  0  0  0  0  0  0  0  0  0
  136.2555   68.4632  225.6762 H   0  0  0  0  0  0  0  0  0  0  0  0
  140.1828   71.7801  226.5315 H   0  0  0  0  0  0  0  0  0  0  0  0
  141.5150   71.3141  228.5391 H   0  0  0  0  0  0  0  0  0  0  0  0
  141.8190   68.9795  229.3412 H   0  0  0  0  0  0  0  0  0  0  0  0
  140.7497   67.1506  228.0564 H   0  0  0  0  0  0  0  0  0  0  0  0
  139.4040   67.6106  226.0278 H   0  0  0  0  0  0  0  0  0  0  0  0
  139.3194   72.0821  224.7315 H   0  0  0  0  0  0  0  0  0  0  0  0
  137.4281   70.5052  223.2038 H   0  0  0  0  0  0  0  0  0  0  0  0
  137.4121   72.2092  223.9469 H   0  0  0  0  0  0  0  0  0  0  0  0
  138.1340   71.3250  221.2095 H   0  0  0  0  0  0  0  0  0  0  0  0
  137.2907   72.7840  221.7723 H   0  0  0  0  0  0  0  0  0  0  0  0
  137.9154   74.7754  221.1042 H   0  0  0  0  0  0  0  0  0  0  0  0
  138.5030   76.0120  223.7380 H   0  0  0  0  0  0  0  0  0  0  0  0
  137.1730   75.0560  223.2780 H   0  0  0  0  0  0  0  0  0  0  0  0
  139.8682   76.2578  220.3426 H   0  0  0  0  0  0  0  0  0  0  0  0
  138.3642   77.1599  220.8530 H   0  0  0  0  0  0  0  0  0  0  0  0
  140.0348   76.7613  223.0819 H   0  0  0  0  0  0  0  0  0  0  0  0
  139.0531   79.1144  221.2448 H   0  0  0  0  0  0  0  0  0  0  0  0
  138.4624   78.8130  222.8484 H   0  0  0  0  0  0  0  0  0  0  0  0
  139.6833   81.2441  223.8197 H   0  0  0  0  0  0  0  0  0  0  0  0
  141.8987   82.1334  224.4319 H   0  0  0  0  0  0  0  0  0  0  0  0
  143.9949   81.0135  223.7691 H   0  0  0  0  0  0  0  0  0  0  0  0
  143.8594   78.8913  222.4216 H   0  0  0  0  0  0  0  0  0  0  0  0
  141.3486   77.9103  220.5336 H   0  0  0  0  0  0  0  0  0  0  0  0
  142.1230   76.8957  221.7178 H   0  0  0  0  0  0  0  0  0  0  0  0
  140.5334   71.1356  221.3605 H   0  0  0  0  0  0  0  0  0  0  0  0
  141.4888   72.4773  222.0634 H   0  0  0  0  0  0  0  0  0  0  0  0
  140.8575   70.1972  223.3816 H   0  0  0  0  0  0  0  0  0  0  0  0
  141.1198   71.8444  224.1678 H   0  0  0  0  0  0  0  0  0  0  0  0
  1  2  1  0
  2  3  1  0
  3  4  2  0
  3  5  1  0
  5  6  1  0
  6  7  2  0
  7  8  1  0
  8  9  2  0
  9 10  1  0
 10 11  2  0
  5 12  1  0
 12 13  1  0
 13 14  1  0
 14 15  1  0
 15 16  1  0
 16 17  2  0
 16 18  1  0
 18 19  1  0
 18 20  1  0
 20 21  1  0
 21 22  1  0
 22 23  1  0
 23 24  2  0
 24 25  1  0
 25 26  2  0
 26 27  1  0
 27 28  2  0
 28 29  1  0
 15 30  1  0
 30 31  1  0
 11  6  1  0
 31 12  1  0
 29 21  1  0
 28 23  1  0
  1 32  1  0
  1 33  1  0
  1 34  1  0
  2 35  1  0
  2 36  1  0
  7 37  1  0
  8 38  1  0
  9 39  1  0
 10 40  1  0
 11 41  1  0
 12 42  1  0
 13 43  1  0
 13 44  1  0
 14 45  1  0
 14 46  1  0
 18 47  1  6
 19 48  1  0
 19 49  1  0
 20 50  1  0
 20 51  1  0
 21 52  1  0
 22 53  1  0
 22 54  1  0
 24 55  1  0
 25 56  1  0
 26 57  1  0
 27 58  1  0
 29 59  1  0
 29 60  1  0
 30 61  1  0
 30 62  1  0
 31 63  1  0
 31 64  1  0
M  END
>  <smiles>  (35) 
CCC(=O)N(c1ccccc1)C1CCN(C(=O)[C@@H](N)CC2Cc3ccccc3C2)CC1

>  <score_type>  (35) 
oracle

>  <origin>  (35) 
autodockgpu

>  <m_score__min__energy>  (35) 
-9.3200000000000003

>  <m_primary>  (35) 
energy

>  <rmsd>  (35) 
7.184815683799523

>  <m_score__min__rmsd>  (35) 
7.184815683799523

>  <meeko>  (35) 
{"free_energy": -9.27, "intermolecular_energy": -11.66, "internal_energy": -1.5, "cluster_size": 24, "cluster_id": 1, "rank_in_cluster": 3}

>  <energy>  (35) 
-8.02

>  <cluster_rmsd>  (35) 
0.64

>  <cluster>  (35) 
3

$$$$

     RDKit          3D

 64 67  0  0  0  0  0  0  0  0999 V2000
  143.3200   75.9140  219.2560 C   0  0  0  0  0  0  0  0  0  0  0  0
  142.9300   77.3500  218.8560 C   0  0  0  0  0  0  0  0  0  0  0  0
  141.5070   77.5930  219.2360 C   0  0  0  0  0  0  0  0  0  0  0  0
  140.7760   77.9610  218.2630 O   0  0  0  0  0  0  0  0  0  0  0  0
  141.0230   77.4250  220.5610 N   0  0  0  0  0  0  0  0  0  0  0  0
  141.2060   78.3320  221.6170 C   0  0  0  0  0  0  0  0  0  0  0  0
  142.1900   79.2940  221.6690 C   0  0  0  0  0  0  0  0  0  0  0  0
  142.3490   80.1750  222.7310 C   0  0  0  0  0  0  0  0  0  0  0  0
  141.5070   80.1260  223.8100 C   0  0  0  0  0  0  0  0  0  0  0  0
  140.5130   79.1780  223.7920 C   0  0  0  0  0  0  0  0  0  0  0  0
  140.3510   78.2880  222.7200 C   0  0  0  0  0  0  0  0  0  0  0  0
  140.2670   76.1730  220.7840 C   0  0  0  0  0  0  0  0  0  0  0  0
  141.1510   75.2240  221.4760 C   0  0  0  0  0  0  0  0  0  0  0  0
  140.9480   73.7530  221.2020 C   0  0  0  0  0  0  0  0  0  0  0  0
  139.5760   73.5930  220.7790 N   0  0  0  0  0  0  0  0  0  0  0  0
  138.5450   72.9080  221.4360 C   0  0  0  0  0  0  0  0  0  0  0  0
  137.4020   72.9250  220.8440 O   0  0  0  0  0  0  0  0  0  0  0  0
  138.5790   72.1740  222.7000 C   0  0  1  0  0  0  0  0  0  0  0  0
  137.3340   71.9470  223.3600 N   0  0  0  0  0  0  0  0  0  0  0  0
  139.2540   70.8140  222.6040 C   0  0  0  0  0  0  0  0  0  0  0  0
  139.9760   70.4200  223.8500 C   0  0  0  0  0  0  0  0  0  0  0  0
  138.9980   69.6260  224.7440 C   0  0  0  0  0  0  0  0  0  0  0  0
  139.6420   69.7960  226.0730 C   0  0  0  0  0  0  0  0  0  0  0  0
  139.6240   69.0200  227.2360 C   0  0  0  0  0  0  0  0  0  0  0  0
  140.3420   69.4580  228.3310 C   0  0  0  0  0  0  0  0  0  0  0  0
  141.0790   70.6240  228.3370 C   0  0  0  0  0  0  0  0  0  0  0  0
  141.0960   71.3940  227.1780 C   0  0  0  0  0  0  0  0  0  0  0  0
  140.3790   70.9610  226.0810 C   0  0  0  0  0  0  0  0  0  0  0  0
  140.2540   71.6140  224.7500 C   0  0  0  0  0  0  0  0  0  0  0  0
  139.2800   74.2620  219.4810 C   0  0  0  0  0  0  0  0  0  0  0  0
  139.4280   75.7480  219.6590 C   0  0  0  0  0  0  0  0  0  0  0  0
  143.3423   75.8321  220.3527 H   0  0  0  0  0  0  0  0  0  0  0  0
  142.5814   75.2070  218.8504 H   0  0  0  0  0  0  0  0  0  0  0  0
  144.3148   75.6778  218.8504 H   0  0  0  0  0  0  0  0  0  0  0  0
  143.5789   78.0674  219.3797 H   0  0  0  0  0  0  0  0  0  0  0  0
  143.0509   77.4782  217.7702 H   0  0  0  0  0  0  0  0  0  0  0  0
  142.8887   79.3689  220.8227 H   0  0  0  0  0  0  0  0  0  0  0  0
  143.1588   80.9190  222.7052 H   0  0  0  0  0  0  0  0  0  0  0  0
  141.6221   80.8181  224.6572 H   0  0  0  0  0  0  0  0  0  0  0  0
  139.8220   79.1148  224.6456 H   0  0  0  0  0  0  0  0  0  0  0  0
  139.5397   77.5457  222.7487 H   0  0  0  0  0  0  0  0  0  0  0  0
  139.4264   76.3117  221.4799 H   0  0  0  0  0  0  0  0  0  0  0  0
  142.1850   75.4717  221.1941 H   0  0  0  0  0  0  0  0  0  0  0  0
  140.9112   75.3454  222.5427 H   0  0  0  0  0  0  0  0  0  0  0  0
  141.6308   73.4180  220.4073 H   0  0  0  0  0  0  0  0  0  0  0  0
  141.1573   73.1517  222.0990 H   0  0  0  0  0  0  0  0  0  0  0  0
  139.1631   72.8862  223.3014 H   0  0  0  0  0  0  0  0  0  0  0  0
  136.4850   72.0960  222.7930 H   0  0  0  0  0  0  0  0  0  0  0  0
  137.2310   72.3490  224.3010 H   0  0  0  0  0  0  0  0  0  0  0  0
  138.4843   70.0570  222.3931 H   0  0  0  0  0  0  0  0  0  0  0  0
  140.0038   70.8800  221.8019 H   0  0  0  0  0  0  0  0  0  0  0  0
  140.8871   69.8981  223.5222 H   0  0  0  0  0  0  0  0  0  0  0  0
  137.9874   70.0599  224.7246 H   0  0  0  0  0  0  0  0  0  0  0  0
  138.8470   68.5798  224.4396 H   0  0  0  0  0  0  0  0  0  0  0  0
  139.0509   68.0820  227.2776 H   0  0  0  0  0  0  0  0  0  0  0  0
  140.3255   68.8461  229.2449 H   0  0  0  0  0  0  0  0  0  0  0  0
  141.6371   70.9361  229.2320 H   0  0  0  0  0  0  0  0  0  0  0  0
  141.6706   72.3311  227.1369 H   0  0  0  0  0  0  0  0  0  0  0  0
  139.4217   72.3329  224.7320 H   0  0  0  0  0  0  0  0  0  0  0  0
  141.1356   72.2019  224.4548 H   0  0  0  0  0  0  0  0  0  0  0  0
  139.9848   73.9092  218.7137 H   0  0  0  0  0  0  0  0  0  0  0  0
  138.2547   74.0233  219.1618 H   0  0  0  0  0  0  0  0  0  0  0  0
  139.8667   76.1569  218.7368 H   0  0  0  0  0  0  0  0  0  0  0  0
  138.4184   76.1258  219.8782 H   0  0  0  0  0  0  0  0  0  0  0  0
  1  2  1  0
  2  3  1  0
  3  4  2  0
  3  5  1  0
  5  6  1  0
  6  7  2  0
  7  8  1  0
  8  9  2  0
  9 10  1  0
 10 11  2  0
  5 12  1  0
 12 13  1  0
 13 14  1  0
 14 15  1  0
 15 16  1  0
 16 17  2  0
 16 18  1  0
 18 19  1  0
 18 20  1  0
 20 21  1  0
 21 22  1  0
 22 23  1  0
 23 24  2  0
 24 25  1  0
 25 26  2  0
 26 27  1  0
 27 28  2  0
 28 29  1  0
 15 30  1  0
 30 31  1  0
 11  6  1  0
 31 12  1  0
 29 21  1  0
 28 23  1  0
  1 32  1  0
  1 33  1  0
  1 34  1  0
  2 35  1  0
  2 36  1  0
  7 37  1  0
  8 38  1  0
  9 39  1  0
 10 40  1  0
 11 41  1  0
 12 42  1  0
 13 43  1  0
 13 44  1  0
 14 45  1  0
 14 46  1  0
 18 47  1  1
 19 48  1  0
 19 49  1  0
 20 50  1  0
 20 51  1  0
 21 52  1  0
 22 53  1  0
 22 54  1  0
 24 55  1  0
 25 56  1  0
 26 57  1  0
 27 58  1  0
 29 59  1  0
 29 60  1  0
 30 61  1  0
 30 62  1  0
 31 63  1  0
 31 64  1  0
M  END
>  <smiles>  (36) 
CCC(=O)N(c1ccccc1)C1CCN(C(=O)[C@@H](N)CC2Cc3ccccc3C2)CC1

>  <score_type>  (36) 
oracle

>  <origin>  (36) 
autodockgpu

>  <m_score__min__energy>  (36) 
-9.3200000000000003

>  <m_primary>  (36) 
energy

>  <rmsd>  (36) 
7.010677368299254

>  <m_score__min__rmsd>  (36) 
7.010677368299254

>  <meeko>  (36) 
{"free_energy": -7.85, "intermolecular_energy": -10.24, "internal_energy": -2.18, "cluster_size": 18, "cluster_id": 3, "rank_in_cluster": 15}

>  <energy>  (36) 
-7.96

>  <cluster_rmsd>  (36) 
0.5

>  <cluster>  (36) 
3

$$$$

     RDKit          3D

 64 67  0  0  0  0  0  0  0  0999 V2000
  146.3360   73.0160  221.7550 C   0  0  0  0  0  0  0  0  0  0  0  0
  146.0430   73.8580  220.4980 C   0  0  0  0  0  0  0  0  0  0  0  0
  145.5520   72.9600  219.4110 C   0  0  0  0  0  0  0  0  0  0  0  0
  145.9800   73.2770  218.2570 O   0  0  0  0  0  0  0  0  0  0  0  0
  144.6900   71.8570  219.6530 N   0  0  0  0  0  0  0  0  0  0  0  0
  145.0050   70.5090  219.4190 C   0  0  0  0  0  0  0  0  0  0  0  0
  146.0200   70.0670  218.6010 C   0  0  0  0  0  0  0  0  0  0  0  0
  146.3060   68.7250  218.3850 C   0  0  0  0  0  0  0  0  0  0  0  0
  145.5660   67.7480  218.9980 C   0  0  0  0  0  0  0  0  0  0  0  0
  144.5450   68.1530  219.8210 C   0  0  0  0  0  0  0  0  0  0  0  0
  144.2560   69.5080  220.0400 C   0  0  0  0  0  0  0  0  0  0  0  0
  143.3660   72.2230  220.2010 C   0  0  0  0  0  0  0  0  0  0  0  0
  142.3360   71.5660  219.3820 C   0  0  0  0  0  0  0  0  0  0  0  0
  141.0080   72.2700  219.2330 C   0  0  0  0  0  0  0  0  0  0  0  0
  140.8590   73.1280  220.3850 N   0  0  0  0  0  0  0  0  0  0  0  0
  139.9130   73.0340  221.4140 C   0  0  0  0  0  0  0  0  0  0  0  0
  140.0050   73.9270  222.3370 O   0  0  0  0  0  0  0  0  0  0  0  0
  138.8320   72.0650  221.5930 C   0  0  1  0  0  0  0  0  0  0  0  0
  138.1860   71.5790  220.4180 N   0  0  0  0  0  0  0  0  0  0  0  0
  139.2380   70.8310  222.3860 C   0  0  0  0  0  0  0  0  0  0  0  0
  139.2210   71.0430  223.8640 C   0  0  0  0  0  0  0  0  0  0  0  0
  140.5840   71.6360  224.2820 C   0  0  0  0  0  0  0  0  0  0  0  0
  140.6100   71.2750  225.7240 C   0  0  0  0  0  0  0  0  0  0  0  0
  141.2500   71.8460  226.8280 C   0  0  0  0  0  0  0  0  0  0  0  0
  141.0720   71.2630  228.0660 C   0  0  0  0  0  0  0  0  0  0  0  0
  140.2930   70.1430  228.2720 C   0  0  0  0  0  0  0  0  0  0  0  0
  139.6560   69.5770  227.1720 C   0  0  0  0  0  0  0  0  0  0  0  0
  139.8310   70.1560  225.9310 C   0  0  0  0  0  0  0  0  0  0  0  0
  139.2550   69.7280  224.6290 C   0  0  0  0  0  0  0  0  0  0  0  0
  141.8640   74.2270  220.4330 C   0  0  0  0  0  0  0  0  0  0  0  0
  143.2310   73.6240  220.6110 C   0  0  0  0  0  0  0  0  0  0  0  0
  146.1277   73.6146  222.6541 H   0  0  0  0  0  0  0  0  0  0  0  0
  145.6965   72.1210  221.7541 H   0  0  0  0  0  0  0  0  0  0  0  0
  147.3930   72.7114  221.7541 H   0  0  0  0  0  0  0  0  0  0  0  0
  145.2744   74.6101  220.7295 H   0  0  0  0  0  0  0  0  0  0  0  0
  146.9616   74.3671  220.1710 H   0  0  0  0  0  0  0  0  0  0  0  0
  146.6393   70.8187  218.0897 H   0  0  0  0  0  0  0  0  0  0  0  0
  147.1332   68.4442  217.7165 H   0  0  0  0  0  0  0  0  0  0  0  0
  145.7817   66.6815  218.8369 H   0  0  0  0  0  0  0  0  0  0  0  0
  143.9335   67.3902  220.3252 H   0  0  0  0  0  0  0  0  0  0  0  0
  143.4286   69.7854  220.7096 H   0  0  0  0  0  0  0  0  0  0  0  0
  143.2057   71.8156  221.2101 H   0  0  0  0  0  0  0  0  0  0  0  0
  142.7531   71.4329  218.3729 H   0  0  0  0  0  0  0  0  0  0  0  0
  142.1009   70.6364  219.9211 H   0  0  0  0  0  0  0  0  0  0  0  0
  140.9985   72.8694  218.3107 H   0  0  0  0  0  0  0  0  0  0  0  0
  140.1822   71.5459  219.1707 H   0  0  0  0  0  0  0  0  0  0  0  0
  138.1181   72.6966  222.1421 H   0  0  0  0  0  0  0  0  0  0  0  0
  137.3180   71.0390  220.5640 H   0  0  0  0  0  0  0  0  0  0  0  0
  138.7880   71.1340  219.7110 H   0  0  0  0  0  0  0  0  0  0  0  0
  138.5410   70.0155  222.1428 H   0  0  0  0  0  0  0  0  0  0  0  0
  140.2739   70.5908  222.1046 H   0  0  0  0  0  0  0  0  0  0  0  0
  138.3277   71.6493  224.0749 H   0  0  0  0  0  0  0  0  0  0  0  0
  141.4148   71.1697  223.7322 H   0  0  0  0  0  0  0  0  0  0  0  0
  140.6965   72.7111  224.0780 H   0  0  0  0  0  0  0  0  0  0  0  0
  141.8810   72.7396  226.7124 H   0  0  0  0  0  0  0  0  0  0  0  0
  141.5770   71.7142  228.9329 H   0  0  0  0  0  0  0  0  0  0  0  0
  140.1788   69.7101  229.2768 H   0  0  0  0  0  0  0  0  0  0  0  0
  139.0243   68.6841  227.2891 H   0  0  0  0  0  0  0  0  0  0  0  0
  139.8981   68.9889  224.1289 H   0  0  0  0  0  0  0  0  0  0  0  0
  138.2762   69.2331  224.7131 H   0  0  0  0  0  0  0  0  0  0  0  0
  141.8314   74.7995  219.4943 H   0  0  0  0  0  0  0  0  0  0  0  0
  141.6405   74.9025  221.2719 H   0  0  0  0  0  0  0  0  0  0  0  0
  143.9425   74.2192  220.0199 H   0  0  0  0  0  0  0  0  0  0  0  0
  143.4272   73.6400  221.6932 H   0  0  0  0  0  0  0  0  0  0  0  0
  1  2  1  0
  2  3  1  0
  3  4  2  0
  3  5  1  0
  5  6  1  0
  6  7  2  0
  7  8  1  0
  8  9  2  0
  9 10  1  0
 10 11  2  0
  5 12  1  0
 12 13  1  0
 13 14  1  0
 14 15  1  0
 15 16  1  0
 16 17  2  0
 16 18  1  0
 18 19  1  0
 18 20  1  0
 20 21  1  0
 21 22  1  0
 22 23  1  0
 23 24  2  0
 24 25  1  0
 25 26  2  0
 26 27  1  0
 27 28  2  0
 28 29  1  0
 15 30  1  0
 30 31  1  0
 11  6  1  0
 31 12  1  0
 29 21  1  0
 28 23  1  0
  1 32  1  0
  1 33  1  0
  1 34  1  0
  2 35  1  0
  2 36  1  0
  7 37  1  0
  8 38  1  0
  9 39  1  0
 10 40  1  0
 11 41  1  0
 12 42  1  0
 13 43  1  0
 13 44  1  0
 14 45  1  0
 14 46  1  0
 18 47  1  1
 19 48  1  0
 19 49  1  0
 20 50  1  0
 20 51  1  0
 21 52  1  0
 22 53  1  0
 22 54  1  0
 24 55  1  0
 25 56  1  0
 26 57  1  0
 27 58  1  0
 29 59  1  0
 29 60  1  0
 30 61  1  0
 30 62  1  0
 31 63  1  0
 31 64  1  0
M  END
>  <smiles>  (37) 
CCC(=O)N(c1ccccc1)C1CCN(C(=O)[C@@H](N)CC2Cc3ccccc3C2)CC1

>  <score_type>  (37) 
oracle

>  <origin>  (37) 
autodockgpu

>  <m_score__min__energy>  (37) 
-9.3200000000000003

>  <m_primary>  (37) 
energy

>  <rmsd>  (37) 
7.825707092524753

>  <m_score__min__rmsd>  (37) 
7.825707092524753

>  <meeko>  (37) 
{"free_energy": -8.88, "intermolecular_energy": -11.26, "internal_energy": -1.23, "cluster_size": 4, "cluster_id": 2, "rank_in_cluster": 2}

>  <energy>  (37) 
-7.95

>  <cluster_rmsd>  (37) 
0.53

>  <cluster>  (37) 
3

$$$$

     RDKit          3D

 64 67  0  0  0  0  0  0  0  0999 V2000
  137.3750   68.1450  222.0070 C   0  0  0  0  0  0  0  0  0  0  0  0
  138.4440   68.1080  223.1160 C   0  0  0  0  0  0  0  0  0  0  0  0
  138.0970   69.1130  224.1640 C   0  0  0  0  0  0  0  0  0  0  0  0
  136.8700   69.0970  224.4980 O   0  0  0  0  0  0  0  0  0  0  0  0
  139.0530   69.9990  224.7290 N   0  0  0  0  0  0  0  0  0  0  0  0
  139.7380   69.7970  225.9380 C   0  0  0  0  0  0  0  0  0  0  0  0
  139.9020   68.5780  226.5560 C   0  0  0  0  0  0  0  0  0  0  0  0
  140.5820   68.4100  227.7560 C   0  0  0  0  0  0  0  0  0  0  0  0
  141.1380   69.4840  228.3990 C   0  0  0  0  0  0  0  0  0  0  0  0
  140.9930   70.7160  227.8090 C   0  0  0  0  0  0  0  0  0  0  0  0
  140.3070   70.8870  226.5980 C   0  0  0  0  0  0  0  0  0  0  0  0
  139.3080   71.2170  223.9290 C   0  0  0  0  0  0  0  0  0  0  0  0
  138.1200   71.4770  223.1030 C   0  0  0  0  0  0  0  0  0  0  0  0
  138.3330   72.1400  221.7630 C   0  0  0  0  0  0  0  0  0  0  0  0
  139.5700   72.8810  221.8560 N   0  0  0  0  0  0  0  0  0  0  0  0
  139.7500   74.2700  221.7990 C   0  0  0  0  0  0  0  0  0  0  0  0
  140.9660   74.6770  221.9180 O   0  0  0  0  0  0  0  0  0  0  0  0
  138.7550   75.3270  221.6220 C   0  0  1  0  0  0  0  0  0  0  0  0
  137.3910   74.9280  221.4930 N   0  0  0  0  0  0  0  0  0  0  0  0
  138.7770   76.3820  222.7180 C   0  0  0  0  0  0  0  0  0  0  0  0
  139.5660   77.5970  222.3560 C   0  0  0  0  0  0  0  0  0  0  0  0
  141.0270   77.3740  222.8010 C   0  0  0  0  0  0  0  0  0  0  0  0
  141.5070   78.7790  222.8850 C   0  0  0  0  0  0  0  0  0  0  0  0
  142.7760   79.3520  222.7610 C   0  0  0  0  0  0  0  0  0  0  0  0
  142.8960   80.7210  222.8940 C   0  0  0  0  0  0  0  0  0  0  0  0
  141.8260   81.5550  223.1420 C   0  0  0  0  0  0  0  0  0  0  0  0
  140.5640   80.9830  223.2630 C   0  0  0  0  0  0  0  0  0  0  0  0
  140.4380   79.6140  223.1320 C   0  0  0  0  0  0  0  0  0  0  0  0
  139.2010   78.7930  223.2220 C   0  0  0  0  0  0  0  0  0  0  0  0
  140.7640   72.0100  222.0380 C   0  0  0  0  0  0  0  0  0  0  0  0
  140.6600   71.3190  223.3700 C   0  0  0  0  0  0  0  0  0  0  0  0
  136.3746   68.1796  222.4631 H   0  0  0  0  0  0  0  0  0  0  0  0
  137.5247   69.0385  221.3831 H   0  0  0  0  0  0  0  0  0  0  0  0
  137.4625   67.2433  221.3831 H   0  0  0  0  0  0  0  0  0  0  0  0
  138.4747   67.1040  223.5645 H   0  0  0  0  0  0  0  0  0  0  0  0
  139.4295   68.3444  222.6883 H   0  0  0  0  0  0  0  0  0  0  0  0
  139.4712   67.6883  226.0735 H   0  0  0  0  0  0  0  0  0  0  0  0
  140.6747   67.4051  228.1937 H   0  0  0  0  0  0  0  0  0  0  0  0
  141.6788   69.3648  229.3494 H   0  0  0  0  0  0  0  0  0  0  0  0
  141.4292   71.5970  228.3025 H   0  0  0  0  0  0  0  0  0  0  0  0
  140.2162   71.8931  226.1627 H   0  0  0  0  0  0  0  0  0  0  0  0
  139.3993   72.1162  224.5560 H   0  0  0  0  0  0  0  0  0  0  0  0
  137.6297   70.5099  222.9177 H   0  0  0  0  0  0  0  0  0  0  0  0
  137.5291   72.2013  223.6828 H   0  0  0  0  0  0  0  0  0  0  0  0
  138.4056   71.3796  220.9715 H   0  0  0  0  0  0  0  0  0  0  0  0
  137.4926   72.8044  221.5132 H   0  0  0  0  0  0  0  0  0  0  0  0
  139.0916   75.7254  220.6535 H   0  0  0  0  0  0  0  0  0  0  0  0
  136.9850   74.4240  222.2970 H   0  0  0  0  0  0  0  0  0  0  0  0
  137.1220   74.4880  220.6020 H   0  0  0  0  0  0  0  0  0  0  0  0
  137.7416   76.6884  222.9278 H   0  0  0  0  0  0  0  0  0  0  0  0
  139.2624   75.9290  223.5950 H   0  0  0  0  0  0  0  0  0  0  0  0
  139.3921   77.7646  221.2828 H   0  0  0  0  0  0  0  0  0  0  0  0
  141.0809   76.8682  223.7763 H   0  0  0  0  0  0  0  0  0  0  0  0
  141.6152   76.7298  222.1309 H   0  0  0  0  0  0  0  0  0  0  0  0
  143.6587   78.7265  222.5620 H   0  0  0  0  0  0  0  0  0  0  0  0
  143.8958   81.1693  222.7972 H   0  0  0  0  0  0  0  0  0  0  0  0
  141.9666   82.6414  223.2413 H   0  0  0  0  0  0  0  0  0  0  0  0
  139.6818   81.6100  223.4596 H   0  0  0  0  0  0  0  0  0  0  0  0
  138.9946   78.4899  224.2591 H   0  0  0  0  0  0  0  0  0  0  0  0
  138.2900   79.3184  222.8995 H   0  0  0  0  0  0  0  0  0  0  0  0
  140.8008   71.2601  221.2341 H   0  0  0  0  0  0  0  0  0  0  0  0
  141.6799   72.6183  222.0024 H   0  0  0  0  0  0  0  0  0  0  0  0
  141.0555   70.2992  223.2536 H   0  0  0  0  0  0  0  0  0  0  0  0
  141.2305   71.9405  224.0759 H   0  0  0  0  0  0  0  0  0  0  0  0
  1  2  1  0
  2  3  1  0
  3  4  2  0
  3  5  1  0
  5  6  1  0
  6  7  2  0
  7  8  1  0
  8  9  2  0
  9 10  1  0
 10 11  2  0
  5 12  1  0
 12 13  1  0
 13 14  1  0
 14 15  1  0
 15 16  1  0
 16 17  2  0
 16 18  1  0
 18 19  1  0
 18 20  1  0
 20 21  1  0
 21 22  1  0
 22 23  1  0
 23 24  2  0
 24 25  1  0
 25 26  2  0
 26 27  1  0
 27 28  2  0
 28 29  1  0
 15 30  1  0
 30 31  1  0
 11  6  1  0
 31 12  1  0
 29 21  1  0
 28 23  1  0
  1 32  1  0
  1 33  1  0
  1 34  1  0
  2 35  1  0
  2 36  1  0
  7 37  1  0
  8 38  1  0
  9 39  1  0
 10 40  1  0
 11 41  1  0
 12 42  1  0
 13 43  1  0
 13 44  1  0
 14 45  1  0
 14 46  1  0
 18 47  1  6
 19 48  1  0
 19 49  1  0
 20 50  1  0
 20 51  1  0
 21 52  1  0
 22 53  1  0
 22 54  1  0
 24 55  1  0
 25 56  1  0
 26 57  1  0
 27 58  1  0
 29 59  1  0
 29 60  1  0
 30 61  1  0
 30 62  1  0
 31 63  1  0
 31 64  1  0
M  END
>  <smiles>  (38) 
CCC(=O)N(c1ccccc1)C1CCN(C(=O)[C@@H](N)CC2Cc3ccccc3C2)CC1

>  <score_type>  (38) 
oracle

>  <origin>  (38) 
autodockgpu

>  <m_score__min__energy>  (38) 
-9.3200000000000003

>  <m_primary>  (38) 
energy

>  <rmsd>  (38) 
7.341599931130977

>  <m_score__min__rmsd>  (38) 
7.341599931130977

>  <meeko>  (38) 
{"free_energy": -8.66, "intermolecular_energy": -11.05, "internal_energy": -1.5, "cluster_size": 24, "cluster_id": 1, "rank_in_cluster": 18}

>  <energy>  (38) 
-7.91

>  <cluster_rmsd>  (38) 
0.57

>  <cluster>  (38) 
3

$$$$

     RDKit          3D

 64 67  0  0  0  0  0  0  0  0999 V2000
  142.9100   77.5120  216.9700 C   0  0  0  0  0  0  0  0  0  0  0  0
  142.4220   78.2260  218.2460 C   0  0  0  0  0  0  0  0  0  0  0  0
  142.5370   77.2900  219.4030 C   0  0  0  0  0  0  0  0  0  0  0  0
  143.4530   76.4200  219.2650 O   0  0  0  0  0  0  0  0  0  0  0  0
  141.6990   77.3730  220.5480 N   0  0  0  0  0  0  0  0  0  0  0  0
  141.6800   78.4320  221.4700 C   0  0  0  0  0  0  0  0  0  0  0  0
  141.8850   79.7560  221.1540 C   0  0  0  0  0  0  0  0  0  0  0  0
  141.8650   80.7820  222.0900 C   0  0  0  0  0  0  0  0  0  0  0  0
  141.6320   80.5140  223.4140 C   0  0  0  0  0  0  0  0  0  0  0  0
  141.4240   79.2020  223.7640 C   0  0  0  0  0  0  0  0  0  0  0  0
  141.4440   78.1660  222.8200 C   0  0  0  0  0  0  0  0  0  0  0  0
  140.7910   76.2200  220.7270 C   0  0  0  0  0  0  0  0  0  0  0  0
  141.4590   75.2440  221.6000 C   0  0  0  0  0  0  0  0  0  0  0  0
  141.1430   73.7830  221.3860 C   0  0  0  0  0  0  0  0  0  0  0  0
  139.8370   73.7250  220.7700 N   0  0  0  0  0  0  0  0  0  0  0  0
  138.6550   73.1930  221.3020 C   0  0  0  0  0  0  0  0  0  0  0  0
  137.6180   73.2760  220.5430 O   0  0  0  0  0  0  0  0  0  0  0  0
  138.4270   72.5550  222.5980 C   0  0  1  0  0  0  0  0  0  0  0  0
  137.0740   72.3160  222.9820 N   0  0  0  0  0  0  0  0  0  0  0  0
  139.1480   71.2260  222.7640 C   0  0  0  0  0  0  0  0  0  0  0  0
  139.1400   70.7180  224.1690 C   0  0  0  0  0  0  0  0  0  0  0  0
  140.3140   71.3740  224.9260 C   0  0  0  0  0  0  0  0  0  0  0  0
  140.4970   70.4070  226.0400 C   0  0  0  0  0  0  0  0  0  0  0  0
  141.0110   70.5440  227.3330 C   0  0  0  0  0  0  0  0  0  0  0  0
  141.0470   69.4310  228.1480 C   0  0  0  0  0  0  0  0  0  0  0  0
  140.6010   68.1870  227.7530 C   0  0  0  0  0  0  0  0  0  0  0  0
  140.0900   68.0530  226.4660 C   0  0  0  0  0  0  0  0  0  0  0  0
  140.0510   69.1630  225.6460 C   0  0  0  0  0  0  0  0  0  0  0  0
  139.5520   69.2560  224.2480 C   0  0  0  0  0  0  0  0  0  0  0  0
  139.8050   74.3200  219.4040 C   0  0  0  0  0  0  0  0  0  0  0  0
  140.0840   75.7950  219.5150 C   0  0  0  0  0  0  0  0  0  0  0  0
  143.5105   76.6334  217.2483 H   0  0  0  0  0  0  0  0  0  0  0  0
  142.0424   77.1897  216.3756 H   0  0  0  0  0  0  0  0  0  0  0  0
  143.5254   78.2033  216.3756 H   0  0  0  0  0  0  0  0  0  0  0  0
  143.0411   79.1165  218.4296 H   0  0  0  0  0  0  0  0  0  0  0  0
  141.3734   78.5337  218.1208 H   0  0  0  0  0  0  0  0  0  0  0  0
  142.0751   80.0158  220.1022 H   0  0  0  0  0  0  0  0  0  0  0  0
  142.0377   81.8189  221.7659 H   0  0  0  0  0  0  0  0  0  0  0  0
  141.6124   81.3169  224.1656 H   0  0  0  0  0  0  0  0  0  0  0  0
  141.2356   78.9564  224.8196 H   0  0  0  0  0  0  0  0  0  0  0  0
  141.2715   77.1300  223.1471 H   0  0  0  0  0  0  0  0  0  0  0  0
  139.8782   76.4908  221.2779 H   0  0  0  0  0  0  0  0  0  0  0  0
  142.5434   75.3694  221.4645 H   0  0  0  0  0  0  0  0  0  0  0  0
  141.0807   75.4667  222.6086 H   0  0  0  0  0  0  0  0  0  0  0  0
  141.8942   73.3258  220.7252 H   0  0  0  0  0  0  0  0  0  0  0  0
  141.1554   73.2325  222.3383 H   0  0  0  0  0  0  0  0  0  0  0  0
  138.8383   73.3364  223.2540 H   0  0  0  0  0  0  0  0  0  0  0  0
  136.3570   72.4980  222.2610 H   0  0  0  0  0  0  0  0  0  0  0  0
  136.7830   72.6820  223.8980 H   0  0  0  0  0  0  0  0  0  0  0  0
  138.6575   70.4805  222.1209 H   0  0  0  0  0  0  0  0  0  0  0  0
  140.1991   71.3896  222.4839 H   0  0  0  0  0  0  0  0  0  0  0  0
  138.1287   70.9093  224.5571 H   0  0  0  0  0  0  0  0  0  0  0  0
  141.2139   71.4431  224.2971 H   0  0  0  0  0  0  0  0  0  0  0  0
  140.1294   72.4101  225.2460 H   0  0  0  0  0  0  0  0  0  0  0  0
  141.3783   71.5166  227.6923 H   0  0  0  0  0  0  0  0  0  0  0  0
  141.4521   69.5416  229.1647 H   0  0  0  0  0  0  0  0  0  0  0  0
  140.6480   67.3258  228.4358 H   0  0  0  0  0  0  0  0  0  0  0  0
  139.7234   67.0796  226.1080 H   0  0  0  0  0  0  0  0  0  0  0  0
  140.3448   69.0223  223.5221 H   0  0  0  0  0  0  0  0  0  0  0  0
  138.7428   68.5489  224.0129 H   0  0  0  0  0  0  0  0  0  0  0  0
  140.5716   73.8443  218.7747 H   0  0  0  0  0  0  0  0  0  0  0  0
  138.8176   74.1581  218.9471 H   0  0  0  0  0  0  0  0  0  0  0  0
  140.6932   76.0897  218.6478 H   0  0  0  0  0  0  0  0  0  0  0  0
  139.0993   76.2836  219.5560 H   0  0  0  0  0  0  0  0  0  0  0  0
  1  2  1  0
  2  3  1  0
  3  4  2  0
  3  5  1  0
  5  6  1  0
  6  7  2  0
  7  8  1  0
  8  9  2  0
  9 10  1  0
 10 11  2  0
  5 12  1  0
 12 13  1  0
 13 14  1  0
 14 15  1  0
 15 16  1  0
 16 17  2  0
 16 18  1  0
 18 19  1  0
 18 20  1  0
 20 21  1  0
 21 22  1  0
 22 23  1  0
 23 24  2  0
 24 25  1  0
 25 26  2  0
 26 27  1  0
 27 28  2  0
 28 29  1  0
 15 30  1  0
 30 31  1  0
 11  6  1  0
 31 12  1  0
 29 21  1  0
 28 23  1  0
  1 32  1  0
  1 33  1  0
  1 34  1  0
  2 35  1  0
  2 36  1  0
  7 37  1  0
  8 38  1  0
  9 39  1  0
 10 40  1  0
 11 41  1  0
 12 42  1  0
 13 43  1  0
 13 44  1  0
 14 45  1  0
 14 46  1  0
 18 47  1  1
 19 48  1  0
 19 49  1  0
 20 50  1  0
 20 51  1  0
 21 52  1  0
 22 53  1  0
 22 54  1  0
 24 55  1  0
 25 56  1  0
 26 57  1  0
 27 58  1  0
 29 59  1  0
 29 60  1  0
 30 61  1  0
 30 62  1  0
 31 63  1  0
 31 64  1  0
M  END
>  <smiles>  (39) 
CCC(=O)N(c1ccccc1)C1CCN(C(=O)[C@@H](N)CC2Cc3ccccc3C2)CC1

>  <score_type>  (39) 
oracle

>  <origin>  (39) 
autodockgpu

>  <m_score__min__energy>  (39) 
-9.3200000000000003

>  <m_primary>  (39) 
energy

>  <rmsd>  (39) 
7.015556498836919

>  <m_score__min__rmsd>  (39) 
7.015556498836919

>  <meeko>  (39) 
{"free_energy": -7.91, "intermolecular_energy": -10.29, "internal_energy": -2.05, "cluster_size": 18, "cluster_id": 3, "rank_in_cluster": 10}

>  <energy>  (39) 
-7.91

>  <cluster_rmsd>  (39) 
0.59

>  <cluster>  (39) 
3

$$$$

     RDKit          3D

 64 67  0  0  0  0  0  0  0  0999 V2000
  146.3000   73.0070  221.7360 C   0  0  0  0  0  0  0  0  0  0  0  0
  145.9850   73.8330  220.4740 C   0  0  0  0  0  0  0  0  0  0  0  0
  145.5190   72.9150  219.3920 C   0  0  0  0  0  0  0  0  0  0  0  0
  145.9680   73.2160  218.2420 O   0  0  0  0  0  0  0  0  0  0  0  0
  144.6580   71.8110  219.6350 N   0  0  0  0  0  0  0  0  0  0  0  0
  144.9730   70.4640  219.4000 C   0  0  0  0  0  0  0  0  0  0  0  0
  145.9480   70.0220  218.5340 C   0  0  0  0  0  0  0  0  0  0  0  0
  146.2340   68.6800  218.3180 C   0  0  0  0  0  0  0  0  0  0  0  0
  145.5370   67.7030  218.9800 C   0  0  0  0  0  0  0  0  0  0  0  0
  144.5570   68.1090  219.8520 C   0  0  0  0  0  0  0  0  0  0  0  0
  144.2680   69.4630  220.0710 C   0  0  0  0  0  0  0  0  0  0  0  0
  143.3350   72.1770  220.1860 C   0  0  0  0  0  0  0  0  0  0  0  0
  142.3050   71.4990  219.3850 C   0  0  0  0  0  0  0  0  0  0  0  0
  140.9710   72.1910  219.2330 C   0  0  0  0  0  0  0  0  0  0  0  0
  140.8230   73.0660  220.3730 N   0  0  0  0  0  0  0  0  0  0  0  0
  139.8840   72.9820  221.4090 C   0  0  0  0  0  0  0  0  0  0  0  0
  139.9750   73.8910  222.3170 O   0  0  0  0  0  0  0  0  0  0  0  0
  138.8120   72.0080  221.6110 C   0  0  1  0  0  0  0  0  0  0  0  0
  138.1640   71.4960  220.4480 N   0  0  0  0  0  0  0  0  0  0  0  0
  139.2310   70.7920  222.4240 C   0  0  0  0  0  0  0  0  0  0  0  0
  139.2120   71.0290  223.8990 C   0  0  0  0  0  0  0  0  0  0  0  0
  140.5690   71.6420  224.3060 C   0  0  0  0  0  0  0  0  0  0  0  0
  140.5990   71.3060  225.7540 C   0  0  0  0  0  0  0  0  0  0  0  0
  141.2330   71.9020  226.8480 C   0  0  0  0  0  0  0  0  0  0  0  0
  141.0620   71.3380  228.0960 C   0  0  0  0  0  0  0  0  0  0  0  0
  140.2940   70.2140  228.3200 C   0  0  0  0  0  0  0  0  0  0  0  0
  139.6630   69.6230  227.2300 C   0  0  0  0  0  0  0  0  0  0  0  0
  139.8320   70.1830  225.9800 C   0  0  0  0  0  0  0  0  0  0  0  0
  139.2590   69.7270  224.6850 C   0  0  0  0  0  0  0  0  0  0  0  0
  141.8200   74.1730  220.3960 C   0  0  0  0  0  0  0  0  0  0  0  0
  143.1920   73.5830  220.5740 C   0  0  0  0  0  0  0  0  0  0  0  0
  146.0723   73.6041  222.6313 H   0  0  0  0  0  0  0  0  0  0  0  0
  145.6871   72.0936  221.7388 H   0  0  0  0  0  0  0  0  0  0  0  0
  147.3655   72.7336  221.7388 H   0  0  0  0  0  0  0  0  0  0  0  0
  145.1962   74.5654  220.7007 H   0  0  0  0  0  0  0  0  0  0  0  0
  146.8896   74.3649  220.1442 H   0  0  0  0  0  0  0  0  0  0  0  0
  146.5327   70.7732  217.9828 H   0  0  0  0  0  0  0  0  0  0  0  0
  147.0269   68.3988  217.6093 H   0  0  0  0  0  0  0  0  0  0  0  0
  145.7539   66.6367  218.8192 H   0  0  0  0  0  0  0  0  0  0  0  0
  143.9800   67.3469  220.3964 H   0  0  0  0  0  0  0  0  0  0  0  0
  143.4751   69.7406  220.7811 H   0  0  0  0  0  0  0  0  0  0  0  0
  143.1848   71.7860  221.2031 H   0  0  0  0  0  0  0  0  0  0  0  0
  142.7166   71.3520  218.3756 H   0  0  0  0  0  0  0  0  0  0  0  0
  142.0802   70.5768  219.9409 H   0  0  0  0  0  0  0  0  0  0  0  0
  140.9516   72.7759  218.3016 H   0  0  0  0  0  0  0  0  0  0  0  0
  140.1500   71.4603  219.1868 H   0  0  0  0  0  0  0  0  0  0  0  0
  138.0961   72.6438  222.1525 H   0  0  0  0  0  0  0  0  0  0  0  0
  138.1400   70.4680  220.3550 H   0  0  0  0  0  0  0  0  0  0  0  0
  138.3990   71.9470  219.5530 H   0  0  0  0  0  0  0  0  0  0  0  0
  138.5425   69.9653  222.1948 H   0  0  0  0  0  0  0  0  0  0  0  0
  140.2692   70.5577  222.1462 H   0  0  0  0  0  0  0  0  0  0  0  0
  138.3132   71.6302  224.1007 H   0  0  0  0  0  0  0  0  0  0  0  0
  141.4041   71.1743  223.7639 H   0  0  0  0  0  0  0  0  0  0  0  0
  140.6710   72.7144  224.0836 H   0  0  0  0  0  0  0  0  0  0  0  0
  141.8542   72.8003  226.7172 H   0  0  0  0  0  0  0  0  0  0  0  0
  141.5631   71.8082  228.9550 H   0  0  0  0  0  0  0  0  0  0  0  0
  140.1837   69.7969  229.3319 H   0  0  0  0  0  0  0  0  0  0  0  0
  139.0407   68.7256  227.3621 H   0  0  0  0  0  0  0  0  0  0  0  0
  139.9090   68.9860  224.1967 H   0  0  0  0  0  0  0  0  0  0  0  0
  138.2853   69.2237  224.7778 H   0  0  0  0  0  0  0  0  0  0  0  0
  141.7767   74.7298  219.4483 H   0  0  0  0  0  0  0  0  0  0  0  0
  141.5974   74.8606  221.2252 H   0  0  0  0  0  0  0  0  0  0  0  0
  143.8950   74.1738  219.9684 H   0  0  0  0  0  0  0  0  0  0  0  0
  143.3952   73.6177  221.6545 H   0  0  0  0  0  0  0  0  0  0  0  0
  1  2  1  0
  2  3  1  0
  3  4  2  0
  3  5  1  0
  5  6  1  0
  6  7  2  0
  7  8  1  0
  8  9  2  0
  9 10  1  0
 10 11  2  0
  5 12  1  0
 12 13  1  0
 13 14  1  0
 14 15  1  0
 15 16  1  0
 16 17  2  0
 16 18  1  0
 18 19  1  0
 18 20  1  0
 20 21  1  0
 21 22  1  0
 22 23  1  0
 23 24  2  0
 24 25  1  0
 25 26  2  0
 26 27  1  0
 27 28  2  0
 28 29  1  0
 15 30  1  0
 30 31  1  0
 11  6  1  0
 31 12  1  0
 29 21  1  0
 28 23  1  0
  1 32  1  0
  1 33  1  0
  1 34  1  0
  2 35  1  0
  2 36  1  0
  7 37  1  0
  8 38  1  0
  9 39  1  0
 10 40  1  0
 11 41  1  0
 12 42  1  0
 13 43  1  0
 13 44  1  0
 14 45  1  0
 14 46  1  0
 18 47  1  1
 19 48  1  0
 19 49  1  0
 20 50  1  0
 20 51  1  0
 21 52  1  0
 22 53  1  0
 22 54  1  0
 24 55  1  0
 25 56  1  0
 26 57  1  0
 27 58  1  0
 29 59  1  0
 29 60  1  0
 30 61  1  0
 30 62  1  0
 31 63  1  0
 31 64  1  0
M  END
>  <smiles>  (40) 
CCC(=O)N(c1ccccc1)C1CCN(C(=O)[C@@H](N)CC2Cc3ccccc3C2)CC1

>  <score_type>  (40) 
oracle

>  <origin>  (40) 
autodockgpu

>  <m_score__min__energy>  (40) 
-9.3200000000000003

>  <m_primary>  (40) 
energy

>  <rmsd>  (40) 
7.874644286217352

>  <m_score__min__rmsd>  (40) 
7.874644286217352

>  <meeko>  (40) 
{"free_energy": -8.89, "intermolecular_energy": -11.28, "internal_energy": -1.25, "cluster_size": 4, "cluster_id": 2, "rank_in_cluster": 1}

>  <energy>  (40) 
-7.88

>  <cluster_rmsd>  (40) 
0.73

>  <cluster>  (40) 
3

$$$$

     RDKit          3D

 64 67  0  0  0  0  0  0  0  0999 V2000
  141.4120   77.2340  220.7940 C   0  0  0  0  0  0  0  0  0  0  0  0
  142.5490   77.0090  219.7780 C   0  0  0  0  0  0  0  0  0  0  0  0
  142.3290   75.7090  219.0780 C   0  0  0  0  0  0  0  0  0  0  0  0
  141.9450   75.8380  217.8730 O   0  0  0  0  0  0  0  0  0  0  0  0
  142.5330   74.4510  219.7070 N   0  0  0  0  0  0  0  0  0  0  0  0
  143.7770   73.8320  219.9080 C   0  0  0  0  0  0  0  0  0  0  0  0
  144.1870   72.6680  219.2980 C   0  0  0  0  0  0  0  0  0  0  0  0
  145.4240   72.0760  219.5210 C   0  0  0  0  0  0  0  0  0  0  0  0
  146.3220   72.6430  220.3870 C   0  0  0  0  0  0  0  0  0  0  0  0
  145.9450   73.8060  221.0130 C   0  0  0  0  0  0  0  0  0  0  0  0
  144.6970   74.4040  220.7890 C   0  0  0  0  0  0  0  0  0  0  0  0
  141.2940   73.7890  220.1690 C   0  0  0  0  0  0  0  0  0  0  0  0
  141.6530   72.8400  221.2330 C   0  0  0  0  0  0  0  0  0  0  0  0
  140.8090   71.5950  221.3730 C   0  0  0  0  0  0  0  0  0  0  0  0
  139.5130   71.9050  220.8140 N   0  0  0  0  0  0  0  0  0  0  0  0
  138.2820   71.9810  221.4800 C   0  0  0  0  0  0  0  0  0  0  0  0
  137.2710   72.2880  220.7440 O   0  0  0  0  0  0  0  0  0  0  0  0
  137.9790   71.7630  222.8940 C   0  0  1  0  0  0  0  0  0  0  0  0
  136.7360   72.2640  223.3820 N   0  0  0  0  0  0  0  0  0  0  0  0
  138.0330   70.3020  223.3150 C   0  0  0  0  0  0  0  0  0  0  0  0
  138.3950   70.1120  224.7520 C   0  0  0  0  0  0  0  0  0  0  0  0
  139.5890   71.0350  225.0740 C   0  0  0  0  0  0  0  0  0  0  0  0
  140.1450   70.3570  226.2750 C   0  0  0  0  0  0  0  0  0  0  0  0
  140.8910   70.8230  227.3620 C   0  0  0  0  0  0  0  0  0  0  0  0
  141.2640   69.9220  228.3390 C   0  0  0  0  0  0  0  0  0  0  0  0
  140.9370   68.5830  228.3000 C   0  0  0  0  0  0  0  0  0  0  0  0
  140.1940   68.1210  227.2180 C   0  0  0  0  0  0  0  0  0  0  0  0
  139.8190   69.0170  226.2380 C   0  0  0  0  0  0  0  0  0  0  0  0
  139.0300   68.7530  225.0050 C   0  0  0  0  0  0  0  0  0  0  0  0
  139.5530   72.1690  219.3480 C   0  0  0  0  0  0  0  0  0  0  0  0
  140.3560   73.4180  219.1050 C   0  0  0  0  0  0  0  0  0  0  0  0
  141.8122   77.1548  221.8156 H   0  0  0  0  0  0  0  0  0  0  0  0
  140.9806   78.2349  220.6458 H   0  0  0  0  0  0  0  0  0  0  0  0
  140.6319   76.4728  220.6458 H   0  0  0  0  0  0  0  0  0  0  0  0
  142.5531   77.8271  219.0427 H   0  0  0  0  0  0  0  0  0  0  0  0
  143.5157   76.9883  220.3025 H   0  0  0  0  0  0  0  0  0  0  0  0
  143.4967   72.1793  218.5947 H   0  0  0  0  0  0  0  0  0  0  0  0
  145.6848   71.1441  218.9979 H   0  0  0  0  0  0  0  0  0  0  0  0
  147.3048   72.1854  220.5732 H   0  0  0  0  0  0  0  0  0  0  0  0
  146.6456   74.2841  221.7134 H   0  0  0  0  0  0  0  0  0  0  0  0
  144.4392   75.3357  221.3139 H   0  0  0  0  0  0  0  0  0  0  0  0
  140.6045   74.4920  220.6593 H   0  0  0  0  0  0  0  0  0  0  0  0
  142.6885   72.5169  221.0503 H   0  0  0  0  0  0  0  0  0  0  0  0
  141.4904   73.3947  222.1689 H   0  0  0  0  0  0  0  0  0  0  0  0
  141.2694   70.7613  220.8225 H   0  0  0  0  0  0  0  0  0  0  0  0
  140.7225   71.2929  222.4272 H   0  0  0  0  0  0  0  0  0  0  0  0
  138.7897   72.3559  223.3426 H   0  0  0  0  0  0  0  0  0  0  0  0
  136.0420   72.5370  222.6680 H   0  0  0  0  0  0  0  0  0  0  0  0
  136.7850   72.9590  224.1390 H   0  0  0  0  0  0  0  0  0  0  0  0
  137.0441   69.8525  223.1421 H   0  0  0  0  0  0  0  0  0  0  0  0
  138.8192   69.8199  222.7154 H   0  0  0  0  0  0  0  0  0  0  0  0
  137.4699   70.2758  225.3241 H   0  0  0  0  0  0  0  0  0  0  0  0
  140.3164   71.0596  224.2492 H   0  0  0  0  0  0  0  0  0  0  0  0
  139.3215   72.0908  225.2284 H   0  0  0  0  0  0  0  0  0  0  0  0
  141.1741   71.8833  227.4368 H   0  0  0  0  0  0  0  0  0  0  0  0
  141.8521   70.2910  229.1922 H   0  0  0  0  0  0  0  0  0  0  0  0
  141.2544   67.8996  229.1014 H   0  0  0  0  0  0  0  0  0  0  0  0
  139.9107   67.0606  227.1452 H   0  0  0  0  0  0  0  0  0  0  0  0
  139.6792   68.4515  224.1698 H   0  0  0  0  0  0  0  0  0  0  0  0
  138.3051   67.9317  225.1047 H   0  0  0  0  0  0  0  0  0  0  0  0
  140.0241   71.3196  218.8316 H   0  0  0  0  0  0  0  0  0  0  0  0
  138.5311   72.2993  218.9624 H   0  0  0  0  0  0  0  0  0  0  0  0
  140.9341   73.2733  218.1804 H   0  0  0  0  0  0  0  0  0  0  0  0
  139.6249   74.2381  219.0510 H   0  0  0  0  0  0  0  0  0  0  0  0
  1  2  1  0
  2  3  1  0
  3  4  2  0
  3  5  1  0
  5  6  1  0
  6  7  2  0
  7  8  1  0
  8  9  2  0
  9 10  1  0
 10 11  2  0
  5 12  1  0
 12 13  1  0
 13 14  1  0
 14 15  1  0
 15 16  1  0
 16 17  2  0
 16 18  1  0
 18 19  1  0
 18 20  1  0
 20 21  1  0
 21 22  1  0
 22 23  1  0
 23 24  2  0
 24 25  1  0
 25 26  2  0
 26 27  1  0
 27 28  2  0
 28 29  1  0
 15 30  1  0
 30 31  1  0
 11  6  1  0
 31 12  1  0
 29 21  1  0
 28 23  1  0
  1 32  1  0
  1 33  1  0
  1 34  1  0
  2 35  1  0
  2 36  1  0
  7 37  1  0
  8 38  1  0
  9 39  1  0
 10 40  1  0
 11 41  1  0
 12 42  1  0
 13 43  1  0
 13 44  1  0
 14 45  1  0
 14 46  1  0
 18 47  1  1
 19 48  1  0
 19 49  1  0
 20 50  1  0
 20 51  1  0
 21 52  1  0
 22 53  1  0
 22 54  1  0
 24 55  1  0
 25 56  1  0
 26 57  1  0
 27 58  1  0
 29 59  1  0
 29 60  1  0
 30 61  1  0
 30 62  1  0
 31 63  1  0
 31 64  1  0
M  END
>  <smiles>  (41) 
CCC(=O)N(c1ccccc1)C1CCN(C(=O)[C@@H](N)CC2Cc3ccccc3C2)CC1

>  <score_type>  (41) 
oracle

>  <origin>  (41) 
autodockgpu

>  <m_score__min__energy>  (41) 
-9.3200000000000003

>  <m_primary>  (41) 
energy

>  <rmsd>  (41) 
8.455747510133246

>  <m_score__min__rmsd>  (41) 
8.455747510133246

>  <meeko>  (41) 
{"free_energy": -7.37, "intermolecular_energy": -9.76, "internal_energy": -2.22, "cluster_size": 2, "cluster_id": 5, "rank_in_cluster": 1}

>  <energy>  (41) 
-7.88

>  <cluster_rmsd>  (41) 
0.57

>  <cluster>  (41) 
3

$$$$

     RDKit          3D

 64 67  0  0  0  0  0  0  0  0999 V2000
  142.2180   80.0540  218.7160 C   0  0  0  0  0  0  0  0  0  0  0  0
  141.6660   78.6620  218.3510 C   0  0  0  0  0  0  0  0  0  0  0  0
  142.0630   77.6860  219.4090 C   0  0  0  0  0  0  0  0  0  0  0  0
  143.0810   76.9890  219.1020 O   0  0  0  0  0  0  0  0  0  0  0  0
  141.3650   77.5570  220.6390 N   0  0  0  0  0  0  0  0  0  0  0  0
  141.3620   78.5010  221.6790 C   0  0  0  0  0  0  0  0  0  0  0  0
  142.4380   79.2780  222.0410 C   0  0  0  0  0  0  0  0  0  0  0  0
  142.4060   80.2010  223.0780 C   0  0  0  0  0  0  0  0  0  0  0  0
  141.2640   80.3870  223.8120 C   0  0  0  0  0  0  0  0  0  0  0  0
  140.1700   79.6270  223.4770 C   0  0  0  0  0  0  0  0  0  0  0  0
  140.2010   78.6950  222.4300 C   0  0  0  0  0  0  0  0  0  0  0  0
  140.5910   76.3030  220.7760 C   0  0  0  0  0  0  0  0  0  0  0  0
  141.3840   75.3630  221.5820 C   0  0  0  0  0  0  0  0  0  0  0  0
  141.2220   73.8890  221.2960 C   0  0  0  0  0  0  0  0  0  0  0  0
  139.9140   73.7200  220.7060 N   0  0  0  0  0  0  0  0  0  0  0  0
  138.8110   73.0360  221.2340 C   0  0  0  0  0  0  0  0  0  0  0  0
  137.7510   73.0440  220.5030 O   0  0  0  0  0  0  0  0  0  0  0  0
  138.6890   72.3120  222.4990 C   0  0  1  0  0  0  0  0  0  0  0  0
  137.3740   72.1180  223.0180 N   0  0  0  0  0  0  0  0  0  0  0  0
  139.3390   70.9360  222.4860 C   0  0  0  0  0  0  0  0  0  0  0  0
  140.0130   70.5860  223.7710 C   0  0  0  0  0  0  0  0  0  0  0  0
  138.9880   69.8660  224.6730 C   0  0  0  0  0  0  0  0  0  0  0  0
  139.5980   70.0850  226.0110 C   0  0  0  0  0  0  0  0  0  0  0  0
  139.5240   69.3700  227.2100 C   0  0  0  0  0  0  0  0  0  0  0  0
  140.2230   69.8420  228.3030 C   0  0  0  0  0  0  0  0  0  0  0  0
  140.9930   70.9860  228.2730 C   0  0  0  0  0  0  0  0  0  0  0  0
  141.0660   71.6960  227.0780 C   0  0  0  0  0  0  0  0  0  0  0  0
  140.3680   71.2280  225.9830 C   0  0  0  0  0  0  0  0  0  0  0  0
  140.3000   71.8160  224.6190 C   0  0  0  0  0  0  0  0  0  0  0  0
  139.7810   74.3770  219.3760 C   0  0  0  0  0  0  0  0  0  0  0  0
  139.9010   75.8660  219.5580 C   0  0  0  0  0  0  0  0  0  0  0  0
  142.2588   80.1568  219.8104 H   0  0  0  0  0  0  0  0  0  0  0  0
  143.2295   80.1682  218.2990 H   0  0  0  0  0  0  0  0  0  0  0  0
  141.5597   80.8304  218.2990 H   0  0  0  0  0  0  0  0  0  0  0  0
  140.5689   78.7068  218.2841 H   0  0  0  0  0  0  0  0  0  0  0  0
  142.0754   78.3438  217.3809 H   0  0  0  0  0  0  0  0  0  0  0  0
  143.3757   79.1617  221.4778 H   0  0  0  0  0  0  0  0  0  0  0  0
  143.3060   80.7884  223.3124 H   0  0  0  0  0  0  0  0  0  0  0  0
  141.2249   81.1150  224.6357 H   0  0  0  0  0  0  0  0  0  0  0  0
  139.2390   79.7537  224.0490 H   0  0  0  0  0  0  0  0  0  0  0  0
  139.2994   78.1093  222.1973 H   0  0  0  0  0  0  0  0  0  0  0  0
  139.6694   76.4431  221.3600 H   0  0  0  0  0  0  0  0  0  0  0  0
  142.4445   75.6131  221.4311 H   0  0  0  0  0  0  0  0  0  0  0  0
  141.0113   75.4914  222.6089 H   0  0  0  0  0  0  0  0  0  0  0  0
  142.0000   73.5513  220.5955 H   0  0  0  0  0  0  0  0  0  0  0  0
  141.3196   73.2950  222.2167 H   0  0  0  0  0  0  0  0  0  0  0  0
  139.2196   73.0158  223.1571 H   0  0  0  0  0  0  0  0  0  0  0  0
  136.6000   72.2000  222.3410 H   0  0  0  0  0  0  0  0  0  0  0  0
  137.1520   72.5980  223.9000 H   0  0  0  0  0  0  0  0  0  0  0  0
  138.5610   70.1849  222.2846 H   0  0  0  0  0  0  0  0  0  0  0  0
  140.1148   70.9510  221.7063 H   0  0  0  0  0  0  0  0  0  0  0  0
  140.9176   70.0233  223.4969 H   0  0  0  0  0  0  0  0  0  0  0  0
  137.9914   70.3260  224.6015 H   0  0  0  0  0  0  0  0  0  0  0  0
  138.8158   68.8103  224.4166 H   0  0  0  0  0  0  0  0  0  0  0  0
  138.9223   68.4519  227.2810 H   0  0  0  0  0  0  0  0  0  0  0  0
  140.1629   69.2774  229.2451 H   0  0  0  0  0  0  0  0  0  0  0  0
  141.5339   71.3275  229.1679 H   0  0  0  0  0  0  0  0  0  0  0  0
  141.6689   72.6133  227.0075 H   0  0  0  0  0  0  0  0  0  0  0  0
  139.4898   72.5559  224.5405 H   0  0  0  0  0  0  0  0  0  0  0  0
  141.2064   72.3636  224.3216 H   0  0  0  0  0  0  0  0  0  0  0  0
  140.5775   74.0208  218.7061 H   0  0  0  0  0  0  0  0  0  0  0  0
  138.8044   74.1315  218.9332 H   0  0  0  0  0  0  0  0  0  0  0  0
  140.4508   76.2690  218.6947 H   0  0  0  0  0  0  0  0  0  0  0  0
  138.8709   76.2420  219.6450 H   0  0  0  0  0  0  0  0  0  0  0  0
  1  2  1  0
  2  3  1  0
  3  4  2  0
  3  5  1  0
  5  6  1  0
  6  7  2  0
  7  8  1  0
  8  9  2  0
  9 10  1  0
 10 11  2  0
  5 12  1  0
 12 13  1  0
 13 14  1  0
 14 15  1  0
 15 16  1  0
 16 17  2  0
 16 18  1  0
 18 19  1  0
 18 20  1  0
 20 21  1  0
 21 22  1  0
 22 23  1  0
 23 24  2  0
 24 25  1  0
 25 26  2  0
 26 27  1  0
 27 28  2  0
 28 29  1  0
 15 30  1  0
 30 31  1  0
 11  6  1  0
 31 12  1  0
 29 21  1  0
 28 23  1  0
  1 32  1  0
  1 33  1  0
  1 34  1  0
  2 35  1  0
  2 36  1  0
  7 37  1  0
  8 38  1  0
  9 39  1  0
 10 40  1  0
 11 41  1  0
 12 42  1  0
 13 43  1  0
 13 44  1  0
 14 45  1  0
 14 46  1  0
 18 47  1  1
 19 48  1  0
 19 49  1  0
 20 50  1  0
 20 51  1  0
 21 52  1  0
 22 53  1  0
 22 54  1  0
 24 55  1  0
 25 56  1  0
 26 57  1  0
 27 58  1  0
 29 59  1  0
 29 60  1  0
 30 61  1  0
 30 62  1  0
 31 63  1  0
 31 64  1  0
M  END
>  <smiles>  (42) 
CCC(=O)N(c1ccccc1)C1CCN(C(=O)[C@@H](N)CC2Cc3ccccc3C2)CC1

>  <score_type>  (42) 
oracle

>  <origin>  (42) 
autodockgpu

>  <m_score__min__energy>  (42) 
-9.3200000000000003

>  <m_primary>  (42) 
energy

>  <rmsd>  (42) 
6.852486093659404

>  <m_score__min__rmsd>  (42) 
6.852486093659404

>  <meeko>  (42) 
{"free_energy": -7.88, "intermolecular_energy": -10.27, "internal_energy": -2.21, "cluster_size": 18, "cluster_id": 3, "rank_in_cluster": 12}

>  <energy>  (42) 
-7.86

>  <cluster_rmsd>  (42) 
0.95

>  <cluster>  (42) 
3

$$$$

     RDKit          3D

 64 67  0  0  0  0  0  0  0  0999 V2000
  136.3790   69.6560  225.0380 C   0  0  0  0  0  0  0  0  0  0  0  0
  136.8680   68.9350  223.7660 C   0  0  0  0  0  0  0  0  0  0  0  0
  138.3570   69.0150  223.7010 C   0  0  0  0  0  0  0  0  0  0  0  0
  138.8810   68.1400  222.9420 O   0  0  0  0  0  0  0  0  0  0  0  0
  139.1100   69.9800  224.4230 N   0  0  0  0  0  0  0  0  0  0  0  0
  139.6380   69.8060  225.7120 C   0  0  0  0  0  0  0  0  0  0  0  0
  139.6640   68.6130  226.3980 C   0  0  0  0  0  0  0  0  0  0  0  0
  140.1910   68.4720  227.6760 C   0  0  0  0  0  0  0  0  0  0  0  0
  140.7250   69.5490  228.3330 C   0  0  0  0  0  0  0  0  0  0  0  0
  140.7150   70.7550  227.6770 C   0  0  0  0  0  0  0  0  0  0  0  0
  140.1850   70.8990  226.3870 C   0  0  0  0  0  0  0  0  0  0  0  0
  139.3240   71.2540  223.7010 C   0  0  0  0  0  0  0  0  0  0  0  0
  138.1680   71.4800  222.8220 C   0  0  0  0  0  0  0  0  0  0  0  0
  138.4080   72.2280  221.5310 C   0  0  0  0  0  0  0  0  0  0  0  0
  139.5840   73.0420  221.7340 N   0  0  0  0  0  0  0  0  0  0  0  0
  139.6720   74.4400  221.7570 C   0  0  0  0  0  0  0  0  0  0  0  0
  140.8490   74.9190  221.9670 O   0  0  0  0  0  0  0  0  0  0  0  0
  138.6180   75.4380  221.5770 C   0  0  1  0  0  0  0  0  0  0  0  0
  137.7970   75.7350  222.7050 N   0  0  0  0  0  0  0  0  0  0  0  0
  139.1220   76.7780  221.0630 C   0  0  0  0  0  0  0  0  0  0  0  0
  139.9290   77.5330  222.0670 C   0  0  0  0  0  0  0  0  0  0  0  0
  139.3680   78.9690  222.1560 C   0  0  0  0  0  0  0  0  0  0  0  0
  140.5410   79.6890  222.7180 C   0  0  0  0  0  0  0  0  0  0  0  0
  140.6560   80.8510  223.4860 C   0  0  0  0  0  0  0  0  0  0  0  0
  141.9160   81.2710  223.8600 C   0  0  0  0  0  0  0  0  0  0  0  0
  143.0720   80.6020  223.5150 C   0  0  0  0  0  0  0  0  0  0  0  0
  142.9550   79.4450  222.7500 C   0  0  0  0  0  0  0  0  0  0  0  0
  141.6970   79.0200  222.3740 C   0  0  0  0  0  0  0  0  0  0  0  0
  141.3350   77.8250  221.5660 C   0  0  0  0  0  0  0  0  0  0  0  0
  140.8240   72.2420  221.9400 C   0  0  0  0  0  0  0  0  0  0  0  0
  140.6940   71.4740  223.2280 C   0  0  0  0  0  0  0  0  0  0  0  0
  136.7430   69.1193  225.9265 H   0  0  0  0  0  0  0  0  0  0  0  0
  136.7659   70.6857  225.0475 H   0  0  0  0  0  0  0  0  0  0  0  0
  135.2792   69.6774  225.0475 H   0  0  0  0  0  0  0  0  0  0  0  0
  136.5568   67.8804  223.7977 H   0  0  0  0  0  0  0  0  0  0  0  0
  136.4320   69.4148  222.8773 H   0  0  0  0  0  0  0  0  0  0  0  0
  139.2445   67.7222  225.9076 H   0  0  0  0  0  0  0  0  0  0  0  0
  140.1793   67.4866  228.1646 H   0  0  0  0  0  0  0  0  0  0  0  0
  141.1448   69.4515  229.3451 H   0  0  0  0  0  0  0  0  0  0  0  0
  141.1368   71.6376  228.1802 H   0  0  0  0  0  0  0  0  0  0  0  0
  140.2003   71.8855  225.9006 H   0  0  0  0  0  0  0  0  0  0  0  0
  139.3187   72.1225  224.3760 H   0  0  0  0  0  0  0  0  0  0  0  0
  137.7559   70.4944  222.5599 H   0  0  0  0  0  0  0  0  0  0  0  0
  137.4980   72.1313  223.4025 H   0  0  0  0  0  0  0  0  0  0  0  0
  138.5760   71.5183  220.7075 H   0  0  0  0  0  0  0  0  0  0  0  0
  137.5390   72.8482  221.2662 H   0  0  0  0  0  0  0  0  0  0  0  0
  138.0022   74.9121  220.8325 H   0  0  0  0  0  0  0  0  0  0  0  0
  137.9020   76.6800  223.1080 H   0  0  0  0  0  0  0  0  0  0  0  0
  137.7480   75.0180  223.4410 H   0  0  0  0  0  0  0  0  0  0  0  0
  139.7480   76.5983  220.1765 H   0  0  0  0  0  0  0  0  0  0  0  0
  138.2379   77.3899  220.8307 H   0  0  0  0  0  0  0  0  0  0  0  0
  139.9088   76.9319  222.9880 H   0  0  0  0  0  0  0  0  0  0  0  0
  139.0904   79.3578  221.1652 H   0  0  0  0  0  0  0  0  0  0  0  0
  138.4470   79.0633  222.7500 H   0  0  0  0  0  0  0  0  0  0  0  0
  139.7622   81.4179  223.7855 H   0  0  0  0  0  0  0  0  0  0  0  0
  142.0031   82.1861  224.4642 H   0  0  0  0  0  0  0  0  0  0  0  0
  144.0573   80.9720  223.8350 H   0  0  0  0  0  0  0  0  0  0  0  0
  143.8496   78.8793  222.4504 H   0  0  0  0  0  0  0  0  0  0  0  0
  141.3388   78.0518  220.4896 H   0  0  0  0  0  0  0  0  0  0  0  0
  142.0334   76.9822  221.6750 H   0  0  0  0  0  0  0  0  0  0  0  0
  140.9557   71.5409  221.1026 H   0  0  0  0  0  0  0  0  0  0  0  0
  141.6971   72.9094  221.9879 H   0  0  0  0  0  0  0  0  0  0  0  0
  141.1639   70.4899  223.0837 H   0  0  0  0  0  0  0  0  0  0  0  0
  141.1810   72.0923  223.9964 H   0  0  0  0  0  0  0  0  0  0  0  0
  1  2  1  0
  2  3  1  0
  3  4  2  0
  3  5  1  0
  5  6  1  0
  6  7  2  0
  7  8  1  0
  8  9  2  0
  9 10  1  0
 10 11  2  0
  5 12  1  0
 12 13  1  0
 13 14  1  0
 14 15  1  0
 15 16  1  0
 16 17  2  0
 16 18  1  0
 18 19  1  0
 18 20  1  0
 20 21  1  0
 21 22  1  0
 22 23  1  0
 23 24  2  0
 24 25  1  0
 25 26  2  0
 26 27  1  0
 27 28  2  0
 28 29  1  0
 15 30  1  0
 30 31  1  0
 11  6  1  0
 31 12  1  0
 29 21  1  0
 28 23  1  0
  1 32  1  0
  1 33  1  0
  1 34  1  0
  2 35  1  0
  2 36  1  0
  7 37  1  0
  8 38  1  0
  9 39  1  0
 10 40  1  0
 11 41  1  0
 12 42  1  0
 13 43  1  0
 13 44  1  0
 14 45  1  0
 14 46  1  0
 18 47  1  6
 19 48  1  0
 19 49  1  0
 20 50  1  0
 20 51  1  0
 21 52  1  0
 22 53  1  0
 22 54  1  0
 24 55  1  0
 25 56  1  0
 26 57  1  0
 27 58  1  0
 29 59  1  0
 29 60  1  0
 30 61  1  0
 30 62  1  0
 31 63  1  0
 31 64  1  0
M  END
>  <smiles>  (43) 
CCC(=O)N(c1ccccc1)C1CCN(C(=O)[C@@H](N)CC2Cc3ccccc3C2)CC1

>  <score_type>  (43) 
oracle

>  <origin>  (43) 
autodockgpu

>  <m_score__min__energy>  (43) 
-9.3200000000000003

>  <m_primary>  (43) 
energy

>  <rmsd>  (43) 
7.0239480896874875

>  <m_score__min__rmsd>  (43) 
7.0239480896874875

>  <meeko>  (43) 
{"free_energy": -9.05, "intermolecular_energy": -11.44, "internal_energy": -1.41, "cluster_size": 24, "cluster_id": 1, "rank_in_cluster": 9}

>  <energy>  (43) 
-7.85

>  <cluster_rmsd>  (43) 
0.85

>  <cluster>  (43) 
3

$$$$

     RDKit          3D

 64 67  0  0  0  0  0  0  0  0999 V2000
  138.2920   68.4740  221.6910 C   0  0  0  0  0  0  0  0  0  0  0  0
  138.4810   67.9260  223.1190 C   0  0  0  0  0  0  0  0  0  0  0  0
  138.0630   68.9680  224.1020 C   0  0  0  0  0  0  0  0  0  0  0  0
  136.8160   68.9620  224.3510 O   0  0  0  0  0  0  0  0  0  0  0  0
  138.9790   69.8770  224.6980 N   0  0  0  0  0  0  0  0  0  0  0  0
  139.6700   69.6650  225.9020 C   0  0  0  0  0  0  0  0  0  0  0  0
  139.8870   68.4350  226.4810 C   0  0  0  0  0  0  0  0  0  0  0  0
  140.5710   68.2580  227.6770 C   0  0  0  0  0  0  0  0  0  0  0  0
  141.0780   69.3350  228.3560 C   0  0  0  0  0  0  0  0  0  0  0  0
  140.8790   70.5770  227.8070 C   0  0  0  0  0  0  0  0  0  0  0  0
  140.1890   70.7570  226.6000 C   0  0  0  0  0  0  0  0  0  0  0  0
  139.1820   71.1290  223.9380 C   0  0  0  0  0  0  0  0  0  0  0  0
  137.9440   71.4220  223.2020 C   0  0  0  0  0  0  0  0  0  0  0  0
  138.0710   72.1450  221.8820 C   0  0  0  0  0  0  0  0  0  0  0  0
  139.3110   72.8850  221.9290 N   0  0  0  0  0  0  0  0  0  0  0  0
  139.4860   74.2750  221.9220 C   0  0  0  0  0  0  0  0  0  0  0  0
  140.7070   74.6800  221.9820 O   0  0  0  0  0  0  0  0  0  0  0  0
  138.4810   75.3350  221.8560 C   0  0  1  0  0  0  0  0  0  0  0  0
  137.8190   75.6860  223.0700 N   0  0  0  0  0  0  0  0  0  0  0  0
  139.0020   76.6410  221.2740 C   0  0  0  0  0  0  0  0  0  0  0  0
  139.8470   77.4210  222.2270 C   0  0  0  0  0  0  0  0  0  0  0  0
  139.2620   78.8460  222.3340 C   0  0  0  0  0  0  0  0  0  0  0  0
  140.4490   79.5940  222.8260 C   0  0  0  0  0  0  0  0  0  0  0  0
  140.5810   80.7650  223.5780 C   0  0  0  0  0  0  0  0  0  0  0  0
  141.8510   81.2140  223.8800 C   0  0  0  0  0  0  0  0  0  0  0  0
  143.0000   80.5650  223.4770 C   0  0  0  0  0  0  0  0  0  0  0  0
  142.8660   79.3990  222.7300 C   0  0  0  0  0  0  0  0  0  0  0  0
  141.5980   78.9460  222.4250 C   0  0  0  0  0  0  0  0  0  0  0  0
  141.2180   77.7360  221.6480 C   0  0  0  0  0  0  0  0  0  0  0  0
  140.5150   72.0100  221.9960 C   0  0  0  0  0  0  0  0  0  0  0  0
  140.4950   71.2600  223.3000 C   0  0  0  0  0  0  0  0  0  0  0  0
  137.9337   69.5128  221.7413 H   0  0  0  0  0  0  0  0  0  0  0  0
  139.2528   68.4430  221.1562 H   0  0  0  0  0  0  0  0  0  0  0  0
  137.5546   67.8573  221.1562 H   0  0  0  0  0  0  0  0  0  0  0  0
  137.8638   67.0253  223.2524 H   0  0  0  0  0  0  0  0  0  0  0  0
  139.5382   67.6682  223.2798 H   0  0  0  0  0  0  0  0  0  0  0  0
  139.4973   67.5432  225.9683 H   0  0  0  0  0  0  0  0  0  0  0  0
  140.7069   67.2446  228.0826 H   0  0  0  0  0  0  0  0  0  0  0  0
  141.6228   69.2090  229.3033 H   0  0  0  0  0  0  0  0  0  0  0  0
  141.2737   71.4599  228.3311 H   0  0  0  0  0  0  0  0  0  0  0  0
  140.0548   71.7719  226.1977 H   0  0  0  0  0  0  0  0  0  0  0  0
  139.3128   72.0001  224.5969 H   0  0  0  0  0  0  0  0  0  0  0  0
  137.4430   70.4627  223.0052 H   0  0  0  0  0  0  0  0  0  0  0  0
  137.3911   72.1179  223.8502 H   0  0  0  0  0  0  0  0  0  0  0  0
  138.0933   71.4209  221.0542 H   0  0  0  0  0  0  0  0  0  0  0  0
  137.2162   72.8172  221.7163 H   0  0  0  0  0  0  0  0  0  0  0  0
  137.7516   74.8459  221.1936 H   0  0  0  0  0  0  0  0  0  0  0  0
  138.4230   76.0030  223.8440 H   0  0  0  0  0  0  0  0  0  0  0  0
  137.0940   75.0370  223.4040 H   0  0  0  0  0  0  0  0  0  0  0  0
  139.6043   76.4097  220.3831 H   0  0  0  0  0  0  0  0  0  0  0  0
  138.1259   77.2616  221.0347 H   0  0  0  0  0  0  0  0  0  0  0  0
  139.8893   76.8284  223.1528 H   0  0  0  0  0  0  0  0  0  0  0  0
  138.9237   79.2199  221.3564 H   0  0  0  0  0  0  0  0  0  0  0  0
  138.3722   78.9277  222.9756 H   0  0  0  0  0  0  0  0  0  0  0  0
  139.6931   81.3161  223.9213 H   0  0  0  0  0  0  0  0  0  0  0  0
  141.9521   82.1357  224.4718 H   0  0  0  0  0  0  0  0  0  0  0  0
  143.9934   80.9582  223.7388 H   0  0  0  0  0  0  0  0  0  0  0  0
  143.7545   78.8478  222.3884 H   0  0  0  0  0  0  0  0  0  0  0  0
  141.1592   77.9522  220.5711 H   0  0  0  0  0  0  0  0  0  0  0  0
  141.9385   76.9085  221.7263 H   0  0  0  0  0  0  0  0  0  0  0  0
  140.5012   71.2968  221.1587 H   0  0  0  0  0  0  0  0  0  0  0  0
  141.4268   72.6218  221.9298 H   0  0  0  0  0  0  0  0  0  0  0  0
  140.8826   70.2476  223.1135 H   0  0  0  0  0  0  0  0  0  0  0  0
  141.1085   71.8516  223.9955 H   0  0  0  0  0  0  0  0  0  0  0  0
  1  2  1  0
  2  3  1  0
  3  4  2  0
  3  5  1  0
  5  6  1  0
  6  7  2  0
  7  8  1  0
  8  9  2  0
  9 10  1  0
 10 11  2  0
  5 12  1  0
 12 13  1  0
 13 14  1  0
 14 15  1  0
 15 16  1  0
 16 17  2  0
 16 18  1  0
 18 19  1  0
 18 20  1  0
 20 21  1  0
 21 22  1  0
 22 23  1  0
 23 24  2  0
 24 25  1  0
 25 26  2  0
 26 27  1  0
 27 28  2  0
 28 29  1  0
 15 30  1  0
 30 31  1  0
 11  6  1  0
 31 12  1  0
 29 21  1  0
 28 23  1  0
  1 32  1  0
  1 33  1  0
  1 34  1  0
  2 35  1  0
  2 36  1  0
  7 37  1  0
  8 38  1  0
  9 39  1  0
 10 40  1  0
 11 41  1  0
 12 42  1  0
 13 43  1  0
 13 44  1  0
 14 45  1  0
 14 46  1  0
 18 47  1  6
 19 48  1  0
 19 49  1  0
 20 50  1  0
 20 51  1  0
 21 52  1  0
 22 53  1  0
 22 54  1  0
 24 55  1  0
 25 56  1  0
 26 57  1  0
 27 58  1  0
 29 59  1  0
 29 60  1  0
 30 61  1  0
 30 62  1  0
 31 63  1  0
 31 64  1  0
M  END
>  <smiles>  (44) 
CCC(=O)N(c1ccccc1)C1CCN(C(=O)[C@@H](N)CC2Cc3ccccc3C2)CC1

>  <score_type>  (44) 
oracle

>  <origin>  (44) 
autodockgpu

>  <m_score__min__energy>  (44) 
-9.3200000000000003

>  <m_primary>  (44) 
energy

>  <rmsd>  (44) 
7.186513899024067

>  <m_score__min__rmsd>  (44) 
7.186513899024067

>  <meeko>  (44) 
{"free_energy": -9.32, "intermolecular_energy": -11.71, "internal_energy": -1.6, "cluster_size": 24, "cluster_id": 1, "rank_in_cluster": 1}

>  <energy>  (44) 
-7.84

>  <cluster_rmsd>  (44) 
0.89

>  <cluster>  (44) 
3

$$$$

     RDKit          3D

 64 67  0  0  0  0  0  0  0  0999 V2000
  142.5400   78.9850  218.1410 C   0  0  0  0  0  0  0  0  0  0  0  0
  142.1990   77.4870  218.2660 C   0  0  0  0  0  0  0  0  0  0  0  0
  142.5280   77.0250  219.6470 C   0  0  0  0  0  0  0  0  0  0  0  0
  143.6640   76.4620  219.7380 O   0  0  0  0  0  0  0  0  0  0  0  0
  141.6490   77.2030  220.7490 N   0  0  0  0  0  0  0  0  0  0  0  0
  141.6330   78.3140  221.6080 C   0  0  0  0  0  0  0  0  0  0  0  0
  141.8160   79.6190  221.2120 C   0  0  0  0  0  0  0  0  0  0  0  0
  141.7990   80.6980  222.0870 C   0  0  0  0  0  0  0  0  0  0  0  0
  141.5920   80.5050  223.4280 C   0  0  0  0  0  0  0  0  0  0  0  0
  141.4050   79.2150  223.8570 C   0  0  0  0  0  0  0  0  0  0  0  0
  141.4220   78.1250  222.9750 C   0  0  0  0  0  0  0  0  0  0  0  0
  140.6930   76.0940  220.9560 C   0  0  0  0  0  0  0  0  0  0  0  0
  141.4450   74.9260  221.4370 C   0  0  0  0  0  0  0  0  0  0  0  0
  140.9290   73.5580  221.0600 C   0  0  0  0  0  0  0  0  0  0  0  0
  139.5130   73.7020  220.8090 N   0  0  0  0  0  0  0  0  0  0  0  0
  138.4480   73.1470  221.5320 C   0  0  0  0  0  0  0  0  0  0  0  0
  137.2710   73.4410  221.1010 O   0  0  0  0  0  0  0  0  0  0  0  0
  138.4800   72.2800  222.7100 C   0  0  1  0  0  0  0  0  0  0  0  0
  137.2340   71.9840  223.3390 N   0  0  0  0  0  0  0  0  0  0  0  0
  139.1530   70.9380  222.4670 C   0  0  0  0  0  0  0  0  0  0  0  0
  139.9380   70.4460  223.6380 C   0  0  0  0  0  0  0  0  0  0  0  0
  139.0800   69.4070  224.3920 C   0  0  0  0  0  0  0  0  0  0  0  0
  139.7180   69.4450  225.7340 C   0  0  0  0  0  0  0  0  0  0  0  0
  139.8150   68.5010  226.7610 C   0  0  0  0  0  0  0  0  0  0  0  0
  140.4900   68.8480  227.9130 C   0  0  0  0  0  0  0  0  0  0  0  0
  141.0770   70.0810  228.1060 C   0  0  0  0  0  0  0  0  0  0  0  0
  140.9800   71.0200  227.0830 C   0  0  0  0  0  0  0  0  0  0  0  0
  140.3060   70.6780  225.9280 C   0  0  0  0  0  0  0  0  0  0  0  0
  140.0800   71.5100  224.7160 C   0  0  0  0  0  0  0  0  0  0  0  0
  139.2090   74.5570  219.6280 C   0  0  0  0  0  0  0  0  0  0  0  0
  139.6660   75.9610  219.9180 C   0  0  0  0  0  0  0  0  0  0  0  0
  142.6398   79.4233  219.1449 H   0  0  0  0  0  0  0  0  0  0  0  0
  143.4875   79.1010  217.5944 H   0  0  0  0  0  0  0  0  0  0  0  0
  141.7360   79.4997  217.5944 H   0  0  0  0  0  0  0  0  0  0  0  0
  141.1267   77.3359  218.0726 H   0  0  0  0  0  0  0  0  0  0  0  0
  142.7837   76.9113  217.5334 H   0  0  0  0  0  0  0  0  0  0  0  0
  141.9851   79.8190  220.1436 H   0  0  0  0  0  0  0  0  0  0  0  0
  141.9530   81.7161  221.7001 H   0  0  0  0  0  0  0  0  0  0  0  0
  141.5764   81.3501  224.1320 H   0  0  0  0  0  0  0  0  0  0  0  0
  141.2362   79.0299  224.9281 H   0  0  0  0  0  0  0  0  0  0  0  0
  141.2671   77.1082  223.3651 H   0  0  0  0  0  0  0  0  0  0  0  0
  139.9803   76.3047  221.7670 H   0  0  0  0  0  0  0  0  0  0  0  0
  142.4696   75.0105  221.0457 H   0  0  0  0  0  0  0  0  0  0  0  0
  141.3532   74.9668  222.5324 H   0  0  0  0  0  0  0  0  0  0  0  0
  141.4394   73.1966  220.1551 H   0  0  0  0  0  0  0  0  0  0  0  0
  141.1161   72.8298  221.8630 H   0  0  0  0  0  0  0  0  0  0  0  0
  139.0640   72.9216  223.3863 H   0  0  0  0  0  0  0  0  0  0  0  0
  136.3860   72.1760  222.7840 H   0  0  0  0  0  0  0  0  0  0  0  0
  137.1230   72.2990  224.3120 H   0  0  0  0  0  0  0  0  0  0  0  0
  138.3758   70.1959  222.2320 H   0  0  0  0  0  0  0  0  0  0  0  0
  139.8614   71.0763  221.6369 H   0  0  0  0  0  0  0  0  0  0  0  0
  140.9012   70.0989  223.2357 H   0  0  0  0  0  0  0  0  0  0  0  0
  138.0234   69.7096  224.4368 H   0  0  0  0  0  0  0  0  0  0  0  0
  139.0551   68.4108  223.9262 H   0  0  0  0  0  0  0  0  0  0  0  0
  139.3632   67.5039  226.6528 H   0  0  0  0  0  0  0  0  0  0  0  0
  140.5638   68.1030  228.7190 H   0  0  0  0  0  0  0  0  0  0  0  0
  141.6065   70.3156  229.0412 H   0  0  0  0  0  0  0  0  0  0  0  0
  141.4323   72.0166  227.1930 H   0  0  0  0  0  0  0  0  0  0  0  0
  139.1647   72.1132  224.8079 H   0  0  0  0  0  0  0  0  0  0  0  0
  140.8772   72.2423  224.5203 H   0  0  0  0  0  0  0  0  0  0  0  0
  139.7388   74.1703  218.7450 H   0  0  0  0  0  0  0  0  0  0  0  0
  138.1274   74.5488  219.4281 H   0  0  0  0  0  0  0  0  0  0  0  0
  140.0703   76.3840  218.9865 H   0  0  0  0  0  0  0  0  0  0  0  0
  138.7817   76.4908  220.3017 H   0  0  0  0  0  0  0  0  0  0  0  0
  1  2  1  0
  2  3  1  0
  3  4  2  0
  3  5  1  0
  5  6  1  0
  6  7  2  0
  7  8  1  0
  8  9  2  0
  9 10  1  0
 10 11  2  0
  5 12  1  0
 12 13  1  0
 13 14  1  0
 14 15  1  0
 15 16  1  0
 16 17  2  0
 16 18  1  0
 18 19  1  0
 18 20  1  0
 20 21  1  0
 21 22  1  0
 22 23  1  0
 23 24  2  0
 24 25  1  0
 25 26  2  0
 26 27  1  0
 27 28  2  0
 28 29  1  0
 15 30  1  0
 30 31  1  0
 11  6  1  0
 31 12  1  0
 29 21  1  0
 28 23  1  0
  1 32  1  0
  1 33  1  0
  1 34  1  0
  2 35  1  0
  2 36  1  0
  7 37  1  0
  8 38  1  0
  9 39  1  0
 10 40  1  0
 11 41  1  0
 12 42  1  0
 13 43  1  0
 13 44  1  0
 14 45  1  0
 14 46  1  0
 18 47  1  1
 19 48  1  0
 19 49  1  0
 20 50  1  0
 20 51  1  0
 21 52  1  0
 22 53  1  0
 22 54  1  0
 24 55  1  0
 25 56  1  0
 26 57  1  0
 27 58  1  0
 29 59  1  0
 29 60  1  0
 30 61  1  0
 30 62  1  0
 31 63  1  0
 31 64  1  0
M  END
>  <smiles>  (45) 
CCC(=O)N(c1ccccc1)C1CCN(C(=O)[C@@H](N)CC2Cc3ccccc3C2)CC1

>  <score_type>  (45) 
oracle

>  <origin>  (45) 
autodockgpu

>  <m_score__min__energy>  (45) 
-9.3200000000000003

>  <m_primary>  (45) 
energy

>  <rmsd>  (45) 
6.945608100928507

>  <m_score__min__rmsd>  (45) 
6.945608100928507

>  <meeko>  (45) 
{"free_energy": -8.08, "intermolecular_energy": -10.46, "internal_energy": -2.21, "cluster_size": 18, "cluster_id": 3, "rank_in_cluster": 4}

>  <energy>  (45) 
-7.78

>  <cluster_rmsd>  (45) 
1.03

>  <cluster>  (45) 
3

$$$$

     RDKit          3D

 64 67  0  0  0  0  0  0  0  0999 V2000
  141.6790   78.1660  220.8930 C   0  0  0  0  0  0  0  0  0  0  0  0
  141.2610   76.6880  220.7650 C   0  0  0  0  0  0  0  0  0  0  0  0
  142.3570   75.9280  220.0950 C   0  0  0  0  0  0  0  0  0  0  0  0
  143.1060   76.6510  219.3650 O   0  0  0  0  0  0  0  0  0  0  0  0
  142.5400   74.5290  220.2640 N   0  0  0  0  0  0  0  0  0  0  0  0
  143.7720   73.8570  220.2280 C   0  0  0  0  0  0  0  0  0  0  0  0
  143.9900   72.6410  219.6220 C   0  0  0  0  0  0  0  0  0  0  0  0
  145.2210   71.9970  219.6070 C   0  0  0  0  0  0  0  0  0  0  0  0
  146.3110   72.5640  220.2150 C   0  0  0  0  0  0  0  0  0  0  0  0
  146.1290   73.7780  220.8300 C   0  0  0  0  0  0  0  0  0  0  0  0
  144.8870   74.4280  220.8450 C   0  0  0  0  0  0  0  0  0  0  0  0
  141.2910   73.7720  220.4960 C   0  0  0  0  0  0  0  0  0  0  0  0
  141.5330   72.8150  221.5860 C   0  0  0  0  0  0  0  0  0  0  0  0
  140.7680   71.5130  221.5560 C   0  0  0  0  0  0  0  0  0  0  0  0
  139.5650   71.7540  220.7930 N   0  0  0  0  0  0  0  0  0  0  0  0
  138.2390   71.7270  221.2420 C   0  0  0  0  0  0  0  0  0  0  0  0
  137.3450   71.9890  220.3530 O   0  0  0  0  0  0  0  0  0  0  0  0
  137.7190   71.4440  222.5800 C   0  0  1  0  0  0  0  0  0  0  0  0
  136.3070   71.5300  222.7660 N   0  0  0  0  0  0  0  0  0  0  0  0
  138.1290   70.0830  223.1230 C   0  0  0  0  0  0  0  0  0  0  0  0
  138.4350   70.0940  224.5850 C   0  0  0  0  0  0  0  0  0  0  0  0
  139.5540   71.1280  224.8350 C   0  0  0  0  0  0  0  0  0  0  0  0
  140.0930   70.6400  226.1320 C   0  0  0  0  0  0  0  0  0  0  0  0
  140.7580   71.2840  227.1790 C   0  0  0  0  0  0  0  0  0  0  0  0
  141.1400   70.5370  228.2750 C   0  0  0  0  0  0  0  0  0  0  0  0
  140.8980   69.1840  228.3910 C   0  0  0  0  0  0  0  0  0  0  0  0
  140.2360   68.5440  227.3470 C   0  0  0  0  0  0  0  0  0  0  0  0
  139.8520   69.2870  226.2490 C   0  0  0  0  0  0  0  0  0  0  0  0
  139.1400   68.8220  225.0300 C   0  0  0  0  0  0  0  0  0  0  0  0
  139.8310   72.0670  219.3610 C   0  0  0  0  0  0  0  0  0  0  0  0
  140.5730   73.3740  219.2820 C   0  0  0  0  0  0  0  0  0  0  0  0
  141.7550   78.4347  221.9570 H   0  0  0  0  0  0  0  0  0  0  0  0
  142.6544   78.3146  220.4067 H   0  0  0  0  0  0  0  0  0  0  0  0
  140.9259   78.8035  220.4067 H   0  0  0  0  0  0  0  0  0  0  0  0
  141.0797   76.2683  221.7655 H   0  0  0  0  0  0  0  0  0  0  0  0
  140.3395   76.6133  220.1690 H   0  0  0  0  0  0  0  0  0  0  0  0
  143.1419   72.1512  219.1212 H   0  0  0  0  0  0  0  0  0  0  0  0
  145.3218   71.0244  219.1032 H   0  0  0  0  0  0  0  0  0  0  0  0
  147.2920   72.0664  220.2103 H   0  0  0  0  0  0  0  0  0  0  0  0
  146.9858   74.2562  221.3272 H   0  0  0  0  0  0  0  0  0  0  0  0
  144.7895   75.4006  221.3495 H   0  0  0  0  0  0  0  0  0  0  0  0
  140.4813   74.4120  220.8765 H   0  0  0  0  0  0  0  0  0  0  0  0
  142.6047   72.5674  221.5746 H   0  0  0  0  0  0  0  0  0  0  0  0
  141.1769   73.3274  222.4919 H   0  0  0  0  0  0  0  0  0  0  0  0
  141.3718   70.7299  221.0741 H   0  0  0  0  0  0  0  0  0  0  0  0
  140.5284   71.1721  222.5740 H   0  0  0  0  0  0  0  0  0  0  0  0
  138.1899   72.2711  223.1315 H   0  0  0  0  0  0  0  0  0  0  0  0
  135.8680   70.7540  223.2870 H   0  0  0  0  0  0  0  0  0  0  0  0
  135.7490   71.7910  221.9430 H   0  0  0  0  0  0  0  0  0  0  0  0
  137.3068   69.3745  222.9444 H   0  0  0  0  0  0  0  0  0  0  0  0
  139.0518   69.7902  222.6008 H   0  0  0  0  0  0  0  0  0  0  0  0
  137.4759   70.2637  225.0963 H   0  0  0  0  0  0  0  0  0  0  0  0
  140.3165   71.1001  224.0426 H   0  0  0  0  0  0  0  0  0  0  0  0
  139.2156   72.1746  224.8452 H   0  0  0  0  0  0  0  0  0  0  0  0
  140.9721   72.3619  227.1307 H   0  0  0  0  0  0  0  0  0  0  0  0
  141.6638   71.0463  229.0973 H   0  0  0  0  0  0  0  0  0  0  0  0
  141.2190   68.6265  229.2833 H   0  0  0  0  0  0  0  0  0  0  0  0
  140.0228   67.4660  227.3962 H   0  0  0  0  0  0  0  0  0  0  0  0
  139.8450   68.4649  224.2648 H   0  0  0  0  0  0  0  0  0  0  0  0
  138.4635   67.9721  225.2032 H   0  0  0  0  0  0  0  0  0  0  0  0
  140.4408   71.2677  218.9146 H   0  0  0  0  0  0  0  0  0  0  0  0
  138.8812   72.1417  218.8112 H   0  0  0  0  0  0  0  0  0  0  0  0
  141.3062   73.2975  218.4656 H   0  0  0  0  0  0  0  0  0  0  0  0
  139.8052   74.1452  219.1215 H   0  0  0  0  0  0  0  0  0  0  0  0
  1  2  1  0
  2  3  1  0
  3  4  2  0
  3  5  1  0
  5  6  1  0
  6  7  2  0
  7  8  1  0
  8  9  2  0
  9 10  1  0
 10 11  2  0
  5 12  1  0
 12 13  1  0
 13 14  1  0
 14 15  1  0
 15 16  1  0
 16 17  2  0
 16 18  1  0
 18 19  1  0
 18 20  1  0
 20 21  1  0
 21 22  1  0
 22 23  1  0
 23 24  2  0
 24 25  1  0
 25 26  2  0
 26 27  1  0
 27 28  2  0
 28 29  1  0
 15 30  1  0
 30 31  1  0
 11  6  1  0
 31 12  1  0
 29 21  1  0
 28 23  1  0
  1 32  1  0
  1 33  1  0
  1 34  1  0
  2 35  1  0
  2 36  1  0
  7 37  1  0
  8 38  1  0
  9 39  1  0
 10 40  1  0
 11 41  1  0
 12 42  1  0
 13 43  1  0
 13 44  1  0
 14 45  1  0
 14 46  1  0
 18 47  1  1
 19 48  1  0
 19 49  1  0
 20 50  1  0
 20 51  1  0
 21 52  1  0
 22 53  1  0
 22 54  1  0
 24 55  1  0
 25 56  1  0
 26 57  1  0
 27 58  1  0
 29 59  1  0
 29 60  1  0
 30 61  1  0
 30 62  1  0
 31 63  1  0
 31 64  1  0
M  END
>  <smiles>  (46) 
CCC(=O)N(c1ccccc1)C1CCN(C(=O)[C@@H](N)CC2Cc3ccccc3C2)CC1

>  <score_type>  (46) 
oracle

>  <origin>  (46) 
autodockgpu

>  <m_score__min__energy>  (46) 
-9.3200000000000003

>  <m_primary>  (46) 
energy

>  <rmsd>  (46) 
8.503261043606042

>  <m_score__min__rmsd>  (46) 
8.503261043606042

>  <meeko>  (46) 
{"free_energy": -6.98, "intermolecular_energy": -9.37, "internal_energy": -2.27, "cluster_size": 2, "cluster_id": 5, "rank_in_cluster": 2}

>  <energy>  (46) 
-7.55

>  <cluster_rmsd>  (46) 
0.67

>  <cluster>  (46) 
3

$$$$

     RDKit          3D

 64 67  0  0  0  0  0  0  0  0999 V2000
  138.8290   66.8010  222.7340 C   0  0  0  0  0  0  0  0  0  0  0  0
  138.8390   68.3350  222.5760 C   0  0  0  0  0  0  0  0  0  0  0  0
  138.4240   68.9610  223.8660 C   0  0  0  0  0  0  0  0  0  0  0  0
  137.2990   68.5510  224.2920 O   0  0  0  0  0  0  0  0  0  0  0  0
  139.2180   69.9220  224.5470 N   0  0  0  0  0  0  0  0  0  0  0  0
  139.8300   69.7370  225.7970 C   0  0  0  0  0  0  0  0  0  0  0  0
  139.9830   68.5230  226.4280 C   0  0  0  0  0  0  0  0  0  0  0  0
  140.5890   68.3720  227.6680 C   0  0  0  0  0  0  0  0  0  0  0  0
  141.0780   69.4600  228.3430 C   0  0  0  0  0  0  0  0  0  0  0  0
  140.9420   70.6870  227.7420 C   0  0  0  0  0  0  0  0  0  0  0  0
  140.3310   70.8410  226.4900 C   0  0  0  0  0  0  0  0  0  0  0  0
  139.3810   71.2040  223.8260 C   0  0  0  0  0  0  0  0  0  0  0  0
  138.1420   71.4690  223.0820 C   0  0  0  0  0  0  0  0  0  0  0  0
  138.2560   72.2350  221.7850 C   0  0  0  0  0  0  0  0  0  0  0  0
  139.4650   73.0210  221.8700 N   0  0  0  0  0  0  0  0  0  0  0  0
  139.5860   74.4160  221.9050 C   0  0  0  0  0  0  0  0  0  0  0  0
  140.7890   74.8670  221.9920 O   0  0  0  0  0  0  0  0  0  0  0  0
  138.5410   75.4390  221.8570 C   0  0  1  0  0  0  0  0  0  0  0  0
  137.8550   75.7320  223.0730 N   0  0  0  0  0  0  0  0  0  0  0  0
  139.0160   76.7780  221.3130 C   0  0  0  0  0  0  0  0  0  0  0  0
  139.8510   77.5490  222.2810 C   0  0  0  0  0  0  0  0  0  0  0  0
  139.3290   79.0020  222.3180 C   0  0  0  0  0  0  0  0  0  0  0  0
  140.5250   79.7110  222.8440 C   0  0  0  0  0  0  0  0  0  0  0  0
  140.6770   80.8980  223.5660 C   0  0  0  0  0  0  0  0  0  0  0  0
  141.9510   81.2990  223.9140 C   0  0  0  0  0  0  0  0  0  0  0  0
  143.0860   80.5860  223.5860 C   0  0  0  0  0  0  0  0  0  0  0  0
  142.9320   79.4040  222.8680 C   0  0  0  0  0  0  0  0  0  0  0  0
  141.6600   78.9990  222.5170 C   0  0  0  0  0  0  0  0  0  0  0  0
  141.2600   77.7840  221.7590 C   0  0  0  0  0  0  0  0  0  0  0  0
  140.7010   72.1920  221.9270 C   0  0  0  0  0  0  0  0  0  0  0  0
  140.6960   71.4040  223.2090 C   0  0  0  0  0  0  0  0  0  0  0  0
  138.8273   66.5425  223.8032 H   0  0  0  0  0  0  0  0  0  0  0  0
  137.9281   66.3890  222.2557 H   0  0  0  0  0  0  0  0  0  0  0  0
  139.7244   66.3773  222.2557 H   0  0  0  0  0  0  0  0  0  0  0  0
  139.8525   68.6716  222.3123 H   0  0  0  0  0  0  0  0  0  0  0  0
  138.1408   68.6303  221.7790 H   0  0  0  0  0  0  0  0  0  0  0  0
  139.6042   67.6229  225.9217 H   0  0  0  0  0  0  0  0  0  0  0  0
  140.6775   67.3699  228.1128 H   0  0  0  0  0  0  0  0  0  0  0  0
  141.5598   69.3545  229.3262 H   0  0  0  0  0  0  0  0  0  0  0  0
  141.3252   71.5785  228.2601 H   0  0  0  0  0  0  0  0  0  0  0  0
  140.2450   71.8444  226.0476 H   0  0  0  0  0  0  0  0  0  0  0  0
  139.4691   72.0600  224.5113 H   0  0  0  0  0  0  0  0  0  0  0  0
  137.6825   70.4967  222.8508 H   0  0  0  0  0  0  0  0  0  0  0  0
  137.5538   72.1232  223.7423 H   0  0  0  0  0  0  0  0  0  0  0  0
  138.3168   71.5370  220.9370 H   0  0  0  0  0  0  0  0  0  0  0  0
  137.3773   72.8778  221.6274 H   0  0  0  0  0  0  0  0  0  0  0  0
  137.8363   74.9400  221.1755 H   0  0  0  0  0  0  0  0  0  0  0  0
  138.4440   76.0140  223.8720 H   0  0  0  0  0  0  0  0  0  0  0  0
  137.1260   75.0670  223.3630 H   0  0  0  0  0  0  0  0  0  0  0  0
  139.6124   76.5945  220.4071 H   0  0  0  0  0  0  0  0  0  0  0  0
  138.1194   77.3807  221.1058 H   0  0  0  0  0  0  0  0  0  0  0  0
  139.8226   76.9845  223.2247 H   0  0  0  0  0  0  0  0  0  0  0  0
  139.0544   79.3597  221.3147 H   0  0  0  0  0  0  0  0  0  0  0  0
  138.4153   79.1439  222.9138 H   0  0  0  0  0  0  0  0  0  0  0  0
  139.8009   81.4992  223.8505 H   0  0  0  0  0  0  0  0  0  0  0  0
  142.0675   82.2341  224.4814 H   0  0  0  0  0  0  0  0  0  0  0  0
  144.0835   80.9417  223.8835 H   0  0  0  0  0  0  0  0  0  0  0  0
  143.8087   78.8029  222.5851 H   0  0  0  0  0  0  0  0  0  0  0  0
  141.2608   77.9688  220.6746 H   0  0  0  0  0  0  0  0  0  0  0  0
  141.9369   76.9278  221.8958 H   0  0  0  0  0  0  0  0  0  0  0  0
  140.7245   71.5034  221.0695 H   0  0  0  0  0  0  0  0  0  0  0  0
  141.5887   72.8405  221.8897 H   0  0  0  0  0  0  0  0  0  0  0  0
  141.1251   70.4132  222.9986 H   0  0  0  0  0  0  0  0  0  0  0  0
  141.2783   71.9979  223.9289 H   0  0  0  0  0  0  0  0  0  0  0  0
  1  2  1  0
  2  3  1  0
  3  4  2  0
  3  5  1  0
  5  6  1  0
  6  7  2  0
  7  8  1  0
  8  9  2  0
  9 10  1  0
 10 11  2  0
  5 12  1  0
 12 13  1  0
 13 14  1  0
 14 15  1  0
 15 16  1  0
 16 17  2  0
 16 18  1  0
 18 19  1  0
 18 20  1  0
 20 21  1  0
 21 22  1  0
 22 23  1  0
 23 24  2  0
 24 25  1  0
 25 26  2  0
 26 27  1  0
 27 28  2  0
 28 29  1  0
 15 30  1  0
 30 31  1  0
 11  6  1  0
 31 12  1  0
 29 21  1  0
 28 23  1  0
  1 32  1  0
  1 33  1  0
  1 34  1  0
  2 35  1  0
  2 36  1  0
  7 37  1  0
  8 38  1  0
  9 39  1  0
 10 40  1  0
 11 41  1  0
 12 42  1  0
 13 43  1  0
 13 44  1  0
 14 45  1  0
 14 46  1  0
 18 47  1  6
 19 48  1  0
 19 49  1  0
 20 50  1  0
 20 51  1  0
 21 52  1  0
 22 53  1  0
 22 54  1  0
 24 55  1  0
 25 56  1  0
 26 57  1  0
 27 58  1  0
 29 59  1  0
 29 60  1  0
 30 61  1  0
 30 62  1  0
 31 63  1  0
 31 64  1  0
M  END
>  <smiles>  (47) 
CCC(=O)N(c1ccccc1)C1CCN(C(=O)[C@@H](N)CC2Cc3ccccc3C2)CC1

>  <score_type>  (47) 
oracle

>  <origin>  (47) 
autodockgpu

>  <m_score__min__energy>  (47) 
-9.3200000000000003

>  <m_primary>  (47) 
energy

>  <rmsd>  (47) 
7.119458599663753

>  <m_score__min__rmsd>  (47) 
7.119458599663753

>  <meeko>  (47) 
{"free_energy": -9.31, "intermolecular_energy": -11.69, "internal_energy": -1.54, "cluster_size": 24, "cluster_id": 1, "rank_in_cluster": 2}

>  <energy>  (47) 
-7.84

>  <cluster_rmsd>  (47) 
0.0

>  <cluster>  (47) 
4

$$$$

     RDKit          3D

 64 67  0  0  0  0  0  0  0  0999 V2000
  143.3260   76.2000  217.7400 C   0  0  0  0  0  0  0  0  0  0  0  0
  143.3250   76.5050  219.2500 C   0  0  0  0  0  0  0  0  0  0  0  0
  142.2270   77.4710  219.5530 C   0  0  0  0  0  0  0  0  0  0  0  0
  142.0540   78.3450  218.6460 O   0  0  0  0  0  0  0  0  0  0  0  0
  141.4530   77.4110  220.7430 N   0  0  0  0  0  0  0  0  0  0  0  0
  141.4290   78.3900  221.7500 C   0  0  0  0  0  0  0  0  0  0  0  0
  140.6850   78.3140  222.9050 C   0  0  0  0  0  0  0  0  0  0  0  0
  140.6780   79.3010  223.8820 C   0  0  0  0  0  0  0  0  0  0  0  0
  141.4370   80.4320  223.7360 C   0  0  0  0  0  0  0  0  0  0  0  0
  142.1920   80.5410  222.5940 C   0  0  0  0  0  0  0  0  0  0  0  0
  142.2000   79.5450  221.6070 C   0  0  0  0  0  0  0  0  0  0  0  0
  140.6220   76.1950  220.8730 C   0  0  0  0  0  0  0  0  0  0  0  0
  141.4070   75.1800  221.5910 C   0  0  0  0  0  0  0  0  0  0  0  0
  141.1500   73.7310  221.2550 C   0  0  0  0  0  0  0  0  0  0  0  0
  139.8030   73.6560  220.7370 N   0  0  0  0  0  0  0  0  0  0  0  0
  138.6970   73.0070  221.3000 C   0  0  0  0  0  0  0  0  0  0  0  0
  137.5990   73.1020  220.6340 O   0  0  0  0  0  0  0  0  0  0  0  0
  138.6070   72.2350  222.5390 C   0  0  1  0  0  0  0  0  0  0  0  0
  137.3180   72.0990  223.1350 N   0  0  0  0  0  0  0  0  0  0  0  0
  139.1640   70.8230  222.4260 C   0  0  0  0  0  0  0  0  0  0  0  0
  139.9230   70.3860  223.6350 C   0  0  0  0  0  0  0  0  0  0  0  0
  139.0160   69.4480  224.4600 C   0  0  0  0  0  0  0  0  0  0  0  0
  139.6540   69.5570  225.7990 C   0  0  0  0  0  0  0  0  0  0  0  0
  139.7040   68.6900  226.8940 C   0  0  0  0  0  0  0  0  0  0  0  0
  140.3940   69.0900  228.0210 C   0  0  0  0  0  0  0  0  0  0  0  0
  141.0380   70.3060  228.1220 C   0  0  0  0  0  0  0  0  0  0  0  0
  140.9870   71.1680  227.0310 C   0  0  0  0  0  0  0  0  0  0  0  0
  140.2990   70.7720  225.9020 C   0  0  0  0  0  0  0  0  0  0  0  0
  140.1140   71.5200  224.6300 C   0  0  0  0  0  0  0  0  0  0  0  0
  139.6300   74.3770  219.4450 C   0  0  0  0  0  0  0  0  0  0  0  0
  139.8410   75.8480  219.6820 C   0  0  0  0  0  0  0  0  0  0  0  0
  143.3296   75.1108  217.5859 H   0  0  0  0  0  0  0  0  0  0  0  0
  142.4264   76.6327  217.2779 H   0  0  0  0  0  0  0  0  0  0  0  0
  144.2227   76.6386  217.2779 H   0  0  0  0  0  0  0  0  0  0  0  0
  143.1627   75.5744  219.8136 H   0  0  0  0  0  0  0  0  0  0  0  0
  144.2924   76.9406  219.5406 H   0  0  0  0  0  0  0  0  0  0  0  0
  140.0611   77.4220  223.0633 H   0  0  0  0  0  0  0  0  0  0  0  0
  140.0574   79.1734  224.7812 H   0  0  0  0  0  0  0  0  0  0  0  0
  141.4416   81.2210  224.5025 H   0  0  0  0  0  0  0  0  0  0  0  0
  142.8106   81.4389  222.4488 H   0  0  0  0  0  0  0  0  0  0  0  0
  142.8215   79.6754  220.7088 H   0  0  0  0  0  0  0  0  0  0  0  0
  139.7441   76.3581  221.5154 H   0  0  0  0  0  0  0  0  0  0  0  0
  142.4692   75.3814  221.3883 H   0  0  0  0  0  0  0  0  0  0  0  0
  141.0999   75.2816  222.6424 H   0  0  0  0  0  0  0  0  0  0  0  0
  141.8674   73.3850  220.4964 H   0  0  0  0  0  0  0  0  0  0  0  0
  141.2679   73.0926  222.1430 H   0  0  0  0  0  0  0  0  0  0  0  0
  139.2218   72.8745  223.1894 H   0  0  0  0  0  0  0  0  0  0  0  0
  136.5100   72.2330  222.5080 H   0  0  0  0  0  0  0  0  0  0  0  0
  137.1750   72.5750  224.0360 H   0  0  0  0  0  0  0  0  0  0  0  0
  138.3250   70.1286  222.2713 H   0  0  0  0  0  0  0  0  0  0  0  0
  139.8687   70.8188  221.5814 H   0  0  0  0  0  0  0  0  0  0  0  0
  140.8699   69.9656  223.2653 H   0  0  0  0  0  0  0  0  0  0  0  0
  137.9748   69.8023  224.4769 H   0  0  0  0  0  0  0  0  0  0  0  0
  138.9445   68.4220  224.0700 H   0  0  0  0  0  0  0  0  0  0  0  0
  139.2046   67.7105  226.8587 H   0  0  0  0  0  0  0  0  0  0  0  0
  140.4322   68.4052  228.8810 H   0  0  0  0  0  0  0  0  0  0  0  0
  141.5766   70.5861  229.0393 H   0  0  0  0  0  0  0  0  0  0  0  0
  141.4861   72.1476  227.0677 H   0  0  0  0  0  0  0  0  0  0  0  0
  139.2282   72.1709  224.6720 H   0  0  0  0  0  0  0  0  0  0  0  0
  140.9451   72.1971  224.3835 H   0  0  0  0  0  0  0  0  0  0  0  0
  140.3664   74.0102  218.7148 H   0  0  0  0  0  0  0  0  0  0  0  0
  138.6182   74.2021  219.0505 H   0  0  0  0  0  0  0  0  0  0  0  0
  140.3613   76.2603  218.8049 H   0  0  0  0  0  0  0  0  0  0  0  0
  138.8393   76.2716  219.8468 H   0  0  0  0  0  0  0  0  0  0  0  0
  1  2  1  0
  2  3  1  0
  3  4  2  0
  3  5  1  0
  5  6  1  0
  6  7  2  0
  7  8  1  0
  8  9  2  0
  9 10  1  0
 10 11  2  0
  5 12  1  0
 12 13  1  0
 13 14  1  0
 14 15  1  0
 15 16  1  0
 16 17  2  0
 16 18  1  0
 18 19  1  0
 18 20  1  0
 20 21  1  0
 21 22  1  0
 22 23  1  0
 23 24  2  0
 24 25  1  0
 25 26  2  0
 26 27  1  0
 27 28  2  0
 28 29  1  0
 15 30  1  0
 30 31  1  0
 11  6  1  0
 31 12  1  0
 29 21  1  0
 28 23  1  0
  1 32  1  0
  1 33  1  0
  1 34  1  0
  2 35  1  0
  2 36  1  0
  7 37  1  0
  8 38  1  0
  9 39  1  0
 10 40  1  0
 11 41  1  0
 12 42  1  0
 13 43  1  0
 13 44  1  0
 14 45  1  0
 14 46  1  0
 18 47  1  1
 19 48  1  0
 19 49  1  0
 20 50  1  0
 20 51  1  0
 21 52  1  0
 22 53  1  0
 22 54  1  0
 24 55  1  0
 25 56  1  0
 26 57  1  0
 27 58  1  0
 29 59  1  0
 29 60  1  0
 30 61  1  0
 30 62  1  0
 31 63  1  0
 31 64  1  0
M  END
>  <smiles>  (48) 
CCC(=O)N(c1ccccc1)C1CCN(C(=O)[C@@H](N)CC2Cc3ccccc3C2)CC1

>  <score_type>  (48) 
oracle

>  <origin>  (48) 
autodockgpu

>  <m_score__min__energy>  (48) 
-9.3200000000000003

>  <m_primary>  (48) 
energy

>  <rmsd>  (48) 
6.92805638392707

>  <m_score__min__rmsd>  (48) 
6.92805638392707

>  <meeko>  (48) 
{"free_energy": -8.02, "intermolecular_energy": -10.41, "internal_energy": -2.15, "cluster_size": 18, "cluster_id": 3, "rank_in_cluster": 6}

>  <energy>  (48) 
-7.79

>  <cluster_rmsd>  (48) 
0.62

>  <cluster>  (48) 
4

$$$$

     RDKit          3D

 64 67  0  0  0  0  0  0  0  0999 V2000
  135.5690   69.1560  223.7220 C   0  0  0  0  0  0  0  0  0  0  0  0
  136.5180   69.2690  224.9310 C   0  0  0  0  0  0  0  0  0  0  0  0
  137.9290   69.1490  224.4570 C   0  0  0  0  0  0  0  0  0  0  0  0
  138.1000   68.2320  223.5950 O   0  0  0  0  0  0  0  0  0  0  0  0
  138.9750   69.9870  224.9310 N   0  0  0  0  0  0  0  0  0  0  0  0
  139.7390   69.7620  226.0870 C   0  0  0  0  0  0  0  0  0  0  0  0
  140.0060   68.5250  226.6270 C   0  0  0  0  0  0  0  0  0  0  0  0
  140.7630   68.3340  227.7760 C   0  0  0  0  0  0  0  0  0  0  0  0
  141.2960   69.4040  228.4460 C   0  0  0  0  0  0  0  0  0  0  0  0
  141.0490   70.6540  227.9330 C   0  0  0  0  0  0  0  0  0  0  0  0
  140.2860   70.8480  226.7740 C   0  0  0  0  0  0  0  0  0  0  0  0
  139.2350   71.1760  224.0910 C   0  0  0  0  0  0  0  0  0  0  0  0
  138.0460   71.4180  223.2610 C   0  0  0  0  0  0  0  0  0  0  0  0
  138.2580   72.0360  221.8990 C   0  0  0  0  0  0  0  0  0  0  0  0
  139.5010   72.7700  221.9640 N   0  0  0  0  0  0  0  0  0  0  0  0
  139.6910   74.1550  221.8610 C   0  0  0  0  0  0  0  0  0  0  0  0
  140.9100   74.5570  221.9630 O   0  0  0  0  0  0  0  0  0  0  0  0
  138.7030   75.2130  221.6540 C   0  0  1  0  0  0  0  0  0  0  0  0
  137.9270   75.6150  222.7820 N   0  0  0  0  0  0  0  0  0  0  0  0
  139.2840   76.4920  221.0720 C   0  0  0  0  0  0  0  0  0  0  0  0
  140.0470   77.3050  222.0670 C   0  0  0  0  0  0  0  0  0  0  0  0
  139.4000   78.7040  222.1430 C   0  0  0  0  0  0  0  0  0  0  0  0
  140.5290   79.4990  222.6950 C   0  0  0  0  0  0  0  0  0  0  0  0
  140.5750   80.6730  223.4520 C   0  0  0  0  0  0  0  0  0  0  0  0
  141.8090   81.1720  223.8180 C   0  0  0  0  0  0  0  0  0  0  0  0
  143.0020   80.5710  223.4760 C   0  0  0  0  0  0  0  0  0  0  0  0
  142.9540   79.4010  222.7230 C   0  0  0  0  0  0  0  0  0  0  0  0
  141.7230   78.8980  222.3540 C   0  0  0  0  0  0  0  0  0  0  0  0
  141.4320   77.6760  221.5590 C   0  0  0  0  0  0  0  0  0  0  0  0
  140.6900   71.8960  222.1690 C   0  0  0  0  0  0  0  0  0  0  0  0
  140.5850   71.2500  223.5240 C   0  0  0  0  0  0  0  0  0  0  0  0
  134.5353   69.0329  224.0775 H   0  0  0  0  0  0  0  0  0  0  0  0
  135.6410   70.0691  223.1128 H   0  0  0  0  0  0  0  0  0  0  0  0
  135.8533   68.2854  223.1128 H   0  0  0  0  0  0  0  0  0  0  0  0
  136.3757   70.2433  225.4213 H   0  0  0  0  0  0  0  0  0  0  0  0
  136.2991   68.4663  225.6505 H   0  0  0  0  0  0  0  0  0  0  0  0
  139.5973   67.6380  226.1208 H   0  0  0  0  0  0  0  0  0  0  0  0
  140.9362   67.3146  228.1514 H   0  0  0  0  0  0  0  0  0  0  0  0
  141.8970   69.2675  229.3572 H   0  0  0  0  0  0  0  0  0  0  0  0
  141.4641   71.5321  228.4494 H   0  0  0  0  0  0  0  0  0  0  0  0
  140.1156   71.8685  226.4005 H   0  0  0  0  0  0  0  0  0  0  0  0
  139.3345   72.0942  224.6886 H   0  0  0  0  0  0  0  0  0  0  0  0
  137.5481   70.4490  223.1089 H   0  0  0  0  0  0  0  0  0  0  0  0
  137.4630   72.1653  223.8192 H   0  0  0  0  0  0  0  0  0  0  0  0
  138.3217   71.2501  221.1320 H   0  0  0  0  0  0  0  0  0  0  0  0
  137.4215   72.6981  221.6308 H   0  0  0  0  0  0  0  0  0  0  0  0
  138.0392   74.6972  220.9445 H   0  0  0  0  0  0  0  0  0  0  0  0
  138.4500   76.0300  223.5700 H   0  0  0  0  0  0  0  0  0  0  0  0
  137.2170   74.9490  223.1140 H   0  0  0  0  0  0  0  0  0  0  0  0
  139.9618   76.2236  220.2482 H   0  0  0  0  0  0  0  0  0  0  0  0
  138.4379   77.1069  220.7315 H   0  0  0  0  0  0  0  0  0  0  0  0
  140.0659   76.7135  222.9942 H   0  0  0  0  0  0  0  0  0  0  0  0
  139.0974   79.0654  221.1491 H   0  0  0  0  0  0  0  0  0  0  0  0
  138.4759   78.7484  222.7380 H   0  0  0  0  0  0  0  0  0  0  0  0
  139.6493   81.1875  223.7493 H   0  0  0  0  0  0  0  0  0  0  0  0
  141.8423   82.0966  224.4130 H   0  0  0  0  0  0  0  0  0  0  0  0
  143.9637   81.0035  223.7891 H   0  0  0  0  0  0  0  0  0  0  0  0
  143.8804   78.8868  222.4275 H   0  0  0  0  0  0  0  0  0  0  0  0
  141.4197   77.8920  220.4805 H   0  0  0  0  0  0  0  0  0  0  0  0
  142.1801   76.8779  221.6742 H   0  0  0  0  0  0  0  0  0  0  0  0
  140.7179   71.1199  221.3899 H   0  0  0  0  0  0  0  0  0  0  0  0
  141.6107   72.4950  222.1093 H   0  0  0  0  0  0  0  0  0  0  0  0
  140.9729   70.2241  223.4401 H   0  0  0  0  0  0  0  0  0  0  0  0
  141.1619   71.8910  224.2069 H   0  0  0  0  0  0  0  0  0  0  0  0
  1  2  1  0
  2  3  1  0
  3  4  2  0
  3  5  1  0
  5  6  1  0
  6  7  2  0
  7  8  1  0
  8  9  2  0
  9 10  1  0
 10 11  2  0
  5 12  1  0
 12 13  1  0
 13 14  1  0
 14 15  1  0
 15 16  1  0
 16 17  2  0
 16 18  1  0
 18 19  1  0
 18 20  1  0
 20 21  1  0
 21 22  1  0
 22 23  1  0
 23 24  2  0
 24 25  1  0
 25 26  2  0
 26 27  1  0
 27 28  2  0
 28 29  1  0
 15 30  1  0
 30 31  1  0
 11  6  1  0
 31 12  1  0
 29 21  1  0
 28 23  1  0
  1 32  1  0
  1 33  1  0
  1 34  1  0
  2 35  1  0
  2 36  1  0
  7 37  1  0
  8 38  1  0
  9 39  1  0
 10 40  1  0
 11 41  1  0
 12 42  1  0
 13 43  1  0
 13 44  1  0
 14 45  1  0
 14 46  1  0
 18 47  1  6
 19 48  1  0
 19 49  1  0
 20 50  1  0
 20 51  1  0
 21 52  1  0
 22 53  1  0
 22 54  1  0
 24 55  1  0
 25 56  1  0
 26 57  1  0
 27 58  1  0
 29 59  1  0
 29 60  1  0
 30 61  1  0
 30 62  1  0
 31 63  1  0
 31 64  1  0
M  END
>  <smiles>  (49) 
CCC(=O)N(c1ccccc1)C1CCN(C(=O)[C@@H](N)CC2Cc3ccccc3C2)CC1

>  <score_type>  (49) 
oracle

>  <origin>  (49) 
autodockgpu

>  <m_score__min__energy>  (49) 
-9.3200000000000003

>  <m_primary>  (49) 
energy

>  <rmsd>  (49) 
7.156425864164155

>  <m_score__min__rmsd>  (49) 
7.156425864164155

>  <meeko>  (49) 
{"free_energy": -9.27, "intermolecular_energy": -11.66, "internal_energy": -1.49, "cluster_size": 24, "cluster_id": 1, "rank_in_cluster": 4}

>  <energy>  (49) 
-7.37

>  <cluster_rmsd>  (49) 
0.0

>  <cluster>  (49) 
5

$$$$

     RDKit          3D

 64 67  0  0  0  0  0  0  0  0999 V2000
  134.8980   70.9770  224.5900 C   0  0  0  0  0  0  0  0  0  0  0  0
  135.5860   69.8280  225.3530 C   0  0  0  0  0  0  0  0  0  0  0  0
  136.7400   69.3300  224.5470 C   0  0  0  0  0  0  0  0  0  0  0  0
  136.4040   68.5370  223.6130 O   0  0  0  0  0  0  0  0  0  0  0  0
  138.0840   69.7110  224.8070 N   0  0  0  0  0  0  0  0  0  0  0  0
  138.9520   69.0760  225.7090 C   0  0  0  0  0  0  0  0  0  0  0  0
  139.5590   67.8590  225.4950 C   0  0  0  0  0  0  0  0  0  0  0  0
  140.4110   67.2530  226.4100 C   0  0  0  0  0  0  0  0  0  0  0  0
  140.6960   67.8590  227.6060 C   0  0  0  0  0  0  0  0  0  0  0  0
  140.1070   69.0740  227.8520 C   0  0  0  0  0  0  0  0  0  0  0  0
  139.2470   69.6870  226.9290 C   0  0  0  0  0  0  0  0  0  0  0  0
  138.5510   70.8790  224.0290 C   0  0  0  0  0  0  0  0  0  0  0  0
  137.6210   71.0830  222.9090 C   0  0  0  0  0  0  0  0  0  0  0  0
  138.1800   71.6650  221.6330 C   0  0  0  0  0  0  0  0  0  0  0  0
  139.3580   72.4160  221.9990 N   0  0  0  0  0  0  0  0  0  0  0  0
  139.5620   73.8000  221.9070 C   0  0  0  0  0  0  0  0  0  0  0  0
  140.7100   74.2200  222.3130 O   0  0  0  0  0  0  0  0  0  0  0  0
  138.6580   74.8390  221.4160 C   0  0  1  0  0  0  0  0  0  0  0  0
  137.6910   75.3520  222.3310 N   0  0  0  0  0  0  0  0  0  0  0  0
  139.3710   76.0530  220.8400 C   0  0  0  0  0  0  0  0  0  0  0  0
  140.0150   76.9110  221.8790 C   0  0  0  0  0  0  0  0  0  0  0  0
  139.1740   78.1970  222.0310 C   0  0  0  0  0  0  0  0  0  0  0  0
  140.1800   79.1150  222.6280 C   0  0  0  0  0  0  0  0  0  0  0  0
  140.0610   80.2400  223.4480 C   0  0  0  0  0  0  0  0  0  0  0  0
  141.2120   80.8920  223.8430 C   0  0  0  0  0  0  0  0  0  0  0  0
  142.4770   80.4890  223.4690 C   0  0  0  0  0  0  0  0  0  0  0  0
  142.5930   79.3680  222.6530 C   0  0  0  0  0  0  0  0  0  0  0  0
  141.4450   78.7130  222.2550 C   0  0  0  0  0  0  0  0  0  0  0  0
  141.3280   77.5060  221.3940 C   0  0  0  0  0  0  0  0  0  0  0  0
  140.4560   71.5640  222.5360 C   0  0  0  0  0  0  0  0  0  0  0  0
  140.0020   70.9550  223.8350 C   0  0  0  0  0  0  0  0  0  0  0  0
  134.4706   71.6908  225.3096 H   0  0  0  0  0  0  0  0  0  0  0  0
  135.6368   71.4915  223.9579 H   0  0  0  0  0  0  0  0  0  0  0  0
  134.0956   70.5687  223.9579 H   0  0  0  0  0  0  0  0  0  0  0  0
  135.9466   70.1951  226.3252 H   0  0  0  0  0  0  0  0  0  0  0  0
  134.8687   69.0106  225.5185 H   0  0  0  0  0  0  0  0  0  0  0  0
  139.3584   67.3377  224.5474 H   0  0  0  0  0  0  0  0  0  0  0  0
  140.8610   66.2778  226.1724 H   0  0  0  0  0  0  0  0  0  0  0  0
  141.3694   67.3906  228.3388 H   0  0  0  0  0  0  0  0  0  0  0  0
  140.3162   69.5837  228.8041 H   0  0  0  0  0  0  0  0  0  0  0  0
  138.7989   70.6623  227.1697 H   0  0  0  0  0  0  0  0  0  0  0  0
  138.4862   71.8145  224.6040 H   0  0  0  0  0  0  0  0  0  0  0  0
  137.1851   70.1040  222.6608 H   0  0  0  0  0  0  0  0  0  0  0  0
  136.9085   71.8385  223.2718 H   0  0  0  0  0  0  0  0  0  0  0  0
  138.4468   70.8587  220.9339 H   0  0  0  0  0  0  0  0  0  0  0  0
  137.4400   72.3087  221.1350 H   0  0  0  0  0  0  0  0  0  0  0  0
  138.1295   74.2617  220.6431 H   0  0  0  0  0  0  0  0  0  0  0  0
  137.6710   74.9160  223.2660 H   0  0  0  0  0  0  0  0  0  0  0  0
  136.7390   75.4930  221.9650 H   0  0  0  0  0  0  0  0  0  0  0  0
  140.1490   75.7034  220.1453 H   0  0  0  0  0  0  0  0  0  0  0  0
  138.6102   76.6680  220.3370 H   0  0  0  0  0  0  0  0  0  0  0  0
  140.1247   76.2780  222.7719 H   0  0  0  0  0  0  0  0  0  0  0  0
  138.8165   78.5649  221.0580 H   0  0  0  0  0  0  0  0  0  0  0  0
  138.2569   78.0752  222.6261 H   0  0  0  0  0  0  0  0  0  0  0  0
  139.0725   80.5981  223.7715 H   0  0  0  0  0  0  0  0  0  0  0  0
  141.1154   81.7774  224.4885 H   0  0  0  0  0  0  0  0  0  0  0  0
  143.3685   81.0381  223.8062 H   0  0  0  0  0  0  0  0  0  0  0  0
  143.5820   79.0101  222.3308 H   0  0  0  0  0  0  0  0  0  0  0  0
  141.2772   77.7760  220.3289 H   0  0  0  0  0  0  0  0  0  0  0  0
  142.1845   76.8195  221.4667 H   0  0  0  0  0  0  0  0  0  0  0  0
  140.6920   70.7667  221.8158 H   0  0  0  0  0  0  0  0  0  0  0  0
  141.3566   72.1734  222.7020 H   0  0  0  0  0  0  0  0  0  0  0  0
  140.4039   69.9324  223.8875 H   0  0  0  0  0  0  0  0  0  0  0  0
  140.3755   71.6224  224.6256 H   0  0  0  0  0  0  0  0  0  0  0  0
  1  2  1  0
  2  3  1  0
  3  4  2  0
  3  5  1  0
  5  6  1  0
  6  7  2  0
  7  8  1  0
  8  9  2  0
  9 10  1  0
 10 11  2  0
  5 12  1  0
 12 13  1  0
 13 14  1  0
 14 15  1  0
 15 16  1  0
 16 17  2  0
 16 18  1  0
 18 19  1  0
 18 20  1  0
 20 21  1  0
 21 22  1  0
 22 23  1  0
 23 24  2  0
 24 25  1  0
 25 26  2  0
 26 27  1  0
 27 28  2  0
 28 29  1  0
 15 30  1  0
 30 31  1  0
 11  6  1  0
 31 12  1  0
 29 21  1  0
 28 23  1  0
  1 32  1  0
  1 33  1  0
  1 34  1  0
  2 35  1  0
  2 36  1  0
  7 37  1  0
  8 38  1  0
  9 39  1  0
 10 40  1  0
 11 41  1  0
 12 42  1  0
 13 43  1  0
 13 44  1  0
 14 45  1  0
 14 46  1  0
 18 47  1  6
 19 48  1  0
 19 49  1  0
 20 50  1  0
 20 51  1  0
 21 52  1  0
 22 53  1  0
 22 54  1  0
 24 55  1  0
 25 56  1  0
 26 57  1  0
 27 58  1  0
 29 59  1  0
 29 60  1  0
 30 61  1  0
 30 62  1  0
 31 63  1  0
 31 64  1  0
M  END
>  <smiles>  (50) 
CCC(=O)N(c1ccccc1)C1CCN(C(=O)[C@@H](N)CC2Cc3ccccc3C2)CC1

>  <score_type>  (50) 
oracle

>  <origin>  (50) 
autodockgpu

>  <m_score__min__energy>  (50) 
-9.3200000000000003

>  <m_primary>  (50) 
energy

>  <rmsd>  (50) 
7.30440542120232

>  <m_score__min__rmsd>  (50) 
7.30440542120232

>  <meeko>  (50) 
{"free_energy": -8.72, "intermolecular_energy": -11.1, "internal_energy": -1.49, "cluster_size": 24, "cluster_id": 1, "rank_in_cluster": 14}

>  <energy>  (50) 
-6.98

>  <cluster_rmsd>  (50) 
0.7

>  <cluster>  (50) 
5

$$$$
