
     RDKit          3D

 52 56  0  0  0  0  0  0  0  0999 V2000
  138.1890   74.9840  221.1620 O   0  0  0  0  0  0  0  0  0  0  0  0
  139.3730   75.0790  221.5870 C   0  0  0  0  0  0  0  0  0  0  0  0
  139.9760   73.8960  222.0900 N   0  0  0  0  0  0  0  0  0  0  0  0
  139.2310   72.6750  222.0920 C   0  0  0  0  0  0  0  0  0  0  0  0
  139.8660   71.6330  222.9600 C   0  0  0  0  0  0  0  0  0  0  0  0
  140.8990   71.8870  223.6240 O   0  0  0  0  0  0  0  0  0  0  0  0
  139.3070   70.3280  223.0500 N   0  0  0  0  0  0  0  0  0  0  0  0
  139.5540   69.2960  222.0730 C   0  0  0  0  0  0  0  0  0  0  0  0
  138.3280   68.4420  222.1320 C   0  0  0  0  0  0  0  0  0  0  0  0
  137.5720   68.8960  223.3440 C   0  0  0  0  0  0  0  0  0  0  0  0
  138.4410   69.8710  224.0990 C   0  0  1  0  0  0  0  0  0  0  0  0
  139.1220   69.2680  225.2500 C   0  0  0  0  0  0  0  0  0  0  0  0
  139.2480   67.9590  225.6570 C   0  0  0  0  0  0  0  0  0  0  0  0
  139.9710   67.8770  226.7870 N   0  0  0  0  0  0  0  0  0  0  0  0
  140.3300   69.1200  227.1420 C   0  0  0  0  0  0  0  0  0  0  0  0
  141.0820   69.5900  228.2280 C   0  0  0  0  0  0  0  0  0  0  0  0
  141.3020   70.9550  228.3470 C   0  0  0  0  0  0  0  0  0  0  0  0
  140.7820   71.8090  227.4070 C   0  0  0  0  0  0  0  0  0  0  0  0
  140.0350   71.3750  226.3200 C   0  0  0  0  0  0  0  0  0  0  0  0
  139.8180   70.0030  226.2080 C   0  0  0  0  0  0  0  0  0  0  0  0
  140.1130   76.3510  221.5710 C   0  0  0  0  0  0  0  0  0  0  0  0
  140.4030   76.8990  220.3360 C   0  0  0  0  0  0  0  0  0  0  0  0
  141.0990   78.0920  220.3220 C   0  0  0  0  0  0  0  0  0  0  0  0
  141.4920   78.7190  221.4920 C   0  0  0  0  0  0  0  0  0  0  0  0
  142.1910   79.9170  221.4730 C   0  0  0  0  0  0  0  0  0  0  0  0
  142.5480   80.4790  222.6760 C   0  0  0  0  0  0  0  0  0  0  0  0
  142.2450   79.9100  223.9010 C   0  0  0  0  0  0  0  0  0  0  0  0
  141.5390   78.6990  223.9170 C   0  0  0  0  0  0  0  0  0  0  0  0
  141.1750   78.1260  222.7140 C   0  0  0  0  0  0  0  0  0  0  0  0
  140.4930   76.9570  222.7090 N   0  0  0  0  0  0  0  0  0  0  0  0
  140.9550   73.8900  222.4600 H   0  0  0  0  0  0  0  0  0  0  0  0
  138.2165   72.8784  222.4653 H   0  0  0  0  0  0  0  0  0  0  0  0
  139.2056   72.2903  221.0618 H   0  0  0  0  0  0  0  0  0  0  0  0
  139.6809   69.7293  221.0699 H   0  0  0  0  0  0  0  0  0  0  0  0
  140.4747   68.7301  222.2781 H   0  0  0  0  0  0  0  0  0  0  0  0
  137.7196   68.5821  221.2263 H   0  0  0  0  0  0  0  0  0  0  0  0
  138.5815   67.3732  222.1898 H   0  0  0  0  0  0  0  0  0  0  0  0
  136.6375   69.3888  223.0378 H   0  0  0  0  0  0  0  0  0  0  0  0
  137.3210   68.0355  223.9816 H   0  0  0  0  0  0  0  0  0  0  0  0
  137.8967   70.6889  224.5937 H   0  0  0  0  0  0  0  0  0  0  0  0
  138.8154   67.0966  225.1287 H   0  0  0  0  0  0  0  0  0  0  0  0
  140.2370   67.0060  227.3390 H   0  0  0  0  0  0  0  0  0  0  0  0
  141.4900   68.8898  228.9718 H   0  0  0  0  0  0  0  0  0  0  0  0
  141.8893   71.3498  229.1892 H   0  0  0  0  0  0  0  0  0  0  0  0
  140.9655   72.8877  227.5200 H   0  0  0  0  0  0  0  0  0  0  0  0
  139.6325   72.0826  225.5803 H   0  0  0  0  0  0  0  0  0  0  0  0
  140.0925   76.4058  219.4031 H   0  0  0  0  0  0  0  0  0  0  0  0
  141.3475   78.5559  219.3561 H   0  0  0  0  0  0  0  0  0  0  0  0
  142.4524   80.4039  220.5219 H   0  0  0  0  0  0  0  0  0  0  0  0
  143.1025   81.4289  222.6644 H   0  0  0  0  0  0  0  0  0  0  0  0
  142.5508   80.3963  224.8391 H   0  0  0  0  0  0  0  0  0  0  0  0
  141.2797   78.2141  224.8697 H   0  0  0  0  0  0  0  0  0  0  0  0
  1  2  2  0
  2  3  1  0
  3  4  1  0
  4  5  1  0
  5  6  2  0
  5  7  1  0
  7  8  1  0
  8  9  1  0
  9 10  1  0
 10 11  1  0
 11 12  1  0
 12 13  2  0
 13 14  1  0
 14 15  1  0
 15 16  2  0
 16 17  1  0
 17 18  2  0
 18 19  1  0
 19 20  2  0
  2 21  1  0
 21 22  2  0
 22 23  1  0
 23 24  2  0
 24 25  1  0
 25 26  2  0
 26 27  1  0
 27 28  2  0
 28 29  1  0
 29 30  2  0
 11  7  1  0
 20 12  1  0
 30 21  1  0
 20 15  1  0
 29 24  1  0
  3 31  1  0
  4 32  1  0
  4 33  1  0
  8 34  1  0
  8 35  1  0
  9 36  1  0
  9 37  1  0
 10 38  1  0
 10 39  1  0
 11 40  1  1
 13 41  1  0
 14 42  1  0
 16 43  1  0
 17 44  1  0
 18 45  1  0
 19 46  1  0
 22 47  1  0
 23 48  1  0
 25 49  1  0
 26 50  1  0
 27 51  1  0
 28 52  1  0
M  END
>  <smiles>  (1) 
O=C(NCC(=O)N1CCC[C@H]1c1c[nH]c2ccccc12)c1ccc2ccccc2n1

>  <score_type>  (1) 
oracle

>  <origin>  (1) 
autodockgpu

>  <m_score__min__energy>  (1) 
-9.6099999999999994

>  <m_primary>  (1) 
energy

>  <rmsd>  (1) 
8.2992558513434

>  <m_score__min__rmsd>  (1) 
8.2992558513434

>  <meeko>  (1) 
{"free_energy": -9.35, "intermolecular_energy": -10.84, "internal_energy": -1.74, "cluster_size": 13, "cluster_id": 2, "rank_in_cluster": 4}

>  <energy>  (1) 
-9.61

>  <cluster_rmsd>  (1) 
0.0

>  <cluster>  (1) 
1

$$$$

     RDKit          3D

 52 56  0  0  0  0  0  0  0  0999 V2000
  142.2470   73.2440  220.4720 O   0  0  0  0  0  0  0  0  0  0  0  0
  141.4720   73.9730  221.1490 C   0  0  0  0  0  0  0  0  0  0  0  0
  140.5210   73.3160  221.9730 N   0  0  0  0  0  0  0  0  0  0  0  0
  140.4840   71.8860  221.9980 C   0  0  0  0  0  0  0  0  0  0  0  0
  139.2470   71.3700  222.6680 C   0  0  0  0  0  0  0  0  0  0  0  0
  138.3990   72.1560  223.1510 O   0  0  0  0  0  0  0  0  0  0  0  0
  139.0100   69.9710  222.7690 N   0  0  0  0  0  0  0  0  0  0  0  0
  139.5350   69.0130  221.8270 C   0  0  0  0  0  0  0  0  0  0  0  0
  138.5450   67.8940  221.8610 C   0  0  0  0  0  0  0  0  0  0  0  0
  137.6520   68.1720  223.0320 C   0  0  0  0  0  0  0  0  0  0  0  0
  138.2330   69.3370  223.7960 C   0  0  1  0  0  0  0  0  0  0  0  0
  138.9890   68.9310  224.9860 C   0  0  0  0  0  0  0  0  0  0  0  0
  139.2060   67.6960  225.5550 C   0  0  0  0  0  0  0  0  0  0  0  0
  139.9720   67.8040  226.6540 N   0  0  0  0  0  0  0  0  0  0  0  0
  140.2690   69.1010  226.8280 C   0  0  0  0  0  0  0  0  0  0  0  0
  141.0280   69.7510  227.8110 C   0  0  0  0  0  0  0  0  0  0  0  0
  141.1710   71.1300  227.7410 C   0  0  0  0  0  0  0  0  0  0  0  0
  140.5690   71.8220  226.7200 C   0  0  0  0  0  0  0  0  0  0  0  0
  139.8110   71.2080  225.7320 C   0  0  0  0  0  0  0  0  0  0  0  0
  139.6730   69.8230  225.8090 C   0  0  0  0  0  0  0  0  0  0  0  0
  141.5370   75.4430  221.1010 C   0  0  0  0  0  0  0  0  0  0  0  0
  142.1490   76.0140  220.0020 C   0  0  0  0  0  0  0  0  0  0  0  0
  142.2110   77.3930  219.9580 C   0  0  0  0  0  0  0  0  0  0  0  0
  141.6840   78.1770  220.9710 C   0  0  0  0  0  0  0  0  0  0  0  0
  141.7490   79.5620  220.9230 C   0  0  0  0  0  0  0  0  0  0  0  0
  141.2040   80.2740  221.9660 C   0  0  0  0  0  0  0  0  0  0  0  0
  140.5960   79.6770  223.0580 C   0  0  0  0  0  0  0  0  0  0  0  0
  140.5320   78.2780  223.1030 C   0  0  0  0  0  0  0  0  0  0  0  0
  141.0760   77.5540  222.0600 C   0  0  0  0  0  0  0  0  0  0  0  0
  141.0250   76.2010  222.0860 N   0  0  0  0  0  0  0  0  0  0  0  0
  139.8430   73.8480  222.5670 H   0  0  0  0  0  0  0  0  0  0  0  0
  140.5108   71.5116  220.9640 H   0  0  0  0  0  0  0  0  0  0  0  0
  141.3542   71.5327  222.5707 H   0  0  0  0  0  0  0  0  0  0  0  0
  139.5977   69.4493  220.8192 H   0  0  0  0  0  0  0  0  0  0  0  0
  140.5541   68.6850  222.0797 H   0  0  0  0  0  0  0  0  0  0  0  0
  137.9597   67.8724  220.9299 H   0  0  0  0  0  0  0  0  0  0  0  0
  139.0422   66.9172  221.9548 H   0  0  0  0  0  0  0  0  0  0  0  0
  136.6412   68.4241  222.6789 H   0  0  0  0  0  0  0  0  0  0  0  0
  137.5848   67.2857  223.6800 H   0  0  0  0  0  0  0  0  0  0  0  0
  137.4897   70.0086  224.2503 H   0  0  0  0  0  0  0  0  0  0  0  0
  138.8064   66.7491  225.1630 H   0  0  0  0  0  0  0  0  0  0  0  0
  140.3080   67.0310  227.3030 H   0  0  0  0  0  0  0  0  0  0  0  0
  141.5014   69.1791  228.6227 H   0  0  0  0  0  0  0  0  0  0  0  0
  141.7628   71.6645  228.4987 H   0  0  0  0  0  0  0  0  0  0  0  0
  140.6929   72.9144  226.6827 H   0  0  0  0  0  0  0  0  0  0  0  0
  139.3405   71.7884  224.9247 H   0  0  0  0  0  0  0  0  0  0  0  0
  142.5696   75.3958  219.1952 H   0  0  0  0  0  0  0  0  0  0  0  0
  142.6909   77.8810  219.0969 H   0  0  0  0  0  0  0  0  0  0  0  0
  142.2233   80.0765  220.0743 H   0  0  0  0  0  0  0  0  0  0  0  0
  141.2535   81.3723  221.9312 H   0  0  0  0  0  0  0  0  0  0  0  0
  140.1735   80.2865  223.8704 H   0  0  0  0  0  0  0  0  0  0  0  0
  140.0574   77.7659  223.9530 H   0  0  0  0  0  0  0  0  0  0  0  0
  1  2  2  0
  2  3  1  0
  3  4  1  0
  4  5  1  0
  5  6  2  0
  5  7  1  0
  7  8  1  0
  8  9  1  0
  9 10  1  0
 10 11  1  0
 11 12  1  0
 12 13  2  0
 13 14  1  0
 14 15  1  0
 15 16  2  0
 16 17  1  0
 17 18  2  0
 18 19  1  0
 19 20  2  0
  2 21  1  0
 21 22  2  0
 22 23  1  0
 23 24  2  0
 24 25  1  0
 25 26  2  0
 26 27  1  0
 27 28  2  0
 28 29  1  0
 29 30  2  0
 11  7  1  0
 20 12  1  0
 30 21  1  0
 20 15  1  0
 29 24  1  0
  3 31  1  0
  4 32  1  0
  4 33  1  0
  8 34  1  0
  8 35  1  0
  9 36  1  0
  9 37  1  0
 10 38  1  0
 10 39  1  0
 11 40  1  1
 13 41  1  0
 14 42  1  0
 16 43  1  0
 17 44  1  0
 18 45  1  0
 19 46  1  0
 22 47  1  0
 23 48  1  0
 25 49  1  0
 26 50  1  0
 27 51  1  0
 28 52  1  0
M  END
>  <smiles>  (2) 
O=C(NCC(=O)N1CCC[C@H]1c1c[nH]c2ccccc12)c1ccc2ccccc2n1

>  <score_type>  (2) 
oracle

>  <origin>  (2) 
autodockgpu

>  <m_score__min__energy>  (2) 
-9.6099999999999994

>  <m_primary>  (2) 
energy

>  <rmsd>  (2) 
8.39338641670682

>  <m_score__min__rmsd>  (2) 
8.39338641670682

>  <meeko>  (2) 
{"free_energy": -8.55, "intermolecular_energy": -10.04, "internal_energy": -1.95, "cluster_size": 13, "cluster_id": 2, "rank_in_cluster": 12}

>  <energy>  (2) 
-9.59

>  <cluster_rmsd>  (2) 
0.07

>  <cluster>  (2) 
1

$$$$

     RDKit          3D

 52 56  0  0  0  0  0  0  0  0999 V2000
  141.8920   73.5990  220.2660 O   0  0  0  0  0  0  0  0  0  0  0  0
  141.2840   74.3090  221.1140 C   0  0  0  0  0  0  0  0  0  0  0  0
  140.4430   73.6340  222.0370 N   0  0  0  0  0  0  0  0  0  0  0  0
  140.3250   72.2100  221.9680 C   0  0  0  0  0  0  0  0  0  0  0  0
  139.8800   71.6210  223.2710 C   0  0  0  0  0  0  0  0  0  0  0  0
  140.1370   72.1900  224.3580 O   0  0  0  0  0  0  0  0  0  0  0  0
  139.1510   70.3990  223.3000 N   0  0  0  0  0  0  0  0  0  0  0  0
  139.1060   69.4820  222.1880 C   0  0  0  0  0  0  0  0  0  0  0  0
  137.7870   68.7950  222.3420 C   0  0  0  0  0  0  0  0  0  0  0  0
  137.2810   69.1780  223.6990 C   0  0  0  0  0  0  0  0  0  0  0  0
  138.3800   69.9240  224.4140 C   0  0  1  0  0  0  0  0  0  0  0  0
  139.1170   69.0920  225.3710 C   0  0  0  0  0  0  0  0  0  0  0  0
  139.2600   67.7260  225.4770 C   0  0  0  0  0  0  0  0  0  0  0  0
  140.0390   67.4070  226.5250 N   0  0  0  0  0  0  0  0  0  0  0  0
  140.4200   68.5460  227.1230 C   0  0  0  0  0  0  0  0  0  0  0  0
  141.2270   68.7750  228.2460 C   0  0  0  0  0  0  0  0  0  0  0  0
  141.4570   70.0830  228.6470 C   0  0  0  0  0  0  0  0  0  0  0  0
  140.8930   71.1180  227.9420 C   0  0  0  0  0  0  0  0  0  0  0  0
  140.0900   70.9240  226.8260 C   0  0  0  0  0  0  0  0  0  0  0  0
  139.8630   69.6070  226.4290 C   0  0  0  0  0  0  0  0  0  0  0  0
  141.4280   75.7730  221.1590 C   0  0  0  0  0  0  0  0  0  0  0  0
  141.9640   76.3910  220.0460 C   0  0  0  0  0  0  0  0  0  0  0  0
  142.1000   77.7650  220.0900 C   0  0  0  0  0  0  0  0  0  0  0  0
  141.7190   78.4980  221.2010 C   0  0  0  0  0  0  0  0  0  0  0  0
  141.8580   79.8780  221.2410 C   0  0  0  0  0  0  0  0  0  0  0  0
  141.4580   80.5380  222.3790 C   0  0  0  0  0  0  0  0  0  0  0  0
  140.9240   79.8940  223.4830 C   0  0  0  0  0  0  0  0  0  0  0  0
  140.7850   78.5010  223.4390 C   0  0  0  0  0  0  0  0  0  0  0  0
  141.1840   77.8280  222.3000 C   0  0  0  0  0  0  0  0  0  0  0  0
  141.0570   76.4820  222.2390 N   0  0  0  0  0  0  0  0  0  0  0  0
  139.9050   74.1490  222.7720 H   0  0  0  0  0  0  0  0  0  0  0  0
  139.5897   71.9516  221.1917 H   0  0  0  0  0  0  0  0  0  0  0  0
  141.3165   71.7977  221.7293 H   0  0  0  0  0  0  0  0  0  0  0  0
  139.1560   70.0235  221.2318 H   0  0  0  0  0  0  0  0  0  0  0  0
  139.9524   68.7794  222.1829 H   0  0  0  0  0  0  0  0  0  0  0  0
  137.0868   69.1319  221.5634 H   0  0  0  0  0  0  0  0  0  0  0  0
  137.8854   67.7041  222.2405 H   0  0  0  0  0  0  0  0  0  0  0  0
  136.3960   69.8235  223.5987 H   0  0  0  0  0  0  0  0  0  0  0  0
  136.9965   68.2804  224.2676 H   0  0  0  0  0  0  0  0  0  0  0  0
  138.0358   70.7329  225.0752 H   0  0  0  0  0  0  0  0  0  0  0  0
  138.7991   66.9952  224.7962 H   0  0  0  0  0  0  0  0  0  0  0  0
  140.3300   66.4400  226.8600 H   0  0  0  0  0  0  0  0  0  0  0  0
  141.6696   67.9334  228.7989 H   0  0  0  0  0  0  0  0  0  0  0  0
  142.0873   70.2900  229.5244 H   0  0  0  0  0  0  0  0  0  0  0  0
  141.0863   72.1478  228.2768 H   0  0  0  0  0  0  0  0  0  0  0  0
  139.6522   71.7721  226.2792 H   0  0  0  0  0  0  0  0  0  0  0  0
  142.2698   75.8131  219.1614 H   0  0  0  0  0  0  0  0  0  0  0  0
  142.5217   78.2900  219.2202 H   0  0  0  0  0  0  0  0  0  0  0  0
  142.2767   80.4288  220.3858 H   0  0  0  0  0  0  0  0  0  0  0  0
  141.5675   81.6320  222.4144 H   0  0  0  0  0  0  0  0  0  0  0  0
  140.6165   80.4629  224.3728 H   0  0  0  0  0  0  0  0  0  0  0  0
  140.3658   77.9527  224.2955 H   0  0  0  0  0  0  0  0  0  0  0  0
  1  2  2  0
  2  3  1  0
  3  4  1  0
  4  5  1  0
  5  6  2  0
  5  7  1  0
  7  8  1  0
  8  9  1  0
  9 10  1  0
 10 11  1  0
 11 12  1  0
 12 13  2  0
 13 14  1  0
 14 15  1  0
 15 16  2  0
 16 17  1  0
 17 18  2  0
 18 19  1  0
 19 20  2  0
  2 21  1  0
 21 22  2  0
 22 23  1  0
 23 24  2  0
 24 25  1  0
 25 26  2  0
 26 27  1  0
 27 28  2  0
 28 29  1  0
 29 30  2  0
 11  7  1  0
 20 12  1  0
 30 21  1  0
 20 15  1  0
 29 24  1  0
  3 31  1  0
  4 32  1  0
  4 33  1  0
  8 34  1  0
  8 35  1  0
  9 36  1  0
  9 37  1  0
 10 38  1  0
 10 39  1  0
 11 40  1  1
 13 41  1  0
 14 42  1  0
 16 43  1  0
 17 44  1  0
 18 45  1  0
 19 46  1  0
 22 47  1  0
 23 48  1  0
 25 49  1  0
 26 50  1  0
 27 51  1  0
 28 52  1  0
M  END
>  <smiles>  (3) 
O=C(NCC(=O)N1CCC[C@H]1c1c[nH]c2ccccc12)c1ccc2ccccc2n1

>  <score_type>  (3) 
oracle

>  <origin>  (3) 
autodockgpu

>  <m_score__min__energy>  (3) 
-9.6099999999999994

>  <m_primary>  (3) 
energy

>  <rmsd>  (3) 
8.346581870858387

>  <m_score__min__rmsd>  (3) 
8.346581870858387

>  <meeko>  (3) 
{"free_energy": -9.07, "intermolecular_energy": -10.56, "internal_energy": -1.59, "cluster_size": 13, "cluster_id": 2, "rank_in_cluster": 7}

>  <energy>  (3) 
-9.58

>  <cluster_rmsd>  (3) 
0.09

>  <cluster>  (3) 
1

$$$$

     RDKit          3D

 52 56  0  0  0  0  0  0  0  0999 V2000
  138.8570   75.5020  221.5110 O   0  0  0  0  0  0  0  0  0  0  0  0
  140.0030   75.9850  221.7240 C   0  0  0  0  0  0  0  0  0  0  0  0
  141.1180   75.1670  221.4050 N   0  0  0  0  0  0  0  0  0  0  0  0
  140.8990   73.8610  220.8650 C   0  0  0  0  0  0  0  0  0  0  0  0
  142.0160   72.9210  221.2030 C   0  0  0  0  0  0  0  0  0  0  0  0
  141.8230   71.9300  221.9460 O   0  0  0  0  0  0  0  0  0  0  0  0
  143.3230   73.1350  220.6830 N   0  0  0  0  0  0  0  0  0  0  0  0
  144.2080   72.0590  220.3100 C   0  0  0  0  0  0  0  0  0  0  0  0
  145.5750   72.6310  220.5100 C   0  0  0  0  0  0  0  0  0  0  0  0
  145.3760   74.1000  220.7300 C   0  0  0  0  0  0  0  0  0  0  0  0
  143.9250   74.4200  220.4660 C   0  0  1  0  0  0  0  0  0  0  0  0
  143.6920   74.9990  219.1390 C   0  0  0  0  0  0  0  0  0  0  0  0
  143.9330   74.5140  217.8730 C   0  0  0  0  0  0  0  0  0  0  0  0
  143.5530   75.4050  216.9400 N   0  0  0  0  0  0  0  0  0  0  0  0
  143.0610   76.4820  217.5690 C   0  0  0  0  0  0  0  0  0  0  0  0
  142.5350   77.6830  217.0710 C   0  0  0  0  0  0  0  0  0  0  0  0
  142.0900   78.6410  217.9720 C   0  0  0  0  0  0  0  0  0  0  0  0
  142.1740   78.3950  219.3200 C   0  0  0  0  0  0  0  0  0  0  0  0
  142.6890   77.2160  219.8440 C   0  0  0  0  0  0  0  0  0  0  0  0
  143.1340   76.2600  218.9330 C   0  0  0  0  0  0  0  0  0  0  0  0
  140.1940   77.3340  222.2800 C   0  0  0  0  0  0  0  0  0  0  0  0
  139.0590   78.0560  222.5950 C   0  0  0  0  0  0  0  0  0  0  0  0
  139.2390   79.3230  223.1150 C   0  0  0  0  0  0  0  0  0  0  0  0
  140.5020   79.8530  223.3140 C   0  0  0  0  0  0  0  0  0  0  0  0
  140.6790   81.1270  223.8360 C   0  0  0  0  0  0  0  0  0  0  0  0
  141.9630   81.5870  224.0050 C   0  0  0  0  0  0  0  0  0  0  0  0
  143.0860   80.8430  223.6800 C   0  0  0  0  0  0  0  0  0  0  0  0
  142.9040   79.5580  223.1530 C   0  0  0  0  0  0  0  0  0  0  0  0
  141.6170   79.0860  222.9800 C   0  0  0  0  0  0  0  0  0  0  0  0
  141.4210   77.8470  222.4720 N   0  0  0  0  0  0  0  0  0  0  0  0
  142.1020   75.4940  221.5510 H   0  0  0  0  0  0  0  0  0  0  0  0
  139.9604   73.4597  221.2749 H   0  0  0  0  0  0  0  0  0  0  0  0
  140.8482   73.9496  219.7698 H   0  0  0  0  0  0  0  0  0  0  0  0
  144.0523   71.1825  220.9561 H   0  0  0  0  0  0  0  0  0  0  0  0
  144.0409   71.7103  219.2802 H   0  0  0  0  0  0  0  0  0  0  0  0
  146.0565   72.1743  221.3872 H   0  0  0  0  0  0  0  0  0  0  0  0
  146.2255   72.4362  219.6446 H   0  0  0  0  0  0  0  0  0  0  0  0
  145.6326   74.3600  221.7676 H   0  0  0  0  0  0  0  0  0  0  0  0
  146.0234   74.6782  220.0543 H   0  0  0  0  0  0  0  0  0  0  0  0
  143.5012   75.2078  221.1061 H   0  0  0  0  0  0  0  0  0  0  0  0
  144.3762   73.5312  217.6544 H   0  0  0  0  0  0  0  0  0  0  0  0
  143.6120   75.3170  215.8810 H   0  0  0  0  0  0  0  0  0  0  0  0
  142.4762   77.8625  215.9873 H   0  0  0  0  0  0  0  0  0  0  0  0
  141.6726   79.5914  217.6079 H   0  0  0  0  0  0  0  0  0  0  0  0
  141.8170   79.1671  220.0174 H   0  0  0  0  0  0  0  0  0  0  0  0
  142.7431   77.0448  220.9292 H   0  0  0  0  0  0  0  0  0  0  0  0
  138.0533   77.6390  222.4381 H   0  0  0  0  0  0  0  0  0  0  0  0
  138.3569   79.9255  223.3774 H   0  0  0  0  0  0  0  0  0  0  0  0
  139.8150   81.7515  224.1070 H   0  0  0  0  0  0  0  0  0  0  0  0
  142.1064   82.5960  224.4189 H   0  0  0  0  0  0  0  0  0  0  0  0
  144.0959   81.2516  223.8322 H   0  0  0  0  0  0  0  0  0  0  0  0
  143.7698   78.9361  222.8819 H   0  0  0  0  0  0  0  0  0  0  0  0
  1  2  2  0
  2  3  1  0
  3  4  1  0
  4  5  1  0
  5  6  2  0
  5  7  1  0
  7  8  1  0
  8  9  1  0
  9 10  1  0
 10 11  1  0
 11 12  1  0
 12 13  2  0
 13 14  1  0
 14 15  1  0
 15 16  2  0
 16 17  1  0
 17 18  2  0
 18 19  1  0
 19 20  2  0
  2 21  1  0
 21 22  2  0
 22 23  1  0
 23 24  2  0
 24 25  1  0
 25 26  2  0
 26 27  1  0
 27 28  2  0
 28 29  1  0
 29 30  2  0
 11  7  1  0
 20 12  1  0
 30 21  1  0
 20 15  1  0
 29 24  1  0
  3 31  1  0
  4 32  1  0
  4 33  1  0
  8 34  1  0
  8 35  1  0
  9 36  1  0
  9 37  1  0
 10 38  1  0
 10 39  1  0
 11 40  1  1
 13 41  1  0
 14 42  1  0
 16 43  1  0
 17 44  1  0
 18 45  1  0
 19 46  1  0
 22 47  1  0
 23 48  1  0
 25 49  1  0
 26 50  1  0
 27 51  1  0
 28 52  1  0
M  END
>  <smiles>  (4) 
O=C(NCC(=O)N1CCC[C@H]1c1c[nH]c2ccccc12)c1ccc2ccccc2n1

>  <score_type>  (4) 
oracle

>  <origin>  (4) 
autodockgpu

>  <m_score__min__energy>  (4) 
-9.6099999999999994

>  <m_primary>  (4) 
energy

>  <rmsd>  (4) 
7.874973952380989

>  <m_score__min__rmsd>  (4) 
7.874973952380989

>  <meeko>  (4) 
{"free_energy": -7.99, "intermolecular_energy": -9.49, "internal_energy": -2.3, "cluster_size": 1, "cluster_id": 7, "rank_in_cluster": 1}

>  <energy>  (4) 
-9.57

>  <cluster_rmsd>  (4) 
0.09

>  <cluster>  (4) 
1

$$$$

     RDKit          3D

 52 56  0  0  0  0  0  0  0  0999 V2000
  140.7180   71.6220  221.3320 O   0  0  0  0  0  0  0  0  0  0  0  0
  140.2770   72.1470  222.3910 C   0  0  0  0  0  0  0  0  0  0  0  0
  139.8910   73.5110  222.3240 N   0  0  0  0  0  0  0  0  0  0  0  0
  140.0150   74.2150  221.0860 C   0  0  0  0  0  0  0  0  0  0  0  0
  140.5640   75.5950  221.2780 C   0  0  0  0  0  0  0  0  0  0  0  0
  140.5210   76.1570  222.3990 O   0  0  0  0  0  0  0  0  0  0  0  0
  141.1480   76.3000  220.1890 N   0  0  0  0  0  0  0  0  0  0  0  0
  140.7610   76.0880  218.8160 C   0  0  0  0  0  0  0  0  0  0  0  0
  141.9930   76.4270  218.0380 C   0  0  0  0  0  0  0  0  0  0  0  0
  142.9270   77.0750  219.0140 C   0  0  0  0  0  0  0  0  0  0  0  0
  142.1780   77.2930  220.3050 C   0  0  1  0  0  0  0  0  0  0  0  0
  141.6980   78.6690  220.4710 C   0  0  0  0  0  0  0  0  0  0  0  0
  141.0210   79.5120  219.6180 C   0  0  0  0  0  0  0  0  0  0  0  0
  140.7860   80.6980  220.2050 N   0  0  0  0  0  0  0  0  0  0  0  0
  141.3010   80.6590  221.4440 C   0  0  0  0  0  0  0  0  0  0  0  0
  141.3300   81.6210  222.4630 C   0  0  0  0  0  0  0  0  0  0  0  0
  141.9420   81.3000  223.6660 C   0  0  0  0  0  0  0  0  0  0  0  0
  142.5020   80.0570  223.8310 C   0  0  0  0  0  0  0  0  0  0  0  0
  142.4900   79.0830  222.8420 C   0  0  0  0  0  0  0  0  0  0  0  0
  141.8730   79.4140  221.6360 C   0  0  0  0  0  0  0  0  0  0  0  0
  140.1620   71.3930  223.6510 C   0  0  0  0  0  0  0  0  0  0  0  0
  139.5550   70.1530  223.5930 C   0  0  0  0  0  0  0  0  0  0  0  0
  139.4450   69.4480  224.7760 C   0  0  0  0  0  0  0  0  0  0  0  0
  139.9220   69.9570  225.9720 C   0  0  0  0  0  0  0  0  0  0  0  0
  139.8090   69.2460  227.1580 C   0  0  0  0  0  0  0  0  0  0  0  0
  140.3050   69.8150  228.3070 C   0  0  0  0  0  0  0  0  0  0  0  0
  140.9090   71.0610  228.3380 C   0  0  0  0  0  0  0  0  0  0  0  0
  141.0210   71.7770  227.1390 C   0  0  0  0  0  0  0  0  0  0  0  0
  140.5260   71.2130  225.9790 C   0  0  0  0  0  0  0  0  0  0  0  0
  140.6250   71.8900  224.8110 N   0  0  0  0  0  0  0  0  0  0  0  0
  139.5140   74.0200  223.1580 H   0  0  0  0  0  0  0  0  0  0  0  0
  140.6903   73.6531  220.4240 H   0  0  0  0  0  0  0  0  0  0  0  0
  139.0113   74.3069  220.6453 H   0  0  0  0  0  0  0  0  0  0  0  0
  140.4686   75.0408  218.6491 H   0  0  0  0  0  0  0  0  0  0  0  0
  139.8928   76.6959  218.5214 H   0  0  0  0  0  0  0  0  0  0  0  0
  142.4461   75.5152  217.6218 H   0  0  0  0  0  0  0  0  0  0  0  0
  141.7669   77.0920  217.1915 H   0  0  0  0  0  0  0  0  0  0  0  0
  143.7935   76.4210  219.1915 H   0  0  0  0  0  0  0  0  0  0  0  0
  143.2883   78.0348  218.6162 H   0  0  0  0  0  0  0  0  0  0  0  0
  142.7844   77.1804  221.2158 H   0  0  0  0  0  0  0  0  0  0  0  0
  140.7141   79.2501  218.5947 H   0  0  0  0  0  0  0  0  0  0  0  0
  140.2860   81.5470  219.8020 H   0  0  0  0  0  0  0  0  0  0  0  0
  140.8762   82.6116  222.3118 H   0  0  0  0  0  0  0  0  0  0  0  0
  141.9784   82.0364  224.4824 H   0  0  0  0  0  0  0  0  0  0  0  0
  142.9827   79.8221  224.7921 H   0  0  0  0  0  0  0  0  0  0  0  0
  142.9464   78.0951  223.0023 H   0  0  0  0  0  0  0  0  0  0  0  0
  139.1754   69.7445  222.6449 H   0  0  0  0  0  0  0  0  0  0  0  0
  138.9665   68.4575  224.7675 H   0  0  0  0  0  0  0  0  0  0  0  0
  139.3352   68.2535  227.1784 H   0  0  0  0  0  0  0  0  0  0  0  0
  140.2178   69.2528  229.2485 H   0  0  0  0  0  0  0  0  0  0  0  0
  141.2915   71.4783  229.2812 H   0  0  0  0  0  0  0  0  0  0  0  0
  141.4943   72.7698  227.1215 H   0  0  0  0  0  0  0  0  0  0  0  0
  1  2  2  0
  2  3  1  0
  3  4  1  0
  4  5  1  0
  5  6  2  0
  5  7  1  0
  7  8  1  0
  8  9  1  0
  9 10  1  0
 10 11  1  0
 11 12  1  0
 12 13  2  0
 13 14  1  0
 14 15  1  0
 15 16  2  0
 16 17  1  0
 17 18  2  0
 18 19  1  0
 19 20  2  0
  2 21  1  0
 21 22  2  0
 22 23  1  0
 23 24  2  0
 24 25  1  0
 25 26  2  0
 26 27  1  0
 27 28  2  0
 28 29  1  0
 29 30  2  0
 11  7  1  0
 20 12  1  0
 30 21  1  0
 20 15  1  0
 29 24  1  0
  3 31  1  0
  4 32  1  0
  4 33  1  0
  8 34  1  0
  8 35  1  0
  9 36  1  0
  9 37  1  0
 10 38  1  0
 10 39  1  0
 11 40  1  1
 13 41  1  0
 14 42  1  0
 16 43  1  0
 17 44  1  0
 18 45  1  0
 19 46  1  0
 22 47  1  0
 23 48  1  0
 25 49  1  0
 26 50  1  0
 27 51  1  0
 28 52  1  0
M  END
>  <smiles>  (5) 
O=C(NCC(=O)N1CCC[C@H]1c1c[nH]c2ccccc12)c1ccc2ccccc2n1

>  <score_type>  (5) 
oracle

>  <origin>  (5) 
autodockgpu

>  <m_score__min__energy>  (5) 
-9.6099999999999994

>  <m_primary>  (5) 
energy

>  <rmsd>  (5) 
1.660626546587784

>  <m_score__min__rmsd>  (5) 
1.660626546587784

>  <meeko>  (5) 
{"free_energy": -9.57, "intermolecular_energy": -11.06, "internal_energy": -1.58, "cluster_size": 26, "cluster_id": 1, "rank_in_cluster": 4}

>  <energy>  (5) 
-9.56

>  <cluster_rmsd>  (5) 
0.05

>  <cluster>  (5) 
1

$$$$

     RDKit          3D

 52 56  0  0  0  0  0  0  0  0999 V2000
  140.7770   71.6660  221.3450 O   0  0  0  0  0  0  0  0  0  0  0  0
  140.3100   72.1760  222.4000 C   0  0  0  0  0  0  0  0  0  0  0  0
  139.8910   73.5310  222.3330 N   0  0  0  0  0  0  0  0  0  0  0  0
  140.0120   74.2420  221.0980 C   0  0  0  0  0  0  0  0  0  0  0  0
  140.5560   75.6230  221.2980 C   0  0  0  0  0  0  0  0  0  0  0  0
  140.4910   76.1870  222.4160 O   0  0  0  0  0  0  0  0  0  0  0  0
  141.1600   76.3260  220.2190 N   0  0  0  0  0  0  0  0  0  0  0  0
  140.7930   76.1180  218.8390 C   0  0  0  0  0  0  0  0  0  0  0  0
  142.0380   76.4510  218.0810 C   0  0  0  0  0  0  0  0  0  0  0  0
  142.9620   77.0920  219.0710 C   0  0  0  0  0  0  0  0  0  0  0  0
  142.1940   77.3130  220.3510 C   0  0  1  0  0  0  0  0  0  0  0  0
  141.7210   78.6920  220.5120 C   0  0  0  0  0  0  0  0  0  0  0  0
  141.0360   79.5300  219.6610 C   0  0  0  0  0  0  0  0  0  0  0  0
  140.8120   80.7210  220.2410 N   0  0  0  0  0  0  0  0  0  0  0  0
  141.3400   80.6900  221.4740 C   0  0  0  0  0  0  0  0  0  0  0  0
  141.3830   81.6590  222.4860 C   0  0  0  0  0  0  0  0  0  0  0  0
  142.0080   81.3450  223.6850 C   0  0  0  0  0  0  0  0  0  0  0  0
  142.5660   80.1020  223.8530 C   0  0  0  0  0  0  0  0  0  0  0  0
  142.5390   79.1210  222.8710 C   0  0  0  0  0  0  0  0  0  0  0  0
  141.9110   79.4440  221.6700 C   0  0  0  0  0  0  0  0  0  0  0  0
  140.1980   71.4160  223.6560 C   0  0  0  0  0  0  0  0  0  0  0  0
  139.5820   70.1810  223.5950 C   0  0  0  0  0  0  0  0  0  0  0  0
  139.4760   69.4700  224.7740 C   0  0  0  0  0  0  0  0  0  0  0  0
  139.9640   69.9680  225.9710 C   0  0  0  0  0  0  0  0  0  0  0  0
  139.8540   69.2500  227.1530 C   0  0  0  0  0  0  0  0  0  0  0  0
  140.3620   69.8090  228.3010 C   0  0  0  0  0  0  0  0  0  0  0  0
  140.9750   71.0500  228.3360 C   0  0  0  0  0  0  0  0  0  0  0  0
  141.0840   71.7730  227.1400 C   0  0  0  0  0  0  0  0  0  0  0  0
  140.5770   71.2190  225.9800 C   0  0  0  0  0  0  0  0  0  0  0  0
  140.6730   71.9020  224.8160 N   0  0  0  0  0  0  0  0  0  0  0  0
  139.4920   74.0270  223.1630 H   0  0  0  0  0  0  0  0  0  0  0  0
  140.6892   73.6862  220.4328 H   0  0  0  0  0  0  0  0  0  0  0  0
  139.0081   74.3322  220.6575 H   0  0  0  0  0  0  0  0  0  0  0  0
  140.4974   75.0727  218.6660 H   0  0  0  0  0  0  0  0  0  0  0  0
  139.9329   76.7312  218.5320 H   0  0  0  0  0  0  0  0  0  0  0  0
  142.4918   75.5371  217.6700 H   0  0  0  0  0  0  0  0  0  0  0  0
  141.8281   77.1192  217.2328 H   0  0  0  0  0  0  0  0  0  0  0  0
  143.8216   76.4324  219.2607 H   0  0  0  0  0  0  0  0  0  0  0  0
  143.3361   78.0496  218.6798 H   0  0  0  0  0  0  0  0  0  0  0  0
  142.7854   77.1954  221.2710 H   0  0  0  0  0  0  0  0  0  0  0  0
  140.7155   79.2608  218.6438 H   0  0  0  0  0  0  0  0  0  0  0  0
  140.3100   81.5680  219.8370 H   0  0  0  0  0  0  0  0  0  0  0  0
  140.9300   82.6496  222.3329 H   0  0  0  0  0  0  0  0  0  0  0  0
  142.0559   82.0874  224.4953 H   0  0  0  0  0  0  0  0  0  0  0  0
  143.0573   79.8726  224.8101 H   0  0  0  0  0  0  0  0  0  0  0  0
  142.9933   78.1325  223.0339 H   0  0  0  0  0  0  0  0  0  0  0  0
  139.1924   69.7809  222.6473 H   0  0  0  0  0  0  0  0  0  0  0  0
  138.9915   68.4825  224.7624 H   0  0  0  0  0  0  0  0  0  0  0  0
  139.3735   68.2607  227.1708 H   0  0  0  0  0  0  0  0  0  0  0  0
  140.2773   69.2418  229.2397 H   0  0  0  0  0  0  0  0  0  0  0  0
  141.3669   71.4585  229.2792 H   0  0  0  0  0  0  0  0  0  0  0  0
  141.5640   72.7626  227.1252 H   0  0  0  0  0  0  0  0  0  0  0  0
  1  2  2  0
  2  3  1  0
  3  4  1  0
  4  5  1  0
  5  6  2  0
  5  7  1  0
  7  8  1  0
  8  9  1  0
  9 10  1  0
 10 11  1  0
 11 12  1  0
 12 13  2  0
 13 14  1  0
 14 15  1  0
 15 16  2  0
 16 17  1  0
 17 18  2  0
 18 19  1  0
 19 20  2  0
  2 21  1  0
 21 22  2  0
 22 23  1  0
 23 24  2  0
 24 25  1  0
 25 26  2  0
 26 27  1  0
 27 28  2  0
 28 29  1  0
 29 30  2  0
 11  7  1  0
 20 12  1  0
 30 21  1  0
 20 15  1  0
 29 24  1  0
  3 31  1  0
  4 32  1  0
  4 33  1  0
  8 34  1  0
  8 35  1  0
  9 36  1  0
  9 37  1  0
 10 38  1  0
 10 39  1  0
 11 40  1  1
 13 41  1  0
 14 42  1  0
 16 43  1  0
 17 44  1  0
 18 45  1  0
 19 46  1  0
 22 47  1  0
 23 48  1  0
 25 49  1  0
 26 50  1  0
 27 51  1  0
 28 52  1  0
M  END
>  <smiles>  (6) 
O=C(NCC(=O)N1CCC[C@H]1c1c[nH]c2ccccc12)c1ccc2ccccc2n1

>  <score_type>  (6) 
oracle

>  <origin>  (6) 
autodockgpu

>  <m_score__min__energy>  (6) 
-9.6099999999999994

>  <m_primary>  (6) 
energy

>  <rmsd>  (6) 
1.6898473430523364

>  <m_score__min__rmsd>  (6) 
1.6898473430523364

>  <meeko>  (6) 
{"free_energy": -9.59, "intermolecular_energy": -11.08, "internal_energy": -1.57, "cluster_size": 26, "cluster_id": 1, "rank_in_cluster": 2}

>  <energy>  (6) 
-9.56

>  <cluster_rmsd>  (6) 
0.11

>  <cluster>  (6) 
1

$$$$

     RDKit          3D

 52 56  0  0  0  0  0  0  0  0999 V2000
  140.8280   71.2760  221.7360 O   0  0  0  0  0  0  0  0  0  0  0  0
  140.4020   71.8430  222.7790 C   0  0  0  0  0  0  0  0  0  0  0  0
  139.9370   73.1770  222.6450 N   0  0  0  0  0  0  0  0  0  0  0  0
  139.9680   73.8060  221.3610 C   0  0  0  0  0  0  0  0  0  0  0  0
  140.2330   75.2770  221.4640 C   0  0  0  0  0  0  0  0  0  0  0  0
  139.8930   75.9250  222.4820 O   0  0  0  0  0  0  0  0  0  0  0  0
  140.8800   75.9710  220.4040 N   0  0  0  0  0  0  0  0  0  0  0  0
  140.5900   75.7300  219.0120 C   0  0  0  0  0  0  0  0  0  0  0  0
  141.8670   76.0730  218.3130 C   0  0  0  0  0  0  0  0  0  0  0  0
  142.7250   76.7520  219.3380 C   0  0  0  0  0  0  0  0  0  0  0  0
  141.8870   76.9810  220.5710 C   0  0  1  0  0  0  0  0  0  0  0  0
  141.3790   78.3530  220.6800 C   0  0  0  0  0  0  0  0  0  0  0  0
  140.5490   79.0890  219.8640 C   0  0  0  0  0  0  0  0  0  0  0  0
  140.3530   80.3200  220.3680 N   0  0  0  0  0  0  0  0  0  0  0  0
  141.0440   80.4160  221.5140 C   0  0  0  0  0  0  0  0  0  0  0  0
  141.1810   81.4720  222.4250 C   0  0  0  0  0  0  0  0  0  0  0  0
  141.9750   81.2870  223.5480 C   0  0  0  0  0  0  0  0  0  0  0  0
  142.6050   80.0820  223.7410 C   0  0  0  0  0  0  0  0  0  0  0  0
  142.4890   79.0170  222.8580 C   0  0  0  0  0  0  0  0  0  0  0  0
  141.6900   79.2110  221.7330 C   0  0  0  0  0  0  0  0  0  0  0  0
  140.3820   71.1670  224.0870 C   0  0  0  0  0  0  0  0  0  0  0  0
  140.8220   71.8900  225.1800 C   0  0  0  0  0  0  0  0  0  0  0  0
  140.8050   71.2540  226.4060 C   0  0  0  0  0  0  0  0  0  0  0  0
  140.3670   69.9480  226.5410 C   0  0  0  0  0  0  0  0  0  0  0  0
  140.3520   69.3130  227.7750 C   0  0  0  0  0  0  0  0  0  0  0  0
  139.9030   68.0140  227.8310 C   0  0  0  0  0  0  0  0  0  0  0  0
  139.4680   67.3110  226.7200 C   0  0  0  0  0  0  0  0  0  0  0  0
  139.4850   67.9550  225.4760 C   0  0  0  0  0  0  0  0  0  0  0  0
  139.9330   69.2600  225.4080 C   0  0  0  0  0  0  0  0  0  0  0  0
  139.9570   69.8990  224.2150 N   0  0  0  0  0  0  0  0  0  0  0  0
  139.5670   73.7180  223.4620 H   0  0  0  0  0  0  0  0  0  0  0  0
  140.7629   73.3432  220.7577 H   0  0  0  0  0  0  0  0  0  0  0  0
  138.9825   73.6699  220.8916 H   0  0  0  0  0  0  0  0  0  0  0  0
  140.3233   74.6760  218.8447 H   0  0  0  0  0  0  0  0  0  0  0  0
  139.7360   76.3204  218.6485 H   0  0  0  0  0  0  0  0  0  0  0  0
  142.3593   75.1606  217.9453 H   0  0  0  0  0  0  0  0  0  0  0  0
  141.6898   76.7198  217.4411 H   0  0  0  0  0  0  0  0  0  0  0  0
  143.5863   76.1140  219.5854 H   0  0  0  0  0  0  0  0  0  0  0  0
  143.1000   77.7098  218.9480 H   0  0  0  0  0  0  0  0  0  0  0  0
  142.4316   76.8924  221.5226 H   0  0  0  0  0  0  0  0  0  0  0  0
  140.1064   78.7199  218.9270 H   0  0  0  0  0  0  0  0  0  0  0  0
  139.7640   81.1110  219.9680 H   0  0  0  0  0  0  0  0  0  0  0  0
  140.6685   82.4300  222.2531 H   0  0  0  0  0  0  0  0  0  0  0  0
  142.0989   82.0999  224.2786 H   0  0  0  0  0  0  0  0  0  0  0  0
  143.2306   79.9548  224.6368 H   0  0  0  0  0  0  0  0  0  0  0  0
  143.0049   78.0624  223.0385 H   0  0  0  0  0  0  0  0  0  0  0  0
  141.1710   72.9281  225.0777 H   0  0  0  0  0  0  0  0  0  0  0  0
  141.1482   71.7992  227.2976 H   0  0  0  0  0  0  0  0  0  0  0  0
  140.6898   69.8340  228.6830 H   0  0  0  0  0  0  0  0  0  0  0  0
  139.8887   67.5081  228.8076 H   0  0  0  0  0  0  0  0  0  0  0  0
  139.1177   66.2723  226.8120 H   0  0  0  0  0  0  0  0  0  0  0  0
  139.1477   67.4309  224.5696 H   0  0  0  0  0  0  0  0  0  0  0  0
  1  2  2  0
  2  3  1  0
  3  4  1  0
  4  5  1  0
  5  6  2  0
  5  7  1  0
  7  8  1  0
  8  9  1  0
  9 10  1  0
 10 11  1  0
 11 12  1  0
 12 13  2  0
 13 14  1  0
 14 15  1  0
 15 16  2  0
 16 17  1  0
 17 18  2  0
 18 19  1  0
 19 20  2  0
  2 21  1  0
 21 22  2  0
 22 23  1  0
 23 24  2  0
 24 25  1  0
 25 26  2  0
 26 27  1  0
 27 28  2  0
 28 29  1  0
 29 30  2  0
 11  7  1  0
 20 12  1  0
 30 21  1  0
 20 15  1  0
 29 24  1  0
  3 31  1  0
  4 32  1  0
  4 33  1  0
  8 34  1  0
  8 35  1  0
  9 36  1  0
  9 37  1  0
 10 38  1  0
 10 39  1  0
 11 40  1  1
 13 41  1  0
 14 42  1  0
 16 43  1  0
 17 44  1  0
 18 45  1  0
 19 46  1  0
 22 47  1  0
 23 48  1  0
 25 49  1  0
 26 50  1  0
 27 51  1  0
 28 52  1  0
M  END
>  <smiles>  (7) 
O=C(NCC(=O)N1CCC[C@H]1c1c[nH]c2ccccc12)c1ccc2ccccc2n1

>  <score_type>  (7) 
oracle

>  <origin>  (7) 
autodockgpu

>  <m_score__min__energy>  (7) 
-9.6099999999999994

>  <m_primary>  (7) 
energy

>  <rmsd>  (7) 
2.7706489473622633

>  <m_score__min__rmsd>  (7) 
2.7706489473622633

>  <meeko>  (7) 
{"free_energy": -9.02, "intermolecular_energy": -10.51, "internal_energy": -1.51, "cluster_size": 26, "cluster_id": 1, "rank_in_cluster": 22}

>  <energy>  (7) 
-9.52

>  <cluster_rmsd>  (7) 
0.23

>  <cluster>  (7) 
1

$$$$

     RDKit          3D

 52 56  0  0  0  0  0  0  0  0999 V2000
  140.6770   73.1360  222.3160 O   0  0  0  0  0  0  0  0  0  0  0  0
  139.6820   72.4550  222.6870 C   0  0  0  0  0  0  0  0  0  0  0  0
  138.4740   72.6300  221.9630 N   0  0  0  0  0  0  0  0  0  0  0  0
  138.4380   73.5490  220.8680 C   0  0  0  0  0  0  0  0  0  0  0  0
  137.2070   74.4020  220.8930 C   0  0  0  0  0  0  0  0  0  0  0  0
  136.2760   74.2150  220.0750 O   0  0  0  0  0  0  0  0  0  0  0  0
  137.0690   75.4450  221.8500 N   0  0  0  0  0  0  0  0  0  0  0  0
  136.4280   75.2610  223.1280 C   0  0  0  0  0  0  0  0  0  0  0  0
  135.8890   76.6160  223.4600 C   0  0  0  0  0  0  0  0  0  0  0  0
  136.4980   77.5540  222.4630 C   0  0  0  0  0  0  0  0  0  0  0  0
  137.5370   76.7910  221.6780 C   0  0  1  0  0  0  0  0  0  0  0  0
  138.9080   77.0370  222.1390 C   0  0  0  0  0  0  0  0  0  0  0  0
  140.0000   76.2060  222.2450 C   0  0  0  0  0  0  0  0  0  0  0  0
  141.0640   76.8740  222.7240 N   0  0  0  0  0  0  0  0  0  0  0  0
  140.6940   78.1450  222.9410 C   0  0  0  0  0  0  0  0  0  0  0  0
  141.4110   79.2460  223.4300 C   0  0  0  0  0  0  0  0  0  0  0  0
  140.7610   80.4660  223.5520 C   0  0  0  0  0  0  0  0  0  0  0  0
  139.4400   80.5680  223.1940 C   0  0  0  0  0  0  0  0  0  0  0  0
  138.7020   79.4970  222.7060 C   0  0  0  0  0  0  0  0  0  0  0  0
  139.3620   78.2750  222.5870 C   0  0  0  0  0  0  0  0  0  0  0  0
  139.7530   71.5160  223.8180 C   0  0  0  0  0  0  0  0  0  0  0  0
  139.2310   70.2510  223.6230 C   0  0  0  0  0  0  0  0  0  0  0  0
  139.2960   69.3710  224.6860 C   0  0  0  0  0  0  0  0  0  0  0  0
  139.8580   69.7340  225.8980 C   0  0  0  0  0  0  0  0  0  0  0  0
  139.9200   68.8470  226.9630 C   0  0  0  0  0  0  0  0  0  0  0  0
  140.4920   69.2800  228.1360 C   0  0  0  0  0  0  0  0  0  0  0  0
  141.0080   70.5540  228.3060 C   0  0  0  0  0  0  0  0  0  0  0  0
  140.9430   71.4480  227.2280 C   0  0  0  0  0  0  0  0  0  0  0  0
  140.3700   71.0230  226.0450 C   0  0  0  0  0  0  0  0  0  0  0  0
  140.2990   71.8710  224.9930 N   0  0  0  0  0  0  0  0  0  0  0  0
  137.6040   72.1010  222.2050 H   0  0  0  0  0  0  0  0  0  0  0  0
  139.3228   74.2004  220.9215 H   0  0  0  0  0  0  0  0  0  0  0  0
  138.4294   72.9664  219.9350 H   0  0  0  0  0  0  0  0  0  0  0  0
  135.6149   74.5237  223.0552 H   0  0  0  0  0  0  0  0  0  0  0  0
  137.1164   74.8790  223.8962 H   0  0  0  0  0  0  0  0  0  0  0  0
  134.7925   76.6238  223.3729 H   0  0  0  0  0  0  0  0  0  0  0  0
  136.1345   76.9073  224.4919 H   0  0  0  0  0  0  0  0  0  0  0  0
  135.7203   77.9325  221.7833 H   0  0  0  0  0  0  0  0  0  0  0  0
  136.9600   78.4100  222.9767 H   0  0  0  0  0  0  0  0  0  0  0  0
  137.6256   77.0839  220.6214 H   0  0  0  0  0  0  0  0  0  0  0  0
  140.0020   75.1398  221.9745 H   0  0  0  0  0  0  0  0  0  0  0  0
  142.0440   76.5050  222.9150 H   0  0  0  0  0  0  0  0  0  0  0  0
  142.4694   79.1447  223.7118 H   0  0  0  0  0  0  0  0  0  0  0  0
  141.3009   81.3454  223.9331 H   0  0  0  0  0  0  0  0  0  0  0  0
  138.9423   81.5434  223.2984 H   0  0  0  0  0  0  0  0  0  0  0  0
  137.6441   79.6083  222.4260 H   0  0  0  0  0  0  0  0  0  0  0  0
  138.7829   69.9575  222.6623 H   0  0  0  0  0  0  0  0  0  0  0  0
  138.8907   68.3554  224.5663 H   0  0  0  0  0  0  0  0  0  0  0  0
  139.5225   67.8254  226.8715 H   0  0  0  0  0  0  0  0  0  0  0  0
  140.5423   68.5791  228.9823 H   0  0  0  0  0  0  0  0  0  0  0  0
  141.4577   70.8569  229.2631 H   0  0  0  0  0  0  0  0  0  0  0  0
  141.3410   72.4691  227.3224 H   0  0  0  0  0  0  0  0  0  0  0  0
  1  2  2  0
  2  3  1  0
  3  4  1  0
  4  5  1  0
  5  6  2  0
  5  7  1  0
  7  8  1  0
  8  9  1  0
  9 10  1  0
 10 11  1  0
 11 12  1  0
 12 13  2  0
 13 14  1  0
 14 15  1  0
 15 16  2  0
 16 17  1  0
 17 18  2  0
 18 19  1  0
 19 20  2  0
  2 21  1  0
 21 22  2  0
 22 23  1  0
 23 24  2  0
 24 25  1  0
 25 26  2  0
 26 27  1  0
 27 28  2  0
 28 29  1  0
 29 30  2  0
 11  7  1  0
 20 12  1  0
 30 21  1  0
 20 15  1  0
 29 24  1  0
  3 31  1  0
  4 32  1  0
  4 33  1  0
  8 34  1  0
  8 35  1  0
  9 36  1  0
  9 37  1  0
 10 38  1  0
 10 39  1  0
 11 40  1  6
 13 41  1  0
 14 42  1  0
 16 43  1  0
 17 44  1  0
 18 45  1  0
 19 46  1  0
 22 47  1  0
 23 48  1  0
 25 49  1  0
 26 50  1  0
 27 51  1  0
 28 52  1  0
M  END
>  <smiles>  (8) 
O=C(NCC(=O)N1CCC[C@H]1c1c[nH]c2ccccc12)c1ccc2ccccc2n1

>  <score_type>  (8) 
oracle

>  <origin>  (8) 
autodockgpu

>  <m_score__min__energy>  (8) 
-9.6099999999999994

>  <m_primary>  (8) 
energy

>  <rmsd>  (8) 
3.503769298591115

>  <m_score__min__rmsd>  (8) 
3.503769298591115

>  <meeko>  (8) 
{"free_energy": -8.84, "intermolecular_energy": -10.33, "internal_energy": -1.32, "cluster_size": 3, "cluster_id": 3, "rank_in_cluster": 3}

>  <energy>  (8) 
-9.52

>  <cluster_rmsd>  (8) 
0.25

>  <cluster>  (8) 
1

$$$$

     RDKit          3D

 52 56  0  0  0  0  0  0  0  0999 V2000
  140.6820   73.9610  219.7830 O   0  0  0  0  0  0  0  0  0  0  0  0
  140.5480   74.5500  220.8910 C   0  0  0  0  0  0  0  0  0  0  0  0
  139.9650   73.8060  221.9500 N   0  0  0  0  0  0  0  0  0  0  0  0
  139.5650   72.4520  221.7210 C   0  0  0  0  0  0  0  0  0  0  0  0
  139.8090   71.5860  222.9190 C   0  0  0  0  0  0  0  0  0  0  0  0
  140.7200   71.8560  223.7360 O   0  0  0  0  0  0  0  0  0  0  0  0
  139.0070   70.4350  223.1530 N   0  0  0  0  0  0  0  0  0  0  0  0
  138.8710   69.3620  222.1990 C   0  0  0  0  0  0  0  0  0  0  0  0
  137.5160   68.7950  222.4840 C   0  0  0  0  0  0  0  0  0  0  0  0
  137.0760   69.4170  223.7750 C   0  0  0  0  0  0  0  0  0  0  0  0
  138.2420   70.1890  224.3430 C   0  0  1  0  0  0  0  0  0  0  0  0
  138.9540   69.4670  225.4030 C   0  0  0  0  0  0  0  0  0  0  0  0
  139.0160   68.1280  225.7150 C   0  0  0  0  0  0  0  0  0  0  0  0
  139.8040   67.9230  226.7850 N   0  0  0  0  0  0  0  0  0  0  0  0
  140.2700   69.1130  227.1930 C   0  0  0  0  0  0  0  0  0  0  0  0
  141.1210   69.4590  228.2520 C   0  0  0  0  0  0  0  0  0  0  0  0
  141.4400   70.7960  228.4420 C   0  0  0  0  0  0  0  0  0  0  0  0
  140.9210   71.7440  227.5970 C   0  0  0  0  0  0  0  0  0  0  0  0
  140.0760   71.4340  226.5390 C   0  0  0  0  0  0  0  0  0  0  0  0
  139.7590   70.0890  226.3550 C   0  0  0  0  0  0  0  0  0  0  0  0
  140.9700   75.9450  221.0950 C   0  0  0  0  0  0  0  0  0  0  0  0
  141.3070   76.6750  219.9710 C   0  0  0  0  0  0  0  0  0  0  0  0
  141.7050   77.9830  220.1630 C   0  0  0  0  0  0  0  0  0  0  0  0
  141.7660   78.5460  221.4270 C   0  0  0  0  0  0  0  0  0  0  0  0
  142.1670   79.8610  221.6150 C   0  0  0  0  0  0  0  0  0  0  0  0
  142.2030   80.3510  222.8990 C   0  0  0  0  0  0  0  0  0  0  0  0
  141.8600   79.5980  224.0100 C   0  0  0  0  0  0  0  0  0  0  0  0
  141.4560   78.2700  223.8160 C   0  0  0  0  0  0  0  0  0  0  0  0
  141.4160   77.7690  222.5300 C   0  0  0  0  0  0  0  0  0  0  0  0
  141.0280   76.4890  222.3220 N   0  0  0  0  0  0  0  0  0  0  0  0
  139.8190   74.2200  222.9010 H   0  0  0  0  0  0  0  0  0  0  0  0
  138.4914   72.4341  221.4822 H   0  0  0  0  0  0  0  0  0  0  0  0
  140.1639   72.0565  220.8874 H   0  0  0  0  0  0  0  0  0  0  0  0
  138.9261   69.7448  221.1692 H   0  0  0  0  0  0  0  0  0  0  0  0
  139.6712   68.6124  222.2875 H   0  0  0  0  0  0  0  0  0  0  0  0
  136.8153   69.0528  221.6762 H   0  0  0  0  0  0  0  0  0  0  0  0
  137.5426   67.6974  222.5519 H   0  0  0  0  0  0  0  0  0  0  0  0
  136.2313   70.0976  223.5925 H   0  0  0  0  0  0  0  0  0  0  0  0
  136.7519   68.6395  224.4824 H   0  0  0  0  0  0  0  0  0  0  0  0
  137.9699   71.1111  224.8775 H   0  0  0  0  0  0  0  0  0  0  0  0
  138.4920   67.3333  225.1638 H   0  0  0  0  0  0  0  0  0  0  0  0
  140.0460   67.0020  227.2600 H   0  0  0  0  0  0  0  0  0  0  0  0
  141.5281   68.6853  228.9196 H   0  0  0  0  0  0  0  0  0  0  0  0
  142.1054   71.0941  229.2656 H   0  0  0  0  0  0  0  0  0  0  0  0
  141.1863   72.7982  227.7651 H   0  0  0  0  0  0  0  0  0  0  0  0
  139.6750   72.2148  225.8761 H   0  0  0  0  0  0  0  0  0  0  0  0
  141.2601   76.2323  218.9651 H   0  0  0  0  0  0  0  0  0  0  0  0
  141.9805   78.5933  219.2903 H   0  0  0  0  0  0  0  0  0  0  0  0
  142.4483   80.4939  220.7604 H   0  0  0  0  0  0  0  0  0  0  0  0
  142.5200   81.3932  223.0518 H   0  0  0  0  0  0  0  0  0  0  0  0
  141.9036   80.0318  225.0199 H   0  0  0  0  0  0  0  0  0  0  0  0
  141.1760   77.6387  224.6722 H   0  0  0  0  0  0  0  0  0  0  0  0
  1  2  2  0
  2  3  1  0
  3  4  1  0
  4  5  1  0
  5  6  2  0
  5  7  1  0
  7  8  1  0
  8  9  1  0
  9 10  1  0
 10 11  1  0
 11 12  1  0
 12 13  2  0
 13 14  1  0
 14 15  1  0
 15 16  2  0
 16 17  1  0
 17 18  2  0
 18 19  1  0
 19 20  2  0
  2 21  1  0
 21 22  2  0
 22 23  1  0
 23 24  2  0
 24 25  1  0
 25 26  2  0
 26 27  1  0
 27 28  2  0
 28 29  1  0
 29 30  2  0
 11  7  1  0
 20 12  1  0
 30 21  1  0
 20 15  1  0
 29 24  1  0
  3 31  1  0
  4 32  1  0
  4 33  1  0
  8 34  1  0
  8 35  1  0
  9 36  1  0
  9 37  1  0
 10 38  1  0
 10 39  1  0
 11 40  1  1
 13 41  1  0
 14 42  1  0
 16 43  1  0
 17 44  1  0
 18 45  1  0
 19 46  1  0
 22 47  1  0
 23 48  1  0
 25 49  1  0
 26 50  1  0
 27 51  1  0
 28 52  1  0
M  END
>  <smiles>  (9) 
O=C(NCC(=O)N1CCC[C@H]1c1c[nH]c2ccccc12)c1ccc2ccccc2n1

>  <score_type>  (9) 
oracle

>  <origin>  (9) 
autodockgpu

>  <m_score__min__energy>  (9) 
-9.6099999999999994

>  <m_primary>  (9) 
energy

>  <rmsd>  (9) 
8.228595302420809

>  <m_score__min__rmsd>  (9) 
8.228595302420809

>  <meeko>  (9) 
{"free_energy": -9.38, "intermolecular_energy": -10.87, "internal_energy": -1.6, "cluster_size": 13, "cluster_id": 2, "rank_in_cluster": 3}

>  <energy>  (9) 
-9.52

>  <cluster_rmsd>  (9) 
0.44

>  <cluster>  (9) 
1

$$$$

     RDKit          3D

 52 56  0  0  0  0  0  0  0  0999 V2000
  140.3270   73.3670  220.4600 O   0  0  0  0  0  0  0  0  0  0  0  0
  140.0300   74.2370  221.3240 C   0  0  0  0  0  0  0  0  0  0  0  0
  139.1210   73.8500  222.3430 N   0  0  0  0  0  0  0  0  0  0  0  0
  138.5940   72.5200  222.3470 C   0  0  0  0  0  0  0  0  0  0  0  0
  139.6460   71.5020  222.6650 C   0  0  0  0  0  0  0  0  0  0  0  0
  140.8330   71.8440  222.8770 O   0  0  0  0  0  0  0  0  0  0  0  0
  139.3160   70.1200  222.7340 N   0  0  0  0  0  0  0  0  0  0  0  0
  139.8110   69.1440  221.7950 C   0  0  0  0  0  0  0  0  0  0  0  0
  138.7500   68.0900  221.7770 C   0  0  0  0  0  0  0  0  0  0  0  0
  137.8380   68.4080  222.9230 C   0  0  0  0  0  0  0  0  0  0  0  0
  138.4660   69.5220  223.7240 C   0  0  1  0  0  0  0  0  0  0  0  0
  139.1530   69.0510  224.9320 C   0  0  0  0  0  0  0  0  0  0  0  0
  139.3140   67.7890  225.4600 C   0  0  0  0  0  0  0  0  0  0  0  0
  140.0270   67.8350  226.5980 N   0  0  0  0  0  0  0  0  0  0  0  0
  140.3450   69.1160  226.8390 C   0  0  0  0  0  0  0  0  0  0  0  0
  141.0710   69.7080  227.8820 C   0  0  0  0  0  0  0  0  0  0  0  0
  141.2480   71.0850  227.8740 C   0  0  0  0  0  0  0  0  0  0  0  0
  140.7130   71.8320  226.8540 C   0  0  0  0  0  0  0  0  0  0  0  0
  139.9900   71.2750  225.8070 C   0  0  0  0  0  0  0  0  0  0  0  0
  139.8160   69.8930  225.8220 C   0  0  0  0  0  0  0  0  0  0  0  0
  140.5900   75.5980  221.2930 C   0  0  0  0  0  0  0  0  0  0  0  0
  141.1440   76.0270  220.1030 C   0  0  0  0  0  0  0  0  0  0  0  0
  141.6710   77.3030  220.0750 C   0  0  0  0  0  0  0  0  0  0  0  0
  141.6480   78.1240  221.1900 C   0  0  0  0  0  0  0  0  0  0  0  0
  142.1790   79.4050  221.1580 C   0  0  0  0  0  0  0  0  0  0  0  0
  142.1210   80.1610  222.3040 C   0  0  0  0  0  0  0  0  0  0  0  0
  141.5600   79.7070  223.4870 C   0  0  0  0  0  0  0  0  0  0  0  0
  141.0240   78.4130  223.5160 C   0  0  0  0  0  0  0  0  0  0  0  0
  141.0780   77.6450  222.3690 C   0  0  0  0  0  0  0  0  0  0  0  0
  140.5660   76.3920  222.3770 N   0  0  0  0  0  0  0  0  0  0  0  0
  138.8230   74.5110  223.0980 H   0  0  0  0  0  0  0  0  0  0  0  0
  137.7972   72.4557  223.1027 H   0  0  0  0  0  0  0  0  0  0  0  0
  138.2053   72.3049  221.3407 H   0  0  0  0  0  0  0  0  0  0  0  0
  139.9366   69.5897  220.7972 H   0  0  0  0  0  0  0  0  0  0  0  0
  140.7976   68.7473  222.0767 H   0  0  0  0  0  0  0  0  0  0  0  0
  138.1962   68.1204  220.8271 H   0  0  0  0  0  0  0  0  0  0  0  0
  139.1798   67.0817  221.8697 H   0  0  0  0  0  0  0  0  0  0  0  0
  136.8575   68.7294  222.5417 H   0  0  0  0  0  0  0  0  0  0  0  0
  137.6930   67.5187  223.5539 H   0  0  0  0  0  0  0  0  0  0  0  0
  137.7523   70.2340  224.1642 H   0  0  0  0  0  0  0  0  0  0  0  0
  138.9132   66.8683  225.0109 H   0  0  0  0  0  0  0  0  0  0  0  0
  140.3140   67.0280  227.2310 H   0  0  0  0  0  0  0  0  0  0  0  0
  141.4923   69.0933  228.6911 H   0  0  0  0  0  0  0  0  0  0  0  0
  141.8137   71.5747  228.6803 H   0  0  0  0  0  0  0  0  0  0  0  0
  140.8638   72.9215  226.8665 H   0  0  0  0  0  0  0  0  0  0  0  0
  139.5733   71.8976  225.0016 H   0  0  0  0  0  0  0  0  0  0  0  0
  141.1646   75.3791  219.2143 H   0  0  0  0  0  0  0  0  0  0  0  0
  142.1206   77.6769  219.1433 H   0  0  0  0  0  0  0  0  0  0  0  0
  142.6343   79.8049  220.2400 H   0  0  0  0  0  0  0  0  0  0  0  0
  142.5409   81.1774  222.2812 H   0  0  0  0  0  0  0  0  0  0  0  0
  141.5361   80.3470  224.3813 H   0  0  0  0  0  0  0  0  0  0  0  0
  140.5685   78.0158  224.4351 H   0  0  0  0  0  0  0  0  0  0  0  0
  1  2  2  0
  2  3  1  0
  3  4  1  0
  4  5  1  0
  5  6  2  0
  5  7  1  0
  7  8  1  0
  8  9  1  0
  9 10  1  0
 10 11  1  0
 11 12  1  0
 12 13  2  0
 13 14  1  0
 14 15  1  0
 15 16  2  0
 16 17  1  0
 17 18  2  0
 18 19  1  0
 19 20  2  0
  2 21  1  0
 21 22  2  0
 22 23  1  0
 23 24  2  0
 24 25  1  0
 25 26  2  0
 26 27  1  0
 27 28  2  0
 28 29  1  0
 29 30  2  0
 11  7  1  0
 20 12  1  0
 30 21  1  0
 20 15  1  0
 29 24  1  0
  3 31  1  0
  4 32  1  0
  4 33  1  0
  8 34  1  0
  8 35  1  0
  9 36  1  0
  9 37  1  0
 10 38  1  0
 10 39  1  0
 11 40  1  1
 13 41  1  0
 14 42  1  0
 16 43  1  0
 17 44  1  0
 18 45  1  0
 19 46  1  0
 22 47  1  0
 23 48  1  0
 25 49  1  0
 26 50  1  0
 27 51  1  0
 28 52  1  0
M  END
>  <smiles>  (10) 
O=C(NCC(=O)N1CCC[C@H]1c1c[nH]c2ccccc12)c1ccc2ccccc2n1

>  <score_type>  (10) 
oracle

>  <origin>  (10) 
autodockgpu

>  <m_score__min__energy>  (10) 
-9.6099999999999994

>  <m_primary>  (10) 
energy

>  <rmsd>  (10) 
8.142208441509686

>  <m_score__min__rmsd>  (10) 
8.142208441509686

>  <meeko>  (10) 
{"free_energy": -9.17, "intermolecular_energy": -10.66, "internal_energy": -1.56, "cluster_size": 13, "cluster_id": 2, "rank_in_cluster": 6}

>  <energy>  (10) 
-9.51

>  <cluster_rmsd>  (10) 
0.2

>  <cluster>  (10) 
1

$$$$

     RDKit          3D

 52 56  0  0  0  0  0  0  0  0999 V2000
  140.1030   71.1140  221.3590 O   0  0  0  0  0  0  0  0  0  0  0  0
  139.8560   71.6250  222.4860 C   0  0  0  0  0  0  0  0  0  0  0  0
  139.5040   73.0000  222.5080 N   0  0  0  0  0  0  0  0  0  0  0  0
  139.4450   73.7300  221.2800 C   0  0  0  0  0  0  0  0  0  0  0  0
  139.1020   75.1710  221.5000 C   0  0  0  0  0  0  0  0  0  0  0  0
  138.1090   75.5010  222.1900 O   0  0  0  0  0  0  0  0  0  0  0  0
  139.9020   76.1990  220.9280 N   0  0  0  0  0  0  0  0  0  0  0  0
  139.7610   76.6390  219.5610 C   0  0  0  0  0  0  0  0  0  0  0  0
  141.1260   77.1320  219.1990 C   0  0  0  0  0  0  0  0  0  0  0  0
  141.8950   77.1900  220.4840 C   0  0  0  0  0  0  0  0  0  0  0  0
  140.9340   76.9230  221.6160 C   0  0  1  0  0  0  0  0  0  0  0  0
  140.4890   78.1420  222.2980 C   0  0  0  0  0  0  0  0  0  0  0  0
  139.2330   78.6020  222.6250 C   0  0  0  0  0  0  0  0  0  0  0  0
  139.3070   79.7870  223.2560 N   0  0  0  0  0  0  0  0  0  0  0  0
  140.6010   80.1260  223.3550 C   0  0  0  0  0  0  0  0  0  0  0  0
  141.2220   81.2500  223.9170 C   0  0  0  0  0  0  0  0  0  0  0  0
  142.6060   81.3390  223.8760 C   0  0  0  0  0  0  0  0  0  0  0  0
  143.3330   80.3320  223.2890 C   0  0  0  0  0  0  0  0  0  0  0  0
  142.7480   79.2070  222.7240 C   0  0  0  0  0  0  0  0  0  0  0  0
  141.3570   79.1250  222.7690 C   0  0  0  0  0  0  0  0  0  0  0  0
  139.9250   70.8460  223.7330 C   0  0  0  0  0  0  0  0  0  0  0  0
  139.4620   69.5450  223.6930 C   0  0  0  0  0  0  0  0  0  0  0  0
  139.5260   68.8160  224.8640 C   0  0  0  0  0  0  0  0  0  0  0  0
  140.0310   69.3600  226.0330 C   0  0  0  0  0  0  0  0  0  0  0  0
  140.0920   68.6240  227.2070 C   0  0  0  0  0  0  0  0  0  0  0  0
  140.6070   69.2310  228.3280 C   0  0  0  0  0  0  0  0  0  0  0  0
  141.0650   70.5380  228.3420 C   0  0  0  0  0  0  0  0  0  0  0  0
  141.0010   71.2790  227.1550 C   0  0  0  0  0  0  0  0  0  0  0  0
  140.4860   70.6770  226.0230 C   0  0  0  0  0  0  0  0  0  0  0  0
  140.4160   71.3770  224.8660 N   0  0  0  0  0  0  0  0  0  0  0  0
  139.2830   73.4990  223.4010 H   0  0  0  0  0  0  0  0  0  0  0  0
  140.4248   73.6699  220.7837 H   0  0  0  0  0  0  0  0  0  0  0  0
  138.6556   73.2841  220.6572 H   0  0  0  0  0  0  0  0  0  0  0  0
  139.4610   75.8044  218.9102 H   0  0  0  0  0  0  0  0  0  0  0  0
  138.9859   77.4104  219.4415 H   0  0  0  0  0  0  0  0  0  0  0  0
  141.6091   76.4387  218.4948 H   0  0  0  0  0  0  0  0  0  0  0  0
  141.0836   78.1157  218.7086 H   0  0  0  0  0  0  0  0  0  0  0  0
  142.6874   76.4270  220.4794 H   0  0  0  0  0  0  0  0  0  0  0  0
  142.3622   78.1785  220.6050 H   0  0  0  0  0  0  0  0  0  0  0  0
  141.3606   76.3644  222.4622 H   0  0  0  0  0  0  0  0  0  0  0  0
  138.2958   78.0717  222.4004 H   0  0  0  0  0  0  0  0  0  0  0  0
  138.5110   80.3870  223.6300 H   0  0  0  0  0  0  0  0  0  0  0  0
  140.6230   82.0469  224.3820 H   0  0  0  0  0  0  0  0  0  0  0  0
  143.1178   82.2102  224.3107 H   0  0  0  0  0  0  0  0  0  0  0  0
  144.4291   80.4212  223.2656 H   0  0  0  0  0  0  0  0  0  0  0  0
  143.3552   78.4151  222.2612 H   0  0  0  0  0  0  0  0  0  0  0  0
  139.0593   69.1082  222.7672 H   0  0  0  0  0  0  0  0  0  0  0  0
  139.1666   67.7764  224.8683 H   0  0  0  0  0  0  0  0  0  0  0  0
  139.7380   67.5831  227.2403 H   0  0  0  0  0  0  0  0  0  0  0  0
  140.6578   68.6495  229.2604 H   0  0  0  0  0  0  0  0  0  0  0  0
  141.4692   70.9834  229.2630 H   0  0  0  0  0  0  0  0  0  0  0  0
  141.3541   72.3204  227.1247 H   0  0  0  0  0  0  0  0  0  0  0  0
  1  2  2  0
  2  3  1  0
  3  4  1  0
  4  5  1  0
  5  6  2  0
  5  7  1  0
  7  8  1  0
  8  9  1  0
  9 10  1  0
 10 11  1  0
 11 12  1  0
 12 13  2  0
 13 14  1  0
 14 15  1  0
 15 16  2  0
 16 17  1  0
 17 18  2  0
 18 19  1  0
 19 20  2  0
  2 21  1  0
 21 22  2  0
 22 23  1  0
 23 24  2  0
 24 25  1  0
 25 26  2  0
 26 27  1  0
 27 28  2  0
 28 29  1  0
 29 30  2  0
 11  7  1  0
 20 12  1  0
 30 21  1  0
 20 15  1  0
 29 24  1  0
  3 31  1  0
  4 32  1  0
  4 33  1  0
  8 34  1  0
  8 35  1  0
  9 36  1  0
  9 37  1  0
 10 38  1  0
 10 39  1  0
 11 40  1  1
 13 41  1  0
 14 42  1  0
 16 43  1  0
 17 44  1  0
 18 45  1  0
 19 46  1  0
 22 47  1  0
 23 48  1  0
 25 49  1  0
 26 50  1  0
 27 51  1  0
 28 52  1  0
M  END
>  <smiles>  (11) 
O=C(NCC(=O)N1CCC[C@H]1c1c[nH]c2ccccc12)c1ccc2ccccc2n1

>  <score_type>  (11) 
oracle

>  <origin>  (11) 
autodockgpu

>  <m_score__min__energy>  (11) 
-9.6099999999999994

>  <m_primary>  (11) 
energy

>  <rmsd>  (11) 
1.5975558125606086

>  <m_score__min__rmsd>  (11) 
1.5975558125606086

>  <meeko>  (11) 
{"free_energy": -9.36, "intermolecular_energy": -10.85, "internal_energy": -1.38, "cluster_size": 26, "cluster_id": 1, "rank_in_cluster": 17}

>  <energy>  (11) 
-9.51

>  <cluster_rmsd>  (11) 
0.26

>  <cluster>  (11) 
1

$$$$

     RDKit          3D

 52 56  0  0  0  0  0  0  0  0999 V2000
  140.0380   73.9050  220.1860 O   0  0  0  0  0  0  0  0  0  0  0  0
  139.9850   74.6050  221.2340 C   0  0  0  0  0  0  0  0  0  0  0  0
  139.3380   74.0340  222.3610 N   0  0  0  0  0  0  0  0  0  0  0  0
  138.7860   72.7180  222.2610 C   0  0  0  0  0  0  0  0  0  0  0  0
  139.7250   71.6760  222.7850 C   0  0  0  0  0  0  0  0  0  0  0  0
  140.8580   71.9880  223.2220 O   0  0  0  0  0  0  0  0  0  0  0  0
  139.3480   70.3040  222.8000 N   0  0  0  0  0  0  0  0  0  0  0  0
  139.8330   69.3440  221.8390 C   0  0  0  0  0  0  0  0  0  0  0  0
  138.7390   68.3280  221.7610 C   0  0  0  0  0  0  0  0  0  0  0  0
  137.8090   68.6390  222.8940 C   0  0  0  0  0  0  0  0  0  0  0  0
  138.4530   69.7030  223.7480 C   0  0  1  0  0  0  0  0  0  0  0  0
  139.0940   69.1690  224.9550 C   0  0  0  0  0  0  0  0  0  0  0  0
  139.2030   67.8850  225.4410 C   0  0  0  0  0  0  0  0  0  0  0  0
  139.8870   67.8690  226.5990 N   0  0  0  0  0  0  0  0  0  0  0  0
  140.2360   69.1310  226.8930 C   0  0  0  0  0  0  0  0  0  0  0  0
  140.9500   69.6630  227.9750 C   0  0  0  0  0  0  0  0  0  0  0  0
  141.1680   71.0330  228.0220 C   0  0  0  0  0  0  0  0  0  0  0  0
  140.6830   71.8310  227.0160 C   0  0  0  0  0  0  0  0  0  0  0  0
  139.9730   71.3350  225.9320 C   0  0  0  0  0  0  0  0  0  0  0  0
  139.7580   69.9580  225.8920 C   0  0  0  0  0  0  0  0  0  0  0  0
  140.5640   75.9570  221.3040 C   0  0  0  0  0  0  0  0  0  0  0  0
  141.0490   76.5000  220.1300 C   0  0  0  0  0  0  0  0  0  0  0  0
  141.5930   77.7670  220.1970 C   0  0  0  0  0  0  0  0  0  0  0  0
  141.6540   78.4700  221.3890 C   0  0  0  0  0  0  0  0  0  0  0  0
  142.2020   79.7430  221.4520 C   0  0  0  0  0  0  0  0  0  0  0  0
  142.2290   80.3790  222.6700 C   0  0  0  0  0  0  0  0  0  0  0  0
  141.7370   79.8120  223.8340 C   0  0  0  0  0  0  0  0  0  0  0  0
  141.1830   78.5260  223.7670 C   0  0  0  0  0  0  0  0  0  0  0  0
  141.1520   77.8790  222.5470 C   0  0  0  0  0  0  0  0  0  0  0  0
  140.6220   76.6360  222.4620 N   0  0  0  0  0  0  0  0  0  0  0  0
  139.2530   74.5480  223.2680 H   0  0  0  0  0  0  0  0  0  0  0  0
  137.8524   72.6792  222.8414 H   0  0  0  0  0  0  0  0  0  0  0  0
  138.6017   72.5061  221.1975 H   0  0  0  0  0  0  0  0  0  0  0  0
  139.9966   69.8186  220.8603 H   0  0  0  0  0  0  0  0  0  0  0  0
  140.7992   68.9052  222.1287 H   0  0  0  0  0  0  0  0  0  0  0  0
  138.2107   68.4075  220.7994 H   0  0  0  0  0  0  0  0  0  0  0  0
  139.1332   67.3035  221.8313 H   0  0  0  0  0  0  0  0  0  0  0  0
  136.8502   69.0067  222.4996 H   0  0  0  0  0  0  0  0  0  0  0  0
  137.6178   67.7346  223.4903 H   0  0  0  0  0  0  0  0  0  0  0  0
  137.7518   70.4231  224.1950 H   0  0  0  0  0  0  0  0  0  0  0  0
  138.7871   66.9935  224.9489 H   0  0  0  0  0  0  0  0  0  0  0  0
  140.1320   67.0320  227.2080 H   0  0  0  0  0  0  0  0  0  0  0  0
  141.3305   69.0073  228.7721 H   0  0  0  0  0  0  0  0  0  0  0  0
  141.7258   71.4763  228.8600 H   0  0  0  0  0  0  0  0  0  0  0  0
  140.8657   72.9143  227.0718 H   0  0  0  0  0  0  0  0  0  0  0  0
  139.5966   71.9985  225.1395 H   0  0  0  0  0  0  0  0  0  0  0  0
  141.0036   75.9457  219.1810 H   0  0  0  0  0  0  0  0  0  0  0  0
  141.9880   78.2300  219.2807 H   0  0  0  0  0  0  0  0  0  0  0  0
  142.6040   80.2301  220.5514 H   0  0  0  0  0  0  0  0  0  0  0  0
  142.6629   81.3884  222.7231 H   0  0  0  0  0  0  0  0  0  0  0  0
  141.7799   80.3577  224.7881 H   0  0  0  0  0  0  0  0  0  0  0  0
  140.7806   78.0414  224.6688 H   0  0  0  0  0  0  0  0  0  0  0  0
  1  2  2  0
  2  3  1  0
  3  4  1  0
  4  5  1  0
  5  6  2  0
  5  7  1  0
  7  8  1  0
  8  9  1  0
  9 10  1  0
 10 11  1  0
 11 12  1  0
 12 13  2  0
 13 14  1  0
 14 15  1  0
 15 16  2  0
 16 17  1  0
 17 18  2  0
 18 19  1  0
 19 20  2  0
  2 21  1  0
 21 22  2  0
 22 23  1  0
 23 24  2  0
 24 25  1  0
 25 26  2  0
 26 27  1  0
 27 28  2  0
 28 29  1  0
 29 30  2  0
 11  7  1  0
 20 12  1  0
 30 21  1  0
 20 15  1  0
 29 24  1  0
  3 31  1  0
  4 32  1  0
  4 33  1  0
  8 34  1  0
  8 35  1  0
  9 36  1  0
  9 37  1  0
 10 38  1  0
 10 39  1  0
 11 40  1  1
 13 41  1  0
 14 42  1  0
 16 43  1  0
 17 44  1  0
 18 45  1  0
 19 46  1  0
 22 47  1  0
 23 48  1  0
 25 49  1  0
 26 50  1  0
 27 51  1  0
 28 52  1  0
M  END
>  <smiles>  (12) 
O=C(NCC(=O)N1CCC[C@H]1c1c[nH]c2ccccc12)c1ccc2ccccc2n1

>  <score_type>  (12) 
oracle

>  <origin>  (12) 
autodockgpu

>  <m_score__min__energy>  (12) 
-9.6099999999999994

>  <m_primary>  (12) 
energy

>  <rmsd>  (12) 
8.175160400008952

>  <m_score__min__rmsd>  (12) 
8.175160400008952

>  <meeko>  (12) 
{"free_energy": -9.4, "intermolecular_energy": -10.89, "internal_energy": -1.58, "cluster_size": 13, "cluster_id": 2, "rank_in_cluster": 2}

>  <energy>  (12) 
-9.49

>  <cluster_rmsd>  (12) 
0.37

>  <cluster>  (12) 
1

$$$$

     RDKit          3D

 52 56  0  0  0  0  0  0  0  0999 V2000
  137.9260   75.0410  221.8110 O   0  0  0  0  0  0  0  0  0  0  0  0
  139.1830   75.0520  221.9140 C   0  0  0  0  0  0  0  0  0  0  0  0
  139.8200   73.8130  222.1850 N   0  0  0  0  0  0  0  0  0  0  0  0
  139.0270   72.6310  222.3250 C   0  0  0  0  0  0  0  0  0  0  0  0
  139.8640   71.4280  222.6310 C   0  0  0  0  0  0  0  0  0  0  0  0
  141.1110   71.5170  222.7320 O   0  0  0  0  0  0  0  0  0  0  0  0
  139.2590   70.1540  222.8160 N   0  0  0  0  0  0  0  0  0  0  0  0
  139.4330   69.0580  221.8950 C   0  0  0  0  0  0  0  0  0  0  0  0
  138.1780   68.2590  222.0430 C   0  0  0  0  0  0  0  0  0  0  0  0
  137.4800   68.8120  223.2480 C   0  0  0  0  0  0  0  0  0  0  0  0
  138.4110   69.7940  223.9170 C   0  0  1  0  0  0  0  0  0  0  0  0
  139.1060   69.2330  225.0800 C   0  0  0  0  0  0  0  0  0  0  0  0
  139.2520   67.9370  225.5210 C   0  0  0  0  0  0  0  0  0  0  0  0
  139.9820   67.8950  226.6500 N   0  0  0  0  0  0  0  0  0  0  0  0
  140.3260   69.1520  226.9690 C   0  0  0  0  0  0  0  0  0  0  0  0
  141.0760   69.6620  228.0380 C   0  0  0  0  0  0  0  0  0  0  0  0
  141.2770   71.0320  228.1190 C   0  0  0  0  0  0  0  0  0  0  0  0
  140.7410   71.8540  227.1580 C   0  0  0  0  0  0  0  0  0  0  0  0
  139.9940   71.3800  226.0880 C   0  0  0  0  0  0  0  0  0  0  0  0
  139.7960   70.0030  226.0140 C   0  0  0  0  0  0  0  0  0  0  0  0
  139.9710   76.2860  221.7630 C   0  0  0  0  0  0  0  0  0  0  0  0
  140.2860   76.6830  220.4780 C   0  0  0  0  0  0  0  0  0  0  0  0
  141.0270   77.8400  220.3370 C   0  0  0  0  0  0  0  0  0  0  0  0
  141.4400   78.5760  221.4350 C   0  0  0  0  0  0  0  0  0  0  0  0
  142.1850   79.7380  221.2890 C   0  0  0  0  0  0  0  0  0  0  0  0
  142.5600   80.4160  222.4250 C   0  0  0  0  0  0  0  0  0  0  0  0
  142.2310   79.9970  223.7040 C   0  0  0  0  0  0  0  0  0  0  0  0
  141.4790   78.8230  223.8480 C   0  0  0  0  0  0  0  0  0  0  0  0
  141.0970   78.1350  222.7120 C   0  0  0  0  0  0  0  0  0  0  0  0
  140.3710   76.9990  222.8300 N   0  0  0  0  0  0  0  0  0  0  0  0
  140.8600   73.7370  222.2840 H   0  0  0  0  0  0  0  0  0  0  0  0
  138.3075   72.7807  223.1435 H   0  0  0  0  0  0  0  0  0  0  0  0
  138.5111   72.4524  221.3700 H   0  0  0  0  0  0  0  0  0  0  0  0
  139.5426   69.4268  220.8645 H   0  0  0  0  0  0  0  0  0  0  0  0
  140.3377   68.4683  222.1045 H   0  0  0  0  0  0  0  0  0  0  0  0
  137.5458   68.3703  221.1497 H   0  0  0  0  0  0  0  0  0  0  0  0
  138.3928   67.1862  222.1571 H   0  0  0  0  0  0  0  0  0  0  0  0
  136.5554   69.3233  222.9419 H   0  0  0  0  0  0  0  0  0  0  0  0
  137.2169   68.0008  223.9428 H   0  0  0  0  0  0  0  0  0  0  0  0
  137.9150   70.6604  224.3788 H   0  0  0  0  0  0  0  0  0  0  0  0
  138.8288   67.0550  225.0180 H   0  0  0  0  0  0  0  0  0  0  0  0
  140.2630   67.0440  227.2230 H   0  0  0  0  0  0  0  0  0  0  0  0
  141.4973   68.9881  228.7985 H   0  0  0  0  0  0  0  0  0  0  0  0
  141.8620   71.4575  228.9477 H   0  0  0  0  0  0  0  0  0  0  0  0
  140.9114   72.9376  227.2399 H   0  0  0  0  0  0  0  0  0  0  0  0
  139.5769   72.0616  225.3321 H   0  0  0  0  0  0  0  0  0  0  0  0
  139.9601   76.1016  219.6029 H   0  0  0  0  0  0  0  0  0  0  0  0
  141.2957   78.1853  219.3278 H   0  0  0  0  0  0  0  0  0  0  0  0
  142.4677   80.1064  220.2918 H   0  0  0  0  0  0  0  0  0  0  0  0
  143.1507   81.3371  222.3127 H   0  0  0  0  0  0  0  0  0  0  0  0
  142.5522   80.5718  224.5851 H   0  0  0  0  0  0  0  0  0  0  0  0
  141.1982   78.4562  224.8463 H   0  0  0  0  0  0  0  0  0  0  0  0
  1  2  2  0
  2  3  1  0
  3  4  1  0
  4  5  1  0
  5  6  2  0
  5  7  1  0
  7  8  1  0
  8  9  1  0
  9 10  1  0
 10 11  1  0
 11 12  1  0
 12 13  2  0
 13 14  1  0
 14 15  1  0
 15 16  2  0
 16 17  1  0
 17 18  2  0
 18 19  1  0
 19 20  2  0
  2 21  1  0
 21 22  2  0
 22 23  1  0
 23 24  2  0
 24 25  1  0
 25 26  2  0
 26 27  1  0
 27 28  2  0
 28 29  1  0
 29 30  2  0
 11  7  1  0
 20 12  1  0
 30 21  1  0
 20 15  1  0
 29 24  1  0
  3 31  1  0
  4 32  1  0
  4 33  1  0
  8 34  1  0
  8 35  1  0
  9 36  1  0
  9 37  1  0
 10 38  1  0
 10 39  1  0
 11 40  1  1
 13 41  1  0
 14 42  1  0
 16 43  1  0
 17 44  1  0
 18 45  1  0
 19 46  1  0
 22 47  1  0
 23 48  1  0
 25 49  1  0
 26 50  1  0
 27 51  1  0
 28 52  1  0
M  END
>  <smiles>  (13) 
O=C(NCC(=O)N1CCC[C@H]1c1c[nH]c2ccccc12)c1ccc2ccccc2n1

>  <score_type>  (13) 
oracle

>  <origin>  (13) 
autodockgpu

>  <m_score__min__energy>  (13) 
-9.6099999999999994

>  <m_primary>  (13) 
energy

>  <rmsd>  (13) 
8.289518872992824

>  <m_score__min__rmsd>  (13) 
8.289518872992824

>  <meeko>  (13) 
{"free_energy": -9.04, "intermolecular_energy": -10.54, "internal_energy": -1.83, "cluster_size": 13, "cluster_id": 2, "rank_in_cluster": 8}

>  <energy>  (13) 
-9.49

>  <cluster_rmsd>  (13) 
0.25

>  <cluster>  (13) 
1

$$$$

     RDKit          3D

 52 56  0  0  0  0  0  0  0  0999 V2000
  141.0680   71.5090  222.1980 O   0  0  0  0  0  0  0  0  0  0  0  0
  139.9820   71.9010  221.6900 C   0  0  0  0  0  0  0  0  0  0  0  0
  139.2420   70.9520  220.9370 N   0  0  0  0  0  0  0  0  0  0  0  0
  139.7490   69.6220  220.7920 C   0  0  0  0  0  0  0  0  0  0  0  0
  139.1340   68.6770  221.7780 C   0  0  0  0  0  0  0  0  0  0  0  0
  139.3230   67.4410  221.6920 O   0  0  0  0  0  0  0  0  0  0  0  0
  138.3210   69.1660  222.8380 N   0  0  0  0  0  0  0  0  0  0  0  0
  136.9240   68.8350  222.9760 C   0  0  0  0  0  0  0  0  0  0  0  0
  136.3430   70.0140  223.6890 C   0  0  0  0  0  0  0  0  0  0  0  0
  137.5120   70.8280  224.1540 C   0  0  0  0  0  0  0  0  0  0  0  0
  138.7680   70.0360  223.8890 C   0  0  1  0  0  0  0  0  0  0  0  0
  139.2870   69.3560  225.0800 C   0  0  0  0  0  0  0  0  0  0  0  0
  139.2280   68.0400  225.4820 C   0  0  0  0  0  0  0  0  0  0  0  0
  139.8500   67.8720  226.6620 N   0  0  0  0  0  0  0  0  0  0  0  0
  140.3250   69.0630  227.0550 C   0  0  0  0  0  0  0  0  0  0  0  0
  141.0430   69.4400  228.1980 C   0  0  0  0  0  0  0  0  0  0  0  0
  141.4120   70.7700  228.3470 C   0  0  0  0  0  0  0  0  0  0  0  0
  141.0680   71.6810  227.3800 C   0  0  0  0  0  0  0  0  0  0  0  0
  140.3570   71.3390  226.2370 C   0  0  0  0  0  0  0  0  0  0  0  0
  139.9910   70.0020  226.0950 C   0  0  0  0  0  0  0  0  0  0  0  0
  139.4880   73.2770  221.8590 C   0  0  0  0  0  0  0  0  0  0  0  0
  138.1180   73.4620  221.8570 C   0  0  0  0  0  0  0  0  0  0  0  0
  137.6560   74.7540  222.0140 C   0  0  0  0  0  0  0  0  0  0  0  0
  138.5220   75.8230  222.1660 C   0  0  0  0  0  0  0  0  0  0  0  0
  138.0530   77.1190  222.3230 C   0  0  0  0  0  0  0  0  0  0  0  0
  138.9730   78.1300  222.4690 C   0  0  0  0  0  0  0  0  0  0  0  0
  140.3420   77.9180  222.4670 C   0  0  0  0  0  0  0  0  0  0  0  0
  140.8130   76.6080  222.3090 C   0  0  0  0  0  0  0  0  0  0  0  0
  139.8960   75.5850  222.1610 C   0  0  0  0  0  0  0  0  0  0  0  0
  140.3310   74.3130  222.0070 N   0  0  0  0  0  0  0  0  0  0  0  0
  138.3310   71.1960  220.4840 H   0  0  0  0  0  0  0  0  0  0  0  0
  139.5286   69.2668  219.7745 H   0  0  0  0  0  0  0  0  0  0  0  0
  140.8329   69.6492  220.9777 H   0  0  0  0  0  0  0  0  0  0  0  0
  136.4539   68.7033  221.9903 H   0  0  0  0  0  0  0  0  0  0  0  0
  136.7635   67.8909  223.5173 H   0  0  0  0  0  0  0  0  0  0  0  0
  135.7140   70.6031  223.0053 H   0  0  0  0  0  0  0  0  0  0  0  0
  135.7057   69.7041  224.5303 H   0  0  0  0  0  0  0  0  0  0  0  0
  137.5473   71.7791  223.6025 H   0  0  0  0  0  0  0  0  0  0  0  0
  137.4199   71.0495  225.2275 H   0  0  0  0  0  0  0  0  0  0  0  0
  139.6431   70.6392  223.6056 H   0  0  0  0  0  0  0  0  0  0  0  0
  138.7381   67.2352  224.9143 H   0  0  0  0  0  0  0  0  0  0  0  0
  139.9710   66.9750  227.2220 H   0  0  0  0  0  0  0  0  0  0  0  0
  141.3093   68.6958  228.9630 H   0  0  0  0  0  0  0  0  0  0  0  0
  141.9766   71.0916  229.2346 H   0  0  0  0  0  0  0  0  0  0  0  0
  141.3692   72.7301  227.5164 H   0  0  0  0  0  0  0  0  0  0  0  0
  140.0945   72.0902  225.4776 H   0  0  0  0  0  0  0  0  0  0  0  0
  137.4253   72.6161  221.7355 H   0  0  0  0  0  0  0  0  0  0  0  0
  136.5716   74.9383  222.0184 H   0  0  0  0  0  0  0  0  0  0  0  0
  136.9738   77.3320  222.3305 H   0  0  0  0  0  0  0  0  0  0  0  0
  138.6037   79.1586  222.5936 H   0  0  0  0  0  0  0  0  0  0  0  0
  141.0423   78.7578  222.5866 H   0  0  0  0  0  0  0  0  0  0  0  0
  141.8927   76.3978  222.3029 H   0  0  0  0  0  0  0  0  0  0  0  0
  1  2  2  0
  2  3  1  0
  3  4  1  0
  4  5  1  0
  5  6  2  0
  5  7  1  0
  7  8  1  0
  8  9  1  0
  9 10  1  0
 10 11  1  0
 11 12  1  0
 12 13  2  0
 13 14  1  0
 14 15  1  0
 15 16  2  0
 16 17  1  0
 17 18  2  0
 18 19  1  0
 19 20  2  0
  2 21  1  0
 21 22  2  0
 22 23  1  0
 23 24  2  0
 24 25  1  0
 25 26  2  0
 26 27  1  0
 27 28  2  0
 28 29  1  0
 29 30  2  0
 11  7  1  0
 20 12  1  0
 30 21  1  0
 20 15  1  0
 29 24  1  0
  3 31  1  0
  4 32  1  0
  4 33  1  0
  8 34  1  0
  8 35  1  0
  9 36  1  0
  9 37  1  0
 10 38  1  0
 10 39  1  0
 11 40  1  6
 13 41  1  0
 14 42  1  0
 16 43  1  0
 17 44  1  0
 18 45  1  0
 19 46  1  0
 22 47  1  0
 23 48  1  0
 25 49  1  0
 26 50  1  0
 27 51  1  0
 28 52  1  0
M  END
>  <smiles>  (14) 
O=C(NCC(=O)N1CCC[C@H]1c1c[nH]c2ccccc12)c1ccc2ccccc2n1

>  <score_type>  (14) 
oracle

>  <origin>  (14) 
autodockgpu

>  <m_score__min__energy>  (14) 
-9.6099999999999994

>  <m_primary>  (14) 
energy

>  <rmsd>  (14) 
7.303273126257874

>  <m_score__min__rmsd>  (14) 
7.303273126257874

>  <meeko>  (14) 
{"free_energy": -8.46, "intermolecular_energy": -9.95, "internal_energy": -1.95, "cluster_size": 2, "cluster_id": 5, "rank_in_cluster": 1}

>  <energy>  (14) 
-9.48

>  <cluster_rmsd>  (14) 
0.56

>  <cluster>  (14) 
1

$$$$

     RDKit          3D

 52 56  0  0  0  0  0  0  0  0999 V2000
  140.9640   71.4940  221.3690 O   0  0  0  0  0  0  0  0  0  0  0  0
  140.4410   72.0240  222.3880 C   0  0  0  0  0  0  0  0  0  0  0  0
  140.0690   73.3900  222.2850 N   0  0  0  0  0  0  0  0  0  0  0  0
  140.2960   74.0900  221.0590 C   0  0  0  0  0  0  0  0  0  0  0  0
  140.3570   75.5720  221.2630 C   0  0  0  0  0  0  0  0  0  0  0  0
  139.9790   76.0920  222.3390 O   0  0  0  0  0  0  0  0  0  0  0  0
  140.8470   76.4240  220.2340 N   0  0  0  0  0  0  0  0  0  0  0  0
  140.4060   76.3390  218.8640 C   0  0  0  0  0  0  0  0  0  0  0  0
  141.5780   76.8330  218.0770 C   0  0  0  0  0  0  0  0  0  0  0  0
  142.5220   77.4270  219.0770 C   0  0  0  0  0  0  0  0  0  0  0  0
  141.8260   77.4590  220.4150 C   0  0  1  0  0  0  0  0  0  0  0  0
  141.2800   78.7780  220.7530 C   0  0  0  0  0  0  0  0  0  0  0  0
  140.3090   79.5480  220.1540 C   0  0  0  0  0  0  0  0  0  0  0  0
  140.1350   80.7020  220.8200 N   0  0  0  0  0  0  0  0  0  0  0  0
  140.9820   80.7140  221.8610 C   0  0  0  0  0  0  0  0  0  0  0  0
  141.2050   81.6710  222.8600 C   0  0  0  0  0  0  0  0  0  0  0  0
  142.1620   81.4120  223.8300 C   0  0  0  0  0  0  0  0  0  0  0  0
  142.8650   80.2340  223.7920 C   0  0  0  0  0  0  0  0  0  0  0  0
  142.6680   79.2660  222.8160 C   0  0  0  0  0  0  0  0  0  0  0  0
  141.7050   79.5340  221.8440 C   0  0  0  0  0  0  0  0  0  0  0  0
  140.2200   71.2750  223.6360 C   0  0  0  0  0  0  0  0  0  0  0  0
  139.5480   70.0720  223.5410 C   0  0  0  0  0  0  0  0  0  0  0  0
  139.3390   69.3710  224.7130 C   0  0  0  0  0  0  0  0  0  0  0  0
  139.7820   69.8490  225.9350 C   0  0  0  0  0  0  0  0  0  0  0  0
  139.5690   69.1430  227.1090 C   0  0  0  0  0  0  0  0  0  0  0  0
  140.0370   69.6800  228.2850 C   0  0  0  0  0  0  0  0  0  0  0  0
  140.7070   70.8900  228.3530 C   0  0  0  0  0  0  0  0  0  0  0  0
  140.9200   71.6020  227.1650 C   0  0  0  0  0  0  0  0  0  0  0  0
  140.4540   71.0700  225.9780 C   0  0  0  0  0  0  0  0  0  0  0  0
  140.6500   71.7420  224.8200 N   0  0  0  0  0  0  0  0  0  0  0  0
  139.6280   73.9030  223.0840 H   0  0  0  0  0  0  0  0  0  0  0  0
  141.2496   73.7512  220.6278 H   0  0  0  0  0  0  0  0  0  0  0  0
  139.4552   73.8741  220.3835 H   0  0  0  0  0  0  0  0  0  0  0  0
  140.1636   75.3004  218.5947 H   0  0  0  0  0  0  0  0  0  0  0  0
  139.4926   76.9222  218.6756 H   0  0  0  0  0  0  0  0  0  0  0  0
  142.0595   76.0000  217.5438 H   0  0  0  0  0  0  0  0  0  0  0  0
  141.2744   77.5709  217.3198 H   0  0  0  0  0  0  0  0  0  0  0  0
  143.4309   76.8110  219.1439 H   0  0  0  0  0  0  0  0  0  0  0  0
  142.8104   78.4439  218.7724 H   0  0  0  0  0  0  0  0  0  0  0  0
  142.4816   77.2851  221.2809 H   0  0  0  0  0  0  0  0  0  0  0  0
  139.7507   79.2578  219.2517 H   0  0  0  0  0  0  0  0  0  0  0  0
  139.4600   81.4950  220.6010 H   0  0  0  0  0  0  0  0  0  0  0  0
  140.6320   82.6098  222.8747 H   0  0  0  0  0  0  0  0  0  0  0  0
  142.3564   82.1467  224.6253 H   0  0  0  0  0  0  0  0  0  0  0  0
  143.6194   80.0480  224.5706 H   0  0  0  0  0  0  0  0  0  0  0  0
  143.2457   78.3299  222.8100 H   0  0  0  0  0  0  0  0  0  0  0  0
  139.1941   69.6882  222.5728 H   0  0  0  0  0  0  0  0  0  0  0  0
  138.8073   68.4088  224.6746 H   0  0  0  0  0  0  0  0  0  0  0  0
  139.0396   68.1788  227.0999 H   0  0  0  0  0  0  0  0  0  0  0  0
  139.8711   69.1210  229.2177 H   0  0  0  0  0  0  0  0  0  0  0  0
  141.0635   71.2829  229.3166 H   0  0  0  0  0  0  0  0  0  0  0  0
  141.4485   72.5667  227.1772 H   0  0  0  0  0  0  0  0  0  0  0  0
  1  2  2  0
  2  3  1  0
  3  4  1  0
  4  5  1  0
  5  6  2  0
  5  7  1  0
  7  8  1  0
  8  9  1  0
  9 10  1  0
 10 11  1  0
 11 12  1  0
 12 13  2  0
 13 14  1  0
 14 15  1  0
 15 16  2  0
 16 17  1  0
 17 18  2  0
 18 19  1  0
 19 20  2  0
  2 21  1  0
 21 22  2  0
 22 23  1  0
 23 24  2  0
 24 25  1  0
 25 26  2  0
 26 27  1  0
 27 28  2  0
 28 29  1  0
 29 30  2  0
 11  7  1  0
 20 12  1  0
 30 21  1  0
 20 15  1  0
 29 24  1  0
  3 31  1  0
  4 32  1  0
  4 33  1  0
  8 34  1  0
  8 35  1  0
  9 36  1  0
  9 37  1  0
 10 38  1  0
 10 39  1  0
 11 40  1  1
 13 41  1  0
 14 42  1  0
 16 43  1  0
 17 44  1  0
 18 45  1  0
 19 46  1  0
 22 47  1  0
 23 48  1  0
 25 49  1  0
 26 50  1  0
 27 51  1  0
 28 52  1  0
M  END
>  <smiles>  (15) 
O=C(NCC(=O)N1CCC[C@H]1c1c[nH]c2ccccc12)c1ccc2ccccc2n1

>  <score_type>  (15) 
oracle

>  <origin>  (15) 
autodockgpu

>  <m_score__min__energy>  (15) 
-9.6099999999999994

>  <m_primary>  (15) 
energy

>  <rmsd>  (15) 
1.6147733472401684

>  <m_score__min__rmsd>  (15) 
1.6147733472401684

>  <meeko>  (15) 
{"free_energy": -9.36, "intermolecular_energy": -10.85, "internal_energy": -1.67, "cluster_size": 26, "cluster_id": 1, "rank_in_cluster": 18}

>  <energy>  (15) 
-9.44

>  <cluster_rmsd>  (15) 
0.42

>  <cluster>  (15) 
1

$$$$

     RDKit          3D

 52 56  0  0  0  0  0  0  0  0999 V2000
  141.0810   73.0170  222.3380 O   0  0  0  0  0  0  0  0  0  0  0  0
  139.9840   72.6090  222.8070 C   0  0  0  0  0  0  0  0  0  0  0  0
  138.8050   73.2510  222.3450 N   0  0  0  0  0  0  0  0  0  0  0  0
  138.9110   74.3070  221.3870 C   0  0  0  0  0  0  0  0  0  0  0  0
  139.2010   75.6250  222.0360 C   0  0  0  0  0  0  0  0  0  0  0  0
  140.3670   75.9320  222.3810 O   0  0  0  0  0  0  0  0  0  0  0  0
  138.1560   76.5610  222.2720 N   0  0  0  0  0  0  0  0  0  0  0  0
  136.9900   76.2560  223.0640 C   0  0  0  0  0  0  0  0  0  0  0  0
  135.9270   77.1410  222.4960 C   0  0  0  0  0  0  0  0  0  0  0  0
  136.6350   78.0980  221.5860 C   0  0  0  0  0  0  0  0  0  0  0  0
  138.1200   77.9040  221.7670 C   0  0  1  0  0  0  0  0  0  0  0  0
  138.7340   78.9130  222.6380 C   0  0  0  0  0  0  0  0  0  0  0  0
  138.1920   79.7640  223.5750 C   0  0  0  0  0  0  0  0  0  0  0  0
  139.1480   80.5250  224.1390 N   0  0  0  0  0  0  0  0  0  0  0  0
  140.3240   80.1910  223.5870 C   0  0  0  0  0  0  0  0  0  0  0  0
  141.6200   80.6740  223.8120 C   0  0  0  0  0  0  0  0  0  0  0  0
  142.6700   80.1340  223.0830 C   0  0  0  0  0  0  0  0  0  0  0  0
  142.4190   79.1460  222.1630 C   0  0  0  0  0  0  0  0  0  0  0  0
  141.1470   78.6470  221.9170 C   0  0  0  0  0  0  0  0  0  0  0  0
  140.0980   79.1940  222.6530 C   0  0  0  0  0  0  0  0  0  0  0  0
  139.9090   71.5180  223.7930 C   0  0  0  0  0  0  0  0  0  0  0  0
  139.2190   70.3790  223.4240 C   0  0  0  0  0  0  0  0  0  0  0  0
  139.1480   69.3560  224.3500 C   0  0  0  0  0  0  0  0  0  0  0  0
  139.7410   69.4620  225.5970 C   0  0  0  0  0  0  0  0  0  0  0  0
  139.6660   68.4330  226.5240 C   0  0  0  0  0  0  0  0  0  0  0  0
  140.2790   68.6100  227.7420 C   0  0  0  0  0  0  0  0  0  0  0  0
  140.9640   69.7630  228.0870 C   0  0  0  0  0  0  0  0  0  0  0  0
  141.0380   70.8010  227.1490 C   0  0  0  0  0  0  0  0  0  0  0  0
  140.4250   70.6320  225.9220 C   0  0  0  0  0  0  0  0  0  0  0  0
  140.4850   71.6230  225.0020 N   0  0  0  0  0  0  0  0  0  0  0  0
  137.8550   72.9710  222.6840 H   0  0  0  0  0  0  0  0  0  0  0  0
  139.7243   74.0699  220.6853 H   0  0  0  0  0  0  0  0  0  0  0  0
  137.9467   74.3901  220.8643 H   0  0  0  0  0  0  0  0  0  0  0  0
  136.7132   75.1964  222.9609 H   0  0  0  0  0  0  0  0  0  0  0  0
  137.1519   76.4241  224.1390 H   0  0  0  0  0  0  0  0  0  0  0  0
  135.1947   76.5457  221.9308 H   0  0  0  0  0  0  0  0  0  0  0  0
  135.3744   77.6687  223.2873 H   0  0  0  0  0  0  0  0  0  0  0  0
  136.3568   77.8945  220.5414 H   0  0  0  0  0  0  0  0  0  0  0  0
  136.3533   79.1335  221.8278 H   0  0  0  0  0  0  0  0  0  0  0  0
  138.7186   78.0363  220.8537 H   0  0  0  0  0  0  0  0  0  0  0  0
  137.1227   79.8149  223.8282 H   0  0  0  0  0  0  0  0  0  0  0  0
  139.0400   81.2700  224.8900 H   0  0  0  0  0  0  0  0  0  0  0  0
  141.8017   81.4666  224.5528 H   0  0  0  0  0  0  0  0  0  0  0  0
  143.6969   80.4951  223.2411 H   0  0  0  0  0  0  0  0  0  0  0  0
  143.2645   78.7309  221.5949 H   0  0  0  0  0  0  0  0  0  0  0  0
  140.9749   77.8546  221.1737 H   0  0  0  0  0  0  0  0  0  0  0  0
  138.7462   70.2905  222.4347 H   0  0  0  0  0  0  0  0  0  0  0  0
  138.6069   68.4342  224.0902 H   0  0  0  0  0  0  0  0  0  0  0  0
  139.1307   67.5007  226.2911 H   0  0  0  0  0  0  0  0  0  0  0  0
  140.2225   67.7953  228.4789 H   0  0  0  0  0  0  0  0  0  0  0  0
  141.4389   69.8616  229.0743 H   0  0  0  0  0  0  0  0  0  0  0  0
  141.5736   71.7325  227.3846 H   0  0  0  0  0  0  0  0  0  0  0  0
  1  2  2  0
  2  3  1  0
  3  4  1  0
  4  5  1  0
  5  6  2  0
  5  7  1  0
  7  8  1  0
  8  9  1  0
  9 10  1  0
 10 11  1  0
 11 12  1  0
 12 13  2  0
 13 14  1  0
 14 15  1  0
 15 16  2  0
 16 17  1  0
 17 18  2  0
 18 19  1  0
 19 20  2  0
  2 21  1  0
 21 22  2  0
 22 23  1  0
 23 24  2  0
 24 25  1  0
 25 26  2  0
 26 27  1  0
 27 28  2  0
 28 29  1  0
 29 30  2  0
 11  7  1  0
 20 12  1  0
 30 21  1  0
 20 15  1  0
 29 24  1  0
  3 31  1  0
  4 32  1  0
  4 33  1  0
  8 34  1  0
  8 35  1  0
  9 36  1  0
  9 37  1  0
 10 38  1  0
 10 39  1  0
 11 40  1  6
 13 41  1  0
 14 42  1  0
 16 43  1  0
 17 44  1  0
 18 45  1  0
 19 46  1  0
 22 47  1  0
 23 48  1  0
 25 49  1  0
 26 50  1  0
 27 51  1  0
 28 52  1  0
M  END
>  <smiles>  (16) 
O=C(NCC(=O)N1CCC[C@H]1c1c[nH]c2ccccc12)c1ccc2ccccc2n1

>  <score_type>  (16) 
oracle

>  <origin>  (16) 
autodockgpu

>  <m_score__min__energy>  (16) 
-9.6099999999999994

>  <m_primary>  (16) 
energy

>  <rmsd>  (16) 
3.1586236483016967

>  <m_score__min__rmsd>  (16) 
3.1586236483016967

>  <meeko>  (16) 
{"free_energy": -9.27, "intermolecular_energy": -10.76, "internal_energy": -1.3, "cluster_size": 3, "cluster_id": 3, "rank_in_cluster": 2}

>  <energy>  (16) 
-9.44

>  <cluster_rmsd>  (16) 
0.37

>  <cluster>  (16) 
1

$$$$

     RDKit          3D

 52 56  0  0  0  0  0  0  0  0999 V2000
  141.1950   72.4250  221.6130 O   0  0  0  0  0  0  0  0  0  0  0  0
  140.2640   72.5170  222.4600 C   0  0  0  0  0  0  0  0  0  0  0  0
  139.3180   73.5570  222.2680 N   0  0  0  0  0  0  0  0  0  0  0  0
  139.4570   74.4360  221.1490 C   0  0  0  0  0  0  0  0  0  0  0  0
  140.4530   75.5230  221.4100 C   0  0  0  0  0  0  0  0  0  0  0  0
  140.7270   75.8800  222.5810 O   0  0  0  0  0  0  0  0  0  0  0  0
  141.1110   76.1760  220.3310 N   0  0  0  0  0  0  0  0  0  0  0  0
  140.7880   75.9300  218.9470 C   0  0  0  0  0  0  0  0  0  0  0  0
  142.0660   76.2100  218.2240 C   0  0  0  0  0  0  0  0  0  0  0  0
  142.9690   76.8640  219.2250 C   0  0  0  0  0  0  0  0  0  0  0  0
  142.1610   77.1440  220.4690 C   0  0  1  0  0  0  0  0  0  0  0  0
  141.7140   78.5380  220.5670 C   0  0  0  0  0  0  0  0  0  0  0  0
  141.0660   79.3570  219.6700 C   0  0  0  0  0  0  0  0  0  0  0  0
  140.8540   80.5740  220.2000 N   0  0  0  0  0  0  0  0  0  0  0  0
  141.3550   80.5780  221.4450 C   0  0  0  0  0  0  0  0  0  0  0  0
  141.3960   81.5840  222.4200 C   0  0  0  0  0  0  0  0  0  0  0  0
  141.9880   81.3030  223.6440 C   0  0  0  0  0  0  0  0  0  0  0  0
  142.5160   80.0560  223.8710 C   0  0  0  0  0  0  0  0  0  0  0  0
  142.4900   79.0390  222.9260 C   0  0  0  0  0  0  0  0  0  0  0  0
  141.8940   79.3290  221.7000 C   0  0  0  0  0  0  0  0  0  0  0  0
  140.1490   71.5950  223.6010 C   0  0  0  0  0  0  0  0  0  0  0  0
  139.5160   70.3870  223.3780 C   0  0  0  0  0  0  0  0  0  0  0  0
  139.4060   69.5240  224.4510 C   0  0  0  0  0  0  0  0  0  0  0  0
  139.9080   69.8490  225.7000 C   0  0  0  0  0  0  0  0  0  0  0  0
  139.7950   68.9790  226.7740 C   0  0  0  0  0  0  0  0  0  0  0  0
  140.3170   69.3700  227.9850 C   0  0  0  0  0  0  0  0  0  0  0  0
  140.9470   70.5870  228.1830 C   0  0  0  0  0  0  0  0  0  0  0  0
  141.0590   71.4640  227.0950 C   0  0  0  0  0  0  0  0  0  0  0  0
  140.5380   71.0800  225.8750 C   0  0  0  0  0  0  0  0  0  0  0  0
  140.6370   71.9130  224.8130 N   0  0  0  0  0  0  0  0  0  0  0  0
  138.5150   73.7000  222.9250 H   0  0  0  0  0  0  0  0  0  0  0  0
  139.7887   73.8521  220.2778 H   0  0  0  0  0  0  0  0  0  0  0  0
  138.4805   74.9072  220.9637 H   0  0  0  0  0  0  0  0  0  0  0  0
  140.4746   74.8862  218.7979 H   0  0  0  0  0  0  0  0  0  0  0  0
  139.9536   76.5511  218.5894 H   0  0  0  0  0  0  0  0  0  0  0  0
  142.5130   75.2731  217.8601 H   0  0  0  0  0  0  0  0  0  0  0  0
  141.9015   76.8536  217.3472 H   0  0  0  0  0  0  0  0  0  0  0  0
  143.8063   76.1929  219.4669 H   0  0  0  0  0  0  0  0  0  0  0  0
  143.3783   77.7997  218.8165 H   0  0  0  0  0  0  0  0  0  0  0  0
  142.7158   77.0444  221.4136 H   0  0  0  0  0  0  0  0  0  0  0  0
  140.7626   79.0561  218.6564 H   0  0  0  0  0  0  0  0  0  0  0  0
  140.3790   81.4150  219.7530 H   0  0  0  0  0  0  0  0  0  0  0  0
  140.9674   82.5770  222.2193 H   0  0  0  0  0  0  0  0  0  0  0  0
  142.0338   82.0744  224.4268 H   0  0  0  0  0  0  0  0  0  0  0  0
  142.9813   79.8532  224.8469 H   0  0  0  0  0  0  0  0  0  0  0  0
  142.9206   78.0487  223.1356 H   0  0  0  0  0  0  0  0  0  0  0  0
  139.1165   70.1237  222.3875 H   0  0  0  0  0  0  0  0  0  0  0  0
  138.9070   68.5540  224.3097 H   0  0  0  0  0  0  0  0  0  0  0  0
  139.3013   68.0026  226.6605 H   0  0  0  0  0  0  0  0  0  0  0  0
  140.2296   68.6817  228.8386 H   0  0  0  0  0  0  0  0  0  0  0  0
  141.3498   70.8590  229.1698 H   0  0  0  0  0  0  0  0  0  0  0  0
  141.5528   72.4401  227.2109 H   0  0  0  0  0  0  0  0  0  0  0  0
  1  2  2  0
  2  3  1  0
  3  4  1  0
  4  5  1  0
  5  6  2  0
  5  7  1  0
  7  8  1  0
  8  9  1  0
  9 10  1  0
 10 11  1  0
 11 12  1  0
 12 13  2  0
 13 14  1  0
 14 15  1  0
 15 16  2  0
 16 17  1  0
 17 18  2  0
 18 19  1  0
 19 20  2  0
  2 21  1  0
 21 22  2  0
 22 23  1  0
 23 24  2  0
 24 25  1  0
 25 26  2  0
 26 27  1  0
 27 28  2  0
 28 29  1  0
 29 30  2  0
 11  7  1  0
 20 12  1  0
 30 21  1  0
 20 15  1  0
 29 24  1  0
  3 31  1  0
  4 32  1  0
  4 33  1  0
  8 34  1  0
  8 35  1  0
  9 36  1  0
  9 37  1  0
 10 38  1  0
 10 39  1  0
 11 40  1  1
 13 41  1  0
 14 42  1  0
 16 43  1  0
 17 44  1  0
 18 45  1  0
 19 46  1  0
 22 47  1  0
 23 48  1  0
 25 49  1  0
 26 50  1  0
 27 51  1  0
 28 52  1  0
M  END
>  <smiles>  (17) 
O=C(NCC(=O)N1CCC[C@H]1c1c[nH]c2ccccc12)c1ccc2ccccc2n1

>  <score_type>  (17) 
oracle

>  <origin>  (17) 
autodockgpu

>  <m_score__min__energy>  (17) 
-9.6099999999999994

>  <m_primary>  (17) 
energy

>  <rmsd>  (17) 
1.6324510460571182

>  <m_score__min__rmsd>  (17) 
1.6324510460571182

>  <meeko>  (17) 
{"free_energy": -9.44, "intermolecular_energy": -10.93, "internal_energy": -1.36, "cluster_size": 26, "cluster_id": 1, "rank_in_cluster": 15}

>  <energy>  (17) 
-9.36

>  <cluster_rmsd>  (17) 
1.49

>  <cluster>  (17) 
1

$$$$

     RDKit          3D

 52 56  0  0  0  0  0  0  0  0999 V2000
  138.2130   75.3090  221.3890 O   0  0  0  0  0  0  0  0  0  0  0  0
  139.3370   75.5990  221.8830 C   0  0  0  0  0  0  0  0  0  0  0  0
  140.3010   74.5590  221.9470 N   0  0  0  0  0  0  0  0  0  0  0  0
  139.9640   73.2580  221.4600 C   0  0  0  0  0  0  0  0  0  0  0  0
  140.0100   72.2240  222.5430 C   0  0  0  0  0  0  0  0  0  0  0  0
  141.0600   72.0200  223.1960 O   0  0  0  0  0  0  0  0  0  0  0  0
  138.8570   71.4520  222.8540 N   0  0  0  0  0  0  0  0  0  0  0  0
  137.9900   70.8890  221.8480 C   0  0  0  0  0  0  0  0  0  0  0  0
  136.6570   70.8140  222.5220 C   0  0  0  0  0  0  0  0  0  0  0  0
  136.9150   71.0910  223.9720 C   0  0  0  0  0  0  0  0  0  0  0  0
  138.4080   71.1350  224.1810 C   0  0  1  0  0  0  0  0  0  0  0  0
  138.9510   69.8920  224.7410 C   0  0  0  0  0  0  0  0  0  0  0  0
  138.9170   68.5920  224.2870 C   0  0  0  0  0  0  0  0  0  0  0  0
  139.5560   67.7720  225.1400 N   0  0  0  0  0  0  0  0  0  0  0  0
  140.0170   68.5100  226.1610 C   0  0  0  0  0  0  0  0  0  0  0  0
  140.7430   68.1530  227.3050 C   0  0  0  0  0  0  0  0  0  0  0  0
  141.0930   69.1450  228.2110 C   0  0  0  0  0  0  0  0  0  0  0  0
  140.7240   70.4440  227.9680 C   0  0  0  0  0  0  0  0  0  0  0  0
  140.0050   70.8300  226.8450 C   0  0  0  0  0  0  0  0  0  0  0  0
  139.6570   69.8280  225.9400 C   0  0  0  0  0  0  0  0  0  0  0  0
  139.6530   76.9500  222.3760 C   0  0  0  0  0  0  0  0  0  0  0  0
  138.5910   77.7590  222.7300 C   0  0  0  0  0  0  0  0  0  0  0  0
  138.8880   79.0270  223.1900 C   0  0  0  0  0  0  0  0  0  0  0  0
  140.1940   79.4740  223.2950 C   0  0  0  0  0  0  0  0  0  0  0  0
  140.4890   80.7490  223.7570 C   0  0  0  0  0  0  0  0  0  0  0  0
  141.8090   81.1230  223.8330 C   0  0  0  0  0  0  0  0  0  0  0  0
  142.8570   80.2920  223.4710 C   0  0  0  0  0  0  0  0  0  0  0  0
  142.5560   79.0060  223.0040 C   0  0  0  0  0  0  0  0  0  0  0  0
  141.2320   78.6200  222.9250 C   0  0  0  0  0  0  0  0  0  0  0  0
  140.9220   77.3810  222.4760 N   0  0  0  0  0  0  0  0  0  0  0  0
  141.2580   74.7170  222.3410 H   0  0  0  0  0  0  0  0  0  0  0  0
  138.9475   73.2881  221.0407 H   0  0  0  0  0  0  0  0  0  0  0  0
  140.7026   72.9803  220.6936 H   0  0  0  0  0  0  0  0  0  0  0  0
  137.9445   71.5396  220.9622 H   0  0  0  0  0  0  0  0  0  0  0  0
  138.3386   69.9099  221.4877 H   0  0  0  0  0  0  0  0  0  0  0  0
  135.9737   71.5679  222.1039 H   0  0  0  0  0  0  0  0  0  0  0  0
  136.1848   69.8313  222.3759 H   0  0  0  0  0  0  0  0  0  0  0  0
  136.4705   72.0574  224.2520 H   0  0  0  0  0  0  0  0  0  0  0  0
  136.4653   70.3051  224.5965 H   0  0  0  0  0  0  0  0  0  0  0  0
  138.7481   71.8605  224.9346 H   0  0  0  0  0  0  0  0  0  0  0  0
  138.4330   68.2686  223.3537 H   0  0  0  0  0  0  0  0  0  0  0  0
  139.6960   66.7200  225.0630 H   0  0  0  0  0  0  0  0  0  0  0  0
  141.0303   67.1060  227.4820 H   0  0  0  0  0  0  0  0  0  0  0  0
  141.6622   68.8913  229.1174 H   0  0  0  0  0  0  0  0  0  0  0  0
  141.0114   71.2157  228.6973 H   0  0  0  0  0  0  0  0  0  0  0  0
  139.7224   71.8797  226.6766 H   0  0  0  0  0  0  0  0  0  0  0  0
  137.5517   77.4080  222.6489 H   0  0  0  0  0  0  0  0  0  0  0  0
  138.0664   79.6984  223.4801 H   0  0  0  0  0  0  0  0  0  0  0  0
  139.6877   81.4415  224.0543 H   0  0  0  0  0  0  0  0  0  0  0  0
  142.0456   82.1328  224.1996 H   0  0  0  0  0  0  0  0  0  0  0  0
  143.8997   80.6337  223.5484 H   0  0  0  0  0  0  0  0  0  0  0  0
  143.3592   78.3162  222.7057 H   0  0  0  0  0  0  0  0  0  0  0  0
  1  2  2  0
  2  3  1  0
  3  4  1  0
  4  5  1  0
  5  6  2  0
  5  7  1  0
  7  8  1  0
  8  9  1  0
  9 10  1  0
 10 11  1  0
 11 12  1  0
 12 13  2  0
 13 14  1  0
 14 15  1  0
 15 16  2  0
 16 17  1  0
 17 18  2  0
 18 19  1  0
 19 20  2  0
  2 21  1  0
 21 22  2  0
 22 23  1  0
 23 24  2  0
 24 25  1  0
 25 26  2  0
 26 27  1  0
 27 28  2  0
 28 29  1  0
 29 30  2  0
 11  7  1  0
 20 12  1  0
 30 21  1  0
 20 15  1  0
 29 24  1  0
  3 31  1  0
  4 32  1  0
  4 33  1  0
  8 34  1  0
  8 35  1  0
  9 36  1  0
  9 37  1  0
 10 38  1  0
 10 39  1  0
 11 40  1  1
 13 41  1  0
 14 42  1  0
 16 43  1  0
 17 44  1  0
 18 45  1  0
 19 46  1  0
 22 47  1  0
 23 48  1  0
 25 49  1  0
 26 50  1  0
 27 51  1  0
 28 52  1  0
M  END
>  <smiles>  (18) 
O=C(NCC(=O)N1CCC[C@H]1c1c[nH]c2ccccc12)c1ccc2ccccc2n1

>  <score_type>  (18) 
oracle

>  <origin>  (18) 
autodockgpu

>  <m_score__min__energy>  (18) 
-9.6099999999999994

>  <m_primary>  (18) 
energy

>  <rmsd>  (18) 
8.105726550817424

>  <m_score__min__rmsd>  (18) 
8.105726550817424

>  <meeko>  (18) 
{"free_energy": -8.81, "intermolecular_energy": -10.3, "internal_energy": -1.54, "cluster_size": 13, "cluster_id": 2, "rank_in_cluster": 11}

>  <energy>  (18) 
-9.36

>  <cluster_rmsd>  (18) 
0.4

>  <cluster>  (18) 
1

$$$$

     RDKit          3D

 52 56  0  0  0  0  0  0  0  0999 V2000
  139.7280   73.8420  220.1010 O   0  0  0  0  0  0  0  0  0  0  0  0
  139.8100   74.5080  221.1690 C   0  0  0  0  0  0  0  0  0  0  0  0
  139.2700   73.9170  222.3410 N   0  0  0  0  0  0  0  0  0  0  0  0
  138.6710   72.6210  222.2630 C   0  0  0  0  0  0  0  0  0  0  0  0
  139.6320   71.5350  222.6400 C   0  0  0  0  0  0  0  0  0  0  0  0
  140.8390   71.7900  222.8620 O   0  0  0  0  0  0  0  0  0  0  0  0
  139.1920   70.1870  222.7540 N   0  0  0  0  0  0  0  0  0  0  0  0
  139.5570   69.1570  221.8130 C   0  0  0  0  0  0  0  0  0  0  0  0
  138.4120   68.1960  221.8680 C   0  0  0  0  0  0  0  0  0  0  0  0
  137.5870   68.6100  223.0480 C   0  0  0  0  0  0  0  0  0  0  0  0
  138.3430   69.6810  223.7950 C   0  0  1  0  0  0  0  0  0  0  0  0
  139.0460   69.1740  224.9790 C   0  0  0  0  0  0  0  0  0  0  0  0
  139.1890   67.9010  225.4840 C   0  0  0  0  0  0  0  0  0  0  0  0
  139.9290   67.9120  226.6060 N   0  0  0  0  0  0  0  0  0  0  0  0
  140.2830   69.1810  226.8580 C   0  0  0  0  0  0  0  0  0  0  0  0
  141.0460   69.7390  227.8930 C   0  0  0  0  0  0  0  0  0  0  0  0
  141.2570   71.1110  227.9030 C   0  0  0  0  0  0  0  0  0  0  0  0
  140.7170   71.8860  226.9070 C   0  0  0  0  0  0  0  0  0  0  0  0
  139.9570   71.3640  225.8690 C   0  0  0  0  0  0  0  0  0  0  0  0
  139.7500   69.9860  225.8660 C   0  0  0  0  0  0  0  0  0  0  0  0
  140.4340   75.8400  221.2170 C   0  0  0  0  0  0  0  0  0  0  0  0
  140.7780   76.4220  220.0120 C   0  0  0  0  0  0  0  0  0  0  0  0
  141.3650   77.6710  220.0580 C   0  0  0  0  0  0  0  0  0  0  0  0
  141.6010   78.3190  221.2590 C   0  0  0  0  0  0  0  0  0  0  0  0
  142.1920   79.5740  221.3010 C   0  0  0  0  0  0  0  0  0  0  0  0
  142.3950   80.1550  222.5290 C   0  0  0  0  0  0  0  0  0  0  0  0
  142.0410   79.5510  223.7240 C   0  0  0  0  0  0  0  0  0  0  0  0
  141.4450   78.2840  223.6790 C   0  0  0  0  0  0  0  0  0  0  0  0
  141.2360   77.6910  222.4490 C   0  0  0  0  0  0  0  0  0  0  0  0
  140.6620   76.4670  222.3840 N   0  0  0  0  0  0  0  0  0  0  0  0
  139.2990   74.4030  223.2680 H   0  0  0  0  0  0  0  0  0  0  0  0
  137.8097   72.5861  222.9464 H   0  0  0  0  0  0  0  0  0  0  0  0
  138.3596   72.4527  221.2215 H   0  0  0  0  0  0  0  0  0  0  0  0
  139.6698   69.5736  220.8012 H   0  0  0  0  0  0  0  0  0  0  0  0
  140.5198   68.6834  222.0553 H   0  0  0  0  0  0  0  0  0  0  0  0
  137.8170   68.2561  220.9448 H   0  0  0  0  0  0  0  0  0  0  0  0
  138.7602   67.1568  221.9624 H   0  0  0  0  0  0  0  0  0  0  0  0
  136.6194   69.0060  222.7061 H   0  0  0  0  0  0  0  0  0  0  0  0
  137.3999   67.7472  223.7041 H   0  0  0  0  0  0  0  0  0  0  0  0
  137.7131   70.4583  224.2522 H   0  0  0  0  0  0  0  0  0  0  0  0
  138.7561   66.9972  225.0305 H   0  0  0  0  0  0  0  0  0  0  0  0
  140.2100   67.0890  227.2190 H   0  0  0  0  0  0  0  0  0  0  0  0
  141.4698   69.1014  228.6828 H   0  0  0  0  0  0  0  0  0  0  0  0
  141.8528   71.5739  228.7035 H   0  0  0  0  0  0  0  0  0  0  0  0
  140.8947   72.9713  226.9324 H   0  0  0  0  0  0  0  0  0  0  0  0
  139.5369   72.0096  225.0837 H   0  0  0  0  0  0  0  0  0  0  0  0
  140.5919   75.9115  219.0556 H   0  0  0  0  0  0  0  0  0  0  0  0
  141.6523   78.1635  219.1173 H   0  0  0  0  0  0  0  0  0  0  0  0
  142.4898   80.0894  220.3760 H   0  0  0  0  0  0  0  0  0  0  0  0
  142.8623   81.1502  222.5651 H   0  0  0  0  0  0  0  0  0  0  0  0
  142.2234   80.0539  224.6851 H   0  0  0  0  0  0  0  0  0  0  0  0
  141.1490   77.7709  224.6059 H   0  0  0  0  0  0  0  0  0  0  0  0
  1  2  2  0
  2  3  1  0
  3  4  1  0
  4  5  1  0
  5  6  2  0
  5  7  1  0
  7  8  1  0
  8  9  1  0
  9 10  1  0
 10 11  1  0
 11 12  1  0
 12 13  2  0
 13 14  1  0
 14 15  1  0
 15 16  2  0
 16 17  1  0
 17 18  2  0
 18 19  1  0
 19 20  2  0
  2 21  1  0
 21 22  2  0
 22 23  1  0
 23 24  2  0
 24 25  1  0
 25 26  2  0
 26 27  1  0
 27 28  2  0
 28 29  1  0
 29 30  2  0
 11  7  1  0
 20 12  1  0
 30 21  1  0
 20 15  1  0
 29 24  1  0
  3 31  1  0
  4 32  1  0
  4 33  1  0
  8 34  1  0
  8 35  1  0
  9 36  1  0
  9 37  1  0
 10 38  1  0
 10 39  1  0
 11 40  1  1
 13 41  1  0
 14 42  1  0
 16 43  1  0
 17 44  1  0
 18 45  1  0
 19 46  1  0
 22 47  1  0
 23 48  1  0
 25 49  1  0
 26 50  1  0
 27 51  1  0
 28 52  1  0
M  END
>  <smiles>  (19) 
O=C(NCC(=O)N1CCC[C@H]1c1c[nH]c2ccccc12)c1ccc2ccccc2n1

>  <score_type>  (19) 
oracle

>  <origin>  (19) 
autodockgpu

>  <m_score__min__energy>  (19) 
-9.6099999999999994

>  <m_primary>  (19) 
energy

>  <rmsd>  (19) 
8.163298235312507

>  <m_score__min__rmsd>  (19) 
8.163298235312507

>  <meeko>  (19) 
{"free_energy": -9.25, "intermolecular_energy": -10.74, "internal_energy": -1.62, "cluster_size": 13, "cluster_id": 2, "rank_in_cluster": 5}

>  <energy>  (19) 
-9.28

>  <cluster_rmsd>  (19) 
0.88

>  <cluster>  (19) 
1

$$$$

     RDKit          3D

 52 56  0  0  0  0  0  0  0  0999 V2000
  140.3790   71.5960  221.2560 O   0  0  0  0  0  0  0  0  0  0  0  0
  140.0970   72.1280  222.3640 C   0  0  0  0  0  0  0  0  0  0  0  0
  139.7930   73.5140  222.3570 N   0  0  0  0  0  0  0  0  0  0  0  0
  139.8170   74.2310  221.1200 C   0  0  0  0  0  0  0  0  0  0  0  0
  140.3820   75.6090  221.2820 C   0  0  0  0  0  0  0  0  0  0  0  0
  140.2260   76.2490  222.3480 O   0  0  0  0  0  0  0  0  0  0  0  0
  141.1120   76.2200  220.2250 N   0  0  0  0  0  0  0  0  0  0  0  0
  140.8480   75.9590  218.8310 C   0  0  0  0  0  0  0  0  0  0  0  0
  142.1680   76.1840  218.1650 C   0  0  0  0  0  0  0  0  0  0  0  0
  143.0430   76.8280  219.1980 C   0  0  0  0  0  0  0  0  0  0  0  0
  142.1870   77.1560  220.3960 C   0  0  1  0  0  0  0  0  0  0  0  0
  141.7810   78.5650  220.4500 C   0  0  0  0  0  0  0  0  0  0  0  0
  141.2760   79.4090  219.4860 C   0  0  0  0  0  0  0  0  0  0  0  0
  141.0460   80.6320  219.9950 N   0  0  0  0  0  0  0  0  0  0  0  0
  141.3930   80.6150  221.2910 C   0  0  0  0  0  0  0  0  0  0  0  0
  141.3540   81.6170  222.2710 C   0  0  0  0  0  0  0  0  0  0  0  0
  141.7830   81.3120  223.5550 C   0  0  0  0  0  0  0  0  0  0  0  0
  142.2350   80.0460  223.8360 C   0  0  0  0  0  0  0  0  0  0  0  0
  142.2860   79.0330  222.8880 C   0  0  0  0  0  0  0  0  0  0  0  0
  141.8530   79.3470  221.6010 C   0  0  0  0  0  0  0  0  0  0  0  0
  140.0800   71.3610  223.6210 C   0  0  0  0  0  0  0  0  0  0  0  0
  139.5630   70.0800  223.5740 C   0  0  0  0  0  0  0  0  0  0  0  0
  139.5450   69.3620  224.7530 C   0  0  0  0  0  0  0  0  0  0  0  0
  140.0240   69.8970  225.9370 C   0  0  0  0  0  0  0  0  0  0  0  0
  140.0040   69.1730  227.1200 C   0  0  0  0  0  0  0  0  0  0  0  0
  140.4960   69.7700  228.2560 C   0  0  0  0  0  0  0  0  0  0  0  0
  141.0090   71.0570  228.2770 C   0  0  0  0  0  0  0  0  0  0  0  0
  141.0280   71.7860  227.0810 C   0  0  0  0  0  0  0  0  0  0  0  0
  140.5360   71.1940  225.9340 C   0  0  0  0  0  0  0  0  0  0  0  0
  140.5450   71.8830  224.7680 N   0  0  0  0  0  0  0  0  0  0  0  0
  139.5470   74.0300  223.2330 H   0  0  0  0  0  0  0  0  0  0  0  0
  140.4355   73.6758  220.3995 H   0  0  0  0  0  0  0  0  0  0  0  0
  138.7811   74.3279  220.7628 H   0  0  0  0  0  0  0  0  0  0  0  0
  140.5076   74.9233  218.6847 H   0  0  0  0  0  0  0  0  0  0  0  0
  140.0530   76.6005  218.4231 H   0  0  0  0  0  0  0  0  0  0  0  0
  142.6008   75.2265  217.8396 H   0  0  0  0  0  0  0  0  0  0  0  0
  142.0671   76.8152  217.2698 H   0  0  0  0  0  0  0  0  0  0  0  0
  143.8458   76.1355  219.4913 H   0  0  0  0  0  0  0  0  0  0  0  0
  143.5010   77.7429  218.7939 H   0  0  0  0  0  0  0  0  0  0  0  0
  142.6943   77.0554  221.3668 H   0  0  0  0  0  0  0  0  0  0  0  0
  141.0865   79.1215  218.4413 H   0  0  0  0  0  0  0  0  0  0  0  0
  140.6590   81.4910  219.5000 H   0  0  0  0  0  0  0  0  0  0  0  0
  140.9902   82.6259  222.0266 H   0  0  0  0  0  0  0  0  0  0  0  0
  141.7612   82.0794  224.3428 H   0  0  0  0  0  0  0  0  0  0  0  0
  142.5722   79.8244  224.8593 H   0  0  0  0  0  0  0  0  0  0  0  0
  142.6519   78.0271  223.1414 H   0  0  0  0  0  0  0  0  0  0  0  0
  139.1817   69.6504  222.6359 H   0  0  0  0  0  0  0  0  0  0  0  0
  139.1400   68.3393  224.7519 H   0  0  0  0  0  0  0  0  0  0  0  0
  139.6050   68.1483  227.1482 H   0  0  0  0  0  0  0  0  0  0  0  0
  140.4818   69.1976  229.1953 H   0  0  0  0  0  0  0  0  0  0  0  0
  141.3920   71.4956  229.2102 H   0  0  0  0  0  0  0  0  0  0  0  0
  141.4272   72.8107  227.0557 H   0  0  0  0  0  0  0  0  0  0  0  0
  1  2  2  0
  2  3  1  0
  3  4  1  0
  4  5  1  0
  5  6  2  0
  5  7  1  0
  7  8  1  0
  8  9  1  0
  9 10  1  0
 10 11  1  0
 11 12  1  0
 12 13  2  0
 13 14  1  0
 14 15  1  0
 15 16  2  0
 16 17  1  0
 17 18  2  0
 18 19  1  0
 19 20  2  0
  2 21  1  0
 21 22  2  0
 22 23  1  0
 23 24  2  0
 24 25  1  0
 25 26  2  0
 26 27  1  0
 27 28  2  0
 28 29  1  0
 29 30  2  0
 11  7  1  0
 20 12  1  0
 30 21  1  0
 20 15  1  0
 29 24  1  0
  3 31  1  0
  4 32  1  0
  4 33  1  0
  8 34  1  0
  8 35  1  0
  9 36  1  0
  9 37  1  0
 10 38  1  0
 10 39  1  0
 11 40  1  1
 13 41  1  0
 14 42  1  0
 16 43  1  0
 17 44  1  0
 18 45  1  0
 19 46  1  0
 22 47  1  0
 23 48  1  0
 25 49  1  0
 26 50  1  0
 27 51  1  0
 28 52  1  0
M  END
>  <smiles>  (20) 
O=C(NCC(=O)N1CCC[C@H]1c1c[nH]c2ccccc12)c1ccc2ccccc2n1

>  <score_type>  (20) 
oracle

>  <origin>  (20) 
autodockgpu

>  <m_score__min__energy>  (20) 
-9.6099999999999994

>  <m_primary>  (20) 
energy

>  <rmsd>  (20) 
1.652522115179096

>  <m_score__min__rmsd>  (20) 
1.652522115179096

>  <meeko>  (20) 
{"free_energy": -9.51, "intermolecular_energy": -11.0, "internal_energy": -1.62, "cluster_size": 26, "cluster_id": 1, "rank_in_cluster": 11}

>  <energy>  (20) 
-9.09

>  <cluster_rmsd>  (20) 
1.51

>  <cluster>  (20) 
1

$$$$

     RDKit          3D

 52 56  0  0  0  0  0  0  0  0999 V2000
  141.2020   72.3250  221.6590 O   0  0  0  0  0  0  0  0  0  0  0  0
  140.2540   72.3970  222.4880 C   0  0  0  0  0  0  0  0  0  0  0  0
  139.2540   73.3740  222.2420 N   0  0  0  0  0  0  0  0  0  0  0  0
  139.3620   74.2150  221.0910 C   0  0  0  0  0  0  0  0  0  0  0  0
  140.2570   75.3900  221.3380 C   0  0  0  0  0  0  0  0  0  0  0  0
  140.3350   75.9150  222.4730 O   0  0  0  0  0  0  0  0  0  0  0  0
  141.0410   75.9360  220.2830 N   0  0  0  0  0  0  0  0  0  0  0  0
  140.7990   75.6480  218.8910 C   0  0  0  0  0  0  0  0  0  0  0  0
  142.1440   75.7920  218.2540 C   0  0  0  0  0  0  0  0  0  0  0  0
  143.0230   76.4240  219.2910 C   0  0  0  0  0  0  0  0  0  0  0  0
  142.1540   76.8260  220.4570 C   0  0  1  0  0  0  0  0  0  0  0  0
  141.8140   78.2530  220.4610 C   0  0  0  0  0  0  0  0  0  0  0  0
  141.4560   79.1120  219.4450 C   0  0  0  0  0  0  0  0  0  0  0  0
  141.2320   80.3490  219.9210 N   0  0  0  0  0  0  0  0  0  0  0  0
  141.4380   80.3280  221.2470 C   0  0  0  0  0  0  0  0  0  0  0  0
  141.3430   81.3390  222.2130 C   0  0  0  0  0  0  0  0  0  0  0  0
  141.6180   81.0260  223.5370 C   0  0  0  0  0  0  0  0  0  0  0  0
  141.9750   79.7430  223.8700 C   0  0  0  0  0  0  0  0  0  0  0  0
  142.0770   78.7190  222.9370 C   0  0  0  0  0  0  0  0  0  0  0  0
  141.8000   79.0420  221.6090 C   0  0  0  0  0  0  0  0  0  0  0  0
  140.1710   71.5150  223.6640 C   0  0  0  0  0  0  0  0  0  0  0  0
  139.5760   70.2810  223.4890 C   0  0  0  0  0  0  0  0  0  0  0  0
  139.4970   69.4550  224.5930 C   0  0  0  0  0  0  0  0  0  0  0  0
  139.9920   69.8410  225.8260 C   0  0  0  0  0  0  0  0  0  0  0  0
  139.9100   69.0090  226.9330 C   0  0  0  0  0  0  0  0  0  0  0  0
  140.4230   69.4610  228.1260 C   0  0  0  0  0  0  0  0  0  0  0  0
  141.0160   70.7040  228.2760 C   0  0  0  0  0  0  0  0  0  0  0  0
  141.0970   71.5430  227.1560 C   0  0  0  0  0  0  0  0  0  0  0  0
  140.5840   71.0970  225.9530 C   0  0  0  0  0  0  0  0  0  0  0  0
  140.6530   71.8930  224.8600 N   0  0  0  0  0  0  0  0  0  0  0  0
  138.4340   73.4970  222.8810 H   0  0  0  0  0  0  0  0  0  0  0  0
  139.7714   73.6255  220.2574 H   0  0  0  0  0  0  0  0  0  0  0  0
  138.3580   74.5962  220.8528 H   0  0  0  0  0  0  0  0  0  0  0  0
  140.4136   74.6256  218.7643 H   0  0  0  0  0  0  0  0  0  0  0  0
  140.0454   76.3138  218.4452 H   0  0  0  0  0  0  0  0  0  0  0  0
  142.5389   74.8064  217.9665 H   0  0  0  0  0  0  0  0  0  0  0  0
  142.0951   76.4014  217.3395 H   0  0  0  0  0  0  0  0  0  0  0  0
  143.7846   75.7036  219.6240 H   0  0  0  0  0  0  0  0  0  0  0  0
  143.5337   77.3044  218.8738 H   0  0  0  0  0  0  0  0  0  0  0  0
  142.6311   76.7304  221.4435 H   0  0  0  0  0  0  0  0  0  0  0  0
  141.3657   78.8244  218.3871 H   0  0  0  0  0  0  0  0  0  0  0  0
  140.9430   81.2210  219.3840 H   0  0  0  0  0  0  0  0  0  0  0  0
  141.0558   82.3617  221.9272 H   0  0  0  0  0  0  0  0  0  0  0  0
  141.5503   81.8011  224.3145 H   0  0  0  0  0  0  0  0  0  0  0  0
  142.1903   79.5153  224.9244 H   0  0  0  0  0  0  0  0  0  0  0  0
  142.3635   77.6989  223.2325 H   0  0  0  0  0  0  0  0  0  0  0  0
  139.1814   69.9690  222.5108 H   0  0  0  0  0  0  0  0  0  0  0  0
  139.0286   68.4651  224.4894 H   0  0  0  0  0  0  0  0  0  0  0  0
  139.4469   68.0140  226.8584 H   0  0  0  0  0  0  0  0  0  0  0  0
  140.3594   68.8028  229.0051 H   0  0  0  0  0  0  0  0  0  0  0  0
  141.4136   71.0247  229.2502 H   0  0  0  0  0  0  0  0  0  0  0  0
  141.5602   72.5377  227.2333 H   0  0  0  0  0  0  0  0  0  0  0  0
  1  2  2  0
  2  3  1  0
  3  4  1  0
  4  5  1  0
  5  6  2  0
  5  7  1  0
  7  8  1  0
  8  9  1  0
  9 10  1  0
 10 11  1  0
 11 12  1  0
 12 13  2  0
 13 14  1  0
 14 15  1  0
 15 16  2  0
 16 17  1  0
 17 18  2  0
 18 19  1  0
 19 20  2  0
  2 21  1  0
 21 22  2  0
 22 23  1  0
 23 24  2  0
 24 25  1  0
 25 26  2  0
 26 27  1  0
 27 28  2  0
 28 29  1  0
 29 30  2  0
 11  7  1  0
 20 12  1  0
 30 21  1  0
 20 15  1  0
 29 24  1  0
  3 31  1  0
  4 32  1  0
  4 33  1  0
  8 34  1  0
  8 35  1  0
  9 36  1  0
  9 37  1  0
 10 38  1  0
 10 39  1  0
 11 40  1  1
 13 41  1  0
 14 42  1  0
 16 43  1  0
 17 44  1  0
 18 45  1  0
 19 46  1  0
 22 47  1  0
 23 48  1  0
 25 49  1  0
 26 50  1  0
 27 51  1  0
 28 52  1  0
M  END
>  <smiles>  (21) 
O=C(NCC(=O)N1CCC[C@H]1c1c[nH]c2ccccc12)c1ccc2ccccc2n1

>  <score_type>  (21) 
oracle

>  <origin>  (21) 
autodockgpu

>  <m_score__min__energy>  (21) 
-9.6099999999999994

>  <m_primary>  (21) 
energy

>  <rmsd>  (21) 
1.6243400650600774

>  <m_score__min__rmsd>  (21) 
1.6243400650600774

>  <meeko>  (21) 
{"free_energy": -9.48, "intermolecular_energy": -10.97, "internal_energy": -1.4, "cluster_size": 26, "cluster_id": 1, "rank_in_cluster": 14}

>  <energy>  (21) 
-9.05

>  <cluster_rmsd>  (21) 
1.08

>  <cluster>  (21) 
1

$$$$

     RDKit          3D

 52 56  0  0  0  0  0  0  0  0999 V2000
  140.8150   71.6000  221.3520 O   0  0  0  0  0  0  0  0  0  0  0  0
  140.3530   72.1360  222.3970 C   0  0  0  0  0  0  0  0  0  0  0  0
  139.9640   73.4980  222.3060 N   0  0  0  0  0  0  0  0  0  0  0  0
  140.1080   74.1880  221.0610 C   0  0  0  0  0  0  0  0  0  0  0  0
  140.5220   75.6140  221.2560 C   0  0  0  0  0  0  0  0  0  0  0  0
  140.3380   76.1960  222.3510 O   0  0  0  0  0  0  0  0  0  0  0  0
  141.1360   76.3390  220.1980 N   0  0  0  0  0  0  0  0  0  0  0  0
  140.7830   76.1610  218.8110 C   0  0  0  0  0  0  0  0  0  0  0  0
  142.0350   76.5100  218.0720 C   0  0  0  0  0  0  0  0  0  0  0  0
  142.9480   77.1310  219.0840 C   0  0  0  0  0  0  0  0  0  0  0  0
  142.1680   77.3240  220.3610 C   0  0  1  0  0  0  0  0  0  0  0  0
  141.6920   78.6990  220.5470 C   0  0  0  0  0  0  0  0  0  0  0  0
  140.9910   79.5450  219.7170 C   0  0  0  0  0  0  0  0  0  0  0  0
  140.7700   80.7280  220.3160 N   0  0  0  0  0  0  0  0  0  0  0  0
  141.3180   80.6830  221.5390 C   0  0  0  0  0  0  0  0  0  0  0  0
  141.3740   81.6400  222.5620 C   0  0  0  0  0  0  0  0  0  0  0  0
  142.0190   81.3140  223.7470 C   0  0  0  0  0  0  0  0  0  0  0  0
  142.5840   80.0710  223.8910 C   0  0  0  0  0  0  0  0  0  0  0  0
  142.5460   79.1020  222.8970 C   0  0  0  0  0  0  0  0  0  0  0  0
  141.8970   79.4380  221.7100 C   0  0  0  0  0  0  0  0  0  0  0  0
  140.2160   71.3970  223.6630 C   0  0  0  0  0  0  0  0  0  0  0  0
  139.5680   70.1780  223.6180 C   0  0  0  0  0  0  0  0  0  0  0  0
  139.4390   69.4870  224.8060 C   0  0  0  0  0  0  0  0  0  0  0  0
  139.9350   69.9890  225.9970 C   0  0  0  0  0  0  0  0  0  0  0  0
  139.8030   69.2920  227.1890 C   0  0  0  0  0  0  0  0  0  0  0  0
  140.3210   69.8540  228.3320 C   0  0  0  0  0  0  0  0  0  0  0  0
  140.9660   71.0800  228.3510 C   0  0  0  0  0  0  0  0  0  0  0  0
  141.0980   71.7820  227.1450 C   0  0  0  0  0  0  0  0  0  0  0  0
  140.5810   71.2250  225.9910 C   0  0  0  0  0  0  0  0  0  0  0  0
  140.6990   71.8880  224.8170 N   0  0  0  0  0  0  0  0  0  0  0  0
  139.5700   74.0150  223.1260 H   0  0  0  0  0  0  0  0  0  0  0  0
  140.8714   73.6757  220.4570 H   0  0  0  0  0  0  0  0  0  0  0  0
  139.1316   74.1833  220.5544 H   0  0  0  0  0  0  0  0  0  0  0  0
  140.4892   75.1197  218.6127 H   0  0  0  0  0  0  0  0  0  0  0  0
  139.9261   76.7811  218.5091 H   0  0  0  0  0  0  0  0  0  0  0  0
  142.4936   75.6050  217.6470 H   0  0  0  0  0  0  0  0  0  0  0  0
  141.8331   77.1950  217.2354 H   0  0  0  0  0  0  0  0  0  0  0  0
  143.8068   76.4687  219.2679 H   0  0  0  0  0  0  0  0  0  0  0  0
  143.3240   78.0973  218.7167 H   0  0  0  0  0  0  0  0  0  0  0  0
  142.7509   77.1873  221.2838 H   0  0  0  0  0  0  0  0  0  0  0  0
  140.6570   79.2876  218.7010 H   0  0  0  0  0  0  0  0  0  0  0  0
  140.2590   81.5780  219.9300 H   0  0  0  0  0  0  0  0  0  0  0  0
  140.9153   82.6308  222.4280 H   0  0  0  0  0  0  0  0  0  0  0  0
  142.0771   82.0467  224.5654 H   0  0  0  0  0  0  0  0  0  0  0  0
  143.0903   79.8316  224.8378 H   0  0  0  0  0  0  0  0  0  0  0  0
  143.0073   78.1137  223.0399 H   0  0  0  0  0  0  0  0  0  0  0  0
  139.1712   69.7746  222.6747 H   0  0  0  0  0  0  0  0  0  0  0  0
  138.9290   68.5124  224.8064 H   0  0  0  0  0  0  0  0  0  0  0  0
  139.2973   68.3156  227.2191 H   0  0  0  0  0  0  0  0  0  0  0  0
  140.2182   69.3028  229.2784 H   0  0  0  0  0  0  0  0  0  0  0  0
  141.3648   71.4924  229.2896 H   0  0  0  0  0  0  0  0  0  0  0  0
  141.6039   72.7584  227.1177 H   0  0  0  0  0  0  0  0  0  0  0  0
  1  2  2  0
  2  3  1  0
  3  4  1  0
  4  5  1  0
  5  6  2  0
  5  7  1  0
  7  8  1  0
  8  9  1  0
  9 10  1  0
 10 11  1  0
 11 12  1  0
 12 13  2  0
 13 14  1  0
 14 15  1  0
 15 16  2  0
 16 17  1  0
 17 18  2  0
 18 19  1  0
 19 20  2  0
  2 21  1  0
 21 22  2  0
 22 23  1  0
 23 24  2  0
 24 25  1  0
 25 26  2  0
 26 27  1  0
 27 28  2  0
 28 29  1  0
 29 30  2  0
 11  7  1  0
 20 12  1  0
 30 21  1  0
 20 15  1  0
 29 24  1  0
  3 31  1  0
  4 32  1  0
  4 33  1  0
  8 34  1  0
  8 35  1  0
  9 36  1  0
  9 37  1  0
 10 38  1  0
 10 39  1  0
 11 40  1  1
 13 41  1  0
 14 42  1  0
 16 43  1  0
 17 44  1  0
 18 45  1  0
 19 46  1  0
 22 47  1  0
 23 48  1  0
 25 49  1  0
 26 50  1  0
 27 51  1  0
 28 52  1  0
M  END
>  <smiles>  (22) 
O=C(NCC(=O)N1CCC[C@H]1c1c[nH]c2ccccc12)c1ccc2ccccc2n1

>  <score_type>  (22) 
oracle

>  <origin>  (22) 
autodockgpu

>  <m_score__min__energy>  (22) 
-9.6099999999999994

>  <m_primary>  (22) 
energy

>  <rmsd>  (22) 
1.7096299047786891

>  <m_score__min__rmsd>  (22) 
1.7096299047786891

>  <meeko>  (22) 
{"free_energy": -9.61, "intermolecular_energy": -11.1, "internal_energy": -1.6, "cluster_size": 26, "cluster_id": 1, "rank_in_cluster": 1}

>  <energy>  (22) 
-9.02

>  <cluster_rmsd>  (22) 
0.83

>  <cluster>  (22) 
1

$$$$

     RDKit          3D

 52 56  0  0  0  0  0  0  0  0999 V2000
  140.4180   71.5200  221.2740 O   0  0  0  0  0  0  0  0  0  0  0  0
  140.1230   72.0780  222.3660 C   0  0  0  0  0  0  0  0  0  0  0  0
  139.8060   73.4600  222.3200 N   0  0  0  0  0  0  0  0  0  0  0  0
  139.8310   74.1450  221.0650 C   0  0  0  0  0  0  0  0  0  0  0  0
  140.2200   75.5830  221.2190 C   0  0  0  0  0  0  0  0  0  0  0  0
  139.8810   76.2390  222.2320 O   0  0  0  0  0  0  0  0  0  0  0  0
  140.9870   76.2360  220.2150 N   0  0  0  0  0  0  0  0  0  0  0  0
  140.7680   76.0390  218.8030 C   0  0  0  0  0  0  0  0  0  0  0  0
  142.1100   76.2860  218.1920 C   0  0  0  0  0  0  0  0  0  0  0  0
  142.9530   76.8780  219.2800 C   0  0  0  0  0  0  0  0  0  0  0  0
  142.0600   77.1580  220.4630 C   0  0  1  0  0  0  0  0  0  0  0  0
  141.6590   78.5650  220.5660 C   0  0  0  0  0  0  0  0  0  0  0  0
  141.0280   79.4050  219.6760 C   0  0  0  0  0  0  0  0  0  0  0  0
  140.8610   80.6280  220.2080 N   0  0  0  0  0  0  0  0  0  0  0  0
  141.3760   80.6170  221.4470 C   0  0  0  0  0  0  0  0  0  0  0  0
  141.4610   81.6210  222.4210 C   0  0  0  0  0  0  0  0  0  0  0  0
  142.0570   81.3210  223.6380 C   0  0  0  0  0  0  0  0  0  0  0  0
  142.5470   80.0580  223.8600 C   0  0  0  0  0  0  0  0  0  0  0  0
  142.4770   79.0420  222.9160 C   0  0  0  0  0  0  0  0  0  0  0  0
  141.8780   79.3510  221.6960 C   0  0  0  0  0  0  0  0  0  0  0  0
  140.1050   71.3440  223.6420 C   0  0  0  0  0  0  0  0  0  0  0  0
  139.5770   70.0670  223.6310 C   0  0  0  0  0  0  0  0  0  0  0  0
  139.5580   69.3800  224.8290 C   0  0  0  0  0  0  0  0  0  0  0  0
  140.0470   69.9420  225.9960 C   0  0  0  0  0  0  0  0  0  0  0  0
  140.0260   69.2480  227.1980 C   0  0  0  0  0  0  0  0  0  0  0  0
  140.5290   69.8700  228.3150 C   0  0  0  0  0  0  0  0  0  0  0  0
  141.0540   71.1520  228.3010 C   0  0  0  0  0  0  0  0  0  0  0  0
  141.0730   71.8500  227.0860 C   0  0  0  0  0  0  0  0  0  0  0  0
  140.5710   71.2330  225.9570 C   0  0  0  0  0  0  0  0  0  0  0  0
  140.5800   71.8910  224.7740 N   0  0  0  0  0  0  0  0  0  0  0  0
  139.5490   73.9970  223.1820 H   0  0  0  0  0  0  0  0  0  0  0  0
  140.5573   73.6493  220.4041 H   0  0  0  0  0  0  0  0  0  0  0  0
  138.8175   74.1107  220.6387 H   0  0  0  0  0  0  0  0  0  0  0  0
  140.4283   75.0128  218.5992 H   0  0  0  0  0  0  0  0  0  0  0  0
  139.9895   76.7024  218.3983 H   0  0  0  0  0  0  0  0  0  0  0  0
  142.5493   75.3415  217.8384 H   0  0  0  0  0  0  0  0  0  0  0  0
  142.0412   76.9574  217.3234 H   0  0  0  0  0  0  0  0  0  0  0  0
  143.7425   76.1683  219.5682 H   0  0  0  0  0  0  0  0  0  0  0  0
  143.4280   77.8071  218.9320 H   0  0  0  0  0  0  0  0  0  0  0  0
  142.5344   77.0121  221.4447 H   0  0  0  0  0  0  0  0  0  0  0  0
  140.7042   79.1143  218.6657 H   0  0  0  0  0  0  0  0  0  0  0  0
  140.4090   81.4840  219.7650 H   0  0  0  0  0  0  0  0  0  0  0  0
  141.0630   82.6275  222.2248 H   0  0  0  0  0  0  0  0  0  0  0  0
  142.1363   82.0906  224.4199 H   0  0  0  0  0  0  0  0  0  0  0  0
  143.0168   79.8407  224.8306 H   0  0  0  0  0  0  0  0  0  0  0  0
  142.8765   78.0380  223.1219 H   0  0  0  0  0  0  0  0  0  0  0  0
  139.1878   69.6162  222.7061 H   0  0  0  0  0  0  0  0  0  0  0  0
  139.1441   68.3612  224.8566 H   0  0  0  0  0  0  0  0  0  0  0  0
  139.6179   68.2281  227.2546 H   0  0  0  0  0  0  0  0  0  0  0  0
  140.5141   69.3223  229.2688 H   0  0  0  0  0  0  0  0  0  0  0  0
  141.4462   71.6106  229.2207 H   0  0  0  0  0  0  0  0  0  0  0  0
  141.4802   72.8704  227.0325 H   0  0  0  0  0  0  0  0  0  0  0  0
  1  2  2  0
  2  3  1  0
  3  4  1  0
  4  5  1  0
  5  6  2  0
  5  7  1  0
  7  8  1  0
  8  9  1  0
  9 10  1  0
 10 11  1  0
 11 12  1  0
 12 13  2  0
 13 14  1  0
 14 15  1  0
 15 16  2  0
 16 17  1  0
 17 18  2  0
 18 19  1  0
 19 20  2  0
  2 21  1  0
 21 22  2  0
 22 23  1  0
 23 24  2  0
 24 25  1  0
 25 26  2  0
 26 27  1  0
 27 28  2  0
 28 29  1  0
 29 30  2  0
 11  7  1  0
 20 12  1  0
 30 21  1  0
 20 15  1  0
 29 24  1  0
  3 31  1  0
  4 32  1  0
  4 33  1  0
  8 34  1  0
  8 35  1  0
  9 36  1  0
  9 37  1  0
 10 38  1  0
 10 39  1  0
 11 40  1  1
 13 41  1  0
 14 42  1  0
 16 43  1  0
 17 44  1  0
 18 45  1  0
 19 46  1  0
 22 47  1  0
 23 48  1  0
 25 49  1  0
 26 50  1  0
 27 51  1  0
 28 52  1  0
M  END
>  <smiles>  (23) 
O=C(NCC(=O)N1CCC[C@H]1c1c[nH]c2ccccc12)c1ccc2ccccc2n1

>  <score_type>  (23) 
oracle

>  <origin>  (23) 
autodockgpu

>  <m_score__min__energy>  (23) 
-9.6099999999999994

>  <m_primary>  (23) 
energy

>  <rmsd>  (23) 
1.6476899676261947

>  <m_score__min__rmsd>  (23) 
1.6476899676261947

>  <meeko>  (23) 
{"free_energy": -9.51, "intermolecular_energy": -11.0, "internal_energy": -1.61, "cluster_size": 26, "cluster_id": 1, "rank_in_cluster": 10}

>  <energy>  (23) 
-8.78

>  <cluster_rmsd>  (23) 
1.03

>  <cluster>  (23) 
1

$$$$

     RDKit          3D

 52 56  0  0  0  0  0  0  0  0999 V2000
  142.2380   73.3140  220.5310 O   0  0  0  0  0  0  0  0  0  0  0  0
  141.4260   74.0210  221.1890 C   0  0  0  0  0  0  0  0  0  0  0  0
  140.4480   73.3370  221.9570 N   0  0  0  0  0  0  0  0  0  0  0  0
  140.4260   71.9070  221.9530 C   0  0  0  0  0  0  0  0  0  0  0  0
  139.2560   71.3620  222.7120 C   0  0  0  0  0  0  0  0  0  0  0  0
  138.4470   72.1280  223.2880 O   0  0  0  0  0  0  0  0  0  0  0  0
  139.0380   69.9590  222.7960 N   0  0  0  0  0  0  0  0  0  0  0  0
  139.5800   69.0200  221.8450 C   0  0  0  0  0  0  0  0  0  0  0  0
  138.6050   67.8860  221.8620 C   0  0  0  0  0  0  0  0  0  0  0  0
  137.7040   68.1380  223.0330 C   0  0  0  0  0  0  0  0  0  0  0  0
  138.2660   69.3020  223.8120 C   0  0  1  0  0  0  0  0  0  0  0  0
  139.0220   68.8930  225.0000 C   0  0  0  0  0  0  0  0  0  0  0  0
  139.2370   67.6560  225.5670 C   0  0  0  0  0  0  0  0  0  0  0  0
  140.0050   67.7620  226.6660 N   0  0  0  0  0  0  0  0  0  0  0  0
  140.3060   69.0570  226.8410 C   0  0  0  0  0  0  0  0  0  0  0  0
  141.0690   69.7040  227.8230 C   0  0  0  0  0  0  0  0  0  0  0  0
  141.2160   71.0820  227.7540 C   0  0  0  0  0  0  0  0  0  0  0  0
  140.6150   71.7780  226.7340 C   0  0  0  0  0  0  0  0  0  0  0  0
  139.8530   71.1660  225.7470 C   0  0  0  0  0  0  0  0  0  0  0  0
  139.7100   69.7820  225.8230 C   0  0  0  0  0  0  0  0  0  0  0  0
  141.4760   75.4920  221.1720 C   0  0  0  0  0  0  0  0  0  0  0  0
  141.9850   76.0960  220.0380 C   0  0  0  0  0  0  0  0  0  0  0  0
  142.0330   77.4760  220.0250 C   0  0  0  0  0  0  0  0  0  0  0  0
  141.5920   78.2300  221.0990 C   0  0  0  0  0  0  0  0  0  0  0  0
  141.6420   79.6160  221.0820 C   0  0  0  0  0  0  0  0  0  0  0  0
  141.1860   80.2970  222.1850 C   0  0  0  0  0  0  0  0  0  0  0  0
  140.6800   79.6680  223.3110 C   0  0  0  0  0  0  0  0  0  0  0  0
  140.6310   78.2670  223.3260 C   0  0  0  0  0  0  0  0  0  0  0  0
  141.0870   77.5740  222.2210 C   0  0  0  0  0  0  0  0  0  0  0  0
  141.0470   76.2210  222.2170 N   0  0  0  0  0  0  0  0  0  0  0  0
  139.7390   73.8500  222.5310 H   0  0  0  0  0  0  0  0  0  0  0  0
  140.3690   71.5556  220.9122 H   0  0  0  0  0  0  0  0  0  0  0  0
  141.3444   71.5516  222.4432 H   0  0  0  0  0  0  0  0  0  0  0  0
  139.6403   69.4691  220.8427 H   0  0  0  0  0  0  0  0  0  0  0  0
  140.6027   68.7034  222.0977 H   0  0  0  0  0  0  0  0  0  0  0  0
  138.0234   67.8672  220.9285 H   0  0  0  0  0  0  0  0  0  0  0  0
  139.1153   66.9152  221.9460 H   0  0  0  0  0  0  0  0  0  0  0  0
  136.6909   68.3799  222.6792 H   0  0  0  0  0  0  0  0  0  0  0  0
  137.6469   67.2435  223.6706 H   0  0  0  0  0  0  0  0  0  0  0  0
  137.5116   69.9583  224.2705 H   0  0  0  0  0  0  0  0  0  0  0  0
  138.8352   66.7103  225.1743 H   0  0  0  0  0  0  0  0  0  0  0  0
  140.3400   66.9860  227.3130 H   0  0  0  0  0  0  0  0  0  0  0  0
  141.5424   69.1300  228.6332 H   0  0  0  0  0  0  0  0  0  0  0  0
  141.8103   71.6137  228.5117 H   0  0  0  0  0  0  0  0  0  0  0  0
  140.7429   72.8699  226.6969 H   0  0  0  0  0  0  0  0  0  0  0  0
  139.3830   71.7483  224.9407 H   0  0  0  0  0  0  0  0  0  0  0  0
  142.3372   75.5023  219.1815 H   0  0  0  0  0  0  0  0  0  0  0  0
  142.4321   77.9897  219.1380 H   0  0  0  0  0  0  0  0  0  0  0  0
  142.0363   80.1559  220.2085 H   0  0  0  0  0  0  0  0  0  0  0  0
  141.2247   81.3963  222.1734 H   0  0  0  0  0  0  0  0  0  0  0  0
  140.3254   80.2535  224.1721 H   0  0  0  0  0  0  0  0  0  0  0  0
  140.2369   77.7295  224.2011 H   0  0  0  0  0  0  0  0  0  0  0  0
  1  2  2  0
  2  3  1  0
  3  4  1  0
  4  5  1  0
  5  6  2  0
  5  7  1  0
  7  8  1  0
  8  9  1  0
  9 10  1  0
 10 11  1  0
 11 12  1  0
 12 13  2  0
 13 14  1  0
 14 15  1  0
 15 16  2  0
 16 17  1  0
 17 18  2  0
 18 19  1  0
 19 20  2  0
  2 21  1  0
 21 22  2  0
 22 23  1  0
 23 24  2  0
 24 25  1  0
 25 26  2  0
 26 27  1  0
 27 28  2  0
 28 29  1  0
 29 30  2  0
 11  7  1  0
 20 12  1  0
 30 21  1  0
 20 15  1  0
 29 24  1  0
  3 31  1  0
  4 32  1  0
  4 33  1  0
  8 34  1  0
  8 35  1  0
  9 36  1  0
  9 37  1  0
 10 38  1  0
 10 39  1  0
 11 40  1  1
 13 41  1  0
 14 42  1  0
 16 43  1  0
 17 44  1  0
 18 45  1  0
 19 46  1  0
 22 47  1  0
 23 48  1  0
 25 49  1  0
 26 50  1  0
 27 51  1  0
 28 52  1  0
M  END
>  <smiles>  (24) 
O=C(NCC(=O)N1CCC[C@H]1c1c[nH]c2ccccc12)c1ccc2ccccc2n1

>  <score_type>  (24) 
oracle

>  <origin>  (24) 
autodockgpu

>  <m_score__min__energy>  (24) 
-9.6099999999999994

>  <m_primary>  (24) 
energy

>  <rmsd>  (24) 
8.369714598127707

>  <m_score__min__rmsd>  (24) 
8.369714598127707

>  <meeko>  (24) 
{"free_energy": -8.47, "intermolecular_energy": -9.96, "internal_energy": -1.92, "cluster_size": 13, "cluster_id": 2, "rank_in_cluster": 13}

>  <energy>  (24) 
-8.64

>  <cluster_rmsd>  (24) 
1.64

>  <cluster>  (24) 
1

$$$$

     RDKit          3D

 52 56  0  0  0  0  0  0  0  0999 V2000
  140.7250   71.5850  221.3390 O   0  0  0  0  0  0  0  0  0  0  0  0
  140.3080   72.1240  222.4010 C   0  0  0  0  0  0  0  0  0  0  0  0
  139.9340   73.4910  222.3280 N   0  0  0  0  0  0  0  0  0  0  0  0
  140.0420   74.1820  221.0810 C   0  0  0  0  0  0  0  0  0  0  0  0
  140.3700   75.6310  221.2700 C   0  0  0  0  0  0  0  0  0  0  0  0
  140.0760   76.2260  222.3340 O   0  0  0  0  0  0  0  0  0  0  0  0
  141.0260   76.3640  220.2420 N   0  0  0  0  0  0  0  0  0  0  0  0
  140.7160   76.2070  218.8420 C   0  0  0  0  0  0  0  0  0  0  0  0
  141.9950   76.5540  218.1490 C   0  0  0  0  0  0  0  0  0  0  0  0
  142.8810   77.1520  219.1990 C   0  0  0  0  0  0  0  0  0  0  0  0
  142.0610   77.3360  220.4530 C   0  0  1  0  0  0  0  0  0  0  0  0
  141.5930   78.7130  220.6410 C   0  0  0  0  0  0  0  0  0  0  0  0
  140.8500   79.5460  219.8340 C   0  0  0  0  0  0  0  0  0  0  0  0
  140.6580   80.7380  220.4260 N   0  0  0  0  0  0  0  0  0  0  0  0
  141.2660   80.7120  221.6210 C   0  0  0  0  0  0  0  0  0  0  0  0
  141.3710   81.6840  222.6260 C   0  0  0  0  0  0  0  0  0  0  0  0
  142.0740   81.3760  223.7820 C   0  0  0  0  0  0  0  0  0  0  0  0
  142.6480   80.1360  223.9160 C   0  0  0  0  0  0  0  0  0  0  0  0
  142.5620   79.1520  222.9400 C   0  0  0  0  0  0  0  0  0  0  0  0
  141.8540   79.4690  221.7820 C   0  0  0  0  0  0  0  0  0  0  0  0
  140.2080   71.3830  223.6700 C   0  0  0  0  0  0  0  0  0  0  0  0
  139.6020   70.1420  223.6320 C   0  0  0  0  0  0  0  0  0  0  0  0
  139.5070   69.4490  224.8230 C   0  0  0  0  0  0  0  0  0  0  0  0
  139.9960   69.9710  226.0090 C   0  0  0  0  0  0  0  0  0  0  0  0
  139.8980   69.2720  227.2030 C   0  0  0  0  0  0  0  0  0  0  0  0
  140.4060   69.8530  228.3400 C   0  0  0  0  0  0  0  0  0  0  0  0
  141.0090   71.1000  228.3510 C   0  0  0  0  0  0  0  0  0  0  0  0
  141.1070   71.8040  227.1430 C   0  0  0  0  0  0  0  0  0  0  0  0
  140.5990   71.2280  225.9950 C   0  0  0  0  0  0  0  0  0  0  0  0
  140.6840   71.8920  224.8190 N   0  0  0  0  0  0  0  0  0  0  0  0
  139.5770   74.0110  223.1630 H   0  0  0  0  0  0  0  0  0  0  0  0
  140.8369   73.7129  220.4826 H   0  0  0  0  0  0  0  0  0  0  0  0
  139.0696   74.1171  220.5709 H   0  0  0  0  0  0  0  0  0  0  0  0
  140.4196   75.1711  218.6206 H   0  0  0  0  0  0  0  0  0  0  0  0
  139.8746   76.8384  218.5205 H   0  0  0  0  0  0  0  0  0  0  0  0
  142.4586   75.6505  217.7262 H   0  0  0  0  0  0  0  0  0  0  0  0
  141.8268   77.2527  217.3163 H   0  0  0  0  0  0  0  0  0  0  0  0
  143.7266   76.4783  219.4016 H   0  0  0  0  0  0  0  0  0  0  0  0
  143.2786   78.1191  218.8575 H   0  0  0  0  0  0  0  0  0  0  0  0
  142.6109   77.1811  221.3930 H   0  0  0  0  0  0  0  0  0  0  0  0
  140.4658   79.2732  218.8400 H   0  0  0  0  0  0  0  0  0  0  0  0
  140.1270   81.5810  220.0530 H   0  0  0  0  0  0  0  0  0  0  0  0
  140.9048   82.6723  222.5004 H   0  0  0  0  0  0  0  0  0  0  0  0
  142.1708   82.1206  224.5859 H   0  0  0  0  0  0  0  0  0  0  0  0
  143.2018   79.9116  224.8395 H   0  0  0  0  0  0  0  0  0  0  0  0
  143.0316   78.1664  223.0747 H   0  0  0  0  0  0  0  0  0  0  0  0
  139.2116   69.7234  222.6927 H   0  0  0  0  0  0  0  0  0  0  0  0
  139.0309   68.4574  224.8297 H   0  0  0  0  0  0  0  0  0  0  0  0
  139.4262   68.2790  227.2388 H   0  0  0  0  0  0  0  0  0  0  0  0
  140.3301   69.3005  229.2882 H   0  0  0  0  0  0  0  0  0  0  0  0
  141.4015   71.5275  229.2854 H   0  0  0  0  0  0  0  0  0  0  0  0
  141.5796   72.7967  227.1098 H   0  0  0  0  0  0  0  0  0  0  0  0
  1  2  2  0
  2  3  1  0
  3  4  1  0
  4  5  1  0
  5  6  2  0
  5  7  1  0
  7  8  1  0
  8  9  1  0
  9 10  1  0
 10 11  1  0
 11 12  1  0
 12 13  2  0
 13 14  1  0
 14 15  1  0
 15 16  2  0
 16 17  1  0
 17 18  2  0
 18 19  1  0
 19 20  2  0
  2 21  1  0
 21 22  2  0
 22 23  1  0
 23 24  2  0
 24 25  1  0
 25 26  2  0
 26 27  1  0
 27 28  2  0
 28 29  1  0
 29 30  2  0
 11  7  1  0
 20 12  1  0
 30 21  1  0
 20 15  1  0
 29 24  1  0
  3 31  1  0
  4 32  1  0
  4 33  1  0
  8 34  1  0
  8 35  1  0
  9 36  1  0
  9 37  1  0
 10 38  1  0
 10 39  1  0
 11 40  1  1
 13 41  1  0
 14 42  1  0
 16 43  1  0
 17 44  1  0
 18 45  1  0
 19 46  1  0
 22 47  1  0
 23 48  1  0
 25 49  1  0
 26 50  1  0
 27 51  1  0
 28 52  1  0
M  END
>  <smiles>  (25) 
O=C(NCC(=O)N1CCC[C@H]1c1c[nH]c2ccccc12)c1ccc2ccccc2n1

>  <score_type>  (25) 
oracle

>  <origin>  (25) 
autodockgpu

>  <m_score__min__energy>  (25) 
-9.6099999999999994

>  <m_primary>  (25) 
energy

>  <rmsd>  (25) 
1.6890176615841206

>  <m_score__min__rmsd>  (25) 
1.6890176615841206

>  <meeko>  (25) 
{"free_energy": -9.56, "intermolecular_energy": -11.05, "internal_energy": -1.62, "cluster_size": 26, "cluster_id": 1, "rank_in_cluster": 6}

>  <energy>  (25) 
-8.54

>  <cluster_rmsd>  (25) 
1.11

>  <cluster>  (25) 
1

$$$$

     RDKit          3D

 52 56  0  0  0  0  0  0  0  0999 V2000
  140.6660   71.5920  221.3260 O   0  0  0  0  0  0  0  0  0  0  0  0
  140.2770   72.1250  222.4010 C   0  0  0  0  0  0  0  0  0  0  0  0
  139.9080   73.4940  222.3460 N   0  0  0  0  0  0  0  0  0  0  0  0
  139.9900   74.1940  221.1020 C   0  0  0  0  0  0  0  0  0  0  0  0
  140.4420   75.6110  221.2850 C   0  0  0  0  0  0  0  0  0  0  0  0
  140.2480   76.2160  222.3660 O   0  0  0  0  0  0  0  0  0  0  0  0
  141.1040   76.3000  220.2320 N   0  0  0  0  0  0  0  0  0  0  0  0
  140.7850   76.1040  218.8390 C   0  0  0  0  0  0  0  0  0  0  0  0
  142.0660   76.4070  218.1290 C   0  0  0  0  0  0  0  0  0  0  0  0
  142.9670   77.0240  219.1560 C   0  0  0  0  0  0  0  0  0  0  0  0
  142.1560   77.2610  220.4060 C   0  0  1  0  0  0  0  0  0  0  0  0
  141.7110   78.6510  220.5530 C   0  0  0  0  0  0  0  0  0  0  0  0
  141.0440   79.4940  219.6930 C   0  0  0  0  0  0  0  0  0  0  0  0
  140.8430   80.6950  220.2610 N   0  0  0  0  0  0  0  0  0  0  0  0
  141.3710   80.6660  221.4940 C   0  0  0  0  0  0  0  0  0  0  0  0
  141.4340   81.6440  222.4960 C   0  0  0  0  0  0  0  0  0  0  0  0
  142.0520   81.3300  223.6980 C   0  0  0  0  0  0  0  0  0  0  0  0
  142.5850   80.0780  223.8800 C   0  0  0  0  0  0  0  0  0  0  0  0
  142.5380   79.0870  222.9070 C   0  0  0  0  0  0  0  0  0  0  0  0
  141.9160   79.4110  221.7030 C   0  0  0  0  0  0  0  0  0  0  0  0
  140.2020   71.3760  223.6660 C   0  0  0  0  0  0  0  0  0  0  0  0
  139.6210   70.1230  223.6270 C   0  0  0  0  0  0  0  0  0  0  0  0
  139.5500   69.4220  224.8140 C   0  0  0  0  0  0  0  0  0  0  0  0
  140.0390   69.9460  225.9990 C   0  0  0  0  0  0  0  0  0  0  0  0
  139.9650   69.2390  227.1900 C   0  0  0  0  0  0  0  0  0  0  0  0
  140.4710   69.8240  228.3260 C   0  0  0  0  0  0  0  0  0  0  0  0
  141.0500   71.0830  228.3390 C   0  0  0  0  0  0  0  0  0  0  0  0
  141.1230   71.7950  227.1350 C   0  0  0  0  0  0  0  0  0  0  0  0
  140.6170   71.2150  225.9870 C   0  0  0  0  0  0  0  0  0  0  0  0
  140.6780   71.8870  224.8140 N   0  0  0  0  0  0  0  0  0  0  0  0
  139.5730   74.0100  223.1930 H   0  0  0  0  0  0  0  0  0  0  0  0
  140.7060   73.6743  220.4484 H   0  0  0  0  0  0  0  0  0  0  0  0
  138.9850   74.2125  220.6552 H   0  0  0  0  0  0  0  0  0  0  0  0
  140.4701   75.0667  218.6521 H   0  0  0  0  0  0  0  0  0  0  0  0
  139.9530   76.7395  218.5015 H   0  0  0  0  0  0  0  0  0  0  0  0
  142.5125   75.4827  217.7336 H   0  0  0  0  0  0  0  0  0  0  0  0
  141.9053   77.0809  217.2746 H   0  0  0  0  0  0  0  0  0  0  0  0
  143.8026   76.3435  219.3766 H   0  0  0  0  0  0  0  0  0  0  0  0
  143.3788   77.9730  218.7822 H   0  0  0  0  0  0  0  0  0  0  0  0
  142.7088   77.1269  221.3475 H   0  0  0  0  0  0  0  0  0  0  0  0
  140.7195   79.2213  218.6780 H   0  0  0  0  0  0  0  0  0  0  0  0
  140.3590   81.5480  219.8480 H   0  0  0  0  0  0  0  0  0  0  0  0
  141.0015   82.6421  222.3325 H   0  0  0  0  0  0  0  0  0  0  0  0
  142.1145   82.0799  224.5004 H   0  0  0  0  0  0  0  0  0  0  0  0
  143.0714   79.8489  224.8397 H   0  0  0  0  0  0  0  0  0  0  0  0
  142.9724   78.0913  223.0796 H   0  0  0  0  0  0  0  0  0  0  0  0
  139.2311   69.7015  222.6888 H   0  0  0  0  0  0  0  0  0  0  0  0
  139.0932   68.4213  224.8188 H   0  0  0  0  0  0  0  0  0  0  0  0
  139.5133   68.2366  227.2244 H   0  0  0  0  0  0  0  0  0  0  0  0
  140.4136   69.2652  229.2718 H   0  0  0  0  0  0  0  0  0  0  0  0
  141.4428   71.5128  229.2723 H   0  0  0  0  0  0  0  0  0  0  0  0
  141.5748   72.7975  227.1037 H   0  0  0  0  0  0  0  0  0  0  0  0
  1  2  2  0
  2  3  1  0
  3  4  1  0
  4  5  1  0
  5  6  2  0
  5  7  1  0
  7  8  1  0
  8  9  1  0
  9 10  1  0
 10 11  1  0
 11 12  1  0
 12 13  2  0
 13 14  1  0
 14 15  1  0
 15 16  2  0
 16 17  1  0
 17 18  2  0
 18 19  1  0
 19 20  2  0
  2 21  1  0
 21 22  2  0
 22 23  1  0
 23 24  2  0
 24 25  1  0
 25 26  2  0
 26 27  1  0
 27 28  2  0
 28 29  1  0
 29 30  2  0
 11  7  1  0
 20 12  1  0
 30 21  1  0
 20 15  1  0
 29 24  1  0
  3 31  1  0
  4 32  1  0
  4 33  1  0
  8 34  1  0
  8 35  1  0
  9 36  1  0
  9 37  1  0
 10 38  1  0
 10 39  1  0
 11 40  1  1
 13 41  1  0
 14 42  1  0
 16 43  1  0
 17 44  1  0
 18 45  1  0
 19 46  1  0
 22 47  1  0
 23 48  1  0
 25 49  1  0
 26 50  1  0
 27 51  1  0
 28 52  1  0
M  END
>  <smiles>  (26) 
O=C(NCC(=O)N1CCC[C@H]1c1c[nH]c2ccccc12)c1ccc2ccccc2n1

>  <score_type>  (26) 
oracle

>  <origin>  (26) 
autodockgpu

>  <m_score__min__energy>  (26) 
-9.6099999999999994

>  <m_primary>  (26) 
energy

>  <rmsd>  (26) 
1.6866539913784973

>  <m_score__min__rmsd>  (26) 
1.6866539913784973

>  <meeko>  (26) 
{"free_energy": -9.58, "intermolecular_energy": -11.07, "internal_energy": -1.61, "cluster_size": 26, "cluster_id": 1, "rank_in_cluster": 3}

>  <energy>  (26) 
-8.51

>  <cluster_rmsd>  (26) 
1.93

>  <cluster>  (26) 
1

$$$$

     RDKit          3D

 52 56  0  0  0  0  0  0  0  0999 V2000
  140.9260   72.4390  221.6570 O   0  0  0  0  0  0  0  0  0  0  0  0
  140.0050   72.4150  222.5200 C   0  0  0  0  0  0  0  0  0  0  0  0
  138.9190   73.3090  222.3310 N   0  0  0  0  0  0  0  0  0  0  0  0
  138.9150   74.1790  221.1960 C   0  0  0  0  0  0  0  0  0  0  0  0
  139.8430   75.3410  221.3770 C   0  0  0  0  0  0  0  0  0  0  0  0
  139.8450   76.0060  222.4390 O   0  0  0  0  0  0  0  0  0  0  0  0
  140.7460   75.7120  220.3430 N   0  0  0  0  0  0  0  0  0  0  0  0
  140.5200   75.4070  218.9510 C   0  0  0  0  0  0  0  0  0  0  0  0
  141.8970   75.3130  218.3740 C   0  0  0  0  0  0  0  0  0  0  0  0
  142.8200   75.8420  219.4290 C   0  0  0  0  0  0  0  0  0  0  0  0
  141.9780   76.4240  220.5380 C   0  0  1  0  0  0  0  0  0  0  0  0
  141.8680   77.8860  220.4760 C   0  0  0  0  0  0  0  0  0  0  0  0
  141.8180   78.7550  219.4090 C   0  0  0  0  0  0  0  0  0  0  0  0
  141.7150   80.0270  219.8330 N   0  0  0  0  0  0  0  0  0  0  0  0
  141.6960   80.0180  221.1750 C   0  0  0  0  0  0  0  0  0  0  0  0
  141.6030   81.0620  222.1050 C   0  0  0  0  0  0  0  0  0  0  0  0
  141.6060   80.7540  223.4580 C   0  0  0  0  0  0  0  0  0  0  0  0
  141.7000   79.4430  223.8540 C   0  0  0  0  0  0  0  0  0  0  0  0
  141.7930   78.3860  222.9580 C   0  0  0  0  0  0  0  0  0  0  0  0
  141.7890   78.7040  221.6010 C   0  0  0  0  0  0  0  0  0  0  0  0
  140.0380   71.5060  223.6770 C   0  0  0  0  0  0  0  0  0  0  0  0
  139.5580   70.2240  223.4900 C   0  0  0  0  0  0  0  0  0  0  0  0
  139.5880   69.3730  224.5770 C   0  0  0  0  0  0  0  0  0  0  0  0
  140.0770   69.7800  225.8060 C   0  0  0  0  0  0  0  0  0  0  0  0
  140.1050   68.9220  226.8960 C   0  0  0  0  0  0  0  0  0  0  0  0
  140.6050   69.3970  228.0840 C   0  0  0  0  0  0  0  0  0  0  0  0
  141.0810   70.6880  228.2470 C   0  0  0  0  0  0  0  0  0  0  0  0
  141.0510   71.5530  227.1450 C   0  0  0  0  0  0  0  0  0  0  0  0
  140.5510   71.0840  225.9450 C   0  0  0  0  0  0  0  0  0  0  0  0
  140.5140   71.9040  224.8690 N   0  0  0  0  0  0  0  0  0  0  0  0
  138.1150   73.3500  223.0000 H   0  0  0  0  0  0  0  0  0  0  0  0
  139.2292   73.6082  220.3097 H   0  0  0  0  0  0  0  0  0  0  0  0
  137.8956   74.5738  221.0738 H   0  0  0  0  0  0  0  0  0  0  0  0
  139.9841   74.4526  218.8417 H   0  0  0  0  0  0  0  0  0  0  0  0
  139.8999   76.1628  218.4468 H   0  0  0  0  0  0  0  0  0  0  0  0
  142.1432   74.2669  218.1395 H   0  0  0  0  0  0  0  0  0  0  0  0
  141.9831   75.8844  217.4380 H   0  0  0  0  0  0  0  0  0  0  0  0
  143.4432   75.0256  219.8229 H   0  0  0  0  0  0  0  0  0  0  0  0
  143.4804   76.6135  219.0063 H   0  0  0  0  0  0  0  0  0  0  0  0
  142.3930   76.2968  221.5487 H   0  0  0  0  0  0  0  0  0  0  0  0
  141.8570   78.4500  218.3528 H   0  0  0  0  0  0  0  0  0  0  0  0
  141.6550   80.9140  219.2490 H   0  0  0  0  0  0  0  0  0  0  0  0
  141.5290   82.1067  221.7686 H   0  0  0  0  0  0  0  0  0  0  0  0
  141.5335   81.5551  224.2083 H   0  0  0  0  0  0  0  0  0  0  0  0
  141.7017   79.2193  224.9310 H   0  0  0  0  0  0  0  0  0  0  0  0
  141.8665   77.3444  223.3038 H   0  0  0  0  0  0  0  0  0  0  0  0
  139.1681   69.8949  222.5155 H   0  0  0  0  0  0  0  0  0  0  0  0
  139.2135   68.3450  224.4631 H   0  0  0  0  0  0  0  0  0  0  0  0
  139.7366   67.8890  226.8111 H   0  0  0  0  0  0  0  0  0  0  0  0
  140.6287   68.7184  228.9494 H   0  0  0  0  0  0  0  0  0  0  0  0
  141.4729   71.0256  229.2178 H   0  0  0  0  0  0  0  0  0  0  0  0
  141.4185   72.5860  227.2334 H   0  0  0  0  0  0  0  0  0  0  0  0
  1  2  2  0
  2  3  1  0
  3  4  1  0
  4  5  1  0
  5  6  2  0
  5  7  1  0
  7  8  1  0
  8  9  1  0
  9 10  1  0
 10 11  1  0
 11 12  1  0
 12 13  2  0
 13 14  1  0
 14 15  1  0
 15 16  2  0
 16 17  1  0
 17 18  2  0
 18 19  1  0
 19 20  2  0
  2 21  1  0
 21 22  2  0
 22 23  1  0
 23 24  2  0
 24 25  1  0
 25 26  2  0
 26 27  1  0
 27 28  2  0
 28 29  1  0
 29 30  2  0
 11  7  1  0
 20 12  1  0
 30 21  1  0
 20 15  1  0
 29 24  1  0
  3 31  1  0
  4 32  1  0
  4 33  1  0
  8 34  1  0
  8 35  1  0
  9 36  1  0
  9 37  1  0
 10 38  1  0
 10 39  1  0
 11 40  1  1
 13 41  1  0
 14 42  1  0
 16 43  1  0
 17 44  1  0
 18 45  1  0
 19 46  1  0
 22 47  1  0
 23 48  1  0
 25 49  1  0
 26 50  1  0
 27 51  1  0
 28 52  1  0
M  END
>  <smiles>  (27) 
O=C(NCC(=O)N1CCC[C@H]1c1c[nH]c2ccccc12)c1ccc2ccccc2n1

>  <score_type>  (27) 
oracle

>  <origin>  (27) 
autodockgpu

>  <m_score__min__energy>  (27) 
-9.6099999999999994

>  <m_primary>  (27) 
energy

>  <rmsd>  (27) 
1.5561621653490145

>  <m_score__min__rmsd>  (27) 
1.5561621653490145

>  <meeko>  (27) 
{"free_energy": -9.28, "intermolecular_energy": -10.77, "internal_energy": -1.47, "cluster_size": 26, "cluster_id": 1, "rank_in_cluster": 19}

>  <energy>  (27) 
-9.59

>  <cluster_rmsd>  (27) 
0.0

>  <cluster>  (27) 
2

$$$$

     RDKit          3D

 52 56  0  0  0  0  0  0  0  0999 V2000
  141.3870   74.2860  221.2450 O   0  0  0  0  0  0  0  0  0  0  0  0
  140.3820   74.7240  221.8700 C   0  0  0  0  0  0  0  0  0  0  0  0
  139.4650   73.7640  222.3720 N   0  0  0  0  0  0  0  0  0  0  0  0
  139.7140   72.3730  222.1540 C   0  0  0  0  0  0  0  0  0  0  0  0
  138.6480   71.5110  222.7570 C   0  0  0  0  0  0  0  0  0  0  0  0
  137.6080   72.0160  223.2430 O   0  0  0  0  0  0  0  0  0  0  0  0
  138.7940   70.0970  222.7890 N   0  0  0  0  0  0  0  0  0  0  0  0
  139.6460   69.3720  221.8790 C   0  0  0  0  0  0  0  0  0  0  0  0
  139.0010   68.0270  221.7740 C   0  0  0  0  0  0  0  0  0  0  0  0
  137.9620   67.9860  222.8530 C   0  0  0  0  0  0  0  0  0  0  0  0
  138.1290   69.2180  223.7090 C   0  0  1  0  0  0  0  0  0  0  0  0
  138.8530   68.9620  224.9580 C   0  0  0  0  0  0  0  0  0  0  0  0
  138.9420   67.8390  225.7510 C   0  0  0  0  0  0  0  0  0  0  0  0
  139.7310   68.0670  226.8150 N   0  0  0  0  0  0  0  0  0  0  0  0
  140.1710   69.3330  226.7440 C   0  0  0  0  0  0  0  0  0  0  0  0
  141.0110   70.0680  227.5910 C   0  0  0  0  0  0  0  0  0  0  0  0
  141.3030   71.3850  227.2640 C   0  0  0  0  0  0  0  0  0  0  0  0
  140.7660   71.9350  226.1270 C   0  0  0  0  0  0  0  0  0  0  0  0
  139.9300   71.2340  225.2670 C   0  0  0  0  0  0  0  0  0  0  0  0
  139.6420   69.9120  225.6030 C   0  0  0  0  0  0  0  0  0  0  0  0
  140.1540   76.1630  222.0780 C   0  0  0  0  0  0  0  0  0  0  0  0
  138.9520   76.6840  221.6400 C   0  0  0  0  0  0  0  0  0  0  0  0
  138.7400   78.0340  221.8340 C   0  0  0  0  0  0  0  0  0  0  0  0
  139.6890   78.8390  222.4410 C   0  0  0  0  0  0  0  0  0  0  0  0
  139.4720   80.1960  222.6340 C   0  0  0  0  0  0  0  0  0  0  0  0
  140.4610   80.9320  223.2430 C   0  0  0  0  0  0  0  0  0  0  0  0
  141.6590   80.3860  223.6730 C   0  0  0  0  0  0  0  0  0  0  0  0
  141.8750   79.0150  223.4770 C   0  0  0  0  0  0  0  0  0  0  0  0
  140.8870   78.2670  222.8650 C   0  0  0  0  0  0  0  0  0  0  0  0
  141.0780   76.9420  222.6670 N   0  0  0  0  0  0  0  0  0  0  0  0
  138.6070   74.0450  222.9020 H   0  0  0  0  0  0  0  0  0  0  0  0
  139.7527   72.1846  221.0710 H   0  0  0  0  0  0  0  0  0  0  0  0
  140.6695   72.1192  222.6364 H   0  0  0  0  0  0  0  0  0  0  0  0
  139.6804   69.8669  220.8972 H   0  0  0  0  0  0  0  0  0  0  0  0
  140.6877   69.3161  222.2277 H   0  0  0  0  0  0  0  0  0  0  0  0
  138.5326   67.9031  220.7865 H   0  0  0  0  0  0  0  0  0  0  0  0
  139.7355   67.2162  221.8887 H   0  0  0  0  0  0  0  0  0  0  0  0
  136.9578   67.9768  222.4040 H   0  0  0  0  0  0  0  0  0  0  0  0
  138.0803   67.0782  223.4629 H   0  0  0  0  0  0  0  0  0  0  0  0
  137.1916   69.6373  224.1033 H   0  0  0  0  0  0  0  0  0  0  0  0
  138.4359   66.8850  225.5418 H   0  0  0  0  0  0  0  0  0  0  0  0
  139.9910   67.3970  227.6000 H   0  0  0  0  0  0  0  0  0  0  0  0
  141.4313   69.6098  228.4984 H   0  0  0  0  0  0  0  0  0  0  0  0
  141.9602   71.9838  227.9117 H   0  0  0  0  0  0  0  0  0  0  0  0
  141.0091   72.9802  225.8853 H   0  0  0  0  0  0  0  0  0  0  0  0
  139.5141   71.7009  224.3620 H   0  0  0  0  0  0  0  0  0  0  0  0
  138.1949   76.0491  221.1565 H   0  0  0  0  0  0  0  0  0  0  0  0
  137.7931   78.4817  221.4979 H   0  0  0  0  0  0  0  0  0  0  0  0
  138.5342   80.6700  222.3086 H   0  0  0  0  0  0  0  0  0  0  0  0
  140.2923   82.0081  223.3963 H   0  0  0  0  0  0  0  0  0  0  0  0
  142.4225   81.0131  224.1566 H   0  0  0  0  0  0  0  0  0  0  0  0
  142.8133   78.5432  223.8042 H   0  0  0  0  0  0  0  0  0  0  0  0
  1  2  2  0
  2  3  1  0
  3  4  1  0
  4  5  1  0
  5  6  2  0
  5  7  1  0
  7  8  1  0
  8  9  1  0
  9 10  1  0
 10 11  1  0
 11 12  1  0
 12 13  2  0
 13 14  1  0
 14 15  1  0
 15 16  2  0
 16 17  1  0
 17 18  2  0
 18 19  1  0
 19 20  2  0
  2 21  1  0
 21 22  2  0
 22 23  1  0
 23 24  2  0
 24 25  1  0
 25 26  2  0
 26 27  1  0
 27 28  2  0
 28 29  1  0
 29 30  2  0
 11  7  1  0
 20 12  1  0
 30 21  1  0
 20 15  1  0
 29 24  1  0
  3 31  1  0
  4 32  1  0
  4 33  1  0
  8 34  1  0
  8 35  1  0
  9 36  1  0
  9 37  1  0
 10 38  1  0
 10 39  1  0
 11 40  1  1
 13 41  1  0
 14 42  1  0
 16 43  1  0
 17 44  1  0
 18 45  1  0
 19 46  1  0
 22 47  1  0
 23 48  1  0
 25 49  1  0
 26 50  1  0
 27 51  1  0
 28 52  1  0
M  END
>  <smiles>  (28) 
O=C(NCC(=O)N1CCC[C@H]1c1c[nH]c2ccccc12)c1ccc2ccccc2n1

>  <score_type>  (28) 
oracle

>  <origin>  (28) 
autodockgpu

>  <m_score__min__energy>  (28) 
-9.6099999999999994

>  <m_primary>  (28) 
energy

>  <rmsd>  (28) 
8.314134572922628

>  <m_score__min__rmsd>  (28) 
8.314134572922628

>  <meeko>  (28) 
{"free_energy": -8.93, "intermolecular_energy": -10.42, "internal_energy": -1.53, "cluster_size": 13, "cluster_id": 2, "rank_in_cluster": 9}

>  <energy>  (28) 
-9.4

>  <cluster_rmsd>  (28) 
0.52

>  <cluster>  (28) 
2

$$$$

     RDKit          3D

 52 56  0  0  0  0  0  0  0  0999 V2000
  141.3530   72.1640  221.5210 O   0  0  0  0  0  0  0  0  0  0  0  0
  140.5520   72.5030  222.4350 C   0  0  0  0  0  0  0  0  0  0  0  0
  139.9450   73.7810  222.3210 N   0  0  0  0  0  0  0  0  0  0  0  0
  140.2600   74.6100  221.1990 C   0  0  0  0  0  0  0  0  0  0  0  0
  139.5420   75.9230  221.2540 C   0  0  0  0  0  0  0  0  0  0  0  0
  138.8820   76.2570  222.2660 O   0  0  0  0  0  0  0  0  0  0  0  0
  139.5970   76.8230  220.1530 N   0  0  0  0  0  0  0  0  0  0  0  0
  138.4220   77.2850  219.4540 C   0  0  0  0  0  0  0  0  0  0  0  0
  138.9150   77.5700  218.0710 C   0  0  0  0  0  0  0  0  0  0  0  0
  140.4110   77.5080  218.1490 C   0  0  0  0  0  0  0  0  0  0  0  0
  140.7980   77.3820  219.6020 C   0  0  1  0  0  0  0  0  0  0  0  0
  141.2260   78.6510  220.1990 C   0  0  0  0  0  0  0  0  0  0  0  0
  141.4450   79.8940  219.6490 C   0  0  0  0  0  0  0  0  0  0  0  0
  141.8330   80.7720  220.5900 N   0  0  0  0  0  0  0  0  0  0  0  0
  141.8770   80.1290  221.7660 C   0  0  0  0  0  0  0  0  0  0  0  0
  142.2170   80.5740  223.0510 C   0  0  0  0  0  0  0  0  0  0  0  0
  142.1730   79.6720  224.1040 C   0  0  0  0  0  0  0  0  0  0  0  0
  141.8020   78.3710  223.8670 C   0  0  0  0  0  0  0  0  0  0  0  0
  141.4590   77.8990  222.6070 C   0  0  0  0  0  0  0  0  0  0  0  0
  141.5060   78.8120  221.5550 C   0  0  0  0  0  0  0  0  0  0  0  0
  140.2480   71.6250  223.5770 C   0  0  0  0  0  0  0  0  0  0  0  0
  139.4730   70.5090  223.3290 C   0  0  0  0  0  0  0  0  0  0  0  0
  139.1870   69.6870  224.4020 C   0  0  0  0  0  0  0  0  0  0  0  0
  139.6540   69.9650  225.6750 C   0  0  0  0  0  0  0  0  0  0  0  0
  139.3640   69.1370  226.7500 C   0  0  0  0  0  0  0  0  0  0  0  0
  139.8630   69.4780  227.9850 C   0  0  0  0  0  0  0  0  0  0  0  0
  140.6380   70.6040  228.2080 C   0  0  0  0  0  0  0  0  0  0  0  0
  140.9290   71.4380  227.1200 C   0  0  0  0  0  0  0  0  0  0  0  0
  140.4330   71.1040  225.8750 C   0  0  0  0  0  0  0  0  0  0  0  0
  140.7030   71.8980  224.8120 N   0  0  0  0  0  0  0  0  0  0  0  0
  139.2680   74.1360  223.0350 H   0  0  0  0  0  0  0  0  0  0  0  0
  141.3438   74.7978  221.1891 H   0  0  0  0  0  0  0  0  0  0  0  0
  139.9394   74.0848  220.2872 H   0  0  0  0  0  0  0  0  0  0  0  0
  137.6441   76.5074  219.4397 H   0  0  0  0  0  0  0  0  0  0  0  0
  137.9632   78.1640  219.9303 H   0  0  0  0  0  0  0  0  0  0  0  0
  138.5367   76.8148  217.3664 H   0  0  0  0  0  0  0  0  0  0  0  0
  138.5689   78.5505  217.7121 H   0  0  0  0  0  0  0  0  0  0  0  0
  140.7781   76.6359  217.5881 H   0  0  0  0  0  0  0  0  0  0  0  0
  140.8540   78.4156  217.7132 H   0  0  0  0  0  0  0  0  0  0  0  0
  141.6865   76.7621  219.7924 H   0  0  0  0  0  0  0  0  0  0  0  0
  141.3194   80.1360  218.5833 H   0  0  0  0  0  0  0  0  0  0  0  0
  142.0740   81.8020  220.4720 H   0  0  0  0  0  0  0  0  0  0  0  0
  142.5133   81.6195  223.2213 H   0  0  0  0  0  0  0  0  0  0  0  0
  142.4336   79.9966  225.1222 H   0  0  0  0  0  0  0  0  0  0  0  0
  141.7754   77.6705  224.7147 H   0  0  0  0  0  0  0  0  0  0  0  0
  141.1635   76.8517  222.4464 H   0  0  0  0  0  0  0  0  0  0  0  0
  139.0991   70.2840  222.3193 H   0  0  0  0  0  0  0  0  0  0  0  0
  138.5726   68.7889  224.2406 H   0  0  0  0  0  0  0  0  0  0  0  0
  138.7518   68.2327  226.6178 H   0  0  0  0  0  0  0  0  0  0  0  0
  139.6352   68.8234  228.8391 H   0  0  0  0  0  0  0  0  0  0  0  0
  141.0158   70.8379  229.2143 H   0  0  0  0  0  0  0  0  0  0  0  0
  141.5411   72.3419  227.2551 H   0  0  0  0  0  0  0  0  0  0  0  0
  1  2  2  0
  2  3  1  0
  3  4  1  0
  4  5  1  0
  5  6  2  0
  5  7  1  0
  7  8  1  0
  8  9  1  0
  9 10  1  0
 10 11  1  0
 11 12  1  0
 12 13  2  0
 13 14  1  0
 14 15  1  0
 15 16  2  0
 16 17  1  0
 17 18  2  0
 18 19  1  0
 19 20  2  0
  2 21  1  0
 21 22  2  0
 22 23  1  0
 23 24  2  0
 24 25  1  0
 25 26  2  0
 26 27  1  0
 27 28  2  0
 28 29  1  0
 29 30  2  0
 11  7  1  0
 20 12  1  0
 30 21  1  0
 20 15  1  0
 29 24  1  0
  3 31  1  0
  4 32  1  0
  4 33  1  0
  8 34  1  0
  8 35  1  0
  9 36  1  0
  9 37  1  0
 10 38  1  0
 10 39  1  0
 11 40  1  6
 13 41  1  0
 14 42  1  0
 16 43  1  0
 17 44  1  0
 18 45  1  0
 19 46  1  0
 22 47  1  0
 23 48  1  0
 25 49  1  0
 26 50  1  0
 27 51  1  0
 28 52  1  0
M  END
>  <smiles>  (29) 
O=C(NCC(=O)N1CCC[C@H]1c1c[nH]c2ccccc12)c1ccc2ccccc2n1

>  <score_type>  (29) 
oracle

>  <origin>  (29) 
autodockgpu

>  <m_score__min__energy>  (29) 
-9.6099999999999994

>  <m_primary>  (29) 
energy

>  <rmsd>  (29) 
1.7561664372577954

>  <m_score__min__rmsd>  (29) 
1.7561664372577954

>  <meeko>  (29) 
{"free_energy": -8.54, "intermolecular_energy": -10.03, "internal_energy": -1.78, "cluster_size": 26, "cluster_id": 1, "rank_in_cluster": 25}

>  <energy>  (29) 
-9.38

>  <cluster_rmsd>  (29) 
0.53

>  <cluster>  (29) 
2

$$$$

     RDKit          3D

 52 56  0  0  0  0  0  0  0  0999 V2000
  137.8020   71.1020  222.1540 O   0  0  0  0  0  0  0  0  0  0  0  0
  138.7180   71.3910  222.9720 C   0  0  0  0  0  0  0  0  0  0  0  0
  139.3730   72.6370  222.7940 N   0  0  0  0  0  0  0  0  0  0  0  0
  138.9750   73.4930  221.7200 C   0  0  0  0  0  0  0  0  0  0  0  0
  139.8500   74.7040  221.6140 C   0  0  0  0  0  0  0  0  0  0  0  0
  140.9540   74.7560  222.2040 O   0  0  0  0  0  0  0  0  0  0  0  0
  139.4430   75.8240  220.8370 N   0  0  0  0  0  0  0  0  0  0  0  0
  138.2230   75.8490  220.0680 C   0  0  0  0  0  0  0  0  0  0  0  0
  138.5230   76.7910  218.9460 C   0  0  0  0  0  0  0  0  0  0  0  0
  139.8170   77.4550  219.3040 C   0  0  0  0  0  0  0  0  0  0  0  0
  140.1740   77.0540  220.7140 C   0  0  1  0  0  0  0  0  0  0  0  0
  139.8410   78.0780  221.7100 C   0  0  0  0  0  0  0  0  0  0  0  0
  138.6500   78.4140  222.3150 C   0  0  0  0  0  0  0  0  0  0  0  0
  138.8220   79.4310  223.1760 N   0  0  0  0  0  0  0  0  0  0  0  0
  140.1170   79.7810  223.1540 C   0  0  0  0  0  0  0  0  0  0  0  0
  140.8180   80.7720  223.8550 C   0  0  0  0  0  0  0  0  0  0  0  0
  142.1810   80.9110  223.6300 C   0  0  0  0  0  0  0  0  0  0  0  0
  142.8070   80.0830  222.7320 C   0  0  0  0  0  0  0  0  0  0  0  0
  142.1410   79.0920  222.0230 C   0  0  0  0  0  0  0  0  0  0  0  0
  140.7730   78.9590  222.2550 C   0  0  0  0  0  0  0  0  0  0  0  0
  139.1040   70.4880  224.0690 C   0  0  0  0  0  0  0  0  0  0  0  0
  138.8080   69.1470  223.9180 C   0  0  0  0  0  0  0  0  0  0  0  0
  139.1690   68.3010  224.9480 C   0  0  0  0  0  0  0  0  0  0  0  0
  139.8010   68.7700  226.0870 C   0  0  0  0  0  0  0  0  0  0  0  0
  140.1610   67.9170  227.1200 C   0  0  0  0  0  0  0  0  0  0  0  0
  140.7850   68.4550  228.2200 C   0  0  0  0  0  0  0  0  0  0  0  0
  141.0710   69.8050  228.3470 C   0  0  0  0  0  0  0  0  0  0  0  0
  140.7050   70.6640  227.3020 C   0  0  0  0  0  0  0  0  0  0  0  0
  140.0780   70.1320  226.1920 C   0  0  0  0  0  0  0  0  0  0  0  0
  139.7170   70.9460  225.1730 N   0  0  0  0  0  0  0  0  0  0  0  0
  140.1420   72.9520  223.4300 H   0  0  0  0  0  0  0  0  0  0  0  0
  139.0324   72.9297  220.7769 H   0  0  0  0  0  0  0  0  0  0  0  0
  137.9477   73.8324  221.9188 H   0  0  0  0  0  0  0  0  0  0  0  0
  137.9823   74.8468  219.6836 H   0  0  0  0  0  0  0  0  0  0  0  0
  137.3530   76.1627  220.6636 H   0  0  0  0  0  0  0  0  0  0  0  0
  138.6247   76.2393  217.9998 H   0  0  0  0  0  0  0  0  0  0  0  0
  137.7160   77.5257  218.8081 H   0  0  0  0  0  0  0  0  0  0  0  0
  140.6075   77.1291  218.6120 H   0  0  0  0  0  0  0  0  0  0  0  0
  139.7177   78.5481  219.2318 H   0  0  0  0  0  0  0  0  0  0  0  0
  141.2512   76.9350  220.9021 H   0  0  0  0  0  0  0  0  0  0  0  0
  137.6883   77.9170  222.1197 H   0  0  0  0  0  0  0  0  0  0  0  0
  138.0930   79.9080  223.7880 H   0  0  0  0  0  0  0  0  0  0  0  0
  140.2982   81.4270  224.5697 H   0  0  0  0  0  0  0  0  0  0  0  0
  142.7554   81.6796  224.1679 H   0  0  0  0  0  0  0  0  0  0  0  0
  143.8869   80.2104  222.5662 H   0  0  0  0  0  0  0  0  0  0  0  0
  142.6691   78.4413  221.3105 H   0  0  0  0  0  0  0  0  0  0  0  0
  138.3058   68.7691  223.0152 H   0  0  0  0  0  0  0  0  0  0  0  0
  138.9488   67.2268  224.8612 H   0  0  0  0  0  0  0  0  0  0  0  0
  139.9526   66.8386  227.0603 H   0  0  0  0  0  0  0  0  0  0  0  0
  141.0717   67.7805  229.0403 H   0  0  0  0  0  0  0  0  0  0  0  0
  141.5729   70.1927  229.2458 H   0  0  0  0  0  0  0  0  0  0  0  0
  140.9132   71.7423  227.3645 H   0  0  0  0  0  0  0  0  0  0  0  0
  1  2  2  0
  2  3  1  0
  3  4  1  0
  4  5  1  0
  5  6  2  0
  5  7  1  0
  7  8  1  0
  8  9  1  0
  9 10  1  0
 10 11  1  0
 11 12  1  0
 12 13  2  0
 13 14  1  0
 14 15  1  0
 15 16  2  0
 16 17  1  0
 17 18  2  0
 18 19  1  0
 19 20  2  0
  2 21  1  0
 21 22  2  0
 22 23  1  0
 23 24  2  0
 24 25  1  0
 25 26  2  0
 26 27  1  0
 27 28  2  0
 28 29  1  0
 29 30  2  0
 11  7  1  0
 20 12  1  0
 30 21  1  0
 20 15  1  0
 29 24  1  0
  3 31  1  0
  4 32  1  0
  4 33  1  0
  8 34  1  0
  8 35  1  0
  9 36  1  0
  9 37  1  0
 10 38  1  0
 10 39  1  0
 11 40  1  6
 13 41  1  0
 14 42  1  0
 16 43  1  0
 17 44  1  0
 18 45  1  0
 19 46  1  0
 22 47  1  0
 23 48  1  0
 25 49  1  0
 26 50  1  0
 27 51  1  0
 28 52  1  0
M  END
>  <smiles>  (30) 
O=C(NCC(=O)N1CCC[C@H]1c1c[nH]c2ccccc12)c1ccc2ccccc2n1

>  <score_type>  (30) 
oracle

>  <origin>  (30) 
autodockgpu

>  <m_score__min__energy>  (30) 
-9.6099999999999994

>  <m_primary>  (30) 
energy

>  <rmsd>  (30) 
1.3136237806785076

>  <m_score__min__rmsd>  (30) 
1.3136237806785076

>  <meeko>  (30) 
{"free_energy": -8.51, "intermolecular_energy": -10.0, "internal_energy": -1.75, "cluster_size": 26, "cluster_id": 1, "rank_in_cluster": 26}

>  <energy>  (30) 
-9.35

>  <cluster_rmsd>  (30) 
0.89

>  <cluster>  (30) 
2

$$$$

     RDKit          3D

 52 56  0  0  0  0  0  0  0  0999 V2000
  141.1900   72.2630  221.4610 O   0  0  0  0  0  0  0  0  0  0  0  0
  140.3150   72.4490  222.3500 C   0  0  0  0  0  0  0  0  0  0  0  0
  139.4490   73.5610  222.1810 N   0  0  0  0  0  0  0  0  0  0  0  0
  139.6010   74.4020  221.0350 C   0  0  0  0  0  0  0  0  0  0  0  0
  140.5930   75.4990  221.2730 C   0  0  0  0  0  0  0  0  0  0  0  0
  140.9400   75.8150  222.4350 O   0  0  0  0  0  0  0  0  0  0  0  0
  141.1650   76.2070  220.1790 N   0  0  0  0  0  0  0  0  0  0  0  0
  140.7780   75.9830  218.8080 C   0  0  0  0  0  0  0  0  0  0  0  0
  142.0030   76.3360  218.0260 C   0  0  0  0  0  0  0  0  0  0  0  0
  142.9300   77.0020  218.9960 C   0  0  0  0  0  0  0  0  0  0  0  0
  142.1810   77.2150  220.2880 C   0  0  1  0  0  0  0  0  0  0  0  0
  141.6820   78.5850  220.4490 C   0  0  0  0  0  0  0  0  0  0  0  0
  140.9720   79.4060  219.6030 C   0  0  0  0  0  0  0  0  0  0  0  0
  140.7300   80.5960  220.1810 N   0  0  0  0  0  0  0  0  0  0  0  0
  141.2730   80.5790  221.4080 C   0  0  0  0  0  0  0  0  0  0  0  0
  141.3090   81.5530  222.4160 C   0  0  0  0  0  0  0  0  0  0  0  0
  141.9530   81.2560  223.6090 C   0  0  0  0  0  0  0  0  0  0  0  0
  142.5370   80.0250  223.7750 C   0  0  0  0  0  0  0  0  0  0  0  0
  142.5190   79.0390  222.7970 C   0  0  0  0  0  0  0  0  0  0  0  0
  141.8700   79.3460  221.6020 C   0  0  0  0  0  0  0  0  0  0  0  0
  140.1830   71.5640  223.5190 C   0  0  0  0  0  0  0  0  0  0  0  0
  139.5360   70.3580  223.3290 C   0  0  0  0  0  0  0  0  0  0  0  0
  139.4110   69.5280  224.4270 C   0  0  0  0  0  0  0  0  0  0  0  0
  139.9120   69.8840  225.6680 C   0  0  0  0  0  0  0  0  0  0  0  0
  139.7830   69.0490  226.7670 C   0  0  0  0  0  0  0  0  0  0  0  0
  140.3050   69.4700  227.9670 C   0  0  0  0  0  0  0  0  0  0  0  0
  140.9500   70.6840  228.1320 C   0  0  0  0  0  0  0  0  0  0  0  0
  141.0780   71.5270  227.0190 C   0  0  0  0  0  0  0  0  0  0  0  0
  140.5570   71.1120  225.8080 C   0  0  0  0  0  0  0  0  0  0  0  0
  140.6700   71.9120  224.7220 N   0  0  0  0  0  0  0  0  0  0  0  0
  138.6960   73.7840  222.8730 H   0  0  0  0  0  0  0  0  0  0  0  0
  139.9445   73.7899  220.1881 H   0  0  0  0  0  0  0  0  0  0  0  0
  138.6264   74.8651  220.8211 H   0  0  0  0  0  0  0  0  0  0  0  0
  140.5004   74.9309  218.6466 H   0  0  0  0  0  0  0  0  0  0  0  0
  139.9005   76.5768  218.5126 H   0  0  0  0  0  0  0  0  0  0  0  0
  142.4682   75.4288  217.6131 H   0  0  0  0  0  0  0  0  0  0  0  0
  141.7652   76.9939  217.1771 H   0  0  0  0  0  0  0  0  0  0  0  0
  143.8064   76.3616  219.1742 H   0  0  0  0  0  0  0  0  0  0  0  0
  143.2764   77.9650  218.5927 H   0  0  0  0  0  0  0  0  0  0  0  0
  142.7910   77.1149  221.1979 H   0  0  0  0  0  0  0  0  0  0  0  0
  140.6462   79.1265  218.5902 H   0  0  0  0  0  0  0  0  0  0  0  0
  140.2080   81.4310  219.7790 H   0  0  0  0  0  0  0  0  0  0  0  0
  140.8356   82.5342  222.2641 H   0  0  0  0  0  0  0  0  0  0  0  0
  141.9951   82.0022  224.4161 H   0  0  0  0  0  0  0  0  0  0  0  0
  143.0431   79.8092  224.7275 H   0  0  0  0  0  0  0  0  0  0  0  0
  142.9951   78.0605  222.9580 H   0  0  0  0  0  0  0  0  0  0  0  0
  139.1371   70.0705  222.3450 H   0  0  0  0  0  0  0  0  0  0  0  0
  138.9007   68.5603  224.3123 H   0  0  0  0  0  0  0  0  0  0  0  0
  139.2768   68.0762  226.6812 H   0  0  0  0  0  0  0  0  0  0  0  0
  140.2052   68.8089  228.8405 H   0  0  0  0  0  0  0  0  0  0  0  0
  141.3521   70.9798  229.1122 H   0  0  0  0  0  0  0  0  0  0  0  0
  141.5834   72.5000  227.1079 H   0  0  0  0  0  0  0  0  0  0  0  0
  1  2  2  0
  2  3  1  0
  3  4  1  0
  4  5  1  0
  5  6  2  0
  5  7  1  0
  7  8  1  0
  8  9  1  0
  9 10  1  0
 10 11  1  0
 11 12  1  0
 12 13  2  0
 13 14  1  0
 14 15  1  0
 15 16  2  0
 16 17  1  0
 17 18  2  0
 18 19  1  0
 19 20  2  0
  2 21  1  0
 21 22  2  0
 22 23  1  0
 23 24  2  0
 24 25  1  0
 25 26  2  0
 26 27  1  0
 27 28  2  0
 28 29  1  0
 29 30  2  0
 11  7  1  0
 20 12  1  0
 30 21  1  0
 20 15  1  0
 29 24  1  0
  3 31  1  0
  4 32  1  0
  4 33  1  0
  8 34  1  0
  8 35  1  0
  9 36  1  0
  9 37  1  0
 10 38  1  0
 10 39  1  0
 11 40  1  1
 13 41  1  0
 14 42  1  0
 16 43  1  0
 17 44  1  0
 18 45  1  0
 19 46  1  0
 22 47  1  0
 23 48  1  0
 25 49  1  0
 26 50  1  0
 27 51  1  0
 28 52  1  0
M  END
>  <smiles>  (31) 
O=C(NCC(=O)N1CCC[C@H]1c1c[nH]c2ccccc12)c1ccc2ccccc2n1

>  <score_type>  (31) 
oracle

>  <origin>  (31) 
autodockgpu

>  <m_score__min__energy>  (31) 
-9.6099999999999994

>  <m_primary>  (31) 
energy

>  <rmsd>  (31) 
1.6057170341761042

>  <m_score__min__rmsd>  (31) 
1.6057170341761042

>  <meeko>  (31) 
{"free_energy": -9.44, "intermolecular_energy": -10.93, "internal_energy": -1.35, "cluster_size": 26, "cluster_id": 1, "rank_in_cluster": 16}

>  <energy>  (31) 
-9.25

>  <cluster_rmsd>  (31) 
0.63

>  <cluster>  (31) 
2

$$$$

     RDKit          3D

 52 56  0  0  0  0  0  0  0  0999 V2000
  139.9580   71.3450  221.3190 O   0  0  0  0  0  0  0  0  0  0  0  0
  139.8410   71.8440  222.4720 C   0  0  0  0  0  0  0  0  0  0  0  0
  139.6850   73.2530  222.5530 N   0  0  0  0  0  0  0  0  0  0  0  0
  139.6670   74.0270  221.3500 C   0  0  0  0  0  0  0  0  0  0  0  0
  139.9610   75.4730  221.6100 C   0  0  0  0  0  0  0  0  0  0  0  0
  139.4420   76.0730  222.5810 O   0  0  0  0  0  0  0  0  0  0  0  0
  140.8400   76.1960  220.7570 N   0  0  0  0  0  0  0  0  0  0  0  0
  141.1580   77.5890  220.9540 C   0  0  0  0  0  0  0  0  0  0  0  0
  141.4680   78.0860  219.5770 C   0  0  0  0  0  0  0  0  0  0  0  0
  141.5680   76.8650  218.7140 C   0  0  0  0  0  0  0  0  0  0  0  0
  141.5130   75.6530  219.6120 C   0  0  1  0  0  0  0  0  0  0  0  0
  142.8330   75.0730  219.8830 C   0  0  0  0  0  0  0  0  0  0  0  0
  144.0660   75.6540  220.0780 C   0  0  0  0  0  0  0  0  0  0  0  0
  145.0060   74.7190  220.2980 N   0  0  0  0  0  0  0  0  0  0  0  0
  144.4140   73.5150  220.2530 C   0  0  0  0  0  0  0  0  0  0  0  0
  144.9330   72.2240  220.4140 C   0  0  0  0  0  0  0  0  0  0  0  0
  144.0720   71.1400  220.3130 C   0  0  0  0  0  0  0  0  0  0  0  0
  142.7400   71.3540  220.0580 C   0  0  0  0  0  0  0  0  0  0  0  0
  142.1950   72.6210  219.8940 C   0  0  0  0  0  0  0  0  0  0  0  0
  143.0670   73.7040  219.9960 C   0  0  0  0  0  0  0  0  0  0  0  0
  139.8630   71.0190  223.6910 C   0  0  0  0  0  0  0  0  0  0  0  0
  139.3760   69.7300  223.5910 C   0  0  0  0  0  0  0  0  0  0  0  0
  139.3950   68.9570  224.7350 C   0  0  0  0  0  0  0  0  0  0  0  0
  139.8810   69.4470  225.9360 C   0  0  0  0  0  0  0  0  0  0  0  0
  139.8980   68.6680  227.0830 C   0  0  0  0  0  0  0  0  0  0  0  0
  140.3940   69.2230  228.2380 C   0  0  0  0  0  0  0  0  0  0  0  0
  140.8760   70.5190  228.3130 C   0  0  0  0  0  0  0  0  0  0  0  0
  140.8580   71.3050  227.1520 C   0  0  0  0  0  0  0  0  0  0  0  0
  140.3610   70.7550  225.9860 C   0  0  0  0  0  0  0  0  0  0  0  0
  140.3340   71.4980  224.8540 N   0  0  0  0  0  0  0  0  0  0  0  0
  139.5810   73.7450  223.4700 H   0  0  0  0  0  0  0  0  0  0  0  0
  140.4253   73.6287  220.6598 H   0  0  0  0  0  0  0  0  0  0  0  0
  138.6588   73.9574  220.9156 H   0  0  0  0  0  0  0  0  0  0  0  0
  140.3005   78.1295  221.3813 H   0  0  0  0  0  0  0  0  0  0  0  0
  141.9912   77.7385  221.6564 H   0  0  0  0  0  0  0  0  0  0  0  0
  140.6634   78.7442  219.2173 H   0  0  0  0  0  0  0  0  0  0  0  0
  142.3989   78.6717  219.5585 H   0  0  0  0  0  0  0  0  0  0  0  0
  140.7292   76.8409  218.0028 H   0  0  0  0  0  0  0  0  0  0  0  0
  142.5089   76.8759  218.1442 H   0  0  0  0  0  0  0  0  0  0  0  0
  140.9956   74.7825  219.1825 H   0  0  0  0  0  0  0  0  0  0  0  0
  144.2560   76.7373  220.0566 H   0  0  0  0  0  0  0  0  0  0  0  0
  146.0450   74.8580  220.4820 H   0  0  0  0  0  0  0  0  0  0  0  0
  146.0034   72.0720  220.6168 H   0  0  0  0  0  0  0  0  0  0  0  0
  144.4544   70.1160  220.4365 H   0  0  0  0  0  0  0  0  0  0  0  0
  142.0739   70.4821  219.9800 H   0  0  0  0  0  0  0  0  0  0  0  0
  141.1230   72.7636  219.6926 H   0  0  0  0  0  0  0  0  0  0  0  0
  138.9892   69.3359  222.6396 H   0  0  0  0  0  0  0  0  0  0  0  0
  139.0145   67.9258  224.6915 H   0  0  0  0  0  0  0  0  0  0  0  0
  139.5244   67.6335  227.0687 H   0  0  0  0  0  0  0  0  0  0  0  0
  140.4089   68.6067  229.1490 H   0  0  0  0  0  0  0  0  0  0  0  0
  141.2636   70.9220  229.2603 H   0  0  0  0  0  0  0  0  0  0  0  0
  141.2322   72.3392  227.1691 H   0  0  0  0  0  0  0  0  0  0  0  0
  1  2  2  0
  2  3  1  0
  3  4  1  0
  4  5  1  0
  5  6  2  0
  5  7  1  0
  7  8  1  0
  8  9  1  0
  9 10  1  0
 10 11  1  0
 11 12  1  0
 12 13  2  0
 13 14  1  0
 14 15  1  0
 15 16  2  0
 16 17  1  0
 17 18  2  0
 18 19  1  0
 19 20  2  0
  2 21  1  0
 21 22  2  0
 22 23  1  0
 23 24  2  0
 24 25  1  0
 25 26  2  0
 26 27  1  0
 27 28  2  0
 28 29  1  0
 29 30  2  0
 11  7  1  0
 20 12  1  0
 30 21  1  0
 20 15  1  0
 29 24  1  0
  3 31  1  0
  4 32  1  0
  4 33  1  0
  8 34  1  0
  8 35  1  0
  9 36  1  0
  9 37  1  0
 10 38  1  0
 10 39  1  0
 11 40  1  6
 13 41  1  0
 14 42  1  0
 16 43  1  0
 17 44  1  0
 18 45  1  0
 19 46  1  0
 22 47  1  0
 23 48  1  0
 25 49  1  0
 26 50  1  0
 27 51  1  0
 28 52  1  0
M  END
>  <smiles>  (32) 
O=C(NCC(=O)N1CCC[C@H]1c1c[nH]c2ccccc12)c1ccc2ccccc2n1

>  <score_type>  (32) 
oracle

>  <origin>  (32) 
autodockgpu

>  <m_score__min__energy>  (32) 
-9.6099999999999994

>  <m_primary>  (32) 
energy

>  <rmsd>  (32) 
1.9984092270922018

>  <m_score__min__rmsd>  (32) 
1.9984092270922018

>  <meeko>  (32) 
{"free_energy": -8.45, "intermolecular_energy": -9.94, "internal_energy": -2.02, "cluster_size": 3, "cluster_id": 6, "rank_in_cluster": 1}

>  <energy>  (32) 
-9.17

>  <cluster_rmsd>  (32) 
0.57

>  <cluster>  (32) 
2

$$$$

     RDKit          3D

 52 56  0  0  0  0  0  0  0  0999 V2000
  139.6490   71.2510  221.3090 O   0  0  0  0  0  0  0  0  0  0  0  0
  139.6680   71.8750  222.4050 C   0  0  0  0  0  0  0  0  0  0  0  0
  139.5170   73.2850  222.3490 N   0  0  0  0  0  0  0  0  0  0  0  0
  139.3530   73.9240  221.0790 C   0  0  0  0  0  0  0  0  0  0  0  0
  140.6670   74.2030  220.4180 C   0  0  0  0  0  0  0  0  0  0  0  0
  141.4870   73.2810  220.1950 O   0  0  0  0  0  0  0  0  0  0  0  0
  141.0130   75.5270  220.0280 N   0  0  0  0  0  0  0  0  0  0  0  0
  140.6970   76.0740  218.7310 C   0  0  0  0  0  0  0  0  0  0  0  0
  141.7710   77.0870  218.4970 C   0  0  0  0  0  0  0  0  0  0  0  0
  142.4810   77.2430  219.8070 C   0  0  0  0  0  0  0  0  0  0  0  0
  141.7080   76.4750  220.8510 C   0  0  1  0  0  0  0  0  0  0  0  0
  140.8480   77.3280  221.6790 C   0  0  0  0  0  0  0  0  0  0  0  0
  139.5090   77.2500  221.9910 C   0  0  0  0  0  0  0  0  0  0  0  0
  139.1450   78.2640  222.7950 N   0  0  0  0  0  0  0  0  0  0  0  0
  140.2280   79.0230  223.0230 C   0  0  0  0  0  0  0  0  0  0  0  0
  140.3960   80.1880  223.7850 C   0  0  0  0  0  0  0  0  0  0  0  0
  141.6540   80.7710  223.8440 C   0  0  0  0  0  0  0  0  0  0  0  0
  142.6990   80.1990  223.1610 C   0  0  0  0  0  0  0  0  0  0  0  0
  142.5650   79.0460  222.3990 C   0  0  0  0  0  0  0  0  0  0  0  0
  141.2990   78.4670  222.3440 C   0  0  0  0  0  0  0  0  0  0  0  0
  139.8380   71.1880  223.6960 C   0  0  0  0  0  0  0  0  0  0  0  0
  139.4720   69.8570  223.7580 C   0  0  0  0  0  0  0  0  0  0  0  0
  139.6300   69.2140  224.9700 C   0  0  0  0  0  0  0  0  0  0  0  0
  140.1340   69.8700  226.0800 C   0  0  0  0  0  0  0  0  0  0  0  0
  140.2900   69.2200  227.2960 C   0  0  0  0  0  0  0  0  0  0  0  0
  140.7960   69.9360  228.3550 C   0  0  0  0  0  0  0  0  0  0  0  0
  141.1550   71.2710  228.2670 C   0  0  0  0  0  0  0  0  0  0  0  0
  140.9950   71.9250  227.0380 C   0  0  0  0  0  0  0  0  0  0  0  0
  140.4880   71.2130  225.9680 C   0  0  0  0  0  0  0  0  0  0  0  0
  140.3270   71.8270  224.7730 N   0  0  0  0  0  0  0  0  0  0  0  0
  139.5200   73.8760  223.2130 H   0  0  0  0  0  0  0  0  0  0  0  0
  138.7588   73.2683  220.4255 H   0  0  0  0  0  0  0  0  0  0  0  0
  138.8453   74.8855  221.2453 H   0  0  0  0  0  0  0  0  0  0  0  0
  140.7228   75.2908  217.9590 H   0  0  0  0  0  0  0  0  0  0  0  0
  139.6873   76.5084  218.6882 H   0  0  0  0  0  0  0  0  0  0  0  0
  142.4686   76.7333  217.7235 H   0  0  0  0  0  0  0  0  0  0  0  0
  141.3549   78.0432  218.1469 H   0  0  0  0  0  0  0  0  0  0  0  0
  143.5021   76.8416  219.7283 H   0  0  0  0  0  0  0  0  0  0  0  0
  142.5439   78.3059  220.0833 H   0  0  0  0  0  0  0  0  0  0  0  0
  142.3259   75.9995  221.6269 H   0  0  0  0  0  0  0  0  0  0  0  0
  138.8290   76.4640  221.6309 H   0  0  0  0  0  0  0  0  0  0  0  0
  138.1840   78.4710  223.2020 H   0  0  0  0  0  0  0  0  0  0  0  0
  139.5469   80.6314  224.3257 H   0  0  0  0  0  0  0  0  0  0  0  0
  141.8131   81.6856  224.4342 H   0  0  0  0  0  0  0  0  0  0  0  0
  143.6882   80.6764  223.2203 H   0  0  0  0  0  0  0  0  0  0  0  0
  143.4203   78.6092  221.8627 H   0  0  0  0  0  0  0  0  0  0  0  0
  139.0715   69.3314  222.8786 H   0  0  0  0  0  0  0  0  0  0  0  0
  139.3483   68.1541  225.0555 H   0  0  0  0  0  0  0  0  0  0  0  0
  140.0162   68.1607  227.4096 H   0  0  0  0  0  0  0  0  0  0  0  0
  140.9220   69.4233  229.3200 H   0  0  0  0  0  0  0  0  0  0  0  0
  141.5561   71.8050  229.1410 H   0  0  0  0  0  0  0  0  0  0  0  0
  141.2678   72.9849  226.9273 H   0  0  0  0  0  0  0  0  0  0  0  0
  1  2  2  0
  2  3  1  0
  3  4  1  0
  4  5  1  0
  5  6  2  0
  5  7  1  0
  7  8  1  0
  8  9  1  0
  9 10  1  0
 10 11  1  0
 11 12  1  0
 12 13  2  0
 13 14  1  0
 14 15  1  0
 15 16  2  0
 16 17  1  0
 17 18  2  0
 18 19  1  0
 19 20  2  0
  2 21  1  0
 21 22  2  0
 22 23  1  0
 23 24  2  0
 24 25  1  0
 25 26  2  0
 26 27  1  0
 27 28  2  0
 28 29  1  0
 29 30  2  0
 11  7  1  0
 20 12  1  0
 30 21  1  0
 20 15  1  0
 29 24  1  0
  3 31  1  0
  4 32  1  0
  4 33  1  0
  8 34  1  0
  8 35  1  0
  9 36  1  0
  9 37  1  0
 10 38  1  0
 10 39  1  0
 11 40  1  1
 13 41  1  0
 14 42  1  0
 16 43  1  0
 17 44  1  0
 18 45  1  0
 19 46  1  0
 22 47  1  0
 23 48  1  0
 25 49  1  0
 26 50  1  0
 27 51  1  0
 28 52  1  0
M  END
>  <smiles>  (33) 
O=C(NCC(=O)N1CCC[C@H]1c1c[nH]c2ccccc12)c1ccc2ccccc2n1

>  <score_type>  (33) 
oracle

>  <origin>  (33) 
autodockgpu

>  <m_score__min__energy>  (33) 
-9.6099999999999994

>  <m_primary>  (33) 
energy

>  <rmsd>  (33) 
1.5603665285841277

>  <m_score__min__rmsd>  (33) 
1.5603665285841277

>  <meeko>  (33) 
{"free_energy": -9.09, "intermolecular_energy": -10.58, "internal_energy": -1.37, "cluster_size": 26, "cluster_id": 1, "rank_in_cluster": 20}

>  <energy>  (33) 
-9.07

>  <cluster_rmsd>  (33) 
0.58

>  <cluster>  (33) 
2

$$$$

     RDKit          3D

 52 56  0  0  0  0  0  0  0  0999 V2000
  140.8020   71.5910  221.3420 O   0  0  0  0  0  0  0  0  0  0  0  0
  140.3420   72.1310  222.3850 C   0  0  0  0  0  0  0  0  0  0  0  0
  139.9720   73.4980  222.2950 N   0  0  0  0  0  0  0  0  0  0  0  0
  140.1320   74.1890  221.0520 C   0  0  0  0  0  0  0  0  0  0  0  0
  140.5320   75.6180  221.2530 C   0  0  0  0  0  0  0  0  0  0  0  0
  140.3650   76.1860  222.3580 O   0  0  0  0  0  0  0  0  0  0  0  0
  141.1130   76.3620  220.1890 N   0  0  0  0  0  0  0  0  0  0  0  0
  140.7260   76.1980  218.8090 C   0  0  0  0  0  0  0  0  0  0  0  0
  141.9560   76.5670  218.0430 C   0  0  0  0  0  0  0  0  0  0  0  0
  142.8900   77.1830  219.0400 C   0  0  0  0  0  0  0  0  0  0  0  0
  142.1410   77.3530  220.3390 C   0  0  1  0  0  0  0  0  0  0  0  0
  141.6580   78.7210  220.5540 C   0  0  0  0  0  0  0  0  0  0  0  0
  140.9370   79.5750  219.7500 C   0  0  0  0  0  0  0  0  0  0  0  0
  140.7190   80.7470  220.3710 N   0  0  0  0  0  0  0  0  0  0  0  0
  141.2880   80.6880  221.5840 C   0  0  0  0  0  0  0  0  0  0  0  0
  141.3550   81.6290  222.6210 C   0  0  0  0  0  0  0  0  0  0  0  0
  142.0230   81.2890  223.7890 C   0  0  0  0  0  0  0  0  0  0  0  0
  142.6000   80.0480  223.9040 C   0  0  0  0  0  0  0  0  0  0  0  0
  142.5510   79.0950  222.8960 C   0  0  0  0  0  0  0  0  0  0  0  0
  141.8790   79.4440  221.7260 C   0  0  0  0  0  0  0  0  0  0  0  0
  140.1890   71.3920  223.6490 C   0  0  0  0  0  0  0  0  0  0  0  0
  139.5300   70.1790  223.5970 C   0  0  0  0  0  0  0  0  0  0  0  0
  139.3850   69.4870  224.7840 C   0  0  0  0  0  0  0  0  0  0  0  0
  139.8770   69.9840  225.9790 C   0  0  0  0  0  0  0  0  0  0  0  0
  139.7290   69.2860  227.1690 C   0  0  0  0  0  0  0  0  0  0  0  0
  140.2440   69.8410  228.3160 C   0  0  0  0  0  0  0  0  0  0  0  0
  140.9010   71.0610  228.3420 C   0  0  0  0  0  0  0  0  0  0  0  0
  141.0490   71.7630  227.1380 C   0  0  0  0  0  0  0  0  0  0  0  0
  140.5350   71.2130  225.9800 C   0  0  0  0  0  0  0  0  0  0  0  0
  140.6680   71.8760  224.8080 N   0  0  0  0  0  0  0  0  0  0  0  0
  139.5810   74.0200  223.1140 H   0  0  0  0  0  0  0  0  0  0  0  0
  140.9093   73.6822  220.4612 H   0  0  0  0  0  0  0  0  0  0  0  0
  139.1643   74.1770  220.5291 H   0  0  0  0  0  0  0  0  0  0  0  0
  140.4360   75.1567  218.6052 H   0  0  0  0  0  0  0  0  0  0  0  0
  139.8564   76.8142  218.5367 H   0  0  0  0  0  0  0  0  0  0  0  0
  142.4109   75.6714  217.5948 H   0  0  0  0  0  0  0  0  0  0  0  0
  141.7273   77.2610  217.2207 H   0  0  0  0  0  0  0  0  0  0  0  0
  143.7585   76.5256  219.1933 H   0  0  0  0  0  0  0  0  0  0  0  0
  143.2487   78.1570  218.6759 H   0  0  0  0  0  0  0  0  0  0  0  0
  142.7484   77.2093  221.2448 H   0  0  0  0  0  0  0  0  0  0  0  0
  140.5866   79.3311  218.7362 H   0  0  0  0  0  0  0  0  0  0  0  0
  140.1940   81.5990  220.0080 H   0  0  0  0  0  0  0  0  0  0  0  0
  140.8869   82.6183  222.5110 H   0  0  0  0  0  0  0  0  0  0  0  0
  142.0899   82.0092  224.6178 H   0  0  0  0  0  0  0  0  0  0  0  0
  143.1250   79.7978  224.8377 H   0  0  0  0  0  0  0  0  0  0  0  0
  143.0217   78.1080  223.0154 H   0  0  0  0  0  0  0  0  0  0  0  0
  139.1371   69.7806  222.6499 H   0  0  0  0  0  0  0  0  0  0  0  0
  138.8658   68.5172  224.7796 H   0  0  0  0  0  0  0  0  0  0  0  0
  139.2134   68.3146  227.1937 H   0  0  0  0  0  0  0  0  0  0  0  0
  140.1290   69.2893  229.2607 H   0  0  0  0  0  0  0  0  0  0  0  0
  141.2965   71.4682  229.2842 H   0  0  0  0  0  0  0  0  0  0  0  0
  141.5650   72.7342  227.1157 H   0  0  0  0  0  0  0  0  0  0  0  0
  1  2  2  0
  2  3  1  0
  3  4  1  0
  4  5  1  0
  5  6  2  0
  5  7  1  0
  7  8  1  0
  8  9  1  0
  9 10  1  0
 10 11  1  0
 11 12  1  0
 12 13  2  0
 13 14  1  0
 14 15  1  0
 15 16  2  0
 16 17  1  0
 17 18  2  0
 18 19  1  0
 19 20  2  0
  2 21  1  0
 21 22  2  0
 22 23  1  0
 23 24  2  0
 24 25  1  0
 25 26  2  0
 26 27  1  0
 27 28  2  0
 28 29  1  0
 29 30  2  0
 11  7  1  0
 20 12  1  0
 30 21  1  0
 20 15  1  0
 29 24  1  0
  3 31  1  0
  4 32  1  0
  4 33  1  0
  8 34  1  0
  8 35  1  0
  9 36  1  0
  9 37  1  0
 10 38  1  0
 10 39  1  0
 11 40  1  1
 13 41  1  0
 14 42  1  0
 16 43  1  0
 17 44  1  0
 18 45  1  0
 19 46  1  0
 22 47  1  0
 23 48  1  0
 25 49  1  0
 26 50  1  0
 27 51  1  0
 28 52  1  0
M  END
>  <smiles>  (34) 
O=C(NCC(=O)N1CCC[C@H]1c1c[nH]c2ccccc12)c1ccc2ccccc2n1

>  <score_type>  (34) 
oracle

>  <origin>  (34) 
autodockgpu

>  <m_score__min__energy>  (34) 
-9.6099999999999994

>  <m_primary>  (34) 
energy

>  <rmsd>  (34) 
1.6888146893388263

>  <m_score__min__rmsd>  (34) 
1.6888146893388263

>  <meeko>  (34) 
{"free_energy": -9.56, "intermolecular_energy": -11.05, "internal_energy": -1.62, "cluster_size": 26, "cluster_id": 1, "rank_in_cluster": 5}

>  <energy>  (34) 
-9.04

>  <cluster_rmsd>  (34) 
1.01

>  <cluster>  (34) 
2

$$$$

     RDKit          3D

 52 56  0  0  0  0  0  0  0  0999 V2000
  137.3660   74.8190  221.4720 O   0  0  0  0  0  0  0  0  0  0  0  0
  138.4950   75.1010  221.9580 C   0  0  0  0  0  0  0  0  0  0  0  0
  139.3400   74.0130  222.3020 N   0  0  0  0  0  0  0  0  0  0  0  0
  138.8840   72.6750  222.0860 C   0  0  0  0  0  0  0  0  0  0  0  0
  139.6020   71.6910  222.9580 C   0  0  0  0  0  0  0  0  0  0  0  0
  140.5770   72.0440  223.6630 O   0  0  0  0  0  0  0  0  0  0  0  0
  139.1910   70.3300  223.0040 N   0  0  0  0  0  0  0  0  0  0  0  0
  139.5680   69.3590  222.0060 C   0  0  0  0  0  0  0  0  0  0  0  0
  138.4430   68.3730  222.0190 C   0  0  0  0  0  0  0  0  0  0  0  0
  137.6210   68.7070  223.2270 C   0  0  0  0  0  0  0  0  0  0  0  0
  138.3630   69.7510  224.0240 C   0  0  1  0  0  0  0  0  0  0  0  0
  139.0870   69.1970  225.1730 C   0  0  0  0  0  0  0  0  0  0  0  0
  139.2710   67.9010  225.6000 C   0  0  0  0  0  0  0  0  0  0  0  0
  140.0170   67.8680  226.7190 N   0  0  0  0  0  0  0  0  0  0  0  0
  140.3330   69.1300  227.0450 C   0  0  0  0  0  0  0  0  0  0  0  0
  141.0840   69.6490  228.1090 C   0  0  0  0  0  0  0  0  0  0  0  0
  141.2520   71.0240  228.2000 C   0  0  0  0  0  0  0  0  0  0  0  0
  140.6840   71.8400  227.2540 C   0  0  0  0  0  0  0  0  0  0  0  0
  139.9350   71.3570  226.1890 C   0  0  0  0  0  0  0  0  0  0  0  0
  139.7700   69.9760  226.1050 C   0  0  0  0  0  0  0  0  0  0  0  0
  138.9350   76.4900  222.1670 C   0  0  0  0  0  0  0  0  0  0  0  0
  138.0690   77.4940  221.7780 C   0  0  0  0  0  0  0  0  0  0  0  0
  138.4830   78.7960  221.9720 C   0  0  0  0  0  0  0  0  0  0  0  0
  139.7150   79.0920  222.5330 C   0  0  0  0  0  0  0  0  0  0  0  0
  140.1270   80.4020  222.7250 C   0  0  0  0  0  0  0  0  0  0  0  0
  141.3630   80.6180  223.2870 C   0  0  0  0  0  0  0  0  0  0  0  0
  142.2140   79.5940  223.6680 C   0  0  0  0  0  0  0  0  0  0  0  0
  141.7950   78.2710  223.4720 C   0  0  0  0  0  0  0  0  0  0  0  0
  140.5540   78.0440  222.9080 C   0  0  0  0  0  0  0  0  0  0  0  0
  140.1310   76.7740  222.7110 N   0  0  0  0  0  0  0  0  0  0  0  0
  140.2930   74.1610  222.7090 H   0  0  0  0  0  0  0  0  0  0  0  0
  137.8075   72.6264  222.3070 H   0  0  0  0  0  0  0  0  0  0  0  0
  139.0866   72.4116  221.0374 H   0  0  0  0  0  0  0  0  0  0  0  0
  139.6630   69.8311  221.0170 H   0  0  0  0  0  0  0  0  0  0  0  0
  140.5424   68.8931  222.2147 H   0  0  0  0  0  0  0  0  0  0  0  0
  137.8381   68.4700  221.1054 H   0  0  0  0  0  0  0  0  0  0  0  0
  138.8126   67.3376  222.0545 H   0  0  0  0  0  0  0  0  0  0  0  0
  136.6427   69.1016  222.9150 H   0  0  0  0  0  0  0  0  0  0  0  0
  137.4568   67.8067  223.8374 H   0  0  0  0  0  0  0  0  0  0  0  0
  137.7223   70.4892  224.5284 H   0  0  0  0  0  0  0  0  0  0  0  0
  138.8633   67.0131  225.0947 H   0  0  0  0  0  0  0  0  0  0  0  0
  140.3260   67.0190  227.2800 H   0  0  0  0  0  0  0  0  0  0  0  0
  141.5318   68.9791  228.8578 H   0  0  0  0  0  0  0  0  0  0  0  0
  141.8367   71.4567  229.0251 H   0  0  0  0  0  0  0  0  0  0  0  0
  140.8287   72.9268  227.3435 H   0  0  0  0  0  0  0  0  0  0  0  0
  139.4916   72.0347  225.4446 H   0  0  0  0  0  0  0  0  0  0  0  0
  137.0899   77.2648  221.3320 H   0  0  0  0  0  0  0  0  0  0  0  0
  137.8181   79.6199  221.6737 H   0  0  0  0  0  0  0  0  0  0  0  0
  139.4826   81.2452  222.4356 H   0  0  0  0  0  0  0  0  0  0  0  0
  141.6924   81.6560  223.4418 H   0  0  0  0  0  0  0  0  0  0  0  0
  143.1953   79.8138  224.1138 H   0  0  0  0  0  0  0  0  0  0  0  0
  142.4416   77.4295  223.7615 H   0  0  0  0  0  0  0  0  0  0  0  0
  1  2  2  0
  2  3  1  0
  3  4  1  0
  4  5  1  0
  5  6  2  0
  5  7  1  0
  7  8  1  0
  8  9  1  0
  9 10  1  0
 10 11  1  0
 11 12  1  0
 12 13  2  0
 13 14  1  0
 14 15  1  0
 15 16  2  0
 16 17  1  0
 17 18  2  0
 18 19  1  0
 19 20  2  0
  2 21  1  0
 21 22  2  0
 22 23  1  0
 23 24  2  0
 24 25  1  0
 25 26  2  0
 26 27  1  0
 27 28  2  0
 28 29  1  0
 29 30  2  0
 11  7  1  0
 20 12  1  0
 30 21  1  0
 20 15  1  0
 29 24  1  0
  3 31  1  0
  4 32  1  0
  4 33  1  0
  8 34  1  0
  8 35  1  0
  9 36  1  0
  9 37  1  0
 10 38  1  0
 10 39  1  0
 11 40  1  1
 13 41  1  0
 14 42  1  0
 16 43  1  0
 17 44  1  0
 18 45  1  0
 19 46  1  0
 22 47  1  0
 23 48  1  0
 25 49  1  0
 26 50  1  0
 27 51  1  0
 28 52  1  0
M  END
>  <smiles>  (35) 
O=C(NCC(=O)N1CCC[C@H]1c1c[nH]c2ccccc12)c1ccc2ccccc2n1

>  <score_type>  (35) 
oracle

>  <origin>  (35) 
autodockgpu

>  <m_score__min__energy>  (35) 
-9.6099999999999994

>  <m_primary>  (35) 
energy

>  <rmsd>  (35) 
8.25377554139314

>  <m_score__min__rmsd>  (35) 
8.25377554139314

>  <meeko>  (35) 
{"free_energy": -8.91, "intermolecular_energy": -10.41, "internal_energy": -1.79, "cluster_size": 13, "cluster_id": 2, "rank_in_cluster": 10}

>  <energy>  (35) 
-8.93

>  <cluster_rmsd>  (35) 
1.16

>  <cluster>  (35) 
2

$$$$

     RDKit          3D

 52 56  0  0  0  0  0  0  0  0999 V2000
  140.6750   71.6200  221.2870 O   0  0  0  0  0  0  0  0  0  0  0  0
  140.1760   72.1110  222.3370 C   0  0  0  0  0  0  0  0  0  0  0  0
  139.6420   73.4230  222.2460 N   0  0  0  0  0  0  0  0  0  0  0  0
  139.6920   74.1170  220.9960 C   0  0  0  0  0  0  0  0  0  0  0  0
  140.1910   75.5200  221.1530 C   0  0  0  0  0  0  0  0  0  0  0  0
  139.8590   76.2160  222.1410 O   0  0  0  0  0  0  0  0  0  0  0  0
  141.0560   76.0930  220.1810 N   0  0  0  0  0  0  0  0  0  0  0  0
  140.9310   75.8380  218.7660 C   0  0  0  0  0  0  0  0  0  0  0  0
  142.3230   76.0020  218.2460 C   0  0  0  0  0  0  0  0  0  0  0  0
  143.1110   76.6100  219.3660 C   0  0  0  0  0  0  0  0  0  0  0  0
  142.1470   76.9820  220.4660 C   0  0  1  0  0  0  0  0  0  0  0  0
  141.8010   78.4080  220.4760 C   0  0  0  0  0  0  0  0  0  0  0  0
  141.3730   79.2530  219.4770 C   0  0  0  0  0  0  0  0  0  0  0  0
  141.1760   80.4940  219.9530 N   0  0  0  0  0  0  0  0  0  0  0  0
  141.4680   80.4890  221.2620 C   0  0  0  0  0  0  0  0  0  0  0  0
  141.4310   81.5110  222.2210 C   0  0  0  0  0  0  0  0  0  0  0  0
  141.7930   81.2140  223.5270 C   0  0  0  0  0  0  0  0  0  0  0  0
  142.1770   79.9370  223.8510 C   0  0  0  0  0  0  0  0  0  0  0  0
  142.2230   78.9030  222.9250 C   0  0  0  0  0  0  0  0  0  0  0  0
  141.8580   79.2090  221.6150 C   0  0  0  0  0  0  0  0  0  0  0  0
  140.1390   71.3700  223.6080 C   0  0  0  0  0  0  0  0  0  0  0  0
  139.5600   70.1160  223.5930 C   0  0  0  0  0  0  0  0  0  0  0  0
  139.5240   69.4220  224.7870 C   0  0  0  0  0  0  0  0  0  0  0  0
  140.0440   69.9570  225.9540 C   0  0  0  0  0  0  0  0  0  0  0  0
  140.0050   69.2570  227.1510 C   0  0  0  0  0  0  0  0  0  0  0  0
  140.5410   69.8520  228.2690 C   0  0  0  0  0  0  0  0  0  0  0  0
  141.1160   71.1120  228.2580 C   0  0  0  0  0  0  0  0  0  0  0  0
  141.1530   71.8170  227.0470 C   0  0  0  0  0  0  0  0  0  0  0  0
  140.6170   71.2270  225.9180 C   0  0  0  0  0  0  0  0  0  0  0  0
  140.6440   71.8910  224.7390 N   0  0  0  0  0  0  0  0  0  0  0  0
  139.2090   73.9010  223.0700 H   0  0  0  0  0  0  0  0  0  0  0  0
  140.3649   73.5748  220.3154 H   0  0  0  0  0  0  0  0  0  0  0  0
  138.6700   74.1631  220.5918 H   0  0  0  0  0  0  0  0  0  0  0  0
  140.5628   74.8177  218.5834 H   0  0  0  0  0  0  0  0  0  0  0  0
  140.2131   76.5119  218.2756 H   0  0  0  0  0  0  0  0  0  0  0  0
  142.7450   75.0251  217.9676 H   0  0  0  0  0  0  0  0  0  0  0  0
  142.3460   76.6344  217.3463 H   0  0  0  0  0  0  0  0  0  0  0  0
  143.8454   75.8832  219.7432 H   0  0  0  0  0  0  0  0  0  0  0  0
  143.6511   77.5011  219.0136 H   0  0  0  0  0  0  0  0  0  0  0  0
  142.5423   76.8644  221.4858 H   0  0  0  0  0  0  0  0  0  0  0  0
  141.2138   78.9529  218.4308 H   0  0  0  0  0  0  0  0  0  0  0  0
  140.8470   81.3590  219.4260 H   0  0  0  0  0  0  0  0  0  0  0  0
  141.1208   82.5291  221.9432 H   0  0  0  0  0  0  0  0  0  0  0  0
  141.7723   81.9978  224.2985 H   0  0  0  0  0  0  0  0  0  0  0  0
  142.4614   79.7226  224.8917 H   0  0  0  0  0  0  0  0  0  0  0  0
  142.5337   77.8877  223.2126 H   0  0  0  0  0  0  0  0  0  0  0  0
  139.1448   69.6877  222.6688 H   0  0  0  0  0  0  0  0  0  0  0  0
  139.0712   68.4198  224.8115 H   0  0  0  0  0  0  0  0  0  0  0  0
  139.5576   68.2535  227.2045 H   0  0  0  0  0  0  0  0  0  0  0  0
  140.5116   69.2995  229.2197 H   0  0  0  0  0  0  0  0  0  0  0  0
  141.5335   71.5488  229.1772 H   0  0  0  0  0  0  0  0  0  0  0  0
  141.6001   72.8207  226.9963 H   0  0  0  0  0  0  0  0  0  0  0  0
  1  2  2  0
  2  3  1  0
  3  4  1  0
  4  5  1  0
  5  6  2  0
  5  7  1  0
  7  8  1  0
  8  9  1  0
  9 10  1  0
 10 11  1  0
 11 12  1  0
 12 13  2  0
 13 14  1  0
 14 15  1  0
 15 16  2  0
 16 17  1  0
 17 18  2  0
 18 19  1  0
 19 20  2  0
  2 21  1  0
 21 22  2  0
 22 23  1  0
 23 24  2  0
 24 25  1  0
 25 26  2  0
 26 27  1  0
 27 28  2  0
 28 29  1  0
 29 30  2  0
 11  7  1  0
 20 12  1  0
 30 21  1  0
 20 15  1  0
 29 24  1  0
  3 31  1  0
  4 32  1  0
  4 33  1  0
  8 34  1  0
  8 35  1  0
  9 36  1  0
  9 37  1  0
 10 38  1  0
 10 39  1  0
 11 40  1  1
 13 41  1  0
 14 42  1  0
 16 43  1  0
 17 44  1  0
 18 45  1  0
 19 46  1  0
 22 47  1  0
 23 48  1  0
 25 49  1  0
 26 50  1  0
 27 51  1  0
 28 52  1  0
M  END
>  <smiles>  (36) 
O=C(NCC(=O)N1CCC[C@H]1c1c[nH]c2ccccc12)c1ccc2ccccc2n1

>  <score_type>  (36) 
oracle

>  <origin>  (36) 
autodockgpu

>  <m_score__min__energy>  (36) 
-9.6099999999999994

>  <m_primary>  (36) 
energy

>  <rmsd>  (36) 
1.689821197402922

>  <m_score__min__rmsd>  (36) 
1.689821197402922

>  <meeko>  (36) 
{"free_energy": -9.49, "intermolecular_energy": -10.98, "internal_energy": -1.51, "cluster_size": 26, "cluster_id": 1, "rank_in_cluster": 12}

>  <energy>  (36) 
-8.91

>  <cluster_rmsd>  (36) 
1.28

>  <cluster>  (36) 
2

$$$$

     RDKit          3D

 52 56  0  0  0  0  0  0  0  0999 V2000
  138.6030   70.8210  221.4120 O   0  0  0  0  0  0  0  0  0  0  0  0
  138.4820   71.3770  222.5380 C   0  0  0  0  0  0  0  0  0  0  0  0
  137.8120   72.6270  222.5720 N   0  0  0  0  0  0  0  0  0  0  0  0
  137.3110   73.1890  221.3560 C   0  0  0  0  0  0  0  0  0  0  0  0
  138.2930   74.1290  220.7270 C   0  0  0  0  0  0  0  0  0  0  0  0
  137.9230   75.2320  220.2590 O   0  0  0  0  0  0  0  0  0  0  0  0
  139.6720   73.7890  220.6500 N   0  0  0  0  0  0  0  0  0  0  0  0
  140.2060   72.8870  219.6590 C   0  0  0  0  0  0  0  0  0  0  0  0
  141.4050   72.2900  220.3240 C   0  0  0  0  0  0  0  0  0  0  0  0
  141.6310   73.1000  221.5640 C   0  0  0  0  0  0  0  0  0  0  0  0
  140.6950   74.2830  221.5270 C   0  0  1  0  0  0  0  0  0  0  0  0
  141.3460   75.5220  221.0880 C   0  0  0  0  0  0  0  0  0  0  0  0
  142.3480   75.7560  220.1730 C   0  0  0  0  0  0  0  0  0  0  0  0
  142.6270   77.0680  220.0950 N   0  0  0  0  0  0  0  0  0  0  0  0
  141.8220   77.7170  220.9500 C   0  0  0  0  0  0  0  0  0  0  0  0
  141.7040   79.0800  221.2550 C   0  0  0  0  0  0  0  0  0  0  0  0
  140.7670   79.4740  222.1990 C   0  0  0  0  0  0  0  0  0  0  0  0
  139.9800   78.5290  222.8090 C   0  0  0  0  0  0  0  0  0  0  0  0
  140.0720   77.1720  222.5280 C   0  0  0  0  0  0  0  0  0  0  0  0
  141.0170   76.7840  221.5800 C   0  0  0  0  0  0  0  0  0  0  0  0
  139.0080   70.7710  223.7720 C   0  0  0  0  0  0  0  0  0  0  0  0
  138.8870   69.4010  223.9060 C   0  0  0  0  0  0  0  0  0  0  0  0
  139.3790   68.8340  225.0650 C   0  0  0  0  0  0  0  0  0  0  0  0
  139.9700   69.6010  226.0560 C   0  0  0  0  0  0  0  0  0  0  0  0
  140.4630   69.0270  227.2190 C   0  0  0  0  0  0  0  0  0  0  0  0
  141.0360   69.8510  228.1570 C   0  0  0  0  0  0  0  0  0  0  0  0
  141.1450   71.2230  227.9990 C   0  0  0  0  0  0  0  0  0  0  0  0
  140.6470   71.8000  226.8230 C   0  0  0  0  0  0  0  0  0  0  0  0
  140.0690   70.9790  225.8740 C   0  0  0  0  0  0  0  0  0  0  0  0
  139.5820   71.5170  224.7310 N   0  0  0  0  0  0  0  0  0  0  0  0
  137.6690   73.1530  223.4660 H   0  0  0  0  0  0  0  0  0  0  0  0
  137.0970   72.3736  220.6494 H   0  0  0  0  0  0  0  0  0  0  0  0
  136.4001   73.7579  221.5941 H   0  0  0  0  0  0  0  0  0  0  0  0
  139.4724   72.1084  219.4029 H   0  0  0  0  0  0  0  0  0  0  0  0
  140.4533   73.3933  218.7143 H   0  0  0  0  0  0  0  0  0  0  0  0
  141.2149   71.2380  220.5832 H   0  0  0  0  0  0  0  0  0  0  0  0
  142.2845   72.3076  219.6636 H   0  0  0  0  0  0  0  0  0  0  0  0
  141.4224   72.4870  222.4532 H   0  0  0  0  0  0  0  0  0  0  0  0
  142.6756   73.4413  221.6116 H   0  0  0  0  0  0  0  0  0  0  0  0
  140.3064   74.5967  222.5071 H   0  0  0  0  0  0  0  0  0  0  0  0
  142.8519   74.9745  219.5854 H   0  0  0  0  0  0  0  0  0  0  0  0
  143.3490   77.5540  219.4810 H   0  0  0  0  0  0  0  0  0  0  0  0
  142.3425   79.8233  220.7552 H   0  0  0  0  0  0  0  0  0  0  0  0
  140.6553   80.5374  222.4573 H   0  0  0  0  0  0  0  0  0  0  0  0
  139.2428   78.8618  223.5545 H   0  0  0  0  0  0  0  0  0  0  0  0
  139.4276   76.4362  223.0313 H   0  0  0  0  0  0  0  0  0  0  0  0
  138.4184   68.7878  223.1222 H   0  0  0  0  0  0  0  0  0  0  0  0
  139.2997   67.7458  225.2050 H   0  0  0  0  0  0  0  0  0  0  0  0
  140.3968   67.9417  227.3854 H   0  0  0  0  0  0  0  0  0  0  0  0
  141.4280   69.3987  229.0799 H   0  0  0  0  0  0  0  0  0  0  0  0
  141.6112   71.8444  228.7778 H   0  0  0  0  0  0  0  0  0  0  0  0
  140.7150   72.8855  226.6587 H   0  0  0  0  0  0  0  0  0  0  0  0
  1  2  2  0
  2  3  1  0
  3  4  1  0
  4  5  1  0
  5  6  2  0
  5  7  1  0
  7  8  1  0
  8  9  1  0
  9 10  1  0
 10 11  1  0
 11 12  1  0
 12 13  2  0
 13 14  1  0
 14 15  1  0
 15 16  2  0
 16 17  1  0
 17 18  2  0
 18 19  1  0
 19 20  2  0
  2 21  1  0
 21 22  2  0
 22 23  1  0
 23 24  2  0
 24 25  1  0
 25 26  2  0
 26 27  1  0
 27 28  2  0
 28 29  1  0
 29 30  2  0
 11  7  1  0
 20 12  1  0
 30 21  1  0
 20 15  1  0
 29 24  1  0
  3 31  1  0
  4 32  1  0
  4 33  1  0
  8 34  1  0
  8 35  1  0
  9 36  1  0
  9 37  1  0
 10 38  1  0
 10 39  1  0
 11 40  1  1
 13 41  1  0
 14 42  1  0
 16 43  1  0
 17 44  1  0
 18 45  1  0
 19 46  1  0
 22 47  1  0
 23 48  1  0
 25 49  1  0
 26 50  1  0
 27 51  1  0
 28 52  1  0
M  END
>  <smiles>  (37) 
O=C(NCC(=O)N1CCC[C@H]1c1c[nH]c2ccccc12)c1ccc2ccccc2n1

>  <score_type>  (37) 
oracle

>  <origin>  (37) 
autodockgpu

>  <m_score__min__energy>  (37) 
-9.6099999999999994

>  <m_primary>  (37) 
energy

>  <rmsd>  (37) 
2.576951294729535

>  <m_score__min__rmsd>  (37) 
2.576951294729535

>  <meeko>  (37) 
{"free_energy": -7.98, "intermolecular_energy": -9.47, "internal_energy": -1.99, "cluster_size": 1, "cluster_id": 8, "rank_in_cluster": 1}

>  <energy>  (37) 
-8.81

>  <cluster_rmsd>  (37) 
1.55

>  <cluster>  (37) 
2

$$$$

     RDKit          3D

 52 56  0  0  0  0  0  0  0  0999 V2000
  133.9260   70.1940  226.2200 O   0  0  0  0  0  0  0  0  0  0  0  0
  134.0180   71.3310  225.6790 C   0  0  0  0  0  0  0  0  0  0  0  0
  134.7320   71.4070  224.4550 N   0  0  0  0  0  0  0  0  0  0  0  0
  135.3030   70.2200  223.8990 C   0  0  0  0  0  0  0  0  0  0  0  0
  136.6870   69.9700  224.4120 C   0  0  0  0  0  0  0  0  0  0  0  0
  136.8880   69.2010  225.3810 O   0  0  0  0  0  0  0  0  0  0  0  0
  137.8080   70.6040  223.8070 N   0  0  0  0  0  0  0  0  0  0  0  0
  137.7100   71.8360  223.0630 C   0  0  0  0  0  0  0  0  0  0  0  0
  138.8350   71.7560  222.0820 C   0  0  0  0  0  0  0  0  0  0  0  0
  139.6740   70.5920  222.5160 C   0  0  0  0  0  0  0  0  0  0  0  0
  139.1570   70.1150  223.8500 C   0  0  1  0  0  0  0  0  0  0  0  0
  139.9550   70.5910  224.9850 C   0  0  0  0  0  0  0  0  0  0  0  0
  140.6610   71.7570  225.1820 C   0  0  0  0  0  0  0  0  0  0  0  0
  141.2470   71.7610  226.3920 N   0  0  0  0  0  0  0  0  0  0  0  0
  140.9410   70.6090  227.0070 C   0  0  0  0  0  0  0  0  0  0  0  0
  141.2930   70.1140  228.2710 C   0  0  0  0  0  0  0  0  0  0  0  0
  140.8240   68.8660  228.6530 C   0  0  0  0  0  0  0  0  0  0  0  0
  140.0320   68.1460  227.7930 C   0  0  0  0  0  0  0  0  0  0  0  0
  139.6660   68.6090  226.5350 C   0  0  0  0  0  0  0  0  0  0  0  0
  140.1410   69.8630  226.1590 C   0  0  0  0  0  0  0  0  0  0  0  0
  133.4180   72.5350  226.2770 C   0  0  0  0  0  0  0  0  0  0  0  0
  132.2740   72.3630  227.0330 C   0  0  0  0  0  0  0  0  0  0  0  0
  131.7110   73.4940  227.5920 C   0  0  0  0  0  0  0  0  0  0  0  0
  132.2640   74.7490  227.4060 C   0  0  0  0  0  0  0  0  0  0  0  0
  131.6940   75.8820  227.9680 C   0  0  0  0  0  0  0  0  0  0  0  0
  132.3000   77.0950  227.7400 C   0  0  0  0  0  0  0  0  0  0  0  0
  133.4470   77.2410  226.9770 C   0  0  0  0  0  0  0  0  0  0  0  0
  134.0200   76.0950  226.4100 C   0  0  0  0  0  0  0  0  0  0  0  0
  133.4190   74.8710  226.6340 C   0  0  0  0  0  0  0  0  0  0  0  0
  133.9570   73.7520  226.0950 N   0  0  0  0  0  0  0  0  0  0  0  0
  134.8520   72.3120  223.9420 H   0  0  0  0  0  0  0  0  0  0  0  0
  134.6663   69.3626  224.1625 H   0  0  0  0  0  0  0  0  0  0  0  0
  135.3633   70.3506  222.8084 H   0  0  0  0  0  0  0  0  0  0  0  0
  136.7425   71.9035  222.5439 H   0  0  0  0  0  0  0  0  0  0  0  0
  137.7720   72.7257  223.7069 H   0  0  0  0  0  0  0  0  0  0  0  0
  138.4464   71.5904  221.0663 H   0  0  0  0  0  0  0  0  0  0  0  0
  139.4181   72.6884  222.0580 H   0  0  0  0  0  0  0  0  0  0  0  0
  139.5995   69.7818  221.7757 H   0  0  0  0  0  0  0  0  0  0  0  0
  140.7288   70.8924  222.6008 H   0  0  0  0  0  0  0  0  0  0  0  0
  139.2156   69.0277  224.0059 H   0  0  0  0  0  0  0  0  0  0  0  0
  140.7353   72.5739  224.4491 H   0  0  0  0  0  0  0  0  0  0  0  0
  141.8540   72.5190  226.8280 H   0  0  0  0  0  0  0  0  0  0  0  0
  141.9291   70.7045  228.9468 H   0  0  0  0  0  0  0  0  0  0  0  0
  141.0851   68.4552  229.6395 H   0  0  0  0  0  0  0  0  0  0  0  0
  139.6709   67.1579  228.1144 H   0  0  0  0  0  0  0  0  0  0  0  0
  139.0294   68.0116  225.8659 H   0  0  0  0  0  0  0  0  0  0  0  0
  131.8305   71.3677  227.1833 H   0  0  0  0  0  0  0  0  0  0  0  0
  130.8000   73.3945  228.2004 H   0  0  0  0  0  0  0  0  0  0  0  0
  130.7822   75.8119  228.5793 H   0  0  0  0  0  0  0  0  0  0  0  0
  131.8514   77.9949  228.1860 H   0  0  0  0  0  0  0  0  0  0  0  0
  133.8969   78.2324  226.8201 H   0  0  0  0  0  0  0  0  0  0  0  0
  134.9311   76.1683  225.7981 H   0  0  0  0  0  0  0  0  0  0  0  0
  1  2  2  0
  2  3  1  0
  3  4  1  0
  4  5  1  0
  5  6  2  0
  5  7  1  0
  7  8  1  0
  8  9  1  0
  9 10  1  0
 10 11  1  0
 11 12  1  0
 12 13  2  0
 13 14  1  0
 14 15  1  0
 15 16  2  0
 16 17  1  0
 17 18  2  0
 18 19  1  0
 19 20  2  0
  2 21  1  0
 21 22  2  0
 22 23  1  0
 23 24  2  0
 24 25  1  0
 25 26  2  0
 26 27  1  0
 27 28  2  0
 28 29  1  0
 29 30  2  0
 11  7  1  0
 20 12  1  0
 30 21  1  0
 20 15  1  0
 29 24  1  0
  3 31  1  0
  4 32  1  0
  4 33  1  0
  8 34  1  0
  8 35  1  0
  9 36  1  0
  9 37  1  0
 10 38  1  0
 10 39  1  0
 11 40  1  6
 13 41  1  0
 14 42  1  0
 16 43  1  0
 17 44  1  0
 18 45  1  0
 19 46  1  0
 22 47  1  0
 23 48  1  0
 25 49  1  0
 26 50  1  0
 27 51  1  0
 28 52  1  0
M  END
>  <smiles>  (38) 
O=C(NCC(=O)N1CCC[C@H]1c1c[nH]c2ccccc12)c1ccc2ccccc2n1

>  <score_type>  (38) 
oracle

>  <origin>  (38) 
autodockgpu

>  <m_score__min__energy>  (38) 
-9.6099999999999994

>  <m_primary>  (38) 
energy

>  <rmsd>  (38) 
7.947589622103958

>  <m_score__min__rmsd>  (38) 
7.947589622103958

>  <meeko>  (38) 
{"free_energy": -8.68, "intermolecular_energy": -10.17, "internal_energy": -1.5, "cluster_size": 1, "cluster_id": 4, "rank_in_cluster": 1}

>  <energy>  (38) 
-8.55

>  <cluster_rmsd>  (38) 
0.81

>  <cluster>  (38) 
2

$$$$

     RDKit          3D

 52 56  0  0  0  0  0  0  0  0999 V2000
  140.3920   71.6140  221.3520 O   0  0  0  0  0  0  0  0  0  0  0  0
  139.7650   71.9770  222.3840 C   0  0  0  0  0  0  0  0  0  0  0  0
  138.9130   73.1060  222.2570 N   0  0  0  0  0  0  0  0  0  0  0  0
  138.8050   73.7660  220.9930 C   0  0  0  0  0  0  0  0  0  0  0  0
  139.4100   75.1360  221.0230 C   0  0  0  0  0  0  0  0  0  0  0  0
  138.8790   76.0630  221.6800 O   0  0  0  0  0  0  0  0  0  0  0  0
  140.6060   75.4140  220.3050 N   0  0  0  0  0  0  0  0  0  0  0  0
  140.8100   75.0210  218.9330 C   0  0  0  0  0  0  0  0  0  0  0  0
  142.2920   74.8540  218.8220 C   0  0  0  0  0  0  0  0  0  0  0  0
  142.8640   75.4300  220.0810 C   0  0  0  0  0  0  0  0  0  0  0  0
  141.7460   76.1070  220.8350 C   0  0  1  0  0  0  0  0  0  0  0  0
  141.7270   77.5630  220.6590 C   0  0  0  0  0  0  0  0  0  0  0  0
  141.7950   78.3490  219.5300 C   0  0  0  0  0  0  0  0  0  0  0  0
  141.7410   79.6540  219.8520 N   0  0  0  0  0  0  0  0  0  0  0  0
  141.6370   79.7490  221.1870 C   0  0  0  0  0  0  0  0  0  0  0  0
  141.5470   80.8650  222.0290 C   0  0  0  0  0  0  0  0  0  0  0  0
  141.4470   80.6620  223.3980 C   0  0  0  0  0  0  0  0  0  0  0  0
  141.4390   79.3820  223.8950 C   0  0  0  0  0  0  0  0  0  0  0  0
  141.5250   78.2560  223.0870 C   0  0  0  0  0  0  0  0  0  0  0  0
  141.6260   78.4690  221.7130 C   0  0  0  0  0  0  0  0  0  0  0  0
  139.8970   71.2750  223.6710 C   0  0  0  0  0  0  0  0  0  0  0  0
  139.4890   69.9560  223.7160 C   0  0  0  0  0  0  0  0  0  0  0  0
  139.6120   69.2980  224.9250 C   0  0  0  0  0  0  0  0  0  0  0  0
  140.1210   69.9290  226.0470 C   0  0  0  0  0  0  0  0  0  0  0  0
  140.2420   69.2650  227.2590 C   0  0  0  0  0  0  0  0  0  0  0  0
  140.7560   69.9560  228.3300 C   0  0  0  0  0  0  0  0  0  0  0  0
  141.1580   71.2800  228.2590 C   0  0  0  0  0  0  0  0  0  0  0  0
  141.0340   71.9480  227.0330 C   0  0  0  0  0  0  0  0  0  0  0  0
  140.5190   71.2620  225.9510 C   0  0  0  0  0  0  0  0  0  0  0  0
  140.3910   71.8900  224.7580 N   0  0  0  0  0  0  0  0  0  0  0  0
  138.3570   73.4710  223.0650 H   0  0  0  0  0  0  0  0  0  0  0  0
  139.3247   73.1646  220.2326 H   0  0  0  0  0  0  0  0  0  0  0  0
  137.7364   73.8711  220.7543 H   0  0  0  0  0  0  0  0  0  0  0  0
  140.2924   74.0750  218.7160 H   0  0  0  0  0  0  0  0  0  0  0  0
  140.4117   75.7559  218.2180 H   0  0  0  0  0  0  0  0  0  0  0  0
  142.5519   73.7886  218.7358 H   0  0  0  0  0  0  0  0  0  0  0  0
  142.6901   75.3583  217.9291 H   0  0  0  0  0  0  0  0  0  0  0  0
  143.2961   74.6269  220.6961 H   0  0  0  0  0  0  0  0  0  0  0  0
  143.6575   76.1539  219.8436 H   0  0  0  0  0  0  0  0  0  0  0  0
  141.8193   76.0391  221.9305 H   0  0  0  0  0  0  0  0  0  0  0  0
  141.8817   77.9620  218.5040 H   0  0  0  0  0  0  0  0  0  0  0  0
  141.7710   80.4960  219.2020 H   0  0  0  0  0  0  0  0  0  0  0  0
  141.5554   81.8831  221.6127 H   0  0  0  0  0  0  0  0  0  0  0  0
  141.3746   81.5212  224.0810 H   0  0  0  0  0  0  0  0  0  0  0  0
  141.3609   79.2422  224.9833 H   0  0  0  0  0  0  0  0  0  0  0  0
  141.5139   77.2415  223.5120 H   0  0  0  0  0  0  0  0  0  0  0  0
  139.0833   69.4508  222.8271 H   0  0  0  0  0  0  0  0  0  0  0  0
  139.2975   68.2464  224.9976 H   0  0  0  0  0  0  0  0  0  0  0  0
  139.9348   68.2136  227.3601 H   0  0  0  0  0  0  0  0  0  0  0  0
  140.8531   69.4315  229.2920 H   0  0  0  0  0  0  0  0  0  0  0  0
  141.5643   71.7940  229.1426 H   0  0  0  0  0  0  0  0  0  0  0  0
  141.3414   72.9996  226.9346 H   0  0  0  0  0  0  0  0  0  0  0  0
  1  2  2  0
  2  3  1  0
  3  4  1  0
  4  5  1  0
  5  6  2  0
  5  7  1  0
  7  8  1  0
  8  9  1  0
  9 10  1  0
 10 11  1  0
 11 12  1  0
 12 13  2  0
 13 14  1  0
 14 15  1  0
 15 16  2  0
 16 17  1  0
 17 18  2  0
 18 19  1  0
 19 20  2  0
  2 21  1  0
 21 22  2  0
 22 23  1  0
 23 24  2  0
 24 25  1  0
 25 26  2  0
 26 27  1  0
 27 28  2  0
 28 29  1  0
 29 30  2  0
 11  7  1  0
 20 12  1  0
 30 21  1  0
 20 15  1  0
 29 24  1  0
  3 31  1  0
  4 32  1  0
  4 33  1  0
  8 34  1  0
  8 35  1  0
  9 36  1  0
  9 37  1  0
 10 38  1  0
 10 39  1  0
 11 40  1  1
 13 41  1  0
 14 42  1  0
 16 43  1  0
 17 44  1  0
 18 45  1  0
 19 46  1  0
 22 47  1  0
 23 48  1  0
 25 49  1  0
 26 50  1  0
 27 51  1  0
 28 52  1  0
M  END
>  <smiles>  (39) 
O=C(NCC(=O)N1CCC[C@H]1c1c[nH]c2ccccc12)c1ccc2ccccc2n1

>  <score_type>  (39) 
oracle

>  <origin>  (39) 
autodockgpu

>  <m_score__min__energy>  (39) 
-9.6099999999999994

>  <m_primary>  (39) 
energy

>  <rmsd>  (39) 
1.7375635108920073

>  <m_score__min__rmsd>  (39) 
1.7375635108920073

>  <meeko>  (39) 
{"free_energy": -9.05, "intermolecular_energy": -10.54, "internal_energy": -1.48, "cluster_size": 26, "cluster_id": 1, "rank_in_cluster": 21}

>  <energy>  (39) 
-8.47

>  <cluster_rmsd>  (39) 
0.77

>  <cluster>  (39) 
2

$$$$

     RDKit          3D

 52 56  0  0  0  0  0  0  0  0999 V2000
  140.7670   71.9620  221.2860 O   0  0  0  0  0  0  0  0  0  0  0  0
  140.1140   72.2820  222.3170 C   0  0  0  0  0  0  0  0  0  0  0  0
  139.3990   73.5070  222.2740 N   0  0  0  0  0  0  0  0  0  0  0  0
  139.4480   74.3080  221.0900 C   0  0  0  0  0  0  0  0  0  0  0  0
  140.2030   75.5830  221.3060 C   0  0  0  0  0  0  0  0  0  0  0  0
  140.1300   76.2000  222.3940 O   0  0  0  0  0  0  0  0  0  0  0  0
  141.0240   76.1200  220.2760 N   0  0  0  0  0  0  0  0  0  0  0  0
  140.8170   75.8400  218.8760 C   0  0  0  0  0  0  0  0  0  0  0  0
  142.1810   75.9670  218.2770 C   0  0  0  0  0  0  0  0  0  0  0  0
  143.0400   76.5820  219.3400 C   0  0  0  0  0  0  0  0  0  0  0  0
  142.1450   76.9930  220.4840 C   0  0  1  0  0  0  0  0  0  0  0  0
  141.8260   78.4250  220.4830 C   0  0  0  0  0  0  0  0  0  0  0  0
  141.4320   79.2750  219.4740 C   0  0  0  0  0  0  0  0  0  0  0  0
  141.2490   80.5220  219.9430 N   0  0  0  0  0  0  0  0  0  0  0  0
  141.5180   80.5150  221.2570 C   0  0  0  0  0  0  0  0  0  0  0  0
  141.4840   81.5410  222.2120 C   0  0  0  0  0  0  0  0  0  0  0  0
  141.8170   81.2420  223.5250 C   0  0  0  0  0  0  0  0  0  0  0  0
  142.1710   79.9580  223.8590 C   0  0  0  0  0  0  0  0  0  0  0  0
  142.2140   78.9200  222.9370 C   0  0  0  0  0  0  0  0  0  0  0  0
  141.8780   79.2290  221.6200 C   0  0  0  0  0  0  0  0  0  0  0  0
  140.0830   71.4350  223.5210 C   0  0  0  0  0  0  0  0  0  0  0  0
  139.5480   70.1680  223.3900 C   0  0  0  0  0  0  0  0  0  0  0  0
  139.5180   69.3750  224.5200 C   0  0  0  0  0  0  0  0  0  0  0  0
  140.0020   69.8250  225.7370 C   0  0  0  0  0  0  0  0  0  0  0  0
  139.9690   69.0250  226.8700 C   0  0  0  0  0  0  0  0  0  0  0  0
  140.4680   69.5390  228.0430 C   0  0  0  0  0  0  0  0  0  0  0  0
  141.0000   70.8140  228.1480 C   0  0  0  0  0  0  0  0  0  0  0  0
  141.0310   71.6200  227.0020 C   0  0  0  0  0  0  0  0  0  0  0  0
  140.5330   71.1110  225.8180 C   0  0  0  0  0  0  0  0  0  0  0  0
  140.5540   71.8740  224.7000 N   0  0  0  0  0  0  0  0  0  0  0  0
  138.8320   73.8440  223.0870 H   0  0  0  0  0  0  0  0  0  0  0  0
  139.9421   73.7334  220.2927 H   0  0  0  0  0  0  0  0  0  0  0  0
  138.4157   74.5673  220.8123 H   0  0  0  0  0  0  0  0  0  0  0  0
  140.4209   74.8235  218.7348 H   0  0  0  0  0  0  0  0  0  0  0  0
  140.0857   76.5181  218.4119 H   0  0  0  0  0  0  0  0  0  0  0  0
  142.5695   74.9769  217.9963 H   0  0  0  0  0  0  0  0  0  0  0  0
  142.1660   76.5807  217.3642 H   0  0  0  0  0  0  0  0  0  0  0  0
  143.7815   75.8492  219.6909 H   0  0  0  0  0  0  0  0  0  0  0  0
  143.5748   77.4563  218.9404 H   0  0  0  0  0  0  0  0  0  0  0  0
  142.5931   76.8870  221.4830 H   0  0  0  0  0  0  0  0  0  0  0  0
  141.2866   78.9746  218.4258 H   0  0  0  0  0  0  0  0  0  0  0  0
  140.9470   81.3900  219.4070 H   0  0  0  0  0  0  0  0  0  0  0  0
  141.1986   82.5639  221.9254 H   0  0  0  0  0  0  0  0  0  0  0  0
  141.7976   82.0285  224.2938 H   0  0  0  0  0  0  0  0  0  0  0  0
  142.4327   79.7414  224.9052 H   0  0  0  0  0  0  0  0  0  0  0  0
  142.5003   77.9000  223.2329 H   0  0  0  0  0  0  0  0  0  0  0  0
  139.1620   69.8060  222.4257 H   0  0  0  0  0  0  0  0  0  0  0  0
  139.0991   68.3602  224.4518 H   0  0  0  0  0  0  0  0  0  0  0  0
  139.5546   68.0068  226.8306 H   0  0  0  0  0  0  0  0  0  0  0  0
  140.4438   68.9069  228.9429 H   0  0  0  0  0  0  0  0  0  0  0  0
  141.3887   71.1847  229.1079 H   0  0  0  0  0  0  0  0  0  0  0  0
  141.4440   72.6386  227.0443 H   0  0  0  0  0  0  0  0  0  0  0  0
  1  2  2  0
  2  3  1  0
  3  4  1  0
  4  5  1  0
  5  6  2  0
  5  7  1  0
  7  8  1  0
  8  9  1  0
  9 10  1  0
 10 11  1  0
 11 12  1  0
 12 13  2  0
 13 14  1  0
 14 15  1  0
 15 16  2  0
 16 17  1  0
 17 18  2  0
 18 19  1  0
 19 20  2  0
  2 21  1  0
 21 22  2  0
 22 23  1  0
 23 24  2  0
 24 25  1  0
 25 26  2  0
 26 27  1  0
 27 28  2  0
 28 29  1  0
 29 30  2  0
 11  7  1  0
 20 12  1  0
 30 21  1  0
 20 15  1  0
 29 24  1  0
  3 31  1  0
  4 32  1  0
  4 33  1  0
  8 34  1  0
  8 35  1  0
  9 36  1  0
  9 37  1  0
 10 38  1  0
 10 39  1  0
 11 40  1  1
 13 41  1  0
 14 42  1  0
 16 43  1  0
 17 44  1  0
 18 45  1  0
 19 46  1  0
 22 47  1  0
 23 48  1  0
 25 49  1  0
 26 50  1  0
 27 51  1  0
 28 52  1  0
M  END
>  <smiles>  (40) 
O=C(NCC(=O)N1CCC[C@H]1c1c[nH]c2ccccc12)c1ccc2ccccc2n1

>  <score_type>  (40) 
oracle

>  <origin>  (40) 
autodockgpu

>  <m_score__min__energy>  (40) 
-9.6099999999999994

>  <m_primary>  (40) 
energy

>  <rmsd>  (40) 
1.608741536871614

>  <m_score__min__rmsd>  (40) 
1.608741536871614

>  <meeko>  (40) 
{"free_energy": -9.52, "intermolecular_energy": -11.01, "internal_energy": -1.43, "cluster_size": 26, "cluster_id": 1, "rank_in_cluster": 9}

>  <energy>  (40) 
-9.3

>  <cluster_rmsd>  (40) 
0.0

>  <cluster>  (40) 
3

$$$$

     RDKit          3D

 52 56  0  0  0  0  0  0  0  0999 V2000
  140.8820   73.7250  220.0940 O   0  0  0  0  0  0  0  0  0  0  0  0
  140.5150   74.4530  221.0580 C   0  0  0  0  0  0  0  0  0  0  0  0
  139.6570   73.8630  222.0220 N   0  0  0  0  0  0  0  0  0  0  0  0
  139.2540   72.5000  221.8640 C   0  0  0  0  0  0  0  0  0  0  0  0
  139.6730   71.6530  223.0260 C   0  0  0  0  0  0  0  0  0  0  0  0
  140.4140   72.1140  223.9270 O   0  0  0  0  0  0  0  0  0  0  0  0
  139.2370   70.3040  223.1320 N   0  0  0  0  0  0  0  0  0  0  0  0
  139.5230   69.3030  222.1330 C   0  0  0  0  0  0  0  0  0  0  0  0
  138.3810   68.3430  222.2470 C   0  0  0  0  0  0  0  0  0  0  0  0
  137.6520   68.7220  223.5000 C   0  0  0  0  0  0  0  0  0  0  0  0
  138.4700   69.7660  224.2200 C   0  0  1  0  0  0  0  0  0  0  0  0
  139.2600   69.2210  225.3280 C   0  0  0  0  0  0  0  0  0  0  0  0
  139.5430   67.9250  225.7010 C   0  0  0  0  0  0  0  0  0  0  0  0
  140.3180   67.9020  226.7980 N   0  0  0  0  0  0  0  0  0  0  0  0
  140.5580   69.1700  227.1660 C   0  0  0  0  0  0  0  0  0  0  0  0
  141.3010   69.6990  228.2300 C   0  0  0  0  0  0  0  0  0  0  0  0
  141.3790   71.0770  228.3700 C   0  0  0  0  0  0  0  0  0  0  0  0
  140.7310   71.8870  227.4700 C   0  0  0  0  0  0  0  0  0  0  0  0
  139.9880   71.3940  226.4060 C   0  0  0  0  0  0  0  0  0  0  0  0
  139.9140   70.0090  226.2730 C   0  0  0  0  0  0  0  0  0  0  0  0
  140.9490   75.8530  221.1920 C   0  0  0  0  0  0  0  0  0  0  0  0
  141.7680   76.3600  220.2020 C   0  0  0  0  0  0  0  0  0  0  0  0
  142.1760   77.6730  220.3300 C   0  0  0  0  0  0  0  0  0  0  0  0
  141.7840   78.4550  221.4040 C   0  0  0  0  0  0  0  0  0  0  0  0
  142.1960   79.7730  221.5290 C   0  0  0  0  0  0  0  0  0  0  0  0
  141.7670   80.4870  222.6230 C   0  0  0  0  0  0  0  0  0  0  0  0
  140.9460   79.9550  223.6030 C   0  0  0  0  0  0  0  0  0  0  0  0
  140.5310   78.6230  223.4740 C   0  0  0  0  0  0  0  0  0  0  0  0
  140.9570   77.8970  222.3780 C   0  0  0  0  0  0  0  0  0  0  0  0
  140.5670   76.6090  222.2360 N   0  0  0  0  0  0  0  0  0  0  0  0
  139.3090   74.3980  222.8520 H   0  0  0  0  0  0  0  0  0  0  0  0
  138.1584   72.4618  221.7734 H   0  0  0  0  0  0  0  0  0  0  0  0
  139.7418   72.1038  220.9612 H   0  0  0  0  0  0  0  0  0  0  0  0
  139.5586   69.7512  221.1291 H   0  0  0  0  0  0  0  0  0  0  0  0
  140.4996   68.8199  222.2844 H   0  0  0  0  0  0  0  0  0  0  0  0
  137.7164   68.4332  221.3751 H   0  0  0  0  0  0  0  0  0  0  0  0
  138.7306   67.3006  222.2818 H   0  0  0  0  0  0  0  0  0  0  0  0
  136.6633   69.1322  223.2467 H   0  0  0  0  0  0  0  0  0  0  0  0
  137.5109   67.8392  224.1410 H   0  0  0  0  0  0  0  0  0  0  0  0
  137.8817   70.5291  224.7506 H   0  0  0  0  0  0  0  0  0  0  0  0
  139.1830   67.0303  225.1720 H   0  0  0  0  0  0  0  0  0  0  0  0
  140.6990   67.0560  227.3190 H   0  0  0  0  0  0  0  0  0  0  0  0
  141.8129   69.0339  228.9410 H   0  0  0  0  0  0  0  0  0  0  0  0
  141.9560   71.5179  229.1963 H   0  0  0  0  0  0  0  0  0  0  0  0
  140.8041   72.9771  227.5982 H   0  0  0  0  0  0  0  0  0  0  0  0
  139.4803   72.0669  225.6993 H   0  0  0  0  0  0  0  0  0  0  0  0
  142.0822   75.7433  219.3470 H   0  0  0  0  0  0  0  0  0  0  0  0
  142.8289   78.1090  219.5595 H   0  0  0  0  0  0  0  0  0  0  0  0
  142.8484   80.2350  220.7734 H   0  0  0  0  0  0  0  0  0  0  0  0
  142.0922   81.5329  222.7248 H   0  0  0  0  0  0  0  0  0  0  0  0
  140.6273   80.5635  224.4621 H   0  0  0  0  0  0  0  0  0  0  0  0
  139.8783   78.1637  224.2310 H   0  0  0  0  0  0  0  0  0  0  0  0
  1  2  2  0
  2  3  1  0
  3  4  1  0
  4  5  1  0
  5  6  2  0
  5  7  1  0
  7  8  1  0
  8  9  1  0
  9 10  1  0
 10 11  1  0
 11 12  1  0
 12 13  2  0
 13 14  1  0
 14 15  1  0
 15 16  2  0
 16 17  1  0
 17 18  2  0
 18 19  1  0
 19 20  2  0
  2 21  1  0
 21 22  2  0
 22 23  1  0
 23 24  2  0
 24 25  1  0
 25 26  2  0
 26 27  1  0
 27 28  2  0
 28 29  1  0
 29 30  2  0
 11  7  1  0
 20 12  1  0
 30 21  1  0
 20 15  1  0
 29 24  1  0
  3 31  1  0
  4 32  1  0
  4 33  1  0
  8 34  1  0
  8 35  1  0
  9 36  1  0
  9 37  1  0
 10 38  1  0
 10 39  1  0
 11 40  1  1
 13 41  1  0
 14 42  1  0
 16 43  1  0
 17 44  1  0
 18 45  1  0
 19 46  1  0
 22 47  1  0
 23 48  1  0
 25 49  1  0
 26 50  1  0
 27 51  1  0
 28 52  1  0
M  END
>  <smiles>  (41) 
O=C(NCC(=O)N1CCC[C@H]1c1c[nH]c2ccccc12)c1ccc2ccccc2n1

>  <score_type>  (41) 
oracle

>  <origin>  (41) 
autodockgpu

>  <m_score__min__energy>  (41) 
-9.6099999999999994

>  <m_primary>  (41) 
energy

>  <rmsd>  (41) 
8.297909721080453

>  <m_score__min__rmsd>  (41) 
8.297909721080453

>  <meeko>  (41) 
{"free_energy": -9.59, "intermolecular_energy": -11.09, "internal_energy": -1.4, "cluster_size": 13, "cluster_id": 2, "rank_in_cluster": 1}

>  <energy>  (41) 
-9.27

>  <cluster_rmsd>  (41) 
0.17

>  <cluster>  (41) 
3

$$$$

     RDKit          3D

 52 56  0  0  0  0  0  0  0  0999 V2000
  140.4090   71.5950  221.2570 O   0  0  0  0  0  0  0  0  0  0  0  0
  140.1240   72.1260  222.3660 C   0  0  0  0  0  0  0  0  0  0  0  0
  139.8180   73.5120  222.3590 N   0  0  0  0  0  0  0  0  0  0  0  0
  139.8440   74.2300  221.1220 C   0  0  0  0  0  0  0  0  0  0  0  0
  140.3980   75.6120  221.2880 C   0  0  0  0  0  0  0  0  0  0  0  0
  140.2340   76.2490  222.3560 O   0  0  0  0  0  0  0  0  0  0  0  0
  141.1240   76.2310  220.2340 N   0  0  0  0  0  0  0  0  0  0  0  0
  140.8560   75.9800  218.8390 C   0  0  0  0  0  0  0  0  0  0  0  0
  142.1740   76.2110  218.1710 C   0  0  0  0  0  0  0  0  0  0  0  0
  143.0520   76.8470  219.2060 C   0  0  0  0  0  0  0  0  0  0  0  0
  142.1990   77.1670  220.4100 C   0  0  1  0  0  0  0  0  0  0  0  0
  141.7930   78.5750  220.4750 C   0  0  0  0  0  0  0  0  0  0  0  0
  141.2830   79.4250  219.5200 C   0  0  0  0  0  0  0  0  0  0  0  0
  141.0550   80.6440  220.0380 N   0  0  0  0  0  0  0  0  0  0  0  0
  141.4080   80.6190  221.3320 C   0  0  0  0  0  0  0  0  0  0  0  0
  141.3730   81.6130  222.3190 C   0  0  0  0  0  0  0  0  0  0  0  0
  141.8090   81.3000  223.5990 C   0  0  0  0  0  0  0  0  0  0  0  0
  142.2620   80.0320  223.8690 C   0  0  0  0  0  0  0  0  0  0  0  0
  142.3090   79.0260  222.9130 C   0  0  0  0  0  0  0  0  0  0  0  0
  141.8700   79.3490  221.6310 C   0  0  0  0  0  0  0  0  0  0  0  0
  140.1060   71.3580  223.6220 C   0  0  0  0  0  0  0  0  0  0  0  0
  139.5690   70.0860  223.5780 C   0  0  0  0  0  0  0  0  0  0  0  0
  139.5500   69.3670  224.7570 C   0  0  0  0  0  0  0  0  0  0  0  0
  140.0470   69.8930  225.9370 C   0  0  0  0  0  0  0  0  0  0  0  0
  140.0250   69.1680  227.1190 C   0  0  0  0  0  0  0  0  0  0  0  0
  140.5360   69.7560  228.2520 C   0  0  0  0  0  0  0  0  0  0  0  0
  141.0690   71.0350  228.2700 C   0  0  0  0  0  0  0  0  0  0  0  0
  141.0890   71.7650  227.0740 C   0  0  0  0  0  0  0  0  0  0  0  0
  140.5780   71.1820  225.9310 C   0  0  0  0  0  0  0  0  0  0  0  0
  140.5880   71.8710  224.7660 N   0  0  0  0  0  0  0  0  0  0  0  0
  139.5700   74.0270  223.2350 H   0  0  0  0  0  0  0  0  0  0  0  0
  140.4708   73.6797  220.4048 H   0  0  0  0  0  0  0  0  0  0  0  0
  138.8096   74.3195  220.7587 H   0  0  0  0  0  0  0  0  0  0  0  0
  140.5160   74.9451  218.6861 H   0  0  0  0  0  0  0  0  0  0  0  0
  140.0592   76.6237  218.4381 H   0  0  0  0  0  0  0  0  0  0  0  0
  142.6062   75.2563  217.8366 H   0  0  0  0  0  0  0  0  0  0  0  0
  142.0700   76.8495  217.2814 H   0  0  0  0  0  0  0  0  0  0  0  0
  143.8553   76.1521  219.4919 H   0  0  0  0  0  0  0  0  0  0  0  0
  143.5091   77.7646  218.8072 H   0  0  0  0  0  0  0  0  0  0  0  0
  142.7085   77.0605  221.3791 H   0  0  0  0  0  0  0  0  0  0  0  0
  141.0884   79.1445  218.4743 H   0  0  0  0  0  0  0  0  0  0  0  0
  140.6650   81.5060  219.5510 H   0  0  0  0  0  0  0  0  0  0  0  0
  141.0066   82.6231  222.0836 H   0  0  0  0  0  0  0  0  0  0  0  0
  141.7918   82.0624  224.3917 H   0  0  0  0  0  0  0  0  0  0  0  0
  142.6032   79.8028  224.8893 H   0  0  0  0  0  0  0  0  0  0  0  0
  142.6767   78.0185  223.1572 H   0  0  0  0  0  0  0  0  0  0  0  0
  139.1730   69.6634  222.6428 H   0  0  0  0  0  0  0  0  0  0  0  0
  139.1293   68.3506  224.7584 H   0  0  0  0  0  0  0  0  0  0  0  0
  139.6098   68.1498  227.1493 H   0  0  0  0  0  0  0  0  0  0  0  0
  140.5210   69.1827  229.1907 H   0  0  0  0  0  0  0  0  0  0  0  0
  141.4667   71.4667  229.2003 H   0  0  0  0  0  0  0  0  0  0  0  0
  141.5040   72.7833  227.0461 H   0  0  0  0  0  0  0  0  0  0  0  0
  1  2  2  0
  2  3  1  0
  3  4  1  0
  4  5  1  0
  5  6  2  0
  5  7  1  0
  7  8  1  0
  8  9  1  0
  9 10  1  0
 10 11  1  0
 11 12  1  0
 12 13  2  0
 13 14  1  0
 14 15  1  0
 15 16  2  0
 16 17  1  0
 17 18  2  0
 18 19  1  0
 19 20  2  0
  2 21  1  0
 21 22  2  0
 22 23  1  0
 23 24  2  0
 24 25  1  0
 25 26  2  0
 26 27  1  0
 27 28  2  0
 28 29  1  0
 29 30  2  0
 11  7  1  0
 20 12  1  0
 30 21  1  0
 20 15  1  0
 29 24  1  0
  3 31  1  0
  4 32  1  0
  4 33  1  0
  8 34  1  0
  8 35  1  0
  9 36  1  0
  9 37  1  0
 10 38  1  0
 10 39  1  0
 11 40  1  1
 13 41  1  0
 14 42  1  0
 16 43  1  0
 17 44  1  0
 18 45  1  0
 19 46  1  0
 22 47  1  0
 23 48  1  0
 25 49  1  0
 26 50  1  0
 27 51  1  0
 28 52  1  0
M  END
>  <smiles>  (42) 
O=C(NCC(=O)N1CCC[C@H]1c1c[nH]c2ccccc12)c1ccc2ccccc2n1

>  <score_type>  (42) 
oracle

>  <origin>  (42) 
autodockgpu

>  <m_score__min__energy>  (42) 
-9.6099999999999994

>  <m_primary>  (42) 
energy

>  <rmsd>  (42) 
1.6638711721795638

>  <m_score__min__rmsd>  (42) 
1.6638711721795638

>  <meeko>  (42) 
{"free_energy": -9.52, "intermolecular_energy": -11.01, "internal_energy": -1.62, "cluster_size": 26, "cluster_id": 1, "rank_in_cluster": 8}

>  <energy>  (42) 
-8.84

>  <cluster_rmsd>  (42) 
1.78

>  <cluster>  (42) 
3

$$$$

     RDKit          3D

 52 56  0  0  0  0  0  0  0  0999 V2000
  141.2220   72.9130  222.1730 O   0  0  0  0  0  0  0  0  0  0  0  0
  140.1250   72.6100  222.7170 C   0  0  0  0  0  0  0  0  0  0  0  0
  138.9850   73.3650  222.3370 N   0  0  0  0  0  0  0  0  0  0  0  0
  139.1270   74.4140  221.3740 C   0  0  0  0  0  0  0  0  0  0  0  0
  139.3770   75.7400  222.0230 C   0  0  0  0  0  0  0  0  0  0  0  0
  140.5270   76.0670  222.3990 O   0  0  0  0  0  0  0  0  0  0  0  0
  138.3110   76.6590  222.2240 N   0  0  0  0  0  0  0  0  0  0  0  0
  137.1250   76.3370  222.9790 C   0  0  0  0  0  0  0  0  0  0  0  0
  136.0670   77.2050  222.3760 C   0  0  0  0  0  0  0  0  0  0  0  0
  136.7880   78.1710  221.4870 C   0  0  0  0  0  0  0  0  0  0  0  0
  138.2700   78.0010  221.7160 C   0  0  1  0  0  0  0  0  0  0  0  0
  138.8390   79.0210  222.6030 C   0  0  0  0  0  0  0  0  0  0  0  0
  138.2570   79.8570  223.5290 C   0  0  0  0  0  0  0  0  0  0  0  0
  139.1810   80.6370  224.1160 N   0  0  0  0  0  0  0  0  0  0  0  0
  140.3780   80.3310  223.5920 C   0  0  0  0  0  0  0  0  0  0  0  0
  141.6570   80.8420  223.8500 C   0  0  0  0  0  0  0  0  0  0  0  0
  142.7360   80.3280  223.1450 C   0  0  0  0  0  0  0  0  0  0  0  0
  142.5290   79.3370  222.2170 C   0  0  0  0  0  0  0  0  0  0  0  0
  141.2750   78.8100  221.9400 C   0  0  0  0  0  0  0  0  0  0  0  0
  140.1970   79.3320  222.6510 C   0  0  0  0  0  0  0  0  0  0  0  0
  140.0130   71.5240  223.7050 C   0  0  0  0  0  0  0  0  0  0  0  0
  139.3210   70.3910  223.3230 C   0  0  0  0  0  0  0  0  0  0  0  0
  139.2140   69.3730  224.2510 C   0  0  0  0  0  0  0  0  0  0  0  0
  139.7750   69.4780  225.5130 C   0  0  0  0  0  0  0  0  0  0  0  0
  139.6650   68.4540  226.4420 C   0  0  0  0  0  0  0  0  0  0  0  0
  140.2480   68.6300  227.6750 C   0  0  0  0  0  0  0  0  0  0  0  0
  140.9360   69.7770  228.0330 C   0  0  0  0  0  0  0  0  0  0  0  0
  141.0450   70.8100  227.0930 C   0  0  0  0  0  0  0  0  0  0  0  0
  140.4640   70.6420  225.8510 C   0  0  0  0  0  0  0  0  0  0  0  0
  140.5580   71.6290  224.9290 N   0  0  0  0  0  0  0  0  0  0  0  0
  138.0380   73.1760  222.7400 H   0  0  0  0  0  0  0  0  0  0  0  0
  139.9734   74.1769  220.7126 H   0  0  0  0  0  0  0  0  0  0  0  0
  138.1871   74.4847  220.8069 H   0  0  0  0  0  0  0  0  0  0  0  0
  136.8679   75.2731  222.8688 H   0  0  0  0  0  0  0  0  0  0  0  0
  137.2500   76.5088  224.0583 H   0  0  0  0  0  0  0  0  0  0  0  0
  135.3619   76.5977  221.7894 H   0  0  0  0  0  0  0  0  0  0  0  0
  135.4820   77.7255  223.1486 H   0  0  0  0  0  0  0  0  0  0  0  0
  136.5466   77.9610  220.4346 H   0  0  0  0  0  0  0  0  0  0  0  0
  136.4823   79.2023  221.7169 H   0  0  0  0  0  0  0  0  0  0  0  0
  138.8961   78.1413  220.8225 H   0  0  0  0  0  0  0  0  0  0  0  0
  137.1813   79.8831  223.7576 H   0  0  0  0  0  0  0  0  0  0  0  0
  139.0390   81.3780  224.8670 H   0  0  0  0  0  0  0  0  0  0  0  0
  141.8029   81.6358  224.5974 H   0  0  0  0  0  0  0  0  0  0  0  0
  143.7505   80.7118  223.3282 H   0  0  0  0  0  0  0  0  0  0  0  0
  143.3968   78.9427  221.6680 H   0  0  0  0  0  0  0  0  0  0  0  0
  141.1386   78.0151  221.1919 H   0  0  0  0  0  0  0  0  0  0  0  0
  138.8739   70.3030  222.3218 H   0  0  0  0  0  0  0  0  0  0  0  0
  138.6696   68.4561  223.9808 H   0  0  0  0  0  0  0  0  0  0  0  0
  139.1261   67.5263  226.1991 H   0  0  0  0  0  0  0  0  0  0  0  0
  140.1636   67.8192  228.4136 H   0  0  0  0  0  0  0  0  0  0  0  0
  141.3863   69.8748  229.0318 H   0  0  0  0  0  0  0  0  0  0  0  0
  141.5830   71.7373  227.3392 H   0  0  0  0  0  0  0  0  0  0  0  0
  1  2  2  0
  2  3  1  0
  3  4  1  0
  4  5  1  0
  5  6  2  0
  5  7  1  0
  7  8  1  0
  8  9  1  0
  9 10  1  0
 10 11  1  0
 11 12  1  0
 12 13  2  0
 13 14  1  0
 14 15  1  0
 15 16  2  0
 16 17  1  0
 17 18  2  0
 18 19  1  0
 19 20  2  0
  2 21  1  0
 21 22  2  0
 22 23  1  0
 23 24  2  0
 24 25  1  0
 25 26  2  0
 26 27  1  0
 27 28  2  0
 28 29  1  0
 29 30  2  0
 11  7  1  0
 20 12  1  0
 30 21  1  0
 20 15  1  0
 29 24  1  0
  3 31  1  0
  4 32  1  0
  4 33  1  0
  8 34  1  0
  8 35  1  0
  9 36  1  0
  9 37  1  0
 10 38  1  0
 10 39  1  0
 11 40  1  6
 13 41  1  0
 14 42  1  0
 16 43  1  0
 17 44  1  0
 18 45  1  0
 19 46  1  0
 22 47  1  0
 23 48  1  0
 25 49  1  0
 26 50  1  0
 27 51  1  0
 28 52  1  0
M  END
>  <smiles>  (43) 
O=C(NCC(=O)N1CCC[C@H]1c1c[nH]c2ccccc12)c1ccc2ccccc2n1

>  <score_type>  (43) 
oracle

>  <origin>  (43) 
autodockgpu

>  <m_score__min__energy>  (43) 
-9.6099999999999994

>  <m_primary>  (43) 
energy

>  <rmsd>  (43) 
3.0968010993137347

>  <m_score__min__rmsd>  (43) 
3.0968010993137347

>  <meeko>  (43) 
{"free_energy": -9.3, "intermolecular_energy": -10.79, "internal_energy": -1.29, "cluster_size": 3, "cluster_id": 3, "rank_in_cluster": 1}

>  <energy>  (43) 
-8.68

>  <cluster_rmsd>  (43) 
0.0

>  <cluster>  (43) 
4

$$$$

     RDKit          3D

 52 56  0  0  0  0  0  0  0  0999 V2000
  140.9700   71.5000  222.0350 O   0  0  0  0  0  0  0  0  0  0  0  0
  139.8730   71.9410  221.5950 C   0  0  0  0  0  0  0  0  0  0  0  0
  139.0690   71.0410  220.8480 N   0  0  0  0  0  0  0  0  0  0  0  0
  139.5270   69.7030  220.6320 C   0  0  0  0  0  0  0  0  0  0  0  0
  139.1600   68.7950  221.7650 C   0  0  0  0  0  0  0  0  0  0  0  0
  139.5760   67.6130  221.8060 O   0  0  0  0  0  0  0  0  0  0  0  0
  138.3300   69.2580  222.8230 N   0  0  0  0  0  0  0  0  0  0  0  0
  136.9370   68.9050  222.9430 C   0  0  0  0  0  0  0  0  0  0  0  0
  136.3310   70.0650  223.6660 C   0  0  0  0  0  0  0  0  0  0  0  0
  137.4830   70.8910  224.1530 C   0  0  0  0  0  0  0  0  0  0  0  0
  138.7540   70.1210  223.8890 C   0  0  1  0  0  0  0  0  0  0  0  0
  139.2710   69.4330  225.0770 C   0  0  0  0  0  0  0  0  0  0  0  0
  139.1940   68.1190  225.4800 C   0  0  0  0  0  0  0  0  0  0  0  0
  139.8230   67.9410  226.6540 N   0  0  0  0  0  0  0  0  0  0  0  0
  140.3220   69.1250  227.0430 C   0  0  0  0  0  0  0  0  0  0  0  0
  141.0560   69.4900  228.1790 C   0  0  0  0  0  0  0  0  0  0  0  0
  141.4480   70.8130  228.3240 C   0  0  0  0  0  0  0  0  0  0  0  0
  141.1110   71.7290  227.3590 C   0  0  0  0  0  0  0  0  0  0  0  0
  140.3850   71.3990  226.2220 C   0  0  0  0  0  0  0  0  0  0  0  0
  139.9950   70.0680  226.0840 C   0  0  0  0  0  0  0  0  0  0  0  0
  139.4300   73.3240  221.8360 C   0  0  0  0  0  0  0  0  0  0  0  0
  138.0680   73.5470  221.9160 C   0  0  0  0  0  0  0  0  0  0  0  0
  137.6530   74.8450  222.1410 C   0  0  0  0  0  0  0  0  0  0  0  0
  138.5580   75.8840  222.2800 C   0  0  0  0  0  0  0  0  0  0  0  0
  138.1370   77.1860  222.5040 C   0  0  0  0  0  0  0  0  0  0  0  0
  139.0930   78.1650  222.6320 C   0  0  0  0  0  0  0  0  0  0  0  0
  140.4530   77.9150  222.5480 C   0  0  0  0  0  0  0  0  0  0  0  0
  140.8760   76.5990  222.3210 C   0  0  0  0  0  0  0  0  0  0  0  0
  139.9220   75.6080  222.1910 C   0  0  0  0  0  0  0  0  0  0  0  0
  140.3100   74.3300  221.9710 N   0  0  0  0  0  0  0  0  0  0  0  0
  138.1440   71.3270  220.4500 H   0  0  0  0  0  0  0  0  0  0  0  0
  139.0739   69.3175  219.7068 H   0  0  0  0  0  0  0  0  0  0  0  0
  140.6242   69.7272  220.5574 H   0  0  0  0  0  0  0  0  0  0  0  0
  136.4785   68.7798  221.9510 H   0  0  0  0  0  0  0  0  0  0  0  0
  136.7857   67.9515  223.4703 H   0  0  0  0  0  0  0  0  0  0  0  0
  135.6992   70.6533  222.9843 H   0  0  0  0  0  0  0  0  0  0  0  0
  135.6909   69.7339  224.4970 H   0  0  0  0  0  0  0  0  0  0  0  0
  137.5088   71.8498  223.6145 H   0  0  0  0  0  0  0  0  0  0  0  0
  137.3776   71.0971  225.2284 H   0  0  0  0  0  0  0  0  0  0  0  0
  139.6225   70.7406  223.6211 H   0  0  0  0  0  0  0  0  0  0  0  0
  138.6861   67.3222  224.9169 H   0  0  0  0  0  0  0  0  0  0  0  0
  139.9340   67.0430  227.2150 H   0  0  0  0  0  0  0  0  0  0  0  0
  141.3167   68.7416  228.9419 H   0  0  0  0  0  0  0  0  0  0  0  0
  142.0251   71.1258  229.2067 H   0  0  0  0  0  0  0  0  0  0  0  0
  141.4308   72.7730  227.4924 H   0  0  0  0  0  0  0  0  0  0  0  0
  140.1292   72.1543  225.4643 H   0  0  0  0  0  0  0  0  0  0  0  0
  137.3452   72.7253  221.8051 H   0  0  0  0  0  0  0  0  0  0  0  0
  136.5763   75.0589  222.2116 H   0  0  0  0  0  0  0  0  0  0  0  0
  137.0666   77.4288  222.5773 H   0  0  0  0  0  0  0  0  0  0  0  0
  138.7618   79.1987  222.8100 H   0  0  0  0  0  0  0  0  0  0  0  0
  141.1833   78.7304  222.6570 H   0  0  0  0  0  0  0  0  0  0  0  0
  141.9470   76.3592  222.2477 H   0  0  0  0  0  0  0  0  0  0  0  0
  1  2  2  0
  2  3  1  0
  3  4  1  0
  4  5  1  0
  5  6  2  0
  5  7  1  0
  7  8  1  0
  8  9  1  0
  9 10  1  0
 10 11  1  0
 11 12  1  0
 12 13  2  0
 13 14  1  0
 14 15  1  0
 15 16  2  0
 16 17  1  0
 17 18  2  0
 18 19  1  0
 19 20  2  0
  2 21  1  0
 21 22  2  0
 22 23  1  0
 23 24  2  0
 24 25  1  0
 25 26  2  0
 26 27  1  0
 27 28  2  0
 28 29  1  0
 29 30  2  0
 11  7  1  0
 20 12  1  0
 30 21  1  0
 20 15  1  0
 29 24  1  0
  3 31  1  0
  4 32  1  0
  4 33  1  0
  8 34  1  0
  8 35  1  0
  9 36  1  0
  9 37  1  0
 10 38  1  0
 10 39  1  0
 11 40  1  6
 13 41  1  0
 14 42  1  0
 16 43  1  0
 17 44  1  0
 18 45  1  0
 19 46  1  0
 22 47  1  0
 23 48  1  0
 25 49  1  0
 26 50  1  0
 27 51  1  0
 28 52  1  0
M  END
>  <smiles>  (44) 
O=C(NCC(=O)N1CCC[C@H]1c1c[nH]c2ccccc12)c1ccc2ccccc2n1

>  <score_type>  (44) 
oracle

>  <origin>  (44) 
autodockgpu

>  <m_score__min__energy>  (44) 
-9.6099999999999994

>  <m_primary>  (44) 
energy

>  <rmsd>  (44) 
7.26061929591958

>  <m_score__min__rmsd>  (44) 
7.26061929591958

>  <meeko>  (44) 
{"free_energy": -8.35, "intermolecular_energy": -9.84, "internal_energy": -1.96, "cluster_size": 2, "cluster_id": 5, "rank_in_cluster": 2}

>  <energy>  (44) 
-8.46

>  <cluster_rmsd>  (44) 
0.0

>  <cluster>  (44) 
5

$$$$

     RDKit          3D

 52 56  0  0  0  0  0  0  0  0999 V2000
  140.1230   70.7480  221.4390 O   0  0  0  0  0  0  0  0  0  0  0  0
  139.7840   71.2310  222.5540 C   0  0  0  0  0  0  0  0  0  0  0  0
  139.3560   72.5850  222.5680 N   0  0  0  0  0  0  0  0  0  0  0  0
  139.3280   73.3250  221.3440 C   0  0  0  0  0  0  0  0  0  0  0  0
  139.2990   74.8030  221.5840 C   0  0  0  0  0  0  0  0  0  0  0  0
  138.9660   75.2700  222.6990 O   0  0  0  0  0  0  0  0  0  0  0  0
  139.6520   75.7110  220.5480 N   0  0  0  0  0  0  0  0  0  0  0  0
  139.2150   77.0850  220.5210 C   0  0  0  0  0  0  0  0  0  0  0  0
  139.1800   77.4240  219.0650 C   0  0  0  0  0  0  0  0  0  0  0  0
  139.8650   76.2910  218.3640 C   0  0  0  0  0  0  0  0  0  0  0  0
  140.4710   75.3910  219.4130 C   0  0  1  0  0  0  0  0  0  0  0  0
  141.9090   75.6080  219.6030 C   0  0  0  0  0  0  0  0  0  0  0  0
  142.6950   76.7280  219.4420 C   0  0  0  0  0  0  0  0  0  0  0  0
  143.9780   76.4570  219.7340 N   0  0  0  0  0  0  0  0  0  0  0  0
  144.0610   75.1660  220.0890 C   0  0  0  0  0  0  0  0  0  0  0  0
  145.1550   74.3840  220.4840 C   0  0  0  0  0  0  0  0  0  0  0  0
  144.9440   73.0500  220.8000 C   0  0  0  0  0  0  0  0  0  0  0  0
  143.6760   72.5270  220.7200 C   0  0  0  0  0  0  0  0  0  0  0  0
  142.5720   73.2750  220.3330 C   0  0  0  0  0  0  0  0  0  0  0  0
  142.7940   74.6140  220.0170 C   0  0  0  0  0  0  0  0  0  0  0  0
  139.8240   70.4420  223.7960 C   0  0  0  0  0  0  0  0  0  0  0  0
  139.2270   69.1960  223.7730 C   0  0  0  0  0  0  0  0  0  0  0  0
  139.2640   68.4570  224.9400 C   0  0  0  0  0  0  0  0  0  0  0  0
  139.8720   68.9390  226.0870 C   0  0  0  0  0  0  0  0  0  0  0  0
  139.9060   68.1940  227.2560 C   0  0  0  0  0  0  0  0  0  0  0  0
  140.5270   68.7380  228.3550 C   0  0  0  0  0  0  0  0  0  0  0  0
  141.1180   69.9900  228.3520 C   0  0  0  0  0  0  0  0  0  0  0  0
  141.0820   70.7410  227.1690 C   0  0  0  0  0  0  0  0  0  0  0  0
  140.4600   70.2030  226.0590 C   0  0  0  0  0  0  0  0  0  0  0  0
  140.4150   70.9120  224.9070 N   0  0  0  0  0  0  0  0  0  0  0  0
  139.0570   73.0600  223.4510 H   0  0  0  0  0  0  0  0  0  0  0  0
  140.2258   73.0776  220.7585 H   0  0  0  0  0  0  0  0  0  0  0  0
  138.4116   73.0503  220.8011 H   0  0  0  0  0  0  0  0  0  0  0  0
  138.2162   77.1867  220.9704 H   0  0  0  0  0  0  0  0  0  0  0  0
  139.8756   77.7511  221.0954 H   0  0  0  0  0  0  0  0  0  0  0  0
  138.1401   77.5160  218.7183 H   0  0  0  0  0  0  0  0  0  0  0  0
  139.6762   78.3844  218.8615 H   0  0  0  0  0  0  0  0  0  0  0  0
  139.1351   75.7269  217.7648 H   0  0  0  0  0  0  0  0  0  0  0  0
  140.6468   76.6745  217.6920 H   0  0  0  0  0  0  0  0  0  0  0  0
  140.4616   74.3196  219.1638 H   0  0  0  0  0  0  0  0  0  0  0  0
  142.3225   77.7110  219.1182 H   0  0  0  0  0  0  0  0  0  0  0  0
  144.8150   77.1150  219.7050 H   0  0  0  0  0  0  0  0  0  0  0  0
  146.1630   74.8204  220.5424 H   0  0  0  0  0  0  0  0  0  0  0  0
  145.7861   72.4151  221.1125 H   0  0  0  0  0  0  0  0  0  0  0  0
  143.5286   71.4670  220.9742 H   0  0  0  0  0  0  0  0  0  0  0  0
  141.5673   72.8306  220.2783 H   0  0  0  0  0  0  0  0  0  0  0  0
  138.7429   68.8089  222.8643 H   0  0  0  0  0  0  0  0  0  0  0  0
  138.7987   67.4605  224.9583 H   0  0  0  0  0  0  0  0  0  0  0  0
  139.4484   67.1948  227.3026 H   0  0  0  0  0  0  0  0  0  0  0  0
  140.5558   68.1490  229.2836 H   0  0  0  0  0  0  0  0  0  0  0  0
  141.6040   70.3858  229.2560 H   0  0  0  0  0  0  0  0  0  0  0  0
  141.5404   71.7400  227.1253 H   0  0  0  0  0  0  0  0  0  0  0  0
  1  2  2  0
  2  3  1  0
  3  4  1  0
  4  5  1  0
  5  6  2  0
  5  7  1  0
  7  8  1  0
  8  9  1  0
  9 10  1  0
 10 11  1  0
 11 12  1  0
 12 13  2  0
 13 14  1  0
 14 15  1  0
 15 16  2  0
 16 17  1  0
 17 18  2  0
 18 19  1  0
 19 20  2  0
  2 21  1  0
 21 22  2  0
 22 23  1  0
 23 24  2  0
 24 25  1  0
 25 26  2  0
 26 27  1  0
 27 28  2  0
 28 29  1  0
 29 30  2  0
 11  7  1  0
 20 12  1  0
 30 21  1  0
 20 15  1  0
 29 24  1  0
  3 31  1  0
  4 32  1  0
  4 33  1  0
  8 34  1  0
  8 35  1  0
  9 36  1  0
  9 37  1  0
 10 38  1  0
 10 39  1  0
 11 40  1  6
 13 41  1  0
 14 42  1  0
 16 43  1  0
 17 44  1  0
 18 45  1  0
 19 46  1  0
 22 47  1  0
 23 48  1  0
 25 49  1  0
 26 50  1  0
 27 51  1  0
 28 52  1  0
M  END
>  <smiles>  (45) 
O=C(NCC(=O)N1CCC[C@H]1c1c[nH]c2ccccc12)c1ccc2ccccc2n1

>  <score_type>  (45) 
oracle

>  <origin>  (45) 
autodockgpu

>  <m_score__min__energy>  (45) 
-9.6099999999999994

>  <m_primary>  (45) 
energy

>  <rmsd>  (45) 
1.702962608983407

>  <m_score__min__rmsd>  (45) 
1.702962608983407

>  <meeko>  (45) 
{"free_energy": -8.41, "intermolecular_energy": -9.9, "internal_energy": -1.99, "cluster_size": 3, "cluster_id": 6, "rank_in_cluster": 2}

>  <energy>  (45) 
-8.35

>  <cluster_rmsd>  (45) 
0.14

>  <cluster>  (45) 
5

$$$$

     RDKit          3D

 52 56  0  0  0  0  0  0  0  0999 V2000
  140.7790   71.6040  221.3530 O   0  0  0  0  0  0  0  0  0  0  0  0
  140.3260   72.1360  222.4030 C   0  0  0  0  0  0  0  0  0  0  0  0
  139.9400   73.5000  222.3210 N   0  0  0  0  0  0  0  0  0  0  0  0
  140.0780   74.1950  221.0790 C   0  0  0  0  0  0  0  0  0  0  0  0
  140.3680   75.6510  221.2800 C   0  0  0  0  0  0  0  0  0  0  0  0
  140.1470   76.2070  222.3820 O   0  0  0  0  0  0  0  0  0  0  0  0
  140.9040   76.4340  220.2210 N   0  0  0  0  0  0  0  0  0  0  0  0
  140.4810   76.3000  218.8490 C   0  0  0  0  0  0  0  0  0  0  0  0
  141.6810   76.7140  218.0590 C   0  0  0  0  0  0  0  0  0  0  0  0
  142.6310   77.3210  219.0460 C   0  0  0  0  0  0  0  0  0  0  0  0
  141.9170   77.4410  220.3690 C   0  0  1  0  0  0  0  0  0  0  0  0
  141.4150   78.7930  220.6360 C   0  0  0  0  0  0  0  0  0  0  0  0
  140.5730   79.6150  219.9190 C   0  0  0  0  0  0  0  0  0  0  0  0
  140.3880   80.7840  220.5580 N   0  0  0  0  0  0  0  0  0  0  0  0
  141.0990   80.7530  221.6960 C   0  0  0  0  0  0  0  0  0  0  0  0
  141.2540   81.7040  222.7140 C   0  0  0  0  0  0  0  0  0  0  0  0
  142.0660   81.3960  223.7960 C   0  0  0  0  0  0  0  0  0  0  0  0
  142.6960   80.1770  223.8460 C   0  0  0  0  0  0  0  0  0  0  0  0
  142.5620   79.2150  222.8540 C   0  0  0  0  0  0  0  0  0  0  0  0
  141.7450   79.5320  221.7710 C   0  0  0  0  0  0  0  0  0  0  0  0
  140.1970   71.3930  223.6670 C   0  0  0  0  0  0  0  0  0  0  0  0
  139.5580   70.1680  223.6180 C   0  0  0  0  0  0  0  0  0  0  0  0
  139.4350   69.4720  224.8040 C   0  0  0  0  0  0  0  0  0  0  0  0
  139.9290   69.9740  225.9960 C   0  0  0  0  0  0  0  0  0  0  0  0
  139.8030   69.2720  227.1860 C   0  0  0  0  0  0  0  0  0  0  0  0
  140.3180   69.8340  228.3300 C   0  0  0  0  0  0  0  0  0  0  0  0
  140.9540   71.0640  228.3520 C   0  0  0  0  0  0  0  0  0  0  0  0
  141.0800   71.7710  227.1490 C   0  0  0  0  0  0  0  0  0  0  0  0
  140.5660   71.2140  225.9940 C   0  0  0  0  0  0  0  0  0  0  0  0
  140.6770   71.8820  224.8220 N   0  0  0  0  0  0  0  0  0  0  0  0
  139.5540   74.0150  223.1460 H   0  0  0  0  0  0  0  0  0  0  0  0
  140.9037   73.7437  220.5093 H   0  0  0  0  0  0  0  0  0  0  0  0
  139.1260   74.1101  220.5345 H   0  0  0  0  0  0  0  0  0  0  0  0
  140.2052   75.2590  218.6247 H   0  0  0  0  0  0  0  0  0  0  0  0
  139.5924   76.9061  218.6186 H   0  0  0  0  0  0  0  0  0  0  0  0
  142.1399   75.8401  217.5734 H   0  0  0  0  0  0  0  0  0  0  0  0
  141.4156   77.4252  217.2629 H   0  0  0  0  0  0  0  0  0  0  0  0
  143.5159   76.6770  219.1567 H   0  0  0  0  0  0  0  0  0  0  0  0
  142.9604   78.3115  218.6990 H   0  0  0  0  0  0  0  0  0  0  0  0
  142.5529   77.2849  221.2529 H   0  0  0  0  0  0  0  0  0  0  0  0
  140.1143   79.3509  218.9547 H   0  0  0  0  0  0  0  0  0  0  0  0
  139.7950   81.6140  220.2560 H   0  0  0  0  0  0  0  0  0  0  0  0
  140.7417   82.6757  222.6562 H   0  0  0  0  0  0  0  0  0  0  0  0
  142.2042   82.1240  224.6090 H   0  0  0  0  0  0  0  0  0  0  0  0
  143.3363   79.9523  224.7118 H   0  0  0  0  0  0  0  0  0  0  0  0
  143.0779   78.2457  222.9202 H   0  0  0  0  0  0  0  0  0  0  0  0
  139.1640   69.7647  222.6735 H   0  0  0  0  0  0  0  0  0  0  0  0
  138.9318   68.4939  224.8018 H   0  0  0  0  0  0  0  0  0  0  0  0
  139.3043   68.2919  227.2134 H   0  0  0  0  0  0  0  0  0  0  0  0
  140.2201   69.2792  229.2748 H   0  0  0  0  0  0  0  0  0  0  0  0
  141.3508   71.4761  229.2916 H   0  0  0  0  0  0  0  0  0  0  0  0
  141.5788   72.7511  227.1246 H   0  0  0  0  0  0  0  0  0  0  0  0
  1  2  2  0
  2  3  1  0
  3  4  1  0
  4  5  1  0
  5  6  2  0
  5  7  1  0
  7  8  1  0
  8  9  1  0
  9 10  1  0
 10 11  1  0
 11 12  1  0
 12 13  2  0
 13 14  1  0
 14 15  1  0
 15 16  2  0
 16 17  1  0
 17 18  2  0
 18 19  1  0
 19 20  2  0
  2 21  1  0
 21 22  2  0
 22 23  1  0
 23 24  2  0
 24 25  1  0
 25 26  2  0
 26 27  1  0
 27 28  2  0
 28 29  1  0
 29 30  2  0
 11  7  1  0
 20 12  1  0
 30 21  1  0
 20 15  1  0
 29 24  1  0
  3 31  1  0
  4 32  1  0
  4 33  1  0
  8 34  1  0
  8 35  1  0
  9 36  1  0
  9 37  1  0
 10 38  1  0
 10 39  1  0
 11 40  1  1
 13 41  1  0
 14 42  1  0
 16 43  1  0
 17 44  1  0
 18 45  1  0
 19 46  1  0
 22 47  1  0
 23 48  1  0
 25 49  1  0
 26 50  1  0
 27 51  1  0
 28 52  1  0
M  END
>  <smiles>  (46) 
O=C(NCC(=O)N1CCC[C@H]1c1c[nH]c2ccccc12)c1ccc2ccccc2n1

>  <score_type>  (46) 
oracle

>  <origin>  (46) 
autodockgpu

>  <m_score__min__energy>  (46) 
-9.6099999999999994

>  <m_primary>  (46) 
energy

>  <rmsd>  (46) 
1.6199329249208514

>  <m_score__min__rmsd>  (46) 
1.6199329249208514

>  <meeko>  (46) 
{"free_energy": -9.52, "intermolecular_energy": -11.01, "internal_energy": -1.63, "cluster_size": 26, "cluster_id": 1, "rank_in_cluster": 7}

>  <energy>  (46) 
-8.45

>  <cluster_rmsd>  (46) 
0.0

>  <cluster>  (46) 
6

$$$$

     RDKit          3D

 52 56  0  0  0  0  0  0  0  0999 V2000
  140.7850   71.5990  221.3550 O   0  0  0  0  0  0  0  0  0  0  0  0
  140.3280   72.1340  222.4020 C   0  0  0  0  0  0  0  0  0  0  0  0
  139.9590   73.5020  222.3190 N   0  0  0  0  0  0  0  0  0  0  0  0
  140.1170   74.1990  221.0800 C   0  0  0  0  0  0  0  0  0  0  0  0
  140.3890   75.6570  221.2870 C   0  0  0  0  0  0  0  0  0  0  0  0
  140.1630   76.2050  222.3920 O   0  0  0  0  0  0  0  0  0  0  0  0
  140.9120   76.4520  220.2300 N   0  0  0  0  0  0  0  0  0  0  0  0
  140.4650   76.3390  218.8630 C   0  0  0  0  0  0  0  0  0  0  0  0
  141.6550   76.7580  218.0600 C   0  0  0  0  0  0  0  0  0  0  0  0
  142.6240   77.3460  219.0390 C   0  0  0  0  0  0  0  0  0  0  0  0
  141.9320   77.4520  220.3760 C   0  0  1  0  0  0  0  0  0  0  0  0
  141.4420   78.8030  220.6680 C   0  0  0  0  0  0  0  0  0  0  0  0
  140.5790   79.6320  219.9860 C   0  0  0  0  0  0  0  0  0  0  0  0
  140.4180   80.7960  220.6390 N   0  0  0  0  0  0  0  0  0  0  0  0
  141.1650   80.7550  221.7530 C   0  0  0  0  0  0  0  0  0  0  0  0
  141.3550   81.6980  222.7730 C   0  0  0  0  0  0  0  0  0  0  0  0
  142.2020   81.3810  223.8250 C   0  0  0  0  0  0  0  0  0  0  0  0
  142.8310   80.1600  223.8450 C   0  0  0  0  0  0  0  0  0  0  0  0
  142.6630   79.2060  222.8510 C   0  0  0  0  0  0  0  0  0  0  0  0
  141.8110   79.5320  221.7970 C   0  0  0  0  0  0  0  0  0  0  0  0
  140.1770   71.3890  223.6620 C   0  0  0  0  0  0  0  0  0  0  0  0
  139.5200   70.1750  223.6050 C   0  0  0  0  0  0  0  0  0  0  0  0
  139.3770   69.4780  224.7880 C   0  0  0  0  0  0  0  0  0  0  0  0
  139.8690   69.9690  225.9860 C   0  0  0  0  0  0  0  0  0  0  0  0
  139.7220   69.2660  227.1730 C   0  0  0  0  0  0  0  0  0  0  0  0
  140.2360   69.8170  228.3220 C   0  0  0  0  0  0  0  0  0  0  0  0
  140.8900   71.0380  228.3530 C   0  0  0  0  0  0  0  0  0  0  0  0
  141.0360   71.7460  227.1530 C   0  0  0  0  0  0  0  0  0  0  0  0
  140.5240   71.2000  225.9920 C   0  0  0  0  0  0  0  0  0  0  0  0
  140.6550   71.8690  224.8230 N   0  0  0  0  0  0  0  0  0  0  0  0
  139.5710   74.0200  223.1420 H   0  0  0  0  0  0  0  0  0  0  0  0
  140.9588   73.7556  220.5280 H   0  0  0  0  0  0  0  0  0  0  0  0
  139.1775   74.1055  220.5155 H   0  0  0  0  0  0  0  0  0  0  0  0
  140.1799   75.3027  218.6288 H   0  0  0  0  0  0  0  0  0  0  0  0
  139.5757   76.9521  218.6553 H   0  0  0  0  0  0  0  0  0  0  0  0
  142.1013   75.8886  217.5550 H   0  0  0  0  0  0  0  0  0  0  0  0
  141.3806   77.4821  217.2787 H   0  0  0  0  0  0  0  0  0  0  0  0
  143.5068   76.6957  219.1264 H   0  0  0  0  0  0  0  0  0  0  0  0
  142.9533   78.3393  218.7001 H   0  0  0  0  0  0  0  0  0  0  0  0
  142.5802   77.2810  221.2482 H   0  0  0  0  0  0  0  0  0  0  0  0
  140.0879   79.3762  219.0355 H   0  0  0  0  0  0  0  0  0  0  0  0
  139.8170   81.6290  220.3630 H   0  0  0  0  0  0  0  0  0  0  0  0
  140.8423   82.6706  222.7397 H   0  0  0  0  0  0  0  0  0  0  0  0
  142.3688   82.1029  224.6380 H   0  0  0  0  0  0  0  0  0  0  0  0
  143.4987   79.9276  224.6877 H   0  0  0  0  0  0  0  0  0  0  0  0
  143.1793   78.2356  222.8931 H   0  0  0  0  0  0  0  0  0  0  0  0
  139.1272   69.7802  222.6564 H   0  0  0  0  0  0  0  0  0  0  0  0
  138.8590   68.5077  224.7789 H   0  0  0  0  0  0  0  0  0  0  0  0
  139.2079   68.2938  227.1937 H   0  0  0  0  0  0  0  0  0  0  0  0
  140.1226   69.2609  229.2643 H   0  0  0  0  0  0  0  0  0  0  0  0
  141.2850   71.4417  229.2969 H   0  0  0  0  0  0  0  0  0  0  0  0
  141.5490   72.7189  227.1356 H   0  0  0  0  0  0  0  0  0  0  0  0
  1  2  2  0
  2  3  1  0
  3  4  1  0
  4  5  1  0
  5  6  2  0
  5  7  1  0
  7  8  1  0
  8  9  1  0
  9 10  1  0
 10 11  1  0
 11 12  1  0
 12 13  2  0
 13 14  1  0
 14 15  1  0
 15 16  2  0
 16 17  1  0
 17 18  2  0
 18 19  1  0
 19 20  2  0
  2 21  1  0
 21 22  2  0
 22 23  1  0
 23 24  2  0
 24 25  1  0
 25 26  2  0
 26 27  1  0
 27 28  2  0
 28 29  1  0
 29 30  2  0
 11  7  1  0
 20 12  1  0
 30 21  1  0
 20 15  1  0
 29 24  1  0
  3 31  1  0
  4 32  1  0
  4 33  1  0
  8 34  1  0
  8 35  1  0
  9 36  1  0
  9 37  1  0
 10 38  1  0
 10 39  1  0
 11 40  1  1
 13 41  1  0
 14 42  1  0
 16 43  1  0
 17 44  1  0
 18 45  1  0
 19 46  1  0
 22 47  1  0
 23 48  1  0
 25 49  1  0
 26 50  1  0
 27 51  1  0
 28 52  1  0
M  END
>  <smiles>  (47) 
O=C(NCC(=O)N1CCC[C@H]1c1c[nH]c2ccccc12)c1ccc2ccccc2n1

>  <score_type>  (47) 
oracle

>  <origin>  (47) 
autodockgpu

>  <m_score__min__energy>  (47) 
-9.6099999999999994

>  <m_primary>  (47) 
energy

>  <rmsd>  (47) 
1.6247112030405602

>  <m_score__min__rmsd>  (47) 
1.6247112030405602

>  <meeko>  (47) 
{"free_energy": -9.49, "intermolecular_energy": -10.98, "internal_energy": -1.65, "cluster_size": 26, "cluster_id": 1, "rank_in_cluster": 13}

>  <energy>  (47) 
-8.41

>  <cluster_rmsd>  (47) 
1.18

>  <cluster>  (47) 
6

$$$$

     RDKit          3D

 52 56  0  0  0  0  0  0  0  0999 V2000
  140.9880   71.8970  221.4240 O   0  0  0  0  0  0  0  0  0  0  0  0
  140.3030   72.2630  222.4180 C   0  0  0  0  0  0  0  0  0  0  0  0
  139.6250   73.5060  222.3130 N   0  0  0  0  0  0  0  0  0  0  0  0
  139.7440   74.2710  221.1100 C   0  0  0  0  0  0  0  0  0  0  0  0
  140.8140   75.3140  221.2130 C   0  0  0  0  0  0  0  0  0  0  0  0
  140.8290   76.1320  222.1640 O   0  0  0  0  0  0  0  0  0  0  0  0
  141.8400   75.3970  220.2320 N   0  0  0  0  0  0  0  0  0  0  0  0
  142.6940   76.5500  220.0790 C   0  0  0  0  0  0  0  0  0  0  0  0
  143.0690   76.5310  218.6320 C   0  0  0  0  0  0  0  0  0  0  0  0
  142.6170   75.2020  218.1080 C   0  0  0  0  0  0  0  0  0  0  0  0
  142.1580   74.3700  219.2800 C   0  0  1  0  0  0  0  0  0  0  0  0
  143.1600   73.3970  219.7270 C   0  0  0  0  0  0  0  0  0  0  0  0
  144.2650   73.5270  220.5390 C   0  0  0  0  0  0  0  0  0  0  0  0
  144.9000   72.3500  220.6740 N   0  0  0  0  0  0  0  0  0  0  0  0
  144.2320   71.4320  219.9600 C   0  0  0  0  0  0  0  0  0  0  0  0
  144.4670   70.0640  219.7620 C   0  0  0  0  0  0  0  0  0  0  0  0
  143.5940   69.3460  218.9570 C   0  0  0  0  0  0  0  0  0  0  0  0
  142.5270   69.9850  218.3760 C   0  0  0  0  0  0  0  0  0  0  0  0
  142.2670   71.3380  218.5520 C   0  0  0  0  0  0  0  0  0  0  0  0
  143.1490   72.0520  219.3620 C   0  0  0  0  0  0  0  0  0  0  0  0
  140.2000   71.4520  223.6420 C   0  0  0  0  0  0  0  0  0  0  0  0
  139.6240   70.2010  223.5250 C   0  0  0  0  0  0  0  0  0  0  0  0
  139.5260   69.4410  224.6740 C   0  0  0  0  0  0  0  0  0  0  0  0
  139.9840   69.9070  225.8950 C   0  0  0  0  0  0  0  0  0  0  0  0
  139.8830   69.1400  227.0470 C   0  0  0  0  0  0  0  0  0  0  0  0
  140.3590   69.6690  228.2230 C   0  0  0  0  0  0  0  0  0  0  0  0
  140.9320   70.9270  228.3140 C   0  0  0  0  0  0  0  0  0  0  0  0
  141.0320   71.6990  227.1490 C   0  0  0  0  0  0  0  0  0  0  0  0
  140.5570   71.1760  225.9620 C   0  0  0  0  0  0  0  0  0  0  0  0
  140.6450   71.9060  224.8250 N   0  0  0  0  0  0  0  0  0  0  0  0
  139.0350   73.8810  223.0920 H   0  0  0  0  0  0  0  0  0  0  0  0
  139.9884   73.5920  220.2798 H   0  0  0  0  0  0  0  0  0  0  0  0
  138.7859   74.7826  220.9360 H   0  0  0  0  0  0  0  0  0  0  0  0
  142.1528   77.4739  220.3308 H   0  0  0  0  0  0  0  0  0  0  0  0
  143.5695   76.5204  220.7443 H   0  0  0  0  0  0  0  0  0  0  0  0
  142.5626   77.3464  218.0948 H   0  0  0  0  0  0  0  0  0  0  0  0
  144.1509   76.6730  218.4933 H   0  0  0  0  0  0  0  0  0  0  0  0
  141.7856   75.3425  217.4016 H   0  0  0  0  0  0  0  0  0  0  0  0
  143.4413   74.6985  217.5816 H   0  0  0  0  0  0  0  0  0  0  0  0
  141.3098   73.7022  219.0685 H   0  0  0  0  0  0  0  0  0  0  0  0
  144.5846   74.4669  221.0129 H   0  0  0  0  0  0  0  0  0  0  0  0
  145.7780   72.1350  221.2360 H   0  0  0  0  0  0  0  0  0  0  0  0
  145.3274   69.5691  220.2360 H   0  0  0  0  0  0  0  0  0  0  0  0
  143.7560   68.2716  218.7855 H   0  0  0  0  0  0  0  0  0  0  0  0
  141.8463   69.3983  217.7416 H   0  0  0  0  0  0  0  0  0  0  0  0
  141.4040   71.8243  218.0738 H   0  0  0  0  0  0  0  0  0  0  0  0
  139.2589   69.8264  222.5573 H   0  0  0  0  0  0  0  0  0  0  0  0
  139.0727   68.4403  224.6179 H   0  0  0  0  0  0  0  0  0  0  0  0
  139.4343   68.1361  227.0198 H   0  0  0  0  0  0  0  0  0  0  0  0
  140.2810   69.0631  229.1378 H   0  0  0  0  0  0  0  0  0  0  0  0
  141.2995   71.3104  229.2773 H   0  0  0  0  0  0  0  0  0  0  0  0
  141.4805   72.7030  227.1791 H   0  0  0  0  0  0  0  0  0  0  0  0
  1  2  2  0
  2  3  1  0
  3  4  1  0
  4  5  1  0
  5  6  2  0
  5  7  1  0
  7  8  1  0
  8  9  1  0
  9 10  1  0
 10 11  1  0
 11 12  1  0
 12 13  2  0
 13 14  1  0
 14 15  1  0
 15 16  2  0
 16 17  1  0
 17 18  2  0
 18 19  1  0
 19 20  2  0
  2 21  1  0
 21 22  2  0
 22 23  1  0
 23 24  2  0
 24 25  1  0
 25 26  2  0
 26 27  1  0
 27 28  2  0
 28 29  1  0
 29 30  2  0
 11  7  1  0
 20 12  1  0
 30 21  1  0
 20 15  1  0
 29 24  1  0
  3 31  1  0
  4 32  1  0
  4 33  1  0
  8 34  1  0
  8 35  1  0
  9 36  1  0
  9 37  1  0
 10 38  1  0
 10 39  1  0
 11 40  1  6
 13 41  1  0
 14 42  1  0
 16 43  1  0
 17 44  1  0
 18 45  1  0
 19 46  1  0
 22 47  1  0
 23 48  1  0
 25 49  1  0
 26 50  1  0
 27 51  1  0
 28 52  1  0
M  END
>  <smiles>  (48) 
O=C(NCC(=O)N1CCC[C@H]1c1c[nH]c2ccccc12)c1ccc2ccccc2n1

>  <score_type>  (48) 
oracle

>  <origin>  (48) 
autodockgpu

>  <m_score__min__energy>  (48) 
-9.6099999999999994

>  <m_primary>  (48) 
energy

>  <rmsd>  (48) 
2.3648518754630667

>  <m_score__min__rmsd>  (48) 
2.3648518754630667

>  <meeko>  (48) 
{"free_energy": -8.38, "intermolecular_energy": -9.87, "internal_energy": -1.88, "cluster_size": 3, "cluster_id": 6, "rank_in_cluster": 3}

>  <energy>  (48) 
-8.38

>  <cluster_rmsd>  (48) 
1.25

>  <cluster>  (48) 
6

$$$$

     RDKit          3D

 52 56  0  0  0  0  0  0  0  0999 V2000
  138.3380   71.2910  221.5810 O   0  0  0  0  0  0  0  0  0  0  0  0
  138.9520   71.6230  222.6320 C   0  0  0  0  0  0  0  0  0  0  0  0
  139.4240   72.9590  222.7090 N   0  0  0  0  0  0  0  0  0  0  0  0
  139.1870   73.8520  221.6160 C   0  0  0  0  0  0  0  0  0  0  0  0
  140.3350   74.7880  221.3980 C   0  0  0  0  0  0  0  0  0  0  0  0
  141.4510   74.5760  221.9290 O   0  0  0  0  0  0  0  0  0  0  0  0
  140.1820   75.9420  220.5810 N   0  0  0  0  0  0  0  0  0  0  0  0
  139.2150   76.0290  219.5140 C   0  0  0  0  0  0  0  0  0  0  0  0
  139.8300   76.9890  218.5470 C   0  0  0  0  0  0  0  0  0  0  0  0
  140.9970   77.5990  219.2620 C   0  0  0  0  0  0  0  0  0  0  0  0
  140.9510   77.1480  220.7010 C   0  0  1  0  0  0  0  0  0  0  0  0
  140.3890   78.1560  221.6070 C   0  0  0  0  0  0  0  0  0  0  0  0
  139.0930   78.4250  221.9850 C   0  0  0  0  0  0  0  0  0  0  0  0
  139.0510   79.4560  222.8470 N   0  0  0  0  0  0  0  0  0  0  0  0
  140.3070   79.8800  223.0500 C   0  0  0  0  0  0  0  0  0  0  0  0
  140.8160   80.9140  223.8490 C   0  0  0  0  0  0  0  0  0  0  0  0
  142.1870   81.1310  223.8660 C   0  0  0  0  0  0  0  0  0  0  0  0
  143.0090   80.3360  223.1060 C   0  0  0  0  0  0  0  0  0  0  0  0
  142.5360   79.3050  222.3060 C   0  0  0  0  0  0  0  0  0  0  0  0
  141.1580   79.0930  222.2940 C   0  0  0  0  0  0  0  0  0  0  0  0
  139.1790   70.6800  223.7390 C   0  0  0  0  0  0  0  0  0  0  0  0
  138.6840   69.3980  223.5910 C   0  0  0  0  0  0  0  0  0  0  0  0
  138.8960   68.5150  224.6310 C   0  0  0  0  0  0  0  0  0  0  0  0
  139.5750   68.8920  225.7780 C   0  0  0  0  0  0  0  0  0  0  0  0
  139.7850   68.0020  226.8210 C   0  0  0  0  0  0  0  0  0  0  0  0
  140.4670   68.4470  227.9280 C   0  0  0  0  0  0  0  0  0  0  0  0
  140.9530   69.7380  228.0530 C   0  0  0  0  0  0  0  0  0  0  0  0
  140.7390   70.6360  226.9980 C   0  0  0  0  0  0  0  0  0  0  0  0
  140.0550   70.1970  225.8800 C   0  0  0  0  0  0  0  0  0  0  0  0
  139.8380   71.0480  224.8510 N   0  0  0  0  0  0  0  0  0  0  0  0
  139.9410   73.3150  223.5460 H   0  0  0  0  0  0  0  0  0  0  0  0
  139.0321   73.2608  220.7014 H   0  0  0  0  0  0  0  0  0  0  0  0
  138.2982   74.4542  221.8555 H   0  0  0  0  0  0  0  0  0  0  0  0
  139.0607   75.0461  219.0448 H   0  0  0  0  0  0  0  0  0  0  0  0
  138.2253   76.3567  219.8649 H   0  0  0  0  0  0  0  0  0  0  0  0
  140.1684   76.4592  217.6443 H   0  0  0  0  0  0  0  0  0  0  0  0
  139.1092   77.7542  218.2230 H   0  0  0  0  0  0  0  0  0  0  0  0
  141.9359   77.2652  218.7962 H   0  0  0  0  0  0  0  0  0  0  0  0
  140.9489   78.6964  219.2042 H   0  0  0  0  0  0  0  0  0  0  0  0
  141.9347   76.9866  221.1660 H   0  0  0  0  0  0  0  0  0  0  0  0
  138.2112   77.8715  221.6299 H   0  0  0  0  0  0  0  0  0  0  0  0
  138.1990   79.8930  223.3130 H   0  0  0  0  0  0  0  0  0  0  0  0
  140.1417   81.5411  224.4507 H   0  0  0  0  0  0  0  0  0  0  0  0
  142.6123   81.9350  224.4846 H   0  0  0  0  0  0  0  0  0  0  0  0
  144.0923   80.5249  223.1323 H   0  0  0  0  0  0  0  0  0  0  0  0
  143.2181   78.6828  221.7080 H   0  0  0  0  0  0  0  0  0  0  0  0
  138.1436   69.0939  222.6824 H   0  0  0  0  0  0  0  0  0  0  0  0
  138.5161   67.4861  224.5466 H   0  0  0  0  0  0  0  0  0  0  0  0
  139.4155   66.9675  226.7636 H   0  0  0  0  0  0  0  0  0  0  0  0
  140.6353   67.7428  228.7561 H   0  0  0  0  0  0  0  0  0  0  0  0
  141.4938   70.0511  228.9582 H   0  0  0  0  0  0  0  0  0  0  0  0
  141.1084   71.6703  227.0588 H   0  0  0  0  0  0  0  0  0  0  0  0
  1  2  2  0
  2  3  1  0
  3  4  1  0
  4  5  1  0
  5  6  2  0
  5  7  1  0
  7  8  1  0
  8  9  1  0
  9 10  1  0
 10 11  1  0
 11 12  1  0
 12 13  2  0
 13 14  1  0
 14 15  1  0
 15 16  2  0
 16 17  1  0
 17 18  2  0
 18 19  1  0
 19 20  2  0
  2 21  1  0
 21 22  2  0
 22 23  1  0
 23 24  2  0
 24 25  1  0
 25 26  2  0
 26 27  1  0
 27 28  2  0
 28 29  1  0
 29 30  2  0
 11  7  1  0
 20 12  1  0
 30 21  1  0
 20 15  1  0
 29 24  1  0
  3 31  1  0
  4 32  1  0
  4 33  1  0
  8 34  1  0
  8 35  1  0
  9 36  1  0
  9 37  1  0
 10 38  1  0
 10 39  1  0
 11 40  1  1
 13 41  1  0
 14 42  1  0
 16 43  1  0
 17 44  1  0
 18 45  1  0
 19 46  1  0
 22 47  1  0
 23 48  1  0
 25 49  1  0
 26 50  1  0
 27 51  1  0
 28 52  1  0
M  END
>  <smiles>  (49) 
O=C(NCC(=O)N1CCC[C@H]1c1c[nH]c2ccccc12)c1ccc2ccccc2n1

>  <score_type>  (49) 
oracle

>  <origin>  (49) 
autodockgpu

>  <m_score__min__energy>  (49) 
-9.6099999999999994

>  <m_primary>  (49) 
energy

>  <rmsd>  (49) 
1.0662612533618763

>  <m_score__min__rmsd>  (49) 
1.0662612533618763

>  <meeko>  (49) 
{"free_energy": -8.64, "intermolecular_energy": -10.14, "internal_energy": -1.57, "cluster_size": 26, "cluster_id": 1, "rank_in_cluster": 24}

>  <energy>  (49) 
-7.99

>  <cluster_rmsd>  (49) 
0.0

>  <cluster>  (49) 
7

$$$$

     RDKit          3D

 52 56  0  0  0  0  0  0  0  0999 V2000
  139.5420   71.2250  221.3740 O   0  0  0  0  0  0  0  0  0  0  0  0
  139.5980   71.7500  222.5200 C   0  0  0  0  0  0  0  0  0  0  0  0
  139.5320   73.1660  222.5860 N   0  0  0  0  0  0  0  0  0  0  0  0
  139.4080   73.9210  221.3780 C   0  0  0  0  0  0  0  0  0  0  0  0
  140.2390   75.1660  221.4060 C   0  0  0  0  0  0  0  0  0  0  0  0
  140.1610   75.9730  222.3620 O   0  0  0  0  0  0  0  0  0  0  0  0
  141.1400   75.4580  220.3440 N   0  0  0  0  0  0  0  0  0  0  0  0
  140.9970   74.9120  219.0170 C   0  0  0  0  0  0  0  0  0  0  0  0
  142.3960   74.8690  218.4920 C   0  0  0  0  0  0  0  0  0  0  0  0
  143.2230   75.6530  219.4650 C   0  0  0  0  0  0  0  0  0  0  0  0
  142.2870   76.3150  220.4460 C   0  0  1  0  0  0  0  0  0  0  0  0
  142.0370   77.7280  220.1440 C   0  0  0  0  0  0  0  0  0  0  0  0
  141.9450   78.4060  218.9490 C   0  0  0  0  0  0  0  0  0  0  0  0
  141.7000   79.7120  219.1580 N   0  0  0  0  0  0  0  0  0  0  0  0
  141.6270   79.9150  220.4820 C   0  0  0  0  0  0  0  0  0  0  0  0
  141.3940   81.0790  221.2270 C   0  0  0  0  0  0  0  0  0  0  0  0
  141.3730   80.9930  222.6120 C   0  0  0  0  0  0  0  0  0  0  0  0
  141.5790   79.7790  223.2180 C   0  0  0  0  0  0  0  0  0  0  0  0
  141.8120   78.6080  222.5090 C   0  0  0  0  0  0  0  0  0  0  0  0
  141.8320   78.7030  221.1190 C   0  0  0  0  0  0  0  0  0  0  0  0
  139.7250   70.9450  223.7460 C   0  0  0  0  0  0  0  0  0  0  0  0
  139.2900   69.6340  223.6910 C   0  0  0  0  0  0  0  0  0  0  0  0
  139.4080   68.8800  224.8420 C   0  0  0  0  0  0  0  0  0  0  0  0
  139.9400   69.4090  226.0060 C   0  0  0  0  0  0  0  0  0  0  0  0
  140.0570   68.6480  227.1600 C   0  0  0  0  0  0  0  0  0  0  0  0
  140.5940   69.2410  228.2770 C   0  0  0  0  0  0  0  0  0  0  0  0
  141.0230   70.5580  228.3070 C   0  0  0  0  0  0  0  0  0  0  0  0
  140.9040   71.3240  227.1400 C   0  0  0  0  0  0  0  0  0  0  0  0
  140.3660   70.7370  226.0110 C   0  0  0  0  0  0  0  0  0  0  0  0
  140.2420   71.4610  224.8740 N   0  0  0  0  0  0  0  0  0  0  0  0
  139.5710   73.6790  223.4980 H   0  0  0  0  0  0  0  0  0  0  0  0
  139.7337   73.2958  220.5336 H   0  0  0  0  0  0  0  0  0  0  0  0
  138.3545   74.2185  221.2703 H   0  0  0  0  0  0  0  0  0  0  0  0
  140.5620   73.9024  219.0542 H   0  0  0  0  0  0  0  0  0  0  0  0
  140.3247   75.5091  218.3833 H   0  0  0  0  0  0  0  0  0  0  0  0
  142.7524   73.8298  218.4369 H   0  0  0  0  0  0  0  0  0  0  0  0
  142.4600   75.2884  217.4771 H   0  0  0  0  0  0  0  0  0  0  0  0
  143.9087   74.9793  219.9998 H   0  0  0  0  0  0  0  0  0  0  0  0
  143.8197   76.4105  218.9357 H   0  0  0  0  0  0  0  0  0  0  0  0
  142.6737   76.3949  221.4727 H   0  0  0  0  0  0  0  0  0  0  0  0
  142.0567   77.9424  217.9578 H   0  0  0  0  0  0  0  0  0  0  0  0
  141.5780   80.4840  218.4360 H   0  0  0  0  0  0  0  0  0  0  0  0
  141.2307   82.0431  220.7232 H   0  0  0  0  0  0  0  0  0  0  0  0
  141.1925   81.8918  223.2199 H   0  0  0  0  0  0  0  0  0  0  0  0
  141.5586   79.7314  224.3168 H   0  0  0  0  0  0  0  0  0  0  0  0
  141.9736   77.6483  223.0217 H   0  0  0  0  0  0  0  0  0  0  0  0
  138.8673   69.2090  222.7686 H   0  0  0  0  0  0  0  0  0  0  0  0
  139.0710   67.8329  224.8340 H   0  0  0  0  0  0  0  0  0  0  0  0
  139.7288   67.5983  227.1802 H   0  0  0  0  0  0  0  0  0  0  0  0
  140.6880   68.6399  229.1934 H   0  0  0  0  0  0  0  0  0  0  0  0
  141.4467   70.9917  229.2248 H   0  0  0  0  0  0  0  0  0  0  0  0
  141.2329   72.3735  227.1230 H   0  0  0  0  0  0  0  0  0  0  0  0
  1  2  2  0
  2  3  1  0
  3  4  1  0
  4  5  1  0
  5  6  2  0
  5  7  1  0
  7  8  1  0
  8  9  1  0
  9 10  1  0
 10 11  1  0
 11 12  1  0
 12 13  2  0
 13 14  1  0
 14 15  1  0
 15 16  2  0
 16 17  1  0
 17 18  2  0
 18 19  1  0
 19 20  2  0
  2 21  1  0
 21 22  2  0
 22 23  1  0
 23 24  2  0
 24 25  1  0
 25 26  2  0
 26 27  1  0
 27 28  2  0
 28 29  1  0
 29 30  2  0
 11  7  1  0
 20 12  1  0
 30 21  1  0
 20 15  1  0
 29 24  1  0
  3 31  1  0
  4 32  1  0
  4 33  1  0
  8 34  1  0
  8 35  1  0
  9 36  1  0
  9 37  1  0
 10 38  1  0
 10 39  1  0
 11 40  1  1
 13 41  1  0
 14 42  1  0
 16 43  1  0
 17 44  1  0
 18 45  1  0
 19 46  1  0
 22 47  1  0
 23 48  1  0
 25 49  1  0
 26 50  1  0
 27 51  1  0
 28 52  1  0
M  END
>  <smiles>  (50) 
O=C(NCC(=O)N1CCC[C@H]1c1c[nH]c2ccccc12)c1ccc2ccccc2n1

>  <score_type>  (50) 
oracle

>  <origin>  (50) 
autodockgpu

>  <m_score__min__energy>  (50) 
-9.6099999999999994

>  <m_primary>  (50) 
energy

>  <rmsd>  (50) 
1.664880239867002

>  <m_score__min__rmsd>  (50) 
1.664880239867002

>  <meeko>  (50) 
{"free_energy": -8.78, "intermolecular_energy": -10.27, "internal_energy": -1.6, "cluster_size": 26, "cluster_id": 1, "rank_in_cluster": 23}

>  <energy>  (50) 
-7.98

>  <cluster_rmsd>  (50) 
0.0

>  <cluster>  (50) 
8

$$$$
