
     RDKit          3D

 55 58  0  0  0  0  0  0  0  0999 V2000
  139.1950   76.1100  220.1970 O   0  0  0  0  0  0  0  0  0  0  0  0
  139.7020   75.3990  221.1150 C   0  0  0  0  0  0  0  0  0  0  0  0
  139.1980   75.6240  222.4330 N   0  0  0  0  0  0  0  0  0  0  0  0
  138.1630   76.6420  222.5570 C   0  0  0  0  0  0  0  0  0  0  0  0
  138.6570   77.9730  222.1170 C   0  0  0  0  0  0  0  0  0  0  0  0
  138.1210   78.5620  221.1310 O   0  0  0  0  0  0  0  0  0  0  0  0
  139.7270   78.5500  222.8250 N   0  0  0  0  0  0  0  0  0  0  0  0
  139.4380   79.5460  223.8330 C   0  0  0  0  0  0  0  0  0  0  0  0
  139.8870   80.9240  223.4250 C   0  0  0  0  0  0  0  0  0  0  0  0
  141.3550   81.1670  223.6630 C   0  0  0  0  0  0  0  0  0  0  0  0
  142.2600   80.1740  223.0040 C   0  0  0  0  0  0  0  0  0  0  0  0
  142.0100   78.7460  223.4300 C   0  0  0  0  0  0  0  0  0  0  0  0
  141.0540   78.0790  222.4680 C   0  0  2  0  0  0  0  0  0  0  0  0
  141.4180   78.3580  221.0650 C   0  0  0  0  0  0  0  0  0  0  0  0
  142.2240   77.5000  220.3420 C   0  0  0  0  0  0  0  0  0  0  0  0
  142.5550   77.7840  219.0160 C   0  0  0  0  0  0  0  0  0  0  0  0
  142.0770   78.9420  218.3990 C   0  0  0  0  0  0  0  0  0  0  0  0
  142.3880   79.2540  217.0800 O   0  0  0  0  0  0  0  0  0  0  0  0
  141.2600   79.8140  219.1280 C   0  0  0  0  0  0  0  0  0  0  0  0
  140.9570   79.4960  220.4370 C   0  0  0  0  0  0  0  0  0  0  0  0
  140.7400   74.4070  220.8560 C   0  0  0  0  0  0  0  0  0  0  0  0
  140.5620   73.1480  221.3990 C   0  0  0  0  0  0  0  0  0  0  0  0
  141.4870   72.1250  221.2170 C   0  0  0  0  0  0  0  0  0  0  0  0
  142.6030   72.4220  220.4620 C   0  0  0  0  0  0  0  0  0  0  0  0
  143.5580   71.4590  220.2420 C   0  0  0  0  0  0  0  0  0  0  0  0
  144.7010   71.7130  219.4880 C   0  0  0  0  0  0  0  0  0  0  0  0
  145.8970   70.4740  219.2220 Cl  0  0  0  0  0  0  0  0  0  0  0  0
  144.8280   72.9930  218.9680 C   0  0  0  0  0  0  0  0  0  0  0  0
  143.8720   73.9630  219.1870 C   0  0  0  0  0  0  0  0  0  0  0  0
  142.7450   73.6910  219.9380 C   0  0  0  0  0  0  0  0  0  0  0  0
  141.8350   74.6700  220.1270 N   0  0  0  0  0  0  0  0  0  0  0  0
  139.5600   75.0820  223.2530 H   0  0  0  0  0  0  0  0  0  0  0  0
  137.3027   76.3556  221.9342 H   0  0  0  0  0  0  0  0  0  0  0  0
  137.8718   76.7130  223.6154 H   0  0  0  0  0  0  0  0  0  0  0  0
  138.3523   79.5660  224.0086 H   0  0  0  0  0  0  0  0  0  0  0  0
  139.9892   79.2702  224.7441 H   0  0  0  0  0  0  0  0  0  0  0  0
  139.6807   81.0553  222.3525 H   0  0  0  0  0  0  0  0  0  0  0  0
  139.3327   81.6442  224.0447 H   0  0  0  0  0  0  0  0  0  0  0  0
  141.6048   82.1675  223.2800 H   0  0  0  0  0  0  0  0  0  0  0  0
  141.5180   81.0700  224.7465 H   0  0  0  0  0  0  0  0  0  0  0  0
  142.1156   80.2418  221.9156 H   0  0  0  0  0  0  0  0  0  0  0  0
  143.2870   80.4245  223.3083 H   0  0  0  0  0  0  0  0  0  0  0  0
  142.9626   78.1959  223.4369 H   0  0  0  0  0  0  0  0  0  0  0  0
  141.5692   78.7419  224.4378 H   0  0  0  0  0  0  0  0  0  0  0  0
  141.0935   76.9825  222.5464 H   0  0  0  0  0  0  0  0  0  0  0  0
  142.6085   76.5846  220.8156 H   0  0  0  0  0  0  0  0  0  0  0  0
  143.1970   77.0906  218.4530 H   0  0  0  0  0  0  0  0  0  0  0  0
  143.2770   79.7190  216.8570 H   0  0  0  0  0  0  0  0  0  0  0  0
  140.8677   80.7329  218.6679 H   0  0  0  0  0  0  0  0  0  0  0  0
  140.3161   80.1845  221.0073 H   0  0  0  0  0  0  0  0  0  0  0  0
  139.6590   72.9486  221.9947 H   0  0  0  0  0  0  0  0  0  0  0  0
  141.3359   71.1270  221.6541 H   0  0  0  0  0  0  0  0  0  0  0  0
  143.4155   70.4576  220.6743 H   0  0  0  0  0  0  0  0  0  0  0  0
  145.7142   73.2408  218.3653 H   0  0  0  0  0  0  0  0  0  0  0  0
  144.0089   74.9665  218.7578 H   0  0  0  0  0  0  0  0  0  0  0  0
  1  2  2  0
  2  3  1  0
  3  4  1  0
  4  5  1  0
  5  6  2  0
  5  7  1  0
  7  8  1  0
  8  9  1  0
  9 10  1  0
 10 11  1  0
 11 12  1  0
 12 13  1  0
 13 14  1  0
 14 15  2  0
 15 16  1  0
 16 17  2  0
 17 18  1  0
 17 19  1  0
 19 20  2  0
  2 21  1  0
 21 22  2  0
 22 23  1  0
 23 24  2  0
 24 25  1  0
 25 26  2  0
 26 27  1  0
 26 28  1  0
 28 29  2  0
 29 30  1  0
 30 31  2  0
 13  7  1  0
 20 14  1  0
 31 21  1  0
 30 24  1  0
  3 32  1  0
  4 33  1  0
  4 34  1  0
  8 35  1  0
  8 36  1  0
  9 37  1  0
  9 38  1  0
 10 39  1  0
 10 40  1  0
 11 41  1  0
 11 42  1  0
 12 43  1  0
 12 44  1  0
 13 45  1  6
 15 46  1  0
 16 47  1  0
 18 48  1  0
 19 49  1  0
 20 50  1  0
 22 51  1  0
 23 52  1  0
 25 53  1  0
 28 54  1  0
 29 55  1  0
M  END
>  <smiles>  (1) 
O=C(NCC(=O)N1CCCCCC1c1ccc(O)cc1)c1ccc2cc(Cl)ccc2n1

>  <score_type>  (1) 
oracle

>  <origin>  (1) 
autodockgpu

>  <m_score__min__energy>  (1) 
-6.6699999999999999

>  <m_primary>  (1) 
energy

>  <rmsd>  (1) 
6.312567050501002

>  <m_score__min__rmsd>  (1) 
6.312567050501002

>  <meeko>  (1) 
{"free_energy": -5.46, "intermolecular_energy": -9.04, "internal_energy": -2.07, "cluster_size": 6, "cluster_id": 9, "rank_in_cluster": 1}

>  <energy>  (1) 
-6.67

>  <cluster_rmsd>  (1) 
0.0

>  <cluster>  (1) 
1

$$$$

     RDKit          3D

 55 58  0  0  0  0  0  0  0  0999 V2000
  141.4830   79.5020  217.8800 O   0  0  0  0  0  0  0  0  0  0  0  0
  142.0920   78.8760  218.7990 C   0  0  0  0  0  0  0  0  0  0  0  0
  142.1980   79.5510  220.0540 N   0  0  0  0  0  0  0  0  0  0  0  0
  141.5920   80.8750  220.1210 C   0  0  0  0  0  0  0  0  0  0  0  0
  141.1080   81.1810  221.4920 C   0  0  0  0  0  0  0  0  0  0  0  0
  141.4370   82.2640  222.0620 O   0  0  0  0  0  0  0  0  0  0  0  0
  140.2810   80.2370  222.1280 N   0  0  0  0  0  0  0  0  0  0  0  0
  140.3130   80.1440  223.5710 C   0  0  0  0  0  0  0  0  0  0  0  0
  138.9360   80.1790  224.1810 C   0  0  0  0  0  0  0  0  0  0  0  0
  138.0510   81.2460  223.5900 C   0  0  0  0  0  0  0  0  0  0  0  0
  138.0300   81.2720  222.0940 C   0  0  0  0  0  0  0  0  0  0  0  0
  138.0300   79.8960  221.4680 C   0  0  0  0  0  0  0  0  0  0  0  0
  139.4500   79.4260  221.2550 C   0  0  2  0  0  0  0  0  0  0  0  0
  139.5820   77.9770  221.5010 C   0  0  0  0  0  0  0  0  0  0  0  0
  138.4790   77.1440  221.5330 C   0  0  0  0  0  0  0  0  0  0  0  0
  138.6270   75.7760  221.7670 C   0  0  0  0  0  0  0  0  0  0  0  0
  139.8940   75.2270  221.9740 C   0  0  0  0  0  0  0  0  0  0  0  0
  140.0750   73.8680  222.2100 O   0  0  0  0  0  0  0  0  0  0  0  0
  141.0130   76.0650  221.9430 C   0  0  0  0  0  0  0  0  0  0  0  0
  140.8230   77.4120  221.7070 C   0  0  0  0  0  0  0  0  0  0  0  0
  142.6560   77.5460  218.6010 C   0  0  0  0  0  0  0  0  0  0  0  0
  142.7320   77.0760  217.3020 C   0  0  0  0  0  0  0  0  0  0  0  0
  143.2510   75.8240  216.9960 C   0  0  0  0  0  0  0  0  0  0  0  0
  143.6940   75.0570  218.0540 C   0  0  0  0  0  0  0  0  0  0  0  0
  144.2190   73.8090  217.8240 C   0  0  0  0  0  0  0  0  0  0  0  0
  144.6780   73.0000  218.8610 C   0  0  0  0  0  0  0  0  0  0  0  0
  145.3400   71.4190  218.5430 Cl  0  0  0  0  0  0  0  0  0  0  0  0
  144.5780   73.5200  220.1430 C   0  0  0  0  0  0  0  0  0  0  0  0
  144.0520   74.7730  220.3780 C   0  0  0  0  0  0  0  0  0  0  0  0
  143.6020   75.5600  219.3360 C   0  0  0  0  0  0  0  0  0  0  0  0
  143.0940   76.7800  219.6120 N   0  0  0  0  0  0  0  0  0  0  0  0
  142.6850   79.1100  220.8690 H   0  0  0  0  0  0  0  0  0  0  0  0
  142.3407   81.6264  219.8298 H   0  0  0  0  0  0  0  0  0  0  0  0
  140.7308   80.8965  219.4370 H   0  0  0  0  0  0  0  0  0  0  0  0
  140.8001   79.1989  223.8531 H   0  0  0  0  0  0  0  0  0  0  0  0
  140.8693   81.0139  223.9502 H   0  0  0  0  0  0  0  0  0  0  0  0
  138.4583   79.2010  224.0218 H   0  0  0  0  0  0  0  0  0  0  0  0
  139.0579   80.4107  225.2494 H   0  0  0  0  0  0  0  0  0  0  0  0
  137.0239   81.0772  223.9457 H   0  0  0  0  0  0  0  0  0  0  0  0
  138.4637   82.2124  223.9153 H   0  0  0  0  0  0  0  0  0  0  0  0
  137.1238   81.8033  221.7675 H   0  0  0  0  0  0  0  0  0  0  0  0
  138.9503   81.7773  221.7658 H   0  0  0  0  0  0  0  0  0  0  0  0
  137.5094   79.1925  222.1344 H   0  0  0  0  0  0  0  0  0  0  0  0
  137.5146   79.9406  220.4972 H   0  0  0  0  0  0  0  0  0  0  0  0
  139.7700   79.5554  220.2106 H   0  0  0  0  0  0  0  0  0  0  0  0
  137.4749   77.5635  221.3725 H   0  0  0  0  0  0  0  0  0  0  0  0
  137.7397   75.1262  221.7885 H   0  0  0  0  0  0  0  0  0  0  0  0
  139.5930   73.4130  222.9960 H   0  0  0  0  0  0  0  0  0  0  0  0
  142.0230   75.6597  222.1032 H   0  0  0  0  0  0  0  0  0  0  0  0
  141.7060   78.0675  221.6820 H   0  0  0  0  0  0  0  0  0  0  0  0
  142.3692   77.7152  216.4836 H   0  0  0  0  0  0  0  0  0  0  0  0
  143.3062   75.4613  215.9590 H   0  0  0  0  0  0  0  0  0  0  0  0
  144.2788   73.4372  216.7905 H   0  0  0  0  0  0  0  0  0  0  0  0
  144.9273   72.9173  220.9943 H   0  0  0  0  0  0  0  0  0  0  0  0
  143.9900   75.1507  221.4093 H   0  0  0  0  0  0  0  0  0  0  0  0
  1  2  2  0
  2  3  1  0
  3  4  1  0
  4  5  1  0
  5  6  2  0
  5  7  1  0
  7  8  1  0
  8  9  1  0
  9 10  1  0
 10 11  1  0
 11 12  1  0
 12 13  1  0
 13 14  1  0
 14 15  2  0
 15 16  1  0
 16 17  2  0
 17 18  1  0
 17 19  1  0
 19 20  2  0
  2 21  1  0
 21 22  2  0
 22 23  1  0
 23 24  2  0
 24 25  1  0
 25 26  2  0
 26 27  1  0
 26 28  1  0
 28 29  2  0
 29 30  1  0
 30 31  2  0
 13  7  1  0
 20 14  1  0
 31 21  1  0
 30 24  1  0
  3 32  1  0
  4 33  1  0
  4 34  1  0
  8 35  1  0
  8 36  1  0
  9 37  1  0
  9 38  1  0
 10 39  1  0
 10 40  1  0
 11 41  1  0
 11 42  1  0
 12 43  1  0
 12 44  1  0
 13 45  1  6
 15 46  1  0
 16 47  1  0
 18 48  1  0
 19 49  1  0
 20 50  1  0
 22 51  1  0
 23 52  1  0
 25 53  1  0
 28 54  1  0
 29 55  1  0
M  END
>  <smiles>  (2) 
O=C(NCC(=O)N1CCCCCC1c1ccc(O)cc1)c1ccc2cc(Cl)ccc2n1

>  <score_type>  (2) 
oracle

>  <origin>  (2) 
autodockgpu

>  <m_score__min__energy>  (2) 
-6.6699999999999999

>  <m_primary>  (2) 
energy

>  <rmsd>  (2) 
8.436275881539235

>  <m_score__min__rmsd>  (2) 
8.436275881539235

>  <meeko>  (2) 
{"free_energy": -4.87, "intermolecular_energy": -8.45, "internal_energy": -2.45, "cluster_size": 5, "cluster_id": 11, "rank_in_cluster": 4}

>  <energy>  (2) 
-6.12

>  <cluster_rmsd>  (2) 
0.95

>  <cluster>  (2) 
1

$$$$

     RDKit          3D

 55 58  0  0  0  0  0  0  0  0999 V2000
  140.6920   73.8770  222.0440 O   0  0  0  0  0  0  0  0  0  0  0  0
  140.3310   74.8750  221.3510 C   0  0  0  0  0  0  0  0  0  0  0  0
  140.3400   74.6900  219.9340 N   0  0  0  0  0  0  0  0  0  0  0  0
  140.7630   73.3780  219.4620 C   0  0  0  0  0  0  0  0  0  0  0  0
  141.6640   73.4890  218.2860 C   0  0  0  0  0  0  0  0  0  0  0  0
  141.2610   74.0420  217.2190 O   0  0  0  0  0  0  0  0  0  0  0  0
  142.9650   72.9660  218.3960 N   0  0  0  0  0  0  0  0  0  0  0  0
  143.1520   71.5360  218.2860 C   0  0  0  0  0  0  0  0  0  0  0  0
  144.0410   70.9870  219.3710 C   0  0  0  0  0  0  0  0  0  0  0  0
  143.6870   71.4950  220.7440 C   0  0  0  0  0  0  0  0  0  0  0  0
  143.4050   72.9640  220.8060 C   0  0  0  0  0  0  0  0  0  0  0  0
  144.4190   73.8070  220.0680 C   0  0  0  0  0  0  0  0  0  0  0  0
  144.0250   73.9350  218.6150 C   0  0  2  0  0  0  0  0  0  0  0  0
  143.6330   75.3180  218.2810 C   0  0  0  0  0  0  0  0  0  0  0  0
  143.6830   75.7910  216.9840 C   0  0  0  0  0  0  0  0  0  0  0  0
  143.3070   77.1030  216.6900 C   0  0  0  0  0  0  0  0  0  0  0  0
  142.8750   77.9590  217.7050 C   0  0  0  0  0  0  0  0  0  0  0  0
  142.4920   79.2710  217.4460 O   0  0  0  0  0  0  0  0  0  0  0  0
  142.8220   77.4840  219.0200 C   0  0  0  0  0  0  0  0  0  0  0  0
  143.2030   76.1800  219.2670 C   0  0  0  0  0  0  0  0  0  0  0  0
  139.9280   76.1420  221.9510 C   0  0  0  0  0  0  0  0  0  0  0  0
  140.9340   76.9860  222.3840 C   0  0  0  0  0  0  0  0  0  0  0  0
  140.6670   78.2180  222.9710 C   0  0  0  0  0  0  0  0  0  0  0  0
  139.3390   78.5690  223.1050 C   0  0  0  0  0  0  0  0  0  0  0  0
  139.0020   79.7710  223.6760 C   0  0  0  0  0  0  0  0  0  0  0  0
  137.6760   80.1680  223.8320 C   0  0  0  0  0  0  0  0  0  0  0  0
  137.2740   81.7000  224.5600 Cl  0  0  0  0  0  0  0  0  0  0  0  0
  136.7080   79.2820  223.3810 C   0  0  0  0  0  0  0  0  0  0  0  0
  137.0420   78.0740  222.8060 C   0  0  0  0  0  0  0  0  0  0  0  0
  138.3640   77.7000  222.6610 C   0  0  0  0  0  0  0  0  0  0  0  0
  138.6450   76.5070  222.0930 N   0  0  0  0  0  0  0  0  0  0  0  0
  140.0580   75.4610  219.2840 H   0  0  0  0  0  0  0  0  0  0  0  0
  141.2958   72.8605  220.2734 H   0  0  0  0  0  0  0  0  0  0  0  0
  139.8682   72.8138  219.1603 H   0  0  0  0  0  0  0  0  0  0  0  0
  142.1697   71.0453  218.3524 H   0  0  0  0  0  0  0  0  0  0  0  0
  143.6390   71.3352  217.3203 H   0  0  0  0  0  0  0  0  0  0  0  0
  143.9551   69.8904  219.3714 H   0  0  0  0  0  0  0  0  0  0  0  0
  145.0659   71.3219  219.1535 H   0  0  0  0  0  0  0  0  0  0  0  0
  142.7913   70.9578  221.0893 H   0  0  0  0  0  0  0  0  0  0  0  0
  144.5659   71.3168  221.3810 H   0  0  0  0  0  0  0  0  0  0  0  0
  142.4140   73.1467  220.3649 H   0  0  0  0  0  0  0  0  0  0  0  0
  143.4522   73.2568  221.8653 H   0  0  0  0  0  0  0  0  0  0  0  0
  144.4616   74.8074  220.5234 H   0  0  0  0  0  0  0  0  0  0  0  0
  145.4056   73.3250  220.1335 H   0  0  0  0  0  0  0  0  0  0  0  0
  144.8693   73.7218  217.9430 H   0  0  0  0  0  0  0  0  0  0  0  0
  144.0224   75.1274  216.1750 H   0  0  0  0  0  0  0  0  0  0  0  0
  143.3514   77.4647  215.6521 H   0  0  0  0  0  0  0  0  0  0  0  0
  143.1030   79.8840  216.8900 H   0  0  0  0  0  0  0  0  0  0  0  0
  142.4841   78.1354  219.8395 H   0  0  0  0  0  0  0  0  0  0  0  0
  143.1613   75.8106  220.3023 H   0  0  0  0  0  0  0  0  0  0  0  0
  141.9810   76.6722  222.2599 H   0  0  0  0  0  0  0  0  0  0  0  0
  141.4756   78.8811  223.3122 H   0  0  0  0  0  0  0  0  0  0  0  0
  139.8034   80.4410  224.0208 H   0  0  0  0  0  0  0  0  0  0  0  0
  135.6463   79.5503  223.4849 H   0  0  0  0  0  0  0  0  0  0  0  0
  136.2457   77.3995  222.4583 H   0  0  0  0  0  0  0  0  0  0  0  0
  1  2  2  0
  2  3  1  0
  3  4  1  0
  4  5  1  0
  5  6  2  0
  5  7  1  0
  7  8  1  0
  8  9  1  0
  9 10  1  0
 10 11  1  0
 11 12  1  0
 12 13  1  0
 13 14  1  0
 14 15  2  0
 15 16  1  0
 16 17  2  0
 17 18  1  0
 17 19  1  0
 19 20  2  0
  2 21  1  0
 21 22  2  0
 22 23  1  0
 23 24  2  0
 24 25  1  0
 25 26  2  0
 26 27  1  0
 26 28  1  0
 28 29  2  0
 29 30  1  0
 30 31  2  0
 13  7  1  0
 20 14  1  0
 31 21  1  0
 30 24  1  0
  3 32  1  0
  4 33  1  0
  4 34  1  0
  8 35  1  0
  8 36  1  0
  9 37  1  0
  9 38  1  0
 10 39  1  0
 10 40  1  0
 11 41  1  0
 11 42  1  0
 12 43  1  0
 12 44  1  0
 13 45  1  6
 15 46  1  0
 16 47  1  0
 18 48  1  0
 19 49  1  0
 20 50  1  0
 22 51  1  0
 23 52  1  0
 25 53  1  0
 28 54  1  0
 29 55  1  0
M  END
>  <smiles>  (3) 
O=C(NCC(=O)N1CCCCCC1c1ccc(O)cc1)c1ccc2cc(Cl)ccc2n1

>  <score_type>  (3) 
oracle

>  <origin>  (3) 
autodockgpu

>  <m_score__min__energy>  (3) 
-6.6699999999999999

>  <m_primary>  (3) 
energy

>  <rmsd>  (3) 
7.280549817687637

>  <m_score__min__rmsd>  (3) 
7.280549817687637

>  <meeko>  (3) 
{"free_energy": -4.5, "intermolecular_energy": -8.07, "internal_energy": -2.02, "cluster_size": 1, "cluster_id": 15, "rank_in_cluster": 1}

>  <energy>  (3) 
-6.04

>  <cluster_rmsd>  (3) 
1.18

>  <cluster>  (3) 
1

$$$$

     RDKit          3D

 55 58  0  0  0  0  0  0  0  0999 V2000
  140.0080   72.3670  220.7830 O   0  0  0  0  0  0  0  0  0  0  0  0
  139.8780   72.7480  221.9840 C   0  0  0  0  0  0  0  0  0  0  0  0
  139.6320   74.1430  222.1770 N   0  0  0  0  0  0  0  0  0  0  0  0
  139.5610   74.9530  220.9670 C   0  0  0  0  0  0  0  0  0  0  0  0
  140.4480   76.1410  221.0580 C   0  0  0  0  0  0  0  0  0  0  0  0
  140.7470   76.6340  222.1870 O   0  0  0  0  0  0  0  0  0  0  0  0
  140.9390   76.6940  219.8610 N   0  0  0  0  0  0  0  0  0  0  0  0
  139.9980   77.2370  218.9070 C   0  0  0  0  0  0  0  0  0  0  0  0
  140.0110   78.7420  218.8790 C   0  0  0  0  0  0  0  0  0  0  0  0
  141.1450   79.3120  218.0670 C   0  0  0  0  0  0  0  0  0  0  0  0
  142.5000   78.8140  218.4610 C   0  0  0  0  0  0  0  0  0  0  0  0
  142.6610   77.3160  218.3560 C   0  0  0  0  0  0  0  0  0  0  0  0
  142.3820   76.6680  219.6920 C   0  0  2  0  0  0  0  0  0  0  0  0
  142.9570   75.3110  219.7650 C   0  0  0  0  0  0  0  0  0  0  0  0
  142.2540   74.2030  219.3320 C   0  0  0  0  0  0  0  0  0  0  0  0
  142.8170   72.9280  219.4090 C   0  0  0  0  0  0  0  0  0  0  0  0
  144.1010   72.7520  219.9280 C   0  0  0  0  0  0  0  0  0  0  0  0
  144.6910   71.4960  220.0180 O   0  0  0  0  0  0  0  0  0  0  0  0
  144.8170   73.8710  220.3670 C   0  0  0  0  0  0  0  0  0  0  0  0
  144.2240   75.1140  220.2730 C   0  0  0  0  0  0  0  0  0  0  0  0
  139.9710   71.8290  223.1130 C   0  0  0  0  0  0  0  0  0  0  0  0
  139.5220   70.5370  222.9170 C   0  0  0  0  0  0  0  0  0  0  0  0
  139.5630   69.5770  223.9220 C   0  0  0  0  0  0  0  0  0  0  0  0
  140.0780   69.9720  225.1400 C   0  0  0  0  0  0  0  0  0  0  0  0
  140.1480   69.0750  226.1780 C   0  0  0  0  0  0  0  0  0  0  0  0
  140.6600   69.4280  227.4240 C   0  0  0  0  0  0  0  0  0  0  0  0
  140.7390   68.2720  228.7250 Cl  0  0  0  0  0  0  0  0  0  0  0  0
  141.0960   70.7380  227.5650 C   0  0  0  0  0  0  0  0  0  0  0  0
  141.0280   71.6410  226.5250 C   0  0  0  0  0  0  0  0  0  0  0  0
  140.5160   71.2710  225.2970 C   0  0  0  0  0  0  0  0  0  0  0  0
  140.4680   72.1870  224.3080 N   0  0  0  0  0  0  0  0  0  0  0  0
  139.5120   74.5460  223.1350 H   0  0  0  0  0  0  0  0  0  0  0  0
  139.8703   74.3403  220.1074 H   0  0  0  0  0  0  0  0  0  0  0  0
  138.5253   75.3025  220.8443 H   0  0  0  0  0  0  0  0  0  0  0  0
  140.2556   76.8631  217.9051 H   0  0  0  0  0  0  0  0  0  0  0  0
  138.9906   76.9165  219.2109 H   0  0  0  0  0  0  0  0  0  0  0  0
  139.0617   79.0916  218.4470 H   0  0  0  0  0  0  0  0  0  0  0  0
  140.1460   79.0865  219.9149 H   0  0  0  0  0  0  0  0  0  0  0  0
  140.9767   79.0521  217.0115 H   0  0  0  0  0  0  0  0  0  0  0  0
  141.1452   80.3971  218.2473 H   0  0  0  0  0  0  0  0  0  0  0  0
  143.2461   79.2883  217.8065 H   0  0  0  0  0  0  0  0  0  0  0  0
  142.6378   79.0743  219.5208 H   0  0  0  0  0  0  0  0  0  0  0  0
  141.9550   76.9259  217.6081 H   0  0  0  0  0  0  0  0  0  0  0  0
  143.6930   77.0856  218.0531 H   0  0  0  0  0  0  0  0  0  0  0  0
  142.8635   77.2117  220.5182 H   0  0  0  0  0  0  0  0  0  0  0  0
  141.2406   74.3269  218.9225 H   0  0  0  0  0  0  0  0  0  0  0  0
  142.2452   72.0562  219.0584 H   0  0  0  0  0  0  0  0  0  0  0  0
  144.7810   71.0340  220.9330 H   0  0  0  0  0  0  0  0  0  0  0  0
  145.8313   73.7625  220.7785 H   0  0  0  0  0  0  0  0  0  0  0  0
  144.7900   75.9908  220.6205 H   0  0  0  0  0  0  0  0  0  0  0  0
  139.1184   70.2585  221.9324 H   0  0  0  0  0  0  0  0  0  0  0  0
  139.2021   68.5515  223.7543 H   0  0  0  0  0  0  0  0  0  0  0  0
  139.7889   68.0473  226.0203 H   0  0  0  0  0  0  0  0  0  0  0  0
  141.5066   71.0646  228.5318 H   0  0  0  0  0  0  0  0  0  0  0  0
  141.3865   72.6700  226.6756 H   0  0  0  0  0  0  0  0  0  0  0  0
  1  2  2  0
  2  3  1  0
  3  4  1  0
  4  5  1  0
  5  6  2  0
  5  7  1  0
  7  8  1  0
  8  9  1  0
  9 10  1  0
 10 11  1  0
 11 12  1  0
 12 13  1  0
 13 14  1  0
 14 15  2  0
 15 16  1  0
 16 17  2  0
 17 18  1  0
 17 19  1  0
 19 20  2  0
  2 21  1  0
 21 22  2  0
 22 23  1  0
 23 24  2  0
 24 25  1  0
 25 26  2  0
 26 27  1  0
 26 28  1  0
 28 29  2  0
 29 30  1  0
 30 31  2  0
 13  7  1  0
 20 14  1  0
 31 21  1  0
 30 24  1  0
  3 32  1  0
  4 33  1  0
  4 34  1  0
  8 35  1  0
  8 36  1  0
  9 37  1  0
  9 38  1  0
 10 39  1  0
 10 40  1  0
 11 41  1  0
 11 42  1  0
 12 43  1  0
 12 44  1  0
 13 45  1  1
 15 46  1  0
 16 47  1  0
 18 48  1  0
 19 49  1  0
 20 50  1  0
 22 51  1  0
 23 52  1  0
 25 53  1  0
 28 54  1  0
 29 55  1  0
M  END
>  <smiles>  (4) 
O=C(NCC(=O)N1CCCCCC1c1ccc(O)cc1)c1ccc2cc(Cl)ccc2n1

>  <score_type>  (4) 
oracle

>  <origin>  (4) 
autodockgpu

>  <m_score__min__energy>  (4) 
-6.6699999999999999

>  <m_primary>  (4) 
energy

>  <rmsd>  (4) 
1.9232121149651098

>  <m_score__min__rmsd>  (4) 
1.9232121149651098

>  <meeko>  (4) 
{"free_energy": -5.45, "intermolecular_energy": -9.03, "internal_energy": -1.95, "cluster_size": 2, "cluster_id": 10, "rank_in_cluster": 1}

>  <energy>  (4) 
-5.96

>  <cluster_rmsd>  (4) 
1.47

>  <cluster>  (4) 
1

$$$$

     RDKit          3D

 55 58  0  0  0  0  0  0  0  0999 V2000
  141.5120   72.6120  221.1380 O   0  0  0  0  0  0  0  0  0  0  0  0
  140.9070   73.5040  221.8050 C   0  0  0  0  0  0  0  0  0  0  0  0
  140.0270   73.0330  222.8280 N   0  0  0  0  0  0  0  0  0  0  0  0
  139.9340   71.5870  222.9760 C   0  0  0  0  0  0  0  0  0  0  0  0
  138.9660   71.2120  224.0390 C   0  0  0  0  0  0  0  0  0  0  0  0
  137.7520   71.5680  223.9570 O   0  0  0  0  0  0  0  0  0  0  0  0
  139.4380   70.4570  225.1290 N   0  0  0  0  0  0  0  0  0  0  0  0
  140.4830   71.0120  225.9600 C   0  0  0  0  0  0  0  0  0  0  0  0
  140.2460   70.7600  227.4260 C   0  0  0  0  0  0  0  0  0  0  0  0
  140.7300   69.4080  227.8830 C   0  0  0  0  0  0  0  0  0  0  0  0
  139.9620   68.2540  227.3200 C   0  0  0  0  0  0  0  0  0  0  0  0
  139.9090   68.2350  225.8050 C   0  0  0  0  0  0  0  0  0  0  0  0
  138.8150   69.1580  225.3210 C   0  0  2  0  0  0  0  0  0  0  0  0
  138.1650   68.6340  224.1050 C   0  0  0  0  0  0  0  0  0  0  0  0
  136.8390   68.8980  223.8210 C   0  0  0  0  0  0  0  0  0  0  0  0
  136.2450   68.3920  222.6630 C   0  0  0  0  0  0  0  0  0  0  0  0
  136.9820   67.6080  221.7740 C   0  0  0  0  0  0  0  0  0  0  0  0
  136.4200   67.0900  220.6120 O   0  0  0  0  0  0  0  0  0  0  0  0
  138.3250   67.3380  222.0570 C   0  0  0  0  0  0  0  0  0  0  0  0
  138.8740   67.8580  223.2120 C   0  0  0  0  0  0  0  0  0  0  0  0
  141.0900   74.9290  221.5550 C   0  0  0  0  0  0  0  0  0  0  0  0
  141.8460   75.2880  220.4540 C   0  0  0  0  0  0  0  0  0  0  0  0
  142.0850   76.6160  220.1200 C   0  0  0  0  0  0  0  0  0  0  0  0
  141.5310   77.5750  220.9420 C   0  0  0  0  0  0  0  0  0  0  0  0
  141.7270   78.9070  220.6710 C   0  0  0  0  0  0  0  0  0  0  0  0
  141.1870   79.9100  221.4720 C   0  0  0  0  0  0  0  0  0  0  0  0
  141.4500   81.5940  221.1070 Cl  0  0  0  0  0  0  0  0  0  0  0  0
  140.4380   79.4940  222.5640 C   0  0  0  0  0  0  0  0  0  0  0  0
  140.2380   78.1570  222.8390 C   0  0  0  0  0  0  0  0  0  0  0  0
  140.7830   77.1780  222.0310 C   0  0  0  0  0  0  0  0  0  0  0  0
  140.5620   75.8820  222.3390 N   0  0  0  0  0  0  0  0  0  0  0  0
  139.4860   73.7000  223.4280 H   0  0  0  0  0  0  0  0  0  0  0  0
  139.6047   71.1500  222.0217 H   0  0  0  0  0  0  0  0  0  0  0  0
  140.9253   71.2035  223.2595 H   0  0  0  0  0  0  0  0  0  0  0  0
  141.4419   70.5554  225.6736 H   0  0  0  0  0  0  0  0  0  0  0  0
  140.4924   72.1009  225.8043 H   0  0  0  0  0  0  0  0  0  0  0  0
  140.7737   71.5335  228.0032 H   0  0  0  0  0  0  0  0  0  0  0  0
  139.1588   70.7903  227.5908 H   0  0  0  0  0  0  0  0  0  0  0  0
  141.7827   69.2999  227.5829 H   0  0  0  0  0  0  0  0  0  0  0  0
  140.5897   69.3764  228.9736 H   0  0  0  0  0  0  0  0  0  0  0  0
  140.4359   67.3221  227.6621 H   0  0  0  0  0  0  0  0  0  0  0  0
  138.9259   68.3547  227.6756 H   0  0  0  0  0  0  0  0  0  0  0  0
  140.8756   68.5707  225.4013 H   0  0  0  0  0  0  0  0  0  0  0  0
  139.6999   67.2113  225.4611 H   0  0  0  0  0  0  0  0  0  0  0  0
  137.9971   69.2411  226.0518 H   0  0  0  0  0  0  0  0  0  0  0  0
  136.2455   69.5127  224.5137 H   0  0  0  0  0  0  0  0  0  0  0  0
  135.1887   68.6128  222.4499 H   0  0  0  0  0  0  0  0  0  0  0  0
  137.0200   66.6550  219.8990 H   0  0  0  0  0  0  0  0  0  0  0  0
  138.9307   66.7245  221.3739 H   0  0  0  0  0  0  0  0  0  0  0  0
  139.9302   67.6426  223.4312 H   0  0  0  0  0  0  0  0  0  0  0  0
  142.2726   74.4958  219.8212 H   0  0  0  0  0  0  0  0  0  0  0  0
  142.6877   76.8892  219.2413 H   0  0  0  0  0  0  0  0  0  0  0  0
  142.3287   79.1901  219.7948 H   0  0  0  0  0  0  0  0  0  0  0  0
  139.9924   80.2499  223.2273 H   0  0  0  0  0  0  0  0  0  0  0  0
  139.6367   77.8667  223.7131 H   0  0  0  0  0  0  0  0  0  0  0  0
  1  2  2  0
  2  3  1  0
  3  4  1  0
  4  5  1  0
  5  6  2  0
  5  7  1  0
  7  8  1  0
  8  9  1  0
  9 10  1  0
 10 11  1  0
 11 12  1  0
 12 13  1  0
 13 14  1  0
 14 15  2  0
 15 16  1  0
 16 17  2  0
 17 18  1  0
 17 19  1  0
 19 20  2  0
  2 21  1  0
 21 22  2  0
 22 23  1  0
 23 24  2  0
 24 25  1  0
 25 26  2  0
 26 27  1  0
 26 28  1  0
 28 29  2  0
 29 30  1  0
 30 31  2  0
 13  7  1  0
 20 14  1  0
 31 21  1  0
 30 24  1  0
  3 32  1  0
  4 33  1  0
  4 34  1  0
  8 35  1  0
  8 36  1  0
  9 37  1  0
  9 38  1  0
 10 39  1  0
 10 40  1  0
 11 41  1  0
 11 42  1  0
 12 43  1  0
 12 44  1  0
 13 45  1  1
 15 46  1  0
 16 47  1  0
 18 48  1  0
 19 49  1  0
 20 50  1  0
 22 51  1  0
 23 52  1  0
 25 53  1  0
 28 54  1  0
 29 55  1  0
M  END
>  <smiles>  (5) 
O=C(NCC(=O)N1CCCCCC1c1ccc(O)cc1)c1ccc2cc(Cl)ccc2n1

>  <score_type>  (5) 
oracle

>  <origin>  (5) 
autodockgpu

>  <m_score__min__energy>  (5) 
-6.6699999999999999

>  <m_primary>  (5) 
energy

>  <rmsd>  (5) 
8.784464711485104

>  <m_score__min__rmsd>  (5) 
8.784464711485104

>  <meeko>  (5) 
{"free_energy": -5.46, "intermolecular_energy": -9.04, "internal_energy": -1.52, "cluster_size": 2, "cluster_id": 8, "rank_in_cluster": 1}

>  <energy>  (5) 
-5.71

>  <cluster_rmsd>  (5) 
1.99

>  <cluster>  (5) 
1

$$$$

     RDKit          3D

 55 58  0  0  0  0  0  0  0  0999 V2000
  139.9160   74.1110  222.1010 O   0  0  0  0  0  0  0  0  0  0  0  0
  140.1860   72.8820  221.9540 C   0  0  0  0  0  0  0  0  0  0  0  0
  140.5360   72.4700  220.6310 N   0  0  0  0  0  0  0  0  0  0  0  0
  140.5390   73.5150  219.6150 C   0  0  0  0  0  0  0  0  0  0  0  0
  141.6380   73.3140  218.6350 C   0  0  0  0  0  0  0  0  0  0  0  0
  141.4370   73.5020  217.3980 O   0  0  0  0  0  0  0  0  0  0  0  0
  142.8960   72.9140  219.1230 N   0  0  0  0  0  0  0  0  0  0  0  0
  143.0530   71.5660  219.6210 C   0  0  0  0  0  0  0  0  0  0  0  0
  144.4250   71.0080  219.3500 C   0  0  0  0  0  0  0  0  0  0  0  0
  145.5370   71.9200  219.8000 C   0  0  0  0  0  0  0  0  0  0  0  0
  145.1720   72.8280  220.9310 C   0  0  0  0  0  0  0  0  0  0  0  0
  144.4390   74.0750  220.4970 C   0  0  0  0  0  0  0  0  0  0  0  0
  143.9460   73.9180  219.0770 C   0  0  2  0  0  0  0  0  0  0  0  0
  143.4990   75.2080  218.5150 C   0  0  0  0  0  0  0  0  0  0  0  0
  143.6300   75.4950  217.1700 C   0  0  0  0  0  0  0  0  0  0  0  0
  143.2010   76.7210  216.6590 C   0  0  0  0  0  0  0  0  0  0  0  0
  142.6320   77.6780  217.5020 C   0  0  0  0  0  0  0  0  0  0  0  0
  142.1940   78.9090  217.0250 O   0  0  0  0  0  0  0  0  0  0  0  0
  142.4980   77.3920  218.8650 C   0  0  0  0  0  0  0  0  0  0  0  0
  142.9350   76.1680  219.3280 C   0  0  0  0  0  0  0  0  0  0  0  0
  140.1450   71.9330  223.0610 C   0  0  0  0  0  0  0  0  0  0  0  0
  139.6170   70.6810  222.8030 C   0  0  0  0  0  0  0  0  0  0  0  0
  139.5280   69.6980  223.7820 C   0  0  0  0  0  0  0  0  0  0  0  0
  139.9950   70.0270  225.0390 C   0  0  0  0  0  0  0  0  0  0  0  0
  139.9380   69.1040  226.0550 C   0  0  0  0  0  0  0  0  0  0  0  0
  140.3960   69.3900  227.3380 C   0  0  0  0  0  0  0  0  0  0  0  0
  140.3130   68.2020  228.6100 Cl  0  0  0  0  0  0  0  0  0  0  0  0
  140.9150   70.6620  227.5400 C   0  0  0  0  0  0  0  0  0  0  0  0
  140.9740   71.5910  226.5230 C   0  0  0  0  0  0  0  0  0  0  0  0
  140.5140   71.2860  225.2570 C   0  0  0  0  0  0  0  0  0  0  0  0
  140.5910   72.2270  224.2920 N   0  0  0  0  0  0  0  0  0  0  0  0
  140.7720   71.4720  220.4180 H   0  0  0  0  0  0  0  0  0  0  0  0
  139.5768   73.4992  219.0822 H   0  0  0  0  0  0  0  0  0  0  0  0
  140.6924   74.4832  220.1141 H   0  0  0  0  0  0  0  0  0  0  0  0
  142.8816   71.5690  220.7076 H   0  0  0  0  0  0  0  0  0  0  0  0
  142.3238   70.9293  219.0986 H   0  0  0  0  0  0  0  0  0  0  0  0
  144.5233   70.0492  219.8801 H   0  0  0  0  0  0  0  0  0  0  0  0
  144.5202   70.8899  218.2605 H   0  0  0  0  0  0  0  0  0  0  0  0
  146.3852   71.2966  220.1193 H   0  0  0  0  0  0  0  0  0  0  0  0
  145.7785   72.5668  218.9436 H   0  0  0  0  0  0  0  0  0  0  0  0
  144.5284   72.2721  221.6287 H   0  0  0  0  0  0  0  0  0  0  0  0
  146.1132   73.1546  221.3972 H   0  0  0  0  0  0  0  0  0  0  0  0
  143.5806   74.2435  221.1639 H   0  0  0  0  0  0  0  0  0  0  0  0
  145.1255   74.9330  220.5477 H   0  0  0  0  0  0  0  0  0  0  0  0
  144.7478   73.5889  218.3996 H   0  0  0  0  0  0  0  0  0  0  0  0
  144.0768   74.7500  216.4952 H   0  0  0  0  0  0  0  0  0  0  0  0
  143.3118   76.9347  215.5857 H   0  0  0  0  0  0  0  0  0  0  0  0
  142.8710   79.5850  216.6460 H   0  0  0  0  0  0  0  0  0  0  0  0
  142.0539   78.1270  219.5525 H   0  0  0  0  0  0  0  0  0  0  0  0
  142.8280   75.9469  220.4002 H   0  0  0  0  0  0  0  0  0  0  0  0
  139.2553   70.4554  221.7890 H   0  0  0  0  0  0  0  0  0  0  0  0
  139.1057   68.7056  223.5656 H   0  0  0  0  0  0  0  0  0  0  0  0
  139.5177   68.1087  225.8483 H   0  0  0  0  0  0  0  0  0  0  0  0
  141.2889   70.9356  228.5377 H   0  0  0  0  0  0  0  0  0  0  0  0
  141.3930   72.5883  226.7226 H   0  0  0  0  0  0  0  0  0  0  0  0
  1  2  2  0
  2  3  1  0
  3  4  1  0
  4  5  1  0
  5  6  2  0
  5  7  1  0
  7  8  1  0
  8  9  1  0
  9 10  1  0
 10 11  1  0
 11 12  1  0
 12 13  1  0
 13 14  1  0
 14 15  2  0
 15 16  1  0
 16 17  2  0
 17 18  1  0
 17 19  1  0
 19 20  2  0
  2 21  1  0
 21 22  2  0
 22 23  1  0
 23 24  2  0
 24 25  1  0
 25 26  2  0
 26 27  1  0
 26 28  1  0
 28 29  2  0
 29 30  1  0
 30 31  2  0
 13  7  1  0
 20 14  1  0
 31 21  1  0
 30 24  1  0
  3 32  1  0
  4 33  1  0
  4 34  1  0
  8 35  1  0
  8 36  1  0
  9 37  1  0
  9 38  1  0
 10 39  1  0
 10 40  1  0
 11 41  1  0
 11 42  1  0
 12 43  1  0
 12 44  1  0
 13 45  1  6
 15 46  1  0
 16 47  1  0
 18 48  1  0
 19 49  1  0
 20 50  1  0
 22 51  1  0
 23 52  1  0
 25 53  1  0
 28 54  1  0
 29 55  1  0
M  END
>  <smiles>  (6) 
O=C(NCC(=O)N1CCCCCC1c1ccc(O)cc1)c1ccc2cc(Cl)ccc2n1

>  <score_type>  (6) 
oracle

>  <origin>  (6) 
autodockgpu

>  <m_score__min__energy>  (6) 
-6.6699999999999999

>  <m_primary>  (6) 
energy

>  <rmsd>  (6) 
3.6729963910375067

>  <m_score__min__rmsd>  (6) 
3.6729963910375067

>  <meeko>  (6) 
{"free_energy": -5.74, "intermolecular_energy": -9.32, "internal_energy": -1.61, "cluster_size": 1, "cluster_id": 5, "rank_in_cluster": 1}

>  <energy>  (6) 
-5.15

>  <cluster_rmsd>  (6) 
1.75

>  <cluster>  (6) 
1

$$$$

     RDKit          3D

 55 58  0  0  0  0  0  0  0  0999 V2000
  139.6260   72.3130  220.4620 O   0  0  0  0  0  0  0  0  0  0  0  0
  139.2260   72.6680  221.6120 C   0  0  0  0  0  0  0  0  0  0  0  0
  138.5720   73.9360  221.6840 N   0  0  0  0  0  0  0  0  0  0  0  0
  138.4460   74.6640  220.4280 C   0  0  0  0  0  0  0  0  0  0  0  0
  138.9440   76.0580  220.5570 C   0  0  0  0  0  0  0  0  0  0  0  0
  139.0930   76.7830  219.5280 O   0  0  0  0  0  0  0  0  0  0  0  0
  139.2390   76.5390  221.8450 N   0  0  0  0  0  0  0  0  0  0  0  0
  138.1680   77.0900  222.6450 C   0  0  0  0  0  0  0  0  0  0  0  0
  138.4060   78.5310  223.0120 C   0  0  0  0  0  0  0  0  0  0  0  0
  139.1530   79.2980  221.9530 C   0  0  0  0  0  0  0  0  0  0  0  0
  140.5700   78.8590  221.7560 C   0  0  0  0  0  0  0  0  0  0  0  0
  141.0250   77.8100  222.7470 C   0  0  0  0  0  0  0  0  0  0  0  0
  140.6280   76.4350  222.2610 C   0  0  2  0  0  0  0  0  0  0  0  0
  141.5260   75.9590  221.1920 C   0  0  0  0  0  0  0  0  0  0  0  0
  142.0660   76.8260  220.2610 C   0  0  0  0  0  0  0  0  0  0  0  0
  142.9140   76.3540  219.2580 C   0  0  0  0  0  0  0  0  0  0  0  0
  143.2300   74.9960  219.1790 C   0  0  0  0  0  0  0  0  0  0  0  0
  144.0720   74.4940  218.1920 O   0  0  0  0  0  0  0  0  0  0  0  0
  142.6850   74.1140  220.1190 C   0  0  0  0  0  0  0  0  0  0  0  0
  141.8520   74.6230  221.0950 C   0  0  0  0  0  0  0  0  0  0  0  0
  139.4160   71.8400  222.7980 C   0  0  0  0  0  0  0  0  0  0  0  0
  138.7760   70.6150  222.8250 C   0  0  0  0  0  0  0  0  0  0  0  0
  138.8860   69.7450  223.9040 C   0  0  0  0  0  0  0  0  0  0  0  0
  139.6710   70.1590  224.9610 C   0  0  0  0  0  0  0  0  0  0  0  0
  139.8240   69.3500  226.0600 C   0  0  0  0  0  0  0  0  0  0  0  0
  140.6060   69.7250  227.1490 C   0  0  0  0  0  0  0  0  0  0  0  0
  140.7840   68.6800  228.5320 Cl  0  0  0  0  0  0  0  0  0  0  0  0
  141.2240   70.9650  227.0690 C   0  0  0  0  0  0  0  0  0  0  0  0
  141.0730   71.7810  225.9670 C   0  0  0  0  0  0  0  0  0  0  0  0
  140.2930   71.3890  224.8960 C   0  0  0  0  0  0  0  0  0  0  0  0
  140.1730   72.2190  223.8390 N   0  0  0  0  0  0  0  0  0  0  0  0
  138.2100   74.3090  222.5930 H   0  0  0  0  0  0  0  0  0  0  0  0
  139.0303   74.1454  219.6536 H   0  0  0  0  0  0  0  0  0  0  0  0
  137.3812   74.7007  220.1545 H   0  0  0  0  0  0  0  0  0  0  0  0
  137.2301   77.0214  222.0744 H   0  0  0  0  0  0  0  0  0  0  0  0
  138.1160   76.5111  223.5789 H   0  0  0  0  0  0  0  0  0  0  0  0
  137.4320   79.0160  223.1732 H   0  0  0  0  0  0  0  0  0  0  0  0
  139.0270   78.5385  223.9199 H   0  0  0  0  0  0  0  0  0  0  0  0
  138.6192   79.1762  220.9989 H   0  0  0  0  0  0  0  0  0  0  0  0
  139.1924   80.3438  222.2916 H   0  0  0  0  0  0  0  0  0  0  0  0
  140.6673   78.4441  220.7419 H   0  0  0  0  0  0  0  0  0  0  0  0
  141.2051   79.7438  221.9101 H   0  0  0  0  0  0  0  0  0  0  0  0
  142.1189   77.8578  222.8519 H   0  0  0  0  0  0  0  0  0  0  0  0
  140.5489   78.0011  223.7200 H   0  0  0  0  0  0  0  0  0  0  0  0
  140.7246   75.6781  223.0533 H   0  0  0  0  0  0  0  0  0  0  0  0
  141.8252   77.8981  220.3110 H   0  0  0  0  0  0  0  0  0  0  0  0
  143.3364   77.0566  218.5246 H   0  0  0  0  0  0  0  0  0  0  0  0
  144.8640   75.0570  217.8560 H   0  0  0  0  0  0  0  0  0  0  0  0
  142.9153   73.0390  220.0810 H   0  0  0  0  0  0  0  0  0  0  0  0
  141.4266   73.9271  221.8330 H   0  0  0  0  0  0  0  0  0  0  0  0
  138.1590   70.3186  221.9639 H   0  0  0  0  0  0  0  0  0  0  0  0
  138.3717   68.7727  223.9147 H   0  0  0  0  0  0  0  0  0  0  0  0
  139.3131   68.3760  226.0805 H   0  0  0  0  0  0  0  0  0  0  0  0
  141.8507   71.3061  227.9062 H   0  0  0  0  0  0  0  0  0  0  0  0
  141.5803   72.7567  225.9406 H   0  0  0  0  0  0  0  0  0  0  0  0
  1  2  2  0
  2  3  1  0
  3  4  1  0
  4  5  1  0
  5  6  2  0
  5  7  1  0
  7  8  1  0
  8  9  1  0
  9 10  1  0
 10 11  1  0
 11 12  1  0
 12 13  1  0
 13 14  1  0
 14 15  2  0
 15 16  1  0
 16 17  2  0
 17 18  1  0
 17 19  1  0
 19 20  2  0
  2 21  1  0
 21 22  2  0
 22 23  1  0
 23 24  2  0
 24 25  1  0
 25 26  2  0
 26 27  1  0
 26 28  1  0
 28 29  2  0
 29 30  1  0
 30 31  2  0
 13  7  1  0
 20 14  1  0
 31 21  1  0
 30 24  1  0
  3 32  1  0
  4 33  1  0
  4 34  1  0
  8 35  1  0
  8 36  1  0
  9 37  1  0
  9 38  1  0
 10 39  1  0
 10 40  1  0
 11 41  1  0
 11 42  1  0
 12 43  1  0
 12 44  1  0
 13 45  1  1
 15 46  1  0
 16 47  1  0
 18 48  1  0
 19 49  1  0
 20 50  1  0
 22 51  1  0
 23 52  1  0
 25 53  1  0
 28 54  1  0
 29 55  1  0
M  END
>  <smiles>  (7) 
O=C(NCC(=O)N1CCCCCC1c1ccc(O)cc1)c1ccc2cc(Cl)ccc2n1

>  <score_type>  (7) 
oracle

>  <origin>  (7) 
autodockgpu

>  <m_score__min__energy>  (7) 
-6.6699999999999999

>  <m_primary>  (7) 
energy

>  <rmsd>  (7) 
3.173199634797423

>  <m_score__min__rmsd>  (7) 
3.173199634797423

>  <meeko>  (7) 
{"free_energy": -6.05, "intermolecular_energy": -9.63, "internal_energy": -1.9, "cluster_size": 12, "cluster_id": 2, "rank_in_cluster": 4}

>  <energy>  (7) 
-6.34

>  <cluster_rmsd>  (7) 
0.0

>  <cluster>  (7) 
2

$$$$

     RDKit          3D

 55 58  0  0  0  0  0  0  0  0999 V2000
  141.5060   72.5350  221.0380 O   0  0  0  0  0  0  0  0  0  0  0  0
  140.9370   73.4130  221.7520 C   0  0  0  0  0  0  0  0  0  0  0  0
  140.0870   72.9230  222.7920 N   0  0  0  0  0  0  0  0  0  0  0  0
  139.9810   71.4740  222.9010 C   0  0  0  0  0  0  0  0  0  0  0  0
  139.1400   71.0780  224.0600 C   0  0  0  0  0  0  0  0  0  0  0  0
  137.9620   71.5280  224.1810 O   0  0  0  0  0  0  0  0  0  0  0  0
  139.6910   70.1960  225.0080 N   0  0  0  0  0  0  0  0  0  0  0  0
  140.9410   70.5500  225.6450 C   0  0  0  0  0  0  0  0  0  0  0  0
  140.8180   70.6360  227.1430 C   0  0  0  0  0  0  0  0  0  0  0  0
  139.8970   69.5960  227.7260 C   0  0  0  0  0  0  0  0  0  0  0  0
  140.1740   68.1990  227.2670 C   0  0  0  0  0  0  0  0  0  0  0  0
  139.9260   67.9710  225.7900 C   0  0  0  0  0  0  0  0  0  0  0  0
  138.9340   68.9830  225.2650 C   0  0  2  0  0  0  0  0  0  0  0  0
  138.2210   68.4740  224.0770 C   0  0  0  0  0  0  0  0  0  0  0  0
  136.9120   68.8290  223.8110 C   0  0  0  0  0  0  0  0  0  0  0  0
  136.2570   68.3360  222.6810 C   0  0  0  0  0  0  0  0  0  0  0  0
  136.9150   67.4750  221.8010 C   0  0  0  0  0  0  0  0  0  0  0  0
  136.2910   66.9660  220.6670 O   0  0  0  0  0  0  0  0  0  0  0  0
  138.2410   67.1120  222.0660 C   0  0  0  0  0  0  0  0  0  0  0  0
  138.8510   67.6230  223.1950 C   0  0  0  0  0  0  0  0  0  0  0  0
  141.1290   74.8430  221.5370 C   0  0  0  0  0  0  0  0  0  0  0  0
  141.9170   75.2230  220.4660 C   0  0  0  0  0  0  0  0  0  0  0  0
  142.1670   76.5570  220.1670 C   0  0  0  0  0  0  0  0  0  0  0  0
  141.5900   77.5000  220.9920 C   0  0  0  0  0  0  0  0  0  0  0  0
  141.7960   78.8370  220.7550 C   0  0  0  0  0  0  0  0  0  0  0  0
  141.2340   79.8240  221.5610 C   0  0  0  0  0  0  0  0  0  0  0  0
  141.5100   81.5150  221.2380 Cl  0  0  0  0  0  0  0  0  0  0  0  0
  140.4530   79.3870  222.6210 C   0  0  0  0  0  0  0  0  0  0  0  0
  140.2440   78.0450  222.8630 C   0  0  0  0  0  0  0  0  0  0  0  0
  140.8100   77.0820  222.0510 C   0  0  0  0  0  0  0  0  0  0  0  0
  140.5790   75.7810  222.3250 N   0  0  0  0  0  0  0  0  0  0  0  0
  139.5770   73.5780  223.4290 H   0  0  0  0  0  0  0  0  0  0  0  0
  139.5298   71.0778  221.9794 H   0  0  0  0  0  0  0  0  0  0  0  0
  140.9905   71.0630  223.0491 H   0  0  0  0  0  0  0  0  0  0  0  0
  141.6930   69.7869  225.3956 H   0  0  0  0  0  0  0  0  0  0  0  0
  141.2362   71.5431  225.2753 H   0  0  0  0  0  0  0  0  0  0  0  0
  141.8172   70.5038  227.5835 H   0  0  0  0  0  0  0  0  0  0  0  0
  140.3881   71.6207  227.3786 H   0  0  0  0  0  0  0  0  0  0  0  0
  139.9953   69.6243  228.8212 H   0  0  0  0  0  0  0  0  0  0  0  0
  138.8829   69.8451  227.3803 H   0  0  0  0  0  0  0  0  0  0  0  0
  141.2284   67.9685  227.4796 H   0  0  0  0  0  0  0  0  0  0  0  0
  139.4772   67.5434  227.8098 H   0  0  0  0  0  0  0  0  0  0  0  0
  140.8743   68.0738  225.2422 H   0  0  0  0  0  0  0  0  0  0  0  0
  139.5172   66.9599  225.6466 H   0  0  0  0  0  0  0  0  0  0  0  0
  138.1362   69.1892  225.9937 H   0  0  0  0  0  0  0  0  0  0  0  0
  136.3813   69.5064  224.4962 H   0  0  0  0  0  0  0  0  0  0  0  0
  135.2152   68.6280  222.4827 H   0  0  0  0  0  0  0  0  0  0  0  0
  136.0060   67.6000  219.9090 H   0  0  0  0  0  0  0  0  0  0  0  0
  138.7847   66.4352  221.3904 H   0  0  0  0  0  0  0  0  0  0  0  0
  139.8928   67.3360  223.4006 H   0  0  0  0  0  0  0  0  0  0  0  0
  142.3608   74.4433  219.8295 H   0  0  0  0  0  0  0  0  0  0  0  0
  142.7957   76.8473  219.3123 H   0  0  0  0  0  0  0  0  0  0  0  0
  142.4237   79.1373  219.9031 H   0  0  0  0  0  0  0  0  0  0  0  0
  139.9883   80.1299  223.2859 H   0  0  0  0  0  0  0  0  0  0  0  0
  139.6183   77.7380  223.7140 H   0  0  0  0  0  0  0  0  0  0  0  0
  1  2  2  0
  2  3  1  0
  3  4  1  0
  4  5  1  0
  5  6  2  0
  5  7  1  0
  7  8  1  0
  8  9  1  0
  9 10  1  0
 10 11  1  0
 11 12  1  0
 12 13  1  0
 13 14  1  0
 14 15  2  0
 15 16  1  0
 16 17  2  0
 17 18  1  0
 17 19  1  0
 19 20  2  0
  2 21  1  0
 21 22  2  0
 22 23  1  0
 23 24  2  0
 24 25  1  0
 25 26  2  0
 26 27  1  0
 26 28  1  0
 28 29  2  0
 29 30  1  0
 30 31  2  0
 13  7  1  0
 20 14  1  0
 31 21  1  0
 30 24  1  0
  3 32  1  0
  4 33  1  0
  4 34  1  0
  8 35  1  0
  8 36  1  0
  9 37  1  0
  9 38  1  0
 10 39  1  0
 10 40  1  0
 11 41  1  0
 11 42  1  0
 12 43  1  0
 12 44  1  0
 13 45  1  1
 15 46  1  0
 16 47  1  0
 18 48  1  0
 19 49  1  0
 20 50  1  0
 22 51  1  0
 23 52  1  0
 25 53  1  0
 28 54  1  0
 29 55  1  0
M  END
>  <smiles>  (8) 
O=C(NCC(=O)N1CCCCCC1c1ccc(O)cc1)c1ccc2cc(Cl)ccc2n1

>  <score_type>  (8) 
oracle

>  <origin>  (8) 
autodockgpu

>  <m_score__min__energy>  (8) 
-6.6699999999999999

>  <m_primary>  (8) 
energy

>  <rmsd>  (8) 
8.79132951906802

>  <m_score__min__rmsd>  (8) 
8.79132951906802

>  <meeko>  (8) 
{"free_energy": -5.24, "intermolecular_energy": -8.82, "internal_energy": -1.65, "cluster_size": 2, "cluster_id": 8, "rank_in_cluster": 2}

>  <energy>  (8) 
-6.09

>  <cluster_rmsd>  (8) 
0.35

>  <cluster>  (8) 
2

$$$$

     RDKit          3D

 55 58  0  0  0  0  0  0  0  0999 V2000
  139.1410   71.8520  220.6150 O   0  0  0  0  0  0  0  0  0  0  0  0
  139.0140   72.2890  221.7980 C   0  0  0  0  0  0  0  0  0  0  0  0
  138.5660   73.6410  221.9220 N   0  0  0  0  0  0  0  0  0  0  0  0
  138.3120   74.3470  220.6730 C   0  0  0  0  0  0  0  0  0  0  0  0
  138.8970   75.7130  220.6950 C   0  0  0  0  0  0  0  0  0  0  0  0
  139.1210   76.3320  219.6120 O   0  0  0  0  0  0  0  0  0  0  0  0
  139.1900   76.2890  221.9440 N   0  0  0  0  0  0  0  0  0  0  0  0
  138.1010   76.7980  222.7480 C   0  0  0  0  0  0  0  0  0  0  0  0
  137.7100   78.2010  222.3640 C   0  0  0  0  0  0  0  0  0  0  0  0
  138.8440   79.1860  222.4750 C   0  0  0  0  0  0  0  0  0  0  0  0
  140.1350   78.7130  221.8850 C   0  0  0  0  0  0  0  0  0  0  0  0
  140.8820   77.7330  222.7640 C   0  0  0  0  0  0  0  0  0  0  0  0
  140.5940   76.3180  222.3190 C   0  0  2  0  0  0  0  0  0  0  0  0
  141.5000   75.8980  221.2330 C   0  0  0  0  0  0  0  0  0  0  0  0
  142.0310   76.8090  220.3400 C   0  0  0  0  0  0  0  0  0  0  0  0
  142.8860   76.3900  219.3200 C   0  0  0  0  0  0  0  0  0  0  0  0
  143.2180   75.0410  219.1840 C   0  0  0  0  0  0  0  0  0  0  0  0
  144.0680   74.5910  218.1790 O   0  0  0  0  0  0  0  0  0  0  0  0
  142.6830   74.1140  220.0850 C   0  0  0  0  0  0  0  0  0  0  0  0
  141.8410   74.5710  221.0800 C   0  0  0  0  0  0  0  0  0  0  0  0
  139.3040   71.4730  222.9710 C   0  0  0  0  0  0  0  0  0  0  0  0
  138.9000   70.1500  222.9380 C   0  0  0  0  0  0  0  0  0  0  0  0
  139.1240   69.2810  224.0000 C   0  0  0  0  0  0  0  0  0  0  0  0
  139.7750   69.7970  225.1020 C   0  0  0  0  0  0  0  0  0  0  0  0
  140.0290   68.9940  226.1870 C   0  0  0  0  0  0  0  0  0  0  0  0
  140.6820   69.4710  227.3200 C   0  0  0  0  0  0  0  0  0  0  0  0
  140.9920   68.4320  228.6850 Cl  0  0  0  0  0  0  0  0  0  0  0  0
  141.0640   70.8050  227.2990 C   0  0  0  0  0  0  0  0  0  0  0  0
  140.8110   71.6140  226.2120 C   0  0  0  0  0  0  0  0  0  0  0  0
  140.1620   71.1210  225.0970 C   0  0  0  0  0  0  0  0  0  0  0  0
  139.9350   71.9490  224.0550 N   0  0  0  0  0  0  0  0  0  0  0  0
  138.4340   74.0840  222.8610 H   0  0  0  0  0  0  0  0  0  0  0  0
  138.7589   73.7794  219.8435 H   0  0  0  0  0  0  0  0  0  0  0  0
  137.2237   74.4380  220.5413 H   0  0  0  0  0  0  0  0  0  0  0  0
  137.2289   76.1403  222.6183 H   0  0  0  0  0  0  0  0  0  0  0  0
  138.4384   76.8187  223.7948 H   0  0  0  0  0  0  0  0  0  0  0  0
  137.3556   78.1922  221.3227 H   0  0  0  0  0  0  0  0  0  0  0  0
  136.9268   78.5249  223.0652 H   0  0  0  0  0  0  0  0  0  0  0  0
  138.5480   80.1107  221.9580 H   0  0  0  0  0  0  0  0  0  0  0  0
  139.0262   79.3343  223.5496 H   0  0  0  0  0  0  0  0  0  0  0  0
  139.9190   78.2231  220.9241 H   0  0  0  0  0  0  0  0  0  0  0  0
  140.7790   79.5972  221.7694 H   0  0  0  0  0  0  0  0  0  0  0  0
  141.9623   77.9260  222.6888 H   0  0  0  0  0  0  0  0  0  0  0  0
  140.5529   77.8584  223.8061 H   0  0  0  0  0  0  0  0  0  0  0  0
  140.7794   75.5913  223.1237 H   0  0  0  0  0  0  0  0  0  0  0  0
  141.7772   77.8752  220.4341 H   0  0  0  0  0  0  0  0  0  0  0  0
  143.3014   77.1280  218.6180 H   0  0  0  0  0  0  0  0  0  0  0  0
  144.8400   75.1870  217.8530 H   0  0  0  0  0  0  0  0  0  0  0  0
  142.9275   73.0447  220.0028 H   0  0  0  0  0  0  0  0  0  0  0  0
  141.4214   73.8392  221.7860 H   0  0  0  0  0  0  0  0  0  0  0  0
  138.3847   69.7734  222.0421 H   0  0  0  0  0  0  0  0  0  0  0  0
  138.7975   68.2312  223.9635 H   0  0  0  0  0  0  0  0  0  0  0  0
  139.7068   67.9426  226.1598 H   0  0  0  0  0  0  0  0  0  0  0  0
  141.5821   71.2277  228.1724 H   0  0  0  0  0  0  0  0  0  0  0  0
  141.1303   72.6664  226.2329 H   0  0  0  0  0  0  0  0  0  0  0  0
  1  2  2  0
  2  3  1  0
  3  4  1  0
  4  5  1  0
  5  6  2  0
  5  7  1  0
  7  8  1  0
  8  9  1  0
  9 10  1  0
 10 11  1  0
 11 12  1  0
 12 13  1  0
 13 14  1  0
 14 15  2  0
 15 16  1  0
 16 17  2  0
 17 18  1  0
 17 19  1  0
 19 20  2  0
  2 21  1  0
 21 22  2  0
 22 23  1  0
 23 24  2  0
 24 25  1  0
 25 26  2  0
 26 27  1  0
 26 28  1  0
 28 29  2  0
 29 30  1  0
 30 31  2  0
 13  7  1  0
 20 14  1  0
 31 21  1  0
 30 24  1  0
  3 32  1  0
  4 33  1  0
  4 34  1  0
  8 35  1  0
  8 36  1  0
  9 37  1  0
  9 38  1  0
 10 39  1  0
 10 40  1  0
 11 41  1  0
 11 42  1  0
 12 43  1  0
 12 44  1  0
 13 45  1  1
 15 46  1  0
 16 47  1  0
 18 48  1  0
 19 49  1  0
 20 50  1  0
 22 51  1  0
 23 52  1  0
 25 53  1  0
 28 54  1  0
 29 55  1  0
M  END
>  <smiles>  (9) 
O=C(NCC(=O)N1CCCCCC1c1ccc(O)cc1)c1ccc2cc(Cl)ccc2n1

>  <score_type>  (9) 
oracle

>  <origin>  (9) 
autodockgpu

>  <m_score__min__energy>  (9) 
-6.6699999999999999

>  <m_primary>  (9) 
energy

>  <rmsd>  (9) 
2.984483278498802

>  <m_score__min__rmsd>  (9) 
2.984483278498802

>  <meeko>  (9) 
{"free_energy": -6.34, "intermolecular_energy": -9.92, "internal_energy": -1.94, "cluster_size": 12, "cluster_id": 2, "rank_in_cluster": 1}

>  <energy>  (9) 
-6.05

>  <cluster_rmsd>  (9) 
0.11

>  <cluster>  (9) 
2

$$$$

     RDKit          3D

 55 58  0  0  0  0  0  0  0  0999 V2000
  139.5200   74.4230  222.0570 O   0  0  0  0  0  0  0  0  0  0  0  0
  140.7220   74.6710  221.7400 C   0  0  0  0  0  0  0  0  0  0  0  0
  141.1700   76.0070  221.9770 N   0  0  0  0  0  0  0  0  0  0  0  0
  140.1900   76.9180  222.5540 C   0  0  0  0  0  0  0  0  0  0  0  0
  140.0870   78.1740  221.7660 C   0  0  0  0  0  0  0  0  0  0  0  0
  139.0230   78.4510  221.1370 O   0  0  0  0  0  0  0  0  0  0  0  0
  141.2000   79.0340  221.7420 N   0  0  0  0  0  0  0  0  0  0  0  0
  141.6240   79.6580  222.9770 C   0  0  0  0  0  0  0  0  0  0  0  0
  141.8970   81.1300  222.8130 C   0  0  0  0  0  0  0  0  0  0  0  0
  140.9890   81.7960  221.8120 C   0  0  0  0  0  0  0  0  0  0  0  0
  141.4330   81.6630  220.3900 C   0  0  0  0  0  0  0  0  0  0  0  0
  141.0770   80.3330  219.7630 C   0  0  0  0  0  0  0  0  0  0  0  0
  141.8360   79.2200  220.4490 C   0  0  2  0  0  0  0  0  0  0  0  0
  141.8580   77.9950  219.6260 C   0  0  0  0  0  0  0  0  0  0  0  0
  140.7990   77.6540  218.8060 C   0  0  0  0  0  0  0  0  0  0  0  0
  140.8420   76.4910  218.0360 C   0  0  0  0  0  0  0  0  0  0  0  0
  141.9570   75.6510  218.0830 C   0  0  0  0  0  0  0  0  0  0  0  0
  142.0300   74.4850  217.3280 O   0  0  0  0  0  0  0  0  0  0  0  0
  143.0310   75.9920  218.9120 C   0  0  0  0  0  0  0  0  0  0  0  0
  142.9480   77.1510  219.6570 C   0  0  0  0  0  0  0  0  0  0  0  0
  141.6050   73.6620  221.1660 C   0  0  0  0  0  0  0  0  0  0  0  0
  141.0410   72.4470  220.8250 C   0  0  0  0  0  0  0  0  0  0  0  0
  141.7870   71.4130  220.2710 C   0  0  0  0  0  0  0  0  0  0  0  0
  143.1320   71.6520  220.0730 C   0  0  0  0  0  0  0  0  0  0  0  0
  143.9290   70.6740  219.5300 C   0  0  0  0  0  0  0  0  0  0  0  0
  145.2910   70.8700  219.3110 C   0  0  0  0  0  0  0  0  0  0  0  0
  146.2820   69.6140  218.6200 Cl  0  0  0  0  0  0  0  0  0  0  0  0
  145.8030   72.1080  219.6720 C   0  0  0  0  0  0  0  0  0  0  0  0
  145.0060   73.0920  220.2180 C   0  0  0  0  0  0  0  0  0  0  0  0
  143.6580   72.8780  220.4260 C   0  0  0  0  0  0  0  0  0  0  0  0
  142.9150   73.8690  220.9630 N   0  0  0  0  0  0  0  0  0  0  0  0
  142.1480   76.3010  221.7440 H   0  0  0  0  0  0  0  0  0  0  0  0
  139.2075   76.4236  222.5694 H   0  0  0  0  0  0  0  0  0  0  0  0
  140.5141   77.1746  223.5734 H   0  0  0  0  0  0  0  0  0  0  0  0
  140.8317   79.5274  223.7288 H   0  0  0  0  0  0  0  0  0  0  0  0
  142.5616   79.1762  223.2912 H   0  0  0  0  0  0  0  0  0  0  0  0
  141.7618   81.6210  223.7880 H   0  0  0  0  0  0  0  0  0  0  0  0
  142.9260   81.2309  222.4376 H   0  0  0  0  0  0  0  0  0  0  0  0
  139.9887   81.3476  221.9033 H   0  0  0  0  0  0  0  0  0  0  0  0
  141.0003   82.8710  222.0449 H   0  0  0  0  0  0  0  0  0  0  0  0
  140.9583   82.4622  219.8019 H   0  0  0  0  0  0  0  0  0  0  0  0
  142.5306   81.7355  220.3881 H   0  0  0  0  0  0  0  0  0  0  0  0
  139.9964   80.1572  219.8699 H   0  0  0  0  0  0  0  0  0  0  0  0
  141.3475   80.3517  218.6969 H   0  0  0  0  0  0  0  0  0  0  0  0
  142.8971   79.4744  220.5883 H   0  0  0  0  0  0  0  0  0  0  0  0
  139.9139   78.3055  218.7599 H   0  0  0  0  0  0  0  0  0  0  0  0
  139.9916   76.2339  217.3873 H   0  0  0  0  0  0  0  0  0  0  0  0
  142.1490   73.5760  217.7950 H   0  0  0  0  0  0  0  0  0  0  0  0
  143.9226   75.3502  218.9689 H   0  0  0  0  0  0  0  0  0  0  0  0
  143.7942   77.4147  220.3084 H   0  0  0  0  0  0  0  0  0  0  0  0
  139.9656   72.2931  220.9978 H   0  0  0  0  0  0  0  0  0  0  0  0
  141.3273   70.4502  220.0032 H   0  0  0  0  0  0  0  0  0  0  0  0
  143.4787   69.7074  219.2600 H   0  0  0  0  0  0  0  0  0  0  0  0
  146.8733   72.3100  219.5185 H   0  0  0  0  0  0  0  0  0  0  0  0
  145.4502   74.0604  220.4915 H   0  0  0  0  0  0  0  0  0  0  0  0
  1  2  2  0
  2  3  1  0
  3  4  1  0
  4  5  1  0
  5  6  2  0
  5  7  1  0
  7  8  1  0
  8  9  1  0
  9 10  1  0
 10 11  1  0
 11 12  1  0
 12 13  1  0
 13 14  1  0
 14 15  2  0
 15 16  1  0
 16 17  2  0
 17 18  1  0
 17 19  1  0
 19 20  2  0
  2 21  1  0
 21 22  2  0
 22 23  1  0
 23 24  2  0
 24 25  1  0
 25 26  2  0
 26 27  1  0
 26 28  1  0
 28 29  2  0
 29 30  1  0
 30 31  2  0
 13  7  1  0
 20 14  1  0
 31 21  1  0
 30 24  1  0
  3 32  1  0
  4 33  1  0
  4 34  1  0
  8 35  1  0
  8 36  1  0
  9 37  1  0
  9 38  1  0
 10 39  1  0
 10 40  1  0
 11 41  1  0
 11 42  1  0
 12 43  1  0
 12 44  1  0
 13 45  1  1
 15 46  1  0
 16 47  1  0
 18 48  1  0
 19 49  1  0
 20 50  1  0
 22 51  1  0
 23 52  1  0
 25 53  1  0
 28 54  1  0
 29 55  1  0
M  END
>  <smiles>  (10) 
O=C(NCC(=O)N1CCCCCC1c1ccc(O)cc1)c1ccc2cc(Cl)ccc2n1

>  <score_type>  (10) 
oracle

>  <origin>  (10) 
autodockgpu

>  <m_score__min__energy>  (10) 
-6.6699999999999999

>  <m_primary>  (10) 
energy

>  <rmsd>  (10) 
6.187837930552697

>  <m_score__min__rmsd>  (10) 
6.187837930552697

>  <meeko>  (10) 
{"free_energy": -4.5, "intermolecular_energy": -8.08, "internal_energy": -2.64, "cluster_size": 2, "cluster_id": 14, "rank_in_cluster": 2}

>  <energy>  (10) 
-6.05

>  <cluster_rmsd>  (10) 
0.39

>  <cluster>  (10) 
2

$$$$

     RDKit          3D

 55 58  0  0  0  0  0  0  0  0999 V2000
  139.2570   71.8960  220.7390 O   0  0  0  0  0  0  0  0  0  0  0  0
  138.9910   72.2400  221.9290 C   0  0  0  0  0  0  0  0  0  0  0  0
  138.3380   73.5020  222.0860 N   0  0  0  0  0  0  0  0  0  0  0  0
  138.0590   74.2350  220.8580 C   0  0  0  0  0  0  0  0  0  0  0  0
  138.9960   75.3750  220.6830 C   0  0  0  0  0  0  0  0  0  0  0  0
  139.5530   75.5820  219.5630 O   0  0  0  0  0  0  0  0  0  0  0  0
  139.2400   76.2070  221.7900 N   0  0  0  0  0  0  0  0  0  0  0  0
  138.1350   76.9390  222.3690 C   0  0  0  0  0  0  0  0  0  0  0  0
  137.8950   78.2570  221.6810 C   0  0  0  0  0  0  0  0  0  0  0  0
  139.0510   79.2150  221.8120 C   0  0  0  0  0  0  0  0  0  0  0  0
  140.3900   78.6100  221.5330 C   0  0  0  0  0  0  0  0  0  0  0  0
  140.8830   77.6950  222.6300 C   0  0  0  0  0  0  0  0  0  0  0  0
  140.6140   76.2540  222.2620 C   0  0  2  0  0  0  0  0  0  0  0  0
  141.5900   75.7580  221.2720 C   0  0  0  0  0  0  0  0  0  0  0  0
  142.2030   76.6080  220.3700 C   0  0  0  0  0  0  0  0  0  0  0  0
  143.1240   76.1170  219.4440 C   0  0  0  0  0  0  0  0  0  0  0  0
  143.4400   74.7570  219.4130 C   0  0  0  0  0  0  0  0  0  0  0  0
  144.3540   74.2370  218.5020 O   0  0  0  0  0  0  0  0  0  0  0  0
  142.8240   73.8930  220.3240 C   0  0  0  0  0  0  0  0  0  0  0  0
  141.9190   74.4200  221.2240 C   0  0  0  0  0  0  0  0  0  0  0  0
  139.3260   71.4080  223.0790 C   0  0  0  0  0  0  0  0  0  0  0  0
  138.9970   70.0670  223.0090 C   0  0  0  0  0  0  0  0  0  0  0  0
  139.2690   69.1810  224.0450 C   0  0  0  0  0  0  0  0  0  0  0  0
  139.8880   69.7020  225.1630 C   0  0  0  0  0  0  0  0  0  0  0  0
  140.1860   68.8840  226.2250 C   0  0  0  0  0  0  0  0  0  0  0  0
  140.8100   69.3650  227.3740 C   0  0  0  0  0  0  0  0  0  0  0  0
  141.1780   68.3060  228.7090 Cl  0  0  0  0  0  0  0  0  0  0  0  0
  141.1160   70.7180  227.3920 C   0  0  0  0  0  0  0  0  0  0  0  0
  140.8190   71.5430  226.3270 C   0  0  0  0  0  0  0  0  0  0  0  0
  140.2000   71.0460  225.1970 C   0  0  0  0  0  0  0  0  0  0  0  0
  139.9270   71.8890  224.1790 N   0  0  0  0  0  0  0  0  0  0  0  0
  138.0810   73.8660  223.0330 H   0  0  0  0  0  0  0  0  0  0  0  0
  138.1624   73.5519  220.0020 H   0  0  0  0  0  0  0  0  0  0  0  0
  137.0355   74.6337  220.9174 H   0  0  0  0  0  0  0  0  0  0  0  0
  137.2246   76.3271  222.2872 H   0  0  0  0  0  0  0  0  0  0  0  0
  138.3864   77.1500  223.4189 H   0  0  0  0  0  0  0  0  0  0  0  0
  137.7186   78.0663  220.6121 H   0  0  0  0  0  0  0  0  0  0  0  0
  137.0261   78.7254  222.1664 H   0  0  0  0  0  0  0  0  0  0  0  0
  138.8935   80.0428  221.1049 H   0  0  0  0  0  0  0  0  0  0  0  0
  139.0681   79.5444  222.8614 H   0  0  0  0  0  0  0  0  0  0  0  0
  140.3216   78.0296  220.6011 H   0  0  0  0  0  0  0  0  0  0  0  0
  141.1086   79.4395  221.4587 H   0  0  0  0  0  0  0  0  0  0  0  0
  141.9648   77.8401  222.7665 H   0  0  0  0  0  0  0  0  0  0  0  0
  140.3534   77.9337  223.5641 H   0  0  0  0  0  0  0  0  0  0  0  0
  140.7357   75.5826  223.1248 H   0  0  0  0  0  0  0  0  0  0  0  0
  141.9623   77.6813  220.3826 H   0  0  0  0  0  0  0  0  0  0  0  0
  143.6044   76.8058  218.7336 H   0  0  0  0  0  0  0  0  0  0  0  0
  145.0660   74.8480  218.0810 H   0  0  0  0  0  0  0  0  0  0  0  0
  143.0553   72.8176  220.3236 H   0  0  0  0  0  0  0  0  0  0  0  0
  141.4361   73.7376  221.9389 H   0  0  0  0  0  0  0  0  0  0  0  0
  138.5029   69.6881  222.1022 H   0  0  0  0  0  0  0  0  0  0  0  0
  139.0036   68.1157  223.9769 H   0  0  0  0  0  0  0  0  0  0  0  0
  139.9242   67.8172  226.1668 H   0  0  0  0  0  0  0  0  0  0  0  0
  141.6083   71.1441  228.2786 H   0  0  0  0  0  0  0  0  0  0  0  0
  141.0786   72.6107  226.3785 H   0  0  0  0  0  0  0  0  0  0  0  0
  1  2  2  0
  2  3  1  0
  3  4  1  0
  4  5  1  0
  5  6  2  0
  5  7  1  0
  7  8  1  0
  8  9  1  0
  9 10  1  0
 10 11  1  0
 11 12  1  0
 12 13  1  0
 13 14  1  0
 14 15  2  0
 15 16  1  0
 16 17  2  0
 17 18  1  0
 17 19  1  0
 19 20  2  0
  2 21  1  0
 21 22  2  0
 22 23  1  0
 23 24  2  0
 24 25  1  0
 25 26  2  0
 26 27  1  0
 26 28  1  0
 28 29  2  0
 29 30  1  0
 30 31  2  0
 13  7  1  0
 20 14  1  0
 31 21  1  0
 30 24  1  0
  3 32  1  0
  4 33  1  0
  4 34  1  0
  8 35  1  0
  8 36  1  0
  9 37  1  0
  9 38  1  0
 10 39  1  0
 10 40  1  0
 11 41  1  0
 11 42  1  0
 12 43  1  0
 12 44  1  0
 13 45  1  1
 15 46  1  0
 16 47  1  0
 18 48  1  0
 19 49  1  0
 20 50  1  0
 22 51  1  0
 23 52  1  0
 25 53  1  0
 28 54  1  0
 29 55  1  0
M  END
>  <smiles>  (11) 
O=C(NCC(=O)N1CCCCCC1c1ccc(O)cc1)c1ccc2cc(Cl)ccc2n1

>  <score_type>  (11) 
oracle

>  <origin>  (11) 
autodockgpu

>  <m_score__min__energy>  (11) 
-6.6699999999999999

>  <m_primary>  (11) 
energy

>  <rmsd>  (11) 
2.8070329982742668

>  <m_score__min__rmsd>  (11) 
2.8070329982742668

>  <meeko>  (11) 
{"free_energy": -6.09, "intermolecular_energy": -9.67, "internal_energy": -1.64, "cluster_size": 12, "cluster_id": 2, "rank_in_cluster": 2}

>  <energy>  (11) 
-6.04

>  <cluster_rmsd>  (11) 
1.62

>  <cluster>  (11) 
2

$$$$

     RDKit          3D

 55 58  0  0  0  0  0  0  0  0999 V2000
  139.6570   71.8610  220.4710 O   0  0  0  0  0  0  0  0  0  0  0  0
  139.5220   72.3550  221.6310 C   0  0  0  0  0  0  0  0  0  0  0  0
  139.2090   73.7480  221.6880 N   0  0  0  0  0  0  0  0  0  0  0  0
  139.0840   74.4280  220.4050 C   0  0  0  0  0  0  0  0  0  0  0  0
  139.0470   75.9040  220.5760 C   0  0  0  0  0  0  0  0  0  0  0  0
  138.7160   76.6530  219.6090 O   0  0  0  0  0  0  0  0  0  0  0  0
  139.3880   76.4340  221.8330 N   0  0  0  0  0  0  0  0  0  0  0  0
  138.3270   76.8460  222.7260 C   0  0  0  0  0  0  0  0  0  0  0  0
  138.4340   78.2970  223.1140 C   0  0  0  0  0  0  0  0  0  0  0  0
  138.9230   79.1790  221.9940 C   0  0  0  0  0  0  0  0  0  0  0  0
  140.3070   78.8670  221.5210 C   0  0  0  0  0  0  0  0  0  0  0  0
  141.0850   77.9680  222.4560 C   0  0  0  0  0  0  0  0  0  0  0  0
  140.8090   76.5190  222.1250 C   0  0  2  0  0  0  0  0  0  0  0  0
  141.6640   76.0450  221.0190 C   0  0  0  0  0  0  0  0  0  0  0  0
  142.1360   74.7480  220.9740 C   0  0  0  0  0  0  0  0  0  0  0  0
  142.9430   74.3210  219.9180 C   0  0  0  0  0  0  0  0  0  0  0  0
  143.2870   75.2010  218.8900 C   0  0  0  0  0  0  0  0  0  0  0  0
  144.0890   74.8070  217.8230 O   0  0  0  0  0  0  0  0  0  0  0  0
  142.8110   76.5160  218.9310 C   0  0  0  0  0  0  0  0  0  0  0  0
  142.0150   76.8970  219.9930 C   0  0  0  0  0  0  0  0  0  0  0  0
  139.6750   71.5590  222.8440 C   0  0  0  0  0  0  0  0  0  0  0  0
  139.1870   70.2650  222.8190 C   0  0  0  0  0  0  0  0  0  0  0  0
  139.2780   69.4180  223.9170 C   0  0  0  0  0  0  0  0  0  0  0  0
  139.8840   69.9260  225.0480 C   0  0  0  0  0  0  0  0  0  0  0  0
  140.0080   69.1430  226.1700 C   0  0  0  0  0  0  0  0  0  0  0  0
  140.6120   69.6130  227.3340 C   0  0  0  0  0  0  0  0  0  0  0  0
  140.7570   68.6000  228.7440 Cl  0  0  0  0  0  0  0  0  0  0  0  0
  141.0820   70.9180  227.3030 C   0  0  0  0  0  0  0  0  0  0  0  0
  140.9600   71.7070  226.1780 C   0  0  0  0  0  0  0  0  0  0  0  0
  140.3580   71.2210  225.0340 C   0  0  0  0  0  0  0  0  0  0  0  0
  140.2590   72.0290  223.9570 N   0  0  0  0  0  0  0  0  0  0  0  0
  139.0810   74.2390  222.6040 H   0  0  0  0  0  0  0  0  0  0  0  0
  139.9445   74.1621  219.7735 H   0  0  0  0  0  0  0  0  0  0  0  0
  138.1420   74.1098  219.9344 H   0  0  0  0  0  0  0  0  0  0  0  0
  137.3611   76.6846  222.2250 H   0  0  0  0  0  0  0  0  0  0  0  0
  138.4100   76.2463  223.6444 H   0  0  0  0  0  0  0  0  0  0  0  0
  137.4399   78.6490  223.4270 H   0  0  0  0  0  0  0  0  0  0  0  0
  139.1721   78.3633  223.9269 H   0  0  0  0  0  0  0  0  0  0  0  0
  138.2352   79.0673  221.1428 H   0  0  0  0  0  0  0  0  0  0  0  0
  138.9508   80.2044  222.3913 H   0  0  0  0  0  0  0  0  0  0  0  0
  140.2349   78.3699  220.5424 H   0  0  0  0  0  0  0  0  0  0  0  0
  140.8504   79.8221  221.4699 H   0  0  0  0  0  0  0  0  0  0  0  0
  142.1607   78.1691  222.3443 H   0  0  0  0  0  0  0  0  0  0  0  0
  140.7749   78.1681  223.4922 H   0  0  0  0  0  0  0  0  0  0  0  0
  141.0573   75.8538  222.9652 H   0  0  0  0  0  0  0  0  0  0  0  0
  141.8736   74.0446  221.7780 H   0  0  0  0  0  0  0  0  0  0  0  0
  143.3103   73.2844  219.8956 H   0  0  0  0  0  0  0  0  0  0  0  0
  144.9210   75.3580  217.5750 H   0  0  0  0  0  0  0  0  0  0  0  0
  143.0654   77.2308  218.1345 H   0  0  0  0  0  0  0  0  0  0  0  0
  141.6423   77.9315  220.0221 H   0  0  0  0  0  0  0  0  0  0  0  0
  138.7110   69.8940  221.8993 H   0  0  0  0  0  0  0  0  0  0  0  0
  138.8854   68.3909  223.8861 H   0  0  0  0  0  0  0  0  0  0  0  0
  139.6188   68.1144  226.1486 H   0  0  0  0  0  0  0  0  0  0  0  0
  141.5648   71.3346  228.1993 H   0  0  0  0  0  0  0  0  0  0  0  0
  141.3472   72.7365  226.1923 H   0  0  0  0  0  0  0  0  0  0  0  0
  1  2  2  0
  2  3  1  0
  3  4  1  0
  4  5  1  0
  5  6  2  0
  5  7  1  0
  7  8  1  0
  8  9  1  0
  9 10  1  0
 10 11  1  0
 11 12  1  0
 12 13  1  0
 13 14  1  0
 14 15  2  0
 15 16  1  0
 16 17  2  0
 17 18  1  0
 17 19  1  0
 19 20  2  0
  2 21  1  0
 21 22  2  0
 22 23  1  0
 23 24  2  0
 24 25  1  0
 25 26  2  0
 26 27  1  0
 26 28  1  0
 28 29  2  0
 29 30  1  0
 30 31  2  0
 13  7  1  0
 20 14  1  0
 31 21  1  0
 30 24  1  0
  3 32  1  0
  4 33  1  0
  4 34  1  0
  8 35  1  0
  8 36  1  0
  9 37  1  0
  9 38  1  0
 10 39  1  0
 10 40  1  0
 11 41  1  0
 11 42  1  0
 12 43  1  0
 12 44  1  0
 13 45  1  1
 15 46  1  0
 16 47  1  0
 18 48  1  0
 19 49  1  0
 20 50  1  0
 22 51  1  0
 23 52  1  0
 25 53  1  0
 28 54  1  0
 29 55  1  0
M  END
>  <smiles>  (12) 
O=C(NCC(=O)N1CCCCCC1c1ccc(O)cc1)c1ccc2cc(Cl)ccc2n1

>  <score_type>  (12) 
oracle

>  <origin>  (12) 
autodockgpu

>  <m_score__min__energy>  (12) 
-6.6699999999999999

>  <m_primary>  (12) 
energy

>  <rmsd>  (12) 
3.0873661474269114

>  <m_score__min__rmsd>  (12) 
3.0873661474269114

>  <meeko>  (12) 
{"free_energy": -5.71, "intermolecular_energy": -9.29, "internal_energy": -1.77, "cluster_size": 6, "cluster_id": 1, "rank_in_cluster": 5}

>  <energy>  (12) 
-6.03

>  <cluster_rmsd>  (12) 
0.89

>  <cluster>  (12) 
2

$$$$

     RDKit          3D

 55 58  0  0  0  0  0  0  0  0999 V2000
  139.1930   71.7550  220.6050 O   0  0  0  0  0  0  0  0  0  0  0  0
  139.0990   72.2120  221.7840 C   0  0  0  0  0  0  0  0  0  0  0  0
  138.6810   73.5730  221.8980 N   0  0  0  0  0  0  0  0  0  0  0  0
  138.4140   74.2680  220.6450 C   0  0  0  0  0  0  0  0  0  0  0  0
  139.2410   75.4960  220.5190 C   0  0  0  0  0  0  0  0  0  0  0  0
  139.6830   75.8590  219.3880 O   0  0  0  0  0  0  0  0  0  0  0  0
  139.5120   76.2340  221.6850 N   0  0  0  0  0  0  0  0  0  0  0  0
  138.4030   76.7170  222.4780 C   0  0  0  0  0  0  0  0  0  0  0  0
  138.0300   78.1360  222.1400 C   0  0  0  0  0  0  0  0  0  0  0  0
  139.0190   79.1490  222.6550 C   0  0  0  0  0  0  0  0  0  0  0  0
  140.3220   78.5680  223.1060 C   0  0  0  0  0  0  0  0  0  0  0  0
  141.1260   77.9430  221.9910 C   0  0  0  0  0  0  0  0  0  0  0  0
  140.9170   76.4470  221.9920 C   0  0  2  0  0  0  0  0  0  0  0  0
  141.8310   75.7730  221.0500 C   0  0  0  0  0  0  0  0  0  0  0  0
  142.0680   74.4130  221.1180 C   0  0  0  0  0  0  0  0  0  0  0  0
  142.9360   73.7960  220.2160 C   0  0  0  0  0  0  0  0  0  0  0  0
  143.5820   74.5450  219.2310 C   0  0  0  0  0  0  0  0  0  0  0  0
  144.4530   73.9610  218.3170 O   0  0  0  0  0  0  0  0  0  0  0  0
  143.3460   75.9220  219.1570 C   0  0  0  0  0  0  0  0  0  0  0  0
  142.4790   76.4920  220.0680 C   0  0  0  0  0  0  0  0  0  0  0  0
  139.3970   71.4060  222.9620 C   0  0  0  0  0  0  0  0  0  0  0  0
  138.9900   70.0850  222.9470 C   0  0  0  0  0  0  0  0  0  0  0  0
  139.2210   69.2250  224.0140 C   0  0  0  0  0  0  0  0  0  0  0  0
  139.8830   69.7500  225.1050 C   0  0  0  0  0  0  0  0  0  0  0  0
  140.1440   68.9570  226.1960 C   0  0  0  0  0  0  0  0  0  0  0  0
  140.8090   69.4440  227.3190 C   0  0  0  0  0  0  0  0  0  0  0  0
  141.1300   68.4170  228.6900 Cl  0  0  0  0  0  0  0  0  0  0  0  0
  141.1950   70.7760  227.2810 C   0  0  0  0  0  0  0  0  0  0  0  0
  140.9340   71.5760  226.1870 C   0  0  0  0  0  0  0  0  0  0  0  0
  140.2740   71.0730  225.0830 C   0  0  0  0  0  0  0  0  0  0  0  0
  140.0390   71.8920  224.0360 N   0  0  0  0  0  0  0  0  0  0  0  0
  138.5770   74.0330  222.8330 H   0  0  0  0  0  0  0  0  0  0  0  0
  138.6435   73.5944  219.8062 H   0  0  0  0  0  0  0  0  0  0  0  0
  137.3540   74.5617  220.6312 H   0  0  0  0  0  0  0  0  0  0  0  0
  137.5317   76.0703  222.2975 H   0  0  0  0  0  0  0  0  0  0  0  0
  138.7108   76.6938  223.5338 H   0  0  0  0  0  0  0  0  0  0  0  0
  137.9706   78.2306  221.0457 H   0  0  0  0  0  0  0  0  0  0  0  0
  137.0655   78.3448  222.6260 H   0  0  0  0  0  0  0  0  0  0  0  0
  139.2242   79.8695  221.8496 H   0  0  0  0  0  0  0  0  0  0  0  0
  138.5598   79.6137  223.5400 H   0  0  0  0  0  0  0  0  0  0  0  0
  140.9221   79.3709  223.5590 H   0  0  0  0  0  0  0  0  0  0  0  0
  140.0862   77.7660  223.8210 H   0  0  0  0  0  0  0  0  0  0  0  0
  140.7981   78.3577  221.0264 H   0  0  0  0  0  0  0  0  0  0  0  0
  142.1931   78.1627  222.1428 H   0  0  0  0  0  0  0  0  0  0  0  0
  141.1567   76.0022  222.9691 H   0  0  0  0  0  0  0  0  0  0  0  0
  141.5675   73.8110  221.8907 H   0  0  0  0  0  0  0  0  0  0  0  0
  143.1123   72.7122  220.2817 H   0  0  0  0  0  0  0  0  0  0  0  0
  145.2300   74.5080  217.9250 H   0  0  0  0  0  0  0  0  0  0  0  0
  143.8401   76.5368  218.3902 H   0  0  0  0  0  0  0  0  0  0  0  0
  142.2959   77.5750  220.0072 H   0  0  0  0  0  0  0  0  0  0  0  0
  138.4651   69.7012  222.0598 H   0  0  0  0  0  0  0  0  0  0  0  0
  138.8918   68.1757  223.9900 H   0  0  0  0  0  0  0  0  0  0  0  0
  139.8182   67.9064  226.1824 H   0  0  0  0  0  0  0  0  0  0  0  0
  141.7228   71.2057  228.1452 H   0  0  0  0  0  0  0  0  0  0  0  0
  141.2558   72.6278  226.1945 H   0  0  0  0  0  0  0  0  0  0  0  0
  1  2  2  0
  2  3  1  0
  3  4  1  0
  4  5  1  0
  5  6  2  0
  5  7  1  0
  7  8  1  0
  8  9  1  0
  9 10  1  0
 10 11  1  0
 11 12  1  0
 12 13  1  0
 13 14  1  0
 14 15  2  0
 15 16  1  0
 16 17  2  0
 17 18  1  0
 17 19  1  0
 19 20  2  0
  2 21  1  0
 21 22  2  0
 22 23  1  0
 23 24  2  0
 24 25  1  0
 25 26  2  0
 26 27  1  0
 26 28  1  0
 28 29  2  0
 29 30  1  0
 30 31  2  0
 13  7  1  0
 20 14  1  0
 31 21  1  0
 30 24  1  0
  3 32  1  0
  4 33  1  0
  4 34  1  0
  8 35  1  0
  8 36  1  0
  9 37  1  0
  9 38  1  0
 10 39  1  0
 10 40  1  0
 11 41  1  0
 11 42  1  0
 12 43  1  0
 12 44  1  0
 13 45  1  1
 15 46  1  0
 16 47  1  0
 18 48  1  0
 19 49  1  0
 20 50  1  0
 22 51  1  0
 23 52  1  0
 25 53  1  0
 28 54  1  0
 29 55  1  0
M  END
>  <smiles>  (13) 
O=C(NCC(=O)N1CCCCCC1c1ccc(O)cc1)c1ccc2cc(Cl)ccc2n1

>  <score_type>  (13) 
oracle

>  <origin>  (13) 
autodockgpu

>  <m_score__min__energy>  (13) 
-6.6699999999999999

>  <m_primary>  (13) 
energy

>  <rmsd>  (13) 
2.6878792711342103

>  <m_score__min__rmsd>  (13) 
2.6878792711342103

>  <meeko>  (13) 
{"free_energy": -5.64, "intermolecular_energy": -9.22, "internal_energy": -1.77, "cluster_size": 12, "cluster_id": 2, "rank_in_cluster": 11}

>  <energy>  (13) 
-6.03

>  <cluster_rmsd>  (13) 
0.76

>  <cluster>  (13) 
2

$$$$

     RDKit          3D

 55 58  0  0  0  0  0  0  0  0999 V2000
  142.0120   76.9420  217.1290 O   0  0  0  0  0  0  0  0  0  0  0  0
  142.7400   76.7680  218.1520 C   0  0  0  0  0  0  0  0  0  0  0  0
  142.8980   77.9010  219.0090 N   0  0  0  0  0  0  0  0  0  0  0  0
  142.2020   79.1140  218.6010 C   0  0  0  0  0  0  0  0  0  0  0  0
  140.8480   79.1920  219.2070 C   0  0  0  0  0  0  0  0  0  0  0  0
  139.8350   78.7750  218.5710 O   0  0  0  0  0  0  0  0  0  0  0  0
  140.7300   79.7380  220.4990 N   0  0  0  0  0  0  0  0  0  0  0  0
  141.7080   80.7110  220.9340 C   0  0  0  0  0  0  0  0  0  0  0  0
  142.6120   80.1750  222.0120 C   0  0  0  0  0  0  0  0  0  0  0  0
  141.9990   80.2370  223.3880 C   0  0  0  0  0  0  0  0  0  0  0  0
  140.6810   79.5400  223.5090 C   0  0  0  0  0  0  0  0  0  0  0  0
  139.6230   80.0740  222.5670 C   0  0  0  0  0  0  0  0  0  0  0  0
  139.6100   79.2630  221.2930 C   0  0  2  0  0  0  0  0  0  0  0  0
  139.6640   77.8150  221.5740 C   0  0  0  0  0  0  0  0  0  0  0  0
  140.8540   77.1140  221.5370 C   0  0  0  0  0  0  0  0  0  0  0  0
  140.8810   75.7450  221.8070 C   0  0  0  0  0  0  0  0  0  0  0  0
  139.7040   75.0610  222.1180 C   0  0  0  0  0  0  0  0  0  0  0  0
  139.6980   73.6970  222.3920 O   0  0  0  0  0  0  0  0  0  0  0  0
  138.4970   75.7660  222.1570 C   0  0  0  0  0  0  0  0  0  0  0  0
  138.5140   77.1200  221.8840 C   0  0  0  0  0  0  0  0  0  0  0  0
  143.3840   75.4940  218.4480 C   0  0  0  0  0  0  0  0  0  0  0  0
  143.6900   75.2300  219.7700 C   0  0  0  0  0  0  0  0  0  0  0  0
  144.3050   74.0480  220.1670 C   0  0  0  0  0  0  0  0  0  0  0  0
  144.6010   73.1360  219.1750 C   0  0  0  0  0  0  0  0  0  0  0  0
  145.2080   71.9460  219.4960 C   0  0  0  0  0  0  0  0  0  0  0  0
  145.5260   70.9960  218.5290 C   0  0  0  0  0  0  0  0  0  0  0  0
  146.2970   69.4940  218.9620 Cl  0  0  0  0  0  0  0  0  0  0  0  0
  145.1980   71.3130  217.2190 C   0  0  0  0  0  0  0  0  0  0  0  0
  144.5870   72.5060  216.8920 C   0  0  0  0  0  0  0  0  0  0  0  0
  144.2800   73.4350  217.8670 C   0  0  0  0  0  0  0  0  0  0  0  0
  143.6840   74.5890  217.5020 N   0  0  0  0  0  0  0  0  0  0  0  0
  143.4820   77.8480  219.8760 H   0  0  0  0  0  0  0  0  0  0  0  0
  142.7883   79.9879  218.9212 H   0  0  0  0  0  0  0  0  0  0  0  0
  142.0911   79.0980  217.5067 H   0  0  0  0  0  0  0  0  0  0  0  0
  142.3233   81.0036  220.0704 H   0  0  0  0  0  0  0  0  0  0  0  0
  141.1628   81.5707  221.3508 H   0  0  0  0  0  0  0  0  0  0  0  0
  142.8469   79.1255  221.7811 H   0  0  0  0  0  0  0  0  0  0  0  0
  143.5123   80.8069  222.0270 H   0  0  0  0  0  0  0  0  0  0  0  0
  142.6998   79.7736  224.0981 H   0  0  0  0  0  0  0  0  0  0  0  0
  141.8129   81.3000  223.6013 H   0  0  0  0  0  0  0  0  0  0  0  0
  140.8315   78.4720  223.2930 H   0  0  0  0  0  0  0  0  0  0  0  0
  140.3178   79.7133  224.5328 H   0  0  0  0  0  0  0  0  0  0  0  0
  138.6374   80.0081  223.0510 H   0  0  0  0  0  0  0  0  0  0  0  0
  139.8503   81.1228  222.3255 H   0  0  0  0  0  0  0  0  0  0  0  0
  138.6727   79.3975  220.7333 H   0  0  0  0  0  0  0  0  0  0  0  0
  141.7888   77.6397  221.2925 H   0  0  0  0  0  0  0  0  0  0  0  0
  141.8364   75.2008  221.7746 H   0  0  0  0  0  0  0  0  0  0  0  0
  139.0220   73.3110  223.0630 H   0  0  0  0  0  0  0  0  0  0  0  0
  137.5544   75.2535  222.3998 H   0  0  0  0  0  0  0  0  0  0  0  0
  137.5627   77.6714  221.9155 H   0  0  0  0  0  0  0  0  0  0  0  0
  143.4384   75.9806  220.5338 H   0  0  0  0  0  0  0  0  0  0  0  0
  144.5442   73.8493  221.2221 H   0  0  0  0  0  0  0  0  0  0  0  0
  145.4500   71.7375  220.5486 H   0  0  0  0  0  0  0  0  0  0  0  0
  145.4312   70.5942  216.4197 H   0  0  0  0  0  0  0  0  0  0  0  0
  144.3412   72.7201  215.8414 H   0  0  0  0  0  0  0  0  0  0  0  0
  1  2  2  0
  2  3  1  0
  3  4  1  0
  4  5  1  0
  5  6  2  0
  5  7  1  0
  7  8  1  0
  8  9  1  0
  9 10  1  0
 10 11  1  0
 11 12  1  0
 12 13  1  0
 13 14  1  0
 14 15  2  0
 15 16  1  0
 16 17  2  0
 17 18  1  0
 17 19  1  0
 19 20  2  0
  2 21  1  0
 21 22  2  0
 22 23  1  0
 23 24  2  0
 24 25  1  0
 25 26  2  0
 26 27  1  0
 26 28  1  0
 28 29  2  0
 29 30  1  0
 30 31  2  0
 13  7  1  0
 20 14  1  0
 31 21  1  0
 30 24  1  0
  3 32  1  0
  4 33  1  0
  4 34  1  0
  8 35  1  0
  8 36  1  0
  9 37  1  0
  9 38  1  0
 10 39  1  0
 10 40  1  0
 11 41  1  0
 11 42  1  0
 12 43  1  0
 12 44  1  0
 13 45  1  6
 15 46  1  0
 16 47  1  0
 18 48  1  0
 19 49  1  0
 20 50  1  0
 22 51  1  0
 23 52  1  0
 25 53  1  0
 28 54  1  0
 29 55  1  0
M  END
>  <smiles>  (14) 
O=C(NCC(=O)N1CCCCCC1c1ccc(O)cc1)c1ccc2cc(Cl)ccc2n1

>  <score_type>  (14) 
oracle

>  <origin>  (14) 
autodockgpu

>  <m_score__min__energy>  (14) 
-6.6699999999999999

>  <m_primary>  (14) 
energy

>  <rmsd>  (14) 
7.970421786366416

>  <m_score__min__rmsd>  (14) 
7.970421786366416

>  <meeko>  (14) 
{"free_energy": -5.41, "intermolecular_energy": -8.99, "internal_energy": -1.98, "cluster_size": 5, "cluster_id": 11, "rank_in_cluster": 1}

>  <energy>  (14) 
-5.92

>  <cluster_rmsd>  (14) 
1.78

>  <cluster>  (14) 
2

$$$$

     RDKit          3D

 55 58  0  0  0  0  0  0  0  0999 V2000
  142.5920   79.3460  218.6880 O   0  0  0  0  0  0  0  0  0  0  0  0
  142.0030   78.2680  219.0010 C   0  0  0  0  0  0  0  0  0  0  0  0
  140.6690   78.4030  219.4970 N   0  0  0  0  0  0  0  0  0  0  0  0
  140.1530   79.7630  219.5810 C   0  0  0  0  0  0  0  0  0  0  0  0
  139.0970   79.8790  220.6200 C   0  0  0  0  0  0  0  0  0  0  0  0
  137.9420   79.4010  220.4170 O   0  0  0  0  0  0  0  0  0  0  0  0
  139.4210   80.5300  221.8250 N   0  0  0  0  0  0  0  0  0  0  0  0
  138.9800   81.8930  222.0200 C   0  0  0  0  0  0  0  0  0  0  0  0
  139.9710   82.8990  221.4970 C   0  0  0  0  0  0  0  0  0  0  0  0
  141.3850   82.3810  221.4680 C   0  0  0  0  0  0  0  0  0  0  0  0
  141.7940   81.6300  222.6960 C   0  0  0  0  0  0  0  0  0  0  0  0
  141.6350   80.1300  222.5720 C   0  0  0  0  0  0  0  0  0  0  0  0
  140.1870   79.7520  222.7840 C   0  0  2  0  0  0  0  0  0  0  0  0
  139.9850   78.2960  222.6520 C   0  0  0  0  0  0  0  0  0  0  0  0
  141.0260   77.4460  222.3320 C   0  0  0  0  0  0  0  0  0  0  0  0
  140.8130   76.0720  222.2130 C   0  0  0  0  0  0  0  0  0  0  0  0
  139.5400   75.5340  222.4150 C   0  0  0  0  0  0  0  0  0  0  0  0
  139.2940   74.1690  222.3040 O   0  0  0  0  0  0  0  0  0  0  0  0
  138.4820   76.3900  222.7400 C   0  0  0  0  0  0  0  0  0  0  0  0
  138.7370   77.7430  222.8480 C   0  0  0  0  0  0  0  0  0  0  0  0
  142.6360   76.9610  218.8670 C   0  0  0  0  0  0  0  0  0  0  0  0
  142.9480   76.5350  217.5900 C   0  0  0  0  0  0  0  0  0  0  0  0
  143.5530   75.3080  217.3440 C   0  0  0  0  0  0  0  0  0  0  0  0
  143.8340   74.5210  218.4420 C   0  0  0  0  0  0  0  0  0  0  0  0
  144.4310   73.2960  218.2730 C   0  0  0  0  0  0  0  0  0  0  0  0
  144.7330   72.4670  219.3520 C   0  0  0  0  0  0  0  0  0  0  0  0
  145.4910   70.9170  219.1110 Cl  0  0  0  0  0  0  0  0  0  0  0  0
  144.3980   72.9440  220.6110 C   0  0  0  0  0  0  0  0  0  0  0  0
  143.7980   74.1740  220.7850 C   0  0  0  0  0  0  0  0  0  0  0  0
  143.5070   74.9800  219.7020 C   0  0  0  0  0  0  0  0  0  0  0  0
  142.9200   76.1760  219.9180 N   0  0  0  0  0  0  0  0  0  0  0  0
  140.1080   77.5660  219.7800 H   0  0  0  0  0  0  0  0  0  0  0  0
  140.9791   80.4443  219.8327 H   0  0  0  0  0  0  0  0  0  0  0  0
  139.7121   80.0267  218.6083 H   0  0  0  0  0  0  0  0  0  0  0  0
  138.0239   82.0332  221.4944 H   0  0  0  0  0  0  0  0  0  0  0  0
  138.8741   82.0589  223.1022 H   0  0  0  0  0  0  0  0  0  0  0  0
  139.6796   83.1768  220.4733 H   0  0  0  0  0  0  0  0  0  0  0  0
  139.9530   83.7606  222.1806 H   0  0  0  0  0  0  0  0  0  0  0  0
  141.4873   81.7085  220.6035 H   0  0  0  0  0  0  0  0  0  0  0  0
  142.0407   83.2621  221.4062 H   0  0  0  0  0  0  0  0  0  0  0  0
  142.8515   81.8514  222.9025 H   0  0  0  0  0  0  0  0  0  0  0  0
  141.1304   81.9578  223.5097 H   0  0  0  0  0  0  0  0  0  0  0  0
  141.9533   79.8102  221.5688 H   0  0  0  0  0  0  0  0  0  0  0  0
  142.2561   79.6337  223.3322 H   0  0  0  0  0  0  0  0  0  0  0  0
  139.8495   79.9828  223.8052 H   0  0  0  0  0  0  0  0  0  0  0  0
  142.0334   77.8566  222.1693 H   0  0  0  0  0  0  0  0  0  0  0  0
  141.6528   75.4086  221.9586 H   0  0  0  0  0  0  0  0  0  0  0  0
  138.5940   73.7220  222.9110 H   0  0  0  0  0  0  0  0  0  0  0  0
  137.4693   75.9940  222.9059 H   0  0  0  0  0  0  0  0  0  0  0  0
  137.9028   78.4131  223.1032 H   0  0  0  0  0  0  0  0  0  0  0  0
  142.7093   77.1895  216.7387 H   0  0  0  0  0  0  0  0  0  0  0  0
  143.7962   74.9800  216.3226 H   0  0  0  0  0  0  0  0  0  0  0  0
  144.6783   72.9588  217.2556 H   0  0  0  0  0  0  0  0  0  0  0  0
  144.6166   72.3251  221.4937 H   0  0  0  0  0  0  0  0  0  0  0  0
  143.5481   74.5173  221.7997 H   0  0  0  0  0  0  0  0  0  0  0  0
  1  2  2  0
  2  3  1  0
  3  4  1  0
  4  5  1  0
  5  6  2  0
  5  7  1  0
  7  8  1  0
  8  9  1  0
  9 10  1  0
 10 11  1  0
 11 12  1  0
 12 13  1  0
 13 14  1  0
 14 15  2  0
 15 16  1  0
 16 17  2  0
 17 18  1  0
 17 19  1  0
 19 20  2  0
  2 21  1  0
 21 22  2  0
 22 23  1  0
 23 24  2  0
 24 25  1  0
 25 26  2  0
 26 27  1  0
 26 28  1  0
 28 29  2  0
 29 30  1  0
 30 31  2  0
 13  7  1  0
 20 14  1  0
 31 21  1  0
 30 24  1  0
  3 32  1  0
  4 33  1  0
  4 34  1  0
  8 35  1  0
  8 36  1  0
  9 37  1  0
  9 38  1  0
 10 39  1  0
 10 40  1  0
 11 41  1  0
 11 42  1  0
 12 43  1  0
 12 44  1  0
 13 45  1  1
 15 46  1  0
 16 47  1  0
 18 48  1  0
 19 49  1  0
 20 50  1  0
 22 51  1  0
 23 52  1  0
 25 53  1  0
 28 54  1  0
 29 55  1  0
M  END
>  <smiles>  (15) 
O=C(NCC(=O)N1CCCCCC1c1ccc(O)cc1)c1ccc2cc(Cl)ccc2n1

>  <score_type>  (15) 
oracle

>  <origin>  (15) 
autodockgpu

>  <m_score__min__energy>  (15) 
-6.6699999999999999

>  <m_primary>  (15) 
energy

>  <rmsd>  (15) 
7.970913671637126

>  <m_score__min__rmsd>  (15) 
7.970913671637126

>  <meeko>  (15) 
{"free_energy": -4.7, "intermolecular_energy": -8.28, "internal_energy": -2.34, "cluster_size": 5, "cluster_id": 11, "rank_in_cluster": 5}

>  <energy>  (15) 
-5.91

>  <cluster_rmsd>  (15) 
1.94

>  <cluster>  (15) 
2

$$$$

     RDKit          3D

 55 58  0  0  0  0  0  0  0  0999 V2000
  140.5250   76.7370  217.8680 O   0  0  0  0  0  0  0  0  0  0  0  0
  141.7010   76.6660  218.3360 C   0  0  0  0  0  0  0  0  0  0  0  0
  142.2630   77.8910  218.8120 N   0  0  0  0  0  0  0  0  0  0  0  0
  141.4140   79.0700  218.7000 C   0  0  0  0  0  0  0  0  0  0  0  0
  141.8710   80.1550  219.6070 C   0  0  0  0  0  0  0  0  0  0  0  0
  142.5420   81.1290  219.1530 O   0  0  0  0  0  0  0  0  0  0  0  0
  141.5370   80.0640  220.9700 N   0  0  0  0  0  0  0  0  0  0  0  0
  142.5510   80.3660  221.9570 C   0  0  0  0  0  0  0  0  0  0  0  0
  142.4790   79.4540  223.1530 C   0  0  0  0  0  0  0  0  0  0  0  0
  141.4670   79.8960  224.1780 C   0  0  0  0  0  0  0  0  0  0  0  0
  140.0430   79.7680  223.7370 C   0  0  0  0  0  0  0  0  0  0  0  0
  139.7390   80.5000  222.4510 C   0  0  0  0  0  0  0  0  0  0  0  0
  140.1710   79.6670  221.2670 C   0  0  2  0  0  0  0  0  0  0  0  0
  140.0260   78.2240  221.5390 C   0  0  0  0  0  0  0  0  0  0  0  0
  138.7960   77.6590  221.8150 C   0  0  0  0  0  0  0  0  0  0  0  0
  138.6820   76.2920  222.0700 C   0  0  0  0  0  0  0  0  0  0  0  0
  139.8120   75.4720  222.0510 C   0  0  0  0  0  0  0  0  0  0  0  0
  139.7320   74.1060  222.3000 O   0  0  0  0  0  0  0  0  0  0  0  0
  141.0600   76.0390  221.7720 C   0  0  0  0  0  0  0  0  0  0  0  0
  141.1280   77.3960  221.5250 C   0  0  0  0  0  0  0  0  0  0  0  0
  142.4480   75.4140  218.3900 C   0  0  0  0  0  0  0  0  0  0  0  0
  142.0880   74.4210  217.4980 C   0  0  0  0  0  0  0  0  0  0  0  0
  142.7300   73.1890  217.4610 C   0  0  0  0  0  0  0  0  0  0  0  0
  143.7560   72.9940  218.3620 C   0  0  0  0  0  0  0  0  0  0  0  0
  144.4340   71.8000  218.3820 C   0  0  0  0  0  0  0  0  0  0  0  0
  145.4760   71.5570  219.2740 C   0  0  0  0  0  0  0  0  0  0  0  0
  146.3210   70.0330  219.2780 Cl  0  0  0  0  0  0  0  0  0  0  0  0
  145.7950   72.5870  220.1470 C   0  0  0  0  0  0  0  0  0  0  0  0
  145.1160   73.7880  220.1310 C   0  0  0  0  0  0  0  0  0  0  0  0
  144.0860   74.0080  219.2380 C   0  0  0  0  0  0  0  0  0  0  0  0
  143.4490   75.1980  219.2570 N   0  0  0  0  0  0  0  0  0  0  0  0
  143.2290   77.9250  219.2140 H   0  0  0  0  0  0  0  0  0  0  0  0
  141.4429   79.4347  217.6626 H   0  0  0  0  0  0  0  0  0  0  0  0
  140.3900   78.7878  218.9860 H   0  0  0  0  0  0  0  0  0  0  0  0
  143.5412   80.2585  221.4902 H   0  0  0  0  0  0  0  0  0  0  0  0
  142.3801   81.3941  222.3090 H   0  0  0  0  0  0  0  0  0  0  0  0
  142.2086   78.4453  222.8074 H   0  0  0  0  0  0  0  0  0  0  0  0
  143.4657   79.4744  223.6388 H   0  0  0  0  0  0  0  0  0  0  0  0
  141.6034   79.2842  225.0819 H   0  0  0  0  0  0  0  0  0  0  0  0
  141.6458   80.9671  224.3536 H   0  0  0  0  0  0  0  0  0  0  0  0
  139.8190   78.7010  223.5909 H   0  0  0  0  0  0  0  0  0  0  0  0
  139.4206   80.2231  224.5216 H   0  0  0  0  0  0  0  0  0  0  0  0
  138.6575   80.6902  222.3872 H   0  0  0  0  0  0  0  0  0  0  0  0
  140.2871   81.4536  222.4404 H   0  0  0  0  0  0  0  0  0  0  0  0
  139.5321   79.8433  220.3891 H   0  0  0  0  0  0  0  0  0  0  0  0
  137.8974   78.2932  221.8339 H   0  0  0  0  0  0  0  0  0  0  0  0
  137.6952   75.8573  222.2875 H   0  0  0  0  0  0  0  0  0  0  0  0
  139.0830   73.7500  223.0140 H   0  0  0  0  0  0  0  0  0  0  0  0
  141.9674   75.4175  221.7499 H   0  0  0  0  0  0  0  0  0  0  0  0
  142.1110   77.8384  221.3060 H   0  0  0  0  0  0  0  0  0  0  0  0
  141.2653   74.6126  216.7935 H   0  0  0  0  0  0  0  0  0  0  0  0
  142.4339   72.4064  216.7469 H   0  0  0  0  0  0  0  0  0  0  0  0
  144.1454   71.0112  217.6718 H   0  0  0  0  0  0  0  0  0  0  0  0
  146.6106   72.4424  220.8708 H   0  0  0  0  0  0  0  0  0  0  0  0
  145.3990   74.5808  220.8391 H   0  0  0  0  0  0  0  0  0  0  0  0
  1  2  2  0
  2  3  1  0
  3  4  1  0
  4  5  1  0
  5  6  2  0
  5  7  1  0
  7  8  1  0
  8  9  1  0
  9 10  1  0
 10 11  1  0
 11 12  1  0
 12 13  1  0
 13 14  1  0
 14 15  2  0
 15 16  1  0
 16 17  2  0
 17 18  1  0
 17 19  1  0
 19 20  2  0
  2 21  1  0
 21 22  2  0
 22 23  1  0
 23 24  2  0
 24 25  1  0
 25 26  2  0
 26 27  1  0
 26 28  1  0
 28 29  2  0
 29 30  1  0
 30 31  2  0
 13  7  1  0
 20 14  1  0
 31 21  1  0
 30 24  1  0
  3 32  1  0
  4 33  1  0
  4 34  1  0
  8 35  1  0
  8 36  1  0
  9 37  1  0
  9 38  1  0
 10 39  1  0
 10 40  1  0
 11 41  1  0
 11 42  1  0
 12 43  1  0
 12 44  1  0
 13 45  1  6
 15 46  1  0
 16 47  1  0
 18 48  1  0
 19 49  1  0
 20 50  1  0
 22 51  1  0
 23 52  1  0
 25 53  1  0
 28 54  1  0
 29 55  1  0
M  END
>  <smiles>  (16) 
O=C(NCC(=O)N1CCCCCC1c1ccc(O)cc1)c1ccc2cc(Cl)ccc2n1

>  <score_type>  (16) 
oracle

>  <origin>  (16) 
autodockgpu

>  <m_score__min__energy>  (16) 
-6.6699999999999999

>  <m_primary>  (16) 
energy

>  <rmsd>  (16) 
7.595175835071569

>  <m_score__min__rmsd>  (16) 
7.595175835071569

>  <meeko>  (16) 
{"free_energy": -5.06, "intermolecular_energy": -8.64, "internal_energy": -1.98, "cluster_size": 5, "cluster_id": 11, "rank_in_cluster": 2}

>  <energy>  (16) 
-5.69

>  <cluster_rmsd>  (16) 
1.42

>  <cluster>  (16) 
2

$$$$

     RDKit          3D

 55 58  0  0  0  0  0  0  0  0999 V2000
  140.7080   74.0600  220.8580 O   0  0  0  0  0  0  0  0  0  0  0  0
  139.9390   73.9370  221.8580 C   0  0  0  0  0  0  0  0  0  0  0  0
  139.2220   75.1110  222.2460 N   0  0  0  0  0  0  0  0  0  0  0  0
  139.4640   76.3030  221.4450 C   0  0  0  0  0  0  0  0  0  0  0  0
  139.0230   77.5320  222.1540 C   0  0  0  0  0  0  0  0  0  0  0  0
  137.7920   77.7410  222.3700 O   0  0  0  0  0  0  0  0  0  0  0  0
  140.0080   78.4440  222.5740 N   0  0  0  0  0  0  0  0  0  0  0  0
  139.6010   79.6140  223.3210 C   0  0  0  0  0  0  0  0  0  0  0  0
  139.9180   80.8960  222.5990 C   0  0  0  0  0  0  0  0  0  0  0  0
  141.3370   81.3600  222.8040 C   0  0  0  0  0  0  0  0  0  0  0  0
  142.3770   80.3790  222.3650 C   0  0  0  0  0  0  0  0  0  0  0  0
  142.2600   79.0270  223.0320 C   0  0  0  0  0  0  0  0  0  0  0  0
  141.3770   78.1180  222.2090 C   0  0  2  0  0  0  0  0  0  0  0  0
  141.6490   78.2630  220.7660 C   0  0  0  0  0  0  0  0  0  0  0  0
  141.0420   79.2470  220.0100 C   0  0  0  0  0  0  0  0  0  0  0  0
  141.3150   79.3670  218.6460 C   0  0  0  0  0  0  0  0  0  0  0  0
  142.2060   78.4900  218.0240 C   0  0  0  0  0  0  0  0  0  0  0  0
  142.4990   78.5820  216.6670 O   0  0  0  0  0  0  0  0  0  0  0  0
  142.8230   77.4920  218.7850 C   0  0  0  0  0  0  0  0  0  0  0  0
  142.5260   77.4090  220.1300 C   0  0  0  0  0  0  0  0  0  0  0  0
  139.7860   72.6780  222.5780 C   0  0  0  0  0  0  0  0  0  0  0  0
  138.8310   71.7930  222.1120 C   0  0  0  0  0  0  0  0  0  0  0  0
  138.5990   70.5650  222.7200 C   0  0  0  0  0  0  0  0  0  0  0  0
  139.3700   70.2590  223.8220 C   0  0  0  0  0  0  0  0  0  0  0  0
  139.1940   69.0630  224.4720 C   0  0  0  0  0  0  0  0  0  0  0  0
  139.9500   68.7120  225.5890 C   0  0  0  0  0  0  0  0  0  0  0  0
  139.7070   67.1860  226.3970 Cl  0  0  0  0  0  0  0  0  0  0  0  0
  140.8920   69.6370  226.0140 C   0  0  0  0  0  0  0  0  0  0  0  0
  141.0720   70.8400  225.3630 C   0  0  0  0  0  0  0  0  0  0  0  0
  140.3130   71.1680  224.2580 C   0  0  0  0  0  0  0  0  0  0  0  0
  140.5220   72.3570  223.6530 N   0  0  0  0  0  0  0  0  0  0  0  0
  138.5650   75.1000  223.0620 H   0  0  0  0  0  0  0  0  0  0  0  0
  140.5407   76.3791  221.2330 H   0  0  0  0  0  0  0  0  0  0  0  0
  138.8874   76.2160  220.5123 H   0  0  0  0  0  0  0  0  0  0  0  0
  138.5155   79.5640  223.4915 H   0  0  0  0  0  0  0  0  0  0  0  0
  140.1588   79.6168  224.2691 H   0  0  0  0  0  0  0  0  0  0  0  0
  139.7536   80.7404  221.5225 H   0  0  0  0  0  0  0  0  0  0  0  0
  139.2581   81.6738  223.0108 H   0  0  0  0  0  0  0  0  0  0  0  0
  141.4802   82.2908  222.2355 H   0  0  0  0  0  0  0  0  0  0  0  0
  141.4699   81.4948  223.8876 H   0  0  0  0  0  0  0  0  0  0  0  0
  142.2847   80.2387  221.2779 H   0  0  0  0  0  0  0  0  0  0  0  0
  143.3531   80.7957  222.6540 H   0  0  0  0  0  0  0  0  0  0  0  0
  143.2601   78.5782  223.1230 H   0  0  0  0  0  0  0  0  0  0  0  0
  141.8154   79.1546  224.0300 H   0  0  0  0  0  0  0  0  0  0  0  0
  141.5757   77.0565  222.4183 H   0  0  0  0  0  0  0  0  0  0  0  0
  140.3365   79.9430  220.4874 H   0  0  0  0  0  0  0  0  0  0  0  0
  140.8253   80.1571  218.0579 H   0  0  0  0  0  0  0  0  0  0  0  0
  143.2960   79.1510  216.3500 H   0  0  0  0  0  0  0  0  0  0  0  0
  143.5299   76.7883  218.3213 H   0  0  0  0  0  0  0  0  0  0  0  0
  143.0130   76.6223  220.7249 H   0  0  0  0  0  0  0  0  0  0  0  0
  138.2348   72.0704  221.2302 H   0  0  0  0  0  0  0  0  0  0  0  0
  137.8361   69.8695  222.3401 H   0  0  0  0  0  0  0  0  0  0  0  0
  138.4335   68.3605  224.1002 H   0  0  0  0  0  0  0  0  0  0  0  0
  141.5116   69.4055  226.8929 H   0  0  0  0  0  0  0  0  0  0  0  0
  141.8306   71.5472  225.7296 H   0  0  0  0  0  0  0  0  0  0  0  0
  1  2  2  0
  2  3  1  0
  3  4  1  0
  4  5  1  0
  5  6  2  0
  5  7  1  0
  7  8  1  0
  8  9  1  0
  9 10  1  0
 10 11  1  0
 11 12  1  0
 12 13  1  0
 13 14  1  0
 14 15  2  0
 15 16  1  0
 16 17  2  0
 17 18  1  0
 17 19  1  0
 19 20  2  0
  2 21  1  0
 21 22  2  0
 22 23  1  0
 23 24  2  0
 24 25  1  0
 25 26  2  0
 26 27  1  0
 26 28  1  0
 28 29  2  0
 29 30  1  0
 30 31  2  0
 13  7  1  0
 20 14  1  0
 31 21  1  0
 30 24  1  0
  3 32  1  0
  4 33  1  0
  4 34  1  0
  8 35  1  0
  8 36  1  0
  9 37  1  0
  9 38  1  0
 10 39  1  0
 10 40  1  0
 11 41  1  0
 11 42  1  0
 12 43  1  0
 12 44  1  0
 13 45  1  1
 15 46  1  0
 16 47  1  0
 18 48  1  0
 19 49  1  0
 20 50  1  0
 22 51  1  0
 23 52  1  0
 25 53  1  0
 28 54  1  0
 29 55  1  0
M  END
>  <smiles>  (17) 
O=C(NCC(=O)N1CCCCCC1c1ccc(O)cc1)c1ccc2cc(Cl)ccc2n1

>  <score_type>  (17) 
oracle

>  <origin>  (17) 
autodockgpu

>  <m_score__min__energy>  (17) 
-6.6699999999999999

>  <m_primary>  (17) 
energy

>  <rmsd>  (17) 
4.128804073340026

>  <m_score__min__rmsd>  (17) 
4.128804073340026

>  <meeko>  (17) 
{"free_energy": -6.67, "intermolecular_energy": -10.25, "internal_energy": -1.39, "cluster_size": 6, "cluster_id": 1, "rank_in_cluster": 1}

>  <energy>  (17) 
-5.64

>  <cluster_rmsd>  (17) 
0.49

>  <cluster>  (17) 
2

$$$$

     RDKit          3D

 55 58  0  0  0  0  0  0  0  0999 V2000
  137.6030   76.0190  223.2330 O   0  0  0  0  0  0  0  0  0  0  0  0
  138.1430   76.1560  222.0940 C   0  0  0  0  0  0  0  0  0  0  0  0
  137.4390   76.9800  221.1610 N   0  0  0  0  0  0  0  0  0  0  0  0
  136.1890   77.5590  221.6360 C   0  0  0  0  0  0  0  0  0  0  0  0
  136.4330   78.6200  222.6470 C   0  0  0  0  0  0  0  0  0  0  0  0
  135.7840   78.6310  223.7350 O   0  0  0  0  0  0  0  0  0  0  0  0
  137.4000   79.6010  222.3580 N   0  0  0  0  0  0  0  0  0  0  0  0
  137.5960   80.0010  220.9830 C   0  0  0  0  0  0  0  0  0  0  0  0
  136.6390   81.0840  220.5570 C   0  0  0  0  0  0  0  0  0  0  0  0
  136.6140   82.2590  221.5000 C   0  0  0  0  0  0  0  0  0  0  0  0
  137.7920   82.3410  222.4180 C   0  0  0  0  0  0  0  0  0  0  0  0
  137.6260   81.5440  223.6960 C   0  0  0  0  0  0  0  0  0  0  0  0
  138.1280   80.1330  223.4980 C   0  0  2  0  0  0  0  0  0  0  0  0
  139.5930   80.1000  223.3240 C   0  0  0  0  0  0  0  0  0  0  0  0
  140.3380   81.2610  223.2400 C   0  0  0  0  0  0  0  0  0  0  0  0
  141.7240   81.2060  223.0770 C   0  0  0  0  0  0  0  0  0  0  0  0
  142.3780   79.9760  222.9940 C   0  0  0  0  0  0  0  0  0  0  0  0
  143.7570   79.8880  222.8310 O   0  0  0  0  0  0  0  0  0  0  0  0
  141.6280   78.7980  223.0790 C   0  0  0  0  0  0  0  0  0  0  0  0
  140.2610   78.8970  223.2410 C   0  0  0  0  0  0  0  0  0  0  0  0
  139.4060   75.5170  221.7430 C   0  0  0  0  0  0  0  0  0  0  0  0
  139.5610   74.1870  222.0870 C   0  0  0  0  0  0  0  0  0  0  0  0
  140.7220   73.4780  221.8030 C   0  0  0  0  0  0  0  0  0  0  0  0
  141.7280   74.1640  221.1540 C   0  0  0  0  0  0  0  0  0  0  0  0
  142.9030   73.5250  220.8420 C   0  0  0  0  0  0  0  0  0  0  0  0
  143.9460   74.1770  220.1870 C   0  0  0  0  0  0  0  0  0  0  0  0
  145.4270   73.3440  219.8020 Cl  0  0  0  0  0  0  0  0  0  0  0  0
  143.7370   75.5110  219.8660 C   0  0  0  0  0  0  0  0  0  0  0  0
  142.5580   76.1560  220.1780 C   0  0  0  0  0  0  0  0  0  0  0  0
  141.5360   75.4910  220.8270 C   0  0  0  0  0  0  0  0  0  0  0  0
  140.4000   76.1610  221.1120 N   0  0  0  0  0  0  0  0  0  0  0  0
  137.8110   77.1470  220.1970 H   0  0  0  0  0  0  0  0  0  0  0  0
  135.6494   77.9952  220.7824 H   0  0  0  0  0  0  0  0  0  0  0  0
  135.5950   76.7619  222.1070 H   0  0  0  0  0  0  0  0  0  0  0  0
  138.6246   80.3730  220.8667 H   0  0  0  0  0  0  0  0  0  0  0  0
  137.4107   79.1217  220.3486 H   0  0  0  0  0  0  0  0  0  0  0  0
  136.9372   81.4418  219.5605 H   0  0  0  0  0  0  0  0  0  0  0  0
  135.6300   80.6459  220.5540 H   0  0  0  0  0  0  0  0  0  0  0  0
  136.5806   83.1805  220.9003 H   0  0  0  0  0  0  0  0  0  0  0  0
  135.7275   82.1298  222.1384 H   0  0  0  0  0  0  0  0  0  0  0  0
  138.6753   81.9607  221.8840 H   0  0  0  0  0  0  0  0  0  0  0  0
  137.8992   83.3963  222.7093 H   0  0  0  0  0  0  0  0  0  0  0  0
  138.2005   82.0247  224.5015 H   0  0  0  0  0  0  0  0  0  0  0  0
  136.5596   81.5120  223.9639 H   0  0  0  0  0  0  0  0  0  0  0  0
  137.9448   79.5065  224.3834 H   0  0  0  0  0  0  0  0  0  0  0  0
  139.8348   82.2372  223.3021 H   0  0  0  0  0  0  0  0  0  0  0  0
  142.3040   82.1385  223.0136 H   0  0  0  0  0  0  0  0  0  0  0  0
  144.1530   79.2290  222.1480 H   0  0  0  0  0  0  0  0  0  0  0  0
  142.1171   77.8146  223.0180 H   0  0  0  0  0  0  0  0  0  0  0  0
  139.6746   77.9687  223.3073 H   0  0  0  0  0  0  0  0  0  0  0  0
  138.7372   73.6724  222.6032 H   0  0  0  0  0  0  0  0  0  0  0  0
  140.8337   72.4199  222.0824 H   0  0  0  0  0  0  0  0  0  0  0  0
  143.0244   72.4670  221.1173 H   0  0  0  0  0  0  0  0  0  0  0  0
  144.5321   76.0686  219.3494 H   0  0  0  0  0  0  0  0  0  0  0  0
  142.4301   77.2142  219.9062 H   0  0  0  0  0  0  0  0  0  0  0  0
  1  2  2  0
  2  3  1  0
  3  4  1  0
  4  5  1  0
  5  6  2  0
  5  7  1  0
  7  8  1  0
  8  9  1  0
  9 10  1  0
 10 11  1  0
 11 12  1  0
 12 13  1  0
 13 14  1  0
 14 15  2  0
 15 16  1  0
 16 17  2  0
 17 18  1  0
 17 19  1  0
 19 20  2  0
  2 21  1  0
 21 22  2  0
 22 23  1  0
 23 24  2  0
 24 25  1  0
 25 26  2  0
 26 27  1  0
 26 28  1  0
 28 29  2  0
 29 30  1  0
 30 31  2  0
 13  7  1  0
 20 14  1  0
 31 21  1  0
 30 24  1  0
  3 32  1  0
  4 33  1  0
  4 34  1  0
  8 35  1  0
  8 36  1  0
  9 37  1  0
  9 38  1  0
 10 39  1  0
 10 40  1  0
 11 41  1  0
 11 42  1  0
 12 43  1  0
 12 44  1  0
 13 45  1  1
 15 46  1  0
 16 47  1  0
 18 48  1  0
 19 49  1  0
 20 50  1  0
 22 51  1  0
 23 52  1  0
 25 53  1  0
 28 54  1  0
 29 55  1  0
M  END
>  <smiles>  (18) 
O=C(NCC(=O)N1CCCCCC1c1ccc(O)cc1)c1ccc2cc(Cl)ccc2n1

>  <score_type>  (18) 
oracle

>  <origin>  (18) 
autodockgpu

>  <m_score__min__energy>  (18) 
-6.6699999999999999

>  <m_primary>  (18) 
energy

>  <rmsd>  (18) 
6.776037506887414

>  <m_score__min__rmsd>  (18) 
6.776037506887414

>  <meeko>  (18) 
{"free_energy": -4.31, "intermolecular_energy": -7.89, "internal_energy": -2.08, "cluster_size": 3, "cluster_id": 13, "rank_in_cluster": 3}

>  <energy>  (18) 
-5.1

>  <cluster_rmsd>  (18) 
1.16

>  <cluster>  (18) 
2

$$$$

     RDKit          3D

 55 58  0  0  0  0  0  0  0  0999 V2000
  139.3490   71.9690  220.6920 O   0  0  0  0  0  0  0  0  0  0  0  0
  138.9760   72.2950  221.8590 C   0  0  0  0  0  0  0  0  0  0  0  0
  138.2400   73.5150  221.9650 N   0  0  0  0  0  0  0  0  0  0  0  0
  138.0080   74.2320  220.7180 C   0  0  0  0  0  0  0  0  0  0  0  0
  139.2170   74.9850  220.2930 C   0  0  0  0  0  0  0  0  0  0  0  0
  139.9550   74.5420  219.3640 O   0  0  0  0  0  0  0  0  0  0  0  0
  139.5090   76.1950  220.9500 N   0  0  0  0  0  0  0  0  0  0  0  0
  138.5110   77.2420  220.9570 C   0  0  0  0  0  0  0  0  0  0  0  0
  138.1770   77.7080  222.3500 C   0  0  0  0  0  0  0  0  0  0  0  0
  139.1290   78.7530  222.8710 C   0  0  0  0  0  0  0  0  0  0  0  0
  140.5460   78.2900  222.9970 C   0  0  0  0  0  0  0  0  0  0  0  0
  141.1260   77.7530  221.7080 C   0  0  0  0  0  0  0  0  0  0  0  0
  140.8170   76.2800  221.5770 C   0  0  2  0  0  0  0  0  0  0  0  0
  141.8730   75.5720  220.8270 C   0  0  0  0  0  0  0  0  0  0  0  0
  142.2100   74.2630  221.1130 C   0  0  0  0  0  0  0  0  0  0  0  0
  143.2120   73.6120  220.3900 C   0  0  0  0  0  0  0  0  0  0  0  0
  143.8910   74.2760  219.3670 C   0  0  0  0  0  0  0  0  0  0  0  0
  144.8930   73.6570  218.6280 O   0  0  0  0  0  0  0  0  0  0  0  0
  143.5530   75.6020  219.0730 C   0  0  0  0  0  0  0  0  0  0  0  0
  142.5560   76.2080  219.8120 C   0  0  0  0  0  0  0  0  0  0  0  0
  139.2760   71.4820  223.0330 C   0  0  0  0  0  0  0  0  0  0  0  0
  138.8850   70.1560  223.0020 C   0  0  0  0  0  0  0  0  0  0  0  0
  139.1190   69.2900  224.0640 C   0  0  0  0  0  0  0  0  0  0  0  0
  139.7650   69.8140  225.1650 C   0  0  0  0  0  0  0  0  0  0  0  0
  140.0280   69.0150  226.2510 C   0  0  0  0  0  0  0  0  0  0  0  0
  140.6770   69.4990  227.3830 C   0  0  0  0  0  0  0  0  0  0  0  0
  141.0000   68.4640  228.7480 Cl  0  0  0  0  0  0  0  0  0  0  0  0
  141.0460   70.8370  227.3600 C   0  0  0  0  0  0  0  0  0  0  0  0
  140.7840   71.6430  226.2720 C   0  0  0  0  0  0  0  0  0  0  0  0
  140.1390   71.1420  225.1580 C   0  0  0  0  0  0  0  0  0  0  0  0
  139.9020   71.9670  224.1160 N   0  0  0  0  0  0  0  0  0  0  0  0
  137.8940   73.8620  222.8900 H   0  0  0  0  0  0  0  0  0  0  0  0
  137.7426   73.5085  219.9331 H   0  0  0  0  0  0  0  0  0  0  0  0
  137.1909   74.9507  220.8785 H   0  0  0  0  0  0  0  0  0  0  0  0
  138.8925   78.0975  220.3803 H   0  0  0  0  0  0  0  0  0  0  0  0
  137.5925   76.8327  220.5111 H   0  0  0  0  0  0  0  0  0  0  0  0
  137.1621   78.1323  222.3427 H   0  0  0  0  0  0  0  0  0  0  0  0
  138.2552   76.8346  223.0142 H   0  0  0  0  0  0  0  0  0  0  0  0
  139.1074   79.6115  222.1836 H   0  0  0  0  0  0  0  0  0  0  0  0
  138.7905   79.0080  223.8861 H   0  0  0  0  0  0  0  0  0  0  0  0
  141.1612   79.1400  223.3272 H   0  0  0  0  0  0  0  0  0  0  0  0
  140.5509   77.4623  223.7215 H   0  0  0  0  0  0  0  0  0  0  0  0
  140.6866   78.2945  220.8573 H   0  0  0  0  0  0  0  0  0  0  0  0
  142.2169   77.8939  221.7164 H   0  0  0  0  0  0  0  0  0  0  0  0
  140.7944   75.7786  222.5558 H   0  0  0  0  0  0  0  0  0  0  0  0
  141.6841   73.7285  221.9178 H   0  0  0  0  0  0  0  0  0  0  0  0
  143.4678   72.5690  220.6283 H   0  0  0  0  0  0  0  0  0  0  0  0
  145.5510   74.2230  218.0770 H   0  0  0  0  0  0  0  0  0  0  0  0
  144.0700   76.1494  218.2711 H   0  0  0  0  0  0  0  0  0  0  0  0
  142.2936   77.2505  219.5791 H   0  0  0  0  0  0  0  0  0  0  0  0
  138.3718   69.7737  222.1073 H   0  0  0  0  0  0  0  0  0  0  0  0
  138.8040   68.2367  224.0283 H   0  0  0  0  0  0  0  0  0  0  0  0
  139.7161   67.9605  226.2251 H   0  0  0  0  0  0  0  0  0  0  0  0
  141.5609   71.2656  228.2324 H   0  0  0  0  0  0  0  0  0  0  0  0
  141.0927   72.6986  226.2916 H   0  0  0  0  0  0  0  0  0  0  0  0
  1  2  2  0
  2  3  1  0
  3  4  1  0
  4  5  1  0
  5  6  2  0
  5  7  1  0
  7  8  1  0
  8  9  1  0
  9 10  1  0
 10 11  1  0
 11 12  1  0
 12 13  1  0
 13 14  1  0
 14 15  2  0
 15 16  1  0
 16 17  2  0
 17 18  1  0
 17 19  1  0
 19 20  2  0
  2 21  1  0
 21 22  2  0
 22 23  1  0
 23 24  2  0
 24 25  1  0
 25 26  2  0
 26 27  1  0
 26 28  1  0
 28 29  2  0
 29 30  1  0
 30 31  2  0
 13  7  1  0
 20 14  1  0
 31 21  1  0
 30 24  1  0
  3 32  1  0
  4 33  1  0
  4 34  1  0
  8 35  1  0
  8 36  1  0
  9 37  1  0
  9 38  1  0
 10 39  1  0
 10 40  1  0
 11 41  1  0
 11 42  1  0
 12 43  1  0
 12 44  1  0
 13 45  1  1
 15 46  1  0
 16 47  1  0
 18 48  1  0
 19 49  1  0
 20 50  1  0
 22 51  1  0
 23 52  1  0
 25 53  1  0
 28 54  1  0
 29 55  1  0
M  END
>  <smiles>  (19) 
O=C(NCC(=O)N1CCCCCC1c1ccc(O)cc1)c1ccc2cc(Cl)ccc2n1

>  <score_type>  (19) 
oracle

>  <origin>  (19) 
autodockgpu

>  <m_score__min__energy>  (19) 
-6.6699999999999999

>  <m_primary>  (19) 
energy

>  <rmsd>  (19) 
2.5471564835483624

>  <m_score__min__rmsd>  (19) 
2.5471564835483624

>  <meeko>  (19) 
{"free_energy": -6.03, "intermolecular_energy": -9.61, "internal_energy": -1.6, "cluster_size": 12, "cluster_id": 2, "rank_in_cluster": 7}

>  <energy>  (19) 
-6.05

>  <cluster_rmsd>  (19) 
0.0

>  <cluster>  (19) 
3

$$$$

     RDKit          3D

 55 58  0  0  0  0  0  0  0  0999 V2000
  140.8930   73.8430  220.9390 O   0  0  0  0  0  0  0  0  0  0  0  0
  140.1550   73.8300  221.9690 C   0  0  0  0  0  0  0  0  0  0  0  0
  139.5430   75.0730  222.3190 N   0  0  0  0  0  0  0  0  0  0  0  0
  139.8440   76.2020  221.4480 C   0  0  0  0  0  0  0  0  0  0  0  0
  139.3600   77.4800  222.0300 C   0  0  0  0  0  0  0  0  0  0  0  0
  138.4430   77.4810  222.9050 O   0  0  0  0  0  0  0  0  0  0  0  0
  139.9500   78.6770  221.5830 N   0  0  0  0  0  0  0  0  0  0  0  0
  139.1450   79.8780  221.5480 C   0  0  0  0  0  0  0  0  0  0  0  0
  139.0990   80.5790  222.8790 C   0  0  0  0  0  0  0  0  0  0  0  0
  140.4570   80.7450  223.5110 C   0  0  0  0  0  0  0  0  0  0  0  0
  141.3050   79.5120  223.4880 C   0  0  0  0  0  0  0  0  0  0  0  0
  142.1230   79.3710  222.2260 C   0  0  0  0  0  0  0  0  0  0  0  0
  141.3460   78.5920  221.1900 C   0  0  2  0  0  0  0  0  0  0  0  0
  141.6040   79.0990  219.8290 C   0  0  0  0  0  0  0  0  0  0  0  0
  141.5930   78.2620  218.7300 C   0  0  0  0  0  0  0  0  0  0  0  0
  141.8390   78.7630  217.4510 C   0  0  0  0  0  0  0  0  0  0  0  0
  142.1010   80.1210  217.2610 C   0  0  0  0  0  0  0  0  0  0  0  0
  142.3490   80.6530  216.0000 O   0  0  0  0  0  0  0  0  0  0  0  0
  142.1120   80.9740  218.3710 C   0  0  0  0  0  0  0  0  0  0  0  0
  141.8640   80.4370  219.6180 C   0  0  0  0  0  0  0  0  0  0  0  0
  139.9350   72.6240  222.7600 C   0  0  0  0  0  0  0  0  0  0  0  0
  138.8520   71.8340  222.4220 C   0  0  0  0  0  0  0  0  0  0  0  0
  138.5470   70.6630  223.1070 C   0  0  0  0  0  0  0  0  0  0  0  0
  139.3790   70.3160  224.1510 C   0  0  0  0  0  0  0  0  0  0  0  0
  139.1370   69.1720  224.8710 C   0  0  0  0  0  0  0  0  0  0  0  0
  139.9500   68.7830  225.9330 C   0  0  0  0  0  0  0  0  0  0  0  0
  139.6210   67.3260  226.8310 Cl  0  0  0  0  0  0  0  0  0  0  0  0
  141.0210   69.6140  226.2290 C   0  0  0  0  0  0  0  0  0  0  0  0
  141.2680   70.7630  225.5080 C   0  0  0  0  0  0  0  0  0  0  0  0
  140.4500   71.1310  224.4580 C   0  0  0  0  0  0  0  0  0  0  0  0
  140.7290   72.2650  223.7800 N   0  0  0  0  0  0  0  0  0  0  0  0
  138.9190   75.1550  223.1550 H   0  0  0  0  0  0  0  0  0  0  0  0
  140.9330   76.2635  221.3053 H   0  0  0  0  0  0  0  0  0  0  0  0
  139.3326   76.0437  220.4871 H   0  0  0  0  0  0  0  0  0  0  0  0
  139.5692   80.5656  220.8015 H   0  0  0  0  0  0  0  0  0  0  0  0
  138.1171   79.5844  221.2888 H   0  0  0  0  0  0  0  0  0  0  0  0
  138.6570   81.5758  222.7338 H   0  0  0  0  0  0  0  0  0  0  0  0
  138.4979   79.9545  223.5562 H   0  0  0  0  0  0  0  0  0  0  0  0
  140.9922   81.5407  222.9721 H   0  0  0  0  0  0  0  0  0  0  0  0
  140.2828   80.9863  224.5700 H   0  0  0  0  0  0  0  0  0  0  0  0
  141.9915   79.5447  224.3469 H   0  0  0  0  0  0  0  0  0  0  0  0
  140.6247   78.6487  223.5327 H   0  0  0  0  0  0  0  0  0  0  0  0
  142.3571   80.3703  221.8302 H   0  0  0  0  0  0  0  0  0  0  0  0
  143.0544   78.8336  222.4579 H   0  0  0  0  0  0  0  0  0  0  0  0
  141.6583   77.5380  221.1516 H   0  0  0  0  0  0  0  0  0  0  0  0
  141.3882   77.1896  218.8645 H   0  0  0  0  0  0  0  0  0  0  0  0
  141.8264   78.0831  216.5864 H   0  0  0  0  0  0  0  0  0  0  0  0
  143.2940   80.6010  215.5970 H   0  0  0  0  0  0  0  0  0  0  0  0
  142.3139   82.0487  218.2519 H   0  0  0  0  0  0  0  0  0  0  0  0
  141.8742   81.1103  220.4878 H   0  0  0  0  0  0  0  0  0  0  0  0
  138.2103   72.1420  221.5833 H   0  0  0  0  0  0  0  0  0  0  0  0
  137.6824   70.0422  222.8292 H   0  0  0  0  0  0  0  0  0  0  0  0
  138.2752   68.5440  224.6010 H   0  0  0  0  0  0  0  0  0  0  0  0
  141.6905   69.3492  227.0606 H   0  0  0  0  0  0  0  0  0  0  0  0
  142.1284   71.3952  225.7728 H   0  0  0  0  0  0  0  0  0  0  0  0
  1  2  2  0
  2  3  1  0
  3  4  1  0
  4  5  1  0
  5  6  2  0
  5  7  1  0
  7  8  1  0
  8  9  1  0
  9 10  1  0
 10 11  1  0
 11 12  1  0
 12 13  1  0
 13 14  1  0
 14 15  2  0
 15 16  1  0
 16 17  2  0
 17 18  1  0
 17 19  1  0
 19 20  2  0
  2 21  1  0
 21 22  2  0
 22 23  1  0
 23 24  2  0
 24 25  1  0
 25 26  2  0
 26 27  1  0
 26 28  1  0
 28 29  2  0
 29 30  1  0
 30 31  2  0
 13  7  1  0
 20 14  1  0
 31 21  1  0
 30 24  1  0
  3 32  1  0
  4 33  1  0
  4 34  1  0
  8 35  1  0
  8 36  1  0
  9 37  1  0
  9 38  1  0
 10 39  1  0
 10 40  1  0
 11 41  1  0
 11 42  1  0
 12 43  1  0
 12 44  1  0
 13 45  1  6
 15 46  1  0
 16 47  1  0
 18 48  1  0
 19 49  1  0
 20 50  1  0
 22 51  1  0
 23 52  1  0
 25 53  1  0
 28 54  1  0
 29 55  1  0
M  END
>  <smiles>  (20) 
O=C(NCC(=O)N1CCCCCC1c1ccc(O)cc1)c1ccc2cc(Cl)ccc2n1

>  <score_type>  (20) 
oracle

>  <origin>  (20) 
autodockgpu

>  <m_score__min__energy>  (20) 
-6.6699999999999999

>  <m_primary>  (20) 
energy

>  <rmsd>  (20) 
3.89496853129048

>  <m_score__min__rmsd>  (20) 
3.89496853129048

>  <meeko>  (20) 
{"free_energy": -6.12, "intermolecular_energy": -9.7, "internal_energy": -1.77, "cluster_size": 6, "cluster_id": 1, "rank_in_cluster": 2}

>  <energy>  (20) 
-5.9

>  <cluster_rmsd>  (20) 
1.58

>  <cluster>  (20) 
3

$$$$

     RDKit          3D

 55 58  0  0  0  0  0  0  0  0999 V2000
  140.4820   72.4940  220.7020 O   0  0  0  0  0  0  0  0  0  0  0  0
  140.0010   72.8010  221.8330 C   0  0  0  0  0  0  0  0  0  0  0  0
  139.4170   74.1020  221.9340 N   0  0  0  0  0  0  0  0  0  0  0  0
  139.4480   74.9130  220.7240 C   0  0  0  0  0  0  0  0  0  0  0  0
  139.8260   76.3180  221.0230 C   0  0  0  0  0  0  0  0  0  0  0  0
  139.0700   77.0490  221.7320 O   0  0  0  0  0  0  0  0  0  0  0  0
  141.0370   76.8050  220.4990 N   0  0  0  0  0  0  0  0  0  0  0  0
  142.1530   75.8950  220.3660 C   0  0  0  0  0  0  0  0  0  0  0  0
  142.4510   75.5560  218.9300 C   0  0  0  0  0  0  0  0  0  0  0  0
  141.4190   76.0850  217.9670 C   0  0  0  0  0  0  0  0  0  0  0  0
  141.4580   77.5670  217.7720 C   0  0  0  0  0  0  0  0  0  0  0  0
  142.0050   78.3280  218.9620 C   0  0  0  0  0  0  0  0  0  0  0  0
  141.0530   78.2100  220.1290 C   0  0  2  0  0  0  0  0  0  0  0  0
  141.4450   79.1030  221.2370 C   0  0  0  0  0  0  0  0  0  0  0  0
  141.7610   80.4310  221.0210 C   0  0  0  0  0  0  0  0  0  0  0  0
  142.1280   81.2570  222.0840 C   0  0  0  0  0  0  0  0  0  0  0  0
  142.1830   80.7540  223.3850 C   0  0  0  0  0  0  0  0  0  0  0  0
  142.5460   81.5510  224.4660 O   0  0  0  0  0  0  0  0  0  0  0  0
  141.8640   79.4100  223.6100 C   0  0  0  0  0  0  0  0  0  0  0  0
  141.5050   78.6280  222.5310 C   0  0  0  0  0  0  0  0  0  0  0  0
  140.0340   71.8910  222.9730 C   0  0  0  0  0  0  0  0  0  0  0  0
  139.5360   70.6160  222.7800 C   0  0  0  0  0  0  0  0  0  0  0  0
  139.5170   69.6660  223.7950 C   0  0  0  0  0  0  0  0  0  0  0  0
  140.0230   70.0520  225.0190 C   0  0  0  0  0  0  0  0  0  0  0  0
  140.0350   69.1650  226.0670 C   0  0  0  0  0  0  0  0  0  0  0  0
  140.5350   69.5100  227.3200 C   0  0  0  0  0  0  0  0  0  0  0  0
  140.5400   68.3650  228.6340 Cl  0  0  0  0  0  0  0  0  0  0  0  0
  141.0210   70.8020  227.4580 C   0  0  0  0  0  0  0  0  0  0  0  0
  141.0100   71.6970  226.4080 C   0  0  0  0  0  0  0  0  0  0  0  0
  140.5100   71.3340  225.1730 C   0  0  0  0  0  0  0  0  0  0  0  0
  140.5190   72.2420  224.1740 N   0  0  0  0  0  0  0  0  0  0  0  0
  138.9960   74.4400  222.8320 H   0  0  0  0  0  0  0  0  0  0  0  0
  140.1824   74.4857  220.0254 H   0  0  0  0  0  0  0  0  0  0  0  0
  138.4413   74.9121  220.2807 H   0  0  0  0  0  0  0  0  0  0  0  0
  143.0442   76.3620  220.8107 H   0  0  0  0  0  0  0  0  0  0  0  0
  141.8865   74.9608  220.8821 H   0  0  0  0  0  0  0  0  0  0  0  0
  143.4285   75.9855  218.6653 H   0  0  0  0  0  0  0  0  0  0  0  0
  142.4442   74.4593  218.8455 H   0  0  0  0  0  0  0  0  0  0  0  0
  141.5817   75.6052  216.9906 H   0  0  0  0  0  0  0  0  0  0  0  0
  140.4357   75.8514  218.4012 H   0  0  0  0  0  0  0  0  0  0  0  0
  142.0921   77.7851  216.9001 H   0  0  0  0  0  0  0  0  0  0  0  0
  140.4185   77.8982  217.6314 H   0  0  0  0  0  0  0  0  0  0  0  0
  142.9823   77.9096  219.2447 H   0  0  0  0  0  0  0  0  0  0  0  0
  142.1186   79.3885  218.6928 H   0  0  0  0  0  0  0  0  0  0  0  0
  140.0370   78.5360  219.8617 H   0  0  0  0  0  0  0  0  0  0  0  0
  141.7228   80.8409  220.0009 H   0  0  0  0  0  0  0  0  0  0  0  0
  142.3758   82.3120  221.8955 H   0  0  0  0  0  0  0  0  0  0  0  0
  143.2430   82.2970  224.3440 H   0  0  0  0  0  0  0  0  0  0  0  0
  141.8986   78.9863  224.6245 H   0  0  0  0  0  0  0  0  0  0  0  0
  141.2540   77.5724  222.7118 H   0  0  0  0  0  0  0  0  0  0  0  0
  139.1414   70.3438  221.7899 H   0  0  0  0  0  0  0  0  0  0  0  0
  139.1174   68.6545  223.6299 H   0  0  0  0  0  0  0  0  0  0  0  0
  139.6376   68.1511  225.9121 H   0  0  0  0  0  0  0  0  0  0  0  0
  141.4256   71.1212  228.4298 H   0  0  0  0  0  0  0  0  0  0  0  0
  141.4047   72.7130  226.5566 H   0  0  0  0  0  0  0  0  0  0  0  0
  1  2  2  0
  2  3  1  0
  3  4  1  0
  4  5  1  0
  5  6  2  0
  5  7  1  0
  7  8  1  0
  8  9  1  0
  9 10  1  0
 10 11  1  0
 11 12  1  0
 12 13  1  0
 13 14  1  0
 14 15  2  0
 15 16  1  0
 16 17  2  0
 17 18  1  0
 17 19  1  0
 19 20  2  0
  2 21  1  0
 21 22  2  0
 22 23  1  0
 23 24  2  0
 24 25  1  0
 25 26  2  0
 26 27  1  0
 26 28  1  0
 28 29  2  0
 29 30  1  0
 30 31  2  0
 13  7  1  0
 20 14  1  0
 31 21  1  0
 30 24  1  0
  3 32  1  0
  4 33  1  0
  4 34  1  0
  8 35  1  0
  8 36  1  0
  9 37  1  0
  9 38  1  0
 10 39  1  0
 10 40  1  0
 11 41  1  0
 11 42  1  0
 12 43  1  0
 12 44  1  0
 13 45  1  6
 15 46  1  0
 16 47  1  0
 18 48  1  0
 19 49  1  0
 20 50  1  0
 22 51  1  0
 23 52  1  0
 25 53  1  0
 28 54  1  0
 29 55  1  0
M  END
>  <smiles>  (21) 
O=C(NCC(=O)N1CCCCCC1c1ccc(O)cc1)c1ccc2cc(Cl)ccc2n1

>  <score_type>  (21) 
oracle

>  <origin>  (21) 
autodockgpu

>  <m_score__min__energy>  (21) 
-6.6699999999999999

>  <m_primary>  (21) 
energy

>  <rmsd>  (21) 
2.122217343370572

>  <m_score__min__rmsd>  (21) 
2.122217343370572

>  <meeko>  (21) 
{"free_energy": -6.05, "intermolecular_energy": -9.63, "internal_energy": -1.63, "cluster_size": 4, "cluster_id": 3, "rank_in_cluster": 1}

>  <energy>  (21) 
-5.87

>  <cluster_rmsd>  (21) 
1.2

>  <cluster>  (21) 
3

$$$$

     RDKit          3D

 55 58  0  0  0  0  0  0  0  0999 V2000
  139.4510   74.1340  222.0510 O   0  0  0  0  0  0  0  0  0  0  0  0
  140.6570   74.4180  221.7800 C   0  0  0  0  0  0  0  0  0  0  0  0
  141.0630   75.7600  222.0600 N   0  0  0  0  0  0  0  0  0  0  0  0
  140.0420   76.6340  222.6230 C   0  0  0  0  0  0  0  0  0  0  0  0
  140.0840   77.9840  222.0050 C   0  0  0  0  0  0  0  0  0  0  0  0
  139.1420   78.3760  221.2530 O   0  0  0  0  0  0  0  0  0  0  0  0
  141.1940   78.8040  222.2800 N   0  0  0  0  0  0  0  0  0  0  0  0
  141.5090   79.1090  223.6580 C   0  0  0  0  0  0  0  0  0  0  0  0
  142.1730   80.4520  223.8130 C   0  0  0  0  0  0  0  0  0  0  0  0
  141.4610   81.5560  223.0750 C   0  0  0  0  0  0  0  0  0  0  0  0
  141.8630   81.7010  221.6410 C   0  0  0  0  0  0  0  0  0  0  0  0
  141.3220   80.6060  220.7450 C   0  0  0  0  0  0  0  0  0  0  0  0
  141.9380   79.2790  221.1250 C   0  0  2  0  0  0  0  0  0  0  0  0
  141.9270   78.3340  219.9920 C   0  0  0  0  0  0  0  0  0  0  0  0
  142.7140   77.1980  219.9880 C   0  0  0  0  0  0  0  0  0  0  0  0
  142.6880   76.3180  218.9060 C   0  0  0  0  0  0  0  0  0  0  0  0
  141.8640   76.5710  217.8070 C   0  0  0  0  0  0  0  0  0  0  0  0
  141.8140   75.7140  216.7130 O   0  0  0  0  0  0  0  0  0  0  0  0
  141.0640   77.7190  217.8060 C   0  0  0  0  0  0  0  0  0  0  0  0
  141.1200   78.5640  218.8970 C   0  0  0  0  0  0  0  0  0  0  0  0
  141.5840   73.4440  221.2160 C   0  0  0  0  0  0  0  0  0  0  0  0
  141.0900   72.1810  220.9480 C   0  0  0  0  0  0  0  0  0  0  0  0
  141.8830   71.1730  220.4100 C   0  0  0  0  0  0  0  0  0  0  0  0
  143.2010   71.4900  220.1500 C   0  0  0  0  0  0  0  0  0  0  0  0
  144.0410   70.5430  219.6180 C   0  0  0  0  0  0  0  0  0  0  0  0
  145.3780   70.8160  219.3390 C   0  0  0  0  0  0  0  0  0  0  0  0
  146.4250   69.5970  218.6640 Cl  0  0  0  0  0  0  0  0  0  0  0  0
  145.8200   72.1000  219.6280 C   0  0  0  0  0  0  0  0  0  0  0  0
  144.9790   73.0530  220.1620 C   0  0  0  0  0  0  0  0  0  0  0  0
  143.6570   72.7620  220.4310 C   0  0  0  0  0  0  0  0  0  0  0  0
  142.8700   73.7250  220.9540 N   0  0  0  0  0  0  0  0  0  0  0  0
  142.0410   76.0820  221.8670 H   0  0  0  0  0  0  0  0  0  0  0  0
  139.0519   76.1892  222.4445 H   0  0  0  0  0  0  0  0  0  0  0  0
  140.2332   76.7404  223.7010 H   0  0  0  0  0  0  0  0  0  0  0  0
  140.5769   79.1066  224.2420 H   0  0  0  0  0  0  0  0  0  0  0  0
  142.2129   78.3440  224.0177 H   0  0  0  0  0  0  0  0  0  0  0  0
  142.1996   80.7073  224.8826 H   0  0  0  0  0  0  0  0  0  0  0  0
  143.1818   80.3691  223.3823 H   0  0  0  0  0  0  0  0  0  0  0  0
  140.3806   81.3523  223.1104 H   0  0  0  0  0  0  0  0  0  0  0  0
  141.7370   82.4962  223.5748 H   0  0  0  0  0  0  0  0  0  0  0  0
  141.4907   82.6680  221.2717 H   0  0  0  0  0  0  0  0  0  0  0  0
  142.9604   81.6335  221.6056 H   0  0  0  0  0  0  0  0  0  0  0  0
  140.2296   80.5472  220.8598 H   0  0  0  0  0  0  0  0  0  0  0  0
  141.5742   80.8361  219.6993 H   0  0  0  0  0  0  0  0  0  0  0  0
  143.0023   79.3816  221.3832 H   0  0  0  0  0  0  0  0  0  0  0  0
  143.3676   76.9856  220.8469 H   0  0  0  0  0  0  0  0  0  0  0  0
  143.3209   75.4184  218.9184 H   0  0  0  0  0  0  0  0  0  0  0  0
  141.6560   76.0920  215.7700 H   0  0  0  0  0  0  0  0  0  0  0  0
  140.4047   77.9436  216.9546 H   0  0  0  0  0  0  0  0  0  0  0  0
  140.4896   79.4655  218.8926 H   0  0  0  0  0  0  0  0  0  0  0  0
  140.0338   71.9659  221.1677 H   0  0  0  0  0  0  0  0  0  0  0  0
  141.4792   70.1712  220.2017 H   0  0  0  0  0  0  0  0  0  0  0  0
  143.6461   69.5385  219.4058 H   0  0  0  0  0  0  0  0  0  0  0  0
  146.8686   72.3638  219.4256 H   0  0  0  0  0  0  0  0  0  0  0  0
  145.3672   74.0596  220.3767 H   0  0  0  0  0  0  0  0  0  0  0  0
  1  2  2  0
  2  3  1  0
  3  4  1  0
  4  5  1  0
  5  6  2  0
  5  7  1  0
  7  8  1  0
  8  9  1  0
  9 10  1  0
 10 11  1  0
 11 12  1  0
 12 13  1  0
 13 14  1  0
 14 15  2  0
 15 16  1  0
 16 17  2  0
 17 18  1  0
 17 19  1  0
 19 20  2  0
  2 21  1  0
 21 22  2  0
 22 23  1  0
 23 24  2  0
 24 25  1  0
 25 26  2  0
 26 27  1  0
 26 28  1  0
 28 29  2  0
 29 30  1  0
 30 31  2  0
 13  7  1  0
 20 14  1  0
 31 21  1  0
 30 24  1  0
  3 32  1  0
  4 33  1  0
  4 34  1  0
  8 35  1  0
  8 36  1  0
  9 37  1  0
  9 38  1  0
 10 39  1  0
 10 40  1  0
 11 41  1  0
 11 42  1  0
 12 43  1  0
 12 44  1  0
 13 45  1  1
 15 46  1  0
 16 47  1  0
 18 48  1  0
 19 49  1  0
 20 50  1  0
 22 51  1  0
 23 52  1  0
 25 53  1  0
 28 54  1  0
 29 55  1  0
M  END
>  <smiles>  (22) 
O=C(NCC(=O)N1CCCCCC1c1ccc(O)cc1)c1ccc2cc(Cl)ccc2n1

>  <score_type>  (22) 
oracle

>  <origin>  (22) 
autodockgpu

>  <m_score__min__energy>  (22) 
-6.6699999999999999

>  <m_primary>  (22) 
energy

>  <rmsd>  (22) 
6.222992829133493

>  <m_score__min__rmsd>  (22) 
6.222992829133493

>  <meeko>  (22) 
{"free_energy": -4.44, "intermolecular_energy": -8.02, "internal_energy": -2.26, "cluster_size": 6, "cluster_id": 9, "rank_in_cluster": 6}

>  <energy>  (22) 
-5.15

>  <cluster_rmsd>  (22) 
1.76

>  <cluster>  (22) 
3

$$$$

     RDKit          3D

 55 58  0  0  0  0  0  0  0  0999 V2000
  137.3310   73.0310  221.7940 O   0  0  0  0  0  0  0  0  0  0  0  0
  138.4620   72.4680  221.8950 C   0  0  0  0  0  0  0  0  0  0  0  0
  139.3900   72.7300  220.8400 N   0  0  0  0  0  0  0  0  0  0  0  0
  138.9210   73.6110  219.7790 C   0  0  0  0  0  0  0  0  0  0  0  0
  139.4830   74.9790  219.9220 C   0  0  0  0  0  0  0  0  0  0  0  0
  139.9150   75.6050  218.9090 O   0  0  0  0  0  0  0  0  0  0  0  0
  139.5180   75.5500  221.2080 N   0  0  0  0  0  0  0  0  0  0  0  0
  138.2680   75.8190  221.8840 C   0  0  0  0  0  0  0  0  0  0  0  0
  137.7250   77.1860  221.5650 C   0  0  0  0  0  0  0  0  0  0  0  0
  138.6330   78.3050  222.0050 C   0  0  0  0  0  0  0  0  0  0  0  0
  139.8490   77.8570  222.7530 C   0  0  0  0  0  0  0  0  0  0  0  0
  140.9480   77.3240  221.8610 C   0  0  0  0  0  0  0  0  0  0  0  0
  140.8390   75.8210  221.7490 C   0  0  2  0  0  0  0  0  0  0  0  0
  141.9330   75.2600  220.9330 C   0  0  0  0  0  0  0  0  0  0  0  0
  142.6430   76.0390  220.0390 C   0  0  0  0  0  0  0  0  0  0  0  0
  143.6750   75.4870  219.2780 C   0  0  0  0  0  0  0  0  0  0  0  0
  144.0050   74.1370  219.4070 C   0  0  0  0  0  0  0  0  0  0  0  0
  145.0280   73.5560  218.6630 O   0  0  0  0  0  0  0  0  0  0  0  0
  143.2900   73.3440  220.3110 C   0  0  0  0  0  0  0  0  0  0  0  0
  142.2770   73.9290  221.0450 C   0  0  0  0  0  0  0  0  0  0  0  0
  138.8090   71.6030  223.0170 C   0  0  0  0  0  0  0  0  0  0  0  0
  138.0800   70.4380  223.1670 C   0  0  0  0  0  0  0  0  0  0  0  0
  138.3230   69.5390  224.2000 C   0  0  0  0  0  0  0  0  0  0  0  0
  139.3360   69.8600  225.0800 C   0  0  0  0  0  0  0  0  0  0  0  0
  139.6310   69.0180  226.1230 C   0  0  0  0  0  0  0  0  0  0  0  0
  140.6440   69.3010  227.0360 C   0  0  0  0  0  0  0  0  0  0  0  0
  140.9990   68.2150  228.3530 Cl  0  0  0  0  0  0  0  0  0  0  0  0
  141.3430   70.4830  226.8380 C   0  0  0  0  0  0  0  0  0  0  0  0
  141.0500   71.3320  225.7910 C   0  0  0  0  0  0  0  0  0  0  0  0
  140.0410   71.0320  224.8970 C   0  0  0  0  0  0  0  0  0  0  0  0
  139.7890   71.8920  223.8870 N   0  0  0  0  0  0  0  0  0  0  0  0
  140.3480   72.3060  220.8420 H   0  0  0  0  0  0  0  0  0  0  0  0
  139.2295   73.1971  218.8077 H   0  0  0  0  0  0  0  0  0  0  0  0
  137.8250   73.6785  219.8443 H   0  0  0  0  0  0  0  0  0  0  0  0
  137.5297   75.0647  221.5744 H   0  0  0  0  0  0  0  0  0  0  0  0
  138.4571   75.7779  222.9669 H   0  0  0  0  0  0  0  0  0  0  0  0
  137.5819   77.2597  220.4768 H   0  0  0  0  0  0  0  0  0  0  0  0
  136.7794   77.2978  222.1157 H   0  0  0  0  0  0  0  0  0  0  0  0
  138.9623   78.8529  221.1098 H   0  0  0  0  0  0  0  0  0  0  0  0
  138.0496   78.9280  222.6989 H   0  0  0  0  0  0  0  0  0  0  0  0
  140.2448   78.7139  223.3179 H   0  0  0  0  0  0  0  0  0  0  0  0
  139.5374   77.0307  223.4088 H   0  0  0  0  0  0  0  0  0  0  0  0
  140.8545   77.7716  220.8605 H   0  0  0  0  0  0  0  0  0  0  0  0
  141.9243   77.5839  222.2961 H   0  0  0  0  0  0  0  0  0  0  0  0
  140.9489   75.3294  222.7269 H   0  0  0  0  0  0  0  0  0  0  0  0
  142.3925   77.1041  219.9260 H   0  0  0  0  0  0  0  0  0  0  0  0
  144.2319   76.1204  218.5718 H   0  0  0  0  0  0  0  0  0  0  0  0
  145.6410   74.1450  218.0850 H   0  0  0  0  0  0  0  0  0  0  0  0
  143.5295   72.2775  220.4345 H   0  0  0  0  0  0  0  0  0  0  0  0
  141.7165   73.3023  221.7543 H   0  0  0  0  0  0  0  0  0  0  0  0
  137.2808   70.2145  222.4450 H   0  0  0  0  0  0  0  0  0  0  0  0
  137.7353   68.6157  224.3102 H   0  0  0  0  0  0  0  0  0  0  0  0
  139.0498   68.0916  226.2414 H   0  0  0  0  0  0  0  0  0  0  0  0
  142.1519   70.7501  227.5340 H   0  0  0  0  0  0  0  0  0  0  0  0
  141.6275   72.2599  225.6666 H   0  0  0  0  0  0  0  0  0  0  0  0
  1  2  2  0
  2  3  1  0
  3  4  1  0
  4  5  1  0
  5  6  2  0
  5  7  1  0
  7  8  1  0
  8  9  1  0
  9 10  1  0
 10 11  1  0
 11 12  1  0
 12 13  1  0
 13 14  1  0
 14 15  2  0
 15 16  1  0
 16 17  2  0
 17 18  1  0
 17 19  1  0
 19 20  2  0
  2 21  1  0
 21 22  2  0
 22 23  1  0
 23 24  2  0
 24 25  1  0
 25 26  2  0
 26 27  1  0
 26 28  1  0
 28 29  2  0
 29 30  1  0
 30 31  2  0
 13  7  1  0
 20 14  1  0
 31 21  1  0
 30 24  1  0
  3 32  1  0
  4 33  1  0
  4 34  1  0
  8 35  1  0
  8 36  1  0
  9 37  1  0
  9 38  1  0
 10 39  1  0
 10 40  1  0
 11 41  1  0
 11 42  1  0
 12 43  1  0
 12 44  1  0
 13 45  1  1
 15 46  1  0
 16 47  1  0
 18 48  1  0
 19 49  1  0
 20 50  1  0
 22 51  1  0
 23 52  1  0
 25 53  1  0
 28 54  1  0
 29 55  1  0
M  END
>  <smiles>  (23) 
O=C(NCC(=O)N1CCCCCC1c1ccc(O)cc1)c1ccc2cc(Cl)ccc2n1

>  <score_type>  (23) 
oracle

>  <origin>  (23) 
autodockgpu

>  <m_score__min__energy>  (23) 
-6.6699999999999999

>  <m_primary>  (23) 
energy

>  <rmsd>  (23) 
2.627172486182285

>  <m_score__min__rmsd>  (23) 
2.627172486182285

>  <meeko>  (23) 
{"free_energy": -5.1, "intermolecular_energy": -8.68, "internal_energy": -1.96, "cluster_size": 12, "cluster_id": 2, "rank_in_cluster": 12}

>  <energy>  (23) 
-5.75

>  <cluster_rmsd>  (23) 
0.0

>  <cluster>  (23) 
4

$$$$

     RDKit          3D

 55 58  0  0  0  0  0  0  0  0999 V2000
  139.2140   71.0440  221.2180 O   0  0  0  0  0  0  0  0  0  0  0  0
  139.3530   71.7480  222.2630 C   0  0  0  0  0  0  0  0  0  0  0  0
  139.0740   73.1430  222.1220 N   0  0  0  0  0  0  0  0  0  0  0  0
  138.6650   73.5820  220.7940 C   0  0  0  0  0  0  0  0  0  0  0  0
  139.0970   74.9790  220.5280 C   0  0  0  0  0  0  0  0  0  0  0  0
  139.2880   75.3760  219.3400 O   0  0  0  0  0  0  0  0  0  0  0  0
  139.2840   75.8350  221.6280 N   0  0  0  0  0  0  0  0  0  0  0  0
  138.1230   76.3030  222.3520 C   0  0  0  0  0  0  0  0  0  0  0  0
  137.7570   77.7200  221.9990 C   0  0  0  0  0  0  0  0  0  0  0  0
  138.6030   78.7470  222.7060 C   0  0  0  0  0  0  0  0  0  0  0  0
  139.9760   78.2750  223.0660 C   0  0  0  0  0  0  0  0  0  0  0  0
  140.7400   77.6860  221.9010 C   0  0  0  0  0  0  0  0  0  0  0  0
  140.6610   76.1770  221.9430 C   0  0  2  0  0  0  0  0  0  0  0  0
  141.6420   75.5600  221.0280 C   0  0  0  0  0  0  0  0  0  0  0  0
  142.0020   74.2310  221.1430 C   0  0  0  0  0  0  0  0  0  0  0  0
  142.9320   73.6680  220.2670 C   0  0  0  0  0  0  0  0  0  0  0  0
  143.5130   74.4410  219.2600 C   0  0  0  0  0  0  0  0  0  0  0  0
  144.4420   73.9100  218.3710 O   0  0  0  0  0  0  0  0  0  0  0  0
  143.1510   75.7870  219.1400 C   0  0  0  0  0  0  0  0  0  0  0  0
  142.2280   76.3040  220.0260 C   0  0  0  0  0  0  0  0  0  0  0  0
  139.7720   71.1810  223.5390 C   0  0  0  0  0  0  0  0  0  0  0  0
  140.5890   71.9570  224.3400 C   0  0  0  0  0  0  0  0  0  0  0  0
  141.0490   71.5180  225.5770 C   0  0  0  0  0  0  0  0  0  0  0  0
  140.6520   70.2590  225.9780 C   0  0  0  0  0  0  0  0  0  0  0  0
  141.0690   69.7620  227.1880 C   0  0  0  0  0  0  0  0  0  0  0  0
  140.6930   68.4970  227.6350 C   0  0  0  0  0  0  0  0  0  0  0  0
  141.2360   67.8880  229.1750 Cl  0  0  0  0  0  0  0  0  0  0  0  0
  139.8730   67.7610  226.7910 C   0  0  0  0  0  0  0  0  0  0  0  0
  139.4520   68.2570  225.5750 C   0  0  0  0  0  0  0  0  0  0  0  0
  139.8360   69.5140  225.1510 C   0  0  0  0  0  0  0  0  0  0  0  0
  139.4000   69.9600  223.9530 N   0  0  0  0  0  0  0  0  0  0  0  0
  139.1640   73.7990  222.9320 H   0  0  0  0  0  0  0  0  0  0  0  0
  139.1173   72.9182  220.0425 H   0  0  0  0  0  0  0  0  0  0  0  0
  137.5671   73.5426  220.7391 H   0  0  0  0  0  0  0  0  0  0  0  0
  137.2713   75.6488  222.1140 H   0  0  0  0  0  0  0  0  0  0  0  0
  138.3649   76.2772  223.4248 H   0  0  0  0  0  0  0  0  0  0  0  0
  137.8805   77.8527  220.9140 H   0  0  0  0  0  0  0  0  0  0  0  0
  136.7167   77.8777  222.3197 H   0  0  0  0  0  0  0  0  0  0  0  0
  138.7019   79.6231  222.0482 H   0  0  0  0  0  0  0  0  0  0  0  0
  138.0919   78.9768  223.6525 H   0  0  0  0  0  0  0  0  0  0  0  0
  140.5457   79.1302  223.4584 H   0  0  0  0  0  0  0  0  0  0  0  0
  139.8563   77.4741  223.8105 H   0  0  0  0  0  0  0  0  0  0  0  0
  140.3034   78.0478  220.9584 H   0  0  0  0  0  0  0  0  0  0  0  0
  141.7937   77.9951  221.9660 H   0  0  0  0  0  0  0  0  0  0  0  0
  140.9258   75.7811  222.9345 H   0  0  0  0  0  0  0  0  0  0  0  0
  141.5517   73.6108  221.9320 H   0  0  0  0  0  0  0  0  0  0  0  0
  143.2088   72.6085  220.3709 H   0  0  0  0  0  0  0  0  0  0  0  0
  145.1650   74.5140  217.9610 H   0  0  0  0  0  0  0  0  0  0  0  0
  143.5927   76.4197  218.3561 H   0  0  0  0  0  0  0  0  0  0  0  0
  141.9456   77.3626  219.9279 H   0  0  0  0  0  0  0  0  0  0  0  0
  140.8854   72.9558  223.9869 H   0  0  0  0  0  0  0  0  0  0  0  0
  141.6985   72.1448  226.2057 H   0  0  0  0  0  0  0  0  0  0  0  0
  141.7194   70.3810  227.8235 H   0  0  0  0  0  0  0  0  0  0  0  0
  139.5505   66.7558  227.1001 H   0  0  0  0  0  0  0  0  0  0  0  0
  138.8017   67.6433  224.9343 H   0  0  0  0  0  0  0  0  0  0  0  0
  1  2  2  0
  2  3  1  0
  3  4  1  0
  4  5  1  0
  5  6  2  0
  5  7  1  0
  7  8  1  0
  8  9  1  0
  9 10  1  0
 10 11  1  0
 11 12  1  0
 12 13  1  0
 13 14  1  0
 14 15  2  0
 15 16  1  0
 16 17  2  0
 17 18  1  0
 17 19  1  0
 19 20  2  0
  2 21  1  0
 21 22  2  0
 22 23  1  0
 23 24  2  0
 24 25  1  0
 25 26  2  0
 26 27  1  0
 26 28  1  0
 28 29  2  0
 29 30  1  0
 30 31  2  0
 13  7  1  0
 20 14  1  0
 31 21  1  0
 30 24  1  0
  3 32  1  0
  4 33  1  0
  4 34  1  0
  8 35  1  0
  8 36  1  0
  9 37  1  0
  9 38  1  0
 10 39  1  0
 10 40  1  0
 11 41  1  0
 11 42  1  0
 12 43  1  0
 12 44  1  0
 13 45  1  1
 15 46  1  0
 16 47  1  0
 18 48  1  0
 19 49  1  0
 20 50  1  0
 22 51  1  0
 23 52  1  0
 25 53  1  0
 28 54  1  0
 29 55  1  0
M  END
>  <smiles>  (24) 
O=C(NCC(=O)N1CCCCCC1c1ccc(O)cc1)c1ccc2cc(Cl)ccc2n1

>  <score_type>  (24) 
oracle

>  <origin>  (24) 
autodockgpu

>  <m_score__min__energy>  (24) 
-6.6699999999999999

>  <m_primary>  (24) 
energy

>  <rmsd>  (24) 
3.3769970458363385

>  <m_score__min__rmsd>  (24) 
3.3769970458363385

>  <meeko>  (24) 
{"free_energy": -6.03, "intermolecular_energy": -9.61, "internal_energy": -1.75, "cluster_size": 12, "cluster_id": 2, "rank_in_cluster": 6}

>  <energy>  (24) 
-5.74

>  <cluster_rmsd>  (24) 
0.0

>  <cluster>  (24) 
5

$$$$

     RDKit          3D

 55 58  0  0  0  0  0  0  0  0999 V2000
  139.5030   74.2030  222.0150 O   0  0  0  0  0  0  0  0  0  0  0  0
  140.7130   74.3700  221.6740 C   0  0  0  0  0  0  0  0  0  0  0  0
  141.2360   75.6900  221.8440 N   0  0  0  0  0  0  0  0  0  0  0  0
  140.3140   76.6780  222.3880 C   0  0  0  0  0  0  0  0  0  0  0  0
  140.1880   77.8540  221.4880 C   0  0  0  0  0  0  0  0  0  0  0  0
  139.2400   77.9230  220.6500 O   0  0  0  0  0  0  0  0  0  0  0  0
  141.1470   78.8780  221.5980 N   0  0  0  0  0  0  0  0  0  0  0  0
  141.3960   79.4620  222.8980 C   0  0  0  0  0  0  0  0  0  0  0  0
  141.7900   80.9130  222.8110 C   0  0  0  0  0  0  0  0  0  0  0  0
  140.9000   81.7160  221.8970 C   0  0  0  0  0  0  0  0  0  0  0  0
  141.3020   81.6830  220.4570 C   0  0  0  0  0  0  0  0  0  0  0  0
  140.9860   80.3740  219.7670 C   0  0  0  0  0  0  0  0  0  0  0  0
  141.8150   79.2610  220.3660 C   0  0  2  0  0  0  0  0  0  0  0  0
  141.9820   78.1430  219.4180 C   0  0  0  0  0  0  0  0  0  0  0  0
  142.8140   77.0750  219.6960 C   0  0  0  0  0  0  0  0  0  0  0  0
  142.9570   76.0280  218.7840 C   0  0  0  0  0  0  0  0  0  0  0  0
  142.2600   76.0430  217.5750 C   0  0  0  0  0  0  0  0  0  0  0  0
  142.3800   75.0150  216.6450 O   0  0  0  0  0  0  0  0  0  0  0  0
  141.4160   77.1210  217.2880 C   0  0  0  0  0  0  0  0  0  0  0  0
  141.3030   78.1360  218.2170 C   0  0  0  0  0  0  0  0  0  0  0  0
  141.5330   73.2890  221.1400 C   0  0  0  0  0  0  0  0  0  0  0  0
  140.9240   72.0610  220.9610 C   0  0  0  0  0  0  0  0  0  0  0  0
  141.6090   70.9600  220.4590 C   0  0  0  0  0  0  0  0  0  0  0  0
  142.9390   71.1460  220.1400 C   0  0  0  0  0  0  0  0  0  0  0  0
  143.6760   70.1010  219.6390 C   0  0  0  0  0  0  0  0  0  0  0  0
  145.0210   70.2410  219.3040 C   0  0  0  0  0  0  0  0  0  0  0  0
  145.9350   68.9000  218.6700 Cl  0  0  0  0  0  0  0  0  0  0  0  0
  145.5810   71.4950  219.5040 C   0  0  0  0  0  0  0  0  0  0  0  0
  144.8430   72.5470  220.0070 C   0  0  0  0  0  0  0  0  0  0  0  0
  143.5110   72.3870  220.3330 C   0  0  0  0  0  0  0  0  0  0  0  0
  142.8280   73.4430  220.8230 N   0  0  0  0  0  0  0  0  0  0  0  0
  142.2250   75.9180  221.5880 H   0  0  0  0  0  0  0  0  0  0  0  0
  139.3243   76.2142  222.5118 H   0  0  0  0  0  0  0  0  0  0  0  0
  140.7068   77.0227  223.3559 H   0  0  0  0  0  0  0  0  0  0  0  0
  140.4808   79.3803  223.5028 H   0  0  0  0  0  0  0  0  0  0  0  0
  142.2329   78.9147  223.3562 H   0  0  0  0  0  0  0  0  0  0  0  0
  141.7407   81.3498  223.8194 H   0  0  0  0  0  0  0  0  0  0  0  0
  142.8070   80.9512  222.3936 H   0  0  0  0  0  0  0  0  0  0  0  0
  139.8770   81.3197  221.9777 H   0  0  0  0  0  0  0  0  0  0  0  0
  140.9810   82.7640  222.2214 H   0  0  0  0  0  0  0  0  0  0  0  0
  140.7721   82.4901  219.9300 H   0  0  0  0  0  0  0  0  0  0  0  0
  142.3945   81.8075  220.4254 H   0  0  0  0  0  0  0  0  0  0  0  0
  139.9183   80.1428  219.8957 H   0  0  0  0  0  0  0  0  0  0  0  0
  141.2217   80.4639  218.6963 H   0  0  0  0  0  0  0  0  0  0  0  0
  142.8421   79.5882  220.5850 H   0  0  0  0  0  0  0  0  0  0  0  0
  143.3690   77.0498  220.6454 H   0  0  0  0  0  0  0  0  0  0  0  0
  143.6236   75.1854  219.0198 H   0  0  0  0  0  0  0  0  0  0  0  0
  142.8370   75.1900  215.7410 H   0  0  0  0  0  0  0  0  0  0  0  0
  140.8546   77.1592  216.3428 H   0  0  0  0  0  0  0  0  0  0  0  0
  140.6380   78.9818  217.9881 H   0  0  0  0  0  0  0  0  0  0  0  0
  139.8617   71.9511  221.2246 H   0  0  0  0  0  0  0  0  0  0  0  0
  141.1145   69.9870  220.3226 H   0  0  0  0  0  0  0  0  0  0  0  0
  143.1898   69.1244  219.4981 H   0  0  0  0  0  0  0  0  0  0  0  0
  146.6405   71.6545  219.2551 H   0  0  0  0  0  0  0  0  0  0  0  0
  145.3226   73.5265  220.1502 H   0  0  0  0  0  0  0  0  0  0  0  0
  1  2  2  0
  2  3  1  0
  3  4  1  0
  4  5  1  0
  5  6  2  0
  5  7  1  0
  7  8  1  0
  8  9  1  0
  9 10  1  0
 10 11  1  0
 11 12  1  0
 12 13  1  0
 13 14  1  0
 14 15  2  0
 15 16  1  0
 16 17  2  0
 17 18  1  0
 17 19  1  0
 19 20  2  0
  2 21  1  0
 21 22  2  0
 22 23  1  0
 23 24  2  0
 24 25  1  0
 25 26  2  0
 26 27  1  0
 26 28  1  0
 28 29  2  0
 29 30  1  0
 30 31  2  0
 13  7  1  0
 20 14  1  0
 31 21  1  0
 30 24  1  0
  3 32  1  0
  4 33  1  0
  4 34  1  0
  8 35  1  0
  8 36  1  0
  9 37  1  0
  9 38  1  0
 10 39  1  0
 10 40  1  0
 11 41  1  0
 11 42  1  0
 12 43  1  0
 12 44  1  0
 13 45  1  1
 15 46  1  0
 16 47  1  0
 18 48  1  0
 19 49  1  0
 20 50  1  0
 22 51  1  0
 23 52  1  0
 25 53  1  0
 28 54  1  0
 29 55  1  0
M  END
>  <smiles>  (25) 
O=C(NCC(=O)N1CCCCCC1c1ccc(O)cc1)c1ccc2cc(Cl)ccc2n1

>  <score_type>  (25) 
oracle

>  <origin>  (25) 
autodockgpu

>  <m_score__min__energy>  (25) 
-6.6699999999999999

>  <m_primary>  (25) 
energy

>  <rmsd>  (25) 
6.0182417483935025

>  <m_score__min__rmsd>  (25) 
6.0182417483935025

>  <meeko>  (25) 
{"free_energy": -4.58, "intermolecular_energy": -8.16, "internal_energy": -2.23, "cluster_size": 2, "cluster_id": 14, "rank_in_cluster": 1}

>  <energy>  (25) 
-5.66

>  <cluster_rmsd>  (25) 
0.0

>  <cluster>  (25) 
6

$$$$

     RDKit          3D

 55 58  0  0  0  0  0  0  0  0999 V2000
  139.3970   74.5160  222.1110 O   0  0  0  0  0  0  0  0  0  0  0  0
  140.5990   74.7850  221.8100 C   0  0  0  0  0  0  0  0  0  0  0  0
  141.0090   76.1380  222.0140 N   0  0  0  0  0  0  0  0  0  0  0  0
  139.9940   77.0410  222.5440 C   0  0  0  0  0  0  0  0  0  0  0  0
  140.1540   78.4140  222.0000 C   0  0  0  0  0  0  0  0  0  0  0  0
  139.1710   79.0120  221.4680 O   0  0  0  0  0  0  0  0  0  0  0  0
  141.4190   79.0220  222.0950 N   0  0  0  0  0  0  0  0  0  0  0  0
  141.9260   79.3740  223.4030 C   0  0  0  0  0  0  0  0  0  0  0  0
  141.5130   80.7590  223.8260 C   0  0  0  0  0  0  0  0  0  0  0  0
  141.5540   81.7610  222.7020 C   0  0  0  0  0  0  0  0  0  0  0  0
  140.8860   81.3060  221.4430 C   0  0  0  0  0  0  0  0  0  0  0  0
  141.8340   80.6740  220.4470 C   0  0  0  0  0  0  0  0  0  0  0  0
  142.1170   79.2430  220.8390 C   0  0  2  0  0  0  0  0  0  0  0  0
  141.7180   78.3020  219.7740 C   0  0  0  0  0  0  0  0  0  0  0  0
  142.3920   77.1140  219.5680 C   0  0  0  0  0  0  0  0  0  0  0  0
  141.9970   76.2390  218.5550 C   0  0  0  0  0  0  0  0  0  0  0  0
  140.9130   76.5520  217.7320 C   0  0  0  0  0  0  0  0  0  0  0  0
  140.4950   75.7010  216.7140 O   0  0  0  0  0  0  0  0  0  0  0  0
  140.2270   77.7540  217.9370 C   0  0  0  0  0  0  0  0  0  0  0  0
  140.6510   78.5910  218.9500 C   0  0  0  0  0  0  0  0  0  0  0  0
  141.5180   73.7820  221.2850 C   0  0  0  0  0  0  0  0  0  0  0  0
  141.0380   72.4930  221.1450 C   0  0  0  0  0  0  0  0  0  0  0  0
  141.8260   71.4570  220.6550 C   0  0  0  0  0  0  0  0  0  0  0  0
  143.1240   71.7720  220.3090 C   0  0  0  0  0  0  0  0  0  0  0  0
  143.9580   70.7980  219.8190 C   0  0  0  0  0  0  0  0  0  0  0  0
  145.2760   71.0680  219.4570 C   0  0  0  0  0  0  0  0  0  0  0  0
  146.3150   69.8140  218.8360 Cl  0  0  0  0  0  0  0  0  0  0  0  0
  145.7050   72.3780  219.6180 C   0  0  0  0  0  0  0  0  0  0  0  0
  144.8700   73.3590  220.1110 C   0  0  0  0  0  0  0  0  0  0  0  0
  143.5670   73.0700  220.4640 C   0  0  0  0  0  0  0  0  0  0  0  0
  142.7850   74.0610  220.9420 N   0  0  0  0  0  0  0  0  0  0  0  0
  141.9830   76.4500  221.7920 H   0  0  0  0  0  0  0  0  0  0  0  0
  138.9986   76.6611  222.2702 H   0  0  0  0  0  0  0  0  0  0  0  0
  140.1070   77.0860  223.6373 H   0  0  0  0  0  0  0  0  0  0  0  0
  141.5410   78.6510  224.1372 H   0  0  0  0  0  0  0  0  0  0  0  0
  143.0247   79.3525  223.3534 H   0  0  0  0  0  0  0  0  0  0  0  0
  140.4855   80.7134  224.2161 H   0  0  0  0  0  0  0  0  0  0  0  0
  142.2307   81.0948  224.5889 H   0  0  0  0  0  0  0  0  0  0  0  0
  141.0558   82.6806  223.0427 H   0  0  0  0  0  0  0  0  0  0  0  0
  142.6153   81.9137  222.4564 H   0  0  0  0  0  0  0  0  0  0  0  0
  140.1150   80.5669  221.7062 H   0  0  0  0  0  0  0  0  0  0  0  0
  140.4625   82.2000  220.9619 H   0  0  0  0  0  0  0  0  0  0  0  0
  141.3775   80.6941  219.4464 H   0  0  0  0  0  0  0  0  0  0  0  0
  142.7777   81.2392  220.4381 H   0  0  0  0  0  0  0  0  0  0  0  0
  143.1936   79.0617  220.9734 H   0  0  0  0  0  0  0  0  0  0  0  0
  143.2481   76.8552  220.2084 H   0  0  0  0  0  0  0  0  0  0  0  0
  142.5433   75.2963  218.4038 H   0  0  0  0  0  0  0  0  0  0  0  0
  140.6990   75.9330  215.7330 H   0  0  0  0  0  0  0  0  0  0  0  0
  139.3688   78.0262  217.3051 H   0  0  0  0  0  0  0  0  0  0  0  0
  140.1103   79.5359  219.1075 H   0  0  0  0  0  0  0  0  0  0  0  0
  139.9975   72.2796  221.4309 H   0  0  0  0  0  0  0  0  0  0  0  0
  141.4331   70.4351  220.5484 H   0  0  0  0  0  0  0  0  0  0  0  0
  143.5740   69.7731  219.7088 H   0  0  0  0  0  0  0  0  0  0  0  0
  146.7378   72.6408  219.3454 H   0  0  0  0  0  0  0  0  0  0  0  0
  145.2476   74.3859  220.2245 H   0  0  0  0  0  0  0  0  0  0  0  0
  1  2  2  0
  2  3  1  0
  3  4  1  0
  4  5  1  0
  5  6  2  0
  5  7  1  0
  7  8  1  0
  8  9  1  0
  9 10  1  0
 10 11  1  0
 11 12  1  0
 12 13  1  0
 13 14  1  0
 14 15  2  0
 15 16  1  0
 16 17  2  0
 17 18  1  0
 17 19  1  0
 19 20  2  0
  2 21  1  0
 21 22  2  0
 22 23  1  0
 23 24  2  0
 24 25  1  0
 25 26  2  0
 26 27  1  0
 26 28  1  0
 28 29  2  0
 29 30  1  0
 30 31  2  0
 13  7  1  0
 20 14  1  0
 31 21  1  0
 30 24  1  0
  3 32  1  0
  4 33  1  0
  4 34  1  0
  8 35  1  0
  8 36  1  0
  9 37  1  0
  9 38  1  0
 10 39  1  0
 10 40  1  0
 11 41  1  0
 11 42  1  0
 12 43  1  0
 12 44  1  0
 13 45  1  1
 15 46  1  0
 16 47  1  0
 18 48  1  0
 19 49  1  0
 20 50  1  0
 22 51  1  0
 23 52  1  0
 25 53  1  0
 28 54  1  0
 29 55  1  0
M  END
>  <smiles>  (26) 
O=C(NCC(=O)N1CCCCCC1c1ccc(O)cc1)c1ccc2cc(Cl)ccc2n1

>  <score_type>  (26) 
oracle

>  <origin>  (26) 
autodockgpu

>  <m_score__min__energy>  (26) 
-6.6699999999999999

>  <m_primary>  (26) 
energy

>  <rmsd>  (26) 
6.249482840095251

>  <m_score__min__rmsd>  (26) 
6.249482840095251

>  <meeko>  (26) 
{"free_energy": -4.51, "intermolecular_energy": -8.08, "internal_energy": -2.13, "cluster_size": 6, "cluster_id": 9, "rank_in_cluster": 5}

>  <energy>  (26) 
-5.65

>  <cluster_rmsd>  (26) 
0.0

>  <cluster>  (26) 
7

$$$$

     RDKit          3D

 55 58  0  0  0  0  0  0  0  0999 V2000
  140.3600   72.5730  220.7990 O   0  0  0  0  0  0  0  0  0  0  0  0
  139.9190   72.8600  221.9530 C   0  0  0  0  0  0  0  0  0  0  0  0
  139.3420   74.1590  222.0990 N   0  0  0  0  0  0  0  0  0  0  0  0
  139.3310   74.9920  220.9030 C   0  0  0  0  0  0  0  0  0  0  0  0
  138.7620   76.3360  221.1840 C   0  0  0  0  0  0  0  0  0  0  0  0
  137.6770   76.7000  220.6390 O   0  0  0  0  0  0  0  0  0  0  0  0
  139.4600   77.1800  222.0660 N   0  0  0  0  0  0  0  0  0  0  0  0
  138.7050   78.0360  222.9540 C   0  0  0  0  0  0  0  0  0  0  0  0
  138.7570   79.4830  222.5410 C   0  0  0  0  0  0  0  0  0  0  0  0
  140.0200   80.1810  222.9770 C   0  0  0  0  0  0  0  0  0  0  0  0
  141.2810   79.5100  222.5350 C   0  0  0  0  0  0  0  0  0  0  0  0
  141.4240   78.0900  223.0320 C   0  0  0  0  0  0  0  0  0  0  0  0
  140.9100   77.1100  222.0020 C   0  0  2  0  0  0  0  0  0  0  0  0
  141.4520   77.4030  220.6610 C   0  0  0  0  0  0  0  0  0  0  0  0
  140.9600   78.4390  219.8910 C   0  0  0  0  0  0  0  0  0  0  0  0
  141.4880   78.6980  218.6250 C   0  0  0  0  0  0  0  0  0  0  0  0
  142.5230   77.9110  218.1160 C   0  0  0  0  0  0  0  0  0  0  0  0
  143.0710   78.1430  216.8590 O   0  0  0  0  0  0  0  0  0  0  0  0
  143.0250   76.8610  218.8920 C   0  0  0  0  0  0  0  0  0  0  0  0
  142.4750   76.6390  220.1380 C   0  0  0  0  0  0  0  0  0  0  0  0
  139.9920   71.9290  223.0730 C   0  0  0  0  0  0  0  0  0  0  0  0
  139.5200   70.6460  222.8630 C   0  0  0  0  0  0  0  0  0  0  0  0
  139.5400   69.6770  223.8590 C   0  0  0  0  0  0  0  0  0  0  0  0
  140.0560   70.0510  225.0830 C   0  0  0  0  0  0  0  0  0  0  0  0
  140.1060   69.1440  226.1130 C   0  0  0  0  0  0  0  0  0  0  0  0
  140.6180   69.4760  227.3650 C   0  0  0  0  0  0  0  0  0  0  0  0
  140.6700   68.3070  228.6550 Cl  0  0  0  0  0  0  0  0  0  0  0  0
  141.0760   70.7770  227.5200 C   0  0  0  0  0  0  0  0  0  0  0  0
  141.0280   71.6910  226.4880 C   0  0  0  0  0  0  0  0  0  0  0  0
  140.5160   71.3410  225.2540 C   0  0  0  0  0  0  0  0  0  0  0  0
  140.4880   72.2680  224.2730 N   0  0  0  0  0  0  0  0  0  0  0  0
  138.9540   74.4810  223.0160 H   0  0  0  0  0  0  0  0  0  0  0  0
  140.3623   75.1089  220.5387 H   0  0  0  0  0  0  0  0  0  0  0  0
  138.7027   74.5014  220.1450 H   0  0  0  0  0  0  0  0  0  0  0  0
  137.6555   77.7065  222.9541 H   0  0  0  0  0  0  0  0  0  0  0  0
  139.1531   77.9576  223.9555 H   0  0  0  0  0  0  0  0  0  0  0  0
  138.6892   79.5360  221.4444 H   0  0  0  0  0  0  0  0  0  0  0  0
  137.9156   79.9933  223.0327 H   0  0  0  0  0  0  0  0  0  0  0  0
  140.0098   81.2004  222.5639 H   0  0  0  0  0  0  0  0  0  0  0  0
  140.0243   80.1639  224.0769 H   0  0  0  0  0  0  0  0  0  0  0  0
  141.2990   79.4958  221.4352 H   0  0  0  0  0  0  0  0  0  0  0  0
  142.1159   80.0843  222.9629 H   0  0  0  0  0  0  0  0  0  0  0  0
  142.4858   77.8819  223.2304 H   0  0  0  0  0  0  0  0  0  0  0  0
  140.8346   77.9765  223.9538 H   0  0  0  0  0  0  0  0  0  0  0  0
  141.2435   76.0831  222.2124 H   0  0  0  0  0  0  0  0  0  0  0  0
  140.1440   79.0662  220.2794 H   0  0  0  0  0  0  0  0  0  0  0  0
  141.0861   79.5274  218.0245 H   0  0  0  0  0  0  0  0  0  0  0  0
  143.6180   78.9960  216.6850 H   0  0  0  0  0  0  0  0  0  0  0  0
  143.8409   76.2257  218.5169 H   0  0  0  0  0  0  0  0  0  0  0  0
  142.8720   75.8117  220.7445 H   0  0  0  0  0  0  0  0  0  0  0  0
  139.1152   70.3838  221.8744 H   0  0  0  0  0  0  0  0  0  0  0  0
  139.1622   68.6595  223.6800 H   0  0  0  0  0  0  0  0  0  0  0  0
  139.7302   68.1241  225.9440 H   0  0  0  0  0  0  0  0  0  0  0  0
  141.4882   71.0874  228.4915 H   0  0  0  0  0  0  0  0  0  0  0  0
  141.4026   72.7125  226.6501 H   0  0  0  0  0  0  0  0  0  0  0  0
  1  2  2  0
  2  3  1  0
  3  4  1  0
  4  5  1  0
  5  6  2  0
  5  7  1  0
  7  8  1  0
  8  9  1  0
  9 10  1  0
 10 11  1  0
 11 12  1  0
 12 13  1  0
 13 14  1  0
 14 15  2  0
 15 16  1  0
 16 17  2  0
 17 18  1  0
 17 19  1  0
 19 20  2  0
  2 21  1  0
 21 22  2  0
 22 23  1  0
 23 24  2  0
 24 25  1  0
 25 26  2  0
 26 27  1  0
 26 28  1  0
 28 29  2  0
 29 30  1  0
 30 31  2  0
 13  7  1  0
 20 14  1  0
 31 21  1  0
 30 24  1  0
  3 32  1  0
  4 33  1  0
  4 34  1  0
  8 35  1  0
  8 36  1  0
  9 37  1  0
  9 38  1  0
 10 39  1  0
 10 40  1  0
 11 41  1  0
 11 42  1  0
 12 43  1  0
 12 44  1  0
 13 45  1  1
 15 46  1  0
 16 47  1  0
 18 48  1  0
 19 49  1  0
 20 50  1  0
 22 51  1  0
 23 52  1  0
 25 53  1  0
 28 54  1  0
 29 55  1  0
M  END
>  <smiles>  (27) 
O=C(NCC(=O)N1CCCCCC1c1ccc(O)cc1)c1ccc2cc(Cl)ccc2n1

>  <score_type>  (27) 
oracle

>  <origin>  (27) 
autodockgpu

>  <m_score__min__energy>  (27) 
-6.6699999999999999

>  <m_primary>  (27) 
energy

>  <rmsd>  (27) 
3.337266581243129

>  <m_score__min__rmsd>  (27) 
3.337266581243129

>  <meeko>  (27) 
{"free_energy": -6.04, "intermolecular_energy": -9.62, "internal_energy": -1.42, "cluster_size": 6, "cluster_id": 1, "rank_in_cluster": 3}

>  <energy>  (27) 
-5.46

>  <cluster_rmsd>  (27) 
0.0

>  <cluster>  (27) 
8

$$$$

     RDKit          3D

 55 58  0  0  0  0  0  0  0  0999 V2000
  140.9660   78.0380  218.3720 O   0  0  0  0  0  0  0  0  0  0  0  0
  141.8390   77.6290  219.1950 C   0  0  0  0  0  0  0  0  0  0  0  0
  142.1680   78.5260  220.2580 N   0  0  0  0  0  0  0  0  0  0  0  0
  141.4590   79.7990  220.2640 C   0  0  0  0  0  0  0  0  0  0  0  0
  140.2510   79.7420  221.1270 C   0  0  0  0  0  0  0  0  0  0  0  0
  139.1190   79.4610  220.6300 O   0  0  0  0  0  0  0  0  0  0  0  0
  140.4050   80.0070  222.5000 N   0  0  0  0  0  0  0  0  0  0  0  0
  140.5410   81.3800  222.9330 C   0  0  0  0  0  0  0  0  0  0  0  0
  141.7620   81.5950  223.7880 C   0  0  0  0  0  0  0  0  0  0  0  0
  142.9850   80.8850  223.2670 C   0  0  0  0  0  0  0  0  0  0  0  0
  142.7990   79.4180  223.0430 C   0  0  0  0  0  0  0  0  0  0  0  0
  141.7960   78.7840  223.9790 C   0  0  0  0  0  0  0  0  0  0  0  0
  140.4110   78.8470  223.3760 C   0  0  2  0  0  0  0  0  0  0  0  0
  140.0650   77.5900  222.6870 C   0  0  0  0  0  0  0  0  0  0  0  0
  141.0340   76.6840  222.3010 C   0  0  0  0  0  0  0  0  0  0  0  0
  140.6830   75.5000  221.6500 C   0  0  0  0  0  0  0  0  0  0  0  0
  139.3450   75.2130  221.3780 C   0  0  0  0  0  0  0  0  0  0  0  0
  138.9620   74.0420  220.7310 O   0  0  0  0  0  0  0  0  0  0  0  0
  138.3590   76.1260  221.7670 C   0  0  0  0  0  0  0  0  0  0  0  0
  138.7490   77.2850  222.4080 C   0  0  0  0  0  0  0  0  0  0  0  0
  142.4780   76.3230  219.0760 C   0  0  0  0  0  0  0  0  0  0  0  0
  142.0390   75.4930  218.0610 C   0  0  0  0  0  0  0  0  0  0  0  0
  142.5750   74.2270  217.8540 C   0  0  0  0  0  0  0  0  0  0  0  0
  143.5780   73.8280  218.7130 C   0  0  0  0  0  0  0  0  0  0  0  0
  144.1540   72.5900  218.5670 C   0  0  0  0  0  0  0  0  0  0  0  0
  145.1690   72.1430  219.4100 C   0  0  0  0  0  0  0  0  0  0  0  0
  145.8840   70.5670  219.2030 Cl  0  0  0  0  0  0  0  0  0  0  0  0
  145.5700   73.0170  220.4110 C   0  0  0  0  0  0  0  0  0  0  0  0
  144.9950   74.2610  220.5610 C   0  0  0  0  0  0  0  0  0  0  0  0
  143.9900   74.6840  219.7140 C   0  0  0  0  0  0  0  0  0  0  0  0
  143.4550   75.9100  219.8980 N   0  0  0  0  0  0  0  0  0  0  0  0
  142.8800   78.2710  220.9830 H   0  0  0  0  0  0  0  0  0  0  0  0
  142.1325   80.5821  220.6422 H   0  0  0  0  0  0  0  0  0  0  0  0
  141.1397   80.0226  219.2354 H   0  0  0  0  0  0  0  0  0  0  0  0
  140.6139   82.0248  222.0448 H   0  0  0  0  0  0  0  0  0  0  0  0
  139.6585   81.6286  223.5407 H   0  0  0  0  0  0  0  0  0  0  0  0
  141.9747   82.6735  223.8286 H   0  0  0  0  0  0  0  0  0  0  0  0
  141.5418   81.1792  224.7823 H   0  0  0  0  0  0  0  0  0  0  0  0
  143.2687   81.3460  222.3094 H   0  0  0  0  0  0  0  0  0  0  0  0
  143.7613   80.9888  224.0394 H   0  0  0  0  0  0  0  0  0  0  0  0
  142.4547   79.2652  222.0095 H   0  0  0  0  0  0  0  0  0  0  0  0
  143.7691   78.9371  223.2370 H   0  0  0  0  0  0  0  0  0  0  0  0
  142.0712   77.7327  224.1493 H   0  0  0  0  0  0  0  0  0  0  0  0
  141.7985   79.3308  224.9335 H   0  0  0  0  0  0  0  0  0  0  0  0
  139.6335   78.9573  224.1463 H   0  0  0  0  0  0  0  0  0  0  0  0
  142.0928   76.8978  222.5087 H   0  0  0  0  0  0  0  0  0  0  0  0
  141.4664   74.7887  221.3495 H   0  0  0  0  0  0  0  0  0  0  0  0
  139.5640   73.6360  220.0030 H   0  0  0  0  0  0  0  0  0  0  0  0
  137.2963   75.9249  221.5666 H   0  0  0  0  0  0  0  0  0  0  0  0
  137.9712   78.0012  222.7115 H   0  0  0  0  0  0  0  0  0  0  0  0
  141.2384   75.8464  217.3946 H   0  0  0  0  0  0  0  0  0  0  0  0
  142.2165   73.5747  217.0441 H   0  0  0  0  0  0  0  0  0  0  0  0
  143.8031   71.9308  217.7593 H   0  0  0  0  0  0  0  0  0  0  0  0
  146.3677   72.7089  221.1029 H   0  0  0  0  0  0  0  0  0  0  0  0
  145.3415   74.9254  221.3663 H   0  0  0  0  0  0  0  0  0  0  0  0
  1  2  2  0
  2  3  1  0
  3  4  1  0
  4  5  1  0
  5  6  2  0
  5  7  1  0
  7  8  1  0
  8  9  1  0
  9 10  1  0
 10 11  1  0
 11 12  1  0
 12 13  1  0
 13 14  1  0
 14 15  2  0
 15 16  1  0
 16 17  2  0
 17 18  1  0
 17 19  1  0
 19 20  2  0
  2 21  1  0
 21 22  2  0
 22 23  1  0
 23 24  2  0
 24 25  1  0
 25 26  2  0
 26 27  1  0
 26 28  1  0
 28 29  2  0
 29 30  1  0
 30 31  2  0
 13  7  1  0
 20 14  1  0
 31 21  1  0
 30 24  1  0
  3 32  1  0
  4 33  1  0
  4 34  1  0
  8 35  1  0
  8 36  1  0
  9 37  1  0
  9 38  1  0
 10 39  1  0
 10 40  1  0
 11 41  1  0
 11 42  1  0
 12 43  1  0
 12 44  1  0
 13 45  1  1
 15 46  1  0
 16 47  1  0
 18 48  1  0
 19 49  1  0
 20 50  1  0
 22 51  1  0
 23 52  1  0
 25 53  1  0
 28 54  1  0
 29 55  1  0
M  END
>  <smiles>  (28) 
O=C(NCC(=O)N1CCCCCC1c1ccc(O)cc1)c1ccc2cc(Cl)ccc2n1

>  <score_type>  (28) 
oracle

>  <origin>  (28) 
autodockgpu

>  <m_score__min__energy>  (28) 
-6.6699999999999999

>  <m_primary>  (28) 
energy

>  <rmsd>  (28) 
7.894729303179248

>  <m_score__min__rmsd>  (28) 
7.894729303179248

>  <meeko>  (28) 
{"free_energy": -4.91, "intermolecular_energy": -8.49, "internal_energy": -2.38, "cluster_size": 5, "cluster_id": 11, "rank_in_cluster": 3}

>  <energy>  (28) 
-5.24

>  <cluster_rmsd>  (28) 
0.36

>  <cluster>  (28) 
8

$$$$

     RDKit          3D

 55 58  0  0  0  0  0  0  0  0999 V2000
  138.1390   71.6220  220.8480 O   0  0  0  0  0  0  0  0  0  0  0  0
  138.4960   72.1330  221.9520 C   0  0  0  0  0  0  0  0  0  0  0  0
  138.5200   73.5610  222.0040 N   0  0  0  0  0  0  0  0  0  0  0  0
  138.1320   74.2520  220.7810 C   0  0  0  0  0  0  0  0  0  0  0  0
  139.1110   74.0120  219.6890 C   0  0  0  0  0  0  0  0  0  0  0  0
  138.7930   73.3070  218.6850 O   0  0  0  0  0  0  0  0  0  0  0  0
  140.3890   74.5890  219.8060 N   0  0  0  0  0  0  0  0  0  0  0  0
  140.8740   75.4300  218.7340 C   0  0  0  0  0  0  0  0  0  0  0  0
  140.3870   76.8500  218.8530 C   0  0  0  0  0  0  0  0  0  0  0  0
  140.5650   77.4270  220.2330 C   0  0  0  0  0  0  0  0  0  0  0  0
  140.1260   76.5250  221.3430 C   0  0  0  0  0  0  0  0  0  0  0  0
  141.2030   75.5690  221.8050 C   0  0  0  0  0  0  0  0  0  0  0  0
  141.1190   74.2780  221.0230 C   0  0  2  0  0  0  0  0  0  0  0  0
  142.4580   73.7100  220.7750 C   0  0  0  0  0  0  0  0  0  0  0  0
  143.5440   74.5150  220.4860 C   0  0  0  0  0  0  0  0  0  0  0  0
  144.8020   73.9560  220.2550 C   0  0  0  0  0  0  0  0  0  0  0  0
  144.9820   72.5720  220.3100 C   0  0  0  0  0  0  0  0  0  0  0  0
  146.2230   71.9840  220.0850 O   0  0  0  0  0  0  0  0  0  0  0  0
  143.8860   71.7530  220.6020 C   0  0  0  0  0  0  0  0  0  0  0  0
  142.6600   72.3470  220.8250 C   0  0  0  0  0  0  0  0  0  0  0  0
  138.8620   71.3230  223.1090 C   0  0  0  0  0  0  0  0  0  0  0  0
  138.3860   70.0260  223.1510 C   0  0  0  0  0  0  0  0  0  0  0  0
  138.6710   69.1650  224.2040 C   0  0  0  0  0  0  0  0  0  0  0  0
  139.4610   69.6640  225.2200 C   0  0  0  0  0  0  0  0  0  0  0  0
  139.7830   68.8680  226.2920 C   0  0  0  0  0  0  0  0  0  0  0  0
  140.5760   69.3280  227.3400 C   0  0  0  0  0  0  0  0  0  0  0  0
  140.9700   68.2990  228.6900 Cl  0  0  0  0  0  0  0  0  0  0  0  0
  141.0260   70.6380  227.2470 C   0  0  0  0  0  0  0  0  0  0  0  0
  140.7050   71.4400  226.1720 C   0  0  0  0  0  0  0  0  0  0  0  0
  139.9170   70.9640  225.1420 C   0  0  0  0  0  0  0  0  0  0  0  0
  139.6280   71.7840  224.1100 N   0  0  0  0  0  0  0  0  0  0  0  0
  138.8030   74.0680  222.8750 H   0  0  0  0  0  0  0  0  0  0  0  0
  137.1440   73.8882  220.4624 H   0  0  0  0  0  0  0  0  0  0  0  0
  138.1020   75.3319  220.9880 H   0  0  0  0  0  0  0  0  0  0  0  0
  141.9738   75.4308  218.7556 H   0  0  0  0  0  0  0  0  0  0  0  0
  140.4897   75.0219  217.7876 H   0  0  0  0  0  0  0  0  0  0  0  0
  140.9471   77.4722  218.1394 H   0  0  0  0  0  0  0  0  0  0  0  0
  139.3080   76.8435  218.6392 H   0  0  0  0  0  0  0  0  0  0  0  0
  141.6319   77.6537  220.3758 H   0  0  0  0  0  0  0  0  0  0  0  0
  139.9254   78.3205  220.2839 H   0  0  0  0  0  0  0  0  0  0  0  0
  139.8226   77.1472  222.1979 H   0  0  0  0  0  0  0  0  0  0  0  0
  139.2965   75.9152  220.9556 H   0  0  0  0  0  0  0  0  0  0  0  0
  142.1900   76.0278  221.6457 H   0  0  0  0  0  0  0  0  0  0  0  0
  141.0598   75.3534  222.8741 H   0  0  0  0  0  0  0  0  0  0  0  0
  140.5900   73.4935  221.5840 H   0  0  0  0  0  0  0  0  0  0  0  0
  143.4156   75.6064  220.4376 H   0  0  0  0  0  0  0  0  0  0  0  0
  145.6571   74.6097  220.0282 H   0  0  0  0  0  0  0  0  0  0  0  0
  146.6010   71.3070  220.7600 H   0  0  0  0  0  0  0  0  0  0  0  0
  143.9987   70.6600  220.6528 H   0  0  0  0  0  0  0  0  0  0  0  0
  141.8005   71.7000  221.0543 H   0  0  0  0  0  0  0  0  0  0  0  0
  137.7601   69.6629  222.3225 H   0  0  0  0  0  0  0  0  0  0  0  0
  138.2855   68.1350  224.2267 H   0  0  0  0  0  0  0  0  0  0  0  0
  139.4030   67.8362  226.3236 H   0  0  0  0  0  0  0  0  0  0  0  0
  141.6549   71.0469  228.0516 H   0  0  0  0  0  0  0  0  0  0  0  0
  141.0816   72.4728  226.1342 H   0  0  0  0  0  0  0  0  0  0  0  0
  1  2  2  0
  2  3  1  0
  3  4  1  0
  4  5  1  0
  5  6  2  0
  5  7  1  0
  7  8  1  0
  8  9  1  0
  9 10  1  0
 10 11  1  0
 11 12  1  0
 12 13  1  0
 13 14  1  0
 14 15  2  0
 15 16  1  0
 16 17  2  0
 17 18  1  0
 17 19  1  0
 19 20  2  0
  2 21  1  0
 21 22  2  0
 22 23  1  0
 23 24  2  0
 24 25  1  0
 25 26  2  0
 26 27  1  0
 26 28  1  0
 28 29  2  0
 29 30  1  0
 30 31  2  0
 13  7  1  0
 20 14  1  0
 31 21  1  0
 30 24  1  0
  3 32  1  0
  4 33  1  0
  4 34  1  0
  8 35  1  0
  8 36  1  0
  9 37  1  0
  9 38  1  0
 10 39  1  0
 10 40  1  0
 11 41  1  0
 11 42  1  0
 12 43  1  0
 12 44  1  0
 13 45  1  1
 15 46  1  0
 16 47  1  0
 18 48  1  0
 19 49  1  0
 20 50  1  0
 22 51  1  0
 23 52  1  0
 25 53  1  0
 28 54  1  0
 29 55  1  0
M  END
>  <smiles>  (29) 
O=C(NCC(=O)N1CCCCCC1c1ccc(O)cc1)c1ccc2cc(Cl)ccc2n1

>  <score_type>  (29) 
oracle

>  <origin>  (29) 
autodockgpu

>  <m_score__min__energy>  (29) 
-6.6699999999999999

>  <m_primary>  (29) 
energy

>  <rmsd>  (29) 
2.1617699828273675

>  <m_score__min__rmsd>  (29) 
2.1617699828273675

>  <meeko>  (29) 
{"free_energy": -5.91, "intermolecular_energy": -9.49, "internal_energy": -1.86, "cluster_size": 12, "cluster_id": 2, "rank_in_cluster": 9}

>  <energy>  (29) 
-5.46

>  <cluster_rmsd>  (29) 
0.0

>  <cluster>  (29) 
9

$$$$

     RDKit          3D

 55 58  0  0  0  0  0  0  0  0999 V2000
  139.3340   72.6580  220.4200 O   0  0  0  0  0  0  0  0  0  0  0  0
  140.2340   72.6400  221.3120 C   0  0  0  0  0  0  0  0  0  0  0  0
  141.3900   73.4400  221.0520 N   0  0  0  0  0  0  0  0  0  0  0  0
  141.3900   74.1760  219.7950 C   0  0  0  0  0  0  0  0  0  0  0  0
  141.7080   75.6120  220.0070 C   0  0  0  0  0  0  0  0  0  0  0  0
  142.8310   76.0790  219.6520 O   0  0  0  0  0  0  0  0  0  0  0  0
  140.7310   76.4250  220.6090 N   0  0  0  0  0  0  0  0  0  0  0  0
  139.7000   77.0060  219.7770 C   0  0  0  0  0  0  0  0  0  0  0  0
  138.3480   76.3900  220.0210 C   0  0  0  0  0  0  0  0  0  0  0  0
  137.6210   76.9950  221.1930 C   0  0  0  0  0  0  0  0  0  0  0  0
  138.4840   77.2620  222.3850 C   0  0  0  0  0  0  0  0  0  0  0  0
  139.5230   76.1920  222.6350 C   0  0  0  0  0  0  0  0  0  0  0  0
  140.8500   76.6090  222.0450 C   0  0  2  0  0  0  0  0  0  0  0  0
  141.2030   77.9880  222.4320 C   0  0  0  0  0  0  0  0  0  0  0  0
  141.6540   78.2910  223.7030 C   0  0  0  0  0  0  0  0  0  0  0  0
  141.9830   79.6030  224.0470 C   0  0  0  0  0  0  0  0  0  0  0  0
  141.8600   80.6320  223.1110 C   0  0  0  0  0  0  0  0  0  0  0  0
  142.1800   81.9500  223.4220 O   0  0  0  0  0  0  0  0  0  0  0  0
  141.4050   80.3310  221.8230 C   0  0  0  0  0  0  0  0  0  0  0  0
  141.0900   79.0200  221.5240 C   0  0  0  0  0  0  0  0  0  0  0  0
  140.1110   71.8550  222.5340 C   0  0  0  0  0  0  0  0  0  0  0  0
  139.3570   70.6970  222.4710 C   0  0  0  0  0  0  0  0  0  0  0  0
  139.1720   69.8720  223.5740 C   0  0  0  0  0  0  0  0  0  0  0  0
  139.7790   70.2590  224.7510 C   0  0  0  0  0  0  0  0  0  0  0  0
  139.6380   69.4910  225.8810 C   0  0  0  0  0  0  0  0  0  0  0  0
  140.2320   69.8420  227.0910 C   0  0  0  0  0  0  0  0  0  0  0  0
  140.0380   68.8500  228.5100 Cl  0  0  0  0  0  0  0  0  0  0  0  0
  140.9760   71.0130  227.0970 C   0  0  0  0  0  0  0  0  0  0  0  0
  141.1210   71.7880  225.9650 C   0  0  0  0  0  0  0  0  0  0  0  0
  140.5230   71.4210  224.7750 C   0  0  0  0  0  0  0  0  0  0  0  0
  140.6910   72.2090  223.6920 N   0  0  0  0  0  0  0  0  0  0  0  0
  142.1840   73.4840  221.7340 H   0  0  0  0  0  0  0  0  0  0  0  0
  142.1435   73.7380  219.1239 H   0  0  0  0  0  0  0  0  0  0  0  0
  140.3852   74.1057  219.3529 H   0  0  0  0  0  0  0  0  0  0  0  0
  139.6404   78.0836  219.9897 H   0  0  0  0  0  0  0  0  0  0  0  0
  139.9700   76.8156  218.7278 H   0  0  0  0  0  0  0  0  0  0  0  0
  137.7333   76.5285  219.1194 H   0  0  0  0  0  0  0  0  0  0  0  0
  138.5110   75.3269  220.2519 H   0  0  0  0  0  0  0  0  0  0  0  0
  137.1784   77.9483  220.8683 H   0  0  0  0  0  0  0  0  0  0  0  0
  136.8681   76.2581  221.5095 H   0  0  0  0  0  0  0  0  0  0  0  0
  139.0021   78.2200  222.2310 H   0  0  0  0  0  0  0  0  0  0  0  0
  137.8223   77.2792  223.2636 H   0  0  0  0  0  0  0  0  0  0  0  0
  139.6376   76.0423  223.7187 H   0  0  0  0  0  0  0  0  0  0  0  0
  139.1964   75.2550  222.1602 H   0  0  0  0  0  0  0  0  0  0  0  0
  141.6787   75.9972  222.4309 H   0  0  0  0  0  0  0  0  0  0  0  0
  141.7546   77.4903  224.4506 H   0  0  0  0  0  0  0  0  0  0  0  0
  142.3416   79.8280  225.0623 H   0  0  0  0  0  0  0  0  0  0  0  0
  142.1960   82.6640  222.6830 H   0  0  0  0  0  0  0  0  0  0  0  0
  141.3004   81.1211  221.0649 H   0  0  0  0  0  0  0  0  0  0  0  0
  140.7309   78.7872  220.5107 H   0  0  0  0  0  0  0  0  0  0  0  0
  138.8879   70.4197  221.5154 H   0  0  0  0  0  0  0  0  0  0  0  0
  138.5699   68.9536  223.5116 H   0  0  0  0  0  0  0  0  0  0  0  0
  139.0377   68.5707  225.8288 H   0  0  0  0  0  0  0  0  0  0  0  0
  141.4636   71.3322  228.0299 H   0  0  0  0  0  0  0  0  0  0  0  0
  141.7201   72.7094  226.0105 H   0  0  0  0  0  0  0  0  0  0  0  0
  1  2  2  0
  2  3  1  0
  3  4  1  0
  4  5  1  0
  5  6  2  0
  5  7  1  0
  7  8  1  0
  8  9  1  0
  9 10  1  0
 10 11  1  0
 11 12  1  0
 12 13  1  0
 13 14  1  0
 14 15  2  0
 15 16  1  0
 16 17  2  0
 17 18  1  0
 17 19  1  0
 19 20  2  0
  2 21  1  0
 21 22  2  0
 22 23  1  0
 23 24  2  0
 24 25  1  0
 25 26  2  0
 26 27  1  0
 26 28  1  0
 28 29  2  0
 29 30  1  0
 30 31  2  0
 13  7  1  0
 20 14  1  0
 31 21  1  0
 30 24  1  0
  3 32  1  0
  4 33  1  0
  4 34  1  0
  8 35  1  0
  8 36  1  0
  9 37  1  0
  9 38  1  0
 10 39  1  0
 10 40  1  0
 11 41  1  0
 11 42  1  0
 12 43  1  0
 12 44  1  0
 13 45  1  1
 15 46  1  0
 16 47  1  0
 18 48  1  0
 19 49  1  0
 20 50  1  0
 22 51  1  0
 23 52  1  0
 25 53  1  0
 28 54  1  0
 29 55  1  0
M  END
>  <smiles>  (30) 
O=C(NCC(=O)N1CCCCCC1c1ccc(O)cc1)c1ccc2cc(Cl)ccc2n1

>  <score_type>  (30) 
oracle

>  <origin>  (30) 
autodockgpu

>  <m_score__min__energy>  (30) 
-6.6699999999999999

>  <m_primary>  (30) 
energy

>  <rmsd>  (30) 
2.851928797593642

>  <m_score__min__rmsd>  (30) 
2.851928797593642

>  <meeko>  (30) 
{"free_energy": -5.28, "intermolecular_energy": -8.86, "internal_energy": -1.91, "cluster_size": 1, "cluster_id": 12, "rank_in_cluster": 1}

>  <energy>  (30) 
-4.95

>  <cluster_rmsd>  (30) 
1.48

>  <cluster>  (30) 
9

$$$$

     RDKit          3D

 55 58  0  0  0  0  0  0  0  0999 V2000
  140.5760   75.7710  222.3080 O   0  0  0  0  0  0  0  0  0  0  0  0
  140.9530   75.6740  221.1020 C   0  0  0  0  0  0  0  0  0  0  0  0
  140.3000   76.5380  220.1690 N   0  0  0  0  0  0  0  0  0  0  0  0
  139.2840   77.4250  220.7210 C   0  0  0  0  0  0  0  0  0  0  0  0
  139.7760   78.8240  220.8100 C   0  0  0  0  0  0  0  0  0  0  0  0
  139.2050   79.7470  220.1560 O   0  0  0  0  0  0  0  0  0  0  0  0
  140.8840   79.0860  221.6350 N   0  0  0  0  0  0  0  0  0  0  0  0
  140.8740   78.5880  222.9930 C   0  0  0  0  0  0  0  0  0  0  0  0
  141.9200   79.2450  223.8550 C   0  0  0  0  0  0  0  0  0  0  0  0
  141.7940   80.7450  223.9050 C   0  0  0  0  0  0  0  0  0  0  0  0
  141.0170   81.3380  222.7720 C   0  0  0  0  0  0  0  0  0  0  0  0
  141.7440   81.2870  221.4460 C   0  0  0  0  0  0  0  0  0  0  0  0
  141.9630   79.8500  221.0320 C   0  0  2  0  0  0  0  0  0  0  0  0
  142.0260   79.7150  219.5630 C   0  0  0  0  0  0  0  0  0  0  0  0
  141.8070   80.7930  218.7270 C   0  0  0  0  0  0  0  0  0  0  0  0
  141.8720   80.6430  217.3410 C   0  0  0  0  0  0  0  0  0  0  0  0
  142.1580   79.3980  216.7770 C   0  0  0  0  0  0  0  0  0  0  0  0
  142.2310   79.2150  215.4000 O   0  0  0  0  0  0  0  0  0  0  0  0
  142.3810   78.3030  217.6190 C   0  0  0  0  0  0  0  0  0  0  0  0
  142.3080   78.4960  218.9840 C   0  0  0  0  0  0  0  0  0  0  0  0
  141.9880   74.7390  220.6770 C   0  0  0  0  0  0  0  0  0  0  0  0
  143.1640   75.2750  220.1860 C   0  0  0  0  0  0  0  0  0  0  0  0
  144.2180   74.4790  219.7530 C   0  0  0  0  0  0  0  0  0  0  0  0
  144.0410   73.1130  219.8340 C   0  0  0  0  0  0  0  0  0  0  0  0
  145.0420   72.2660  219.4230 C   0  0  0  0  0  0  0  0  0  0  0  0
  144.9080   70.8810  219.4860 C   0  0  0  0  0  0  0  0  0  0  0  0
  146.1930   69.8280  218.9580 Cl  0  0  0  0  0  0  0  0  0  0  0  0
  143.7080   70.3980  219.9860 C   0  0  0  0  0  0  0  0  0  0  0  0
  142.7010   71.2450  220.4000 C   0  0  0  0  0  0  0  0  0  0  0  0
  142.8530   72.6150  220.3290 C   0  0  0  0  0  0  0  0  0  0  0  0
  141.8420   73.4060  220.7450 N   0  0  0  0  0  0  0  0  0  0  0  0
  140.5470   76.5250  219.1520 H   0  0  0  0  0  0  0  0  0  0  0  0
  138.3956   77.3986  220.0729 H   0  0  0  0  0  0  0  0  0  0  0  0
  139.0373   77.0796  221.7358 H   0  0  0  0  0  0  0  0  0  0  0  0
  139.8837   78.7796  223.4319 H   0  0  0  0  0  0  0  0  0  0  0  0
  141.0982   77.5117  222.9564 H   0  0  0  0  0  0  0  0  0  0  0  0
  141.8262   78.8524  224.8783 H   0  0  0  0  0  0  0  0  0  0  0  0
  142.8998   79.0148  223.4111 H   0  0  0  0  0  0  0  0  0  0  0  0
  141.2927   81.0170  224.8456 H   0  0  0  0  0  0  0  0  0  0  0  0
  142.8147   81.1485  223.8309 H   0  0  0  0  0  0  0  0  0  0  0  0
  140.0716   80.7847  222.6716 H   0  0  0  0  0  0  0  0  0  0  0  0
  140.8574   82.3997  223.0115 H   0  0  0  0  0  0  0  0  0  0  0  0
  141.1423   81.7990  220.6806 H   0  0  0  0  0  0  0  0  0  0  0  0
  142.7189   81.7859  221.5491 H   0  0  0  0  0  0  0  0  0  0  0  0
  142.9326   79.4671  221.3832 H   0  0  0  0  0  0  0  0  0  0  0  0
  141.5792   81.7791  219.1580 H   0  0  0  0  0  0  0  0  0  0  0  0
  141.6968   81.5112  216.6886 H   0  0  0  0  0  0  0  0  0  0  0  0
  143.0650   79.5220  214.8830 H   0  0  0  0  0  0  0  0  0  0  0  0
  142.6093   77.3107  217.2027 H   0  0  0  0  0  0  0  0  0  0  0  0
  142.4838   77.6332  219.6433 H   0  0  0  0  0  0  0  0  0  0  0  0
  143.2692   76.3688  220.1363 H   0  0  0  0  0  0  0  0  0  0  0  0
  145.1490   74.9172  219.3642 H   0  0  0  0  0  0  0  0  0  0  0  0
  145.9769   72.6945  219.0327 H   0  0  0  0  0  0  0  0  0  0  0  0
  143.5551   69.3108  220.0542 H   0  0  0  0  0  0  0  0  0  0  0  0
  141.7640   70.8228  220.7921 H   0  0  0  0  0  0  0  0  0  0  0  0
  1  2  2  0
  2  3  1  0
  3  4  1  0
  4  5  1  0
  5  6  2  0
  5  7  1  0
  7  8  1  0
  8  9  1  0
  9 10  1  0
 10 11  1  0
 11 12  1  0
 12 13  1  0
 13 14  1  0
 14 15  2  0
 15 16  1  0
 16 17  2  0
 17 18  1  0
 17 19  1  0
 19 20  2  0
  2 21  1  0
 21 22  2  0
 22 23  1  0
 23 24  2  0
 24 25  1  0
 25 26  2  0
 26 27  1  0
 26 28  1  0
 28 29  2  0
 29 30  1  0
 30 31  2  0
 13  7  1  0
 20 14  1  0
 31 21  1  0
 30 24  1  0
  3 32  1  0
  4 33  1  0
  4 34  1  0
  8 35  1  0
  8 36  1  0
  9 37  1  0
  9 38  1  0
 10 39  1  0
 10 40  1  0
 11 41  1  0
 11 42  1  0
 12 43  1  0
 12 44  1  0
 13 45  1  1
 15 46  1  0
 16 47  1  0
 18 48  1  0
 19 49  1  0
 20 50  1  0
 22 51  1  0
 23 52  1  0
 25 53  1  0
 28 54  1  0
 29 55  1  0
M  END
>  <smiles>  (31) 
O=C(NCC(=O)N1CCCCCC1c1ccc(O)cc1)c1ccc2cc(Cl)ccc2n1

>  <score_type>  (31) 
oracle

>  <origin>  (31) 
autodockgpu

>  <m_score__min__energy>  (31) 
-6.6699999999999999

>  <m_primary>  (31) 
energy

>  <rmsd>  (31) 
6.782387063609076

>  <m_score__min__rmsd>  (31) 
6.782387063609076

>  <meeko>  (31) 
{"free_energy": -4.82, "intermolecular_energy": -8.4, "internal_energy": -2.0, "cluster_size": 6, "cluster_id": 9, "rank_in_cluster": 3}

>  <energy>  (31) 
-4.82

>  <cluster_rmsd>  (31) 
1.71

>  <cluster>  (31) 
9

$$$$

     RDKit          3D

 55 58  0  0  0  0  0  0  0  0999 V2000
  138.0180   75.9020  222.6110 O   0  0  0  0  0  0  0  0  0  0  0  0
  136.9830   76.3730  223.1710 C   0  0  0  0  0  0  0  0  0  0  0  0
  136.8110   77.7890  223.0810 N   0  0  0  0  0  0  0  0  0  0  0  0
  137.8460   78.5150  222.3560 C   0  0  0  0  0  0  0  0  0  0  0  0
  138.4250   79.6040  223.1830 C   0  0  0  0  0  0  0  0  0  0  0  0
  137.6800   80.3100  223.9270 O   0  0  0  0  0  0  0  0  0  0  0  0
  139.8130   79.8220  223.1140 N   0  0  0  0  0  0  0  0  0  0  0  0
  140.3360   81.1110  223.5110 C   0  0  0  0  0  0  0  0  0  0  0  0
  141.5530   81.5070  222.7190 C   0  0  0  0  0  0  0  0  0  0  0  0
  142.8280   80.8970  223.2420 C   0  0  0  0  0  0  0  0  0  0  0  0
  142.9530   79.4260  223.0010 C   0  0  0  0  0  0  0  0  0  0  0  0
  141.8050   78.6180  223.5630 C   0  0  0  0  0  0  0  0  0  0  0  0
  140.6110   78.7050  222.6400 C   0  0  2  0  0  0  0  0  0  0  0  0
  141.0280   78.8390  221.2310 C   0  0  0  0  0  0  0  0  0  0  0  0
  140.6240   79.9080  220.4540 C   0  0  0  0  0  0  0  0  0  0  0  0
  141.0300   80.0140  219.1230 C   0  0  0  0  0  0  0  0  0  0  0  0
  141.8530   79.0400  218.5540 C   0  0  0  0  0  0  0  0  0  0  0  0
  142.2760   79.1170  217.2310 O   0  0  0  0  0  0  0  0  0  0  0  0
  142.2650   77.9550  219.3360 C   0  0  0  0  0  0  0  0  0  0  0  0
  141.8400   77.8880  220.6480 C   0  0  0  0  0  0  0  0  0  0  0  0
  136.0180   75.5320  223.8700 C   0  0  0  0  0  0  0  0  0  0  0  0
  135.8690   74.2330  223.4220 C   0  0  0  0  0  0  0  0  0  0  0  0
  134.9780   73.3430  224.0120 C   0  0  0  0  0  0  0  0  0  0  0  0
  134.2400   73.8150  225.0780 C   0  0  0  0  0  0  0  0  0  0  0  0
  133.3410   72.9900  225.7090 C   0  0  0  0  0  0  0  0  0  0  0  0
  132.5740   73.4230  226.7880 C   0  0  0  0  0  0  0  0  0  0  0  0
  131.4400   72.3570  227.5720 Cl  0  0  0  0  0  0  0  0  0  0  0  0
  132.7650   74.7360  227.1950 C   0  0  0  0  0  0  0  0  0  0  0  0
  133.6670   75.5670  226.5650 C   0  0  0  0  0  0  0  0  0  0  0  0
  134.4170   75.1180  225.4960 C   0  0  0  0  0  0  0  0  0  0  0  0
  135.2880   75.9660  224.9090 N   0  0  0  0  0  0  0  0  0  0  0  0
  135.9850   78.2640  223.5150 H   0  0  0  0  0  0  0  0  0  0  0  0
  138.6461   77.8137  222.0768 H   0  0  0  0  0  0  0  0  0  0  0  0
  137.3909   78.9647  221.4612 H   0  0  0  0  0  0  0  0  0  0  0  0
  139.5546   81.8704  223.3606 H   0  0  0  0  0  0  0  0  0  0  0  0
  140.6329   81.0406  224.5678 H   0  0  0  0  0  0  0  0  0  0  0  0
  141.4124   81.1830  221.6772 H   0  0  0  0  0  0  0  0  0  0  0  0
  141.6555   82.5990  222.8027 H   0  0  0  0  0  0  0  0  0  0  0  0
  143.6757   81.3991  222.7528 H   0  0  0  0  0  0  0  0  0  0  0  0
  142.8187   81.0369  224.3330 H   0  0  0  0  0  0  0  0  0  0  0  0
  142.9995   79.2547  221.9154 H   0  0  0  0  0  0  0  0  0  0  0  0
  143.8646   79.0920  223.5182 H   0  0  0  0  0  0  0  0  0  0  0  0
  142.1134   77.5667  223.6616 H   0  0  0  0  0  0  0  0  0  0  0  0
  141.5292   79.0199  224.5491 H   0  0  0  0  0  0  0  0  0  0  0  0
  140.0104   77.7836  222.6606 H   0  0  0  0  0  0  0  0  0  0  0  0
  139.9759   80.6831  220.8890 H   0  0  0  0  0  0  0  0  0  0  0  0
  140.6993   80.8710  218.5178 H   0  0  0  0  0  0  0  0  0  0  0  0
  143.2110   79.4840  217.0110 H   0  0  0  0  0  0  0  0  0  0  0  0
  142.9133   77.1726  218.9146 H   0  0  0  0  0  0  0  0  0  0  0  0
  142.1652   77.0333  221.2593 H   0  0  0  0  0  0  0  0  0  0  0  0
  136.4755   73.8917  222.5702 H   0  0  0  0  0  0  0  0  0  0  0  0
  134.8669   72.3116  223.6461 H   0  0  0  0  0  0  0  0  0  0  0  0
  133.2233   71.9564  225.3514 H   0  0  0  0  0  0  0  0  0  0  0  0
  132.1812   75.1240  228.0428 H   0  0  0  0  0  0  0  0  0  0  0  0
  133.7908   76.6012  226.9186 H   0  0  0  0  0  0  0  0  0  0  0  0
  1  2  2  0
  2  3  1  0
  3  4  1  0
  4  5  1  0
  5  6  2  0
  5  7  1  0
  7  8  1  0
  8  9  1  0
  9 10  1  0
 10 11  1  0
 11 12  1  0
 12 13  1  0
 13 14  1  0
 14 15  2  0
 15 16  1  0
 16 17  2  0
 17 18  1  0
 17 19  1  0
 19 20  2  0
  2 21  1  0
 21 22  2  0
 22 23  1  0
 23 24  2  0
 24 25  1  0
 25 26  2  0
 26 27  1  0
 26 28  1  0
 28 29  2  0
 29 30  1  0
 30 31  2  0
 13  7  1  0
 20 14  1  0
 31 21  1  0
 30 24  1  0
  3 32  1  0
  4 33  1  0
  4 34  1  0
  8 35  1  0
  8 36  1  0
  9 37  1  0
  9 38  1  0
 10 39  1  0
 10 40  1  0
 11 41  1  0
 11 42  1  0
 12 43  1  0
 12 44  1  0
 13 45  1  6
 15 46  1  0
 16 47  1  0
 18 48  1  0
 19 49  1  0
 20 50  1  0
 22 51  1  0
 23 52  1  0
 25 53  1  0
 28 54  1  0
 29 55  1  0
M  END
>  <smiles>  (32) 
O=C(NCC(=O)N1CCCCCC1c1ccc(O)cc1)c1ccc2cc(Cl)ccc2n1

>  <score_type>  (32) 
oracle

>  <origin>  (32) 
autodockgpu

>  <m_score__min__energy>  (32) 
-6.6699999999999999

>  <m_primary>  (32) 
energy

>  <rmsd>  (32) 
6.795151872755079

>  <m_score__min__rmsd>  (32) 
6.795151872755079

>  <meeko>  (32) 
{"free_energy": -5.65, "intermolecular_energy": -9.23, "internal_energy": -1.44, "cluster_size": 1, "cluster_id": 7, "rank_in_cluster": 1}

>  <energy>  (32) 
-4.59

>  <cluster_rmsd>  (32) 
1.96

>  <cluster>  (32) 
9

$$$$

     RDKit          3D

 55 58  0  0  0  0  0  0  0  0999 V2000
  140.3430   74.3410  222.3430 O   0  0  0  0  0  0  0  0  0  0  0  0
  140.6620   75.0060  221.3110 C   0  0  0  0  0  0  0  0  0  0  0  0
  139.8670   76.1620  221.0400 N   0  0  0  0  0  0  0  0  0  0  0  0
  138.7900   76.4330  221.9820 C   0  0  0  0  0  0  0  0  0  0  0  0
  138.6560   77.8890  222.2480 C   0  0  0  0  0  0  0  0  0  0  0  0
  137.5900   78.5020  221.9410 O   0  0  0  0  0  0  0  0  0  0  0  0
  139.7410   78.5560  222.8470 N   0  0  0  0  0  0  0  0  0  0  0  0
  139.4720   79.5560  223.8560 C   0  0  0  0  0  0  0  0  0  0  0  0
  139.9970   80.9140  223.4740 C   0  0  0  0  0  0  0  0  0  0  0  0
  141.4550   81.1030  223.8050 C   0  0  0  0  0  0  0  0  0  0  0  0
  142.3730   80.1330  223.1300 C   0  0  0  0  0  0  0  0  0  0  0  0
  142.0380   78.6840  223.4150 C   0  0  0  0  0  0  0  0  0  0  0  0
  141.0620   78.1660  222.3840 C   0  0  2  0  0  0  0  0  0  0  0  0
  141.3830   78.6710  221.0350 C   0  0  0  0  0  0  0  0  0  0  0  0
  140.8460   79.8510  220.5570 C   0  0  0  0  0  0  0  0  0  0  0  0
  141.1640   80.3100  219.2780 C   0  0  0  0  0  0  0  0  0  0  0  0
  142.0310   79.5820  218.4600 C   0  0  0  0  0  0  0  0  0  0  0  0
  142.3680   80.0120  217.1810 O   0  0  0  0  0  0  0  0  0  0  0  0
  142.5770   78.3870  218.9400 C   0  0  0  0  0  0  0  0  0  0  0  0
  142.2370   77.9690  220.2110 C   0  0  0  0  0  0  0  0  0  0  0  0
  141.7720   74.6240  220.4450 C   0  0  0  0  0  0  0  0  0  0  0  0
  142.5910   73.5980  220.8790 C   0  0  0  0  0  0  0  0  0  0  0  0
  143.6770   73.1520  220.1360 C   0  0  0  0  0  0  0  0  0  0  0  0
  143.9080   73.7820  218.9300 C   0  0  0  0  0  0  0  0  0  0  0  0
  144.9650   73.3930  218.1440 C   0  0  0  0  0  0  0  0  0  0  0  0
  145.2370   74.0000  216.9200 C   0  0  0  0  0  0  0  0  0  0  0  0
  146.5840   73.4870  215.9400 Cl  0  0  0  0  0  0  0  0  0  0  0  0
  144.3830   75.0240  216.5340 C   0  0  0  0  0  0  0  0  0  0  0  0
  143.3210   75.4180  217.3210 C   0  0  0  0  0  0  0  0  0  0  0  0
  143.0690   74.8020  218.5310 C   0  0  0  0  0  0  0  0  0  0  0  0
  142.0190   75.2210  219.2690 N   0  0  0  0  0  0  0  0  0  0  0  0
  140.0590   76.7690  220.2090 H   0  0  0  0  0  0  0  0  0  0  0  0
  137.8449   76.0573  221.5629 H   0  0  0  0  0  0  0  0  0  0  0  0
  139.0244   75.9278  222.9306 H   0  0  0  0  0  0  0  0  0  0  0  0
  138.3840   79.6264  224.0021 H   0  0  0  0  0  0  0  0  0  0  0  0
  139.9840   79.2465  224.7791 H   0  0  0  0  0  0  0  0  0  0  0  0
  139.8647   81.0475  222.3902 H   0  0  0  0  0  0  0  0  0  0  0  0
  139.4315   81.6576  224.0548 H   0  0  0  0  0  0  0  0  0  0  0  0
  141.7472   82.1198  223.5038 H   0  0  0  0  0  0  0  0  0  0  0  0
  141.5563   80.9304  224.8866 H   0  0  0  0  0  0  0  0  0  0  0  0
  142.3143   80.2966  222.0438 H   0  0  0  0  0  0  0  0  0  0  0  0
  143.3830   80.3150  223.5260 H   0  0  0  0  0  0  0  0  0  0  0  0
  142.9589   78.0834  223.3788 H   0  0  0  0  0  0  0  0  0  0  0  0
  141.5821   78.6087  224.4132 H   0  0  0  0  0  0  0  0  0  0  0  0
  141.1145   77.0718  222.2844 H   0  0  0  0  0  0  0  0  0  0  0  0
  140.1614   80.4341  221.1905 H   0  0  0  0  0  0  0  0  0  0  0  0
  140.7289   81.2515  218.9116 H   0  0  0  0  0  0  0  0  0  0  0  0
  143.3240   79.8750  216.8270 H   0  0  0  0  0  0  0  0  0  0  0  0
  143.2627   77.7930  218.3180 H   0  0  0  0  0  0  0  0  0  0  0  0
  142.6689   77.0290  220.5850 H   0  0  0  0  0  0  0  0  0  0  0  0
  142.3754   73.1186  221.8453 H   0  0  0  0  0  0  0  0  0  0  0  0
  144.3222   72.3354  220.4921 H   0  0  0  0  0  0  0  0  0  0  0  0
  145.6164   72.5776  218.4915 H   0  0  0  0  0  0  0  0  0  0  0  0
  144.5578   75.5346  215.5755 H   0  0  0  0  0  0  0  0  0  0  0  0
  142.6662   76.2336  216.9804 H   0  0  0  0  0  0  0  0  0  0  0  0
  1  2  2  0
  2  3  1  0
  3  4  1  0
  4  5  1  0
  5  6  2  0
  5  7  1  0
  7  8  1  0
  8  9  1  0
  9 10  1  0
 10 11  1  0
 11 12  1  0
 12 13  1  0
 13 14  1  0
 14 15  2  0
 15 16  1  0
 16 17  2  0
 17 18  1  0
 17 19  1  0
 19 20  2  0
  2 21  1  0
 21 22  2  0
 22 23  1  0
 23 24  2  0
 24 25  1  0
 25 26  2  0
 26 27  1  0
 26 28  1  0
 28 29  2  0
 29 30  1  0
 30 31  2  0
 13  7  1  0
 20 14  1  0
 31 21  1  0
 30 24  1  0
  3 32  1  0
  4 33  1  0
  4 34  1  0
  8 35  1  0
  8 36  1  0
  9 37  1  0
  9 38  1  0
 10 39  1  0
 10 40  1  0
 11 41  1  0
 11 42  1  0
 12 43  1  0
 12 44  1  0
 13 45  1  6
 15 46  1  0
 16 47  1  0
 18 48  1  0
 19 49  1  0
 20 50  1  0
 22 51  1  0
 23 52  1  0
 25 53  1  0
 28 54  1  0
 29 55  1  0
M  END
>  <smiles>  (33) 
O=C(NCC(=O)N1CCCCCC1c1ccc(O)cc1)c1ccc2cc(Cl)ccc2n1

>  <score_type>  (33) 
oracle

>  <origin>  (33) 
autodockgpu

>  <m_score__min__energy>  (33) 
-6.6699999999999999

>  <m_primary>  (33) 
energy

>  <rmsd>  (33) 
7.477375085555683

>  <m_score__min__rmsd>  (33) 
7.477375085555683

>  <meeko>  (33) 
{"free_energy": -4.95, "intermolecular_energy": -8.53, "internal_energy": -2.05, "cluster_size": 6, "cluster_id": 9, "rank_in_cluster": 2}

>  <energy>  (33) 
-4.51

>  <cluster_rmsd>  (33) 
1.93

>  <cluster>  (33) 
9

$$$$

     RDKit          3D

 55 58  0  0  0  0  0  0  0  0999 V2000
  137.8060   71.0060  221.3290 O   0  0  0  0  0  0  0  0  0  0  0  0
  138.3580   71.5510  222.3310 C   0  0  0  0  0  0  0  0  0  0  0  0
  138.4900   72.9730  222.2770 N   0  0  0  0  0  0  0  0  0  0  0  0
  137.9730   73.6190  221.0780 C   0  0  0  0  0  0  0  0  0  0  0  0
  138.7690   73.2520  219.8780 C   0  0  0  0  0  0  0  0  0  0  0  0
  138.3310   72.3920  219.0560 O   0  0  0  0  0  0  0  0  0  0  0  0
  140.0120   73.8840  219.6880 N   0  0  0  0  0  0  0  0  0  0  0  0
  140.2710   74.5430  218.4280 C   0  0  0  0  0  0  0  0  0  0  0  0
  139.8770   75.9970  218.4470 C   0  0  0  0  0  0  0  0  0  0  0  0
  139.7240   76.5530  219.8390 C   0  0  0  0  0  0  0  0  0  0  0  0
  140.8890   76.2900  220.7410 C   0  0  0  0  0  0  0  0  0  0  0  0
  140.7170   75.0680  221.6160 C   0  0  0  0  0  0  0  0  0  0  0  0
  140.9400   73.8140  220.8040 C   0  0  2  0  0  0  0  0  0  0  0  0
  142.3490   73.6840  220.3860 C   0  0  0  0  0  0  0  0  0  0  0  0
  143.2410   74.7320  220.5100 C   0  0  0  0  0  0  0  0  0  0  0  0
  144.5700   74.5880  220.1090 C   0  0  0  0  0  0  0  0  0  0  0  0
  145.0200   73.3790  219.5740 C   0  0  0  0  0  0  0  0  0  0  0  0
  146.3370   73.2020  219.1650 O   0  0  0  0  0  0  0  0  0  0  0  0
  144.1210   72.3140  219.4460 C   0  0  0  0  0  0  0  0  0  0  0  0
  142.8160   72.5000  219.8550 C   0  0  0  0  0  0  0  0  0  0  0  0
  138.8350   70.7850  223.4760 C   0  0  0  0  0  0  0  0  0  0  0  0
  138.5690   69.4280  223.4870 C   0  0  0  0  0  0  0  0  0  0  0  0
  138.9750   68.6010  224.5270 C   0  0  0  0  0  0  0  0  0  0  0  0
  139.6660   69.1960  225.5630 C   0  0  0  0  0  0  0  0  0  0  0  0
  140.0980   68.4380  226.6240 C   0  0  0  0  0  0  0  0  0  0  0  0
  140.7990   68.9950  227.6910 C   0  0  0  0  0  0  0  0  0  0  0  0
  141.3360   68.0120  229.0260 Cl  0  0  0  0  0  0  0  0  0  0  0  0
  141.0380   70.3600  227.6290 C   0  0  0  0  0  0  0  0  0  0  0  0
  140.6060   71.1250  226.5650 C   0  0  0  0  0  0  0  0  0  0  0  0
  139.9130   70.5530  225.5160 C   0  0  0  0  0  0  0  0  0  0  0  0
  139.5090   71.3390  224.4960 N   0  0  0  0  0  0  0  0  0  0  0  0
  138.9350   73.5070  223.0610 H   0  0  0  0  0  0  0  0  0  0  0  0
  136.9296   73.3063  220.9247 H   0  0  0  0  0  0  0  0  0  0  0  0
  138.0378   74.7083  221.2165 H   0  0  0  0  0  0  0  0  0  0  0  0
  141.3461   74.4715  218.2067 H   0  0  0  0  0  0  0  0  0  0  0  0
  139.6660   74.0423  217.6578 H   0  0  0  0  0  0  0  0  0  0  0  0
  140.6516   76.5759  217.9226 H   0  0  0  0  0  0  0  0  0  0  0  0
  138.8968   76.0762  217.9541 H   0  0  0  0  0  0  0  0  0  0  0  0
  139.5877   77.6418  219.7616 H   0  0  0  0  0  0  0  0  0  0  0  0
  138.8584   76.0434  220.2873 H   0  0  0  0  0  0  0  0  0  0  0  0
  141.7849   76.1482  220.1187 H   0  0  0  0  0  0  0  0  0  0  0  0
  140.9774   77.1565  221.4128 H   0  0  0  0  0  0  0  0  0  0  0  0
  141.4465   75.1036  222.4385 H   0  0  0  0  0  0  0  0  0  0  0  0
  139.6951   75.0570  222.0230 H   0  0  0  0  0  0  0  0  0  0  0  0
  140.7462   72.9062  221.3942 H   0  0  0  0  0  0  0  0  0  0  0  0
  142.8999   75.6901  220.9293 H   0  0  0  0  0  0  0  0  0  0  0  0
  145.2674   75.4320  220.2150 H   0  0  0  0  0  0  0  0  0  0  0  0
  146.9120   74.0170  218.9150 H   0  0  0  0  0  0  0  0  0  0  0  0
  144.4473   71.3500  219.0286 H   0  0  0  0  0  0  0  0  0  0  0  0
  142.1123   71.6608  219.7521 H   0  0  0  0  0  0  0  0  0  0  0  0
  138.0170   68.9882  222.6433 H   0  0  0  0  0  0  0  0  0  0  0  0
  138.7561   67.5230  224.5248 H   0  0  0  0  0  0  0  0  0  0  0  0
  139.8840   67.3590  226.6312 H   0  0  0  0  0  0  0  0  0  0  0  0
  141.5864   70.8454  228.4497 H   0  0  0  0  0  0  0  0  0  0  0  0
  140.8163   72.2046  226.5520 H   0  0  0  0  0  0  0  0  0  0  0  0
  1  2  2  0
  2  3  1  0
  3  4  1  0
  4  5  1  0
  5  6  2  0
  5  7  1  0
  7  8  1  0
  8  9  1  0
  9 10  1  0
 10 11  1  0
 11 12  1  0
 12 13  1  0
 13 14  1  0
 14 15  2  0
 15 16  1  0
 16 17  2  0
 17 18  1  0
 17 19  1  0
 19 20  2  0
  2 21  1  0
 21 22  2  0
 22 23  1  0
 23 24  2  0
 24 25  1  0
 25 26  2  0
 26 27  1  0
 26 28  1  0
 28 29  2  0
 29 30  1  0
 30 31  2  0
 13  7  1  0
 20 14  1  0
 31 21  1  0
 30 24  1  0
  3 32  1  0
  4 33  1  0
  4 34  1  0
  8 35  1  0
  8 36  1  0
  9 37  1  0
  9 38  1  0
 10 39  1  0
 10 40  1  0
 11 41  1  0
 11 42  1  0
 12 43  1  0
 12 44  1  0
 13 45  1  1
 15 46  1  0
 16 47  1  0
 18 48  1  0
 19 49  1  0
 20 50  1  0
 22 51  1  0
 23 52  1  0
 25 53  1  0
 28 54  1  0
 29 55  1  0
M  END
>  <smiles>  (34) 
O=C(NCC(=O)N1CCCCCC1c1ccc(O)cc1)c1ccc2cc(Cl)ccc2n1

>  <score_type>  (34) 
oracle

>  <origin>  (34) 
autodockgpu

>  <m_score__min__energy>  (34) 
-6.6699999999999999

>  <m_primary>  (34) 
energy

>  <rmsd>  (34) 
2.1109372046456962

>  <m_score__min__rmsd>  (34) 
2.1109372046456962

>  <meeko>  (34) 
{"free_energy": -5.92, "intermolecular_energy": -9.5, "internal_energy": -1.47, "cluster_size": 12, "cluster_id": 2, "rank_in_cluster": 8}

>  <energy>  (34) 
-4.44

>  <cluster_rmsd>  (34) 
1.81

>  <cluster>  (34) 
9

$$$$

     RDKit          3D

 55 58  0  0  0  0  0  0  0  0999 V2000
  136.9140   73.4160  220.7410 O   0  0  0  0  0  0  0  0  0  0  0  0
  137.2430   73.7710  221.9130 C   0  0  0  0  0  0  0  0  0  0  0  0
  137.0520   72.7960  222.9400 N   0  0  0  0  0  0  0  0  0  0  0  0
  136.5030   71.5150  222.5120 C   0  0  0  0  0  0  0  0  0  0  0  0
  137.2890   70.3790  223.0600 C   0  0  0  0  0  0  0  0  0  0  0  0
  136.7070   69.4270  223.6600 O   0  0  0  0  0  0  0  0  0  0  0  0
  138.6850   70.3970  222.8900 N   0  0  0  0  0  0  0  0  0  0  0  0
  139.2600   69.6730  221.7770 C   0  0  0  0  0  0  0  0  0  0  0  0
  139.7740   70.5900  220.6990 C   0  0  0  0  0  0  0  0  0  0  0  0
  139.5580   72.0500  221.0070 C   0  0  0  0  0  0  0  0  0  0  0  0
  140.4250   72.5850  222.1030 C   0  0  0  0  0  0  0  0  0  0  0  0
  140.7200   71.5740  223.1890 C   0  0  0  0  0  0  0  0  0  0  0  0
  139.4370   71.1590  223.8720 C   0  0  2  0  0  0  0  0  0  0  0  0
  139.7060   70.4100  225.1150 C   0  0  0  0  0  0  0  0  0  0  0  0
  140.2960   71.0120  226.2090 C   0  0  0  0  0  0  0  0  0  0  0  0
  140.5400   70.2850  227.3760 C   0  0  0  0  0  0  0  0  0  0  0  0
  140.1910   68.9350  227.4540 C   0  0  0  0  0  0  0  0  0  0  0  0
  140.4200   68.1830  228.6010 O   0  0  0  0  0  0  0  0  0  0  0  0
  139.5930   68.3210  226.3480 C   0  0  0  0  0  0  0  0  0  0  0  0
  139.3690   69.0770  225.2150 C   0  0  0  0  0  0  0  0  0  0  0  0
  137.7850   75.0920  222.2090 C   0  0  0  0  0  0  0  0  0  0  0  0
  136.8800   76.1100  222.4470 C   0  0  0  0  0  0  0  0  0  0  0  0
  137.2830   77.4080  222.7380 C   0  0  0  0  0  0  0  0  0  0  0  0
  138.6420   77.6430  222.7810 C   0  0  0  0  0  0  0  0  0  0  0  0
  139.1120   78.9020  223.0630 C   0  0  0  0  0  0  0  0  0  0  0  0
  140.4740   79.1870  223.1180 C   0  0  0  0  0  0  0  0  0  0  0  0
  141.0450   80.7930  223.4780 Cl  0  0  0  0  0  0  0  0  0  0  0  0
  141.3370   78.1290  222.8700 C   0  0  0  0  0  0  0  0  0  0  0  0
  140.8700   76.8620  222.5860 C   0  0  0  0  0  0  0  0  0  0  0  0
  139.5140   76.6020  222.5380 C   0  0  0  0  0  0  0  0  0  0  0  0
  139.1020   75.3480  222.2560 N   0  0  0  0  0  0  0  0  0  0  0  0
  137.2950   73.0030  223.9370 H   0  0  0  0  0  0  0  0  0  0  0  0
  135.4642   71.4348  222.8647 H   0  0  0  0  0  0  0  0  0  0  0  0
  136.5465   71.4688  221.4138 H   0  0  0  0  0  0  0  0  0  0  0  0
  140.0953   69.0607  222.1477 H   0  0  0  0  0  0  0  0  0  0  0  0
  138.4673   69.0500  221.3371 H   0  0  0  0  0  0  0  0  0  0  0  0
  140.8530   70.4147  220.5763 H   0  0  0  0  0  0  0  0  0  0  0  0
  139.2110   70.3631  219.7816 H   0  0  0  0  0  0  0  0  0  0  0  0
  139.7619   72.6282  220.0937 H   0  0  0  0  0  0  0  0  0  0  0  0
  138.5184   72.1476  221.3529 H   0  0  0  0  0  0  0  0  0  0  0  0
  141.3790   72.9120  221.6637 H   0  0  0  0  0  0  0  0  0  0  0  0
  139.8758   73.4137  222.5738 H   0  0  0  0  0  0  0  0  0  0  0  0
  141.1978   70.6893  222.7429 H   0  0  0  0  0  0  0  0  0  0  0  0
  141.3935   72.0276  223.9311 H   0  0  0  0  0  0  0  0  0  0  0  0
  138.8478   72.0282  224.1998 H   0  0  0  0  0  0  0  0  0  0  0  0
  140.5765   72.0745  226.1606 H   0  0  0  0  0  0  0  0  0  0  0  0
  141.0100   70.7788  228.2393 H   0  0  0  0  0  0  0  0  0  0  0  0
  139.9400   67.2830  228.7310 H   0  0  0  0  0  0  0  0  0  0  0  0
  139.3077   67.2592  226.3807 H   0  0  0  0  0  0  0  0  0  0  0  0
  138.8977   68.5912  224.3479 H   0  0  0  0  0  0  0  0  0  0  0  0
  135.8041   75.8848  222.4046 H   0  0  0  0  0  0  0  0  0  0  0  0
  136.5534   78.2096  222.9251 H   0  0  0  0  0  0  0  0  0  0  0  0
  138.3903   79.7105  223.2513 H   0  0  0  0  0  0  0  0  0  0  0  0
  142.4224   78.3051  222.9006 H   0  0  0  0  0  0  0  0  0  0  0  0
  141.5861   76.0491  222.3955 H   0  0  0  0  0  0  0  0  0  0  0  0
  1  2  2  0
  2  3  1  0
  3  4  1  0
  4  5  1  0
  5  6  2  0
  5  7  1  0
  7  8  1  0
  8  9  1  0
  9 10  1  0
 10 11  1  0
 11 12  1  0
 12 13  1  0
 13 14  1  0
 14 15  2  0
 15 16  1  0
 16 17  2  0
 17 18  1  0
 17 19  1  0
 19 20  2  0
  2 21  1  0
 21 22  2  0
 22 23  1  0
 23 24  2  0
 24 25  1  0
 25 26  2  0
 26 27  1  0
 26 28  1  0
 28 29  2  0
 29 30  1  0
 30 31  2  0
 13  7  1  0
 20 14  1  0
 31 21  1  0
 30 24  1  0
  3 32  1  0
  4 33  1  0
  4 34  1  0
  8 35  1  0
  8 36  1  0
  9 37  1  0
  9 38  1  0
 10 39  1  0
 10 40  1  0
 11 41  1  0
 11 42  1  0
 12 43  1  0
 12 44  1  0
 13 45  1  1
 15 46  1  0
 16 47  1  0
 18 48  1  0
 19 49  1  0
 20 50  1  0
 22 51  1  0
 23 52  1  0
 25 53  1  0
 28 54  1  0
 29 55  1  0
M  END
>  <smiles>  (35) 
O=C(NCC(=O)N1CCCCCC1c1ccc(O)cc1)c1ccc2cc(Cl)ccc2n1

>  <score_type>  (35) 
oracle

>  <origin>  (35) 
autodockgpu

>  <m_score__min__energy>  (35) 
-6.6699999999999999

>  <m_primary>  (35) 
energy

>  <rmsd>  (35) 
7.167998186863501

>  <m_score__min__rmsd>  (35) 
7.167998186863501

>  <meeko>  (35) 
{"free_energy": -5.66, "intermolecular_energy": -9.24, "internal_energy": -2.0, "cluster_size": 1, "cluster_id": 6, "rank_in_cluster": 1}

>  <energy>  (35) 
-5.45

>  <cluster_rmsd>  (35) 
0.0

>  <cluster>  (35) 
10

$$$$

     RDKit          3D

 55 58  0  0  0  0  0  0  0  0999 V2000
  140.2640   72.4180  220.8080 O   0  0  0  0  0  0  0  0  0  0  0  0
  139.8770   72.7270  221.9750 C   0  0  0  0  0  0  0  0  0  0  0  0
  139.3410   74.0420  222.1310 N   0  0  0  0  0  0  0  0  0  0  0  0
  139.3070   74.8660  220.9290 C   0  0  0  0  0  0  0  0  0  0  0  0
  140.5950   75.5760  220.7220 C   0  0  0  0  0  0  0  0  0  0  0  0
  141.1220   76.2380  221.6650 O   0  0  0  0  0  0  0  0  0  0  0  0
  141.2040   75.4890  219.4570 N   0  0  0  0  0  0  0  0  0  0  0  0
  141.5440   74.1820  218.9370 C   0  0  0  0  0  0  0  0  0  0  0  0
  143.0050   74.0630  218.5940 C   0  0  0  0  0  0  0  0  0  0  0  0
  143.9070   74.7580  219.5810 C   0  0  0  0  0  0  0  0  0  0  0  0
  143.6740   76.2310  219.7010 C   0  0  0  0  0  0  0  0  0  0  0  0
  142.9270   76.8240  218.5270 C   0  0  0  0  0  0  0  0  0  0  0  0
  141.4380   76.7490  218.7730 C   0  0  2  0  0  0  0  0  0  0  0  0
  140.9550   77.9230  219.5270 C   0  0  0  0  0  0  0  0  0  0  0  0
  141.8130   78.7050  220.2770 C   0  0  0  0  0  0  0  0  0  0  0  0
  141.3350   79.8110  220.9810 C   0  0  0  0  0  0  0  0  0  0  0  0
  139.9800   80.1440  220.9400 C   0  0  0  0  0  0  0  0  0  0  0  0
  139.4720   81.2390  221.6310 O   0  0  0  0  0  0  0  0  0  0  0  0
  139.1070   79.3550  220.1830 C   0  0  0  0  0  0  0  0  0  0  0  0
  139.6210   78.2710  219.5010 C   0  0  0  0  0  0  0  0  0  0  0  0
  139.9670   71.8030  223.1000 C   0  0  0  0  0  0  0  0  0  0  0  0
  139.5160   70.5120  222.8980 C   0  0  0  0  0  0  0  0  0  0  0  0
  139.5540   69.5480  223.8990 C   0  0  0  0  0  0  0  0  0  0  0  0
  140.0670   69.9370  225.1200 C   0  0  0  0  0  0  0  0  0  0  0  0
  140.1350   69.0360  226.1540 C   0  0  0  0  0  0  0  0  0  0  0  0
  140.6450   69.3840  227.4030 C   0  0  0  0  0  0  0  0  0  0  0  0
  140.7200   68.2220  228.7000 Cl  0  0  0  0  0  0  0  0  0  0  0  0
  141.0830   70.6920  227.5500 C   0  0  0  0  0  0  0  0  0  0  0  0
  141.0170   71.6000  226.5130 C   0  0  0  0  0  0  0  0  0  0  0  0
  140.5080   71.2350  225.2830 C   0  0  0  0  0  0  0  0  0  0  0  0
  140.4620   72.1560  224.2970 N   0  0  0  0  0  0  0  0  0  0  0  0
  138.9990   74.3820  223.0600 H   0  0  0  0  0  0  0  0  0  0  0  0
  139.1094   74.2222  220.0592 H   0  0  0  0  0  0  0  0  0  0  0  0
  138.5125   75.6176  221.0469 H   0  0  0  0  0  0  0  0  0  0  0  0
  141.2964   73.4247  219.6954 H   0  0  0  0  0  0  0  0  0  0  0  0
  140.9688   74.0291  218.0119 H   0  0  0  0  0  0  0  0  0  0  0  0
  143.2719   72.9962  218.5681 H   0  0  0  0  0  0  0  0  0  0  0  0
  143.1517   74.5505  217.6189 H   0  0  0  0  0  0  0  0  0  0  0  0
  143.7497   74.3032  220.5701 H   0  0  0  0  0  0  0  0  0  0  0  0
  144.9347   74.6322  219.2094 H   0  0  0  0  0  0  0  0  0  0  0  0
  143.0902   76.4174  220.6145 H   0  0  0  0  0  0  0  0  0  0  0  0
  144.6626   76.7124  219.7305 H   0  0  0  0  0  0  0  0  0  0  0  0
  143.2231   77.8758  218.4001 H   0  0  0  0  0  0  0  0  0  0  0  0
  143.1726   76.2559  217.6176 H   0  0  0  0  0  0  0  0  0  0  0  0
  140.8672   76.7750  217.8330 H   0  0  0  0  0  0  0  0  0  0  0  0
  142.8829   78.4532  220.3194 H   0  0  0  0  0  0  0  0  0  0  0  0
  142.0307   80.4246  221.5723 H   0  0  0  0  0  0  0  0  0  0  0  0
  139.1890   82.0850  221.1180 H   0  0  0  0  0  0  0  0  0  0  0  0
  138.0344   79.5936  220.1326 H   0  0  0  0  0  0  0  0  0  0  0  0
  138.9317   77.6533  218.9066 H   0  0  0  0  0  0  0  0  0  0  0  0
  139.1134   70.2381  221.9117 H   0  0  0  0  0  0  0  0  0  0  0  0
  139.1923   68.5236  223.7262 H   0  0  0  0  0  0  0  0  0  0  0  0
  139.7761   68.0090  225.9914 H   0  0  0  0  0  0  0  0  0  0  0  0
  141.4936   71.0138  228.5184 H   0  0  0  0  0  0  0  0  0  0  0  0
  141.3748   72.6285  226.6687 H   0  0  0  0  0  0  0  0  0  0  0  0
  1  2  2  0
  2  3  1  0
  3  4  1  0
  4  5  1  0
  5  6  2  0
  5  7  1  0
  7  8  1  0
  8  9  1  0
  9 10  1  0
 10 11  1  0
 11 12  1  0
 12 13  1  0
 13 14  1  0
 14 15  2  0
 15 16  1  0
 16 17  2  0
 17 18  1  0
 17 19  1  0
 19 20  2  0
  2 21  1  0
 21 22  2  0
 22 23  1  0
 23 24  2  0
 24 25  1  0
 25 26  2  0
 26 27  1  0
 26 28  1  0
 28 29  2  0
 29 30  1  0
 30 31  2  0
 13  7  1  0
 20 14  1  0
 31 21  1  0
 30 24  1  0
  3 32  1  0
  4 33  1  0
  4 34  1  0
  8 35  1  0
  8 36  1  0
  9 37  1  0
  9 38  1  0
 10 39  1  0
 10 40  1  0
 11 41  1  0
 11 42  1  0
 12 43  1  0
 12 44  1  0
 13 45  1  6
 15 46  1  0
 16 47  1  0
 18 48  1  0
 19 49  1  0
 20 50  1  0
 22 51  1  0
 23 52  1  0
 25 53  1  0
 28 54  1  0
 29 55  1  0
M  END
>  <smiles>  (36) 
O=C(NCC(=O)N1CCCCCC1c1ccc(O)cc1)c1ccc2cc(Cl)ccc2n1

>  <score_type>  (36) 
oracle

>  <origin>  (36) 
autodockgpu

>  <m_score__min__energy>  (36) 
-6.6699999999999999

>  <m_primary>  (36) 
energy

>  <rmsd>  (36) 
1.9249266552916051

>  <m_score__min__rmsd>  (36) 
1.9249266552916051

>  <meeko>  (36) 
{"free_energy": -5.15, "intermolecular_energy": -8.73, "internal_energy": -1.53, "cluster_size": 4, "cluster_id": 3, "rank_in_cluster": 4}

>  <energy>  (36) 
-5.22

>  <cluster_rmsd>  (36) 
0.83

>  <cluster>  (36) 
10

$$$$

     RDKit          3D

 55 58  0  0  0  0  0  0  0  0999 V2000
  139.1160   71.8540  220.6570 O   0  0  0  0  0  0  0  0  0  0  0  0
  138.9990   72.2910  221.8410 C   0  0  0  0  0  0  0  0  0  0  0  0
  138.5540   73.6430  221.9690 N   0  0  0  0  0  0  0  0  0  0  0  0
  138.2910   74.3510  220.7230 C   0  0  0  0  0  0  0  0  0  0  0  0
  138.9880   75.6630  220.6870 C   0  0  0  0  0  0  0  0  0  0  0  0
  139.2870   76.2010  219.5800 O   0  0  0  0  0  0  0  0  0  0  0  0
  139.2990   76.2810  221.9120 N   0  0  0  0  0  0  0  0  0  0  0  0
  138.2250   76.8460  222.7000 C   0  0  0  0  0  0  0  0  0  0  0  0
  137.8710   78.2450  222.2690 C   0  0  0  0  0  0  0  0  0  0  0  0
  139.0230   79.2100  222.3760 C   0  0  0  0  0  0  0  0  0  0  0  0
  140.3140   78.6960  221.8210 C   0  0  0  0  0  0  0  0  0  0  0  0
  141.0100   77.7040  222.7280 C   0  0  0  0  0  0  0  0  0  0  0  0
  140.7040   76.2930  222.2810 C   0  0  2  0  0  0  0  0  0  0  0  0
  141.6010   75.8670  221.1890 C   0  0  0  0  0  0  0  0  0  0  0  0
  142.1410   76.7760  220.2990 C   0  0  0  0  0  0  0  0  0  0  0  0
  142.9870   76.3500  219.2740 C   0  0  0  0  0  0  0  0  0  0  0  0
  143.3000   74.9970  219.1300 C   0  0  0  0  0  0  0  0  0  0  0  0
  144.1400   74.5410  218.1190 O   0  0  0  0  0  0  0  0  0  0  0  0
  142.7550   74.0730  220.0280 C   0  0  0  0  0  0  0  0  0  0  0  0
  141.9230   74.5360  221.0280 C   0  0  0  0  0  0  0  0  0  0  0  0
  139.2960   71.4740  223.0120 C   0  0  0  0  0  0  0  0  0  0  0  0
  138.9100   70.1470  222.9730 C   0  0  0  0  0  0  0  0  0  0  0  0
  139.1430   69.2760  224.0310 C   0  0  0  0  0  0  0  0  0  0  0  0
  139.7830   69.7960  225.1370 C   0  0  0  0  0  0  0  0  0  0  0  0
  140.0440   68.9920  226.2190 C   0  0  0  0  0  0  0  0  0  0  0  0
  140.6880   69.4730  227.3570 C   0  0  0  0  0  0  0  0  0  0  0  0
  141.0080   68.4320  228.7180 Cl  0  0  0  0  0  0  0  0  0  0  0  0
  141.0520   70.8120  227.3420 C   0  0  0  0  0  0  0  0  0  0  0  0
  140.7920   71.6220  226.2570 C   0  0  0  0  0  0  0  0  0  0  0  0
  140.1520   71.1250  225.1390 C   0  0  0  0  0  0  0  0  0  0  0  0
  139.9170   71.9550  224.1000 N   0  0  0  0  0  0  0  0  0  0  0  0
  138.4300   74.0870  222.9090 H   0  0  0  0  0  0  0  0  0  0  0  0
  138.6419   73.7361  219.8811 H   0  0  0  0  0  0  0  0  0  0  0  0
  137.2085   74.5321  220.6497 H   0  0  0  0  0  0  0  0  0  0  0  0
  137.3354   76.2079  222.5936 H   0  0  0  0  0  0  0  0  0  0  0  0
  138.5648   76.8930  223.7451 H   0  0  0  0  0  0  0  0  0  0  0  0
  137.5376   78.2139  221.2212 H   0  0  0  0  0  0  0  0  0  0  0  0
  137.0807   78.6043  222.9445 H   0  0  0  0  0  0  0  0  0  0  0  0
  138.7552   80.1272  221.8309 H   0  0  0  0  0  0  0  0  0  0  0  0
  139.1894   79.3821  223.4496 H   0  0  0  0  0  0  0  0  0  0  0  0
  140.1077   78.2031  220.8595 H   0  0  0  0  0  0  0  0  0  0  0  0
  140.9856   79.5603  221.7118 H   0  0  0  0  0  0  0  0  0  0  0  0
  142.0963   77.8720  222.6863 H   0  0  0  0  0  0  0  0  0  0  0  0
  140.6507   77.8426  223.7584 H   0  0  0  0  0  0  0  0  0  0  0  0
  140.8843   75.5618  223.0828 H   0  0  0  0  0  0  0  0  0  0  0  0
  141.9019   77.8450  220.3994 H   0  0  0  0  0  0  0  0  0  0  0  0
  143.4103   77.0857  218.5744 H   0  0  0  0  0  0  0  0  0  0  0  0
  144.9310   75.1190  217.8080 H   0  0  0  0  0  0  0  0  0  0  0  0
  142.9843   73.0008  219.9393 H   0  0  0  0  0  0  0  0  0  0  0  0
  141.4956   73.8064  221.7315 H   0  0  0  0  0  0  0  0  0  0  0  0
  138.4014   69.7677  222.0745 H   0  0  0  0  0  0  0  0  0  0  0  0
  138.8318   68.2218  223.9884 H   0  0  0  0  0  0  0  0  0  0  0  0
  139.7355   67.9367  226.1864 H   0  0  0  0  0  0  0  0  0  0  0  0
  141.5614   71.2384  228.2188 H   0  0  0  0  0  0  0  0  0  0  0  0
  141.0985   72.6781  226.2824 H   0  0  0  0  0  0  0  0  0  0  0  0
  1  2  2  0
  2  3  1  0
  3  4  1  0
  4  5  1  0
  5  6  2  0
  5  7  1  0
  7  8  1  0
  8  9  1  0
  9 10  1  0
 10 11  1  0
 11 12  1  0
 12 13  1  0
 13 14  1  0
 14 15  2  0
 15 16  1  0
 16 17  2  0
 17 18  1  0
 17 19  1  0
 19 20  2  0
  2 21  1  0
 21 22  2  0
 22 23  1  0
 23 24  2  0
 24 25  1  0
 25 26  2  0
 26 27  1  0
 26 28  1  0
 28 29  2  0
 29 30  1  0
 30 31  2  0
 13  7  1  0
 20 14  1  0
 31 21  1  0
 30 24  1  0
  3 32  1  0
  4 33  1  0
  4 34  1  0
  8 35  1  0
  8 36  1  0
  9 37  1  0
  9 38  1  0
 10 39  1  0
 10 40  1  0
 11 41  1  0
 11 42  1  0
 12 43  1  0
 12 44  1  0
 13 45  1  1
 15 46  1  0
 16 47  1  0
 18 48  1  0
 19 49  1  0
 20 50  1  0
 22 51  1  0
 23 52  1  0
 25 53  1  0
 28 54  1  0
 29 55  1  0
M  END
>  <smiles>  (37) 
O=C(NCC(=O)N1CCCCCC1c1ccc(O)cc1)c1ccc2cc(Cl)ccc2n1

>  <score_type>  (37) 
oracle

>  <origin>  (37) 
autodockgpu

>  <m_score__min__energy>  (37) 
-6.6699999999999999

>  <m_primary>  (37) 
energy

>  <rmsd>  (37) 
2.9445316355363005

>  <m_score__min__rmsd>  (37) 
2.9445316355363005

>  <meeko>  (37) 
{"free_energy": -6.05, "intermolecular_energy": -9.63, "internal_energy": -1.87, "cluster_size": 12, "cluster_id": 2, "rank_in_cluster": 3}

>  <energy>  (37) 
-5.41

>  <cluster_rmsd>  (37) 
0.0

>  <cluster>  (37) 
11

$$$$

     RDKit          3D

 55 58  0  0  0  0  0  0  0  0999 V2000
  138.5980   73.4920  220.2360 O   0  0  0  0  0  0  0  0  0  0  0  0
  138.6510   73.6740  221.4900 C   0  0  0  0  0  0  0  0  0  0  0  0
  138.3160   74.9850  221.9490 N   0  0  0  0  0  0  0  0  0  0  0  0
  137.9540   75.9500  220.9200 C   0  0  0  0  0  0  0  0  0  0  0  0
  138.8460   77.1380  220.9530 C   0  0  0  0  0  0  0  0  0  0  0  0
  139.1660   77.7300  219.8790 O   0  0  0  0  0  0  0  0  0  0  0  0
  139.3160   77.5790  222.2040 N   0  0  0  0  0  0  0  0  0  0  0  0
  138.4220   78.3280  223.0590 C   0  0  0  0  0  0  0  0  0  0  0  0
  138.4070   79.7970  222.7280 C   0  0  0  0  0  0  0  0  0  0  0  0
  139.7570   80.4510  222.8640 C   0  0  0  0  0  0  0  0  0  0  0  0
  140.8810   79.6830  222.2430 C   0  0  0  0  0  0  0  0  0  0  0  0
  141.3280   78.4910  223.0610 C   0  0  0  0  0  0  0  0  0  0  0  0
  140.6890   77.2300  222.5270 C   0  0  2  0  0  0  0  0  0  0  0  0
  141.4420   76.6870  221.3800 C   0  0  0  0  0  0  0  0  0  0  0  0
  142.0440   77.5150  220.4520 C   0  0  0  0  0  0  0  0  0  0  0  0
  142.7520   76.9800  219.3750 C   0  0  0  0  0  0  0  0  0  0  0  0
  142.8610   75.5970  219.2170 C   0  0  0  0  0  0  0  0  0  0  0  0
  143.5600   75.0320  218.1550 O   0  0  0  0  0  0  0  0  0  0  0  0
  142.2530   74.7540  220.1540 C   0  0  0  0  0  0  0  0  0  0  0  0
  141.5630   75.3250  221.2050 C   0  0  0  0  0  0  0  0  0  0  0  0
  139.0320   72.6150  222.4190 C   0  0  0  0  0  0  0  0  0  0  0  0
  140.3720   72.5070  222.7420 C   0  0  0  0  0  0  0  0  0  0  0  0
  140.8470   71.5360  223.6160 C   0  0  0  0  0  0  0  0  0  0  0  0
  139.9150   70.6740  224.1560 C   0  0  0  0  0  0  0  0  0  0  0  0
  140.3150   69.6900  225.0280 C   0  0  0  0  0  0  0  0  0  0  0  0
  139.4100   68.7970  225.5970 C   0  0  0  0  0  0  0  0  0  0  0  0
  139.9420   67.5570  226.7010 Cl  0  0  0  0  0  0  0  0  0  0  0  0
  138.0790   68.9520  225.2380 C   0  0  0  0  0  0  0  0  0  0  0  0
  137.6730   69.9380  224.3630 C   0  0  0  0  0  0  0  0  0  0  0  0
  138.5870   70.8140  223.8100 C   0  0  0  0  0  0  0  0  0  0  0  0
  138.1460   71.7640  222.9580 N   0  0  0  0  0  0  0  0  0  0  0  0
  138.3350   75.2240  222.9680 H   0  0  0  0  0  0  0  0  0  0  0  0
  138.0348   75.4691  219.9340 H   0  0  0  0  0  0  0  0  0  0  0  0
  136.9233   76.2856  221.1073 H   0  0  0  0  0  0  0  0  0  0  0  0
  137.4037   77.9290  222.9412 H   0  0  0  0  0  0  0  0  0  0  0  0
  138.7798   78.2211  224.0937 H   0  0  0  0  0  0  0  0  0  0  0  0
  138.0633   79.9178  221.6901 H   0  0  0  0  0  0  0  0  0  0  0  0
  137.7333   80.2866  223.4467 H   0  0  0  0  0  0  0  0  0  0  0  0
  139.7100   81.4400  222.3849 H   0  0  0  0  0  0  0  0  0  0  0  0
  139.9720   80.5063  223.9414 H   0  0  0  0  0  0  0  0  0  0  0  0
  140.5528   79.3238  221.2564 H   0  0  0  0  0  0  0  0  0  0  0  0
  141.7396   80.3673  222.1761 H   0  0  0  0  0  0  0  0  0  0  0  0
  142.4225   78.3982  223.0018 H   0  0  0  0  0  0  0  0  0  0  0  0
  141.0224   78.6358  224.1077 H   0  0  0  0  0  0  0  0  0  0  0  0
  140.7025   76.4183  223.2693 H   0  0  0  0  0  0  0  0  0  0  0  0
  141.9644   78.6065  220.5632 H   0  0  0  0  0  0  0  0  0  0  0  0
  143.2274   77.6523  218.6456 H   0  0  0  0  0  0  0  0  0  0  0  0
  144.5120   75.3530  217.9360 H   0  0  0  0  0  0  0  0  0  0  0  0
  142.3232   73.6607  220.0555 H   0  0  0  0  0  0  0  0  0  0  0  0
  141.0859   74.6596  221.9395 H   0  0  0  0  0  0  0  0  0  0  0  0
  141.0859   73.2129  222.2925 H   0  0  0  0  0  0  0  0  0  0  0  0
  141.9156   71.4586  223.8653 H   0  0  0  0  0  0  0  0  0  0  0  0
  141.3814   69.6051  225.2842 H   0  0  0  0  0  0  0  0  0  0  0  0
  137.3272   68.2704  225.6625 H   0  0  0  0  0  0  0  0  0  0  0  0
  136.6081   70.0279  224.1023 H   0  0  0  0  0  0  0  0  0  0  0  0
  1  2  2  0
  2  3  1  0
  3  4  1  0
  4  5  1  0
  5  6  2  0
  5  7  1  0
  7  8  1  0
  8  9  1  0
  9 10  1  0
 10 11  1  0
 11 12  1  0
 12 13  1  0
 13 14  1  0
 14 15  2  0
 15 16  1  0
 16 17  2  0
 17 18  1  0
 17 19  1  0
 19 20  2  0
  2 21  1  0
 21 22  2  0
 22 23  1  0
 23 24  2  0
 24 25  1  0
 25 26  2  0
 26 27  1  0
 26 28  1  0
 28 29  2  0
 29 30  1  0
 30 31  2  0
 13  7  1  0
 20 14  1  0
 31 21  1  0
 30 24  1  0
  3 32  1  0
  4 33  1  0
  4 34  1  0
  8 35  1  0
  8 36  1  0
  9 37  1  0
  9 38  1  0
 10 39  1  0
 10 40  1  0
 11 41  1  0
 11 42  1  0
 12 43  1  0
 12 44  1  0
 13 45  1  1
 15 46  1  0
 16 47  1  0
 18 48  1  0
 19 49  1  0
 20 50  1  0
 22 51  1  0
 23 52  1  0
 25 53  1  0
 28 54  1  0
 29 55  1  0
M  END
>  <smiles>  (38) 
O=C(NCC(=O)N1CCCCCC1c1ccc(O)cc1)c1ccc2cc(Cl)ccc2n1

>  <score_type>  (38) 
oracle

>  <origin>  (38) 
autodockgpu

>  <m_score__min__energy>  (38) 
-6.6699999999999999

>  <m_primary>  (38) 
energy

>  <rmsd>  (38) 
4.212612568327247

>  <m_score__min__rmsd>  (38) 
4.212612568327247

>  <meeko>  (38) 
{"free_energy": -5.15, "intermolecular_energy": -8.73, "internal_energy": -1.94, "cluster_size": 6, "cluster_id": 1, "rank_in_cluster": 6}

>  <energy>  (38) 
-5.06

>  <cluster_rmsd>  (38) 
1.12

>  <cluster>  (38) 
11

$$$$

     RDKit          3D

 55 58  0  0  0  0  0  0  0  0999 V2000
  140.5330   72.7190  221.0770 O   0  0  0  0  0  0  0  0  0  0  0  0
  139.8370   72.7910  222.1340 C   0  0  0  0  0  0  0  0  0  0  0  0
  138.9150   73.8810  222.2060 N   0  0  0  0  0  0  0  0  0  0  0  0
  138.8890   74.7730  221.0550 C   0  0  0  0  0  0  0  0  0  0  0  0
  137.8830   75.8520  221.2290 C   0  0  0  0  0  0  0  0  0  0  0  0
  136.6950   75.5730  221.5690 O   0  0  0  0  0  0  0  0  0  0  0  0
  138.2900   77.1800  221.0050 N   0  0  0  0  0  0  0  0  0  0  0  0
  138.5510   77.6100  219.6490 C   0  0  0  0  0  0  0  0  0  0  0  0
  137.8560   78.9030  219.3110 C   0  0  0  0  0  0  0  0  0  0  0  0
  138.4900   80.1050  219.9610 C   0  0  0  0  0  0  0  0  0  0  0  0
  138.0710   80.3340  221.3790 C   0  0  0  0  0  0  0  0  0  0  0  0
  137.4080   79.1340  222.0170 C   0  0  0  0  0  0  0  0  0  0  0  0
  138.4120   78.0170  222.1870 C   0  0  2  0  0  0  0  0  0  0  0  0
  139.7760   78.5430  222.3930 C   0  0  0  0  0  0  0  0  0  0  0  0
  140.0890   79.3360  223.4810 C   0  0  0  0  0  0  0  0  0  0  0  0
  141.3850   79.8230  223.6570 C   0  0  0  0  0  0  0  0  0  0  0  0
  142.3870   79.5160  222.7340 C   0  0  0  0  0  0  0  0  0  0  0  0
  143.6890   79.9850  222.8810 O   0  0  0  0  0  0  0  0  0  0  0  0
  142.0750   78.7140  221.6310 C   0  0  0  0  0  0  0  0  0  0  0  0
  140.7810   78.2530  221.4950 C   0  0  0  0  0  0  0  0  0  0  0  0
  139.9610   71.8250  223.2200 C   0  0  0  0  0  0  0  0  0  0  0  0
  139.5460   70.5310  222.9680 C   0  0  0  0  0  0  0  0  0  0  0  0
  139.6180   69.5290  223.9290 C   0  0  0  0  0  0  0  0  0  0  0  0
  140.1270   69.8830  225.1620 C   0  0  0  0  0  0  0  0  0  0  0  0
  140.2260   68.9430  226.1590 C   0  0  0  0  0  0  0  0  0  0  0  0
  140.7330   69.2550  227.4180 C   0  0  0  0  0  0  0  0  0  0  0  0
  140.8490   68.0440  228.6660 Cl  0  0  0  0  0  0  0  0  0  0  0  0
  141.1330   70.5690  227.6160 C   0  0  0  0  0  0  0  0  0  0  0  0
  141.0350   71.5150  226.6180 C   0  0  0  0  0  0  0  0  0  0  0  0
  140.5300   71.1850  225.3760 C   0  0  0  0  0  0  0  0  0  0  0  0
  140.4520   72.1440  224.4280 N   0  0  0  0  0  0  0  0  0  0  0  0
  138.3020   74.0180  223.0430 H   0  0  0  0  0  0  0  0  0  0  0  0
  139.8833   75.2271  220.9314 H   0  0  0  0  0  0  0  0  0  0  0  0
  138.6159   74.1846  220.1667 H   0  0  0  0  0  0  0  0  0  0  0  0
  139.6351   77.7492  219.5254 H   0  0  0  0  0  0  0  0  0  0  0  0
  138.1635   76.8348  218.9716 H   0  0  0  0  0  0  0  0  0  0  0  0
  137.8840   79.0401  218.2199 H   0  0  0  0  0  0  0  0  0  0  0  0
  136.8267   78.8302  219.6921 H   0  0  0  0  0  0  0  0  0  0  0  0
  139.5816   79.9705  219.9423 H   0  0  0  0  0  0  0  0  0  0  0  0
  138.1563   80.9835  219.3893 H   0  0  0  0  0  0  0  0  0  0  0  0
  138.9637   80.5918  221.9678 H   0  0  0  0  0  0  0  0  0  0  0  0
  137.3276   81.1447  221.3682 H   0  0  0  0  0  0  0  0  0  0  0  0
  137.0100   79.4189  223.0021 H   0  0  0  0  0  0  0  0  0  0  0  0
  136.5892   78.7875  221.3693 H   0  0  0  0  0  0  0  0  0  0  0  0
  138.2103   77.4209  223.0892 H   0  0  0  0  0  0  0  0  0  0  0  0
  139.3090   79.5857  224.2153 H   0  0  0  0  0  0  0  0  0  0  0  0
  141.6187   80.4526  224.5282 H   0  0  0  0  0  0  0  0  0  0  0  0
  144.4300   79.6510  222.2510 H   0  0  0  0  0  0  0  0  0  0  0  0
  142.8442   78.4563  220.8881 H   0  0  0  0  0  0  0  0  0  0  0  0
  140.5396   77.6226  220.6265 H   0  0  0  0  0  0  0  0  0  0  0  0
  139.1452   70.2856  221.9734 H   0  0  0  0  0  0  0  0  0  0  0  0
  139.2849   68.5024  223.7166 H   0  0  0  0  0  0  0  0  0  0  0  0
  139.8951   67.9136  225.9569 H   0  0  0  0  0  0  0  0  0  0  0  0
  141.5389   70.8635  228.5950 H   0  0  0  0  0  0  0  0  0  0  0  0
  141.3635   72.5464  226.8137 H   0  0  0  0  0  0  0  0  0  0  0  0
  1  2  2  0
  2  3  1  0
  3  4  1  0
  4  5  1  0
  5  6  2  0
  5  7  1  0
  7  8  1  0
  8  9  1  0
  9 10  1  0
 10 11  1  0
 11 12  1  0
 12 13  1  0
 13 14  1  0
 14 15  2  0
 15 16  1  0
 16 17  2  0
 17 18  1  0
 17 19  1  0
 19 20  2  0
  2 21  1  0
 21 22  2  0
 22 23  1  0
 23 24  2  0
 24 25  1  0
 25 26  2  0
 26 27  1  0
 26 28  1  0
 28 29  2  0
 29 30  1  0
 30 31  2  0
 13  7  1  0
 20 14  1  0
 31 21  1  0
 30 24  1  0
  3 32  1  0
  4 33  1  0
  4 34  1  0
  8 35  1  0
  8 36  1  0
  9 37  1  0
  9 38  1  0
 10 39  1  0
 10 40  1  0
 11 41  1  0
 11 42  1  0
 12 43  1  0
 12 44  1  0
 13 45  1  1
 15 46  1  0
 16 47  1  0
 18 48  1  0
 19 49  1  0
 20 50  1  0
 22 51  1  0
 23 52  1  0
 25 53  1  0
 28 54  1  0
 29 55  1  0
M  END
>  <smiles>  (39) 
O=C(NCC(=O)N1CCCCCC1c1ccc(O)cc1)c1ccc2cc(Cl)ccc2n1

>  <score_type>  (39) 
oracle

>  <origin>  (39) 
autodockgpu

>  <m_score__min__energy>  (39) 
-6.6699999999999999

>  <m_primary>  (39) 
energy

>  <rmsd>  (39) 
2.881342032766024

>  <m_score__min__rmsd>  (39) 
2.881342032766024

>  <meeko>  (39) 
{"free_energy": -5.75, "intermolecular_energy": -9.33, "internal_energy": -1.32, "cluster_size": 1, "cluster_id": 4, "rank_in_cluster": 1}

>  <energy>  (39) 
-4.91

>  <cluster_rmsd>  (39) 
1.54

>  <cluster>  (39) 
11

$$$$

     RDKit          3D

 55 58  0  0  0  0  0  0  0  0999 V2000
  139.7020   71.8590  221.0730 O   0  0  0  0  0  0  0  0  0  0  0  0
  139.0880   71.9670  222.1770 C   0  0  0  0  0  0  0  0  0  0  0  0
  138.0430   72.9400  222.2210 N   0  0  0  0  0  0  0  0  0  0  0  0
  137.8120   73.6870  220.9920 C   0  0  0  0  0  0  0  0  0  0  0  0
  138.5020   75.0030  221.0200 C   0  0  0  0  0  0  0  0  0  0  0  0
  137.9290   76.0180  221.5170 O   0  0  0  0  0  0  0  0  0  0  0  0
  139.7990   75.0820  220.4820 N   0  0  0  0  0  0  0  0  0  0  0  0
  139.9510   75.2610  219.0550 C   0  0  0  0  0  0  0  0  0  0  0  0
  140.2710   76.6860  218.6850 C   0  0  0  0  0  0  0  0  0  0  0  0
  141.0730   77.4070  219.7370 C   0  0  0  0  0  0  0  0  0  0  0  0
  140.4630   77.3850  221.1030 C   0  0  0  0  0  0  0  0  0  0  0  0
  141.0740   76.3550  222.0220 C   0  0  0  0  0  0  0  0  0  0  0  0
  140.8920   74.9750  221.4340 C   0  0  2  0  0  0  0  0  0  0  0  0
  142.1440   74.4730  220.8340 C   0  0  0  0  0  0  0  0  0  0  0  0
  142.4410   73.1240  220.8000 C   0  0  0  0  0  0  0  0  0  0  0  0
  143.6310   72.6720  220.2280 C   0  0  0  0  0  0  0  0  0  0  0  0
  144.5420   73.5780  219.6810 C   0  0  0  0  0  0  0  0  0  0  0  0
  145.7360   73.1600  219.1030 O   0  0  0  0  0  0  0  0  0  0  0  0
  144.2460   74.9450  219.7120 C   0  0  0  0  0  0  0  0  0  0  0  0
  143.0580   75.3500  220.2880 C   0  0  0  0  0  0  0  0  0  0  0  0
  139.4200   71.1520  223.3400 C   0  0  0  0  0  0  0  0  0  0  0  0
  139.1400   69.8000  223.2680 C   0  0  0  0  0  0  0  0  0  0  0  0
  139.4130   68.9290  224.3160 C   0  0  0  0  0  0  0  0  0  0  0  0
  139.9840   69.4760  225.4470 C   0  0  0  0  0  0  0  0  0  0  0  0
  140.2810   68.6740  226.5220 C   0  0  0  0  0  0  0  0  0  0  0  0
  140.8570   69.1800  227.6840 C   0  0  0  0  0  0  0  0  0  0  0  0
  141.2240   68.1420  229.0340 Cl  0  0  0  0  0  0  0  0  0  0  0  0
  141.1160   70.5440  227.7020 C   0  0  0  0  0  0  0  0  0  0  0  0
  140.8200   71.3530  226.6250 C   0  0  0  0  0  0  0  0  0  0  0  0
  140.2490   70.8300  225.4820 C   0  0  0  0  0  0  0  0  0  0  0  0
  139.9750   71.6580  224.4520 N   0  0  0  0  0  0  0  0  0  0  0  0
  137.4840   73.0970  223.0930 H   0  0  0  0  0  0  0  0  0  0  0  0
  138.1910   73.1021  220.1410 H   0  0  0  0  0  0  0  0  0  0  0  0
  136.7310   73.8647  220.8927 H   0  0  0  0  0  0  0  0  0  0  0  0
  140.7671   74.6130  218.7028 H   0  0  0  0  0  0  0  0  0  0  0  0
  138.9939   74.9985  218.5806 H   0  0  0  0  0  0  0  0  0  0  0  0
  140.8467   76.6829  217.7477 H   0  0  0  0  0  0  0  0  0  0  0  0
  139.3145   77.2192  218.5809 H   0  0  0  0  0  0  0  0  0  0  0  0
  142.0653   76.9360  219.7958 H   0  0  0  0  0  0  0  0  0  0  0  0
  141.1164   78.4623  219.4298 H   0  0  0  0  0  0  0  0  0  0  0  0
  140.5936   78.3779  221.5580 H   0  0  0  0  0  0  0  0  0  0  0  0
  139.4033   77.1175  220.9784 H   0  0  0  0  0  0  0  0  0  0  0  0
  142.1476   76.5627  222.1415 H   0  0  0  0  0  0  0  0  0  0  0  0
  140.5771   76.4014  223.0023 H   0  0  0  0  0  0  0  0  0  0  0  0
  140.6434   74.2321  222.2062 H   0  0  0  0  0  0  0  0  0  0  0  0
  141.7326   72.3993  221.2279 H   0  0  0  0  0  0  0  0  0  0  0  0
  143.8528   71.5948  220.2079 H   0  0  0  0  0  0  0  0  0  0  0  0
  146.3460   73.8410  218.6320 H   0  0  0  0  0  0  0  0  0  0  0  0
  144.9442   75.6811  219.2869 H   0  0  0  0  0  0  0  0  0  0  0  0
  142.8292   76.4257  220.3126 H   0  0  0  0  0  0  0  0  0  0  0  0
  138.6855   69.4000  222.3496 H   0  0  0  0  0  0  0  0  0  0  0  0
  139.1849   67.8551  224.2473 H   0  0  0  0  0  0  0  0  0  0  0  0
  140.0568   67.5987  226.4628 H   0  0  0  0  0  0  0  0  0  0  0  0
  141.5693   70.9912  228.5990 H   0  0  0  0  0  0  0  0  0  0  0  0
  141.0418   72.4291  226.6774 H   0  0  0  0  0  0  0  0  0  0  0  0
  1  2  2  0
  2  3  1  0
  3  4  1  0
  4  5  1  0
  5  6  2  0
  5  7  1  0
  7  8  1  0
  8  9  1  0
  9 10  1  0
 10 11  1  0
 11 12  1  0
 12 13  1  0
 13 14  1  0
 14 15  2  0
 15 16  1  0
 16 17  2  0
 17 18  1  0
 17 19  1  0
 19 20  2  0
  2 21  1  0
 21 22  2  0
 22 23  1  0
 23 24  2  0
 24 25  1  0
 25 26  2  0
 26 27  1  0
 26 28  1  0
 28 29  2  0
 29 30  1  0
 30 31  2  0
 13  7  1  0
 20 14  1  0
 31 21  1  0
 30 24  1  0
  3 32  1  0
  4 33  1  0
  4 34  1  0
  8 35  1  0
  8 36  1  0
  9 37  1  0
  9 38  1  0
 10 39  1  0
 10 40  1  0
 11 41  1  0
 11 42  1  0
 12 43  1  0
 12 44  1  0
 13 45  1  1
 15 46  1  0
 16 47  1  0
 18 48  1  0
 19 49  1  0
 20 50  1  0
 22 51  1  0
 23 52  1  0
 25 53  1  0
 28 54  1  0
 29 55  1  0
M  END
>  <smiles>  (40) 
O=C(NCC(=O)N1CCCCCC1c1ccc(O)cc1)c1ccc2cc(Cl)ccc2n1

>  <score_type>  (40) 
oracle

>  <origin>  (40) 
autodockgpu

>  <m_score__min__energy>  (40) 
-6.6699999999999999

>  <m_primary>  (40) 
energy

>  <rmsd>  (40) 
1.8386558984827661

>  <m_score__min__rmsd>  (40) 
1.8386558984827661

>  <meeko>  (40) 
{"free_energy": -5.69, "intermolecular_energy": -9.27, "internal_energy": -1.68, "cluster_size": 12, "cluster_id": 2, "rank_in_cluster": 10}

>  <energy>  (40) 
-4.87

>  <cluster_rmsd>  (40) 
1.77

>  <cluster>  (40) 
11

$$$$

     RDKit          3D

 55 58  0  0  0  0  0  0  0  0999 V2000
  139.5130   71.7690  220.5570 O   0  0  0  0  0  0  0  0  0  0  0  0
  139.2330   72.2000  221.7160 C   0  0  0  0  0  0  0  0  0  0  0  0
  138.6680   73.5110  221.7780 N   0  0  0  0  0  0  0  0  0  0  0  0
  138.4840   74.1890  220.5010 C   0  0  0  0  0  0  0  0  0  0  0  0
  138.9500   75.5980  220.5640 C   0  0  0  0  0  0  0  0  0  0  0  0
  138.1220   76.5530  220.4730 O   0  0  0  0  0  0  0  0  0  0  0  0
  140.3280   75.8340  220.7270 N   0  0  0  0  0  0  0  0  0  0  0  0
  141.1250   74.8460  221.4200 C   0  0  0  0  0  0  0  0  0  0  0  0
  142.0870   74.1380  220.5020 C   0  0  0  0  0  0  0  0  0  0  0  0
  143.3740   74.8920  220.2920 C   0  0  0  0  0  0  0  0  0  0  0  0
  143.1990   76.3600  220.0600 C   0  0  0  0  0  0  0  0  0  0  0  0
  141.9690   76.6960  219.2510 C   0  0  0  0  0  0  0  0  0  0  0  0
  140.8320   77.0780  220.1710 C   0  0  2  0  0  0  0  0  0  0  0  0
  141.2690   78.0440  221.1970 C   0  0  0  0  0  0  0  0  0  0  0  0
  141.1390   77.7760  222.5460 C   0  0  0  0  0  0  0  0  0  0  0  0
  141.5600   78.7050  223.5000 C   0  0  0  0  0  0  0  0  0  0  0  0
  142.1190   79.9210  223.1040 C   0  0  0  0  0  0  0  0  0  0  0  0
  142.5480   80.8680  224.0290 O   0  0  0  0  0  0  0  0  0  0  0  0
  142.2530   80.1970  221.7390 C   0  0  0  0  0  0  0  0  0  0  0  0
  141.8240   79.2510  220.8290 C   0  0  0  0  0  0  0  0  0  0  0  0
  139.4680   71.4150  222.9220 C   0  0  0  0  0  0  0  0  0  0  0  0
  139.0280   70.1040  222.9210 C   0  0  0  0  0  0  0  0  0  0  0  0
  139.1980   69.2640  224.0160 C   0  0  0  0  0  0  0  0  0  0  0  0
  139.8330   69.7980  225.1180 C   0  0  0  0  0  0  0  0  0  0  0  0
  140.0350   69.0250  226.2350 C   0  0  0  0  0  0  0  0  0  0  0  0
  140.6710   69.5200  227.3700 C   0  0  0  0  0  0  0  0  0  0  0  0
  140.9160   68.5190  228.7750 Cl  0  0  0  0  0  0  0  0  0  0  0  0
  141.0920   70.8420  227.3170 C   0  0  0  0  0  0  0  0  0  0  0  0
  140.8910   71.6220  226.1970 C   0  0  0  0  0  0  0  0  0  0  0  0
  140.2580   71.1100  225.0810 C   0  0  0  0  0  0  0  0  0  0  0  0
  140.0820   71.9090  224.0080 N   0  0  0  0  0  0  0  0  0  0  0  0
  138.4060   73.9470  222.6930 H   0  0  0  0  0  0  0  0  0  0  0  0
  139.0568   73.6568  219.7273 H   0  0  0  0  0  0  0  0  0  0  0  0
  137.4106   74.1895  220.2606 H   0  0  0  0  0  0  0  0  0  0  0  0
  141.6982   75.3478  222.2135 H   0  0  0  0  0  0  0  0  0  0  0  0
  140.4393   74.0919  221.8337 H   0  0  0  0  0  0  0  0  0  0  0  0
  142.3247   73.1555  220.9358 H   0  0  0  0  0  0  0  0  0  0  0  0
  141.5969   74.0502  219.5211 H   0  0  0  0  0  0  0  0  0  0  0  0
  144.0015   74.7572  221.1853 H   0  0  0  0  0  0  0  0  0  0  0  0
  143.8329   74.4823  219.3801 H   0  0  0  0  0  0  0  0  0  0  0  0
  143.1219   76.8607  221.0364 H   0  0  0  0  0  0  0  0  0  0  0  0
  144.0708   76.7044  219.4844 H   0  0  0  0  0  0  0  0  0  0  0  0
  142.1933   77.5385  218.5803 H   0  0  0  0  0  0  0  0  0  0  0  0
  141.6746   75.8161  218.6601 H   0  0  0  0  0  0  0  0  0  0  0  0
  140.0270   77.5993  219.6322 H   0  0  0  0  0  0  0  0  0  0  0  0
  140.6997   76.8217  222.8719 H   0  0  0  0  0  0  0  0  0  0  0  0
  141.4503   78.4769  224.5705 H   0  0  0  0  0  0  0  0  0  0  0  0
  142.0840   80.9410  224.9430 H   0  0  0  0  0  0  0  0  0  0  0  0
  142.6906   81.1469  221.3980 H   0  0  0  0  0  0  0  0  0  0  0  0
  141.9305   79.4717  219.7566 H   0  0  0  0  0  0  0  0  0  0  0  0
  138.5266   69.7124  222.0237 H   0  0  0  0  0  0  0  0  0  0  0  0
  138.8429   68.2230  224.0040 H   0  0  0  0  0  0  0  0  0  0  0  0
  139.6834   67.9827  226.2327 H   0  0  0  0  0  0  0  0  0  0  0  0
  141.5987   71.2786  228.1903 H   0  0  0  0  0  0  0  0  0  0  0  0
  141.2394   72.6654  226.1926 H   0  0  0  0  0  0  0  0  0  0  0  0
  1  2  2  0
  2  3  1  0
  3  4  1  0
  4  5  1  0
  5  6  2  0
  5  7  1  0
  7  8  1  0
  8  9  1  0
  9 10  1  0
 10 11  1  0
 11 12  1  0
 12 13  1  0
 13 14  1  0
 14 15  2  0
 15 16  1  0
 16 17  2  0
 17 18  1  0
 17 19  1  0
 19 20  2  0
  2 21  1  0
 21 22  2  0
 22 23  1  0
 23 24  2  0
 24 25  1  0
 25 26  2  0
 26 27  1  0
 26 28  1  0
 28 29  2  0
 29 30  1  0
 30 31  2  0
 13  7  1  0
 20 14  1  0
 31 21  1  0
 30 24  1  0
  3 32  1  0
  4 33  1  0
  4 34  1  0
  8 35  1  0
  8 36  1  0
  9 37  1  0
  9 38  1  0
 10 39  1  0
 10 40  1  0
 11 41  1  0
 11 42  1  0
 12 43  1  0
 12 44  1  0
 13 45  1  6
 15 46  1  0
 16 47  1  0
 18 48  1  0
 19 49  1  0
 20 50  1  0
 22 51  1  0
 23 52  1  0
 25 53  1  0
 28 54  1  0
 29 55  1  0
M  END
>  <smiles>  (41) 
O=C(NCC(=O)N1CCCCCC1c1ccc(O)cc1)c1ccc2cc(Cl)ccc2n1

>  <score_type>  (41) 
oracle

>  <origin>  (41) 
autodockgpu

>  <m_score__min__energy>  (41) 
-6.6699999999999999

>  <m_primary>  (41) 
energy

>  <rmsd>  (41) 
2.0462256472786464

>  <m_score__min__rmsd>  (41) 
2.0462256472786464

>  <meeko>  (41) 
{"free_energy": -5.87, "intermolecular_energy": -9.45, "internal_energy": -1.62, "cluster_size": 4, "cluster_id": 3, "rank_in_cluster": 3}

>  <energy>  (41) 
-4.7

>  <cluster_rmsd>  (41) 
1.72

>  <cluster>  (41) 
11

$$$$

     RDKit          3D

 55 58  0  0  0  0  0  0  0  0999 V2000
  139.4270   74.0580  222.0920 O   0  0  0  0  0  0  0  0  0  0  0  0
  140.6150   74.3470  221.7580 C   0  0  0  0  0  0  0  0  0  0  0  0
  141.0240   75.6950  221.9960 N   0  0  0  0  0  0  0  0  0  0  0  0
  140.0240   76.5700  222.5940 C   0  0  0  0  0  0  0  0  0  0  0  0
  139.9590   77.8780  221.8920 C   0  0  0  0  0  0  0  0  0  0  0  0
  138.9930   78.1420  221.1150 O   0  0  0  0  0  0  0  0  0  0  0  0
  140.9950   78.8030  222.1170 N   0  0  0  0  0  0  0  0  0  0  0  0
  141.1880   79.3190  223.4550 C   0  0  0  0  0  0  0  0  0  0  0  0
  142.0140   80.5780  223.4710 C   0  0  0  0  0  0  0  0  0  0  0  0
  141.4330   81.6820  222.6260 C   0  0  0  0  0  0  0  0  0  0  0  0
  141.8230   81.6260  221.1820 C   0  0  0  0  0  0  0  0  0  0  0  0
  141.2200   80.4590  220.4360 C   0  0  0  0  0  0  0  0  0  0  0  0
  141.7930   79.1610  220.9570 C   0  0  2  0  0  0  0  0  0  0  0  0
  141.8080   78.1190  219.9120 C   0  0  0  0  0  0  0  0  0  0  0  0
  140.8940   78.1190  218.8770 C   0  0  0  0  0  0  0  0  0  0  0  0
  140.9270   77.1240  217.8990 C   0  0  0  0  0  0  0  0  0  0  0  0
  141.8860   76.1110  217.9520 C   0  0  0  0  0  0  0  0  0  0  0  0
  141.9460   75.1050  216.9930 O   0  0  0  0  0  0  0  0  0  0  0  0
  142.8150   76.1070  218.9990 C   0  0  0  0  0  0  0  0  0  0  0  0
  142.7470   77.1100  219.9450 C   0  0  0  0  0  0  0  0  0  0  0  0
  141.5210   73.3700  221.1640 C   0  0  0  0  0  0  0  0  0  0  0  0
  140.9960   72.1330  220.8380 C   0  0  0  0  0  0  0  0  0  0  0  0
  141.7670   71.1270  220.2680 C   0  0  0  0  0  0  0  0  0  0  0  0
  143.0960   71.4160  220.0360 C   0  0  0  0  0  0  0  0  0  0  0  0
  143.9160   70.4680  219.4750 C   0  0  0  0  0  0  0  0  0  0  0  0
  145.2630   70.7150  219.2220 C   0  0  0  0  0  0  0  0  0  0  0  0
  146.2840   69.4950  218.5090 Cl  0  0  0  0  0  0  0  0  0  0  0  0
  145.7380   71.9720  219.5690 C   0  0  0  0  0  0  0  0  0  0  0  0
  144.9170   72.9270  220.1330 C   0  0  0  0  0  0  0  0  0  0  0  0
  143.5830   72.6620  220.3740 C   0  0  0  0  0  0  0  0  0  0  0  0
  142.8170   73.6250  220.9280 N   0  0  0  0  0  0  0  0  0  0  0  0
  141.9880   76.0210  221.7500 H   0  0  0  0  0  0  0  0  0  0  0  0
  139.0399   76.0823  222.5340 H   0  0  0  0  0  0  0  0  0  0  0  0
  140.3058   76.7528  223.6415 H   0  0  0  0  0  0  0  0  0  0  0  0
  140.2037   79.5367  223.8951 H   0  0  0  0  0  0  0  0  0  0  0  0
  141.7285   78.5558  224.0341 H   0  0  0  0  0  0  0  0  0  0  0  0
  142.0874   80.9344  224.5091 H   0  0  0  0  0  0  0  0  0  0  0  0
  142.9983   80.3276  223.0486 H   0  0  0  0  0  0  0  0  0  0  0  0
  140.3364   81.6224  222.6887 H   0  0  0  0  0  0  0  0  0  0  0  0
  141.8346   82.6259  223.0233 H   0  0  0  0  0  0  0  0  0  0  0  0
  141.4932   82.5564  220.6967 H   0  0  0  0  0  0  0  0  0  0  0  0
  142.9152   81.4999  221.1482 H   0  0  0  0  0  0  0  0  0  0  0  0
  140.1294   80.4593  220.5793 H   0  0  0  0  0  0  0  0  0  0  0  0
  141.4555   80.5540  219.3657 H   0  0  0  0  0  0  0  0  0  0  0  0
  142.8480   79.2687  221.2492 H   0  0  0  0  0  0  0  0  0  0  0  0
  140.1325   78.9109  218.8228 H   0  0  0  0  0  0  0  0  0  0  0  0
  140.1921   77.1381  217.0806 H   0  0  0  0  0  0  0  0  0  0  0  0
  142.4190   75.2770  216.0960 H   0  0  0  0  0  0  0  0  0  0  0  0
  143.5824   75.3218  219.0665 H   0  0  0  0  0  0  0  0  0  0  0  0
  143.4787   77.1039  220.7664 H   0  0  0  0  0  0  0  0  0  0  0  0
  139.9317   71.9386  221.0366 H   0  0  0  0  0  0  0  0  0  0  0  0
  141.3379   70.1466  220.0138 H   0  0  0  0  0  0  0  0  0  0  0  0
  143.4964   69.4842  219.2178 H   0  0  0  0  0  0  0  0  0  0  0  0
  146.7962   72.2132  219.3898 H   0  0  0  0  0  0  0  0  0  0  0  0
  145.3304   73.9124  220.3941 H   0  0  0  0  0  0  0  0  0  0  0  0
  1  2  2  0
  2  3  1  0
  3  4  1  0
  4  5  1  0
  5  6  2  0
  5  7  1  0
  7  8  1  0
  8  9  1  0
  9 10  1  0
 10 11  1  0
 11 12  1  0
 12 13  1  0
 13 14  1  0
 14 15  2  0
 15 16  1  0
 16 17  2  0
 17 18  1  0
 17 19  1  0
 19 20  2  0
  2 21  1  0
 21 22  2  0
 22 23  1  0
 23 24  2  0
 24 25  1  0
 25 26  2  0
 26 27  1  0
 26 28  1  0
 28 29  2  0
 29 30  1  0
 30 31  2  0
 13  7  1  0
 20 14  1  0
 31 21  1  0
 30 24  1  0
  3 32  1  0
  4 33  1  0
  4 34  1  0
  8 35  1  0
  8 36  1  0
  9 37  1  0
  9 38  1  0
 10 39  1  0
 10 40  1  0
 11 41  1  0
 11 42  1  0
 12 43  1  0
 12 44  1  0
 13 45  1  1
 15 46  1  0
 16 47  1  0
 18 48  1  0
 19 49  1  0
 20 50  1  0
 22 51  1  0
 23 52  1  0
 25 53  1  0
 28 54  1  0
 29 55  1  0
M  END
>  <smiles>  (42) 
O=C(NCC(=O)N1CCCCCC1c1ccc(O)cc1)c1ccc2cc(Cl)ccc2n1

>  <score_type>  (42) 
oracle

>  <origin>  (42) 
autodockgpu

>  <m_score__min__energy>  (42) 
-6.6699999999999999

>  <m_primary>  (42) 
energy

>  <rmsd>  (42) 
6.155241428684609

>  <m_score__min__rmsd>  (42) 
6.155241428684609

>  <meeko>  (42) 
{"free_energy": -4.59, "intermolecular_energy": -8.17, "internal_energy": -2.31, "cluster_size": 6, "cluster_id": 9, "rank_in_cluster": 4}

>  <energy>  (42) 
-5.28

>  <cluster_rmsd>  (42) 
0.0

>  <cluster>  (42) 
12

$$$$

     RDKit          3D

 55 58  0  0  0  0  0  0  0  0999 V2000
  141.3890   80.1720  219.9370 O   0  0  0  0  0  0  0  0  0  0  0  0
  140.6330   79.2300  220.3220 C   0  0  0  0  0  0  0  0  0  0  0  0
  139.2960   79.6010  220.6670 N   0  0  0  0  0  0  0  0  0  0  0  0
  138.9690   81.0140  220.5320 C   0  0  0  0  0  0  0  0  0  0  0  0
  139.1480   81.7370  221.8180 C   0  0  0  0  0  0  0  0  0  0  0  0
  138.3820   82.6990  222.1260 O   0  0  0  0  0  0  0  0  0  0  0  0
  140.1840   81.3210  222.6730 N   0  0  0  0  0  0  0  0  0  0  0  0
  141.5320   81.7700  222.4030 C   0  0  0  0  0  0  0  0  0  0  0  0
  142.5070   81.3350  223.4650 C   0  0  0  0  0  0  0  0  0  0  0  0
  142.8010   79.8580  223.4330 C   0  0  0  0  0  0  0  0  0  0  0  0
  141.7720   79.0070  224.1080 C   0  0  0  0  0  0  0  0  0  0  0  0
  140.3990   79.1040  223.4840 C   0  0  0  0  0  0  0  0  0  0  0  0
  139.7940   80.4580  223.7750 C   0  0  2  0  0  0  0  0  0  0  0  0
  138.3330   80.3670  223.9600 C   0  0  0  0  0  0  0  0  0  0  0  0
  137.5710   79.4460  223.2670 C   0  0  0  0  0  0  0  0  0  0  0  0
  136.1900   79.3780  223.4570 C   0  0  0  0  0  0  0  0  0  0  0  0
  135.5550   80.2420  224.3520 C   0  0  0  0  0  0  0  0  0  0  0  0
  134.1810   80.2000  224.5640 O   0  0  0  0  0  0  0  0  0  0  0  0
  136.3220   81.1770  225.0560 C   0  0  0  0  0  0  0  0  0  0  0  0
  137.6850   81.2100  224.8380 C   0  0  0  0  0  0  0  0  0  0  0  0
  141.0870   77.8480  220.4130 C   0  0  0  0  0  0  0  0  0  0  0  0
  140.2350   76.9390  221.0130 C   0  0  0  0  0  0  0  0  0  0  0  0
  140.5650   75.5950  221.1550 C   0  0  0  0  0  0  0  0  0  0  0  0
  141.7920   75.2000  220.6640 C   0  0  0  0  0  0  0  0  0  0  0  0
  142.1830   73.8880  220.7700 C   0  0  0  0  0  0  0  0  0  0  0  0
  143.4130   73.4430  220.2900 C   0  0  0  0  0  0  0  0  0  0  0  0
  143.8850   71.7720  220.4370 Cl  0  0  0  0  0  0  0  0  0  0  0  0
  144.2270   74.3970  219.6980 C   0  0  0  0  0  0  0  0  0  0  0  0
  143.8390   75.7160  219.5900 C   0  0  0  0  0  0  0  0  0  0  0  0
  142.6150   76.1370  220.0720 C   0  0  0  0  0  0  0  0  0  0  0  0
  142.2760   77.4370  219.9450 N   0  0  0  0  0  0  0  0  0  0  0  0
  138.6030   78.8880  220.9960 H   0  0  0  0  0  0  0  0  0  0  0  0
  139.6278   81.4631  219.7742 H   0  0  0  0  0  0  0  0  0  0  0  0
  137.9142   81.0982  220.2313 H   0  0  0  0  0  0  0  0  0  0  0  0
  141.8550   81.3561  221.4364 H   0  0  0  0  0  0  0  0  0  0  0  0
  141.5218   82.8698  222.3881 H   0  0  0  0  0  0  0  0  0  0  0  0
  143.4500   81.8822  223.3188 H   0  0  0  0  0  0  0  0  0  0  0  0
  142.0476   81.5553  224.4399 H   0  0  0  0  0  0  0  0  0  0  0  0
  142.8705   79.5440  222.3811 H   0  0  0  0  0  0  0  0  0  0  0  0
  143.7400   79.7133  223.9874 H   0  0  0  0  0  0  0  0  0  0  0  0
  142.1022   77.9588  224.0596 H   0  0  0  0  0  0  0  0  0  0  0  0
  141.6816   79.3713  225.1420 H   0  0  0  0  0  0  0  0  0  0  0  0
  140.4831   78.9688  222.3956 H   0  0  0  0  0  0  0  0  0  0  0  0
  139.7532   78.3210  223.9082 H   0  0  0  0  0  0  0  0  0  0  0  0
  140.1632   80.8757  224.7233 H   0  0  0  0  0  0  0  0  0  0  0  0
  138.0576   78.7596  222.5585 H   0  0  0  0  0  0  0  0  0  0  0  0
  135.5975   78.6388  222.8980 H   0  0  0  0  0  0  0  0  0  0  0  0
  133.5360   80.2290  223.7650 H   0  0  0  0  0  0  0  0  0  0  0  0
  135.8495   81.8704  225.7673 H   0  0  0  0  0  0  0  0  0  0  0  0
  138.2846   81.9464  225.3931 H   0  0  0  0  0  0  0  0  0  0  0  0
  139.2635   77.2905  221.3908 H   0  0  0  0  0  0  0  0  0  0  0  0
  139.8800   74.8812  221.6360 H   0  0  0  0  0  0  0  0  0  0  0  0
  141.5045   73.1663  221.2484 H   0  0  0  0  0  0  0  0  0  0  0  0
  145.2082   74.0936  219.3041 H   0  0  0  0  0  0  0  0  0  0  0  0
  144.5135   76.4426  219.1135 H   0  0  0  0  0  0  0  0  0  0  0  0
  1  2  2  0
  2  3  1  0
  3  4  1  0
  4  5  1  0
  5  6  2  0
  5  7  1  0
  7  8  1  0
  8  9  1  0
  9 10  1  0
 10 11  1  0
 11 12  1  0
 12 13  1  0
 13 14  1  0
 14 15  2  0
 15 16  1  0
 16 17  2  0
 17 18  1  0
 17 19  1  0
 19 20  2  0
  2 21  1  0
 21 22  2  0
 22 23  1  0
 23 24  2  0
 24 25  1  0
 25 26  2  0
 26 27  1  0
 26 28  1  0
 28 29  2  0
 29 30  1  0
 30 31  2  0
 13  7  1  0
 20 14  1  0
 31 21  1  0
 30 24  1  0
  3 32  1  0
  4 33  1  0
  4 34  1  0
  8 35  1  0
  8 36  1  0
  9 37  1  0
  9 38  1  0
 10 39  1  0
 10 40  1  0
 11 41  1  0
 11 42  1  0
 12 43  1  0
 12 44  1  0
 13 45  1  1
 15 46  1  0
 16 47  1  0
 18 48  1  0
 19 49  1  0
 20 50  1  0
 22 51  1  0
 23 52  1  0
 25 53  1  0
 28 54  1  0
 29 55  1  0
M  END
>  <smiles>  (43) 
O=C(NCC(=O)N1CCCCCC1c1ccc(O)cc1)c1ccc2cc(Cl)ccc2n1

>  <score_type>  (43) 
oracle

>  <origin>  (43) 
autodockgpu

>  <m_score__min__energy>  (43) 
-6.6699999999999999

>  <m_primary>  (43) 
energy

>  <rmsd>  (43) 
7.914250135684384

>  <m_score__min__rmsd>  (43) 
7.914250135684384

>  <meeko>  (43) 
{"free_energy": -4.37, "intermolecular_energy": -7.95, "internal_energy": -2.36, "cluster_size": 1, "cluster_id": 16, "rank_in_cluster": 1}

>  <energy>  (43) 
-4.96

>  <cluster_rmsd>  (43) 
0.0

>  <cluster>  (43) 
13

$$$$

     RDKit          3D

 55 58  0  0  0  0  0  0  0  0999 V2000
  138.8500   72.5950  220.7790 O   0  0  0  0  0  0  0  0  0  0  0  0
  138.5210   73.4370  221.6680 C   0  0  0  0  0  0  0  0  0  0  0  0
  137.4190   73.0710  222.5010 N   0  0  0  0  0  0  0  0  0  0  0  0
  136.8100   71.7760  222.2250 C   0  0  0  0  0  0  0  0  0  0  0  0
  136.7790   70.9220  223.4400 C   0  0  0  0  0  0  0  0  0  0  0  0
  136.3710   71.3920  224.5440 O   0  0  0  0  0  0  0  0  0  0  0  0
  137.2110   69.5880  223.3230 N   0  0  0  0  0  0  0  0  0  0  0  0
  136.2240   68.5520  223.1170 C   0  0  0  0  0  0  0  0  0  0  0  0
  136.3400   67.9080  221.7610 C   0  0  0  0  0  0  0  0  0  0  0  0
  137.7230   68.0080  221.1720 C   0  0  0  0  0  0  0  0  0  0  0  0
  138.7940   67.3660  221.9950 C   0  0  0  0  0  0  0  0  0  0  0  0
  138.8460   67.8740  223.4190 C   0  0  0  0  0  0  0  0  0  0  0  0
  138.6450   69.3720  223.4220 C   0  0  2  0  0  0  0  0  0  0  0  0
  139.2510   69.9960  224.6150 C   0  0  0  0  0  0  0  0  0  0  0  0
  139.0610   69.4740  225.8800 C   0  0  0  0  0  0  0  0  0  0  0  0
  139.6440   70.0800  226.9940 C   0  0  0  0  0  0  0  0  0  0  0  0
  140.4280   71.2250  226.8470 C   0  0  0  0  0  0  0  0  0  0  0  0
  141.0240   71.8520  227.9370 O   0  0  0  0  0  0  0  0  0  0  0  0
  140.6240   71.7570  225.5680 C   0  0  0  0  0  0  0  0  0  0  0  0
  140.0300   71.1270  224.4930 C   0  0  0  0  0  0  0  0  0  0  0  0
  139.2180   74.7060  221.8420 C   0  0  0  0  0  0  0  0  0  0  0  0
  140.5390   74.7650  221.4380 C   0  0  0  0  0  0  0  0  0  0  0  0
  141.3000   75.9220  221.5560 C   0  0  0  0  0  0  0  0  0  0  0  0
  140.6750   77.0260  222.0990 C   0  0  0  0  0  0  0  0  0  0  0  0
  141.3670   78.2030  222.2460 C   0  0  0  0  0  0  0  0  0  0  0  0
  140.7780   79.3420  222.7890 C   0  0  0  0  0  0  0  0  0  0  0  0
  141.6780   80.8240  222.9640 Cl  0  0  0  0  0  0  0  0  0  0  0  0
  139.4510   79.2270  223.1770 C   0  0  0  0  0  0  0  0  0  0  0  0
  138.7530   78.0470  223.0320 C   0  0  0  0  0  0  0  0  0  0  0  0
  139.3560   76.9280  222.4910 C   0  0  0  0  0  0  0  0  0  0  0  0
  138.6340   75.7940  222.3670 N   0  0  0  0  0  0  0  0  0  0  0  0
  137.0790   73.7060  223.2610 H   0  0  0  0  0  0  0  0  0  0  0  0
  135.7803   71.9328  221.8713 H   0  0  0  0  0  0  0  0  0  0  0  0
  137.4124   71.2663  221.4587 H   0  0  0  0  0  0  0  0  0  0  0  0
  136.3580   67.7786  223.8877 H   0  0  0  0  0  0  0  0  0  0  0  0
  135.2301   69.0189  223.1818 H   0  0  0  0  0  0  0  0  0  0  0  0
  136.0766   66.8442  221.8557 H   0  0  0  0  0  0  0  0  0  0  0  0
  135.6577   68.4445  221.0853 H   0  0  0  0  0  0  0  0  0  0  0  0
  137.7119   67.5241  220.1842 H   0  0  0  0  0  0  0  0  0  0  0  0
  137.9658   69.0797  221.1224 H   0  0  0  0  0  0  0  0  0  0  0  0
  138.6121   66.2814  222.0185 H   0  0  0  0  0  0  0  0  0  0  0  0
  139.7569   67.6171  221.5262 H   0  0  0  0  0  0  0  0  0  0  0  0
  138.0508   67.3953  224.0093 H   0  0  0  0  0  0  0  0  0  0  0  0
  139.8237   67.6323  223.8613 H   0  0  0  0  0  0  0  0  0  0  0  0
  139.1540   69.8543  222.5744 H   0  0  0  0  0  0  0  0  0  0  0  0
  138.4445   68.5724  226.0104 H   0  0  0  0  0  0  0  0  0  0  0  0
  139.4844   69.6521  227.9947 H   0  0  0  0  0  0  0  0  0  0  0  0
  140.5680   72.6630  228.3750 H   0  0  0  0  0  0  0  0  0  0  0  0
  141.2382   72.6579  225.4222 H   0  0  0  0  0  0  0  0  0  0  0  0
  140.1859   71.5483  223.4889 H   0  0  0  0  0  0  0  0  0  0  0  0
  141.0037   73.8652  221.0084 H   0  0  0  0  0  0  0  0  0  0  0  0
  142.3506   75.9561  221.2319 H   0  0  0  0  0  0  0  0  0  0  0  0
  142.4182   78.2474  221.9252 H   0  0  0  0  0  0  0  0  0  0  0  0
  138.9425   80.1002  223.6117 H   0  0  0  0  0  0  0  0  0  0  0  0
  137.7016   77.9958  223.3514 H   0  0  0  0  0  0  0  0  0  0  0  0
  1  2  2  0
  2  3  1  0
  3  4  1  0
  4  5  1  0
  5  6  2  0
  5  7  1  0
  7  8  1  0
  8  9  1  0
  9 10  1  0
 10 11  1  0
 11 12  1  0
 12 13  1  0
 13 14  1  0
 14 15  2  0
 15 16  1  0
 16 17  2  0
 17 18  1  0
 17 19  1  0
 19 20  2  0
  2 21  1  0
 21 22  2  0
 22 23  1  0
 23 24  2  0
 24 25  1  0
 25 26  2  0
 26 27  1  0
 26 28  1  0
 28 29  2  0
 29 30  1  0
 30 31  2  0
 13  7  1  0
 20 14  1  0
 31 21  1  0
 30 24  1  0
  3 32  1  0
  4 33  1  0
  4 34  1  0
  8 35  1  0
  8 36  1  0
  9 37  1  0
  9 38  1  0
 10 39  1  0
 10 40  1  0
 11 41  1  0
 11 42  1  0
 12 43  1  0
 12 44  1  0
 13 45  1  6
 15 46  1  0
 16 47  1  0
 18 48  1  0
 19 49  1  0
 20 50  1  0
 22 51  1  0
 23 52  1  0
 25 53  1  0
 28 54  1  0
 29 55  1  0
M  END
>  <smiles>  (44) 
O=C(NCC(=O)N1CCCCCC1c1ccc(O)cc1)c1ccc2cc(Cl)ccc2n1

>  <score_type>  (44) 
oracle

>  <origin>  (44) 
autodockgpu

>  <m_score__min__energy>  (44) 
-6.6699999999999999

>  <m_primary>  (44) 
energy

>  <rmsd>  (44) 
8.02092970854094

>  <m_score__min__rmsd>  (44) 
8.02092970854094

>  <meeko>  (44) 
{"free_energy": -4.06, "intermolecular_energy": -7.64, "internal_energy": -2.07, "cluster_size": 1, "cluster_id": 17, "rank_in_cluster": 1}

>  <energy>  (44) 
-4.53

>  <cluster_rmsd>  (44) 
0.77

>  <cluster>  (44) 
13

$$$$

     RDKit          3D

 55 58  0  0  0  0  0  0  0  0999 V2000
  138.1310   71.2140  220.8530 O   0  0  0  0  0  0  0  0  0  0  0  0
  138.4210   71.7590  221.9600 C   0  0  0  0  0  0  0  0  0  0  0  0
  138.3060   73.1820  222.0080 N   0  0  0  0  0  0  0  0  0  0  0  0
  137.8690   73.8300  220.7780 C   0  0  0  0  0  0  0  0  0  0  0  0
  138.9060   73.7350  219.7180 C   0  0  0  0  0  0  0  0  0  0  0  0
  138.7390   72.9670  218.7230 O   0  0  0  0  0  0  0  0  0  0  0  0
  140.0670   74.5180  219.8540 N   0  0  0  0  0  0  0  0  0  0  0  0
  140.3300   75.5500  218.8750 C   0  0  0  0  0  0  0  0  0  0  0  0
  139.6590   76.8530  219.2190 C   0  0  0  0  0  0  0  0  0  0  0  0
  140.0350   77.3740  220.5830 C   0  0  0  0  0  0  0  0  0  0  0  0
  141.1870   76.6630  221.2200 C   0  0  0  0  0  0  0  0  0  0  0  0
  140.7980   75.3880  221.9340 C   0  0  0  0  0  0  0  0  0  0  0  0
  140.9130   74.2100  220.9940 C   0  0  2  0  0  0  0  0  0  0  0  0
  142.3190   73.9480  220.6270 C   0  0  0  0  0  0  0  0  0  0  0  0
  142.8930   72.7030  220.8010 C   0  0  0  0  0  0  0  0  0  0  0  0
  144.2230   72.4770  220.4460 C   0  0  0  0  0  0  0  0  0  0  0  0
  144.9970   73.5080  219.9090 C   0  0  0  0  0  0  0  0  0  0  0  0
  146.3260   73.3160  219.5450 O   0  0  0  0  0  0  0  0  0  0  0  0
  144.4210   74.7710  219.7310 C   0  0  0  0  0  0  0  0  0  0  0  0
  143.1010   74.9510  220.0950 C   0  0  0  0  0  0  0  0  0  0  0  0
  138.8480   70.9900  223.1240 C   0  0  0  0  0  0  0  0  0  0  0  0
  138.4810   69.6580  223.1730 C   0  0  0  0  0  0  0  0  0  0  0  0
  138.8330   68.8310  224.2340 C   0  0  0  0  0  0  0  0  0  0  0  0
  139.5730   69.4010  225.2500 C   0  0  0  0  0  0  0  0  0  0  0  0
  139.9550   68.6430  226.3290 C   0  0  0  0  0  0  0  0  0  0  0  0
  140.7020   69.1750  227.3770 C   0  0  0  0  0  0  0  0  0  0  0  0
  141.1740   68.1910  228.7360 Cl  0  0  0  0  0  0  0  0  0  0  0  0
  141.0410   70.5160  227.2760 C   0  0  0  0  0  0  0  0  0  0  0  0
  140.6600   71.2820  226.1940 C   0  0  0  0  0  0  0  0  0  0  0  0
  139.9190   70.7340  225.1650 C   0  0  0  0  0  0  0  0  0  0  0  0
  139.5670   71.5200  224.1250 N   0  0  0  0  0  0  0  0  0  0  0  0
  138.5260   73.7160  222.8810 H   0  0  0  0  0  0  0  0  0  0  0  0
  136.9490   73.3421  220.4236 H   0  0  0  0  0  0  0  0  0  0  0  0
  137.6887   74.8938  220.9920 H   0  0  0  0  0  0  0  0  0  0  0  0
  141.4160   75.7159  218.8199 H   0  0  0  0  0  0  0  0  0  0  0  0
  139.9245   75.2086  217.9112 H   0  0  0  0  0  0  0  0  0  0  0  0
  139.9460   77.6030  218.4672 H   0  0  0  0  0  0  0  0  0  0  0  0
  138.5745   76.6694  219.2273 H   0  0  0  0  0  0  0  0  0  0  0  0
  140.2989   78.4373  220.4844 H   0  0  0  0  0  0  0  0  0  0  0  0
  139.1642   77.2070  221.2339 H   0  0  0  0  0  0  0  0  0  0  0  0
  141.9165   76.4125  220.4357 H   0  0  0  0  0  0  0  0  0  0  0  0
  141.6019   77.3418  221.9797 H   0  0  0  0  0  0  0  0  0  0  0  0
  141.4667   75.2340  222.7937 H   0  0  0  0  0  0  0  0  0  0  0  0
  139.7571   75.4723  222.2796 H   0  0  0  0  0  0  0  0  0  0  0  0
  140.5757   73.2756  221.4663 H   0  0  0  0  0  0  0  0  0  0  0  0
  142.2952   71.8820  221.2236 H   0  0  0  0  0  0  0  0  0  0  0  0
  144.6651   71.4801  220.5900 H   0  0  0  0  0  0  0  0  0  0  0  0
  146.9040   74.1190  219.2660 H   0  0  0  0  0  0  0  0  0  0  0  0
  145.0066   75.6018  219.3105 H   0  0  0  0  0  0  0  0  0  0  0  0
  142.6509   75.9447  219.9533 H   0  0  0  0  0  0  0  0  0  0  0  0
  137.8908   69.2384  222.3450 H   0  0  0  0  0  0  0  0  0  0  0  0
  138.5356   67.7723  224.2622 H   0  0  0  0  0  0  0  0  0  0  0  0
  139.6622   67.5834  226.3669 H   0  0  0  0  0  0  0  0  0  0  0  0
  141.6296   70.9813  228.0804 H   0  0  0  0  0  0  0  0  0  0  0  0
  140.9498   72.3422  226.1500 H   0  0  0  0  0  0  0  0  0  0  0  0
  1  2  2  0
  2  3  1  0
  3  4  1  0
  4  5  1  0
  5  6  2  0
  5  7  1  0
  7  8  1  0
  8  9  1  0
  9 10  1  0
 10 11  1  0
 11 12  1  0
 12 13  1  0
 13 14  1  0
 14 15  2  0
 15 16  1  0
 16 17  2  0
 17 18  1  0
 17 19  1  0
 19 20  2  0
  2 21  1  0
 21 22  2  0
 22 23  1  0
 23 24  2  0
 24 25  1  0
 25 26  2  0
 26 27  1  0
 26 28  1  0
 28 29  2  0
 29 30  1  0
 30 31  2  0
 13  7  1  0
 20 14  1  0
 31 21  1  0
 30 24  1  0
  3 32  1  0
  4 33  1  0
  4 34  1  0
  8 35  1  0
  8 36  1  0
  9 37  1  0
  9 38  1  0
 10 39  1  0
 10 40  1  0
 11 41  1  0
 11 42  1  0
 12 43  1  0
 12 44  1  0
 13 45  1  1
 15 46  1  0
 16 47  1  0
 18 48  1  0
 19 49  1  0
 20 50  1  0
 22 51  1  0
 23 52  1  0
 25 53  1  0
 28 54  1  0
 29 55  1  0
M  END
>  <smiles>  (45) 
O=C(NCC(=O)N1CCCCCC1c1ccc(O)cc1)c1ccc2cc(Cl)ccc2n1

>  <score_type>  (45) 
oracle

>  <origin>  (45) 
autodockgpu

>  <m_score__min__energy>  (45) 
-6.6699999999999999

>  <m_primary>  (45) 
energy

>  <rmsd>  (45) 
2.1735765094662365

>  <m_score__min__rmsd>  (45) 
2.1735765094662365

>  <meeko>  (45) 
{"free_energy": -6.04, "intermolecular_energy": -9.62, "internal_energy": -1.49, "cluster_size": 12, "cluster_id": 2, "rank_in_cluster": 5}

>  <energy>  (45) 
-4.31

>  <cluster_rmsd>  (45) 
0.77

>  <cluster>  (45) 
13

$$$$

     RDKit          3D

 55 58  0  0  0  0  0  0  0  0999 V2000
  138.6860   71.8060  220.8230 O   0  0  0  0  0  0  0  0  0  0  0  0
  138.9480   72.2930  221.9640 C   0  0  0  0  0  0  0  0  0  0  0  0
  138.9210   73.7190  222.0580 N   0  0  0  0  0  0  0  0  0  0  0  0
  138.5950   74.4350  220.8320 C   0  0  0  0  0  0  0  0  0  0  0  0
  139.6920   74.3290  219.8350 C   0  0  0  0  0  0  0  0  0  0  0  0
  139.4870   73.7800  218.7110 O   0  0  0  0  0  0  0  0  0  0  0  0
  140.9510   74.8550  220.1760 N   0  0  0  0  0  0  0  0  0  0  0  0
  141.8550   74.0430  220.9600 C   0  0  0  0  0  0  0  0  0  0  0  0
  143.0390   73.5660  220.1600 C   0  0  0  0  0  0  0  0  0  0  0  0
  144.1520   74.5790  220.0840 C   0  0  0  0  0  0  0  0  0  0  0  0
  143.6930   75.9870  219.8690 C   0  0  0  0  0  0  0  0  0  0  0  0
  142.5230   76.1050  218.9180 C   0  0  0  0  0  0  0  0  0  0  0  0
  141.2320   76.1980  219.6980 C   0  0  2  0  0  0  0  0  0  0  0  0
  141.3250   77.1980  220.7800 C   0  0  0  0  0  0  0  0  0  0  0  0
  141.0010   76.8850  222.0860 C   0  0  0  0  0  0  0  0  0  0  0  0
  141.0960   77.8460  223.0930 C   0  0  0  0  0  0  0  0  0  0  0  0
  141.5210   79.1420  222.7950 C   0  0  0  0  0  0  0  0  0  0  0  0
  141.6280   80.1230  223.7760 O   0  0  0  0  0  0  0  0  0  0  0  0
  141.8510   79.4650  221.4750 C   0  0  0  0  0  0  0  0  0  0  0  0
  141.7420   78.4840  220.5090 C   0  0  0  0  0  0  0  0  0  0  0  0
  139.2610   71.4590  223.1190 C   0  0  0  0  0  0  0  0  0  0  0  0
  138.8820   70.1310  223.0630 C   0  0  0  0  0  0  0  0  0  0  0  0
  139.1280   69.2450  224.1060 C   0  0  0  0  0  0  0  0  0  0  0  0
  139.7760   69.7520  225.2140 C   0  0  0  0  0  0  0  0  0  0  0  0
  140.0520   68.9330  226.2820 C   0  0  0  0  0  0  0  0  0  0  0  0
  140.7040   69.4010  227.4200 C   0  0  0  0  0  0  0  0  0  0  0  0
  141.0420   68.3410  228.7620 Cl  0  0  0  0  0  0  0  0  0  0  0  0
  141.0610   70.7420  227.4230 C   0  0  0  0  0  0  0  0  0  0  0  0
  140.7860   71.5670  226.3520 C   0  0  0  0  0  0  0  0  0  0  0  0
  140.1390   71.0840  225.2320 C   0  0  0  0  0  0  0  0  0  0  0  0
  139.8900   71.9270  224.2080 N   0  0  0  0  0  0  0  0  0  0  0  0
  139.1260   74.2070  222.9610 H   0  0  0  0  0  0  0  0  0  0  0  0
  137.6773   74.0081  220.4013 H   0  0  0  0  0  0  0  0  0  0  0  0
  138.4524   75.4975  221.0787 H   0  0  0  0  0  0  0  0  0  0  0  0
  142.2196   74.6397  221.8091 H   0  0  0  0  0  0  0  0  0  0  0  0
  141.3002   73.1559  221.2995 H   0  0  0  0  0  0  0  0  0  0  0  0
  143.4309   72.6507  220.6276 H   0  0  0  0  0  0  0  0  0  0  0  0
  142.6886   73.3881  219.1326 H   0  0  0  0  0  0  0  0  0  0  0  0
  144.7164   74.5414  221.0274 H   0  0  0  0  0  0  0  0  0  0  0  0
  144.7615   74.3105  219.2086 H   0  0  0  0  0  0  0  0  0  0  0  0
  143.3948   76.4076  220.8407 H   0  0  0  0  0  0  0  0  0  0  0  0
  144.5329   76.5339  219.4158 H   0  0  0  0  0  0  0  0  0  0  0  0
  142.6431   77.0089  218.3027 H   0  0  0  0  0  0  0  0  0  0  0  0
  142.4915   75.2158  218.2713 H   0  0  0  0  0  0  0  0  0  0  0  0
  140.4005   76.5523  219.0711 H   0  0  0  0  0  0  0  0  0  0  0  0
  140.6647   75.8676  222.3345 H   0  0  0  0  0  0  0  0  0  0  0  0
  140.8344   77.5809  224.1280 H   0  0  0  0  0  0  0  0  0  0  0  0
  140.8070   80.6890  224.0290 H   0  0  0  0  0  0  0  0  0  0  0  0
  142.1899   80.4779  221.2119 H   0  0  0  0  0  0  0  0  0  0  0  0
  142.0009   78.7415  219.4714 H   0  0  0  0  0  0  0  0  0  0  0  0
  138.3683   69.7625  222.1628 H   0  0  0  0  0  0  0  0  0  0  0  0
  138.8208   68.1902  224.0506 H   0  0  0  0  0  0  0  0  0  0  0  0
  139.7490   67.8765  226.2368 H   0  0  0  0  0  0  0  0  0  0  0  0
  141.5763   71.1577  228.3015 H   0  0  0  0  0  0  0  0  0  0  0  0
  141.0864   72.6245  226.3909 H   0  0  0  0  0  0  0  0  0  0  0  0
  1  2  2  0
  2  3  1  0
  3  4  1  0
  4  5  1  0
  5  6  2  0
  5  7  1  0
  7  8  1  0
  8  9  1  0
  9 10  1  0
 10 11  1  0
 11 12  1  0
 12 13  1  0
 13 14  1  0
 14 15  2  0
 15 16  1  0
 16 17  2  0
 17 18  1  0
 17 19  1  0
 19 20  2  0
  2 21  1  0
 21 22  2  0
 22 23  1  0
 23 24  2  0
 24 25  1  0
 25 26  2  0
 26 27  1  0
 26 28  1  0
 28 29  2  0
 29 30  1  0
 30 31  2  0
 13  7  1  0
 20 14  1  0
 31 21  1  0
 30 24  1  0
  3 32  1  0
  4 33  1  0
  4 34  1  0
  8 35  1  0
  8 36  1  0
  9 37  1  0
  9 38  1  0
 10 39  1  0
 10 40  1  0
 11 41  1  0
 11 42  1  0
 12 43  1  0
 12 44  1  0
 13 45  1  6
 15 46  1  0
 16 47  1  0
 18 48  1  0
 19 49  1  0
 20 50  1  0
 22 51  1  0
 23 52  1  0
 25 53  1  0
 28 54  1  0
 29 55  1  0
M  END
>  <smiles>  (46) 
O=C(NCC(=O)N1CCCCCC1c1ccc(O)cc1)c1ccc2cc(Cl)ccc2n1

>  <score_type>  (46) 
oracle

>  <origin>  (46) 
autodockgpu

>  <m_score__min__energy>  (46) 
-6.6699999999999999

>  <m_primary>  (46) 
energy

>  <rmsd>  (46) 
2.2277648248292214

>  <m_score__min__rmsd>  (46) 
2.2277648248292214

>  <meeko>  (46) 
{"free_energy": -5.9, "intermolecular_energy": -9.48, "internal_energy": -1.84, "cluster_size": 4, "cluster_id": 3, "rank_in_cluster": 2}

>  <energy>  (46) 
-4.58

>  <cluster_rmsd>  (46) 
0.0

>  <cluster>  (46) 
14

$$$$

     RDKit          3D

 55 58  0  0  0  0  0  0  0  0999 V2000
  141.0110   73.2750  221.9270 O   0  0  0  0  0  0  0  0  0  0  0  0
  140.0160   72.8940  222.6140 C   0  0  0  0  0  0  0  0  0  0  0  0
  138.7580   73.4820  222.2750 N   0  0  0  0  0  0  0  0  0  0  0  0
  138.7760   74.4450  221.1820 C   0  0  0  0  0  0  0  0  0  0  0  0
  138.1590   75.7350  221.5860 C   0  0  0  0  0  0  0  0  0  0  0  0
  136.8990   75.8710  221.5870 O   0  0  0  0  0  0  0  0  0  0  0  0
  139.0130   76.7870  221.9640 N   0  0  0  0  0  0  0  0  0  0  0  0
  138.4280   78.0120  222.4650 C   0  0  0  0  0  0  0  0  0  0  0  0
  139.1150   79.2390  221.9270 C   0  0  0  0  0  0  0  0  0  0  0  0
  140.3460   79.6210  222.7060 C   0  0  0  0  0  0  0  0  0  0  0  0
  141.4800   78.6520  222.5860 C   0  0  0  0  0  0  0  0  0  0  0  0
  141.1100   77.2360  222.9730 C   0  0  0  0  0  0  0  0  0  0  0  0
  140.4360   76.5390  221.8130 C   0  0  2  0  0  0  0  0  0  0  0  0
  140.9770   76.9980  220.5190 C   0  0  0  0  0  0  0  0  0  0  0  0
  140.1840   77.6440  219.5910 C   0  0  0  0  0  0  0  0  0  0  0  0
  140.7170   78.0700  218.3730 C   0  0  0  0  0  0  0  0  0  0  0  0
  142.0630   77.8500  218.0740 C   0  0  0  0  0  0  0  0  0  0  0  0
  142.6240   78.2620  216.8700 O   0  0  0  0  0  0  0  0  0  0  0  0
  142.8710   77.1960  219.0110 C   0  0  0  0  0  0  0  0  0  0  0  0
  142.3040   76.7920  220.2030 C   0  0  0  0  0  0  0  0  0  0  0  0
  140.1350   71.9160  223.6890 C   0  0  0  0  0  0  0  0  0  0  0  0
  139.7340   70.6210  223.4150 C   0  0  0  0  0  0  0  0  0  0  0  0
  139.8020   69.6080  224.3640 C   0  0  0  0  0  0  0  0  0  0  0  0
  140.2930   69.9500  225.6070 C   0  0  0  0  0  0  0  0  0  0  0  0
  140.3880   68.9980  226.5930 C   0  0  0  0  0  0  0  0  0  0  0  0
  140.8770   69.2970  227.8620 C   0  0  0  0  0  0  0  0  0  0  0  0
  140.9880   68.0720  229.0960 Cl  0  0  0  0  0  0  0  0  0  0  0  0
  141.2650   70.6120  228.0820 C   0  0  0  0  0  0  0  0  0  0  0  0
  141.1710   71.5700  227.0950 C   0  0  0  0  0  0  0  0  0  0  0  0
  140.6830   71.2520  225.8420 C   0  0  0  0  0  0  0  0  0  0  0  0
  140.6080   72.2220  224.9070 N   0  0  0  0  0  0  0  0  0  0  0  0
  137.8840   73.2260  222.7900 H   0  0  0  0  0  0  0  0  0  0  0  0
  139.8186   74.6256  220.8812 H   0  0  0  0  0  0  0  0  0  0  0  0
  138.1947   74.0301  220.3454 H   0  0  0  0  0  0  0  0  0  0  0  0
  137.3684   78.0432  222.1713 H   0  0  0  0  0  0  0  0  0  0  0  0
  138.5437   78.0157  223.5589 H   0  0  0  0  0  0  0  0  0  0  0  0
  139.4072   79.0468  220.8841 H   0  0  0  0  0  0  0  0  0  0  0  0
  138.4039   80.0741  222.0104 H   0  0  0  0  0  0  0  0  0  0  0  0
  140.6913   80.6009  222.3446 H   0  0  0  0  0  0  0  0  0  0  0  0
  140.0547   79.6329  223.7666 H   0  0  0  0  0  0  0  0  0  0  0  0
  141.8253   78.6482  221.5416 H   0  0  0  0  0  0  0  0  0  0  0  0
  142.2630   78.9833  223.2840 H   0  0  0  0  0  0  0  0  0  0  0  0
  142.0209   76.6846  223.2491 H   0  0  0  0  0  0  0  0  0  0  0  0
  140.4169   77.2658  223.8267 H   0  0  0  0  0  0  0  0  0  0  0  0
  140.6283   75.4560  221.8194 H   0  0  0  0  0  0  0  0  0  0  0  0
  139.1220   77.8246  219.8137 H   0  0  0  0  0  0  0  0  0  0  0  0
  140.0721   78.5825  217.6439 H   0  0  0  0  0  0  0  0  0  0  0  0
  143.3890   78.9490  216.8680 H   0  0  0  0  0  0  0  0  0  0  0  0
  143.9345   77.0080  218.8022 H   0  0  0  0  0  0  0  0  0  0  0  0
  142.9425   76.2800  220.9380 H   0  0  0  0  0  0  0  0  0  0  0  0
  139.3483   70.3849  222.4122 H   0  0  0  0  0  0  0  0  0  0  0  0
  139.4794   68.5816  224.1348 H   0  0  0  0  0  0  0  0  0  0  0  0
  140.0682   67.9687  226.3734 H   0  0  0  0  0  0  0  0  0  0  0  0
  141.6575   70.8967  229.0693 H   0  0  0  0  0  0  0  0  0  0  0  0
  141.4888   72.6014  227.3079 H   0  0  0  0  0  0  0  0  0  0  0  0
  1  2  2  0
  2  3  1  0
  3  4  1  0
  4  5  1  0
  5  6  2  0
  5  7  1  0
  7  8  1  0
  8  9  1  0
  9 10  1  0
 10 11  1  0
 11 12  1  0
 12 13  1  0
 13 14  1  0
 14 15  2  0
 15 16  1  0
 16 17  2  0
 17 18  1  0
 17 19  1  0
 19 20  2  0
  2 21  1  0
 21 22  2  0
 22 23  1  0
 23 24  2  0
 24 25  1  0
 25 26  2  0
 26 27  1  0
 26 28  1  0
 28 29  2  0
 29 30  1  0
 30 31  2  0
 13  7  1  0
 20 14  1  0
 31 21  1  0
 30 24  1  0
  3 32  1  0
  4 33  1  0
  4 34  1  0
  8 35  1  0
  8 36  1  0
  9 37  1  0
  9 38  1  0
 10 39  1  0
 10 40  1  0
 11 41  1  0
 11 42  1  0
 12 43  1  0
 12 44  1  0
 13 45  1  1
 15 46  1  0
 16 47  1  0
 18 48  1  0
 19 49  1  0
 20 50  1  0
 22 51  1  0
 23 52  1  0
 25 53  1  0
 28 54  1  0
 29 55  1  0
M  END
>  <smiles>  (47) 
O=C(NCC(=O)N1CCCCCC1c1ccc(O)cc1)c1ccc2cc(Cl)ccc2n1

>  <score_type>  (47) 
oracle

>  <origin>  (47) 
autodockgpu

>  <m_score__min__energy>  (47) 
-6.6699999999999999

>  <m_primary>  (47) 
energy

>  <rmsd>  (47) 
3.1501579017479857

>  <m_score__min__rmsd>  (47) 
3.1501579017479857

>  <meeko>  (47) 
{"free_energy": -5.96, "intermolecular_energy": -9.54, "internal_energy": -1.58, "cluster_size": 6, "cluster_id": 1, "rank_in_cluster": 4}

>  <energy>  (47) 
-4.5

>  <cluster_rmsd>  (47) 
0.68

>  <cluster>  (47) 
14

$$$$

     RDKit          3D

 55 58  0  0  0  0  0  0  0  0999 V2000
  139.8320   72.5280  220.6430 O   0  0  0  0  0  0  0  0  0  0  0  0
  139.7720   72.8790  221.8590 C   0  0  0  0  0  0  0  0  0  0  0  0
  139.5750   74.2730  222.1010 N   0  0  0  0  0  0  0  0  0  0  0  0
  139.4680   75.1190  220.9190 C   0  0  0  0  0  0  0  0  0  0  0  0
  140.5080   76.1800  220.9150 C   0  0  0  0  0  0  0  0  0  0  0  0
  141.1310   76.4710  221.9800 O   0  0  0  0  0  0  0  0  0  0  0  0
  140.7750   76.8420  219.7030 N   0  0  0  0  0  0  0  0  0  0  0  0
  139.7080   77.5820  219.0650 C   0  0  0  0  0  0  0  0  0  0  0  0
  138.9490   76.7510  218.0650 C   0  0  0  0  0  0  0  0  0  0  0  0
  139.7400   76.4510  216.8180 C   0  0  0  0  0  0  0  0  0  0  0  0
  141.1220   75.9370  217.0710 C   0  0  0  0  0  0  0  0  0  0  0  0
  142.0430   76.9580  217.7040 C   0  0  0  0  0  0  0  0  0  0  0  0
  142.1300   76.7180  219.1940 C   0  0  2  0  0  0  0  0  0  0  0  0
  142.7520   75.4140  219.4950 C   0  0  0  0  0  0  0  0  0  0  0  0
  142.0790   74.2250  219.2880 C   0  0  0  0  0  0  0  0  0  0  0  0
  142.6870   73.0030  219.5800 C   0  0  0  0  0  0  0  0  0  0  0  0
  143.9870   72.9630  220.0880 C   0  0  0  0  0  0  0  0  0  0  0  0
  144.6220   71.7620  220.3890 O   0  0  0  0  0  0  0  0  0  0  0  0
  144.6730   74.1640  220.3000 C   0  0  0  0  0  0  0  0  0  0  0  0
  144.0350   75.3510  219.9980 C   0  0  0  0  0  0  0  0  0  0  0  0
  139.8950   71.9260  222.9570 C   0  0  0  0  0  0  0  0  0  0  0  0
  139.4720   70.6300  222.7220 C   0  0  0  0  0  0  0  0  0  0  0  0
  139.5430   69.6400  223.6950 C   0  0  0  0  0  0  0  0  0  0  0  0
  140.0590   70.0060  224.9210 C   0  0  0  0  0  0  0  0  0  0  0  0
  140.1570   69.0780  225.9290 C   0  0  0  0  0  0  0  0  0  0  0  0
  140.6710   69.4020  227.1820 C   0  0  0  0  0  0  0  0  0  0  0  0
  140.7860   68.2060  228.4440 Cl  0  0  0  0  0  0  0  0  0  0  0  0
  141.0790   70.7160  227.3630 C   0  0  0  0  0  0  0  0  0  0  0  0
  140.9820   71.6510  226.3530 C   0  0  0  0  0  0  0  0  0  0  0  0
  140.4700   71.3090  225.1170 C   0  0  0  0  0  0  0  0  0  0  0  0
  140.3920   72.2560  224.1590 N   0  0  0  0  0  0  0  0  0  0  0  0
  139.5140   74.6520  223.0750 H   0  0  0  0  0  0  0  0  0  0  0  0
  139.5893   74.4957  220.0208 H   0  0  0  0  0  0  0  0  0  0  0  0
  138.4802   75.6029  220.9283 H   0  0  0  0  0  0  0  0  0  0  0  0
  139.0078   77.9296  219.8389 H   0  0  0  0  0  0  0  0  0  0  0  0
  140.1625   78.4247  218.5235 H   0  0  0  0  0  0  0  0  0  0  0  0
  138.6722   75.7986  218.5407 H   0  0  0  0  0  0  0  0  0  0  0  0
  138.0669   77.3330  217.7597 H   0  0  0  0  0  0  0  0  0  0  0  0
  139.1925   75.6941  216.2371 H   0  0  0  0  0  0  0  0  0  0  0  0
  139.8533   77.4045  216.2813 H   0  0  0  0  0  0  0  0  0  0  0  0
  141.0523   75.0684  217.7423 H   0  0  0  0  0  0  0  0  0  0  0  0
  141.5530   75.6770  216.0929 H   0  0  0  0  0  0  0  0  0  0  0  0
  143.0459   76.8689  217.2610 H   0  0  0  0  0  0  0  0  0  0  0  0
  141.6447   77.9671  217.5222 H   0  0  0  0  0  0  0  0  0  0  0  0
  142.7828   77.4520  219.6890 H   0  0  0  0  0  0  0  0  0  0  0  0
  141.0540   74.2417  218.8892 H   0  0  0  0  0  0  0  0  0  0  0  0
  142.1383   72.0651  219.4088 H   0  0  0  0  0  0  0  0  0  0  0  0
  145.5100   71.7660  220.9070 H   0  0  0  0  0  0  0  0  0  0  0  0
  145.6983   74.1627  220.6986 H   0  0  0  0  0  0  0  0  0  0  0  0
  144.5769   76.2932  220.1670 H   0  0  0  0  0  0  0  0  0  0  0  0
  139.0659   70.3745  221.7321 H   0  0  0  0  0  0  0  0  0  0  0  0
  139.2036   68.6126  223.4968 H   0  0  0  0  0  0  0  0  0  0  0  0
  139.8194   68.0482  225.7408 H   0  0  0  0  0  0  0  0  0  0  0  0
  141.4903   71.0200  228.3369 H   0  0  0  0  0  0  0  0  0  0  0  0
  141.3171   72.6828  226.5348 H   0  0  0  0  0  0  0  0  0  0  0  0
  1  2  2  0
  2  3  1  0
  3  4  1  0
  4  5  1  0
  5  6  2  0
  5  7  1  0
  7  8  1  0
  8  9  1  0
  9 10  1  0
 10 11  1  0
 11 12  1  0
 12 13  1  0
 13 14  1  0
 14 15  2  0
 15 16  1  0
 16 17  2  0
 17 18  1  0
 17 19  1  0
 19 20  2  0
  2 21  1  0
 21 22  2  0
 22 23  1  0
 23 24  2  0
 24 25  1  0
 25 26  2  0
 26 27  1  0
 26 28  1  0
 28 29  2  0
 29 30  1  0
 30 31  2  0
 13  7  1  0
 20 14  1  0
 31 21  1  0
 30 24  1  0
  3 32  1  0
  4 33  1  0
  4 34  1  0
  8 35  1  0
  8 36  1  0
  9 37  1  0
  9 38  1  0
 10 39  1  0
 10 40  1  0
 11 41  1  0
 11 42  1  0
 12 43  1  0
 12 44  1  0
 13 45  1  1
 15 46  1  0
 16 47  1  0
 18 48  1  0
 19 49  1  0
 20 50  1  0
 22 51  1  0
 23 52  1  0
 25 53  1  0
 28 54  1  0
 29 55  1  0
M  END
>  <smiles>  (48) 
O=C(NCC(=O)N1CCCCCC1c1ccc(O)cc1)c1ccc2cc(Cl)ccc2n1

>  <score_type>  (48) 
oracle

>  <origin>  (48) 
autodockgpu

>  <m_score__min__energy>  (48) 
-6.6699999999999999

>  <m_primary>  (48) 
energy

>  <rmsd>  (48) 
1.9020659617946318

>  <m_score__min__rmsd>  (48) 
1.9020659617946318

>  <meeko>  (48) 
{"free_energy": -5.22, "intermolecular_energy": -8.8, "internal_energy": -1.86, "cluster_size": 2, "cluster_id": 10, "rank_in_cluster": 2}

>  <energy>  (48) 
-4.5

>  <cluster_rmsd>  (48) 
0.0

>  <cluster>  (48) 
15

$$$$

     RDKit          3D

 55 58  0  0  0  0  0  0  0  0999 V2000
  137.4140   76.0220  223.3100 O   0  0  0  0  0  0  0  0  0  0  0  0
  137.9040   76.1340  222.1460 C   0  0  0  0  0  0  0  0  0  0  0  0
  137.1350   76.8940  221.2120 N   0  0  0  0  0  0  0  0  0  0  0  0
  135.8820   77.4450  221.7130 C   0  0  0  0  0  0  0  0  0  0  0  0
  136.0970   78.7500  222.3910 C   0  0  0  0  0  0  0  0  0  0  0  0
  135.1760   79.2700  223.0880 O   0  0  0  0  0  0  0  0  0  0  0  0
  137.3440   79.3810  222.2330 N   0  0  0  0  0  0  0  0  0  0  0  0
  137.8410   79.6180  220.8960 C   0  0  0  0  0  0  0  0  0  0  0  0
  137.9880   81.0840  220.5880 C   0  0  0  0  0  0  0  0  0  0  0  0
  137.2190   81.9700  221.5330 C   0  0  0  0  0  0  0  0  0  0  0  0
  137.8580   82.1470  222.8740 C   0  0  0  0  0  0  0  0  0  0  0  0
  137.4690   81.0840  223.8770 C   0  0  0  0  0  0  0  0  0  0  0  0
  138.0330   79.7460  223.4590 C   0  0  2  0  0  0  0  0  0  0  0  0
  139.5010   79.8010  223.3130 C   0  0  0  0  0  0  0  0  0  0  0  0
  140.2390   80.8570  223.8120 C   0  0  0  0  0  0  0  0  0  0  0  0
  141.6270   80.8890  223.6620 C   0  0  0  0  0  0  0  0  0  0  0  0
  142.2910   79.8520  223.0030 C   0  0  0  0  0  0  0  0  0  0  0  0
  143.6720   79.8530  222.8380 O   0  0  0  0  0  0  0  0  0  0  0  0
  141.5480   78.7810  222.4960 C   0  0  0  0  0  0  0  0  0  0  0  0
  140.1780   78.7890  222.6660 C   0  0  0  0  0  0  0  0  0  0  0  0
  139.1770   75.5290  221.7710 C   0  0  0  0  0  0  0  0  0  0  0  0
  139.3790   74.2070  222.1230 C   0  0  0  0  0  0  0  0  0  0  0  0
  140.5530   73.5300  221.8170 C   0  0  0  0  0  0  0  0  0  0  0  0
  141.5230   74.2390  221.1370 C   0  0  0  0  0  0  0  0  0  0  0  0
  142.7080   73.6320  220.8020 C   0  0  0  0  0  0  0  0  0  0  0  0
  143.7150   74.3070  220.1170 C   0  0  0  0  0  0  0  0  0  0  0  0
  145.2110   73.5140  219.7030 Cl  0  0  0  0  0  0  0  0  0  0  0  0
  143.4590   75.6310  219.7890 C   0  0  0  0  0  0  0  0  0  0  0  0
  142.2700   76.2450  220.1240 C   0  0  0  0  0  0  0  0  0  0  0  0
  141.2840   75.5560  220.8030 C   0  0  0  0  0  0  0  0  0  0  0  0
  140.1360   76.1960  221.1100 N   0  0  0  0  0  0  0  0  0  0  0  0
  137.4630   77.0380  220.2280 H   0  0  0  0  0  0  0  0  0  0  0  0
  135.1916   77.5895  220.8689 H   0  0  0  0  0  0  0  0  0  0  0  0
  135.4612   76.7396  222.4446 H   0  0  0  0  0  0  0  0  0  0  0  0
  138.8244   79.1357  220.7944 H   0  0  0  0  0  0  0  0  0  0  0  0
  137.1105   79.1990  220.1883 H   0  0  0  0  0  0  0  0  0  0  0  0
  139.0538   81.3489  220.6500 H   0  0  0  0  0  0  0  0  0  0  0  0
  137.5787   81.2485  219.5803 H   0  0  0  0  0  0  0  0  0  0  0  0
  137.1159   82.9614  221.0677 H   0  0  0  0  0  0  0  0  0  0  0  0
  136.2522   81.4757  221.7093 H   0  0  0  0  0  0  0  0  0  0  0  0
  138.9500   82.1198  222.7448 H   0  0  0  0  0  0  0  0  0  0  0  0
  137.5069   83.1100  223.2732 H   0  0  0  0  0  0  0  0  0  0  0  0
  137.8671   81.3538  224.8663 H   0  0  0  0  0  0  0  0  0  0  0  0
  136.3721   81.0147  223.9217 H   0  0  0  0  0  0  0  0  0  0  0  0
  137.8642   78.9743  224.2244 H   0  0  0  0  0  0  0  0  0  0  0  0
  139.7283   81.6806  224.3325 H   0  0  0  0  0  0  0  0  0  0  0  0
  142.2010   81.7363  224.0654 H   0  0  0  0  0  0  0  0  0  0  0  0
  144.0910   79.4220  222.0030 H   0  0  0  0  0  0  0  0  0  0  0  0
  142.0445   77.9503  221.9731 H   0  0  0  0  0  0  0  0  0  0  0  0
  139.5971   77.9453  222.2650 H   0  0  0  0  0  0  0  0  0  0  0  0
  138.5833   73.6734  222.6635 H   0  0  0  0  0  0  0  0  0  0  0  0
  140.7026   72.4784  222.1031 H   0  0  0  0  0  0  0  0  0  0  0  0
  142.8667   72.5805  221.0833 H   0  0  0  0  0  0  0  0  0  0  0  0
  144.2246   76.2061  219.2475 H   0  0  0  0  0  0  0  0  0  0  0  0
  142.1050   77.2967  219.8469 H   0  0  0  0  0  0  0  0  0  0  0  0
  1  2  2  0
  2  3  1  0
  3  4  1  0
  4  5  1  0
  5  6  2  0
  5  7  1  0
  7  8  1  0
  8  9  1  0
  9 10  1  0
 10 11  1  0
 11 12  1  0
 12 13  1  0
 13 14  1  0
 14 15  2  0
 15 16  1  0
 16 17  2  0
 17 18  1  0
 17 19  1  0
 19 20  2  0
  2 21  1  0
 21 22  2  0
 22 23  1  0
 23 24  2  0
 24 25  1  0
 25 26  2  0
 26 27  1  0
 26 28  1  0
 28 29  2  0
 29 30  1  0
 30 31  2  0
 13  7  1  0
 20 14  1  0
 31 21  1  0
 30 24  1  0
  3 32  1  0
  4 33  1  0
  4 34  1  0
  8 35  1  0
  8 36  1  0
  9 37  1  0
  9 38  1  0
 10 39  1  0
 10 40  1  0
 11 41  1  0
 11 42  1  0
 12 43  1  0
 12 44  1  0
 13 45  1  1
 15 46  1  0
 16 47  1  0
 18 48  1  0
 19 49  1  0
 20 50  1  0
 22 51  1  0
 23 52  1  0
 25 53  1  0
 28 54  1  0
 29 55  1  0
M  END
>  <smiles>  (49) 
O=C(NCC(=O)N1CCCCCC1c1ccc(O)cc1)c1ccc2cc(Cl)ccc2n1

>  <score_type>  (49) 
oracle

>  <origin>  (49) 
autodockgpu

>  <m_score__min__energy>  (49) 
-6.6699999999999999

>  <m_primary>  (49) 
energy

>  <rmsd>  (49) 
6.715344163100626

>  <m_score__min__rmsd>  (49) 
6.715344163100626

>  <meeko>  (49) 
{"free_energy": -4.53, "intermolecular_energy": -8.11, "internal_energy": -2.08, "cluster_size": 3, "cluster_id": 13, "rank_in_cluster": 2}

>  <energy>  (49) 
-4.37

>  <cluster_rmsd>  (49) 
0.0

>  <cluster>  (49) 
16

$$$$

     RDKit          3D

 55 58  0  0  0  0  0  0  0  0999 V2000
  137.8250   76.0390  223.4520 O   0  0  0  0  0  0  0  0  0  0  0  0
  138.2290   76.4010  222.3070 C   0  0  0  0  0  0  0  0  0  0  0  0
  137.3580   77.2710  221.5800 N   0  0  0  0  0  0  0  0  0  0  0  0
  136.1140   77.6340  222.2480 C   0  0  0  0  0  0  0  0  0  0  0  0
  136.1880   79.0010  222.8250 C   0  0  0  0  0  0  0  0  0  0  0  0
  135.2410   79.4470  223.5400 O   0  0  0  0  0  0  0  0  0  0  0  0
  137.3320   79.7740  222.5540 N   0  0  0  0  0  0  0  0  0  0  0  0
  137.6450   80.0970  221.1800 C   0  0  0  0  0  0  0  0  0  0  0  0
  138.2530   81.4660  221.0350 C   0  0  0  0  0  0  0  0  0  0  0  0
  137.4520   82.5470  221.7150 C   0  0  0  0  0  0  0  0  0  0  0  0
  136.7420   82.1030  222.9540 C   0  0  0  0  0  0  0  0  0  0  0  0
  137.6670   81.5940  224.0350 C   0  0  0  0  0  0  0  0  0  0  0  0
  138.1100   80.1860  223.7100 C   0  0  2  0  0  0  0  0  0  0  0  0
  139.5680   80.1160  223.4890 C   0  0  0  0  0  0  0  0  0  0  0  0
  140.3230   81.2530  223.2720 C   0  0  0  0  0  0  0  0  0  0  0  0
  141.7000   81.1640  223.0660 C   0  0  0  0  0  0  0  0  0  0  0  0
  142.3380   79.9220  223.0750 C   0  0  0  0  0  0  0  0  0  0  0  0
  143.7090   79.7990  222.8740 O   0  0  0  0  0  0  0  0  0  0  0  0
  141.5790   78.7680  223.2950 C   0  0  0  0  0  0  0  0  0  0  0  0
  140.2190   78.9010  223.4950 C   0  0  0  0  0  0  0  0  0  0  0  0
  139.5040   75.9630  221.7510 C   0  0  0  0  0  0  0  0  0  0  0  0
  140.2660   76.9090  221.0900 C   0  0  0  0  0  0  0  0  0  0  0  0
  141.4970   76.6040  220.5210 C   0  0  0  0  0  0  0  0  0  0  0  0
  141.9340   75.3010  220.6440 C   0  0  0  0  0  0  0  0  0  0  0  0
  143.1420   74.9290  220.1060 C   0  0  0  0  0  0  0  0  0  0  0  0
  143.6240   73.6260  220.2050 C   0  0  0  0  0  0  0  0  0  0  0  0
  145.1590   73.1780  219.5130 Cl  0  0  0  0  0  0  0  0  0  0  0  0
  142.8180   72.7180  220.8770 C   0  0  0  0  0  0  0  0  0  0  0  0
  141.6050   73.0870  221.4200 C   0  0  0  0  0  0  0  0  0  0  0  0
  141.1450   74.3850  221.3100 C   0  0  0  0  0  0  0  0  0  0  0  0
  139.9520   74.7030  221.8560 N   0  0  0  0  0  0  0  0  0  0  0  0
  137.6100   77.6190  220.6260 H   0  0  0  0  0  0  0  0  0  0  0  0
  135.2919   77.5976  221.5181 H   0  0  0  0  0  0  0  0  0  0  0  0
  135.9400   76.9211  223.0674 H   0  0  0  0  0  0  0  0  0  0  0  0
  138.3572   79.3520  220.7957 H   0  0  0  0  0  0  0  0  0  0  0  0
  136.7036   80.0869  220.6110 H   0  0  0  0  0  0  0  0  0  0  0  0
  139.2612   81.4491  221.4747 H   0  0  0  0  0  0  0  0  0  0  0  0
  138.2744   81.7019  219.9608 H   0  0  0  0  0  0  0  0  0  0  0  0
  138.1368   83.3643  221.9851 H   0  0  0  0  0  0  0  0  0  0  0  0
  136.6743   82.8573  221.0016 H   0  0  0  0  0  0  0  0  0  0  0  0
  136.1762   82.9569  223.3549 H   0  0  0  0  0  0  0  0  0  0  0  0
  136.0900   81.2645  222.6678 H   0  0  0  0  0  0  0  0  0  0  0  0
  138.5488   82.2485  224.0988 H   0  0  0  0  0  0  0  0  0  0  0  0
  137.1346   81.5937  224.9976 H   0  0  0  0  0  0  0  0  0  0  0  0
  137.9275   79.4969  224.5478 H   0  0  0  0  0  0  0  0  0  0  0  0
  139.8334   82.2380  223.2616 H   0  0  0  0  0  0  0  0  0  0  0  0
  142.2870   82.0785  222.8953 H   0  0  0  0  0  0  0  0  0  0  0  0
  144.0650   79.3670  222.0120 H   0  0  0  0  0  0  0  0  0  0  0  0
  142.0548   77.7763  223.3084 H   0  0  0  0  0  0  0  0  0  0  0  0
  139.6252   77.9913  223.6678 H   0  0  0  0  0  0  0  0  0  0  0  0
  139.8850   77.9379  221.0118 H   0  0  0  0  0  0  0  0  0  0  0  0
  142.0943   77.3651  219.9976 H   0  0  0  0  0  0  0  0  0  0  0  0
  143.7470   75.6830  219.5811 H   0  0  0  0  0  0  0  0  0  0  0  0
  143.1555   71.6761  220.9794 H   0  0  0  0  0  0  0  0  0  0  0  0
  140.9960   72.3381  221.9475 H   0  0  0  0  0  0  0  0  0  0  0  0
  1  2  2  0
  2  3  1  0
  3  4  1  0
  4  5  1  0
  5  6  2  0
  5  7  1  0
  7  8  1  0
  8  9  1  0
  9 10  1  0
 10 11  1  0
 11 12  1  0
 12 13  1  0
 13 14  1  0
 14 15  2  0
 15 16  1  0
 16 17  2  0
 17 18  1  0
 17 19  1  0
 19 20  2  0
  2 21  1  0
 21 22  2  0
 22 23  1  0
 23 24  2  0
 24 25  1  0
 25 26  2  0
 26 27  1  0
 26 28  1  0
 28 29  2  0
 29 30  1  0
 30 31  2  0
 13  7  1  0
 20 14  1  0
 31 21  1  0
 30 24  1  0
  3 32  1  0
  4 33  1  0
  4 34  1  0
  8 35  1  0
  8 36  1  0
  9 37  1  0
  9 38  1  0
 10 39  1  0
 10 40  1  0
 11 41  1  0
 11 42  1  0
 12 43  1  0
 12 44  1  0
 13 45  1  1
 15 46  1  0
 16 47  1  0
 18 48  1  0
 19 49  1  0
 20 50  1  0
 22 51  1  0
 23 52  1  0
 25 53  1  0
 28 54  1  0
 29 55  1  0
M  END
>  <smiles>  (50) 
O=C(NCC(=O)N1CCCCCC1c1ccc(O)cc1)c1ccc2cc(Cl)ccc2n1

>  <score_type>  (50) 
oracle

>  <origin>  (50) 
autodockgpu

>  <m_score__min__energy>  (50) 
-6.6699999999999999

>  <m_primary>  (50) 
energy

>  <rmsd>  (50) 
7.144878792116913

>  <m_score__min__rmsd>  (50) 
7.144878792116913

>  <meeko>  (50) 
{"free_energy": -4.96, "intermolecular_energy": -8.54, "internal_energy": -1.99, "cluster_size": 3, "cluster_id": 13, "rank_in_cluster": 1}

>  <energy>  (50) 
-4.06

>  <cluster_rmsd>  (50) 
0.0

>  <cluster>  (50) 
17

$$$$

     RDKit          3D

 55 58  0  0  0  0  0  0  0  0999 V2000
  139.7680   72.0140  220.7840 O   0  0  0  0  0  0  0  0  0  0  0  0
  139.7410   72.4360  221.9850 C   0  0  0  0  0  0  0  0  0  0  0  0
  139.5780   73.8490  222.2460 N   0  0  0  0  0  0  0  0  0  0  0  0
  139.4430   74.8280  221.2160 C   0  0  0  0  0  0  0  0  0  0  0  0
  140.0000   76.1620  221.3880 C   0  0  0  0  0  0  0  0  0  0  0  0
  140.9010   76.2140  222.3410 O   0  0  0  0  0  0  0  0  0  0  0  0
  139.7620   77.3790  220.7500 N   0  0  0  0  0  0  0  0  0  0  0  0
  138.5330   78.1250  220.9360 C   0  0  0  0  0  0  0  0  0  0  0  0
  138.5390   79.4160  220.1340 C   0  0  0  0  0  0  0  0  0  0  0  0
  139.4490   80.4760  220.6180 C   0  0  0  0  0  0  0  0  0  0  0  0
  140.8400   80.3090  220.0990 C   0  0  0  0  0  0  0  0  0  0  0  0
  141.4630   79.0120  220.5690 C   0  0  0  0  0  0  0  0  0  0  0  0
  140.8290   77.8660  219.8530 C   0  0  1  0  0  0  0  0  0  0  0  0
  141.7260   76.7990  219.3950 C   0  0  0  0  0  0  0  0  0  0  0  0
  141.4640   75.8530  218.4460 C   0  0  0  0  0  0  0  0  0  0  0  0
  142.3850   74.8530  218.1110 C   0  0  0  0  0  0  0  0  0  0  0  0
  143.6120   74.7830  218.7360 C   0  0  0  0  0  0  0  0  0  0  0  0
  144.5640   73.8150  218.4460 O   0  0  0  0  0  0  0  0  0  0  0  0
  143.8760   75.7380  219.6950 C   0  0  0  0  0  0  0  0  0  0  0  0
  142.9770   76.7250  220.0310 C   0  0  0  0  0  0  0  0  0  0  0  0
  139.8670   71.5320  223.1090 C   0  0  0  0  0  0  0  0  0  0  0  0
  139.4520   70.2160  222.9480 C   0  0  0  0  0  0  0  0  0  0  0  0
  139.5420   69.2970  223.9730 C   0  0  0  0  0  0  0  0  0  0  0  0
  140.0660   69.7420  225.1730 C   0  0  0  0  0  0  0  0  0  0  0  0
  140.1790   68.8610  226.2370 C   0  0  0  0  0  0  0  0  0  0  0  0
  140.7000   69.2970  227.4360 C   0  0  0  0  0  0  0  0  0  0  0  0
  140.8210   68.1390  228.7520 Cl  0  0  0  0  0  0  0  0  0  0  0  0
  141.1090   70.6120  227.5840 C   0  0  0  0  0  0  0  0  0  0  0  0
  141.0040   71.5040  226.5380 C   0  0  0  0  0  0  0  0  0  0  0  0
  140.4800   71.0620  225.3300 C   0  0  0  0  0  0  0  0  0  0  0  0
  140.3740   71.9190  224.3070 N   0  0  0  0  0  0  0  0  0  0  0  0
  139.5620   74.1530  223.2640 H   0  0  0  0  0  0  0  0  0  0  0  0
  139.9112   74.4046  220.3152 H   0  0  0  0  0  0  0  0  0  0  0  0
  138.3590   75.0135  221.1910 H   0  0  0  0  0  0  0  0  0  0  0  0
  137.6853   77.5049  220.6090 H   0  0  0  0  0  0  0  0  0  0  0  0
  138.4423   78.3810  222.0020 H   0  0  0  0  0  0  0  0  0  0  0  0
  138.8285   79.1695  219.1018 H   0  0  0  0  0  0  0  0  0  0  0  0
  137.5243   79.8296  220.2307 H   0  0  0  0  0  0  0  0  0  0  0  0
  139.0629   81.4517  220.2879 H   0  0  0  0  0  0  0  0  0  0  0  0
  139.4889   80.4104  221.7153 H   0  0  0  0  0  0  0  0  0  0  0  0
  140.8127   80.3130  218.9993 H   0  0  0  0  0  0  0  0  0  0  0  0
  141.4502   81.1402  220.4822 H   0  0  0  0  0  0  0  0  0  0  0  0
  142.5421   79.0254  220.3559 H   0  0  0  0  0  0  0  0  0  0  0  0
  141.3038   78.9005  221.6517 H   0  0  0  0  0  0  0  0  0  0  0  0
  140.4392   78.2256  218.8893 H   0  0  0  0  0  0  0  0  0  0  0  0
  140.4949   75.8773  217.9261 H   0  0  0  0  0  0  0  0  0  0  0  0
  142.1262   74.1134  217.3389 H   0  0  0  0  0  0  0  0  0  0  0  0
  145.4860   74.1420  218.1790 H   0  0  0  0  0  0  0  0  0  0  0  0
  144.8458   75.7100  220.2134 H   0  0  0  0  0  0  0  0  0  0  0  0
  143.2402   77.4621  220.8040 H   0  0  0  0  0  0  0  0  0  0  0  0
  139.0410   69.8986  221.9783 H   0  0  0  0  0  0  0  0  0  0  0  0
  139.2115   68.2561  223.8416 H   0  0  0  0  0  0  0  0  0  0  0  0
  139.8536   67.8163  226.1247 H   0  0  0  0  0  0  0  0  0  0  0  0
  141.5220   70.9483  228.5465 H   0  0  0  0  0  0  0  0  0  0  0  0
  141.3296   72.5478  226.6581 H   0  0  0  0  0  0  0  0  0  0  0  0
  1  2  2  0
  2  3  1  0
  3  4  1  0
  4  5  1  0
  5  6  2  0
  5  7  1  0
  7  8  1  0
  8  9  1  0
  9 10  1  0
 10 11  1  0
 11 12  1  0
 12 13  1  0
 13 14  1  0
 14 15  2  0
 15 16  1  0
 16 17  2  0
 17 18  1  0
 17 19  1  0
 19 20  2  0
  2 21  1  0
 21 22  2  0
 22 23  1  0
 23 24  2  0
 24 25  1  0
 25 26  2  0
 26 27  1  0
 26 28  1  0
 28 29  2  0
 29 30  1  0
 30 31  2  0
 13  7  1  0
 20 14  1  0
 31 21  1  0
 30 24  1  0
  3 32  1  0
  4 33  1  0
  4 34  1  0
  8 35  1  0
  8 36  1  0
  9 37  1  0
  9 38  1  0
 10 39  1  0
 10 40  1  0
 11 41  1  0
 11 42  1  0
 12 43  1  0
 12 44  1  0
 13 45  1  6
 15 46  1  0
 16 47  1  0
 18 48  1  0
 19 49  1  0
 20 50  1  0
 22 51  1  0
 23 52  1  0
 25 53  1  0
 28 54  1  0
 29 55  1  0
M  END
>  <smiles>  (51) 
O=C(NCC(=O)N1CCCCCC1c1ccc(O)cc1)c1ccc2cc(Cl)ccc2n1

>  <score_type>  (51) 
oracle

>  <origin>  (51) 
autodockgpu

>  <m_score__min__energy>  (51) 
-6.8799999999999999

>  <m_primary>  (51) 
energy

>  <rmsd>  (51) 
2.4930577054734426

>  <m_score__min__rmsd>  (51) 
2.4930577054734426

>  <meeko>  (51) 
{"free_energy": -5.33, "intermolecular_energy": -8.91, "internal_energy": -1.84, "cluster_size": 17, "cluster_id": 1, "rank_in_cluster": 14}

>  <energy>  (51) 
-6.88

>  <cluster_rmsd>  (51) 
0.0

>  <cluster>  (51) 
1

$$$$

     RDKit          3D

 55 58  0  0  0  0  0  0  0  0999 V2000
  140.0080   72.1310  220.8400 O   0  0  0  0  0  0  0  0  0  0  0  0
  139.8880   72.5360  222.0420 C   0  0  0  0  0  0  0  0  0  0  0  0
  139.6580   73.9390  222.3080 N   0  0  0  0  0  0  0  0  0  0  0  0
  139.5540   74.9260  221.2830 C   0  0  0  0  0  0  0  0  0  0  0  0
  139.3100   76.3200  221.6240 C   0  0  0  0  0  0  0  0  0  0  0  0
  138.0850   76.5310  222.0430 O   0  0  0  0  0  0  0  0  0  0  0  0
  140.1130   77.4600  221.5890 N   0  0  0  0  0  0  0  0  0  0  0  0
  140.8040   77.8850  220.3880 C   0  0  0  0  0  0  0  0  0  0  0  0
  140.7800   79.3970  220.2370 C   0  0  0  0  0  0  0  0  0  0  0  0
  141.8710   80.1340  220.9070 C   0  0  0  0  0  0  0  0  0  0  0  0
  141.7540   80.0900  222.3970 C   0  0  0  0  0  0  0  0  0  0  0  0
  141.6580   78.6670  222.9110 C   0  0  0  0  0  0  0  0  0  0  0  0
  140.2390   78.2100  222.8540 C   0  0  1  0  0  0  0  0  0  0  0  0
  139.2080   79.2420  223.0160 C   0  0  0  0  0  0  0  0  0  0  0  0
  138.2920   79.6430  222.0870 C   0  0  0  0  0  0  0  0  0  0  0  0
  137.3730   80.6700  222.3370 C   0  0  0  0  0  0  0  0  0  0  0  0
  137.3550   81.3250  223.5510 C   0  0  0  0  0  0  0  0  0  0  0  0
  136.4690   82.3480  223.8560 O   0  0  0  0  0  0  0  0  0  0  0  0
  138.2810   80.9180  224.4880 C   0  0  0  0  0  0  0  0  0  0  0  0
  139.1890   79.9110  224.2510 C   0  0  0  0  0  0  0  0  0  0  0  0
  139.9740   71.6210  223.1610 C   0  0  0  0  0  0  0  0  0  0  0  0
  139.5310   70.3160  222.9840 C   0  0  0  0  0  0  0  0  0  0  0  0
  139.5830   69.3890  224.0030 C   0  0  0  0  0  0  0  0  0  0  0  0
  140.0960   69.8130  225.2150 C   0  0  0  0  0  0  0  0  0  0  0  0
  140.1710   68.9220  226.2740 C   0  0  0  0  0  0  0  0  0  0  0  0
  140.6810   69.3370  227.4850 C   0  0  0  0  0  0  0  0  0  0  0  0
  140.7530   68.1680  228.7940 Cl  0  0  0  0  0  0  0  0  0  0  0  0
  141.1190   70.6410  227.6490 C   0  0  0  0  0  0  0  0  0  0  0  0
  141.0530   71.5430  226.6080 C   0  0  0  0  0  0  0  0  0  0  0  0
  140.5390   71.1220  225.3880 C   0  0  0  0  0  0  0  0  0  0  0  0
  140.4700   71.9880  224.3710 N   0  0  0  0  0  0  0  0  0  0  0  0
  139.5650   74.2280  223.3260 H   0  0  0  0  0  0  0  0  0  0  0  0
  140.4999   74.8993  220.7221 H   0  0  0  0  0  0  0  0  0  0  0  0
  138.6356   74.6361  220.7515 H   0  0  0  0  0  0  0  0  0  0  0  0
  141.8497   77.5474  220.4389 H   0  0  0  0  0  0  0  0  0  0  0  0
  140.2917   77.4434  219.5205 H   0  0  0  0  0  0  0  0  0  0  0  0
  140.8283   79.6284  219.1627 H   0  0  0  0  0  0  0  0  0  0  0  0
  139.8536   79.7286  220.7288 H   0  0  0  0  0  0  0  0  0  0  0  0
  142.8322   79.6863  220.6143 H   0  0  0  0  0  0  0  0  0  0  0  0
  141.8068   81.1870  220.5953 H   0  0  0  0  0  0  0  0  0  0  0  0
  142.6403   80.5692  222.8383 H   0  0  0  0  0  0  0  0  0  0  0  0
  140.8343   80.6207  222.6842 H   0  0  0  0  0  0  0  0  0  0  0  0
  142.2800   78.0092  222.2862 H   0  0  0  0  0  0  0  0  0  0  0  0
  142.0129   78.6293  223.9515 H   0  0  0  0  0  0  0  0  0  0  0  0
  140.0355   77.5856  223.7364 H   0  0  0  0  0  0  0  0  0  0  0  0
  138.2749   79.1421  221.1078 H   0  0  0  0  0  0  0  0  0  0  0  0
  136.6557   80.9583  221.5545 H   0  0  0  0  0  0  0  0  0  0  0  0
  136.1040   82.8870  223.0790 H   0  0  0  0  0  0  0  0  0  0  0  0
  138.2947   81.4195  225.4669 H   0  0  0  0  0  0  0  0  0  0  0  0
  139.9060   79.6277  225.0356 H   0  0  0  0  0  0  0  0  0  0  0  0
  139.1285   70.0148  222.0056 H   0  0  0  0  0  0  0  0  0  0  0  0
  139.2316   68.3567  223.8582 H   0  0  0  0  0  0  0  0  0  0  0  0
  139.8242   67.8857  226.1480 H   0  0  0  0  0  0  0  0  0  0  0  0
  141.5240   70.9605  228.6205 H   0  0  0  0  0  0  0  0  0  0  0  0
  141.4013   72.5779  226.7413 H   0  0  0  0  0  0  0  0  0  0  0  0
  1  2  2  0
  2  3  1  0
  3  4  1  0
  4  5  1  0
  5  6  2  0
  5  7  1  0
  7  8  1  0
  8  9  1  0
  9 10  1  0
 10 11  1  0
 11 12  1  0
 12 13  1  0
 13 14  1  0
 14 15  2  0
 15 16  1  0
 16 17  2  0
 17 18  1  0
 17 19  1  0
 19 20  2  0
  2 21  1  0
 21 22  2  0
 22 23  1  0
 23 24  2  0
 24 25  1  0
 25 26  2  0
 26 27  1  0
 26 28  1  0
 28 29  2  0
 29 30  1  0
 30 31  2  0
 13  7  1  0
 20 14  1  0
 31 21  1  0
 30 24  1  0
  3 32  1  0
  4 33  1  0
  4 34  1  0
  8 35  1  0
  8 36  1  0
  9 37  1  0
  9 38  1  0
 10 39  1  0
 10 40  1  0
 11 41  1  0
 11 42  1  0
 12 43  1  0
 12 44  1  0
 13 45  1  1
 15 46  1  0
 16 47  1  0
 18 48  1  0
 19 49  1  0
 20 50  1  0
 22 51  1  0
 23 52  1  0
 25 53  1  0
 28 54  1  0
 29 55  1  0
M  END
>  <smiles>  (52) 
O=C(NCC(=O)N1CCCCCC1c1ccc(O)cc1)c1ccc2cc(Cl)ccc2n1

>  <score_type>  (52) 
oracle

>  <origin>  (52) 
autodockgpu

>  <m_score__min__energy>  (52) 
-6.8799999999999999

>  <m_primary>  (52) 
energy

>  <rmsd>  (52) 
2.8386276673462016

>  <m_score__min__rmsd>  (52) 
2.8386276673462016

>  <meeko>  (52) 
{"free_energy": -6.25, "intermolecular_energy": -9.83, "internal_energy": -1.46, "cluster_size": 2, "cluster_id": 3, "rank_in_cluster": 1}

>  <energy>  (52) 
-6.56

>  <cluster_rmsd>  (52) 
0.75

>  <cluster>  (52) 
1

$$$$

     RDKit          3D

 55 58  0  0  0  0  0  0  0  0999 V2000
  138.0930   71.8160  221.6700 O   0  0  0  0  0  0  0  0  0  0  0  0
  139.2960   71.4730  221.9090 C   0  0  0  0  0  0  0  0  0  0  0  0
  140.2800   71.5200  220.8500 N   0  0  0  0  0  0  0  0  0  0  0  0
  139.9830   71.9370  219.5180 C   0  0  0  0  0  0  0  0  0  0  0  0
  140.4740   73.2130  219.0180 C   0  0  0  0  0  0  0  0  0  0  0  0
  141.1830   73.0870  217.9210 O   0  0  0  0  0  0  0  0  0  0  0  0
  140.3420   74.5240  219.4740 N   0  0  0  0  0  0  0  0  0  0  0  0
  139.1340   75.2980  219.2700 C   0  0  0  0  0  0  0  0  0  0  0  0
  138.1030   75.0140  220.3500 C   0  0  0  0  0  0  0  0  0  0  0  0
  138.5680   75.1630  221.7460 C   0  0  0  0  0  0  0  0  0  0  0  0
  139.9200   74.5630  221.9600 C   0  0  0  0  0  0  0  0  0  0  0  0
  141.0260   75.5010  221.5160 C   0  0  0  0  0  0  0  0  0  0  0  0
  141.5140   75.0970  220.1660 C   0  0  1  0  0  0  0  0  0  0  0  0
  142.6890   74.2190  220.1270 C   0  0  0  0  0  0  0  0  0  0  0  0
  142.9270   73.1250  220.9080 C   0  0  0  0  0  0  0  0  0  0  0  0
  144.1070   72.3770  220.8110 C   0  0  0  0  0  0  0  0  0  0  0  0
  145.0900   72.7210  219.9080 C   0  0  0  0  0  0  0  0  0  0  0  0
  146.2790   72.0180  219.7660 O   0  0  0  0  0  0  0  0  0  0  0  0
  144.8500   73.8260  219.1190 C   0  0  0  0  0  0  0  0  0  0  0  0
  143.6930   74.5670  219.2080 C   0  0  0  0  0  0  0  0  0  0  0  0
  139.7110   71.0350  223.2260 C   0  0  0  0  0  0  0  0  0  0  0  0
  140.4070   71.9270  224.0310 C   0  0  0  0  0  0  0  0  0  0  0  0
  140.8330   71.5810  225.2960 C   0  0  0  0  0  0  0  0  0  0  0  0
  140.5370   70.3020  225.7320 C   0  0  0  0  0  0  0  0  0  0  0  0
  140.9410   69.9010  226.9960 C   0  0  0  0  0  0  0  0  0  0  0  0
  140.6500   68.6280  227.4370 C   0  0  0  0  0  0  0  0  0  0  0  0
  141.1870   68.1710  229.0470 Cl  0  0  0  0  0  0  0  0  0  0  0  0
  139.9560   67.7480  226.6240 C   0  0  0  0  0  0  0  0  0  0  0  0
  139.5450   68.1270  225.3650 C   0  0  0  0  0  0  0  0  0  0  0  0
  139.8390   69.4110  224.9220 C   0  0  0  0  0  0  0  0  0  0  0  0
  139.4450   69.7910  223.7000 N   0  0  0  0  0  0  0  0  0  0  0  0
  141.2700   71.2240  221.0990 H   0  0  0  0  0  0  0  0  0  0  0  0
  140.3820   71.1611  218.8482 H   0  0  0  0  0  0  0  0  0  0  0  0
  138.8929   72.0824  219.5408 H   0  0  0  0  0  0  0  0  0  0  0  0
  139.3873   76.3682  219.2899 H   0  0  0  0  0  0  0  0  0  0  0  0
  138.7030   75.0163  218.2980 H   0  0  0  0  0  0  0  0  0  0  0  0
  137.2601   75.7048  220.2006 H   0  0  0  0  0  0  0  0  0  0  0  0
  137.8402   73.9519  220.2369 H   0  0  0  0  0  0  0  0  0  0  0  0
  138.6134   76.2343  221.9914 H   0  0  0  0  0  0  0  0  0  0  0  0
  137.8572   74.6320  222.3962 H   0  0  0  0  0  0  0  0  0  0  0  0
  140.0472   74.3431  223.0303 H   0  0  0  0  0  0  0  0  0  0  0  0
  139.9869   73.6445  221.3585 H   0  0  0  0  0  0  0  0  0  0  0  0
  140.6380   76.5294  221.4722 H   0  0  0  0  0  0  0  0  0  0  0  0
  141.8573   75.4509  222.2346 H   0  0  0  0  0  0  0  0  0  0  0  0
  141.9121   75.9867  219.6561 H   0  0  0  0  0  0  0  0  0  0  0  0
  142.1645   72.8200  221.6399 H   0  0  0  0  0  0  0  0  0  0  0  0
  144.2513   71.5036  221.4639 H   0  0  0  0  0  0  0  0  0  0  0  0
  146.6300   71.5370  220.5870 H   0  0  0  0  0  0  0  0  0  0  0  0
  145.6146   74.1281  218.3882 H   0  0  0  0  0  0  0  0  0  0  0  0
  143.5534   75.4398  218.5533 H   0  0  0  0  0  0  0  0  0  0  0  0
  140.6241   72.9357  223.6497 H   0  0  0  0  0  0  0  0  0  0  0  0
  141.3840   72.2908  225.9305 H   0  0  0  0  0  0  0  0  0  0  0  0
  141.4924   70.5970  227.6453 H   0  0  0  0  0  0  0  0  0  0  0  0
  139.7302   66.7347  226.9876 H   0  0  0  0  0  0  0  0  0  0  0  0
  138.9937   67.4256  224.7215 H   0  0  0  0  0  0  0  0  0  0  0  0
  1  2  2  0
  2  3  1  0
  3  4  1  0
  4  5  1  0
  5  6  2  0
  5  7  1  0
  7  8  1  0
  8  9  1  0
  9 10  1  0
 10 11  1  0
 11 12  1  0
 12 13  1  0
 13 14  1  0
 14 15  2  0
 15 16  1  0
 16 17  2  0
 17 18  1  0
 17 19  1  0
 19 20  2  0
  2 21  1  0
 21 22  2  0
 22 23  1  0
 23 24  2  0
 24 25  1  0
 25 26  2  0
 26 27  1  0
 26 28  1  0
 28 29  2  0
 29 30  1  0
 30 31  2  0
 13  7  1  0
 20 14  1  0
 31 21  1  0
 30 24  1  0
  3 32  1  0
  4 33  1  0
  4 34  1  0
  8 35  1  0
  8 36  1  0
  9 37  1  0
  9 38  1  0
 10 39  1  0
 10 40  1  0
 11 41  1  0
 11 42  1  0
 12 43  1  0
 12 44  1  0
 13 45  1  6
 15 46  1  0
 16 47  1  0
 18 48  1  0
 19 49  1  0
 20 50  1  0
 22 51  1  0
 23 52  1  0
 25 53  1  0
 28 54  1  0
 29 55  1  0
M  END
>  <smiles>  (53) 
O=C(NCC(=O)N1CCCCCC1c1ccc(O)cc1)c1ccc2cc(Cl)ccc2n1

>  <score_type>  (53) 
oracle

>  <origin>  (53) 
autodockgpu

>  <m_score__min__energy>  (53) 
-6.8799999999999999

>  <m_primary>  (53) 
energy

>  <rmsd>  (53) 
3.247974925302563

>  <m_score__min__rmsd>  (53) 
3.247974925302563

>  <meeko>  (53) 
{"free_energy": -5.22, "intermolecular_energy": -8.8, "internal_energy": -2.11, "cluster_size": 17, "cluster_id": 1, "rank_in_cluster": 16}

>  <energy>  (53) 
-6.49

>  <cluster_rmsd>  (53) 
0.95

>  <cluster>  (53) 
1

$$$$

     RDKit          3D

 55 58  0  0  0  0  0  0  0  0999 V2000
  138.8660   75.4550  222.0440 O   0  0  0  0  0  0  0  0  0  0  0  0
  140.0430   75.9420  221.9950 C   0  0  0  0  0  0  0  0  0  0  0  0
  141.1840   75.0550  221.9410 N   0  0  0  0  0  0  0  0  0  0  0  0
  141.0750   73.6320  221.9390 C   0  0  0  0  0  0  0  0  0  0  0  0
  141.8760   72.8320  221.0250 C   0  0  0  0  0  0  0  0  0  0  0  0
  141.6430   71.5450  221.1400 O   0  0  0  0  0  0  0  0  0  0  0  0
  142.8330   73.1610  220.0650 N   0  0  0  0  0  0  0  0  0  0  0  0
  143.1170   72.3070  218.9290 C   0  0  0  0  0  0  0  0  0  0  0  0
  144.2380   71.3280  219.2360 C   0  0  0  0  0  0  0  0  0  0  0  0
  145.5870   71.9140  219.3900 C   0  0  0  0  0  0  0  0  0  0  0  0
  145.5720   73.4050  219.2970 C   0  0  0  0  0  0  0  0  0  0  0  0
  144.9770   74.0390  220.5390 C   0  0  0  0  0  0  0  0  0  0  0  0
  143.5610   74.4280  220.2750 C   0  0  1  0  0  0  0  0  0  0  0  0
  143.3360   75.4050  219.2040 C   0  0  0  0  0  0  0  0  0  0  0  0
  143.5070   75.2120  217.8630 C   0  0  0  0  0  0  0  0  0  0  0  0
  143.2980   76.2320  216.9270 C   0  0  0  0  0  0  0  0  0  0  0  0
  142.9040   77.4910  217.3280 C   0  0  0  0  0  0  0  0  0  0  0  0
  142.6810   78.5400  216.4470 O   0  0  0  0  0  0  0  0  0  0  0  0
  142.7320   77.6860  218.6820 C   0  0  0  0  0  0  0  0  0  0  0  0
  142.9360   76.6890  219.6100 C   0  0  0  0  0  0  0  0  0  0  0  0
  140.2720   77.3710  221.9890 C   0  0  0  0  0  0  0  0  0  0  0  0
  141.1370   77.9060  222.9340 C   0  0  0  0  0  0  0  0  0  0  0  0
  141.4040   79.2580  222.9900 C   0  0  0  0  0  0  0  0  0  0  0  0
  140.7710   80.0630  222.0590 C   0  0  0  0  0  0  0  0  0  0  0  0
  141.0040   81.4300  222.0690 C   0  0  0  0  0  0  0  0  0  0  0  0
  140.3770   82.2380  221.1460 C   0  0  0  0  0  0  0  0  0  0  0  0
  140.7060   83.9640  221.2030 Cl  0  0  0  0  0  0  0  0  0  0  0  0
  139.5160   81.6920  220.2080 C   0  0  0  0  0  0  0  0  0  0  0  0
  139.2720   80.3360  220.1820 C   0  0  0  0  0  0  0  0  0  0  0  0
  139.9050   79.5230  221.1130 C   0  0  0  0  0  0  0  0  0  0  0  0
  139.6760   78.2040  221.0970 N   0  0  0  0  0  0  0  0  0  0  0  0
  142.1450   75.5080  221.9010 H   0  0  0  0  0  0  0  0  0  0  0  0
  141.3259   73.2951  222.9556 H   0  0  0  0  0  0  0  0  0  0  0  0
  140.0485   73.4627  221.5819 H   0  0  0  0  0  0  0  0  0  0  0  0
  142.2093   71.7418  218.6707 H   0  0  0  0  0  0  0  0  0  0  0  0
  143.4339   72.9430  218.0893 H   0  0  0  0  0  0  0  0  0  0  0  0
  143.9863   70.8117  220.1741 H   0  0  0  0  0  0  0  0  0  0  0  0
  144.3009   70.6654  218.3602 H   0  0  0  0  0  0  0  0  0  0  0  0
  145.9881   71.6250  220.3727 H   0  0  0  0  0  0  0  0  0  0  0  0
  146.2149   71.5323  218.5715 H   0  0  0  0  0  0  0  0  0  0  0  0
  146.6041   73.7647  219.1728 H   0  0  0  0  0  0  0  0  0  0  0  0
  144.9491   73.6883  218.4357 H   0  0  0  0  0  0  0  0  0  0  0  0
  145.0096   73.3180  221.3692 H   0  0  0  0  0  0  0  0  0  0  0  0
  145.5576   74.9346  220.8051 H   0  0  0  0  0  0  0  0  0  0  0  0
  143.1842   74.9921  221.1409 H   0  0  0  0  0  0  0  0  0  0  0  0
  143.8201   74.2199  217.5055 H   0  0  0  0  0  0  0  0  0  0  0  0
  143.4502   76.0262  215.8572 H   0  0  0  0  0  0  0  0  0  0  0  0
  143.3030   79.3380  216.5150 H   0  0  0  0  0  0  0  0  0  0  0  0
  142.4187   78.6793  219.0358 H   0  0  0  0  0  0  0  0  0  0  0  0
  142.7844   76.9000  220.6789 H   0  0  0  0  0  0  0  0  0  0  0  0
  141.6222   77.2339  223.6571 H   0  0  0  0  0  0  0  0  0  0  0  0
  142.0894   79.6777  223.7410 H   0  0  0  0  0  0  0  0  0  0  0  0
  141.6873   81.8678  222.8116 H   0  0  0  0  0  0  0  0  0  0  0  0
  139.0219   82.3479  219.4761 H   0  0  0  0  0  0  0  0  0  0  0  0
  138.5875   79.9050  219.4366 H   0  0  0  0  0  0  0  0  0  0  0  0
  1  2  2  0
  2  3  1  0
  3  4  1  0
  4  5  1  0
  5  6  2  0
  5  7  1  0
  7  8  1  0
  8  9  1  0
  9 10  1  0
 10 11  1  0
 11 12  1  0
 12 13  1  0
 13 14  1  0
 14 15  2  0
 15 16  1  0
 16 17  2  0
 17 18  1  0
 17 19  1  0
 19 20  2  0
  2 21  1  0
 21 22  2  0
 22 23  1  0
 23 24  2  0
 24 25  1  0
 25 26  2  0
 26 27  1  0
 26 28  1  0
 28 29  2  0
 29 30  1  0
 30 31  2  0
 13  7  1  0
 20 14  1  0
 31 21  1  0
 30 24  1  0
  3 32  1  0
  4 33  1  0
  4 34  1  0
  8 35  1  0
  8 36  1  0
  9 37  1  0
  9 38  1  0
 10 39  1  0
 10 40  1  0
 11 41  1  0
 11 42  1  0
 12 43  1  0
 12 44  1  0
 13 45  1  1
 15 46  1  0
 16 47  1  0
 18 48  1  0
 19 49  1  0
 20 50  1  0
 22 51  1  0
 23 52  1  0
 25 53  1  0
 28 54  1  0
 29 55  1  0
M  END
>  <smiles>  (54) 
O=C(NCC(=O)N1CCCCCC1c1ccc(O)cc1)c1ccc2cc(Cl)ccc2n1

>  <score_type>  (54) 
oracle

>  <origin>  (54) 
autodockgpu

>  <m_score__min__energy>  (54) 
-6.8799999999999999

>  <m_primary>  (54) 
energy

>  <rmsd>  (54) 
8.28160651751009

>  <m_score__min__rmsd>  (54) 
8.28160651751009

>  <meeko>  (54) 
{"free_energy": -4.93, "intermolecular_energy": -8.51, "internal_energy": -1.9, "cluster_size": 1, "cluster_id": 15, "rank_in_cluster": 1}

>  <energy>  (54) 
-6.47

>  <cluster_rmsd>  (54) 
1.4

>  <cluster>  (54) 
1

$$$$

     RDKit          3D

 55 58  0  0  0  0  0  0  0  0999 V2000
  140.7990   72.2710  221.0040 O   0  0  0  0  0  0  0  0  0  0  0  0
  140.1620   72.5430  222.0730 C   0  0  0  0  0  0  0  0  0  0  0  0
  139.4340   73.7880  222.1770 N   0  0  0  0  0  0  0  0  0  0  0  0
  139.3810   74.7580  221.1310 C   0  0  0  0  0  0  0  0  0  0  0  0
  140.4800   75.6930  220.9360 C   0  0  0  0  0  0  0  0  0  0  0  0
  141.5660   75.3390  221.5840 O   0  0  0  0  0  0  0  0  0  0  0  0
  140.6010   76.8770  220.2090 N   0  0  0  0  0  0  0  0  0  0  0  0
  139.5350   77.3800  219.3660 C   0  0  0  0  0  0  0  0  0  0  0  0
  139.6010   76.7850  217.9700 C   0  0  0  0  0  0  0  0  0  0  0  0
  140.9550   76.6150  217.4010 C   0  0  0  0  0  0  0  0  0  0  0  0
  141.9050   77.6680  217.8720 C   0  0  0  0  0  0  0  0  0  0  0  0
  142.6630   77.2240  219.1050 C   0  0  0  0  0  0  0  0  0  0  0  0
  141.8890   77.5880  220.3280 C   0  0  1  0  0  0  0  0  0  0  0  0
  141.7310   79.0200  220.6050 C   0  0  0  0  0  0  0  0  0  0  0  0
  141.5860   80.0250  219.6920 C   0  0  0  0  0  0  0  0  0  0  0  0
  141.4800   81.3700  220.0680 C   0  0  0  0  0  0  0  0  0  0  0  0
  141.5170   81.7380  221.3970 C   0  0  0  0  0  0  0  0  0  0  0  0
  141.4170   83.0530  221.8290 O   0  0  0  0  0  0  0  0  0  0  0  0
  141.6640   80.7230  222.3180 C   0  0  0  0  0  0  0  0  0  0  0  0
  141.7700   79.3980  221.9570 C   0  0  0  0  0  0  0  0  0  0  0  0
  140.1450   71.6310  223.1970 C   0  0  0  0  0  0  0  0  0  0  0  0
  139.6020   70.3660  223.0140 C   0  0  0  0  0  0  0  0  0  0  0  0
  139.5510   69.4430  224.0380 C   0  0  0  0  0  0  0  0  0  0  0  0
  140.0670   69.8320  225.2610 C   0  0  0  0  0  0  0  0  0  0  0  0
  140.0420   68.9430  226.3250 C   0  0  0  0  0  0  0  0  0  0  0  0
  140.5540   69.3230  227.5470 C   0  0  0  0  0  0  0  0  0  0  0  0
  140.4970   68.1600  228.8620 Cl  0  0  0  0  0  0  0  0  0  0  0  0
  141.0920   70.5880  227.7170 C   0  0  0  0  0  0  0  0  0  0  0  0
  141.1260   71.4860  226.6710 C   0  0  0  0  0  0  0  0  0  0  0  0
  140.6110   71.1010  225.4400 C   0  0  0  0  0  0  0  0  0  0  0  0
  140.6380   71.9630  224.4180 N   0  0  0  0  0  0  0  0  0  0  0  0
  138.9180   73.9710  223.0880 H   0  0  0  0  0  0  0  0  0  0  0  0
  139.2701   74.2006  220.1892 H   0  0  0  0  0  0  0  0  0  0  0  0
  138.5515   75.4110  221.4399 H   0  0  0  0  0  0  0  0  0  0  0  0
  138.5674   77.1198  219.8200 H   0  0  0  0  0  0  0  0  0  0  0  0
  139.6475   78.4710  219.2817 H   0  0  0  0  0  0  0  0  0  0  0  0
  139.1232   75.7947  218.0033 H   0  0  0  0  0  0  0  0  0  0  0  0
  139.0929   77.5082  217.3152 H   0  0  0  0  0  0  0  0  0  0  0  0
  141.3428   75.6298  217.6993 H   0  0  0  0  0  0  0  0  0  0  0  0
  140.8734   76.7006  216.3074 H   0  0  0  0  0  0  0  0  0  0  0  0
  142.6250   77.8841  217.0690 H   0  0  0  0  0  0  0  0  0  0  0  0
  141.3234   78.5652  218.1303 H   0  0  0  0  0  0  0  0  0  0  0  0
  142.8062   76.1338  219.0736 H   0  0  0  0  0  0  0  0  0  0  0  0
  143.6424   77.7240  219.1309 H   0  0  0  0  0  0  0  0  0  0  0  0
  142.4634   77.2764  221.2129 H   0  0  0  0  0  0  0  0  0  0  0  0
  141.5512   79.7690  218.6228 H   0  0  0  0  0  0  0  0  0  0  0  0
  141.3658   82.1428  219.2936 H   0  0  0  0  0  0  0  0  0  0  0  0
  140.6190   83.5860  221.5000 H   0  0  0  0  0  0  0  0  0  0  0  0
  141.6981   80.9822  223.3865 H   0  0  0  0  0  0  0  0  0  0  0  0
  141.8863   78.6289  222.7348 H   0  0  0  0  0  0  0  0  0  0  0  0
  139.2020   70.0927  222.0264 H   0  0  0  0  0  0  0  0  0  0  0  0
  139.1193   68.4424  223.8886 H   0  0  0  0  0  0  0  0  0  0  0  0
  139.6149   67.9378  226.1942 H   0  0  0  0  0  0  0  0  0  0  0  0
  141.4967   70.8796  228.6974 H   0  0  0  0  0  0  0  0  0  0  0  0
  141.5537   72.4900  226.8093 H   0  0  0  0  0  0  0  0  0  0  0  0
  1  2  2  0
  2  3  1  0
  3  4  1  0
  4  5  1  0
  5  6  2  0
  5  7  1  0
  7  8  1  0
  8  9  1  0
  9 10  1  0
 10 11  1  0
 11 12  1  0
 12 13  1  0
 13 14  1  0
 14 15  2  0
 15 16  1  0
 16 17  2  0
 17 18  1  0
 17 19  1  0
 19 20  2  0
  2 21  1  0
 21 22  2  0
 22 23  1  0
 23 24  2  0
 24 25  1  0
 25 26  2  0
 26 27  1  0
 26 28  1  0
 28 29  2  0
 29 30  1  0
 30 31  2  0
 13  7  1  0
 20 14  1  0
 31 21  1  0
 30 24  1  0
  3 32  1  0
  4 33  1  0
  4 34  1  0
  8 35  1  0
  8 36  1  0
  9 37  1  0
  9 38  1  0
 10 39  1  0
 10 40  1  0
 11 41  1  0
 11 42  1  0
 12 43  1  0
 12 44  1  0
 13 45  1  1
 15 46  1  0
 16 47  1  0
 18 48  1  0
 19 49  1  0
 20 50  1  0
 22 51  1  0
 23 52  1  0
 25 53  1  0
 28 54  1  0
 29 55  1  0
M  END
>  <smiles>  (55) 
O=C(NCC(=O)N1CCCCCC1c1ccc(O)cc1)c1ccc2cc(Cl)ccc2n1

>  <score_type>  (55) 
oracle

>  <origin>  (55) 
autodockgpu

>  <m_score__min__energy>  (55) 
-6.8799999999999999

>  <m_primary>  (55) 
energy

>  <rmsd>  (55) 
1.6885176142865959

>  <m_score__min__rmsd>  (55) 
1.6885176142865959

>  <meeko>  (55) 
{"free_energy": -5.71, "intermolecular_energy": -9.29, "internal_energy": -1.35, "cluster_size": 2, "cluster_id": 6, "rank_in_cluster": 2}

>  <energy>  (55) 
-6.22

>  <cluster_rmsd>  (55) 
0.9

>  <cluster>  (55) 
1

$$$$

     RDKit          3D

 55 58  0  0  0  0  0  0  0  0999 V2000
  136.8670   78.6600  222.1200 O   0  0  0  0  0  0  0  0  0  0  0  0
  137.1960   79.8480  222.4430 C   0  0  0  0  0  0  0  0  0  0  0  0
  137.8730   80.6910  221.4820 N   0  0  0  0  0  0  0  0  0  0  0  0
  138.2050   80.2680  220.1600 C   0  0  0  0  0  0  0  0  0  0  0  0
  139.5410   79.7780  219.8570 C   0  0  0  0  0  0  0  0  0  0  0  0
  139.5260   78.6750  219.1450 O   0  0  0  0  0  0  0  0  0  0  0  0
  140.8170   80.2440  220.1730 N   0  0  0  0  0  0  0  0  0  0  0  0
  141.4240   81.3670  219.4870 C   0  0  0  0  0  0  0  0  0  0  0  0
  141.0060   82.6900  220.1070 C   0  0  0  0  0  0  0  0  0  0  0  0
  141.0940   82.7720  221.5800 C   0  0  0  0  0  0  0  0  0  0  0  0
  140.5730   81.5420  222.2500 C   0  0  0  0  0  0  0  0  0  0  0  0
  141.6420   80.4780  222.3760 C   0  0  0  0  0  0  0  0  0  0  0  0
  141.5320   79.5170  221.2410 C   0  0  1  0  0  0  0  0  0  0  0  0
  140.9400   78.2090  221.5420 C   0  0  0  0  0  0  0  0  0  0  0  0
  139.9270   77.9450  222.4190 C   0  0  0  0  0  0  0  0  0  0  0  0
  139.4610   76.6460  222.6570 C   0  0  0  0  0  0  0  0  0  0  0  0
  140.0160   75.5650  222.0040 C   0  0  0  0  0  0  0  0  0  0  0  0
  139.5970   74.2560  222.1990 O   0  0  0  0  0  0  0  0  0  0  0  0
  141.0380   75.8320  221.1190 C   0  0  0  0  0  0  0  0  0  0  0  0
  141.5020   77.1060  220.8790 C   0  0  0  0  0  0  0  0  0  0  0  0
  136.9070   80.3830  223.7570 C   0  0  0  0  0  0  0  0  0  0  0  0
  137.9040   81.0890  224.4170 C   0  0  0  0  0  0  0  0  0  0  0  0
  137.7020   81.6280  225.6700 C   0  0  0  0  0  0  0  0  0  0  0  0
  136.4580   81.4360  226.2450 C   0  0  0  0  0  0  0  0  0  0  0  0
  136.2000   81.9570  227.5040 C   0  0  0  0  0  0  0  0  0  0  0  0
  134.9640   81.7700  228.0820 C   0  0  0  0  0  0  0  0  0  0  0  0
  134.6900   82.4500  229.6790 Cl  0  0  0  0  0  0  0  0  0  0  0  0
  133.9780   81.0630  227.4130 C   0  0  0  0  0  0  0  0  0  0  0  0
  134.2150   80.5380  226.1610 C   0  0  0  0  0  0  0  0  0  0  0  0
  135.4620   80.7280  225.5790 C   0  0  0  0  0  0  0  0  0  0  0  0
  135.7030   80.2220  224.3640 N   0  0  0  0  0  0  0  0  0  0  0  0
  138.1270   81.6740  221.7980 H   0  0  0  0  0  0  0  0  0  0  0  0
  137.5061   79.4584  219.9029 H   0  0  0  0  0  0  0  0  0  0  0  0
  138.1446   81.1999  219.5787 H   0  0  0  0  0  0  0  0  0  0  0  0
  142.5184   81.2738  219.5475 H   0  0  0  0  0  0  0  0  0  0  0  0
  141.0874   81.3548  218.4398 H   0  0  0  0  0  0  0  0  0  0  0  0
  141.6500   83.4768  219.6871 H   0  0  0  0  0  0  0  0  0  0  0  0
  139.9388   82.8058  219.8669 H   0  0  0  0  0  0  0  0  0  0  0  0
  142.1477   82.9099  221.8640 H   0  0  0  0  0  0  0  0  0  0  0  0
  140.4748   83.6204  221.9068 H   0  0  0  0  0  0  0  0  0  0  0  0
  140.2147   81.8082  223.2554 H   0  0  0  0  0  0  0  0  0  0  0  0
  139.7561   81.1363  221.6351 H   0  0  0  0  0  0  0  0  0  0  0  0
  142.6341   80.9527  222.3581 H   0  0  0  0  0  0  0  0  0  0  0  0
  141.5077   79.9377  223.3247 H   0  0  0  0  0  0  0  0  0  0  0  0
  142.5447   79.2120  220.9386 H   0  0  0  0  0  0  0  0  0  0  0  0
  139.4603   78.7828  222.9578 H   0  0  0  0  0  0  0  0  0  0  0  0
  138.6421   76.4856  223.3737 H   0  0  0  0  0  0  0  0  0  0  0  0
  138.8180   74.1120  222.8330 H   0  0  0  0  0  0  0  0  0  0  0  0
  141.5026   74.9921  220.5817 H   0  0  0  0  0  0  0  0  0  0  0  0
  142.3208   77.2613  220.1610 H   0  0  0  0  0  0  0  0  0  0  0  0
  138.8802   81.2217  223.9277 H   0  0  0  0  0  0  0  0  0  0  0  0
  138.4948   82.1861  226.1896 H   0  0  0  0  0  0  0  0  0  0  0  0
  136.9802   82.5179  228.0394 H   0  0  0  0  0  0  0  0  0  0  0  0
  132.9955   80.9192  227.8862 H   0  0  0  0  0  0  0  0  0  0  0  0
  133.4301   79.9780  225.6315 H   0  0  0  0  0  0  0  0  0  0  0  0
  1  2  2  0
  2  3  1  0
  3  4  1  0
  4  5  1  0
  5  6  2  0
  5  7  1  0
  7  8  1  0
  8  9  1  0
  9 10  1  0
 10 11  1  0
 11 12  1  0
 12 13  1  0
 13 14  1  0
 14 15  2  0
 15 16  1  0
 16 17  2  0
 17 18  1  0
 17 19  1  0
 19 20  2  0
  2 21  1  0
 21 22  2  0
 22 23  1  0
 23 24  2  0
 24 25  1  0
 25 26  2  0
 26 27  1  0
 26 28  1  0
 28 29  2  0
 29 30  1  0
 30 31  2  0
 13  7  1  0
 20 14  1  0
 31 21  1  0
 30 24  1  0
  3 32  1  0
  4 33  1  0
  4 34  1  0
  8 35  1  0
  8 36  1  0
  9 37  1  0
  9 38  1  0
 10 39  1  0
 10 40  1  0
 11 41  1  0
 11 42  1  0
 12 43  1  0
 12 44  1  0
 13 45  1  6
 15 46  1  0
 16 47  1  0
 18 48  1  0
 19 49  1  0
 20 50  1  0
 22 51  1  0
 23 52  1  0
 25 53  1  0
 28 54  1  0
 29 55  1  0
M  END
>  <smiles>  (56) 
O=C(NCC(=O)N1CCCCCC1c1ccc(O)cc1)c1ccc2cc(Cl)ccc2n1

>  <score_type>  (56) 
oracle

>  <origin>  (56) 
autodockgpu

>  <m_score__min__energy>  (56) 
-6.8799999999999999

>  <m_primary>  (56) 
energy

>  <rmsd>  (56) 
9.508711582469678

>  <m_score__min__rmsd>  (56) 
9.508711582469678

>  <meeko>  (56) 
{"free_energy": -4.99, "intermolecular_energy": -8.57, "internal_energy": -2.03, "cluster_size": 1, "cluster_id": 13, "rank_in_cluster": 1}

>  <energy>  (56) 
-6.1

>  <cluster_rmsd>  (56) 
0.96

>  <cluster>  (56) 
1

$$$$

     RDKit          3D

 55 58  0  0  0  0  0  0  0  0999 V2000
  139.2330   73.7190  220.2500 O   0  0  0  0  0  0  0  0  0  0  0  0
  139.7970   73.7940  221.3900 C   0  0  0  0  0  0  0  0  0  0  0  0
  140.5350   74.9840  221.7490 N   0  0  0  0  0  0  0  0  0  0  0  0
  140.6770   76.1120  220.8850 C   0  0  0  0  0  0  0  0  0  0  0  0
  140.8990   77.4400  221.4380 C   0  0  0  0  0  0  0  0  0  0  0  0
  141.3710   78.2850  220.5500 O   0  0  0  0  0  0  0  0  0  0  0  0
  140.7150   77.9820  222.7100 N   0  0  0  0  0  0  0  0  0  0  0  0
  141.8230   78.2590  223.6010 C   0  0  0  0  0  0  0  0  0  0  0  0
  142.4080   79.6390  223.3480 C   0  0  0  0  0  0  0  0  0  0  0  0
  141.4330   80.7330  223.1580 C   0  0  0  0  0  0  0  0  0  0  0  0
  140.3000   80.3340  222.2680 C   0  0  0  0  0  0  0  0  0  0  0  0
  139.1560   79.7260  223.0530 C   0  0  0  0  0  0  0  0  0  0  0  0
  139.3190   78.2440  223.1120 C   0  0  1  0  0  0  0  0  0  0  0  0
  138.3440   77.4450  222.3610 C   0  0  0  0  0  0  0  0  0  0  0  0
  137.8520   76.2170  222.6970 C   0  0  0  0  0  0  0  0  0  0  0  0
  136.9480   75.5240  221.8820 C   0  0  0  0  0  0  0  0  0  0  0  0
  136.5110   76.0640  220.6910 C   0  0  0  0  0  0  0  0  0  0  0  0
  135.6160   75.4250  219.8440 O   0  0  0  0  0  0  0  0  0  0  0  0
  137.0080   77.3050  220.3530 C   0  0  0  0  0  0  0  0  0  0  0  0
  137.8970   77.9930  221.1470 C   0  0  0  0  0  0  0  0  0  0  0  0
  139.7170   72.7100  222.3460 C   0  0  0  0  0  0  0  0  0  0  0  0
  138.8070   71.6870  222.1120 C   0  0  0  0  0  0  0  0  0  0  0  0
  138.6750   70.6220  222.9780 C   0  0  0  0  0  0  0  0  0  0  0  0
  139.4920   70.6130  224.0940 C   0  0  0  0  0  0  0  0  0  0  0  0
  139.4010   69.5660  224.9980 C   0  0  0  0  0  0  0  0  0  0  0  0
  140.2120   69.5500  226.1130 C   0  0  0  0  0  0  0  0  0  0  0  0
  140.0560   68.2000  227.2260 Cl  0  0  0  0  0  0  0  0  0  0  0  0
  141.1160   70.5760  226.3340 C   0  0  0  0  0  0  0  0  0  0  0  0
  141.2210   71.6260  225.4480 C   0  0  0  0  0  0  0  0  0  0  0  0
  140.4040   71.6400  224.3250 C   0  0  0  0  0  0  0  0  0  0  0  0
  140.4970   72.6540  223.4570 N   0  0  0  0  0  0  0  0  0  0  0  0
  140.9880   74.9990  222.7100 H   0  0  0  0  0  0  0  0  0  0  0  0
  141.5304   75.8984  220.2247 H   0  0  0  0  0  0  0  0  0  0  0  0
  139.6823   76.1982  220.4234 H   0  0  0  0  0  0  0  0  0  0  0  0
  141.4677   78.2062  224.6407 H   0  0  0  0  0  0  0  0  0  0  0  0
  142.6090   77.5115  223.4180 H   0  0  0  0  0  0  0  0  0  0  0  0
  143.0412   79.8988  224.2092 H   0  0  0  0  0  0  0  0  0  0  0  0
  142.9524   79.5593  222.3955 H   0  0  0  0  0  0  0  0  0  0  0  0
  141.0278   81.0203  224.1395 H   0  0  0  0  0  0  0  0  0  0  0  0
  141.9580   81.5727  222.6791 H   0  0  0  0  0  0  0  0  0  0  0  0
  139.9336   81.2248  221.7368 H   0  0  0  0  0  0  0  0  0  0  0  0
  140.6704   79.5769  221.5611 H   0  0  0  0  0  0  0  0  0  0  0  0
  139.1552   80.1348  224.0742 H   0  0  0  0  0  0  0  0  0  0  0  0
  138.2044   79.9686  222.5575 H   0  0  0  0  0  0  0  0  0  0  0  0
  139.1050   77.9066  224.1369 H   0  0  0  0  0  0  0  0  0  0  0  0
  138.1769   75.7554  223.6411 H   0  0  0  0  0  0  0  0  0  0  0  0
  136.5817   74.5356  222.1964 H   0  0  0  0  0  0  0  0  0  0  0  0
  135.7580   75.5480  218.8480 H   0  0  0  0  0  0  0  0  0  0  0  0
  136.6801   77.7645  219.4089 H   0  0  0  0  0  0  0  0  0  0  0  0
  138.2609   78.9809  220.8282 H   0  0  0  0  0  0  0  0  0  0  0  0
  138.1752   71.7274  221.2125 H   0  0  0  0  0  0  0  0  0  0  0  0
  137.9517   69.8150  222.7895 H   0  0  0  0  0  0  0  0  0  0  0  0
  138.6836   68.7500  224.8262 H   0  0  0  0  0  0  0  0  0  0  0  0
  141.7575   70.5522  227.2272 H   0  0  0  0  0  0  0  0  0  0  0  0
  141.9397   72.4393  225.6271 H   0  0  0  0  0  0  0  0  0  0  0  0
  1  2  2  0
  2  3  1  0
  3  4  1  0
  4  5  1  0
  5  6  2  0
  5  7  1  0
  7  8  1  0
  8  9  1  0
  9 10  1  0
 10 11  1  0
 11 12  1  0
 12 13  1  0
 13 14  1  0
 14 15  2  0
 15 16  1  0
 16 17  2  0
 17 18  1  0
 17 19  1  0
 19 20  2  0
  2 21  1  0
 21 22  2  0
 22 23  1  0
 23 24  2  0
 24 25  1  0
 25 26  2  0
 26 27  1  0
 26 28  1  0
 28 29  2  0
 29 30  1  0
 30 31  2  0
 13  7  1  0
 20 14  1  0
 31 21  1  0
 30 24  1  0
  3 32  1  0
  4 33  1  0
  4 34  1  0
  8 35  1  0
  8 36  1  0
  9 37  1  0
  9 38  1  0
 10 39  1  0
 10 40  1  0
 11 41  1  0
 11 42  1  0
 12 43  1  0
 12 44  1  0
 13 45  1  1
 15 46  1  0
 16 47  1  0
 18 48  1  0
 19 49  1  0
 20 50  1  0
 22 51  1  0
 23 52  1  0
 25 53  1  0
 28 54  1  0
 29 55  1  0
M  END
>  <smiles>  (57) 
O=C(NCC(=O)N1CCCCCC1c1ccc(O)cc1)c1ccc2cc(Cl)ccc2n1

>  <score_type>  (57) 
oracle

>  <origin>  (57) 
autodockgpu

>  <m_score__min__energy>  (57) 
-6.8799999999999999

>  <m_primary>  (57) 
energy

>  <rmsd>  (57) 
4.332010651665514

>  <m_score__min__rmsd>  (57) 
4.332010651665514

>  <meeko>  (57) 
{"free_energy": -4.89, "intermolecular_energy": -8.47, "internal_energy": -1.98, "cluster_size": 6, "cluster_id": 8, "rank_in_cluster": 3}

>  <energy>  (57) 
-6.08

>  <cluster_rmsd>  (57) 
1.52

>  <cluster>  (57) 
1

$$$$

     RDKit          3D

 55 58  0  0  0  0  0  0  0  0999 V2000
  139.2860   71.6370  220.5940 O   0  0  0  0  0  0  0  0  0  0  0  0
  139.2640   72.1230  221.7710 C   0  0  0  0  0  0  0  0  0  0  0  0
  138.9700   73.5260  221.9630 N   0  0  0  0  0  0  0  0  0  0  0  0
  138.6970   74.4260  220.8900 C   0  0  0  0  0  0  0  0  0  0  0  0
  139.7810   75.1440  220.2350 C   0  0  0  0  0  0  0  0  0  0  0  0
  139.6350   75.2010  218.9320 O   0  0  0  0  0  0  0  0  0  0  0  0
  140.9310   75.7700  220.7160 N   0  0  0  0  0  0  0  0  0  0  0  0
  141.0610   76.1970  222.0950 C   0  0  0  0  0  0  0  0  0  0  0  0
  140.4330   77.5640  222.3150 C   0  0  0  0  0  0  0  0  0  0  0  0
  140.9960   78.6730  221.5170 C   0  0  0  0  0  0  0  0  0  0  0  0
  141.2110   78.2910  220.0880 C   0  0  0  0  0  0  0  0  0  0  0  0
  142.4330   77.4140  219.9200 C   0  0  0  0  0  0  0  0  0  0  0  0
  142.0110   75.9940  219.7350 C   0  0  1  0  0  0  0  0  0  0  0  0
  143.0690   74.9800  219.8040 C   0  0  0  0  0  0  0  0  0  0  0  0
  144.2940   75.1060  220.3930 C   0  0  0  0  0  0  0  0  0  0  0  0
  145.2470   74.0800  220.3670 C   0  0  0  0  0  0  0  0  0  0  0  0
  144.9810   72.8830  219.7360 C   0  0  0  0  0  0  0  0  0  0  0  0
  145.8850   71.8310  219.6770 O   0  0  0  0  0  0  0  0  0  0  0  0
  143.7440   72.7560  219.1410 C   0  0  0  0  0  0  0  0  0  0  0  0
  142.8010   73.7600  219.1610 C   0  0  0  0  0  0  0  0  0  0  0  0
  139.5240   71.3010  222.9350 C   0  0  0  0  0  0  0  0  0  0  0  0
  139.2580   69.9400  222.8550 C   0  0  0  0  0  0  0  0  0  0  0  0
  139.4810   69.0950  223.9220 C   0  0  0  0  0  0  0  0  0  0  0  0
  139.9840   69.6610  225.0790 C   0  0  0  0  0  0  0  0  0  0  0  0
  140.2270   68.8570  226.1820 C   0  0  0  0  0  0  0  0  0  0  0  0
  140.7280   69.4140  227.3390 C   0  0  0  0  0  0  0  0  0  0  0  0
  141.0170   68.3510  228.7080 Cl  0  0  0  0  0  0  0  0  0  0  0  0
  140.9880   70.7730  227.4060 C   0  0  0  0  0  0  0  0  0  0  0  0
  140.7530   71.5890  226.3200 C   0  0  0  0  0  0  0  0  0  0  0  0
  140.2490   71.0260  225.1540 C   0  0  0  0  0  0  0  0  0  0  0  0
  140.0170   71.8080  224.0940 N   0  0  0  0  0  0  0  0  0  0  0  0
  138.9630   73.8850  222.9640 H   0  0  0  0  0  0  0  0  0  0  0  0
  138.1892   73.8409  220.1091 H   0  0  0  0  0  0  0  0  0  0  0  0
  138.1276   75.2298  221.3796 H   0  0  0  0  0  0  0  0  0  0  0  0
  140.5602   75.4645  222.7450 H   0  0  0  0  0  0  0  0  0  0  0  0
  142.1320   76.2657  222.3362 H   0  0  0  0  0  0  0  0  0  0  0  0
  139.3628   77.4853  222.0732 H   0  0  0  0  0  0  0  0  0  0  0  0
  140.6405   77.8196  223.3646 H   0  0  0  0  0  0  0  0  0  0  0  0
  140.3008   79.5246  221.5548 H   0  0  0  0  0  0  0  0  0  0  0  0
  141.9744   78.9340  221.9466 H   0  0  0  0  0  0  0  0  0  0  0  0
  140.3272   77.7434  219.7287 H   0  0  0  0  0  0  0  0  0  0  0  0
  141.3677   79.2119  219.5071 H   0  0  0  0  0  0  0  0  0  0  0  0
  143.0018   77.7443  219.0384 H   0  0  0  0  0  0  0  0  0  0  0  0
  143.0643   77.4927  220.8174 H   0  0  0  0  0  0  0  0  0  0  0  0
  141.6728   75.8595  218.6969 H   0  0  0  0  0  0  0  0  0  0  0  0
  144.5415   76.0469  220.9063 H   0  0  0  0  0  0  0  0  0  0  0  0
  146.2205   74.2310  220.8564 H   0  0  0  0  0  0  0  0  0  0  0  0
  146.1760   71.4250  220.5590 H   0  0  0  0  0  0  0  0  0  0  0  0
  143.4997   71.8136  218.6289 H   0  0  0  0  0  0  0  0  0  0  0  0
  141.8294   73.6051  218.6691 H   0  0  0  0  0  0  0  0  0  0  0  0
  138.8595   69.5258  221.9171 H   0  0  0  0  0  0  0  0  0  0  0  0
  139.2680   68.0179  223.8555 H   0  0  0  0  0  0  0  0  0  0  0  0
  140.0206   67.7776  226.1340 H   0  0  0  0  0  0  0  0  0  0  0  0
  141.3862   71.2056  228.3357 H   0  0  0  0  0  0  0  0  0  0  0  0
  140.9610   72.6677  226.3756 H   0  0  0  0  0  0  0  0  0  0  0  0
  1  2  2  0
  2  3  1  0
  3  4  1  0
  4  5  1  0
  5  6  2  0
  5  7  1  0
  7  8  1  0
  8  9  1  0
  9 10  1  0
 10 11  1  0
 11 12  1  0
 12 13  1  0
 13 14  1  0
 14 15  2  0
 15 16  1  0
 16 17  2  0
 17 18  1  0
 17 19  1  0
 19 20  2  0
  2 21  1  0
 21 22  2  0
 22 23  1  0
 23 24  2  0
 24 25  1  0
 25 26  2  0
 26 27  1  0
 26 28  1  0
 28 29  2  0
 29 30  1  0
 30 31  2  0
 13  7  1  0
 20 14  1  0
 31 21  1  0
 30 24  1  0
  3 32  1  0
  4 33  1  0
  4 34  1  0
  8 35  1  0
  8 36  1  0
  9 37  1  0
  9 38  1  0
 10 39  1  0
 10 40  1  0
 11 41  1  0
 11 42  1  0
 12 43  1  0
 12 44  1  0
 13 45  1  6
 15 46  1  0
 16 47  1  0
 18 48  1  0
 19 49  1  0
 20 50  1  0
 22 51  1  0
 23 52  1  0
 25 53  1  0
 28 54  1  0
 29 55  1  0
M  END
>  <smiles>  (58) 
O=C(NCC(=O)N1CCCCCC1c1ccc(O)cc1)c1ccc2cc(Cl)ccc2n1

>  <score_type>  (58) 
oracle

>  <origin>  (58) 
autodockgpu

>  <m_score__min__energy>  (58) 
-6.8799999999999999

>  <m_primary>  (58) 
energy

>  <rmsd>  (58) 
2.474084618000692

>  <m_score__min__rmsd>  (58) 
2.474084618000692

>  <meeko>  (58) 
{"free_energy": -6.88, "intermolecular_energy": -10.46, "internal_energy": -1.83, "cluster_size": 17, "cluster_id": 1, "rank_in_cluster": 1}

>  <energy>  (58) 
-5.98

>  <cluster_rmsd>  (58) 
0.81

>  <cluster>  (58) 
1

$$$$

     RDKit          3D

 55 58  0  0  0  0  0  0  0  0999 V2000
  139.1650   71.9110  220.6860 O   0  0  0  0  0  0  0  0  0  0  0  0
  139.2800   72.3720  221.8680 C   0  0  0  0  0  0  0  0  0  0  0  0
  139.1830   73.7970  222.0950 N   0  0  0  0  0  0  0  0  0  0  0  0
  138.9590   74.7460  221.0520 C   0  0  0  0  0  0  0  0  0  0  0  0
  140.0050   75.0360  220.0830 C   0  0  0  0  0  0  0  0  0  0  0  0
  139.8040   74.4450  218.9290 O   0  0  0  0  0  0  0  0  0  0  0  0
  141.1660   75.8070  220.1420 N   0  0  0  0  0  0  0  0  0  0  0  0
  141.4250   76.7360  221.2230 C   0  0  0  0  0  0  0  0  0  0  0  0
  141.5080   78.1670  220.7190 C   0  0  0  0  0  0  0  0  0  0  0  0
  140.6940   78.4830  219.5260 C   0  0  0  0  0  0  0  0  0  0  0  0
  141.1950   77.7940  218.2980 C   0  0  0  0  0  0  0  0  0  0  0  0
  142.4620   77.0210  218.5810 C   0  0  0  0  0  0  0  0  0  0  0  0
  142.1190   75.6390  219.0270 C   0  0  1  0  0  0  0  0  0  0  0  0
  143.2440   74.7580  219.3600 C   0  0  0  0  0  0  0  0  0  0  0  0
  144.1260   74.9000  220.3930 C   0  0  0  0  0  0  0  0  0  0  0  0
  145.1910   74.0150  220.5960 C   0  0  0  0  0  0  0  0  0  0  0  0
  145.3940   72.9460  219.7490 C   0  0  0  0  0  0  0  0  0  0  0  0
  146.4310   72.0360  219.9010 O   0  0  0  0  0  0  0  0  0  0  0  0
  144.5040   72.8020  218.7060 C   0  0  0  0  0  0  0  0  0  0  0  0
  143.4540   73.6680  218.4980 C   0  0  0  0  0  0  0  0  0  0  0  0
  139.5070   71.5010  223.0020 C   0  0  0  0  0  0  0  0  0  0  0  0
  139.1280   70.1690  222.8990 C   0  0  0  0  0  0  0  0  0  0  0  0
  139.3120   69.2800  223.9360 C   0  0  0  0  0  0  0  0  0  0  0  0
  139.8950   69.7720  225.0900 C   0  0  0  0  0  0  0  0  0  0  0  0
  140.1040   68.9210  226.1650 C   0  0  0  0  0  0  0  0  0  0  0  0
  140.6840   69.4050  227.3190 C   0  0  0  0  0  0  0  0  0  0  0  0
  140.9260   68.2850  228.6510 Cl  0  0  0  0  0  0  0  0  0  0  0  0
  141.0570   70.7350  227.4090 C   0  0  0  0  0  0  0  0  0  0  0  0
  140.8570   71.5970  226.3520 C   0  0  0  0  0  0  0  0  0  0  0  0
  140.2740   71.1080  225.1900 C   0  0  0  0  0  0  0  0  0  0  0  0
  140.0750   71.9350  224.1570 N   0  0  0  0  0  0  0  0  0  0  0  0
  139.2860   74.1340  223.0980 H   0  0  0  0  0  0  0  0  0  0  0  0
  138.0900   74.3877  220.4806 H   0  0  0  0  0  0  0  0  0  0  0  0
  138.8561   75.6954  221.5980 H   0  0  0  0  0  0  0  0  0  0  0  0
  140.6114   76.6631  221.9597 H   0  0  0  0  0  0  0  0  0  0  0  0
  142.3910   76.4741  221.6794 H   0  0  0  0  0  0  0  0  0  0  0  0
  141.1820   78.8301  221.5339 H   0  0  0  0  0  0  0  0  0  0  0  0
  142.5539   78.3123  220.4109 H   0  0  0  0  0  0  0  0  0  0  0  0
  139.6571   78.1659  219.7113 H   0  0  0  0  0  0  0  0  0  0  0  0
  140.7580   79.5674  219.3529 H   0  0  0  0  0  0  0  0  0  0  0  0
  140.4234   77.0978  217.9376 H   0  0  0  0  0  0  0  0  0  0  0  0
  141.4163   78.5571  217.5373 H   0  0  0  0  0  0  0  0  0  0  0  0
  143.0709   76.9695  217.6663 H   0  0  0  0  0  0  0  0  0  0  0  0
  143.0294   77.5295  219.3744 H   0  0  0  0  0  0  0  0  0  0  0  0
  141.6826   75.0928  218.1778 H   0  0  0  0  0  0  0  0  0  0  0  0
  143.9946   75.7403  221.0906 H   0  0  0  0  0  0  0  0  0  0  0  0
  145.8752   74.1743  221.4425 H   0  0  0  0  0  0  0  0  0  0  0  0
  146.4890   71.5480  220.7870 H   0  0  0  0  0  0  0  0  0  0  0  0
  144.6384   71.9601  218.0109 H   0  0  0  0  0  0  0  0  0  0  0  0
  142.7733   73.5053  217.6494 H   0  0  0  0  0  0  0  0  0  0  0  0
  138.6686   69.8139  221.9647 H   0  0  0  0  0  0  0  0  0  0  0  0
  139.0087   68.2261  223.8499 H   0  0  0  0  0  0  0  0  0  0  0  0
  139.8082   67.8637  226.0975 H   0  0  0  0  0  0  0  0  0  0  0  0
  141.5185   71.1085  228.3350 H   0  0  0  0  0  0  0  0  0  0  0  0
  141.1539   72.6535  226.4275 H   0  0  0  0  0  0  0  0  0  0  0  0
  1  2  2  0
  2  3  1  0
  3  4  1  0
  4  5  1  0
  5  6  2  0
  5  7  1  0
  7  8  1  0
  8  9  1  0
  9 10  1  0
 10 11  1  0
 11 12  1  0
 12 13  1  0
 13 14  1  0
 14 15  2  0
 15 16  1  0
 16 17  2  0
 17 18  1  0
 17 19  1  0
 19 20  2  0
  2 21  1  0
 21 22  2  0
 22 23  1  0
 23 24  2  0
 24 25  1  0
 25 26  2  0
 26 27  1  0
 26 28  1  0
 28 29  2  0
 29 30  1  0
 30 31  2  0
 13  7  1  0
 20 14  1  0
 31 21  1  0
 30 24  1  0
  3 32  1  0
  4 33  1  0
  4 34  1  0
  8 35  1  0
  8 36  1  0
  9 37  1  0
  9 38  1  0
 10 39  1  0
 10 40  1  0
 11 41  1  0
 11 42  1  0
 12 43  1  0
 12 44  1  0
 13 45  1  6
 15 46  1  0
 16 47  1  0
 18 48  1  0
 19 49  1  0
 20 50  1  0
 22 51  1  0
 23 52  1  0
 25 53  1  0
 28 54  1  0
 29 55  1  0
M  END
>  <smiles>  (59) 
O=C(NCC(=O)N1CCCCCC1c1ccc(O)cc1)c1ccc2cc(Cl)ccc2n1

>  <score_type>  (59) 
oracle

>  <origin>  (59) 
autodockgpu

>  <m_score__min__energy>  (59) 
-6.8799999999999999

>  <m_primary>  (59) 
energy

>  <rmsd>  (59) 
2.3771427212940632

>  <m_score__min__rmsd>  (59) 
2.3771427212940632

>  <meeko>  (59) 
{"free_energy": -5.98, "intermolecular_energy": -9.56, "internal_energy": -1.72, "cluster_size": 17, "cluster_id": 1, "rank_in_cluster": 8}

>  <energy>  (59) 
-5.93

>  <cluster_rmsd>  (59) 
1.68

>  <cluster>  (59) 
1

$$$$

     RDKit          3D

 55 58  0  0  0  0  0  0  0  0999 V2000
  139.7670   71.9490  220.6220 O   0  0  0  0  0  0  0  0  0  0  0  0
  139.7120   72.3870  221.8170 C   0  0  0  0  0  0  0  0  0  0  0  0
  139.5230   73.8010  222.0540 N   0  0  0  0  0  0  0  0  0  0  0  0
  139.3900   74.7630  221.0080 C   0  0  0  0  0  0  0  0  0  0  0  0
  140.4540   75.7210  220.7480 C   0  0  0  0  0  0  0  0  0  0  0  0
  141.3700   75.7280  221.6890 O   0  0  0  0  0  0  0  0  0  0  0  0
  140.6860   76.6240  219.7110 N   0  0  0  0  0  0  0  0  0  0  0  0
  139.7860   77.7230  219.4250 C   0  0  0  0  0  0  0  0  0  0  0  0
  140.2970   79.0280  220.0130 C   0  0  0  0  0  0  0  0  0  0  0  0
  141.3740   79.7020  219.2570 C   0  0  0  0  0  0  0  0  0  0  0  0
  142.0760   78.7740  218.3200 C   0  0  0  0  0  0  0  0  0  0  0  0
  142.7280   77.6190  219.0550 C   0  0  0  0  0  0  0  0  0  0  0  0
  141.8970   76.3900  218.8990 C   0  0  1  0  0  0  0  0  0  0  0  0
  142.5510   75.1110  219.1980 C   0  0  0  0  0  0  0  0  0  0  0  0
  142.1110   73.8630  218.8630 C   0  0  0  0  0  0  0  0  0  0  0  0
  142.8000   72.7010  219.2340 C   0  0  0  0  0  0  0  0  0  0  0  0
  143.9690   72.7740  219.9620 C   0  0  0  0  0  0  0  0  0  0  0  0
  144.6950   71.6590  220.3580 O   0  0  0  0  0  0  0  0  0  0  0  0
  144.4130   74.0350  220.3000 C   0  0  0  0  0  0  0  0  0  0  0  0
  143.7410   75.1820  219.9400 C   0  0  0  0  0  0  0  0  0  0  0  0
  139.8330   71.5000  222.9550 C   0  0  0  0  0  0  0  0  0  0  0  0
  139.4390   70.1770  222.8070 C   0  0  0  0  0  0  0  0  0  0  0  0
  139.5250   69.2740  223.8460 C   0  0  0  0  0  0  0  0  0  0  0  0
  140.0240   69.7440  225.0470 C   0  0  0  0  0  0  0  0  0  0  0  0
  140.1330   68.8790  226.1260 C   0  0  0  0  0  0  0  0  0  0  0  0
  140.6290   69.3390  227.3260 C   0  0  0  0  0  0  0  0  0  0  0  0
  140.7450   68.2020  228.6600 Cl  0  0  0  0  0  0  0  0  0  0  0  0
  141.0180   70.6610  227.4610 C   0  0  0  0  0  0  0  0  0  0  0  0
  140.9180   71.5370  226.4010 C   0  0  0  0  0  0  0  0  0  0  0  0
  140.4180   71.0710  225.1920 C   0  0  0  0  0  0  0  0  0  0  0  0
  140.3160   71.9120  224.1550 N   0  0  0  0  0  0  0  0  0  0  0  0
  139.4830   74.1190  223.0680 H   0  0  0  0  0  0  0  0  0  0  0  0
  139.2401   74.1975  220.0765 H   0  0  0  0  0  0  0  0  0  0  0  0
  138.5640   75.3989  221.3593 H   0  0  0  0  0  0  0  0  0  0  0  0
  139.6928   77.8344  218.3346 H   0  0  0  0  0  0  0  0  0  0  0  0
  138.8102   77.4978  219.8801 H   0  0  0  0  0  0  0  0  0  0  0  0
  139.4468   79.7229  220.0794 H   0  0  0  0  0  0  0  0  0  0  0  0
  140.7385   78.7624  220.9849 H   0  0  0  0  0  0  0  0  0  0  0  0
  140.9354   80.5265  218.6757 H   0  0  0  0  0  0  0  0  0  0  0  0
  142.1141   80.0708  219.9825 H   0  0  0  0  0  0  0  0  0  0  0  0
  141.3453   78.3724  217.6025 H   0  0  0  0  0  0  0  0  0  0  0  0
  142.8655   79.3408  217.8048 H   0  0  0  0  0  0  0  0  0  0  0  0
  143.7295   77.4386  218.6373 H   0  0  0  0  0  0  0  0  0  0  0  0
  142.8124   77.8683  220.1230 H   0  0  0  0  0  0  0  0  0  0  0  0
  141.6698   76.2524  217.8316 H   0  0  0  0  0  0  0  0  0  0  0  0
  141.1825   73.7663  218.2811 H   0  0  0  0  0  0  0  0  0  0  0  0
  142.4035   71.7177  218.9408 H   0  0  0  0  0  0  0  0  0  0  0  0
  145.0140   71.6350  221.3200 H   0  0  0  0  0  0  0  0  0  0  0  0
  145.3422   74.1287  220.8811 H   0  0  0  0  0  0  0  0  0  0  0  0
  144.1403   76.1631  220.2366 H   0  0  0  0  0  0  0  0  0  0  0  0
  139.0480   69.8401  221.8356 H   0  0  0  0  0  0  0  0  0  0  0  0
  139.2107   68.2269  223.7247 H   0  0  0  0  0  0  0  0  0  0  0  0
  139.8241   67.8282  226.0236 H   0  0  0  0  0  0  0  0  0  0  0  0
  141.4113   71.0164  228.4249 H   0  0  0  0  0  0  0  0  0  0  0  0
  141.2287   72.5865  226.5109 H   0  0  0  0  0  0  0  0  0  0  0  0
  1  2  2  0
  2  3  1  0
  3  4  1  0
  4  5  1  0
  5  6  2  0
  5  7  1  0
  7  8  1  0
  8  9  1  0
  9 10  1  0
 10 11  1  0
 11 12  1  0
 12 13  1  0
 13 14  1  0
 14 15  2  0
 15 16  1  0
 16 17  2  0
 17 18  1  0
 17 19  1  0
 19 20  2  0
  2 21  1  0
 21 22  2  0
 22 23  1  0
 23 24  2  0
 24 25  1  0
 25 26  2  0
 26 27  1  0
 26 28  1  0
 28 29  2  0
 29 30  1  0
 30 31  2  0
 13  7  1  0
 20 14  1  0
 31 21  1  0
 30 24  1  0
  3 32  1  0
  4 33  1  0
  4 34  1  0
  8 35  1  0
  8 36  1  0
  9 37  1  0
  9 38  1  0
 10 39  1  0
 10 40  1  0
 11 41  1  0
 11 42  1  0
 12 43  1  0
 12 44  1  0
 13 45  1  6
 15 46  1  0
 16 47  1  0
 18 48  1  0
 19 49  1  0
 20 50  1  0
 22 51  1  0
 23 52  1  0
 25 53  1  0
 28 54  1  0
 29 55  1  0
M  END
>  <smiles>  (60) 
O=C(NCC(=O)N1CCCCCC1c1ccc(O)cc1)c1ccc2cc(Cl)ccc2n1

>  <score_type>  (60) 
oracle

>  <origin>  (60) 
autodockgpu

>  <m_score__min__energy>  (60) 
-6.8799999999999999

>  <m_primary>  (60) 
energy

>  <rmsd>  (60) 
2.1652171027691716

>  <m_score__min__rmsd>  (60) 
2.1652171027691716

>  <meeko>  (60) 
{"free_energy": -5.74, "intermolecular_energy": -9.32, "internal_energy": -1.9, "cluster_size": 17, "cluster_id": 1, "rank_in_cluster": 11}

>  <energy>  (60) 
-5.9

>  <cluster_rmsd>  (60) 
1.19

>  <cluster>  (60) 
1

$$$$

     RDKit          3D

 55 58  0  0  0  0  0  0  0  0999 V2000
  138.1250   71.9330  221.8410 O   0  0  0  0  0  0  0  0  0  0  0  0
  139.3060   71.4960  222.0330 C   0  0  0  0  0  0  0  0  0  0  0  0
  140.2450   71.4580  220.9330 N   0  0  0  0  0  0  0  0  0  0  0  0
  139.9250   71.8900  219.6110 C   0  0  0  0  0  0  0  0  0  0  0  0
  140.3850   73.1830  219.1270 C   0  0  0  0  0  0  0  0  0  0  0  0
  140.9990   73.1010  217.9690 O   0  0  0  0  0  0  0  0  0  0  0  0
  140.3060   74.4750  219.6470 N   0  0  0  0  0  0  0  0  0  0  0  0
  139.2610   75.4030  219.2620 C   0  0  0  0  0  0  0  0  0  0  0  0
  138.0270   75.2440  220.1340 C   0  0  0  0  0  0  0  0  0  0  0  0
  138.2650   75.1930  221.5920 C   0  0  0  0  0  0  0  0  0  0  0  0
  139.5630   75.8260  221.9770 C   0  0  0  0  0  0  0  0  0  0  0  0
  140.7080   74.8380  221.9490 C   0  0  0  0  0  0  0  0  0  0  0  0
  141.3600   74.8590  220.6070 C   0  0  1  0  0  0  0  0  0  0  0  0
  142.5870   74.0680  220.4590 C   0  0  0  0  0  0  0  0  0  0  0  0
  142.8360   72.8300  220.9770 C   0  0  0  0  0  0  0  0  0  0  0  0
  144.0640   72.1790  220.8040 C   0  0  0  0  0  0  0  0  0  0  0  0
  145.0850   72.7720  220.0920 C   0  0  0  0  0  0  0  0  0  0  0  0
  146.3220   72.1760  219.8880 O   0  0  0  0  0  0  0  0  0  0  0  0
  144.8330   74.0220  219.5690 C   0  0  0  0  0  0  0  0  0  0  0  0
  143.6290   74.6700  219.7350 C   0  0  0  0  0  0  0  0  0  0  0  0
  139.7400   71.0330  223.3340 C   0  0  0  0  0  0  0  0  0  0  0  0
  140.5290   71.8760  224.1070 C   0  0  0  0  0  0  0  0  0  0  0  0
  140.9790   71.5050  225.3560 C   0  0  0  0  0  0  0  0  0  0  0  0
  140.6100   70.2520  225.8110 C   0  0  0  0  0  0  0  0  0  0  0  0
  141.0350   69.8270  227.0600 C   0  0  0  0  0  0  0  0  0  0  0  0
  140.6720   68.5800  227.5200 C   0  0  0  0  0  0  0  0  0  0  0  0
  141.2380   68.0910  229.1100 Cl  0  0  0  0  0  0  0  0  0  0  0  0
  139.8850   67.7480  226.7400 C   0  0  0  0  0  0  0  0  0  0  0  0
  139.4530   68.1520  225.4950 C   0  0  0  0  0  0  0  0  0  0  0  0
  139.8190   69.4100  225.0340 C   0  0  0  0  0  0  0  0  0  0  0  0
  139.4050   69.8130  223.8260 N   0  0  0  0  0  0  0  0  0  0  0  0
  141.2180   71.0850  221.1420 H   0  0  0  0  0  0  0  0  0  0  0  0
  140.3320   71.1330  218.9244 H   0  0  0  0  0  0  0  0  0  0  0  0
  138.8325   72.0128  219.6475 H   0  0  0  0  0  0  0  0  0  0  0  0
  139.6403   76.4306  219.3631 H   0  0  0  0  0  0  0  0  0  0  0  0
  138.9776   75.1913  218.2204 H   0  0  0  0  0  0  0  0  0  0  0  0
  137.3601   76.0951  219.9316 H   0  0  0  0  0  0  0  0  0  0  0  0
  137.6012   74.2650  219.8690 H   0  0  0  0  0  0  0  0  0  0  0  0
  137.4476   75.7232  222.1027 H   0  0  0  0  0  0  0  0  0  0  0  0
  138.3051   74.1348  221.8897 H   0  0  0  0  0  0  0  0  0  0  0  0
  139.7819   76.6427  221.2734 H   0  0  0  0  0  0  0  0  0  0  0  0
  139.4647   76.2017  223.0062 H   0  0  0  0  0  0  0  0  0  0  0  0
  141.4456   75.1117  222.7178 H   0  0  0  0  0  0  0  0  0  0  0  0
  140.3215   73.8279  222.1496 H   0  0  0  0  0  0  0  0  0  0  0  0
  141.7513   75.8704  220.4225 H   0  0  0  0  0  0  0  0  0  0  0  0
  142.0443   72.3258  221.5506 H   0  0  0  0  0  0  0  0  0  0  0  0
  144.2159   71.1814  221.2420 H   0  0  0  0  0  0  0  0  0  0  0  0
  146.6230   71.4930  220.5740 H   0  0  0  0  0  0  0  0  0  0  0  0
  145.6265   74.5230  218.9951 H   0  0  0  0  0  0  0  0  0  0  0  0
  143.4823   75.6681  219.2965 H   0  0  0  0  0  0  0  0  0  0  0  0
  140.8018   72.8656  223.7118 H   0  0  0  0  0  0  0  0  0  0  0  0
  141.6039   72.1757  225.9640 H   0  0  0  0  0  0  0  0  0  0  0  0
  141.6606   70.4837  227.6824 H   0  0  0  0  0  0  0  0  0  0  0  0
  139.6020   66.7546  227.1184 H   0  0  0  0  0  0  0  0  0  0  0  0
  138.8291   67.4895  224.8771 H   0  0  0  0  0  0  0  0  0  0  0  0
  1  2  2  0
  2  3  1  0
  3  4  1  0
  4  5  1  0
  5  6  2  0
  5  7  1  0
  7  8  1  0
  8  9  1  0
  9 10  1  0
 10 11  1  0
 11 12  1  0
 12 13  1  0
 13 14  1  0
 14 15  2  0
 15 16  1  0
 16 17  2  0
 17 18  1  0
 17 19  1  0
 19 20  2  0
  2 21  1  0
 21 22  2  0
 22 23  1  0
 23 24  2  0
 24 25  1  0
 25 26  2  0
 26 27  1  0
 26 28  1  0
 28 29  2  0
 29 30  1  0
 30 31  2  0
 13  7  1  0
 20 14  1  0
 31 21  1  0
 30 24  1  0
  3 32  1  0
  4 33  1  0
  4 34  1  0
  8 35  1  0
  8 36  1  0
  9 37  1  0
  9 38  1  0
 10 39  1  0
 10 40  1  0
 11 41  1  0
 11 42  1  0
 12 43  1  0
 12 44  1  0
 13 45  1  6
 15 46  1  0
 16 47  1  0
 18 48  1  0
 19 49  1  0
 20 50  1  0
 22 51  1  0
 23 52  1  0
 25 53  1  0
 28 54  1  0
 29 55  1  0
M  END
>  <smiles>  (61) 
O=C(NCC(=O)N1CCCCCC1c1ccc(O)cc1)c1ccc2cc(Cl)ccc2n1

>  <score_type>  (61) 
oracle

>  <origin>  (61) 
autodockgpu

>  <m_score__min__energy>  (61) 
-6.8799999999999999

>  <m_primary>  (61) 
energy

>  <rmsd>  (61) 
3.3666934707728156

>  <m_score__min__rmsd>  (61) 
3.3666934707728156

>  <meeko>  (61) 
{"free_energy": -4.77, "intermolecular_energy": -8.35, "internal_energy": -2.14, "cluster_size": 17, "cluster_id": 1, "rank_in_cluster": 17}

>  <energy>  (61) 
-5.74

>  <cluster_rmsd>  (61) 
1.21

>  <cluster>  (61) 
1

$$$$

     RDKit          3D

 55 58  0  0  0  0  0  0  0  0999 V2000
  140.0800   74.7240  219.4340 O   0  0  0  0  0  0  0  0  0  0  0  0
  140.5360   74.5310  220.6080 C   0  0  0  0  0  0  0  0  0  0  0  0
  141.4000   75.5200  221.2140 N   0  0  0  0  0  0  0  0  0  0  0  0
  141.7850   76.7310  220.5650 C   0  0  0  0  0  0  0  0  0  0  0  0
  141.3700   78.0190  221.1000 C   0  0  0  0  0  0  0  0  0  0  0  0
  141.0110   78.8650  220.1630 O   0  0  0  0  0  0  0  0  0  0  0  0
  141.2850   78.5240  222.3980 N   0  0  0  0  0  0  0  0  0  0  0  0
  142.4270   79.0940  223.0840 C   0  0  0  0  0  0  0  0  0  0  0  0
  142.6170   80.5590  222.7250 C   0  0  0  0  0  0  0  0  0  0  0  0
  141.4370   81.4300  222.9080 C   0  0  0  0  0  0  0  0  0  0  0  0
  140.1790   80.7940  222.4090 C   0  0  0  0  0  0  0  0  0  0  0  0
  139.6010   79.8290  223.4230 C   0  0  0  0  0  0  0  0  0  0  0  0
  139.9640   78.4310  223.0500 C   0  0  1  0  0  0  0  0  0  0  0  0
  138.9810   77.6870  222.2540 C   0  0  0  0  0  0  0  0  0  0  0  0
  138.2830   78.1400  221.1720 C   0  0  0  0  0  0  0  0  0  0  0  0
  137.3370   77.3510  220.5060 C   0  0  0  0  0  0  0  0  0  0  0  0
  137.0690   76.0640  220.9230 C   0  0  0  0  0  0  0  0  0  0  0  0
  136.1440   75.2360  220.3030 O   0  0  0  0  0  0  0  0  0  0  0  0
  137.7740   75.6060  222.0150 C   0  0  0  0  0  0  0  0  0  0  0  0
  138.7060   76.3750  222.6760 C   0  0  0  0  0  0  0  0  0  0  0  0
  140.2090   73.3380  221.3610 C   0  0  0  0  0  0  0  0  0  0  0  0
  139.4340   72.3610  220.7480 C   0  0  0  0  0  0  0  0  0  0  0  0
  139.0830   71.1990  221.4020 C   0  0  0  0  0  0  0  0  0  0  0  0
  139.5370   71.0450  222.6990 C   0  0  0  0  0  0  0  0  0  0  0  0
  139.2130   69.8950  223.4040 C   0  0  0  0  0  0  0  0  0  0  0  0
  139.6620   69.7350  224.6970 C   0  0  0  0  0  0  0  0  0  0  0  0
  139.2220   68.2590  225.5440 Cl  0  0  0  0  0  0  0  0  0  0  0  0
  140.4330   70.7160  225.2960 C   0  0  0  0  0  0  0  0  0  0  0  0
  140.7650   71.8660  224.6130 C   0  0  0  0  0  0  0  0  0  0  0  0
  140.3130   72.0260  223.3100 C   0  0  0  0  0  0  0  0  0  0  0  0
  140.6290   73.1390  222.6360 N   0  0  0  0  0  0  0  0  0  0  0  0
  141.7550   75.3140  222.1950 H   0  0  0  0  0  0  0  0  0  0  0  0
  142.8847   76.7395  220.5400 H   0  0  0  0  0  0  0  0  0  0  0  0
  141.2511   76.6780  219.6047 H   0  0  0  0  0  0  0  0  0  0  0  0
  142.2710   79.0091  224.1696 H   0  0  0  0  0  0  0  0  0  0  0  0
  143.3269   78.5427  222.7739 H   0  0  0  0  0  0  0  0  0  0  0  0
  143.4289   80.9564  223.3518 H   0  0  0  0  0  0  0  0  0  0  0  0
  142.8319   80.5742  221.6463 H   0  0  0  0  0  0  0  0  0  0  0  0
  141.3217   81.6487  223.9798 H   0  0  0  0  0  0  0  0  0  0  0  0
  141.6034   82.3485  222.3260 H   0  0  0  0  0  0  0  0  0  0  0  0
  139.4386   81.5811  222.2031 H   0  0  0  0  0  0  0  0  0  0  0  0
  140.4180   80.2301  221.4953 H   0  0  0  0  0  0  0  0  0  0  0  0
  140.0069   80.0588  224.4192 H   0  0  0  0  0  0  0  0  0  0  0  0
  138.5057   79.9293  223.4384 H   0  0  0  0  0  0  0  0  0  0  0  0
  139.9867   77.8177  223.9629 H   0  0  0  0  0  0  0  0  0  0  0  0
  138.4704   79.1617  220.8101 H   0  0  0  0  0  0  0  0  0  0  0  0
  136.8005   77.7632  219.6387 H   0  0  0  0  0  0  0  0  0  0  0  0
  135.4040   75.6860  219.7760 H   0  0  0  0  0  0  0  0  0  0  0  0
  137.5844   74.5835  222.3737 H   0  0  0  0  0  0  0  0  0  0  0  0
  139.2402   75.9583  223.5425 H   0  0  0  0  0  0  0  0  0  0  0  0
  139.0918   72.5187  219.7145 H   0  0  0  0  0  0  0  0  0  0  0  0
  138.4687   70.4283  220.9134 H   0  0  0  0  0  0  0  0  0  0  0  0
  138.5995   69.1132  222.9323 H   0  0  0  0  0  0  0  0  0  0  0  0
  140.7847   70.5762  226.3288 H   0  0  0  0  0  0  0  0  0  0  0  0
  141.3777   72.6439  225.0920 H   0  0  0  0  0  0  0  0  0  0  0  0
  1  2  2  0
  2  3  1  0
  3  4  1  0
  4  5  1  0
  5  6  2  0
  5  7  1  0
  7  8  1  0
  8  9  1  0
  9 10  1  0
 10 11  1  0
 11 12  1  0
 12 13  1  0
 13 14  1  0
 14 15  2  0
 15 16  1  0
 16 17  2  0
 17 18  1  0
 17 19  1  0
 19 20  2  0
  2 21  1  0
 21 22  2  0
 22 23  1  0
 23 24  2  0
 24 25  1  0
 25 26  2  0
 26 27  1  0
 26 28  1  0
 28 29  2  0
 29 30  1  0
 30 31  2  0
 13  7  1  0
 20 14  1  0
 31 21  1  0
 30 24  1  0
  3 32  1  0
  4 33  1  0
  4 34  1  0
  8 35  1  0
  8 36  1  0
  9 37  1  0
  9 38  1  0
 10 39  1  0
 10 40  1  0
 11 41  1  0
 11 42  1  0
 12 43  1  0
 12 44  1  0
 13 45  1  1
 15 46  1  0
 16 47  1  0
 18 48  1  0
 19 49  1  0
 20 50  1  0
 22 51  1  0
 23 52  1  0
 25 53  1  0
 28 54  1  0
 29 55  1  0
M  END
>  <smiles>  (62) 
O=C(NCC(=O)N1CCCCCC1c1ccc(O)cc1)c1ccc2cc(Cl)ccc2n1

>  <score_type>  (62) 
oracle

>  <origin>  (62) 
autodockgpu

>  <m_score__min__energy>  (62) 
-6.8799999999999999

>  <m_primary>  (62) 
energy

>  <rmsd>  (62) 
4.9466076848456675

>  <m_score__min__rmsd>  (62) 
4.9466076848456675

>  <meeko>  (62) 
{"free_energy": -4.72, "intermolecular_energy": -8.3, "internal_energy": -2.47, "cluster_size": 6, "cluster_id": 8, "rank_in_cluster": 6}

>  <energy>  (62) 
-5.59

>  <cluster_rmsd>  (62) 
1.22

>  <cluster>  (62) 
1

$$$$

     RDKit          3D

 55 58  0  0  0  0  0  0  0  0999 V2000
  139.0530   74.1480  220.5320 O   0  0  0  0  0  0  0  0  0  0  0  0
  139.8130   73.9530  221.5370 C   0  0  0  0  0  0  0  0  0  0  0  0
  140.8200   74.9330  221.8760 N   0  0  0  0  0  0  0  0  0  0  0  0
  141.0240   76.1390  221.1390 C   0  0  0  0  0  0  0  0  0  0  0  0
  140.6770   77.4270  221.7220 C   0  0  0  0  0  0  0  0  0  0  0  0
  139.5230   77.4050  222.3460 O   0  0  0  0  0  0  0  0  0  0  0  0
  141.3230   78.6630  221.7430 N   0  0  0  0  0  0  0  0  0  0  0  0
  142.2090   79.0560  222.8190 C   0  0  0  0  0  0  0  0  0  0  0  0
  141.5890   80.1420  223.6820 C   0  0  0  0  0  0  0  0  0  0  0  0
  141.7500   81.5280  223.1960 C   0  0  0  0  0  0  0  0  0  0  0  0
  141.2270   81.7060  221.8070 C   0  0  0  0  0  0  0  0  0  0  0  0
  141.9020   80.7650  220.8280 C   0  0  0  0  0  0  0  0  0  0  0  0
  141.0400   79.5670  220.6100 C   0  0  1  0  0  0  0  0  0  0  0  0
  141.1520   78.9050  219.3050 C   0  0  0  0  0  0  0  0  0  0  0  0
  140.1550   78.2860  218.6070 C   0  0  0  0  0  0  0  0  0  0  0  0
  140.3830   77.6500  217.3800 C   0  0  0  0  0  0  0  0  0  0  0  0
  141.6430   77.6260  216.8190 C   0  0  0  0  0  0  0  0  0  0  0  0
  141.9290   77.0130  215.6070 O   0  0  0  0  0  0  0  0  0  0  0  0
  142.6490   78.2520  217.5240 C   0  0  0  0  0  0  0  0  0  0  0  0
  142.4340   78.8780  218.7310 C   0  0  0  0  0  0  0  0  0  0  0  0
  139.6930   72.7650  222.3570 C   0  0  0  0  0  0  0  0  0  0  0  0
  138.8110   71.7710  221.9560 C   0  0  0  0  0  0  0  0  0  0  0  0
  138.6440   70.6120  222.6860 C   0  0  0  0  0  0  0  0  0  0  0  0
  139.3960   70.4820  223.8390 C   0  0  0  0  0  0  0  0  0  0  0  0
  139.2680   69.3370  224.6110 C   0  0  0  0  0  0  0  0  0  0  0  0
  140.0130   69.2000  225.7620 C   0  0  0  0  0  0  0  0  0  0  0  0
  139.8120   67.7300  226.7040 Cl  0  0  0  0  0  0  0  0  0  0  0  0
  140.8890   70.1990  226.1510 C   0  0  0  0  0  0  0  0  0  0  0  0
  141.0310   71.3450  225.3980 C   0  0  0  0  0  0  0  0  0  0  0  0
  140.2790   71.4810  224.2380 C   0  0  0  0  0  0  0  0  0  0  0  0
  140.4080   72.5890  223.4980 N   0  0  0  0  0  0  0  0  0  0  0  0
  141.4290   74.7270  222.7230 H   0  0  0  0  0  0  0  0  0  0  0  0
  142.0956   76.1818  220.8944 H   0  0  0  0  0  0  0  0  0  0  0  0
  140.3122   76.0440  220.3057 H   0  0  0  0  0  0  0  0  0  0  0  0
  142.4205   78.1778  223.4467 H   0  0  0  0  0  0  0  0  0  0  0  0
  143.1345   79.4530  222.3765 H   0  0  0  0  0  0  0  0  0  0  0  0
  140.5113   79.9358  223.7593 H   0  0  0  0  0  0  0  0  0  0  0  0
  142.1259   80.1004  224.6412 H   0  0  0  0  0  0  0  0  0  0  0  0
  141.2035   82.2048  223.8693 H   0  0  0  0  0  0  0  0  0  0  0  0
  142.8257   81.7573  223.1827 H   0  0  0  0  0  0  0  0  0  0  0  0
  140.1453   81.5063  221.8052 H   0  0  0  0  0  0  0  0  0  0  0  0
  141.4381   82.7383  221.4911 H   0  0  0  0  0  0  0  0  0  0  0  0
  142.0577   81.2832  219.8703 H   0  0  0  0  0  0  0  0  0  0  0  0
  142.8725   80.4472  221.2368 H   0  0  0  0  0  0  0  0  0  0  0  0
  139.9890   79.8904  220.5801 H   0  0  0  0  0  0  0  0  0  0  0  0
  139.1367   78.2868  219.0230 H   0  0  0  0  0  0  0  0  0  0  0  0
  139.5465   77.1634  216.8570 H   0  0  0  0  0  0  0  0  0  0  0  0
  142.5670   77.4970  214.9860 H   0  0  0  0  0  0  0  0  0  0  0  0
  143.6659   78.2512  217.1045 H   0  0  0  0  0  0  0  0  0  0  0  0
  143.2740   79.3617  219.2510 H   0  0  0  0  0  0  0  0  0  0  0  0
  138.2302   71.9108  221.0324 H   0  0  0  0  0  0  0  0  0  0  0  0
  137.9439   69.8266  222.3650 H   0  0  0  0  0  0  0  0  0  0  0  0
  138.5737   68.5404  224.3053 H   0  0  0  0  0  0  0  0  0  0  0  0
  141.4786   70.0769  227.0716 H   0  0  0  0  0  0  0  0  0  0  0  0
  141.7272   72.1374  225.7101 H   0  0  0  0  0  0  0  0  0  0  0  0
  1  2  2  0
  2  3  1  0
  3  4  1  0
  4  5  1  0
  5  6  2  0
  5  7  1  0
  7  8  1  0
  8  9  1  0
  9 10  1  0
 10 11  1  0
 11 12  1  0
 12 13  1  0
 13 14  1  0
 14 15  2  0
 15 16  1  0
 16 17  2  0
 17 18  1  0
 17 19  1  0
 19 20  2  0
  2 21  1  0
 21 22  2  0
 22 23  1  0
 23 24  2  0
 24 25  1  0
 25 26  2  0
 26 27  1  0
 26 28  1  0
 28 29  2  0
 29 30  1  0
 30 31  2  0
 13  7  1  0
 20 14  1  0
 31 21  1  0
 30 24  1  0
  3 32  1  0
  4 33  1  0
  4 34  1  0
  8 35  1  0
  8 36  1  0
  9 37  1  0
  9 38  1  0
 10 39  1  0
 10 40  1  0
 11 41  1  0
 11 42  1  0
 12 43  1  0
 12 44  1  0
 13 45  1  1
 15 46  1  0
 16 47  1  0
 18 48  1  0
 19 49  1  0
 20 50  1  0
 22 51  1  0
 23 52  1  0
 25 53  1  0
 28 54  1  0
 29 55  1  0
M  END
>  <smiles>  (63) 
O=C(NCC(=O)N1CCCCCC1c1ccc(O)cc1)c1ccc2cc(Cl)ccc2n1

>  <score_type>  (63) 
oracle

>  <origin>  (63) 
autodockgpu

>  <m_score__min__energy>  (63) 
-6.8799999999999999

>  <m_primary>  (63) 
energy

>  <rmsd>  (63) 
4.171400742047054

>  <m_score__min__rmsd>  (63) 
4.171400742047054

>  <meeko>  (63) 
{"free_energy": -5.09, "intermolecular_energy": -8.67, "internal_energy": -1.69, "cluster_size": 4, "cluster_id": 2, "rank_in_cluster": 4}

>  <energy>  (63) 
-5.39

>  <cluster_rmsd>  (63) 
1.35

>  <cluster>  (63) 
1

$$$$

     RDKit          3D

 55 58  0  0  0  0  0  0  0  0999 V2000
  139.1770   79.3100  220.0060 O   0  0  0  0  0  0  0  0  0  0  0  0
  138.9950   78.2960  220.7560 C   0  0  0  0  0  0  0  0  0  0  0  0
  137.8280   78.2340  221.6070 N   0  0  0  0  0  0  0  0  0  0  0  0
  136.8390   79.2620  221.6630 C   0  0  0  0  0  0  0  0  0  0  0  0
  136.5590   79.9480  222.9160 C   0  0  0  0  0  0  0  0  0  0  0  0
  136.1210   79.1360  223.8500 O   0  0  0  0  0  0  0  0  0  0  0  0
  136.6590   81.2820  223.3120 N   0  0  0  0  0  0  0  0  0  0  0  0
  135.6270   82.2560  223.0200 C   0  0  0  0  0  0  0  0  0  0  0  0
  135.4060   83.1990  224.1910 C   0  0  0  0  0  0  0  0  0  0  0  0
  135.2550   82.5640  225.5170 C   0  0  0  0  0  0  0  0  0  0  0  0
  136.0620   81.3120  225.6410 C   0  0  0  0  0  0  0  0  0  0  0  0
  137.5450   81.5820  225.4830 C   0  0  0  0  0  0  0  0  0  0  0  0
  137.8910   81.6580  224.0340 C   0  0  1  0  0  0  0  0  0  0  0  0
  139.0680   80.8990  223.5970 C   0  0  0  0  0  0  0  0  0  0  0  0
  139.5240   79.7190  224.1110 C   0  0  0  0  0  0  0  0  0  0  0  0
  140.6870   79.0970  223.6390 C   0  0  0  0  0  0  0  0  0  0  0  0
  141.4280   79.6600  222.6210 C   0  0  0  0  0  0  0  0  0  0  0  0
  142.5870   79.0900  222.1140 O   0  0  0  0  0  0  0  0  0  0  0  0
  140.9670   80.8510  222.1030 C   0  0  0  0  0  0  0  0  0  0  0  0
  139.8250   81.4700  222.5610 C   0  0  0  0  0  0  0  0  0  0  0  0
  139.9320   77.1930  220.7780 C   0  0  0  0  0  0  0  0  0  0  0  0
  139.5400   76.0040  221.3800 C   0  0  0  0  0  0  0  0  0  0  0  0
  140.3780   74.9110  221.4390 C   0  0  0  0  0  0  0  0  0  0  0  0
  141.6320   75.0470  220.8700 C   0  0  0  0  0  0  0  0  0  0  0  0
  142.5150   73.9790  220.9010 C   0  0  0  0  0  0  0  0  0  0  0  0
  143.7660   74.1080  220.3360 C   0  0  0  0  0  0  0  0  0  0  0  0
  144.8460   72.7240  220.4030 Cl  0  0  0  0  0  0  0  0  0  0  0  0
  144.1450   75.2990  219.7390 C   0  0  0  0  0  0  0  0  0  0  0  0
  143.2810   76.3720  219.6990 C   0  0  0  0  0  0  0  0  0  0  0  0
  142.0210   76.2410  220.2680 C   0  0  0  0  0  0  0  0  0  0  0  0
  141.1730   77.2760  220.2340 N   0  0  0  0  0  0  0  0  0  0  0  0
  137.7190   77.3680  222.2150 H   0  0  0  0  0  0  0  0  0  0  0  0
  137.1455   80.0343  220.9421 H   0  0  0  0  0  0  0  0  0  0  0  0
  135.9040   78.7180  221.4635 H   0  0  0  0  0  0  0  0  0  0  0  0
  135.9279   82.8431  222.1398 H   0  0  0  0  0  0  0  0  0  0  0  0
  134.6874   81.7172  222.8278 H   0  0  0  0  0  0  0  0  0  0  0  0
  136.2678   83.8807  224.2409 H   0  0  0  0  0  0  0  0  0  0  0  0
  134.4465   83.6985  223.9914 H   0  0  0  0  0  0  0  0  0  0  0  0
  135.5839   83.2749  226.2893 H   0  0  0  0  0  0  0  0  0  0  0  0
  134.1957   82.2958  225.6432 H   0  0  0  0  0  0  0  0  0  0  0  0
  135.8839   80.8700  226.6324 H   0  0  0  0  0  0  0  0  0  0  0  0
  135.7519   80.6239  224.8407 H   0  0  0  0  0  0  0  0  0  0  0  0
  137.7968   82.5359  225.9695 H   0  0  0  0  0  0  0  0  0  0  0  0
  138.1155   80.7664  225.9513 H   0  0  0  0  0  0  0  0  0  0  0  0
  138.2196   82.6823  223.8042 H   0  0  0  0  0  0  0  0  0  0  0  0
  138.9584   79.2402  224.9239 H   0  0  0  0  0  0  0  0  0  0  0  0
  141.0137   78.1467  224.0863 H   0  0  0  0  0  0  0  0  0  0  0  0
  142.5020   78.1710  221.6930 H   0  0  0  0  0  0  0  0  0  0  0  0
  141.5347   81.3271  221.2899 H   0  0  0  0  0  0  0  0  0  0  0  0
  139.5028   82.4207  222.1111 H   0  0  0  0  0  0  0  0  0  0  0  0
  138.5348   75.9328  221.8211 H   0  0  0  0  0  0  0  0  0  0  0  0
  140.0636   73.9718  221.9175 H   0  0  0  0  0  0  0  0  0  0  0  0
  142.2186   73.0316  221.3749 H   0  0  0  0  0  0  0  0  0  0  0  0
  145.1461   75.3894  219.2921 H   0  0  0  0  0  0  0  0  0  0  0  0
  143.5845   77.3167  219.2242 H   0  0  0  0  0  0  0  0  0  0  0  0
  1  2  2  0
  2  3  1  0
  3  4  1  0
  4  5  1  0
  5  6  2  0
  5  7  1  0
  7  8  1  0
  8  9  1  0
  9 10  1  0
 10 11  1  0
 11 12  1  0
 12 13  1  0
 13 14  1  0
 14 15  2  0
 15 16  1  0
 16 17  2  0
 17 18  1  0
 17 19  1  0
 19 20  2  0
  2 21  1  0
 21 22  2  0
 22 23  1  0
 23 24  2  0
 24 25  1  0
 25 26  2  0
 26 27  1  0
 26 28  1  0
 28 29  2  0
 29 30  1  0
 30 31  2  0
 13  7  1  0
 20 14  1  0
 31 21  1  0
 30 24  1  0
  3 32  1  0
  4 33  1  0
  4 34  1  0
  8 35  1  0
  8 36  1  0
  9 37  1  0
  9 38  1  0
 10 39  1  0
 10 40  1  0
 11 41  1  0
 11 42  1  0
 12 43  1  0
 12 44  1  0
 13 45  1  6
 15 46  1  0
 16 47  1  0
 18 48  1  0
 19 49  1  0
 20 50  1  0
 22 51  1  0
 23 52  1  0
 25 53  1  0
 28 54  1  0
 29 55  1  0
M  END
>  <smiles>  (64) 
O=C(NCC(=O)N1CCCCCC1c1ccc(O)cc1)c1ccc2cc(Cl)ccc2n1

>  <score_type>  (64) 
oracle

>  <origin>  (64) 
autodockgpu

>  <m_score__min__energy>  (64) 
-6.8799999999999999

>  <m_primary>  (64) 
energy

>  <rmsd>  (64) 
8.275788416164664

>  <m_score__min__rmsd>  (64) 
8.275788416164664

>  <meeko>  (64) 
{"free_energy": -3.78, "intermolecular_energy": -7.36, "internal_energy": -2.93, "cluster_size": 2, "cluster_id": 17, "rank_in_cluster": 2}

>  <energy>  (64) 
-5.33

>  <cluster_rmsd>  (64) 
1.67

>  <cluster>  (64) 
1

$$$$

     RDKit          3D

 55 58  0  0  0  0  0  0  0  0999 V2000
  142.0090   77.9560  216.2490 O   0  0  0  0  0  0  0  0  0  0  0  0
  142.5800   77.6160  217.3360 C   0  0  0  0  0  0  0  0  0  0  0  0
  142.6190   78.5420  218.4460 N   0  0  0  0  0  0  0  0  0  0  0  0
  142.0430   79.8470  218.4020 C   0  0  0  0  0  0  0  0  0  0  0  0
  141.8420   80.6060  219.6280 C   0  0  0  0  0  0  0  0  0  0  0  0
  142.0870   81.8860  219.4760 O   0  0  0  0  0  0  0  0  0  0  0  0
  141.4490   80.2410  220.9150 N   0  0  0  0  0  0  0  0  0  0  0  0
  140.5200   81.0350  221.6950 C   0  0  0  0  0  0  0  0  0  0  0  0
  141.2480   81.9400  222.6750 C   0  0  0  0  0  0  0  0  0  0  0  0
  141.7400   81.2950  223.9110 C   0  0  0  0  0  0  0  0  0  0  0  0
  141.8480   79.8110  223.7730 C   0  0  0  0  0  0  0  0  0  0  0  0
  142.8090   79.4230  222.6680 C   0  0  0  0  0  0  0  0  0  0  0  0
  142.0460   79.0040  221.4560 C   0  0  1  0  0  0  0  0  0  0  0  0
  141.0690   77.9240  221.6340 C   0  0  0  0  0  0  0  0  0  0  0  0
  139.8690   77.9970  222.2820 C   0  0  0  0  0  0  0  0  0  0  0  0
  139.0270   76.8880  222.4260 C   0  0  0  0  0  0  0  0  0  0  0  0
  139.3800   75.6590  221.9090 C   0  0  0  0  0  0  0  0  0  0  0  0
  138.5870   74.5260  222.0190 O   0  0  0  0  0  0  0  0  0  0  0  0
  140.5910   75.5860  221.2540 C   0  0  0  0  0  0  0  0  0  0  0  0
  141.4270   76.6710  221.1090 C   0  0  0  0  0  0  0  0  0  0  0  0
  143.1960   76.3150  217.4920 C   0  0  0  0  0  0  0  0  0  0  0  0
  143.4480   75.5610  216.3530 C   0  0  0  0  0  0  0  0  0  0  0  0
  144.0320   74.3140  216.4240 C   0  0  0  0  0  0  0  0  0  0  0  0
  144.3590   73.8430  217.6830 C   0  0  0  0  0  0  0  0  0  0  0  0
  144.9490   72.5940  217.8120 C   0  0  0  0  0  0  0  0  0  0  0  0
  145.2770   72.1180  219.0630 C   0  0  0  0  0  0  0  0  0  0  0  0
  146.0220   70.5300  219.1710 Cl  0  0  0  0  0  0  0  0  0  0  0  0
  145.0210   72.8800  220.1910 C   0  0  0  0  0  0  0  0  0  0  0  0
  144.4350   74.1230  220.0840 C   0  0  0  0  0  0  0  0  0  0  0  0
  144.1050   74.6020  218.8220 C   0  0  0  0  0  0  0  0  0  0  0  0
  143.5360   75.8070  218.7050 N   0  0  0  0  0  0  0  0  0  0  0  0
  143.1070   78.2130  219.3310 H   0  0  0  0  0  0  0  0  0  0  0  0
  142.6921   80.4567  217.7563 H   0  0  0  0  0  0  0  0  0  0  0  0
  141.0160   79.6535  218.0588 H   0  0  0  0  0  0  0  0  0  0  0  0
  139.9200   81.6556  221.0132 H   0  0  0  0  0  0  0  0  0  0  0  0
  139.8777   80.3506  222.2686 H   0  0  0  0  0  0  0  0  0  0  0  0
  142.1145   82.3727  222.1535 H   0  0  0  0  0  0  0  0  0  0  0  0
  140.5039   82.6806  223.0033 H   0  0  0  0  0  0  0  0  0  0  0  0
  142.7339   81.7011  224.1502 H   0  0  0  0  0  0  0  0  0  0  0  0
  141.0158   81.5063  224.7116 H   0  0  0  0  0  0  0  0  0  0  0  0
  142.2073   79.3892  224.7232 H   0  0  0  0  0  0  0  0  0  0  0  0
  140.8535   79.4154  223.5192 H   0  0  0  0  0  0  0  0  0  0  0  0
  143.4454   80.2849  222.4186 H   0  0  0  0  0  0  0  0  0  0  0  0
  143.4350   78.5855  223.0096 H   0  0  0  0  0  0  0  0  0  0  0  0
  142.7420   78.5276  220.7499 H   0  0  0  0  0  0  0  0  0  0  0  0
  139.5529   78.9616  222.7058 H   0  0  0  0  0  0  0  0  0  0  0  0
  138.0709   76.9982  222.9587 H   0  0  0  0  0  0  0  0  0  0  0  0
  138.4490   74.1500  222.9510 H   0  0  0  0  0  0  0  0  0  0  0  0
  140.9027   74.6204  220.8292 H   0  0  0  0  0  0  0  0  0  0  0  0
  142.3832   76.5555  220.5776 H   0  0  0  0  0  0  0  0  0  0  0  0
  143.1746   75.9693  215.3689 H   0  0  0  0  0  0  0  0  0  0  0  0
  144.2292   73.7199  215.5195 H   0  0  0  0  0  0  0  0  0  0  0  0
  145.1543   71.9857  216.9188 H   0  0  0  0  0  0  0  0  0  0  0  0
  145.2884   72.4887  221.1836 H   0  0  0  0  0  0  0  0  0  0  0  0
  144.2321   74.7252  220.9819 H   0  0  0  0  0  0  0  0  0  0  0  0
  1  2  2  0
  2  3  1  0
  3  4  1  0
  4  5  1  0
  5  6  2  0
  5  7  1  0
  7  8  1  0
  8  9  1  0
  9 10  1  0
 10 11  1  0
 11 12  1  0
 12 13  1  0
 13 14  1  0
 14 15  2  0
 15 16  1  0
 16 17  2  0
 17 18  1  0
 17 19  1  0
 19 20  2  0
  2 21  1  0
 21 22  2  0
 22 23  1  0
 23 24  2  0
 24 25  1  0
 25 26  2  0
 26 27  1  0
 26 28  1  0
 28 29  2  0
 29 30  1  0
 30 31  2  0
 13  7  1  0
 20 14  1  0
 31 21  1  0
 30 24  1  0
  3 32  1  0
  4 33  1  0
  4 34  1  0
  8 35  1  0
  8 36  1  0
  9 37  1  0
  9 38  1  0
 10 39  1  0
 10 40  1  0
 11 41  1  0
 11 42  1  0
 12 43  1  0
 12 44  1  0
 13 45  1  6
 15 46  1  0
 16 47  1  0
 18 48  1  0
 19 49  1  0
 20 50  1  0
 22 51  1  0
 23 52  1  0
 25 53  1  0
 28 54  1  0
 29 55  1  0
M  END
>  <smiles>  (65) 
O=C(NCC(=O)N1CCCCCC1c1ccc(O)cc1)c1ccc2cc(Cl)ccc2n1

>  <score_type>  (65) 
oracle

>  <origin>  (65) 
autodockgpu

>  <m_score__min__energy>  (65) 
-6.8799999999999999

>  <m_primary>  (65) 
energy

>  <rmsd>  (65) 
8.302258350843795

>  <m_score__min__rmsd>  (65) 
8.302258350843795

>  <meeko>  (65) 
{"free_energy": -5.04, "intermolecular_energy": -8.62, "internal_energy": -2.11, "cluster_size": 2, "cluster_id": 12, "rank_in_cluster": 1}

>  <energy>  (65) 
-5.29

>  <cluster_rmsd>  (65) 
1.03

>  <cluster>  (65) 
1

$$$$

     RDKit          3D

 55 58  0  0  0  0  0  0  0  0999 V2000
  139.9250   72.4810  220.5870 O   0  0  0  0  0  0  0  0  0  0  0  0
  139.8400   72.8940  221.7900 C   0  0  0  0  0  0  0  0  0  0  0  0
  139.6740   74.3060  222.0540 N   0  0  0  0  0  0  0  0  0  0  0  0
  139.5960   75.2940  221.0270 C   0  0  0  0  0  0  0  0  0  0  0  0
  140.4360   76.4810  221.0810 C   0  0  0  0  0  0  0  0  0  0  0  0
  141.5380   76.3540  220.3800 O   0  0  0  0  0  0  0  0  0  0  0  0
  140.3010   77.7100  221.7270 N   0  0  0  0  0  0  0  0  0  0  0  0
  140.6190   77.8870  223.1300 C   0  0  0  0  0  0  0  0  0  0  0  0
  141.9100   78.6680  223.3130 C   0  0  0  0  0  0  0  0  0  0  0  0
  141.7930   80.1400  223.2360 C   0  0  0  0  0  0  0  0  0  0  0  0
  141.1370   80.5920  221.9720 C   0  0  0  0  0  0  0  0  0  0  0  0
  139.7480   80.0070  221.8200 C   0  0  0  0  0  0  0  0  0  0  0  0
  139.7970   78.8290  220.9060 C   0  0  1  0  0  0  0  0  0  0  0  0
  140.5370   79.0000  219.6510 C   0  0  0  0  0  0  0  0  0  0  0  0
  141.8920   79.0620  219.4950 C   0  0  0  0  0  0  0  0  0  0  0  0
  142.4940   79.2660  218.2470 C   0  0  0  0  0  0  0  0  0  0  0  0
  141.7310   79.4130  217.1090 C   0  0  0  0  0  0  0  0  0  0  0  0
  142.2710   79.6170  215.8470 O   0  0  0  0  0  0  0  0  0  0  0  0
  140.3630   79.3500  217.2660 C   0  0  0  0  0  0  0  0  0  0  0  0
  139.7620   79.1500  218.4890 C   0  0  0  0  0  0  0  0  0  0  0  0
  139.9050   71.9790  222.9100 C   0  0  0  0  0  0  0  0  0  0  0  0
  139.3810   70.7020  222.7520 C   0  0  0  0  0  0  0  0  0  0  0  0
  139.4070   69.7770  223.7740 C   0  0  0  0  0  0  0  0  0  0  0  0
  139.9800   70.1740  224.9690 C   0  0  0  0  0  0  0  0  0  0  0  0
  140.0330   69.2840  226.0300 C   0  0  0  0  0  0  0  0  0  0  0  0
  140.6020   69.6730  227.2230 C   0  0  0  0  0  0  0  0  0  0  0  0
  140.6420   68.5050  228.5360 Cl  0  0  0  0  0  0  0  0  0  0  0  0
  141.1200   70.9490  227.3680 C   0  0  0  0  0  0  0  0  0  0  0  0
  141.0770   71.8490  226.3250 C   0  0  0  0  0  0  0  0  0  0  0  0
  140.5040   71.4550  225.1230 C   0  0  0  0  0  0  0  0  0  0  0  0
  140.4560   72.3200  224.1030 N   0  0  0  0  0  0  0  0  0  0  0  0
  139.6080   74.6010  223.0730 H   0  0  0  0  0  0  0  0  0  0  0  0
  139.8302   74.7845  220.0806 H   0  0  0  0  0  0  0  0  0  0  0  0
  138.5819   75.7017  221.1514 H   0  0  0  0  0  0  0  0  0  0  0  0
  139.7980   78.4340  223.6166 H   0  0  0  0  0  0  0  0  0  0  0  0
  140.7491   76.8931  223.5830 H   0  0  0  0  0  0  0  0  0  0  0  0
  142.3198   78.4141  224.3018 H   0  0  0  0  0  0  0  0  0  0  0  0
  142.5548   78.3771  222.4706 H   0  0  0  0  0  0  0  0  0  0  0  0
  141.1958   80.4924  224.0899 H   0  0  0  0  0  0  0  0  0  0  0  0
  142.8096   80.5596  223.2558 H   0  0  0  0  0  0  0  0  0  0  0  0
  141.0622   81.6894  221.9821 H   0  0  0  0  0  0  0  0  0  0  0  0
  141.7488   80.2458  221.1259 H   0  0  0  0  0  0  0  0  0  0  0  0
  139.3745   79.6905  222.8051 H   0  0  0  0  0  0  0  0  0  0  0  0
  139.0757   80.7685  221.3979 H   0  0  0  0  0  0  0  0  0  0  0  0
  138.7851   78.6443  220.5162 H   0  0  0  0  0  0  0  0  0  0  0  0
  142.5337   78.9476  220.3811 H   0  0  0  0  0  0  0  0  0  0  0  0
  143.5907   79.3095  218.1743 H   0  0  0  0  0  0  0  0  0  0  0  0
  143.2490   79.8800  215.8010 H   0  0  0  0  0  0  0  0  0  0  0  0
  139.7247   79.4642  216.3775 H   0  0  0  0  0  0  0  0  0  0  0  0
  138.6649   79.1073  218.5565 H   0  0  0  0  0  0  0  0  0  0  0  0
  138.9339   70.4218  221.7868 H   0  0  0  0  0  0  0  0  0  0  0  0
  138.9903   68.7672  223.6449 H   0  0  0  0  0  0  0  0  0  0  0  0
  139.6219   68.2697  225.9200 H   0  0  0  0  0  0  0  0  0  0  0  0
  141.5707   71.2476  228.3260 H   0  0  0  0  0  0  0  0  0  0  0  0
  141.4895   72.8619  226.4427 H   0  0  0  0  0  0  0  0  0  0  0  0
  1  2  2  0
  2  3  1  0
  3  4  1  0
  4  5  1  0
  5  6  2  0
  5  7  1  0
  7  8  1  0
  8  9  1  0
  9 10  1  0
 10 11  1  0
 11 12  1  0
 12 13  1  0
 13 14  1  0
 14 15  2  0
 15 16  1  0
 16 17  2  0
 17 18  1  0
 17 19  1  0
 19 20  2  0
  2 21  1  0
 21 22  2  0
 22 23  1  0
 23 24  2  0
 24 25  1  0
 25 26  2  0
 26 27  1  0
 26 28  1  0
 28 29  2  0
 29 30  1  0
 30 31  2  0
 13  7  1  0
 20 14  1  0
 31 21  1  0
 30 24  1  0
  3 32  1  0
  4 33  1  0
  4 34  1  0
  8 35  1  0
  8 36  1  0
  9 37  1  0
  9 38  1  0
 10 39  1  0
 10 40  1  0
 11 41  1  0
 11 42  1  0
 12 43  1  0
 12 44  1  0
 13 45  1  6
 15 46  1  0
 16 47  1  0
 18 48  1  0
 19 49  1  0
 20 50  1  0
 22 51  1  0
 23 52  1  0
 25 53  1  0
 28 54  1  0
 29 55  1  0
M  END
>  <smiles>  (66) 
O=C(NCC(=O)N1CCCCCC1c1ccc(O)cc1)c1ccc2cc(Cl)ccc2n1

>  <score_type>  (66) 
oracle

>  <origin>  (66) 
autodockgpu

>  <m_score__min__energy>  (66) 
-6.8799999999999999

>  <m_primary>  (66) 
energy

>  <rmsd>  (66) 
3.5217766496807297

>  <m_score__min__rmsd>  (66) 
3.5217766496807297

>  <meeko>  (66) 
{"free_energy": -6.27, "intermolecular_energy": -9.85, "internal_energy": -1.43, "cluster_size": 4, "cluster_id": 2, "rank_in_cluster": 1}

>  <energy>  (66) 
-5.22

>  <cluster_rmsd>  (66) 
1.92

>  <cluster>  (66) 
1

$$$$

     RDKit          3D

 55 58  0  0  0  0  0  0  0  0999 V2000
  139.2460   72.6000  220.3270 O   0  0  0  0  0  0  0  0  0  0  0  0
  140.0030   72.7440  221.3420 C   0  0  0  0  0  0  0  0  0  0  0  0
  141.0480   73.7430  221.3230 N   0  0  0  0  0  0  0  0  0  0  0  0
  141.2930   74.6030  220.2100 C   0  0  0  0  0  0  0  0  0  0  0  0
  140.6860   75.9250  220.1520 C   0  0  0  0  0  0  0  0  0  0  0  0
  141.5380   76.8570  219.7940 O   0  0  0  0  0  0  0  0  0  0  0  0
  139.3950   76.3880  220.4030 N   0  0  0  0  0  0  0  0  0  0  0  0
  138.3060   76.1910  219.4670 C   0  0  0  0  0  0  0  0  0  0  0  0
  137.0300   75.7730  220.1790 C   0  0  0  0  0  0  0  0  0  0  0  0
  137.1990   74.8720  221.3390 C   0  0  0  0  0  0  0  0  0  0  0  0
  137.4720   75.6210  222.6040 C   0  0  0  0  0  0  0  0  0  0  0  0
  138.9160   76.0610  222.6950 C   0  0  0  0  0  0  0  0  0  0  0  0
  139.1960   77.1120  221.6740 C   0  0  1  0  0  0  0  0  0  0  0  0
  140.2810   78.0520  221.9760 C   0  0  0  0  0  0  0  0  0  0  0  0
  140.6250   79.1690  221.2710 C   0  0  0  0  0  0  0  0  0  0  0  0
  141.7100   79.9780  221.6310 C   0  0  0  0  0  0  0  0  0  0  0  0
  142.4850   79.6740  222.7300 C   0  0  0  0  0  0  0  0  0  0  0  0
  143.5710   80.4380  223.1360 O   0  0  0  0  0  0  0  0  0  0  0  0
  142.1380   78.5460  223.4420 C   0  0  0  0  0  0  0  0  0  0  0  0
  141.0730   77.7450  223.0950 C   0  0  0  0  0  0  0  0  0  0  0  0
  139.8430   71.9270  222.5270 C   0  0  0  0  0  0  0  0  0  0  0  0
  138.9000   70.9080  222.5050 C   0  0  0  0  0  0  0  0  0  0  0  0
  138.6920   70.0890  223.5960 C   0  0  0  0  0  0  0  0  0  0  0  0
  139.4660   70.3260  224.7170 C   0  0  0  0  0  0  0  0  0  0  0  0
  139.2990   69.5330  225.8420 C   0  0  0  0  0  0  0  0  0  0  0  0
  140.0660   69.7630  226.9630 C   0  0  0  0  0  0  0  0  0  0  0  0
  139.8130   68.7290  228.3610 Cl  0  0  0  0  0  0  0  0  0  0  0  0
  141.0030   70.7830  226.9720 C   0  0  0  0  0  0  0  0  0  0  0  0
  141.1840   71.5830  225.8640 C   0  0  0  0  0  0  0  0  0  0  0  0
  140.4100   71.3490  224.7350 C   0  0  0  0  0  0  0  0  0  0  0  0
  140.5780   72.1190  223.6530 N   0  0  0  0  0  0  0  0  0  0  0  0
  141.6530   73.8260  222.1930 H   0  0  0  0  0  0  0  0  0  0  0  0
  142.3816   74.7533  220.1611 H   0  0  0  0  0  0  0  0  0  0  0  0
  140.8116   74.0721  219.3755 H   0  0  0  0  0  0  0  0  0  0  0  0
  138.1229   77.1323  218.9280 H   0  0  0  0  0  0  0  0  0  0  0  0
  138.5907   75.3899  218.7691 H   0  0  0  0  0  0  0  0  0  0  0  0
  136.5277   76.6856  220.5324 H   0  0  0  0  0  0  0  0  0  0  0  0
  136.4531   75.1983  219.4395 H   0  0  0  0  0  0  0  0  0  0  0  0
  136.2781   74.2843  221.4676 H   0  0  0  0  0  0  0  0  0  0  0  0
  138.0646   74.2236  221.1383 H   0  0  0  0  0  0  0  0  0  0  0  0
  136.8258   76.5106  222.6377 H   0  0  0  0  0  0  0  0  0  0  0  0
  137.2648   74.9499  223.4505 H   0  0  0  0  0  0  0  0  0  0  0  0
  139.1101   76.4675  223.6985 H   0  0  0  0  0  0  0  0  0  0  0  0
  139.5689   75.1954  222.5096 H   0  0  0  0  0  0  0  0  0  0  0  0
  138.3404   77.8024  221.6375 H   0  0  0  0  0  0  0  0  0  0  0  0
  140.0286   79.4436  220.3884 H   0  0  0  0  0  0  0  0  0  0  0  0
  141.9470   80.8676  221.0290 H   0  0  0  0  0  0  0  0  0  0  0  0
  144.4680   80.2210  222.7170 H   0  0  0  0  0  0  0  0  0  0  0  0
  142.7366   78.2744  224.3240 H   0  0  0  0  0  0  0  0  0  0  0  0
  140.8401   76.8562  223.6998 H   0  0  0  0  0  0  0  0  0  0  0  0
  138.3034   70.7495  221.5945 H   0  0  0  0  0  0  0  0  0  0  0  0
  137.9435   69.2832  223.5748 H   0  0  0  0  0  0  0  0  0  0  0  0
  138.5558   68.7221  225.8394 H   0  0  0  0  0  0  0  0  0  0  0  0
  141.6094   70.9566  227.8732 H   0  0  0  0  0  0  0  0  0  0  0  0
  141.9286   72.3926  225.8740 H   0  0  0  0  0  0  0  0  0  0  0  0
  1  2  2  0
  2  3  1  0
  3  4  1  0
  4  5  1  0
  5  6  2  0
  5  7  1  0
  7  8  1  0
  8  9  1  0
  9 10  1  0
 10 11  1  0
 11 12  1  0
 12 13  1  0
 13 14  1  0
 14 15  2  0
 15 16  1  0
 16 17  2  0
 17 18  1  0
 17 19  1  0
 19 20  2  0
  2 21  1  0
 21 22  2  0
 22 23  1  0
 23 24  2  0
 24 25  1  0
 25 26  2  0
 26 27  1  0
 26 28  1  0
 28 29  2  0
 29 30  1  0
 30 31  2  0
 13  7  1  0
 20 14  1  0
 31 21  1  0
 30 24  1  0
  3 32  1  0
  4 33  1  0
  4 34  1  0
  8 35  1  0
  8 36  1  0
  9 37  1  0
  9 38  1  0
 10 39  1  0
 10 40  1  0
 11 41  1  0
 11 42  1  0
 12 43  1  0
 12 44  1  0
 13 45  1  6
 15 46  1  0
 16 47  1  0
 18 48  1  0
 19 49  1  0
 20 50  1  0
 22 51  1  0
 23 52  1  0
 25 53  1  0
 28 54  1  0
 29 55  1  0
M  END
>  <smiles>  (67) 
O=C(NCC(=O)N1CCCCCC1c1ccc(O)cc1)c1ccc2cc(Cl)ccc2n1

>  <score_type>  (67) 
oracle

>  <origin>  (67) 
autodockgpu

>  <m_score__min__energy>  (67) 
-6.8799999999999999

>  <m_primary>  (67) 
energy

>  <rmsd>  (67) 
2.9516413372718624

>  <m_score__min__rmsd>  (67) 
2.9516413372718624

>  <meeko>  (67) 
{"free_energy": -4.29, "intermolecular_energy": -7.87, "internal_energy": -2.37, "cluster_size": 3, "cluster_id": 7, "rank_in_cluster": 3}

>  <energy>  (67) 
-4.77

>  <cluster_rmsd>  (67) 
1.93

>  <cluster>  (67) 
1

$$$$

     RDKit          3D

 55 58  0  0  0  0  0  0  0  0999 V2000
  140.1280   73.9460  220.5010 O   0  0  0  0  0  0  0  0  0  0  0  0
  139.7200   73.9270  221.7080 C   0  0  0  0  0  0  0  0  0  0  0  0
  139.3300   75.1610  222.3530 N   0  0  0  0  0  0  0  0  0  0  0  0
  139.3740   76.4330  221.7080 C   0  0  0  0  0  0  0  0  0  0  0  0
  140.4310   77.3830  222.0210 C   0  0  0  0  0  0  0  0  0  0  0  0
  141.4470   77.3000  221.1930 O   0  0  0  0  0  0  0  0  0  0  0  0
  140.5750   78.3480  223.0180 N   0  0  0  0  0  0  0  0  0  0  0  0
  141.8240   78.5490  223.7260 C   0  0  0  0  0  0  0  0  0  0  0  0
  142.7030   79.5710  223.0250 C   0  0  0  0  0  0  0  0  0  0  0  0
  142.2190   80.9680  223.0480 C   0  0  0  0  0  0  0  0  0  0  0  0
  140.7700   81.0720  222.6960 C   0  0  0  0  0  0  0  0  0  0  0  0
  139.8860   80.4800  223.7740 C   0  0  0  0  0  0  0  0  0  0  0  0
  139.3760   79.1500  223.3290 C   0  0  1  0  0  0  0  0  0  0  0  0
  138.3890   79.1540  222.2430 C   0  0  0  0  0  0  0  0  0  0  0  0
  138.5420   79.6820  220.9930 C   0  0  0  0  0  0  0  0  0  0  0  0
  137.5140   79.6630  220.0420 C   0  0  0  0  0  0  0  0  0  0  0  0
  136.2890   79.1010  220.3340 C   0  0  0  0  0  0  0  0  0  0  0  0
  135.2350   79.0530  219.4320 O   0  0  0  0  0  0  0  0  0  0  0  0
  136.1360   78.5680  221.5960 C   0  0  0  0  0  0  0  0  0  0  0  0
  137.1400   78.5830  222.5380 C   0  0  0  0  0  0  0  0  0  0  0  0
  139.6340   72.6910  222.4580 C   0  0  0  0  0  0  0  0  0  0  0  0
  138.7630   71.7060  222.0110 C   0  0  0  0  0  0  0  0  0  0  0  0
  138.6270   70.5040  222.6740 C   0  0  0  0  0  0  0  0  0  0  0  0
  139.3990   70.3190  223.8060 C   0  0  0  0  0  0  0  0  0  0  0  0
  139.3030   69.1290  224.5110 C   0  0  0  0  0  0  0  0  0  0  0  0
  140.0680   68.9370  225.6400 C   0  0  0  0  0  0  0  0  0  0  0  0
  139.9070   67.4110  226.4960 Cl  0  0  0  0  0  0  0  0  0  0  0  0
  140.9330   69.9280  226.0760 C   0  0  0  0  0  0  0  0  0  0  0  0
  141.0430   71.1180  225.3890 C   0  0  0  0  0  0  0  0  0  0  0  0
  140.2710   71.3090  224.2500 C   0  0  0  0  0  0  0  0  0  0  0  0
  140.3700   72.4610  223.5760 N   0  0  0  0  0  0  0  0  0  0  0  0
  138.9970   75.0940  223.3600 H   0  0  0  0  0  0  0  0  0  0  0  0
  139.4364   76.2366  220.6275 H   0  0  0  0  0  0  0  0  0  0  0  0
  138.4707   76.9339  222.0864 H   0  0  0  0  0  0  0  0  0  0  0  0
  141.6048   78.9042  224.7438 H   0  0  0  0  0  0  0  0  0  0  0  0
  142.3634   77.5907  223.7534 H   0  0  0  0  0  0  0  0  0  0  0  0
  143.6923   79.5498  223.5055 H   0  0  0  0  0  0  0  0  0  0  0  0
  142.7106   79.2776  221.9649 H   0  0  0  0  0  0  0  0  0  0  0  0
  142.3680   81.3774  224.0580 H   0  0  0  0  0  0  0  0  0  0  0  0
  142.7893   81.5343  222.2969 H   0  0  0  0  0  0  0  0  0  0  0  0
  140.5105   82.1329  222.5654 H   0  0  0  0  0  0  0  0  0  0  0  0
  140.6021   80.5070  221.7673 H   0  0  0  0  0  0  0  0  0  0  0  0
  140.4686   80.3578  224.6990 H   0  0  0  0  0  0  0  0  0  0  0  0
  139.0363   81.1533  223.9602 H   0  0  0  0  0  0  0  0  0  0  0  0
  138.7763   78.7137  224.1414 H   0  0  0  0  0  0  0  0  0  0  0  0
  139.5061   80.1381  220.7236 H   0  0  0  0  0  0  0  0  0  0  0  0
  137.6861   80.1025  219.0484 H   0  0  0  0  0  0  0  0  0  0  0  0
  134.4100   79.5960  219.6600 H   0  0  0  0  0  0  0  0  0  0  0  0
  135.1711   78.1115  221.8616 H   0  0  0  0  0  0  0  0  0  0  0  0
  136.9624   78.1438  223.5307 H   0  0  0  0  0  0  0  0  0  0  0  0
  138.1663   71.8890  221.1052 H   0  0  0  0  0  0  0  0  0  0  0  0
  137.9348   69.7269  222.3177 H   0  0  0  0  0  0  0  0  0  0  0  0
  138.6172   68.3398  224.1693 H   0  0  0  0  0  0  0  0  0  0  0  0
  141.5381   69.7633  226.9797 H   0  0  0  0  0  0  0  0  0  0  0  0
  141.7305   71.9031  225.7368 H   0  0  0  0  0  0  0  0  0  0  0  0
  1  2  2  0
  2  3  1  0
  3  4  1  0
  4  5  1  0
  5  6  2  0
  5  7  1  0
  7  8  1  0
  8  9  1  0
  9 10  1  0
 10 11  1  0
 11 12  1  0
 12 13  1  0
 13 14  1  0
 14 15  2  0
 15 16  1  0
 16 17  2  0
 17 18  1  0
 17 19  1  0
 19 20  2  0
  2 21  1  0
 21 22  2  0
 22 23  1  0
 23 24  2  0
 24 25  1  0
 25 26  2  0
 26 27  1  0
 26 28  1  0
 28 29  2  0
 29 30  1  0
 30 31  2  0
 13  7  1  0
 20 14  1  0
 31 21  1  0
 30 24  1  0
  3 32  1  0
  4 33  1  0
  4 34  1  0
  8 35  1  0
  8 36  1  0
  9 37  1  0
  9 38  1  0
 10 39  1  0
 10 40  1  0
 11 41  1  0
 11 42  1  0
 12 43  1  0
 12 44  1  0
 13 45  1  1
 15 46  1  0
 16 47  1  0
 18 48  1  0
 19 49  1  0
 20 50  1  0
 22 51  1  0
 23 52  1  0
 25 53  1  0
 28 54  1  0
 29 55  1  0
M  END
>  <smiles>  (68) 
O=C(NCC(=O)N1CCCCCC1c1ccc(O)cc1)c1ccc2cc(Cl)ccc2n1

>  <score_type>  (68) 
oracle

>  <origin>  (68) 
autodockgpu

>  <m_score__min__energy>  (68) 
-6.8799999999999999

>  <m_primary>  (68) 
energy

>  <rmsd>  (68) 
4.465468064456091

>  <m_score__min__rmsd>  (68) 
4.465468064456091

>  <meeko>  (68) 
{"free_energy": -5.64, "intermolecular_energy": -9.22, "internal_energy": -1.24, "cluster_size": 6, "cluster_id": 8, "rank_in_cluster": 1}

>  <energy>  (68) 
-6.27

>  <cluster_rmsd>  (68) 
0.0

>  <cluster>  (68) 
2

$$$$

     RDKit          3D

 55 58  0  0  0  0  0  0  0  0999 V2000
  139.5080   71.9290  220.5750 O   0  0  0  0  0  0  0  0  0  0  0  0
  139.5450   72.3780  221.7660 C   0  0  0  0  0  0  0  0  0  0  0  0
  139.4390   73.8010  222.0000 N   0  0  0  0  0  0  0  0  0  0  0  0
  139.2920   74.7610  220.9540 C   0  0  0  0  0  0  0  0  0  0  0  0
  140.3000   74.8740  219.9100 C   0  0  0  0  0  0  0  0  0  0  0  0
  139.8600   75.5090  218.8480 O   0  0  0  0  0  0  0  0  0  0  0  0
  141.6230   74.4420  219.8170 N   0  0  0  0  0  0  0  0  0  0  0  0
  141.9730   73.1120  219.3600 C   0  0  0  0  0  0  0  0  0  0  0  0
  142.8130   72.3740  220.3900 C   0  0  0  0  0  0  0  0  0  0  0  0
  144.2740   72.5850  220.3070 C   0  0  0  0  0  0  0  0  0  0  0  0
  144.6540   74.0120  220.5350 C   0  0  0  0  0  0  0  0  0  0  0  0
  143.9220   74.9440  219.5900 C   0  0  0  0  0  0  0  0  0  0  0  0
  142.6580   75.4120  220.2280 C   0  0  1  0  0  0  0  0  0  0  0  0
  142.2710   76.8050  219.9790 C   0  0  0  0  0  0  0  0  0  0  0  0
  142.5030   77.5350  218.8480 C   0  0  0  0  0  0  0  0  0  0  0  0
  142.1210   78.8770  218.7320 C   0  0  0  0  0  0  0  0  0  0  0  0
  141.4840   79.5240  219.7690 C   0  0  0  0  0  0  0  0  0  0  0  0
  141.0820   80.8510  219.7110 O   0  0  0  0  0  0  0  0  0  0  0  0
  141.2500   78.7870  220.9110 C   0  0  0  0  0  0  0  0  0  0  0  0
  141.6230   77.4670  221.0340 C   0  0  0  0  0  0  0  0  0  0  0  0
  139.6890   71.4950  222.9050 C   0  0  0  0  0  0  0  0  0  0  0  0
  139.2340   70.1880  222.7890 C   0  0  0  0  0  0  0  0  0  0  0  0
  139.3380   69.2900  223.8300 C   0  0  0  0  0  0  0  0  0  0  0  0
  139.9180   69.7460  225.0000 C   0  0  0  0  0  0  0  0  0  0  0  0
  140.0480   68.8850  226.0790 C   0  0  0  0  0  0  0  0  0  0  0  0
  140.6260   69.3330  227.2470 C   0  0  0  0  0  0  0  0  0  0  0  0
  140.7650   68.2010  228.5840 Cl  0  0  0  0  0  0  0  0  0  0  0  0
  141.0760   70.6390  227.3490 C   0  0  0  0  0  0  0  0  0  0  0  0
  140.9560   71.5100  226.2880 C   0  0  0  0  0  0  0  0  0  0  0  0
  140.3740   71.0570  225.1110 C   0  0  0  0  0  0  0  0  0  0  0  0
  140.2520   71.8940  224.0740 N   0  0  0  0  0  0  0  0  0  0  0  0
  139.4750   74.1280  223.0110 H   0  0  0  0  0  0  0  0  0  0  0  0
  138.3403   74.5358  220.4505 H   0  0  0  0  0  0  0  0  0  0  0  0
  139.3757   75.7209  221.4846 H   0  0  0  0  0  0  0  0  0  0  0  0
  141.0501   72.5423  219.1765 H   0  0  0  0  0  0  0  0  0  0  0  0
  142.5632   73.2077  218.4367 H   0  0  0  0  0  0  0  0  0  0  0  0
  142.4825   72.6976  221.3880 H   0  0  0  0  0  0  0  0  0  0  0  0
  142.6562   71.3040  220.1886 H   0  0  0  0  0  0  0  0  0  0  0  0
  144.7654   71.9619  221.0688 H   0  0  0  0  0  0  0  0  0  0  0  0
  144.5972   72.3083  219.2926 H   0  0  0  0  0  0  0  0  0  0  0  0
  144.4048   74.2863  221.5707 H   0  0  0  0  0  0  0  0  0  0  0  0
  145.7335   74.1136  220.3497 H   0  0  0  0  0  0  0  0  0  0  0  0
  144.5603   75.8107  219.3632 H   0  0  0  0  0  0  0  0  0  0  0  0
  143.6846   74.4078  218.6593 H   0  0  0  0  0  0  0  0  0  0  0  0
  142.8036   75.4383  221.3180 H   0  0  0  0  0  0  0  0  0  0  0  0
  143.0077   77.0516  217.9985 H   0  0  0  0  0  0  0  0  0  0  0  0
  142.3322   79.4225  217.8004 H   0  0  0  0  0  0  0  0  0  0  0  0
  141.3740   81.4540  220.4720 H   0  0  0  0  0  0  0  0  0  0  0  0
  140.7447   79.2735  221.7584 H   0  0  0  0  0  0  0  0  0  0  0  0
  141.4111   76.9260  221.9680 H   0  0  0  0  0  0  0  0  0  0  0  0
  138.7790   69.8609  221.8424 H   0  0  0  0  0  0  0  0  0  0  0  0
  138.9755   68.2559  223.7343 H   0  0  0  0  0  0  0  0  0  0  0  0
  139.6908   67.8474  226.0029 H   0  0  0  0  0  0  0  0  0  0  0  0
  141.5342   70.9847  228.2874 H   0  0  0  0  0  0  0  0  0  0  0  0
  141.3150   72.5464  226.3717 H   0  0  0  0  0  0  0  0  0  0  0  0
  1  2  2  0
  2  3  1  0
  3  4  1  0
  4  5  1  0
  5  6  2  0
  5  7  1  0
  7  8  1  0
  8  9  1  0
  9 10  1  0
 10 11  1  0
 11 12  1  0
 12 13  1  0
 13 14  1  0
 14 15  2  0
 15 16  1  0
 16 17  2  0
 17 18  1  0
 17 19  1  0
 19 20  2  0
  2 21  1  0
 21 22  2  0
 22 23  1  0
 23 24  2  0
 24 25  1  0
 25 26  2  0
 26 27  1  0
 26 28  1  0
 28 29  2  0
 29 30  1  0
 30 31  2  0
 13  7  1  0
 20 14  1  0
 31 21  1  0
 30 24  1  0
  3 32  1  0
  4 33  1  0
  4 34  1  0
  8 35  1  0
  8 36  1  0
  9 37  1  0
  9 38  1  0
 10 39  1  0
 10 40  1  0
 11 41  1  0
 11 42  1  0
 12 43  1  0
 12 44  1  0
 13 45  1  1
 15 46  1  0
 16 47  1  0
 18 48  1  0
 19 49  1  0
 20 50  1  0
 22 51  1  0
 23 52  1  0
 25 53  1  0
 28 54  1  0
 29 55  1  0
M  END
>  <smiles>  (69) 
O=C(NCC(=O)N1CCCCCC1c1ccc(O)cc1)c1ccc2cc(Cl)ccc2n1

>  <score_type>  (69) 
oracle

>  <origin>  (69) 
autodockgpu

>  <m_score__min__energy>  (69) 
-6.8799999999999999

>  <m_primary>  (69) 
energy

>  <rmsd>  (69) 
2.541202012218253

>  <m_score__min__rmsd>  (69) 
2.541202012218253

>  <meeko>  (69) 
{"free_energy": -5.32, "intermolecular_energy": -8.9, "internal_energy": -1.98, "cluster_size": 3, "cluster_id": 5, "rank_in_cluster": 3}

>  <energy>  (69) 
-6.16

>  <cluster_rmsd>  (69) 
1.72

>  <cluster>  (69) 
2

$$$$

     RDKit          3D

 55 58  0  0  0  0  0  0  0  0999 V2000
  140.2390   72.4820  220.7760 O   0  0  0  0  0  0  0  0  0  0  0  0
  139.5880   72.6440  221.8580 C   0  0  0  0  0  0  0  0  0  0  0  0
  138.6360   73.7270  221.9680 N   0  0  0  0  0  0  0  0  0  0  0  0
  138.3720   74.6520  220.9130 C   0  0  0  0  0  0  0  0  0  0  0  0
  139.3110   74.8010  219.8110 C   0  0  0  0  0  0  0  0  0  0  0  0
  138.9700   74.0970  218.7570 O   0  0  0  0  0  0  0  0  0  0  0  0
  140.4890   75.5330  219.6610 N   0  0  0  0  0  0  0  0  0  0  0  0
  140.8740   76.1290  218.3970 C   0  0  0  0  0  0  0  0  0  0  0  0
  142.0420   75.3890  217.7660 C   0  0  0  0  0  0  0  0  0  0  0  0
  143.3890   75.8100  218.2060 C   0  0  0  0  0  0  0  0  0  0  0  0
  143.4430   76.1030  219.6700 C   0  0  0  0  0  0  0  0  0  0  0  0
  142.6630   75.0850  220.4740 C   0  0  0  0  0  0  0  0  0  0  0  0
  141.3400   75.6560  220.8610 C   0  0  1  0  0  0  0  0  0  0  0  0
  141.3470   77.0110  221.4240 C   0  0  0  0  0  0  0  0  0  0  0  0
  141.1770   77.3600  222.7330 C   0  0  0  0  0  0  0  0  0  0  0  0
  141.1650   78.6950  223.1560 C   0  0  0  0  0  0  0  0  0  0  0  0
  141.3290   79.7250  222.2540 C   0  0  0  0  0  0  0  0  0  0  0  0
  141.3260   81.0650  222.6150 O   0  0  0  0  0  0  0  0  0  0  0  0
  141.5000   79.3720  220.9330 C   0  0  0  0  0  0  0  0  0  0  0  0
  141.5130   78.0620  220.5070 C   0  0  0  0  0  0  0  0  0  0  0  0
  139.7740   71.7630  222.9930 C   0  0  0  0  0  0  0  0  0  0  0  0
  139.3840   70.4360  222.8710 C   0  0  0  0  0  0  0  0  0  0  0  0
  139.5300   69.5390  223.9080 C   0  0  0  0  0  0  0  0  0  0  0  0
  140.0860   70.0180  225.0800 C   0  0  0  0  0  0  0  0  0  0  0  0
  140.2570   69.1600  226.1550 C   0  0  0  0  0  0  0  0  0  0  0  0
  140.8090   69.6300  227.3270 C   0  0  0  0  0  0  0  0  0  0  0  0
  141.0030   68.4990  228.6580 Cl  0  0  0  0  0  0  0  0  0  0  0  0
  141.1940   70.9560  227.4360 C   0  0  0  0  0  0  0  0  0  0  0  0
  141.0320   71.8250  226.3790 C   0  0  0  0  0  0  0  0  0  0  0  0
  140.4760   71.3490  225.1980 C   0  0  0  0  0  0  0  0  0  0  0  0
  140.3140   72.1840  224.1650 N   0  0  0  0  0  0  0  0  0  0  0  0
  138.1170   73.8210  222.8910 H   0  0  0  0  0  0  0  0  0  0  0  0
  137.4092   74.3583  220.4695 H   0  0  0  0  0  0  0  0  0  0  0  0
  138.4263   75.6273  221.4188 H   0  0  0  0  0  0  0  0  0  0  0  0
  140.0159   76.0952  217.7096 H   0  0  0  0  0  0  0  0  0  0  0  0
  141.1839   77.1676  218.5849 H   0  0  0  0  0  0  0  0  0  0  0  0
  141.9299   74.3202  218.0009 H   0  0  0  0  0  0  0  0  0  0  0  0
  141.9947   75.6208  216.6918 H   0  0  0  0  0  0  0  0  0  0  0  0
  144.1026   75.0039  217.9803 H   0  0  0  0  0  0  0  0  0  0  0  0
  143.6440   76.7353  217.6686 H   0  0  0  0  0  0  0  0  0  0  0  0
  144.4928   76.0877  219.9981 H   0  0  0  0  0  0  0  0  0  0  0  0
  142.9915   77.0918  219.8386 H   0  0  0  0  0  0  0  0  0  0  0  0
  142.5075   74.1810  219.8668 H   0  0  0  0  0  0  0  0  0  0  0  0
  143.2281   74.8277  221.3820 H   0  0  0  0  0  0  0  0  0  0  0  0
  140.9483   75.0872  221.7172 H   0  0  0  0  0  0  0  0  0  0  0  0
  141.0449   76.5648  223.4815 H   0  0  0  0  0  0  0  0  0  0  0  0
  141.0228   78.9250  224.2222 H   0  0  0  0  0  0  0  0  0  0  0  0
  140.6850   81.6740  222.1190 H   0  0  0  0  0  0  0  0  0  0  0  0
  141.6317   80.1698  220.1873 H   0  0  0  0  0  0  0  0  0  0  0  0
  141.6546   77.8371  219.4396 H   0  0  0  0  0  0  0  0  0  0  0  0
  138.9471   70.0912  221.9222 H   0  0  0  0  0  0  0  0  0  0  0  0
  139.2180   68.4890  223.8074 H   0  0  0  0  0  0  0  0  0  0  0  0
  139.9528   68.1061  226.0729 H   0  0  0  0  0  0  0  0  0  0  0  0
  141.6338   71.3193  228.3765 H   0  0  0  0  0  0  0  0  0  0  0  0
  141.3377   72.8778  226.4687 H   0  0  0  0  0  0  0  0  0  0  0  0
  1  2  2  0
  2  3  1  0
  3  4  1  0
  4  5  1  0
  5  6  2  0
  5  7  1  0
  7  8  1  0
  8  9  1  0
  9 10  1  0
 10 11  1  0
 11 12  1  0
 12 13  1  0
 13 14  1  0
 14 15  2  0
 15 16  1  0
 16 17  2  0
 17 18  1  0
 17 19  1  0
 19 20  2  0
  2 21  1  0
 21 22  2  0
 22 23  1  0
 23 24  2  0
 24 25  1  0
 25 26  2  0
 26 27  1  0
 26 28  1  0
 28 29  2  0
 29 30  1  0
 30 31  2  0
 13  7  1  0
 20 14  1  0
 31 21  1  0
 30 24  1  0
  3 32  1  0
  4 33  1  0
  4 34  1  0
  8 35  1  0
  8 36  1  0
  9 37  1  0
  9 38  1  0
 10 39  1  0
 10 40  1  0
 11 41  1  0
 11 42  1  0
 12 43  1  0
 12 44  1  0
 13 45  1  1
 15 46  1  0
 16 47  1  0
 18 48  1  0
 19 49  1  0
 20 50  1  0
 22 51  1  0
 23 52  1  0
 25 53  1  0
 28 54  1  0
 29 55  1  0
M  END
>  <smiles>  (70) 
O=C(NCC(=O)N1CCCCCC1c1ccc(O)cc1)c1ccc2cc(Cl)ccc2n1

>  <score_type>  (70) 
oracle

>  <origin>  (70) 
autodockgpu

>  <m_score__min__energy>  (70) 
-6.8799999999999999

>  <m_primary>  (70) 
energy

>  <rmsd>  (70) 
1.9882115327760608

>  <m_score__min__rmsd>  (70) 
1.9882115327760608

>  <meeko>  (70) 
{"free_energy": -5.79, "intermolecular_energy": -9.37, "internal_energy": -1.22, "cluster_size": 2, "cluster_id": 6, "rank_in_cluster": 1}

>  <energy>  (70) 
-5.51

>  <cluster_rmsd>  (70) 
1.31

>  <cluster>  (70) 
2

$$$$

     RDKit          3D

 55 58  0  0  0  0  0  0  0  0999 V2000
  139.7420   72.4680  220.7850 O   0  0  0  0  0  0  0  0  0  0  0  0
  139.7020   72.8200  222.0090 C   0  0  0  0  0  0  0  0  0  0  0  0
  139.5170   74.2130  222.3500 N   0  0  0  0  0  0  0  0  0  0  0  0
  139.3720   75.2480  221.3780 C   0  0  0  0  0  0  0  0  0  0  0  0
  138.1050   75.9490  221.2300 C   0  0  0  0  0  0  0  0  0  0  0  0
  137.4150   75.5340  220.1940 O   0  0  0  0  0  0  0  0  0  0  0  0
  137.4920   76.9640  221.9640 N   0  0  0  0  0  0  0  0  0  0  0  0
  136.5100   76.6900  222.9950 C   0  0  0  0  0  0  0  0  0  0  0  0
  135.0930   76.8690  222.4750 C   0  0  0  0  0  0  0  0  0  0  0  0
  134.6080   78.2620  222.3820 C   0  0  0  0  0  0  0  0  0  0  0  0
  135.5600   79.1470  221.6430 C   0  0  0  0  0  0  0  0  0  0  0  0
  136.9070   79.2260  222.3290 C   0  0  0  0  0  0  0  0  0  0  0  0
  137.8830   78.3460  221.6230 C   0  0  1  0  0  0  0  0  0  0  0  0
  139.3050   78.6160  221.8620 C   0  0  0  0  0  0  0  0  0  0  0  0
  140.3340   78.4600  220.9770 C   0  0  0  0  0  0  0  0  0  0  0  0
  141.6670   78.7140  221.3260 C   0  0  0  0  0  0  0  0  0  0  0  0
  141.9980   79.1390  222.5950 C   0  0  0  0  0  0  0  0  0  0  0  0
  143.2990   79.4070  222.9970 O   0  0  0  0  0  0  0  0  0  0  0  0
  140.9590   79.2970  223.4870 C   0  0  0  0  0  0  0  0  0  0  0  0
  139.6460   79.0490  223.1540 C   0  0  0  0  0  0  0  0  0  0  0  0
  139.8360   71.8540  223.0790 C   0  0  0  0  0  0  0  0  0  0  0  0
  139.4630   70.5390  222.8340 C   0  0  0  0  0  0  0  0  0  0  0  0
  139.5630   69.5640  223.8030 C   0  0  0  0  0  0  0  0  0  0  0  0
  140.0540   69.9510  225.0370 C   0  0  0  0  0  0  0  0  0  0  0  0
  140.1760   69.0110  226.0490 C   0  0  0  0  0  0  0  0  0  0  0  0
  140.6640   69.3890  227.2810 C   0  0  0  0  0  0  0  0  0  0  0  0
  140.7980   68.1580  228.5280 Cl  0  0  0  0  0  0  0  0  0  0  0  0
  141.0330   70.7040  227.5130 C   0  0  0  0  0  0  0  0  0  0  0  0
  140.9200   71.6530  226.5200 C   0  0  0  0  0  0  0  0  0  0  0  0
  140.4280   71.2700  225.2790 C   0  0  0  0  0  0  0  0  0  0  0  0
  140.3130   72.1830  224.3070 N   0  0  0  0  0  0  0  0  0  0  0  0
  139.4910   74.4570  223.3840 H   0  0  0  0  0  0  0  0  0  0  0  0
  140.1286   76.0107  221.6142 H   0  0  0  0  0  0  0  0  0  0  0  0
  139.4693   74.7080  220.4246 H   0  0  0  0  0  0  0  0  0  0  0  0
  136.6354   75.6537  223.3419 H   0  0  0  0  0  0  0  0  0  0  0  0
  136.6677   77.4004  223.8199 H   0  0  0  0  0  0  0  0  0  0  0  0
  135.0458   76.4283  221.4682 H   0  0  0  0  0  0  0  0  0  0  0  0
  134.4421   76.3771  223.2128 H   0  0  0  0  0  0  0  0  0  0  0  0
  133.6415   78.2656  221.8567 H   0  0  0  0  0  0  0  0  0  0  0  0
  134.5109   78.6532  223.4055 H   0  0  0  0  0  0  0  0  0  0  0  0
  135.7010   78.7480  220.6277 H   0  0  0  0  0  0  0  0  0  0  0  0
  135.1319   80.1599  221.6156 H   0  0  0  0  0  0  0  0  0  0  0  0
  137.2684   80.2647  222.3066 H   0  0  0  0  0  0  0  0  0  0  0  0
  136.8046   78.8930  223.3724 H   0  0  0  0  0  0  0  0  0  0  0  0
  137.8205   78.5480  220.5435 H   0  0  0  0  0  0  0  0  0  0  0  0
  140.1081   78.1232  219.9545 H   0  0  0  0  0  0  0  0  0  0  0  0
  142.4603   78.5724  220.5772 H   0  0  0  0  0  0  0  0  0  0  0  0
  144.0260   79.3090  222.2980 H   0  0  0  0  0  0  0  0  0  0  0  0
  141.1884   79.6355  224.5081 H   0  0  0  0  0  0  0  0  0  0  0  0
  138.8568   79.1913  223.9069 H   0  0  0  0  0  0  0  0  0  0  0  0
  139.0774   70.2683  221.8400 H   0  0  0  0  0  0  0  0  0  0  0  0
  139.2655   68.5239  223.6039 H   0  0  0  0  0  0  0  0  0  0  0  0
  139.8839   67.9659  225.8688 H   0  0  0  0  0  0  0  0  0  0  0  0
  141.4205   70.9939  228.5008 H   0  0  0  0  0  0  0  0  0  0  0  0
  141.2145   72.6962  226.7072 H   0  0  0  0  0  0  0  0  0  0  0  0
  1  2  2  0
  2  3  1  0
  3  4  1  0
  4  5  1  0
  5  6  2  0
  5  7  1  0
  7  8  1  0
  8  9  1  0
  9 10  1  0
 10 11  1  0
 11 12  1  0
 12 13  1  0
 13 14  1  0
 14 15  2  0
 15 16  1  0
 16 17  2  0
 17 18  1  0
 17 19  1  0
 19 20  2  0
  2 21  1  0
 21 22  2  0
 22 23  1  0
 23 24  2  0
 24 25  1  0
 25 26  2  0
 26 27  1  0
 26 28  1  0
 28 29  2  0
 29 30  1  0
 30 31  2  0
 13  7  1  0
 20 14  1  0
 31 21  1  0
 30 24  1  0
  3 32  1  0
  4 33  1  0
  4 34  1  0
  8 35  1  0
  8 36  1  0
  9 37  1  0
  9 38  1  0
 10 39  1  0
 10 40  1  0
 11 41  1  0
 11 42  1  0
 12 43  1  0
 12 44  1  0
 13 45  1  6
 15 46  1  0
 16 47  1  0
 18 48  1  0
 19 49  1  0
 20 50  1  0
 22 51  1  0
 23 52  1  0
 25 53  1  0
 28 54  1  0
 29 55  1  0
M  END
>  <smiles>  (71) 
O=C(NCC(=O)N1CCCCCC1c1ccc(O)cc1)c1ccc2cc(Cl)ccc2n1

>  <score_type>  (71) 
oracle

>  <origin>  (71) 
autodockgpu

>  <m_score__min__energy>  (71) 
-6.8799999999999999

>  <m_primary>  (71) 
energy

>  <rmsd>  (71) 
3.7589046795147163

>  <m_score__min__rmsd>  (71) 
3.7589046795147163

>  <meeko>  (71) 
{"free_energy": -5.65, "intermolecular_energy": -9.23, "internal_energy": -1.59, "cluster_size": 3, "cluster_id": 7, "rank_in_cluster": 1}

>  <energy>  (71) 
-5.09

>  <cluster_rmsd>  (71) 
1.42

>  <cluster>  (71) 
2

$$$$

     RDKit          3D

 55 58  0  0  0  0  0  0  0  0999 V2000
  140.3120   74.1110  222.1640 O   0  0  0  0  0  0  0  0  0  0  0  0
  140.1610   72.8580  221.9890 C   0  0  0  0  0  0  0  0  0  0  0  0
  139.9560   72.3410  220.6540 N   0  0  0  0  0  0  0  0  0  0  0  0
  139.9110   73.1650  219.4890 C   0  0  0  0  0  0  0  0  0  0  0  0
  141.1290   73.4660  218.7520 C   0  0  0  0  0  0  0  0  0  0  0  0
  140.8940   74.0930  217.6230 O   0  0  0  0  0  0  0  0  0  0  0  0
  142.4770   73.2170  219.0050 N   0  0  0  0  0  0  0  0  0  0  0  0
  143.1410   72.0100  218.5550 C   0  0  0  0  0  0  0  0  0  0  0  0
  143.5170   71.1130  219.7230 C   0  0  0  0  0  0  0  0  0  0  0  0
  143.6850   71.7850  221.0290 C   0  0  0  0  0  0  0  0  0  0  0  0
  144.7740   72.8090  221.0030 C   0  0  0  0  0  0  0  0  0  0  0  0
  144.6110   73.7770  219.8560 C   0  0  0  0  0  0  0  0  0  0  0  0
  143.1980   74.2480  219.7780 C   0  0  1  0  0  0  0  0  0  0  0  0
  142.9840   75.6060  219.2650 C   0  0  0  0  0  0  0  0  0  0  0  0
  142.3530   76.6380  219.8990 C   0  0  0  0  0  0  0  0  0  0  0  0
  142.1720   77.8890  219.2960 C   0  0  0  0  0  0  0  0  0  0  0  0
  142.6310   78.1320  218.0190 C   0  0  0  0  0  0  0  0  0  0  0  0
  142.4810   79.3500  217.3710 O   0  0  0  0  0  0  0  0  0  0  0  0
  143.2680   77.0900  217.3790 C   0  0  0  0  0  0  0  0  0  0  0  0
  143.4500   75.8570  217.9630 C   0  0  0  0  0  0  0  0  0  0  0  0
  140.1910   71.9290  223.0990 C   0  0  0  0  0  0  0  0  0  0  0  0
  139.7080   70.6420  222.8970 C   0  0  0  0  0  0  0  0  0  0  0  0
  139.7050   69.7030  223.9060 C   0  0  0  0  0  0  0  0  0  0  0  0
  140.2060   70.0970  225.1340 C   0  0  0  0  0  0  0  0  0  0  0  0
  140.2270   69.1920  226.1850 C   0  0  0  0  0  0  0  0  0  0  0  0
  140.7250   69.5770  227.4110 C   0  0  0  0  0  0  0  0  0  0  0  0
  140.7270   68.3920  228.7080 Cl  0  0  0  0  0  0  0  0  0  0  0  0
  141.2030   70.8630  227.5990 C   0  0  0  0  0  0  0  0  0  0  0  0
  141.1900   71.7780  226.5670 C   0  0  0  0  0  0  0  0  0  0  0  0
  140.6890   71.3870  225.3320 C   0  0  0  0  0  0  0  0  0  0  0  0
  140.6720   72.2660  224.3230 N   0  0  0  0  0  0  0  0  0  0  0  0
  139.8350   71.2890  220.5580 H   0  0  0  0  0  0  0  0  0  0  0  0
  139.2272   72.6736  218.7812 H   0  0  0  0  0  0  0  0  0  0  0  0
  139.6146   74.1456  219.8898 H   0  0  0  0  0  0  0  0  0  0  0  0
  142.4653   71.4591  217.8842 H   0  0  0  0  0  0  0  0  0  0  0  0
  144.0637   72.2986  218.0303 H   0  0  0  0  0  0  0  0  0  0  0  0
  142.7269   70.3556  219.8335 H   0  0  0  0  0  0  0  0  0  0  0  0
  144.5053   70.6998  219.4731 H   0  0  0  0  0  0  0  0  0  0  0  0
  142.7399   72.2802  221.2965 H   0  0  0  0  0  0  0  0  0  0  0  0
  143.9601   71.0192  221.7692 H   0  0  0  0  0  0  0  0  0  0  0  0
  144.7555   73.3715  221.9481 H   0  0  0  0  0  0  0  0  0  0  0  0
  145.7317   72.2841  220.8719 H   0  0  0  0  0  0  0  0  0  0  0  0
  145.2740   74.6407  220.0121 H   0  0  0  0  0  0  0  0  0  0  0  0
  144.8727   73.2684  218.9164 H   0  0  0  0  0  0  0  0  0  0  0  0
  142.8078   74.3583  220.8005 H   0  0  0  0  0  0  0  0  0  0  0  0
  141.9735   76.4811  220.9195 H   0  0  0  0  0  0  0  0  0  0  0  0
  141.6567   78.6884  219.8487 H   0  0  0  0  0  0  0  0  0  0  0  0
  143.2530   79.6620  216.7930 H   0  0  0  0  0  0  0  0  0  0  0  0
  143.6467   77.2509  216.3588 H   0  0  0  0  0  0  0  0  0  0  0  0
  143.9649   75.0607  217.4056 H   0  0  0  0  0  0  0  0  0  0  0  0
  139.3180   70.3653  221.9064 H   0  0  0  0  0  0  0  0  0  0  0  0
  139.3212   68.6852  223.7421 H   0  0  0  0  0  0  0  0  0  0  0  0
  139.8472   68.1698  226.0403 H   0  0  0  0  0  0  0  0  0  0  0  0
  141.5975   71.1581  228.5825 H   0  0  0  0  0  0  0  0  0  0  0  0
  141.5696   72.7991  226.7193 H   0  0  0  0  0  0  0  0  0  0  0  0
  1  2  2  0
  2  3  1  0
  3  4  1  0
  4  5  1  0
  5  6  2  0
  5  7  1  0
  7  8  1  0
  8  9  1  0
  9 10  1  0
 10 11  1  0
 11 12  1  0
 12 13  1  0
 13 14  1  0
 14 15  2  0
 15 16  1  0
 16 17  2  0
 17 18  1  0
 17 19  1  0
 19 20  2  0
  2 21  1  0
 21 22  2  0
 22 23  1  0
 23 24  2  0
 24 25  1  0
 25 26  2  0
 26 27  1  0
 26 28  1  0
 28 29  2  0
 29 30  1  0
 30 31  2  0
 13  7  1  0
 20 14  1  0
 31 21  1  0
 30 24  1  0
  3 32  1  0
  4 33  1  0
  4 34  1  0
  8 35  1  0
  8 36  1  0
  9 37  1  0
  9 38  1  0
 10 39  1  0
 10 40  1  0
 11 41  1  0
 11 42  1  0
 12 43  1  0
 12 44  1  0
 13 45  1  1
 15 46  1  0
 16 47  1  0
 18 48  1  0
 19 49  1  0
 20 50  1  0
 22 51  1  0
 23 52  1  0
 25 53  1  0
 28 54  1  0
 29 55  1  0
M  END
>  <smiles>  (72) 
O=C(NCC(=O)N1CCCCCC1c1ccc(O)cc1)c1ccc2cc(Cl)ccc2n1

>  <score_type>  (72) 
oracle

>  <origin>  (72) 
autodockgpu

>  <m_score__min__energy>  (72) 
-6.8799999999999999

>  <m_primary>  (72) 
energy

>  <rmsd>  (72) 
3.4186698737924823

>  <m_score__min__rmsd>  (72) 
3.4186698737924823

>  <meeko>  (72) 
{"free_energy": -5.43, "intermolecular_energy": -9.01, "internal_energy": -2.05, "cluster_size": 3, "cluster_id": 5, "rank_in_cluster": 2}

>  <energy>  (72) 
-6.25

>  <cluster_rmsd>  (72) 
0.0

>  <cluster>  (72) 
3

$$$$

     RDKit          3D

 55 58  0  0  0  0  0  0  0  0999 V2000
  139.2120   71.8650  220.7490 O   0  0  0  0  0  0  0  0  0  0  0  0
  139.4330   72.3390  221.9110 C   0  0  0  0  0  0  0  0  0  0  0  0
  139.5320   73.7700  222.0950 N   0  0  0  0  0  0  0  0  0  0  0  0
  139.3930   74.7110  221.0300 C   0  0  0  0  0  0  0  0  0  0  0  0
  140.3930   74.7830  219.9750 C   0  0  0  0  0  0  0  0  0  0  0  0
  140.0260   75.5590  218.9830 O   0  0  0  0  0  0  0  0  0  0  0  0
  141.6470   74.1930  219.8140 N   0  0  0  0  0  0  0  0  0  0  0  0
  141.8080   72.7800  219.5360 C   0  0  0  0  0  0  0  0  0  0  0  0
  142.3950   72.0420  220.7280 C   0  0  0  0  0  0  0  0  0  0  0  0
  143.8680   72.0700  220.8470 C   0  0  0  0  0  0  0  0  0  0  0  0
  144.4090   73.4630  220.8770 C   0  0  0  0  0  0  0  0  0  0  0  0
  144.0050   74.2450  219.6490 C   0  0  0  0  0  0  0  0  0  0  0  0
  142.8130   75.0870  219.9600 C   0  0  1  0  0  0  0  0  0  0  0  0
  142.6770   76.3380  219.2050 C   0  0  0  0  0  0  0  0  0  0  0  0
  142.9920   76.5470  217.8930 C   0  0  0  0  0  0  0  0  0  0  0  0
  142.8560   77.7990  217.2810 C   0  0  0  0  0  0  0  0  0  0  0  0
  142.3890   78.8870  217.9890 C   0  0  0  0  0  0  0  0  0  0  0  0
  142.2330   80.1500  217.4360 O   0  0  0  0  0  0  0  0  0  0  0  0
  142.0710   78.6750  219.3130 C   0  0  0  0  0  0  0  0  0  0  0  0
  142.2020   77.4470  219.9240 C   0  0  0  0  0  0  0  0  0  0  0  0
  139.5890   71.4770  223.0640 C   0  0  0  0  0  0  0  0  0  0  0  0
  139.1440   70.1640  222.9730 C   0  0  0  0  0  0  0  0  0  0  0  0
  139.2580   69.2850  224.0290 C   0  0  0  0  0  0  0  0  0  0  0  0
  139.8390   69.7670  225.1880 C   0  0  0  0  0  0  0  0  0  0  0  0
  139.9790   68.9260  226.2810 C   0  0  0  0  0  0  0  0  0  0  0  0
  140.5560   69.3980  227.4400 C   0  0  0  0  0  0  0  0  0  0  0  0
  140.7090   68.2910  228.7960 Cl  0  0  0  0  0  0  0  0  0  0  0  0
  140.9950   70.7090  227.5190 C   0  0  0  0  0  0  0  0  0  0  0  0
  140.8640   71.5620  226.4430 C   0  0  0  0  0  0  0  0  0  0  0  0
  140.2830   71.0830  225.2760 C   0  0  0  0  0  0  0  0  0  0  0  0
  140.1510   71.9010  224.2250 N   0  0  0  0  0  0  0  0  0  0  0  0
  139.7170   74.1180  223.0820 H   0  0  0  0  0  0  0  0  0  0  0  0
  138.4325   74.4933  220.5400 H   0  0  0  0  0  0  0  0  0  0  0  0
  139.4995   75.6800  221.5395 H   0  0  0  0  0  0  0  0  0  0  0  0
  140.8249   72.3483  219.2969 H   0  0  0  0  0  0  0  0  0  0  0  0
  142.4997   72.6714  218.6876 H   0  0  0  0  0  0  0  0  0  0  0  0
  141.9752   72.4897  221.6409 H   0  0  0  0  0  0  0  0  0  0  0  0
  142.1297   70.9846  220.5817 H   0  0  0  0  0  0  0  0  0  0  0  0
  144.1574   71.5582  221.7766 H   0  0  0  0  0  0  0  0  0  0  0  0
  144.2863   71.5658  219.9634 H   0  0  0  0  0  0  0  0  0  0  0  0
  144.0227   73.9765  221.7698 H   0  0  0  0  0  0  0  0  0  0  0  0
  145.5072   73.4043  220.9007 H   0  0  0  0  0  0  0  0  0  0  0  0
  144.8382   74.8916  219.3365 H   0  0  0  0  0  0  0  0  0  0  0  0
  143.7560   73.5460  218.8370 H   0  0  0  0  0  0  0  0  0  0  0  0
  142.9168   75.4814  220.9816 H   0  0  0  0  0  0  0  0  0  0  0  0
  143.3657   75.7022  217.2959 H   0  0  0  0  0  0  0  0  0  0  0  0
  143.1253   77.9167  216.2210 H   0  0  0  0  0  0  0  0  0  0  0  0
  142.9650   80.4740  216.8140 H   0  0  0  0  0  0  0  0  0  0  0  0
  141.6968   79.5218  219.9071 H   0  0  0  0  0  0  0  0  0  0  0  0
  141.9321   77.3342  220.9844 H   0  0  0  0  0  0  0  0  0  0  0  0
  138.6888   69.8167  222.0338 H   0  0  0  0  0  0  0  0  0  0  0  0
  138.9027   68.2467  223.9532 H   0  0  0  0  0  0  0  0  0  0  0  0
  139.6303   67.8843  226.2233 H   0  0  0  0  0  0  0  0  0  0  0  0
  141.4532   71.0741  228.4500 H   0  0  0  0  0  0  0  0  0  0  0  0
  141.2134   72.6030  226.5080 H   0  0  0  0  0  0  0  0  0  0  0  0
  1  2  2  0
  2  3  1  0
  3  4  1  0
  4  5  1  0
  5  6  2  0
  5  7  1  0
  7  8  1  0
  8  9  1  0
  9 10  1  0
 10 11  1  0
 11 12  1  0
 12 13  1  0
 13 14  1  0
 14 15  2  0
 15 16  1  0
 16 17  2  0
 17 18  1  0
 17 19  1  0
 19 20  2  0
  2 21  1  0
 21 22  2  0
 22 23  1  0
 23 24  2  0
 24 25  1  0
 25 26  2  0
 26 27  1  0
 26 28  1  0
 28 29  2  0
 29 30  1  0
 30 31  2  0
 13  7  1  0
 20 14  1  0
 31 21  1  0
 30 24  1  0
  3 32  1  0
  4 33  1  0
  4 34  1  0
  8 35  1  0
  8 36  1  0
  9 37  1  0
  9 38  1  0
 10 39  1  0
 10 40  1  0
 11 41  1  0
 11 42  1  0
 12 43  1  0
 12 44  1  0
 13 45  1  1
 15 46  1  0
 16 47  1  0
 18 48  1  0
 19 49  1  0
 20 50  1  0
 22 51  1  0
 23 52  1  0
 25 53  1  0
 28 54  1  0
 29 55  1  0
M  END
>  <smiles>  (73) 
O=C(NCC(=O)N1CCCCCC1c1ccc(O)cc1)c1ccc2cc(Cl)ccc2n1

>  <score_type>  (73) 
oracle

>  <origin>  (73) 
autodockgpu

>  <m_score__min__energy>  (73) 
-6.8799999999999999

>  <m_primary>  (73) 
energy

>  <rmsd>  (73) 
2.704952900996748

>  <m_score__min__rmsd>  (73) 
2.704952900996748

>  <meeko>  (73) 
{"free_energy": -5.89, "intermolecular_energy": -9.47, "internal_energy": -1.97, "cluster_size": 3, "cluster_id": 5, "rank_in_cluster": 1}

>  <energy>  (73) 
-5.35

>  <cluster_rmsd>  (73) 
1.46

>  <cluster>  (73) 
3

$$$$

     RDKit          3D

 55 58  0  0  0  0  0  0  0  0999 V2000
  139.9630   72.0620  220.6460 O   0  0  0  0  0  0  0  0  0  0  0  0
  139.3810   72.2980  221.7540 C   0  0  0  0  0  0  0  0  0  0  0  0
  138.4930   73.4330  221.8710 N   0  0  0  0  0  0  0  0  0  0  0  0
  138.2190   74.3310  220.7960 C   0  0  0  0  0  0  0  0  0  0  0  0
  139.2810   75.1520  220.2320 C   0  0  0  0  0  0  0  0  0  0  0  0
  138.9230   75.7480  219.1190 O   0  0  0  0  0  0  0  0  0  0  0  0
  140.5880   75.4220  220.6380 N   0  0  0  0  0  0  0  0  0  0  0  0
  140.9180   75.7710  222.0050 C   0  0  0  0  0  0  0  0  0  0  0  0
  140.7880   77.2670  222.2440 C   0  0  0  0  0  0  0  0  0  0  0  0
  141.2770   78.1420  221.1580 C   0  0  0  0  0  0  0  0  0  0  0  0
  140.8410   77.6720  219.8090 C   0  0  0  0  0  0  0  0  0  0  0  0
  141.8720   76.7620  219.1730 C   0  0  0  0  0  0  0  0  0  0  0  0
  141.6250   75.3510  219.5890 C   0  0  1  0  0  0  0  0  0  0  0  0
  142.7990   74.5690  219.9950 C   0  0  0  0  0  0  0  0  0  0  0  0
  142.8260   73.2550  220.3650 C   0  0  0  0  0  0  0  0  0  0  0  0
  144.0040   72.6160  220.7720 C   0  0  0  0  0  0  0  0  0  0  0  0
  145.2020   73.2980  220.8130 C   0  0  0  0  0  0  0  0  0  0  0  0
  146.4000   72.7180  221.2060 O   0  0  0  0  0  0  0  0  0  0  0  0
  145.1740   74.6250  220.4380 C   0  0  0  0  0  0  0  0  0  0  0  0
  144.0200   75.2620  220.0380 C   0  0  0  0  0  0  0  0  0  0  0  0
  139.5830   71.4510  222.9110 C   0  0  0  0  0  0  0  0  0  0  0  0
  139.1760   70.1250  222.8390 C   0  0  0  0  0  0  0  0  0  0  0  0
  139.3370   69.2590  223.9000 C   0  0  0  0  0  0  0  0  0  0  0  0
  139.9240   69.7680  225.0440 C   0  0  0  0  0  0  0  0  0  0  0  0
  140.1110   68.9410  226.1420 C   0  0  0  0  0  0  0  0  0  0  0  0
  140.6950   69.4410  227.2850 C   0  0  0  0  0  0  0  0  0  0  0  0
  140.9070   68.3510  228.6470 Cl  0  0  0  0  0  0  0  0  0  0  0  0
  141.0960   70.7650  227.3440 C   0  0  0  0  0  0  0  0  0  0  0  0
  140.9190   71.6030  226.2640 C   0  0  0  0  0  0  0  0  0  0  0  0
  140.3310   71.0980  225.1120 C   0  0  0  0  0  0  0  0  0  0  0  0
  140.1540   71.9020  224.0570 N   0  0  0  0  0  0  0  0  0  0  0  0
  138.0300   73.5880  222.8150 H   0  0  0  0  0  0  0  0  0  0  0  0
  137.8185   73.7231  219.9714 H   0  0  0  0  0  0  0  0  0  0  0  0
  137.5501   75.0728  221.2567 H   0  0  0  0  0  0  0  0  0  0  0  0
  140.2354   75.2396  222.6845 H   0  0  0  0  0  0  0  0  0  0  0  0
  141.9620   75.4804  222.1935 H   0  0  0  0  0  0  0  0  0  0  0  0
  139.7228   77.4910  222.4027 H   0  0  0  0  0  0  0  0  0  0  0  0
  141.4283   77.4852  223.1114 H   0  0  0  0  0  0  0  0  0  0  0  0
  140.8884   79.1581  221.3208 H   0  0  0  0  0  0  0  0  0  0  0  0
  142.3766   78.1229  221.1809 H   0  0  0  0  0  0  0  0  0  0  0  0
  139.8944   77.1212  219.9120 H   0  0  0  0  0  0  0  0  0  0  0  0
  140.7157   78.5532  219.1626 H   0  0  0  0  0  0  0  0  0  0  0  0
  141.8002   76.8379  218.0780 H   0  0  0  0  0  0  0  0  0  0  0  0
  142.8770   77.0668  219.5003 H   0  0  0  0  0  0  0  0  0  0  0  0
  141.2979   74.7777  218.7090 H   0  0  0  0  0  0  0  0  0  0  0  0
  141.8897   72.6780  220.3427 H   0  0  0  0  0  0  0  0  0  0  0  0
  143.9732   71.5556  221.0629 H   0  0  0  0  0  0  0  0  0  0  0  0
  146.3410   71.8800  221.7730 H   0  0  0  0  0  0  0  0  0  0  0  0
  146.1124   75.1986  220.4592 H   0  0  0  0  0  0  0  0  0  0  0  0
  144.0550   76.3230  219.7496 H   0  0  0  0  0  0  0  0  0  0  0  0
  138.7133   69.7561  221.9117 H   0  0  0  0  0  0  0  0  0  0  0  0
  139.0128   68.2096  223.8390 H   0  0  0  0  0  0  0  0  0  0  0  0
  139.7937   67.8886  226.1000 H   0  0  0  0  0  0  0  0  0  0  0  0
  141.5608   71.1523  228.2627 H   0  0  0  0  0  0  0  0  0  0  0  0
  141.2383   72.6544  226.3140 H   0  0  0  0  0  0  0  0  0  0  0  0
  1  2  2  0
  2  3  1  0
  3  4  1  0
  4  5  1  0
  5  6  2  0
  5  7  1  0
  7  8  1  0
  8  9  1  0
  9 10  1  0
 10 11  1  0
 11 12  1  0
 12 13  1  0
 13 14  1  0
 14 15  2  0
 15 16  1  0
 16 17  2  0
 17 18  1  0
 17 19  1  0
 19 20  2  0
  2 21  1  0
 21 22  2  0
 22 23  1  0
 23 24  2  0
 24 25  1  0
 25 26  2  0
 26 27  1  0
 26 28  1  0
 28 29  2  0
 29 30  1  0
 30 31  2  0
 13  7  1  0
 20 14  1  0
 31 21  1  0
 30 24  1  0
  3 32  1  0
  4 33  1  0
  4 34  1  0
  8 35  1  0
  8 36  1  0
  9 37  1  0
  9 38  1  0
 10 39  1  0
 10 40  1  0
 11 41  1  0
 11 42  1  0
 12 43  1  0
 12 44  1  0
 13 45  1  6
 15 46  1  0
 16 47  1  0
 18 48  1  0
 19 49  1  0
 20 50  1  0
 22 51  1  0
 23 52  1  0
 25 53  1  0
 28 54  1  0
 29 55  1  0
M  END
>  <smiles>  (74) 
O=C(NCC(=O)N1CCCCCC1c1ccc(O)cc1)c1ccc2cc(Cl)ccc2n1

>  <score_type>  (74) 
oracle

>  <origin>  (74) 
autodockgpu

>  <m_score__min__energy>  (74) 
-6.8799999999999999

>  <m_primary>  (74) 
energy

>  <rmsd>  (74) 
2.362305803995498

>  <m_score__min__rmsd>  (74) 
2.362305803995498

>  <meeko>  (74) 
{"free_energy": -6.56, "intermolecular_energy": -10.14, "internal_energy": -1.8, "cluster_size": 17, "cluster_id": 1, "rank_in_cluster": 2}

>  <energy>  (74) 
-5.98

>  <cluster_rmsd>  (74) 
0.0

>  <cluster>  (74) 
4

$$$$

     RDKit          3D

 55 58  0  0  0  0  0  0  0  0999 V2000
  138.6470   71.3870  221.1180 O   0  0  0  0  0  0  0  0  0  0  0  0
  139.3380   71.8270  222.0940 C   0  0  0  0  0  0  0  0  0  0  0  0
  139.8980   73.1590  222.0330 N   0  0  0  0  0  0  0  0  0  0  0  0
  139.7220   74.0370  220.9210 C   0  0  0  0  0  0  0  0  0  0  0  0
  140.5640   75.2140  220.7700 C   0  0  0  0  0  0  0  0  0  0  0  0
  141.4300   75.3450  221.7480 O   0  0  0  0  0  0  0  0  0  0  0  0
  140.6280   76.2180  219.8040 N   0  0  0  0  0  0  0  0  0  0  0  0
  139.5000   77.0770  219.5050 C   0  0  0  0  0  0  0  0  0  0  0  0
  139.4290   78.2550  220.4630 C   0  0  0  0  0  0  0  0  0  0  0  0
  140.6660   79.0510  220.6060 C   0  0  0  0  0  0  0  0  0  0  0  0
  141.8850   78.1930  220.7100 C   0  0  0  0  0  0  0  0  0  0  0  0
  142.3800   77.7400  219.3510 C   0  0  0  0  0  0  0  0  0  0  0  0
  141.9080   76.3500  219.0810 C   0  0  1  0  0  0  0  0  0  0  0  0
  142.8510   75.2660  219.3810 C   0  0  0  0  0  0  0  0  0  0  0  0
  142.7180   73.9460  219.0590 C   0  0  0  0  0  0  0  0  0  0  0  0
  143.6680   72.9850  219.4290 C   0  0  0  0  0  0  0  0  0  0  0  0
  144.7930   73.3410  220.1420 C   0  0  0  0  0  0  0  0  0  0  0  0
  145.7680   72.4340  220.5360 O   0  0  0  0  0  0  0  0  0  0  0  0
  144.9270   74.6740  220.4660 C   0  0  0  0  0  0  0  0  0  0  0  0
  143.9980   75.6250  220.1070 C   0  0  0  0  0  0  0  0  0  0  0  0
  139.5790   71.0240  223.2740 C   0  0  0  0  0  0  0  0  0  0  0  0
  139.1620   69.6990  223.2690 C   0  0  0  0  0  0  0  0  0  0  0  0
  139.3580   68.8740  224.3560 C   0  0  0  0  0  0  0  0  0  0  0  0
  139.9910   69.4220  225.4560 C   0  0  0  0  0  0  0  0  0  0  0  0
  140.2130   68.6360  226.5770 C   0  0  0  0  0  0  0  0  0  0  0  0
  140.8430   69.1760  227.6780 C   0  0  0  0  0  0  0  0  0  0  0  0
  141.0990   68.1370  229.0720 Cl  0  0  0  0  0  0  0  0  0  0  0  0
  141.2530   70.4980  227.6710 C   0  0  0  0  0  0  0  0  0  0  0  0
  141.0410   71.2960  226.5670 C   0  0  0  0  0  0  0  0  0  0  0  0
  140.4070   70.7500  225.4580 C   0  0  0  0  0  0  0  0  0  0  0  0
  140.1960   71.5150  224.3800 N   0  0  0  0  0  0  0  0  0  0  0  0
  140.4670   73.4820  222.8710 H   0  0  0  0  0  0  0  0  0  0  0  0
  139.8630   73.4300  220.0146 H   0  0  0  0  0  0  0  0  0  0  0  0
  138.7253   74.4667  221.0999 H   0  0  0  0  0  0  0  0  0  0  0  0
  139.6022   77.4570  218.4778 H   0  0  0  0  0  0  0  0  0  0  0  0
  138.5780   76.4871  219.6137 H   0  0  0  0  0  0  0  0  0  0  0  0
  138.6346   78.9287  220.1093 H   0  0  0  0  0  0  0  0  0  0  0  0
  139.2416   77.8186  221.4552 H   0  0  0  0  0  0  0  0  0  0  0  0
  140.7685   79.7059  219.7281 H   0  0  0  0  0  0  0  0  0  0  0  0
  140.5850   79.6338  221.5354 H   0  0  0  0  0  0  0  0  0  0  0  0
  142.6821   78.7674  221.2046 H   0  0  0  0  0  0  0  0  0  0  0  0
  141.6204   77.2969  221.2905 H   0  0  0  0  0  0  0  0  0  0  0  0
  141.9895   78.4157  218.5758 H   0  0  0  0  0  0  0  0  0  0  0  0
  143.4798   77.7599  219.3388 H   0  0  0  0  0  0  0  0  0  0  0  0
  141.7944   76.2217  217.9944 H   0  0  0  0  0  0  0  0  0  0  0  0
  141.8336   73.6256  218.4888 H   0  0  0  0  0  0  0  0  0  0  0  0
  143.5143   71.9329  219.1470 H   0  0  0  0  0  0  0  0  0  0  0  0
  145.4860   71.7100  221.1870 H   0  0  0  0  0  0  0  0  0  0  0  0
  145.8131   74.9915  221.0352 H   0  0  0  0  0  0  0  0  0  0  0  0
  144.1560   76.6757  220.3916 H   0  0  0  0  0  0  0  0  0  0  0  0
  138.6626   69.2977  222.3748 H   0  0  0  0  0  0  0  0  0  0  0  0
  139.0253   67.8256  224.3484 H   0  0  0  0  0  0  0  0  0  0  0  0
  139.8875   67.5853  226.5876 H   0  0  0  0  0  0  0  0  0  0  0  0
  141.7537   70.9167  228.5564 H   0  0  0  0  0  0  0  0  0  0  0  0
  141.3680   72.3463  226.5643 H   0  0  0  0  0  0  0  0  0  0  0  0
  1  2  2  0
  2  3  1  0
  3  4  1  0
  4  5  1  0
  5  6  2  0
  5  7  1  0
  7  8  1  0
  8  9  1  0
  9 10  1  0
 10 11  1  0
 11 12  1  0
 12 13  1  0
 13 14  1  0
 14 15  2  0
 15 16  1  0
 16 17  2  0
 17 18  1  0
 17 19  1  0
 19 20  2  0
  2 21  1  0
 21 22  2  0
 22 23  1  0
 23 24  2  0
 24 25  1  0
 25 26  2  0
 26 27  1  0
 26 28  1  0
 28 29  2  0
 29 30  1  0
 30 31  2  0
 13  7  1  0
 20 14  1  0
 31 21  1  0
 30 24  1  0
  3 32  1  0
  4 33  1  0
  4 34  1  0
  8 35  1  0
  8 36  1  0
  9 37  1  0
  9 38  1  0
 10 39  1  0
 10 40  1  0
 11 41  1  0
 11 42  1  0
 12 43  1  0
 12 44  1  0
 13 45  1  6
 15 46  1  0
 16 47  1  0
 18 48  1  0
 19 49  1  0
 20 50  1  0
 22 51  1  0
 23 52  1  0
 25 53  1  0
 28 54  1  0
 29 55  1  0
M  END
>  <smiles>  (75) 
O=C(NCC(=O)N1CCCCCC1c1ccc(O)cc1)c1ccc2cc(Cl)ccc2n1

>  <score_type>  (75) 
oracle

>  <origin>  (75) 
autodockgpu

>  <m_score__min__energy>  (75) 
-6.8799999999999999

>  <m_primary>  (75) 
energy

>  <rmsd>  (75) 
1.9300319874033287

>  <m_score__min__rmsd>  (75) 
1.9300319874033287

>  <meeko>  (75) 
{"free_energy": -5.29, "intermolecular_energy": -8.87, "internal_energy": -1.97, "cluster_size": 17, "cluster_id": 1, "rank_in_cluster": 15}

>  <energy>  (75) 
-5.89

>  <cluster_rmsd>  (75) 
0.0

>  <cluster>  (75) 
5

$$$$

     RDKit          3D

 55 58  0  0  0  0  0  0  0  0999 V2000
  137.5480   70.9310  221.5060 O   0  0  0  0  0  0  0  0  0  0  0  0
  138.2280   71.4730  222.4370 C   0  0  0  0  0  0  0  0  0  0  0  0
  138.5350   72.8850  222.3730 N   0  0  0  0  0  0  0  0  0  0  0  0
  138.1130   73.7330  221.3060 C   0  0  0  0  0  0  0  0  0  0  0  0
  139.0810   74.2610  220.3560 C   0  0  0  0  0  0  0  0  0  0  0  0
  138.8070   75.4890  219.9830 O   0  0  0  0  0  0  0  0  0  0  0  0
  140.2270   73.7210  219.7710 N   0  0  0  0  0  0  0  0  0  0  0  0
  140.5590   73.9350  218.3770 C   0  0  0  0  0  0  0  0  0  0  0  0
  139.9820   72.8410  217.4940 C   0  0  0  0  0  0  0  0  0  0  0  0
  139.6590   71.5660  218.1680 C   0  0  0  0  0  0  0  0  0  0  0  0
  140.7830   71.0760  219.0240 C   0  0  0  0  0  0  0  0  0  0  0  0
  140.6100   71.4960  220.4720 C   0  0  0  0  0  0  0  0  0  0  0  0
  141.0840   72.8990  220.6490 C   0  0  1  0  0  0  0  0  0  0  0  0
  142.5160   73.1410  220.4430 C   0  0  0  0  0  0  0  0  0  0  0  0
  143.1380   74.3490  220.3100 C   0  0  0  0  0  0  0  0  0  0  0  0
  144.5140   74.4620  220.0780 C   0  0  0  0  0  0  0  0  0  0  0  0
  145.3090   73.3400  219.9760 C   0  0  0  0  0  0  0  0  0  0  0  0
  146.6770   73.3900  219.7480 O   0  0  0  0  0  0  0  0  0  0  0  0
  144.6810   72.1200  220.1100 C   0  0  0  0  0  0  0  0  0  0  0  0
  143.3290   71.9990  220.3370 C   0  0  0  0  0  0  0  0  0  0  0  0
  138.7060   70.7070  223.5690 C   0  0  0  0  0  0  0  0  0  0  0  0
  138.4300   69.3470  223.6120 C   0  0  0  0  0  0  0  0  0  0  0  0
  138.8530   68.5540  224.6580 C   0  0  0  0  0  0  0  0  0  0  0  0
  139.5680   69.1720  225.6670 C   0  0  0  0  0  0  0  0  0  0  0  0
  140.0180   68.4220  226.7430 C   0  0  0  0  0  0  0  0  0  0  0  0
  140.7300   69.0320  227.7530 C   0  0  0  0  0  0  0  0  0  0  0  0
  141.2760   68.0350  229.0930 Cl  0  0  0  0  0  0  0  0  0  0  0  0
  140.9990   70.3890  227.6990 C   0  0  0  0  0  0  0  0  0  0  0  0
  140.5610   71.1520  226.6380 C   0  0  0  0  0  0  0  0  0  0  0  0
  139.8430   70.5360  225.6210 C   0  0  0  0  0  0  0  0  0  0  0  0
  139.4120   71.2670  224.5860 N   0  0  0  0  0  0  0  0  0  0  0  0
  139.1040   73.2910  223.1730 H   0  0  0  0  0  0  0  0  0  0  0  0
  137.3769   73.1617  220.7214 H   0  0  0  0  0  0  0  0  0  0  0  0
  137.7628   74.6347  221.8298 H   0  0  0  0  0  0  0  0  0  0  0  0
  140.1511   74.9052  218.0571 H   0  0  0  0  0  0  0  0  0  0  0  0
  141.6543   73.9189  218.2761 H   0  0  0  0  0  0  0  0  0  0  0  0
  139.0561   73.2267  217.0423 H   0  0  0  0  0  0  0  0  0  0  0  0
  140.7716   72.5999  216.7671 H   0  0  0  0  0  0  0  0  0  0  0  0
  138.7716   71.7152  218.8007 H   0  0  0  0  0  0  0  0  0  0  0  0
  139.4750   70.8110  217.3895 H   0  0  0  0  0  0  0  0  0  0  0  0
  140.8173   69.9777  218.9730 H   0  0  0  0  0  0  0  0  0  0  0  0
  141.7179   71.5174  218.6482 H   0  0  0  0  0  0  0  0  0  0  0  0
  139.5468   71.4320  220.7467 H   0  0  0  0  0  0  0  0  0  0  0  0
  141.1994   70.8284  221.1176 H   0  0  0  0  0  0  0  0  0  0  0  0
  140.9869   73.1714  221.7103 H   0  0  0  0  0  0  0  0  0  0  0  0
  142.5363   75.2666  220.3879 H   0  0  0  0  0  0  0  0  0  0  0  0
  144.9670   75.4592  219.9757 H   0  0  0  0  0  0  0  0  0  0  0  0
  147.0520   74.2580  219.3810 H   0  0  0  0  0  0  0  0  0  0  0  0
  145.2861   71.2047  220.0322 H   0  0  0  0  0  0  0  0  0  0  0  0
  142.8804   70.9996  220.4364 H   0  0  0  0  0  0  0  0  0  0  0  0
  137.8590   68.8901  222.7903 H   0  0  0  0  0  0  0  0  0  0  0  0
  138.6312   67.4770  224.6882 H   0  0  0  0  0  0  0  0  0  0  0  0
  139.8073   67.3434  226.7902 H   0  0  0  0  0  0  0  0  0  0  0  0
  141.5685   70.8634  228.5118 H   0  0  0  0  0  0  0  0  0  0  0  0
  140.7763   72.2300  226.5974 H   0  0  0  0  0  0  0  0  0  0  0  0
  1  2  2  0
  2  3  1  0
  3  4  1  0
  4  5  1  0
  5  6  2  0
  5  7  1  0
  7  8  1  0
  8  9  1  0
  9 10  1  0
 10 11  1  0
 11 12  1  0
 12 13  1  0
 13 14  1  0
 14 15  2  0
 15 16  1  0
 16 17  2  0
 17 18  1  0
 17 19  1  0
 19 20  2  0
  2 21  1  0
 21 22  2  0
 22 23  1  0
 23 24  2  0
 24 25  1  0
 25 26  2  0
 26 27  1  0
 26 28  1  0
 28 29  2  0
 29 30  1  0
 30 31  2  0
 13  7  1  0
 20 14  1  0
 31 21  1  0
 30 24  1  0
  3 32  1  0
  4 33  1  0
  4 34  1  0
  8 35  1  0
  8 36  1  0
  9 37  1  0
  9 38  1  0
 10 39  1  0
 10 40  1  0
 11 41  1  0
 11 42  1  0
 12 43  1  0
 12 44  1  0
 13 45  1  1
 15 46  1  0
 16 47  1  0
 18 48  1  0
 19 49  1  0
 20 50  1  0
 22 51  1  0
 23 52  1  0
 25 53  1  0
 28 54  1  0
 29 55  1  0
M  END
>  <smiles>  (76) 
O=C(NCC(=O)N1CCCCCC1c1ccc(O)cc1)c1ccc2cc(Cl)ccc2n1

>  <score_type>  (76) 
oracle

>  <origin>  (76) 
autodockgpu

>  <m_score__min__energy>  (76) 
-6.8799999999999999

>  <m_primary>  (76) 
energy

>  <rmsd>  (76) 
2.626887339648221

>  <m_score__min__rmsd>  (76) 
2.626887339648221

>  <meeko>  (76) 
{"free_energy": -5.43, "intermolecular_energy": -9.01, "internal_energy": -2.03, "cluster_size": 1, "cluster_id": 9, "rank_in_cluster": 1}

>  <energy>  (76) 
-5.43

>  <cluster_rmsd>  (76) 
1.27

>  <cluster>  (76) 
5

$$$$

     RDKit          3D

 55 58  0  0  0  0  0  0  0  0999 V2000
  138.3670   76.7890  222.6820 O   0  0  0  0  0  0  0  0  0  0  0  0
  138.9880   77.1860  221.6430 C   0  0  0  0  0  0  0  0  0  0  0  0
  138.4560   78.2820  220.8640 N   0  0  0  0  0  0  0  0  0  0  0  0
  137.2470   78.9660  221.1920 C   0  0  0  0  0  0  0  0  0  0  0  0
  137.0710   79.5600  222.5090 C   0  0  0  0  0  0  0  0  0  0  0  0
  136.8450   78.6640  223.4420 O   0  0  0  0  0  0  0  0  0  0  0  0
  137.0900   80.8770  222.9670 N   0  0  0  0  0  0  0  0  0  0  0  0
  136.1550   81.8770  222.4900 C   0  0  0  0  0  0  0  0  0  0  0  0
  135.8130   82.8820  223.5770 C   0  0  0  0  0  0  0  0  0  0  0  0
  135.4930   82.3170  224.9050 C   0  0  0  0  0  0  0  0  0  0  0  0
  136.7120   82.1200  225.7470 C   0  0  0  0  0  0  0  0  0  0  0  0
  137.5260   80.9240  225.2900 C   0  0  0  0  0  0  0  0  0  0  0  0
  138.1330   81.2100  223.9570 C   0  0  1  0  0  0  0  0  0  0  0  0
  139.4220   80.5700  223.6710 C   0  0  0  0  0  0  0  0  0  0  0  0
  139.9060   79.4130  224.2110 C   0  0  0  0  0  0  0  0  0  0  0  0
  141.1740   78.9100  223.8920 C   0  0  0  0  0  0  0  0  0  0  0  0
  141.9960   79.5740  223.0060 C   0  0  0  0  0  0  0  0  0  0  0  0
  143.2600   79.1250  222.6520 O   0  0  0  0  0  0  0  0  0  0  0  0
  141.5070   80.7430  222.4620 C   0  0  0  0  0  0  0  0  0  0  0  0
  140.2620   81.2440  222.7700 C   0  0  0  0  0  0  0  0  0  0  0  0
  140.2260   76.5660  221.2170 C   0  0  0  0  0  0  0  0  0  0  0  0
  141.1770   77.3550  220.5830 C   0  0  0  0  0  0  0  0  0  0  0  0
  142.3780   76.8350  220.1500 C   0  0  0  0  0  0  0  0  0  0  0  0
  142.5990   75.4890  220.3770 C   0  0  0  0  0  0  0  0  0  0  0  0
  143.7910   74.9130  219.9620 C   0  0  0  0  0  0  0  0  0  0  0  0
  144.0180   73.5720  220.1840 C   0  0  0  0  0  0  0  0  0  0  0  0
  145.5440   72.8930  219.6380 Cl  0  0  0  0  0  0  0  0  0  0  0  0
  143.0610   72.7960  220.8170 C   0  0  0  0  0  0  0  0  0  0  0  0
  141.8700   73.3490  221.2360 C   0  0  0  0  0  0  0  0  0  0  0  0
  141.6430   74.7010  221.0130 C   0  0  0  0  0  0  0  0  0  0  0  0
  140.4910   75.2490  221.4150 N   0  0  0  0  0  0  0  0  0  0  0  0
  139.0100   78.5780  220.0060 H   0  0  0  0  0  0  0  0  0  0  0  0
  137.1369   79.7806  220.4611 H   0  0  0  0  0  0  0  0  0  0  0  0
  136.4957   78.1627  221.1793 H   0  0  0  0  0  0  0  0  0  0  0  0
  136.6045   82.4098  221.6391 H   0  0  0  0  0  0  0  0  0  0  0  0
  135.2286   81.3671  222.1871 H   0  0  0  0  0  0  0  0  0  0  0  0
  136.6750   83.5548  223.6964 H   0  0  0  0  0  0  0  0  0  0  0  0
  134.8940   83.3831  223.2388 H   0  0  0  0  0  0  0  0  0  0  0  0
  134.8103   83.0041  225.4264 H   0  0  0  0  0  0  0  0  0  0  0  0
  135.0297   81.3317  224.7484 H   0  0  0  0  0  0  0  0  0  0  0  0
  137.3382   83.0221  225.6832 H   0  0  0  0  0  0  0  0  0  0  0  0
  136.3866   81.9365  226.7816 H   0  0  0  0  0  0  0  0  0  0  0  0
  138.3241   80.7240  226.0201 H   0  0  0  0  0  0  0  0  0  0  0  0
  136.8697   80.0448  225.2110 H   0  0  0  0  0  0  0  0  0  0  0  0
  138.4247   82.2701  223.9227 H   0  0  0  0  0  0  0  0  0  0  0  0
  139.2779   78.8560  224.9218 H   0  0  0  0  0  0  0  0  0  0  0  0
  141.5184   77.9732  224.3543 H   0  0  0  0  0  0  0  0  0  0  0  0
  143.3070   78.3230  222.0340 H   0  0  0  0  0  0  0  0  0  0  0  0
  142.1379   81.2984  221.7524 H   0  0  0  0  0  0  0  0  0  0  0  0
  139.9221   82.1815  222.3057 H   0  0  0  0  0  0  0  0  0  0  0  0
  140.9664   78.4226  220.4222 H   0  0  0  0  0  0  0  0  0  0  0  0
  143.1275   77.4631  219.6461 H   0  0  0  0  0  0  0  0  0  0  0  0
  144.5529   75.5251  219.4571 H   0  0  0  0  0  0  0  0  0  0  0  0
  143.2537   71.7265  220.9872 H   0  0  0  0  0  0  0  0  0  0  0  0
  141.1121   72.7300  221.7385 H   0  0  0  0  0  0  0  0  0  0  0  0
  1  2  2  0
  2  3  1  0
  3  4  1  0
  4  5  1  0
  5  6  2  0
  5  7  1  0
  7  8  1  0
  8  9  1  0
  9 10  1  0
 10 11  1  0
 11 12  1  0
 12 13  1  0
 13 14  1  0
 14 15  2  0
 15 16  1  0
 16 17  2  0
 17 18  1  0
 17 19  1  0
 19 20  2  0
  2 21  1  0
 21 22  2  0
 22 23  1  0
 23 24  2  0
 24 25  1  0
 25 26  2  0
 26 27  1  0
 26 28  1  0
 28 29  2  0
 29 30  1  0
 30 31  2  0
 13  7  1  0
 20 14  1  0
 31 21  1  0
 30 24  1  0
  3 32  1  0
  4 33  1  0
  4 34  1  0
  8 35  1  0
  8 36  1  0
  9 37  1  0
  9 38  1  0
 10 39  1  0
 10 40  1  0
 11 41  1  0
 11 42  1  0
 12 43  1  0
 12 44  1  0
 13 45  1  1
 15 46  1  0
 16 47  1  0
 18 48  1  0
 19 49  1  0
 20 50  1  0
 22 51  1  0
 23 52  1  0
 25 53  1  0
 28 54  1  0
 29 55  1  0
M  END
>  <smiles>  (77) 
O=C(NCC(=O)N1CCCCCC1c1ccc(O)cc1)c1ccc2cc(Cl)ccc2n1

>  <score_type>  (77) 
oracle

>  <origin>  (77) 
autodockgpu

>  <m_score__min__energy>  (77) 
-6.8799999999999999

>  <m_primary>  (77) 
energy

>  <rmsd>  (77) 
8.052090476675572

>  <m_score__min__rmsd>  (77) 
8.052090476675572

>  <meeko>  (77) 
{"free_energy": -4.74, "intermolecular_energy": -8.32, "internal_energy": -2.2, "cluster_size": 2, "cluster_id": 17, "rank_in_cluster": 1}

>  <energy>  (77) 
-5.32

>  <cluster_rmsd>  (77) 
1.02

>  <cluster>  (77) 
5

$$$$

     RDKit          3D

 55 58  0  0  0  0  0  0  0  0999 V2000
  139.7540   71.8910  220.6970 O   0  0  0  0  0  0  0  0  0  0  0  0
  139.5460   72.3070  221.8830 C   0  0  0  0  0  0  0  0  0  0  0  0
  139.1130   73.6690  222.1010 N   0  0  0  0  0  0  0  0  0  0  0  0
  138.8980   74.6040  221.0440 C   0  0  0  0  0  0  0  0  0  0  0  0
  139.3460   75.9830  221.1770 C   0  0  0  0  0  0  0  0  0  0  0  0
  138.3580   76.8440  221.1100 O   0  0  0  0  0  0  0  0  0  0  0  0
  140.6030   76.5590  221.3560 N   0  0  0  0  0  0  0  0  0  0  0  0
  140.9800   77.2310  222.5830 C   0  0  0  0  0  0  0  0  0  0  0  0
  141.1620   78.7240  222.3670 C   0  0  0  0  0  0  0  0  0  0  0  0
  140.4950   79.2930  221.1770 C   0  0  0  0  0  0  0  0  0  0  0  0
  141.1530   78.8740  219.9020 C   0  0  0  0  0  0  0  0  0  0  0  0
  142.1960   77.7980  220.1230 C   0  0  0  0  0  0  0  0  0  0  0  0
  141.5340   76.4640  220.2130 C   0  0  1  0  0  0  0  0  0  0  0  0
  142.4180   75.2950  220.2870 C   0  0  0  0  0  0  0  0  0  0  0  0
  142.1130   74.0630  220.7890 C   0  0  0  0  0  0  0  0  0  0  0  0
  143.0510   73.0240  220.8450 C   0  0  0  0  0  0  0  0  0  0  0  0
  144.3390   73.2080  220.3870 C   0  0  0  0  0  0  0  0  0  0  0  0
  145.3100   72.2170  220.4160 O   0  0  0  0  0  0  0  0  0  0  0  0
  144.6460   74.4530  219.8800 C   0  0  0  0  0  0  0  0  0  0  0  0
  143.7300   75.4800  219.8220 C   0  0  0  0  0  0  0  0  0  0  0  0
  139.7300   71.4430  223.0310 C   0  0  0  0  0  0  0  0  0  0  0  0
  139.3450   70.1130  222.9260 C   0  0  0  0  0  0  0  0  0  0  0  0
  139.4910   69.2310  223.9770 C   0  0  0  0  0  0  0  0  0  0  0  0
  140.0390   69.7290  225.1440 C   0  0  0  0  0  0  0  0  0  0  0  0
  140.2090   68.8870  226.2320 C   0  0  0  0  0  0  0  0  0  0  0  0
  140.7540   69.3760  227.4000 C   0  0  0  0  0  0  0  0  0  0  0  0
  140.9460   68.2650  228.7480 Cl  0  0  0  0  0  0  0  0  0  0  0  0
  141.1330   70.7050  227.4920 C   0  0  0  0  0  0  0  0  0  0  0  0
  140.9730   71.5580  226.4210 C   0  0  0  0  0  0  0  0  0  0  0  0
  140.4240   71.0640  225.2450 C   0  0  0  0  0  0  0  0  0  0  0  0
  140.2630   71.8830  224.2000 N   0  0  0  0  0  0  0  0  0  0  0  0
  138.9520   73.9690  223.1080 H   0  0  0  0  0  0  0  0  0  0  0  0
  139.3978   74.1943  220.1539 H   0  0  0  0  0  0  0  0  0  0  0  0
  137.8026   74.7004  221.0169 H   0  0  0  0  0  0  0  0  0  0  0  0
  140.1923   77.0719  223.3342 H   0  0  0  0  0  0  0  0  0  0  0  0
  141.9379   76.8125  222.9254 H   0  0  0  0  0  0  0  0  0  0  0  0
  140.7684   79.2427  223.2536 H   0  0  0  0  0  0  0  0  0  0  0  0
  142.2395   78.8703  222.2011 H   0  0  0  0  0  0  0  0  0  0  0  0
  139.4485   78.9545  221.1626 H   0  0  0  0  0  0  0  0  0  0  0  0
  140.5625   80.3888  221.2457 H   0  0  0  0  0  0  0  0  0  0  0  0
  140.3842   78.4868  219.2172 H   0  0  0  0  0  0  0  0  0  0  0  0
  141.6599   79.7537  219.4786 H   0  0  0  0  0  0  0  0  0  0  0  0
  142.9048   77.7980  219.2818 H   0  0  0  0  0  0  0  0  0  0  0  0
  142.7341   78.0006  221.0607 H   0  0  0  0  0  0  0  0  0  0  0  0
  141.0169   76.2628  219.2632 H   0  0  0  0  0  0  0  0  0  0  0  0
  141.0949   73.8795  221.1628 H   0  0  0  0  0  0  0  0  0  0  0  0
  142.7565   72.0486  221.2597 H   0  0  0  0  0  0  0  0  0  0  0  0
  145.4050   71.6910  221.2770 H   0  0  0  0  0  0  0  0  0  0  0  0
  145.6647   74.6335  219.5064 H   0  0  0  0  0  0  0  0  0  0  0  0
  144.0290   76.4541  219.4076 H   0  0  0  0  0  0  0  0  0  0  0  0
  138.9125   69.7533  221.9807 H   0  0  0  0  0  0  0  0  0  0  0  0
  139.1848   68.1781  223.8899 H   0  0  0  0  0  0  0  0  0  0  0  0
  139.9096   67.8307  226.1635 H   0  0  0  0  0  0  0  0  0  0  0  0
  141.5662   71.0838  228.4295 H   0  0  0  0  0  0  0  0  0  0  0  0
  141.2753   72.6129  226.4967 H   0  0  0  0  0  0  0  0  0  0  0  0
  1  2  2  0
  2  3  1  0
  3  4  1  0
  4  5  1  0
  5  6  2  0
  5  7  1  0
  7  8  1  0
  8  9  1  0
  9 10  1  0
 10 11  1  0
 11 12  1  0
 12 13  1  0
 13 14  1  0
 14 15  2  0
 15 16  1  0
 16 17  2  0
 17 18  1  0
 17 19  1  0
 19 20  2  0
  2 21  1  0
 21 22  2  0
 22 23  1  0
 23 24  2  0
 24 25  1  0
 25 26  2  0
 26 27  1  0
 26 28  1  0
 28 29  2  0
 29 30  1  0
 30 31  2  0
 13  7  1  0
 20 14  1  0
 31 21  1  0
 30 24  1  0
  3 32  1  0
  4 33  1  0
  4 34  1  0
  8 35  1  0
  8 36  1  0
  9 37  1  0
  9 38  1  0
 10 39  1  0
 10 40  1  0
 11 41  1  0
 11 42  1  0
 12 43  1  0
 12 44  1  0
 13 45  1  6
 15 46  1  0
 16 47  1  0
 18 48  1  0
 19 49  1  0
 20 50  1  0
 22 51  1  0
 23 52  1  0
 25 53  1  0
 28 54  1  0
 29 55  1  0
M  END
>  <smiles>  (78) 
O=C(NCC(=O)N1CCCCCC1c1ccc(O)cc1)c1ccc2cc(Cl)ccc2n1

>  <score_type>  (78) 
oracle

>  <origin>  (78) 
autodockgpu

>  <m_score__min__energy>  (78) 
-6.8799999999999999

>  <m_primary>  (78) 
energy

>  <rmsd>  (78) 
2.7627342329091933

>  <m_score__min__rmsd>  (78) 
2.7627342329091933

>  <meeko>  (78) 
{"free_energy": -6.22, "intermolecular_energy": -9.8, "internal_energy": -1.86, "cluster_size": 17, "cluster_id": 1, "rank_in_cluster": 5}

>  <energy>  (78) 
-5.79

>  <cluster_rmsd>  (78) 
0.0

>  <cluster>  (78) 
6

$$$$

     RDKit          3D

 55 58  0  0  0  0  0  0  0  0999 V2000
  139.0670   73.3160  220.3210 O   0  0  0  0  0  0  0  0  0  0  0  0
  139.1530   73.4340  221.5870 C   0  0  0  0  0  0  0  0  0  0  0  0
  139.1440   74.7500  222.1860 N   0  0  0  0  0  0  0  0  0  0  0  0
  139.0420   75.9580  221.4320 C   0  0  0  0  0  0  0  0  0  0  0  0
  139.8730   77.1060  221.7620 C   0  0  0  0  0  0  0  0  0  0  0  0
  139.3640   77.8370  222.7270 O   0  0  0  0  0  0  0  0  0  0  0  0
  141.0850   77.5780  221.2580 N   0  0  0  0  0  0  0  0  0  0  0  0
  141.8690   78.5860  221.9430 C   0  0  0  0  0  0  0  0  0  0  0  0
  141.4410   79.9890  221.5430 C   0  0  0  0  0  0  0  0  0  0  0  0
  141.7250   80.3800  220.1460 C   0  0  0  0  0  0  0  0  0  0  0  0
  141.3290   79.3200  219.1690 C   0  0  0  0  0  0  0  0  0  0  0  0
  142.2350   78.1080  219.2620 C   0  0  0  0  0  0  0  0  0  0  0  0
  141.5250   77.0040  219.9710 C   0  0  1  0  0  0  0  0  0  0  0  0
  142.2580   75.7420  220.1250 C   0  0  0  0  0  0  0  0  0  0  0  0
  141.8480   74.6280  220.7980 C   0  0  0  0  0  0  0  0  0  0  0  0
  142.6490   73.4850  220.9130 C   0  0  0  0  0  0  0  0  0  0  0  0
  143.9030   73.4390  220.3400 C   0  0  0  0  0  0  0  0  0  0  0  0
  144.7400   72.3350  220.4200 O   0  0  0  0  0  0  0  0  0  0  0  0
  144.3160   74.5640  219.6600 C   0  0  0  0  0  0  0  0  0  0  0  0
  143.5350   75.6930  219.5420 C   0  0  0  0  0  0  0  0  0  0  0  0
  139.2590   72.2770  222.4500 C   0  0  0  0  0  0  0  0  0  0  0  0
  138.4230   71.1940  222.2100 C   0  0  0  0  0  0  0  0  0  0  0  0
  138.4660   70.0580  222.9900 C   0  0  0  0  0  0  0  0  0  0  0  0
  139.3830   70.0400  224.0260 C   0  0  0  0  0  0  0  0  0  0  0  0
  139.4700   68.9220  224.8410 C   0  0  0  0  0  0  0  0  0  0  0  0
  140.3800   68.8970  225.8750 C   0  0  0  0  0  0  0  0  0  0  0  0
  140.4480   67.4570  226.8790 Cl  0  0  0  0  0  0  0  0  0  0  0  0
  141.2080   69.9840  226.1040 C   0  0  0  0  0  0  0  0  0  0  0  0
  141.1380   71.1040  225.3050 C   0  0  0  0  0  0  0  0  0  0  0  0
  140.2200   71.1270  224.2630 C   0  0  0  0  0  0  0  0  0  0  0  0
  140.1420   72.2100  223.4800 N   0  0  0  0  0  0  0  0  0  0  0  0
  139.2180   74.7980  223.2450 H   0  0  0  0  0  0  0  0  0  0  0  0
  139.2652   75.6972  220.3869 H   0  0  0  0  0  0  0  0  0  0  0  0
  138.0270   76.3113  221.6663 H   0  0  0  0  0  0  0  0  0  0  0  0
  141.7352   78.4669  223.0283 H   0  0  0  0  0  0  0  0  0  0  0  0
  142.9243   78.4531  221.6626 H   0  0  0  0  0  0  0  0  0  0  0  0
  140.3551   80.0671  221.7001 H   0  0  0  0  0  0  0  0  0  0  0  0
  142.0367   80.6702  222.1684 H   0  0  0  0  0  0  0  0  0  0  0  0
  141.1673   81.2997  219.9156 H   0  0  0  0  0  0  0  0  0  0  0  0
  142.8101   80.5347  220.0536 H   0  0  0  0  0  0  0  0  0  0  0  0
  140.2948   79.0095  219.3790 H   0  0  0  0  0  0  0  0  0  0  0  0
  141.4159   79.7373  218.1549 H   0  0  0  0  0  0  0  0  0  0  0  0
  142.5077   77.7765  218.2492 H   0  0  0  0  0  0  0  0  0  0  0  0
  143.1445   78.3745  219.8203 H   0  0  0  0  0  0  0  0  0  0  0  0
  140.6827   76.6696  219.3474 H   0  0  0  0  0  0  0  0  0  0  0  0
  140.8529   74.6278  221.2669 H   0  0  0  0  0  0  0  0  0  0  0  0
  142.2733   72.6124  221.4675 H   0  0  0  0  0  0  0  0  0  0  0  0
  144.8340   71.8930  221.3280 H   0  0  0  0  0  0  0  0  0  0  0  0
  145.3113   74.5607  219.1916 H   0  0  0  0  0  0  0  0  0  0  0  0
  143.9147   76.5632  218.9866 H   0  0  0  0  0  0  0  0  0  0  0  0
  137.7079   71.2440  221.3757 H   0  0  0  0  0  0  0  0  0  0  0  0
  137.8006   69.2036  222.7972 H   0  0  0  0  0  0  0  0  0  0  0  0
  138.8142   68.0571  224.6626 H   0  0  0  0  0  0  0  0  0  0  0  0
  141.9297   69.9523  226.9335 H   0  0  0  0  0  0  0  0  0  0  0  0
  141.7975   71.9649  225.4890 H   0  0  0  0  0  0  0  0  0  0  0  0
  1  2  2  0
  2  3  1  0
  3  4  1  0
  4  5  1  0
  5  6  2  0
  5  7  1  0
  7  8  1  0
  8  9  1  0
  9 10  1  0
 10 11  1  0
 11 12  1  0
 12 13  1  0
 13 14  1  0
 14 15  2  0
 15 16  1  0
 16 17  2  0
 17 18  1  0
 17 19  1  0
 19 20  2  0
  2 21  1  0
 21 22  2  0
 22 23  1  0
 23 24  2  0
 24 25  1  0
 25 26  2  0
 26 27  1  0
 26 28  1  0
 28 29  2  0
 29 30  1  0
 30 31  2  0
 13  7  1  0
 20 14  1  0
 31 21  1  0
 30 24  1  0
  3 32  1  0
  4 33  1  0
  4 34  1  0
  8 35  1  0
  8 36  1  0
  9 37  1  0
  9 38  1  0
 10 39  1  0
 10 40  1  0
 11 41  1  0
 11 42  1  0
 12 43  1  0
 12 44  1  0
 13 45  1  6
 15 46  1  0
 16 47  1  0
 18 48  1  0
 19 49  1  0
 20 50  1  0
 22 51  1  0
 23 52  1  0
 25 53  1  0
 28 54  1  0
 29 55  1  0
M  END
>  <smiles>  (79) 
O=C(NCC(=O)N1CCCCCC1c1ccc(O)cc1)c1ccc2cc(Cl)ccc2n1

>  <score_type>  (79) 
oracle

>  <origin>  (79) 
autodockgpu

>  <m_score__min__energy>  (79) 
-6.8799999999999999

>  <m_primary>  (79) 
energy

>  <rmsd>  (79) 
3.1911481066926597

>  <m_score__min__rmsd>  (79) 
3.1911481066926597

>  <meeko>  (79) 
{"free_energy": -6.08, "intermolecular_energy": -9.66, "internal_energy": -1.75, "cluster_size": 17, "cluster_id": 1, "rank_in_cluster": 7}

>  <energy>  (79) 
-5.71

>  <cluster_rmsd>  (79) 
1.45

>  <cluster>  (79) 
6

$$$$

     RDKit          3D

 55 58  0  0  0  0  0  0  0  0999 V2000
  140.6410   73.7170  220.5380 O   0  0  0  0  0  0  0  0  0  0  0  0
  140.0400   73.7630  221.6610 C   0  0  0  0  0  0  0  0  0  0  0  0
  139.5320   75.0250  222.1510 N   0  0  0  0  0  0  0  0  0  0  0  0
  139.6630   76.2560  221.4400 C   0  0  0  0  0  0  0  0  0  0  0  0
  139.6740   77.5230  222.1550 C   0  0  0  0  0  0  0  0  0  0  0  0
  138.7210   77.6040  223.0550 O   0  0  0  0  0  0  0  0  0  0  0  0
  140.4850   78.6540  222.0700 N   0  0  0  0  0  0  0  0  0  0  0  0
  141.8410   78.6750  222.5820 C   0  0  0  0  0  0  0  0  0  0  0  0
  141.9340   79.4600  223.8800 C   0  0  0  0  0  0  0  0  0  0  0  0
  142.0880   80.9240  223.7440 C   0  0  0  0  0  0  0  0  0  0  0  0
  141.3780   81.4600  222.5430 C   0  0  0  0  0  0  0  0  0  0  0  0
  139.9600   80.9250  222.4700 C   0  0  0  0  0  0  0  0  0  0  0  0
  139.8810   79.8460  221.4420 C   0  0  1  0  0  0  0  0  0  0  0  0
  140.4490   80.1510  220.1240 C   0  0  0  0  0  0  0  0  0  0  0  0
  140.0750   81.1550  219.2780 C   0  0  0  0  0  0  0  0  0  0  0  0
  140.6630   81.3330  218.0200 C   0  0  0  0  0  0  0  0  0  0  0  0
  141.6610   80.4890  217.5790 C   0  0  0  0  0  0  0  0  0  0  0  0
  142.2800   80.6160  216.3440 O   0  0  0  0  0  0  0  0  0  0  0  0
  142.0380   79.4750  218.4340 C   0  0  0  0  0  0  0  0  0  0  0  0
  141.4650   79.2920  219.6730 C   0  0  0  0  0  0  0  0  0  0  0  0
  139.8490   72.5750  222.4660 C   0  0  0  0  0  0  0  0  0  0  0  0
  138.9010   71.6450  222.0580 C   0  0  0  0  0  0  0  0  0  0  0  0
  138.6640   70.4900  222.7730 C   0  0  0  0  0  0  0  0  0  0  0  0
  139.4130   70.2950  223.9190 C   0  0  0  0  0  0  0  0  0  0  0  0
  139.2160   69.1510  224.6770 C   0  0  0  0  0  0  0  0  0  0  0  0
  139.9580   68.9500  225.8210 C   0  0  0  0  0  0  0  0  0  0  0  0
  139.6670   67.4830  226.7440 Cl  0  0  0  0  0  0  0  0  0  0  0  0
  140.8990   69.8850  226.2170 C   0  0  0  0  0  0  0  0  0  0  0  0
  141.1100   71.0290  225.4780 C   0  0  0  0  0  0  0  0  0  0  0  0
  140.3620   71.2300  224.3250 C   0  0  0  0  0  0  0  0  0  0  0  0
  140.5580   72.3370  223.5990 N   0  0  0  0  0  0  0  0  0  0  0  0
  139.0390   75.0130  223.0930 H   0  0  0  0  0  0  0  0  0  0  0  0
  140.6103   76.1996  220.8837 H   0  0  0  0  0  0  0  0  0  0  0  0
  138.7302   76.3072  220.8592 H   0  0  0  0  0  0  0  0  0  0  0  0
  142.1701   77.6414  222.7650 H   0  0  0  0  0  0  0  0  0  0  0  0
  142.4842   79.1644  221.8358 H   0  0  0  0  0  0  0  0  0  0  0  0
  141.0151   79.2704  224.4542 H   0  0  0  0  0  0  0  0  0  0  0  0
  142.8535   79.1102  224.3721 H   0  0  0  0  0  0  0  0  0  0  0  0
  141.6777   81.4078  224.6427 H   0  0  0  0  0  0  0  0  0  0  0  0
  143.1600   81.1400  223.6254 H   0  0  0  0  0  0  0  0  0  0  0  0
  141.3463   82.5579  222.6033 H   0  0  0  0  0  0  0  0  0  0  0  0
  141.9214   81.1408  221.6414 H   0  0  0  0  0  0  0  0  0  0  0  0
  139.6721   80.5176  223.4504 H   0  0  0  0  0  0  0  0  0  0  0  0
  139.2767   81.7416  222.1938 H   0  0  0  0  0  0  0  0  0  0  0  0
  138.8254   79.6924  221.1736 H   0  0  0  0  0  0  0  0  0  0  0  0
  139.2832   81.8491  219.5962 H   0  0  0  0  0  0  0  0  0  0  0  0
  140.3246   82.1570  217.3746 H   0  0  0  0  0  0  0  0  0  0  0  0
  143.2560   80.3470  216.2890 H   0  0  0  0  0  0  0  0  0  0  0  0
  142.8302   78.7827  218.1128 H   0  0  0  0  0  0  0  0  0  0  0  0
  141.8058   78.4662  220.3149 H   0  0  0  0  0  0  0  0  0  0  0  0
  138.3244   71.8350  221.1407 H   0  0  0  0  0  0  0  0  0  0  0  0
  137.9124   69.7562  222.4463 H   0  0  0  0  0  0  0  0  0  0  0  0
  138.4693   68.4055  224.3661 H   0  0  0  0  0  0  0  0  0  0  0  0
  141.4850   69.7129  227.1319 H   0  0  0  0  0  0  0  0  0  0  0  0
  141.8580   71.7703  225.7958 H   0  0  0  0  0  0  0  0  0  0  0  0
  1  2  2  0
  2  3  1  0
  3  4  1  0
  4  5  1  0
  5  6  2  0
  5  7  1  0
  7  8  1  0
  8  9  1  0
  9 10  1  0
 10 11  1  0
 11 12  1  0
 12 13  1  0
 13 14  1  0
 14 15  2  0
 15 16  1  0
 16 17  2  0
 17 18  1  0
 17 19  1  0
 19 20  2  0
  2 21  1  0
 21 22  2  0
 22 23  1  0
 23 24  2  0
 24 25  1  0
 25 26  2  0
 26 27  1  0
 26 28  1  0
 28 29  2  0
 29 30  1  0
 30 31  2  0
 13  7  1  0
 20 14  1  0
 31 21  1  0
 30 24  1  0
  3 32  1  0
  4 33  1  0
  4 34  1  0
  8 35  1  0
  8 36  1  0
  9 37  1  0
  9 38  1  0
 10 39  1  0
 10 40  1  0
 11 41  1  0
 11 42  1  0
 12 43  1  0
 12 44  1  0
 13 45  1  6
 15 46  1  0
 16 47  1  0
 18 48  1  0
 19 49  1  0
 20 50  1  0
 22 51  1  0
 23 52  1  0
 25 53  1  0
 28 54  1  0
 29 55  1  0
M  END
>  <smiles>  (80) 
O=C(NCC(=O)N1CCCCCC1c1ccc(O)cc1)c1ccc2cc(Cl)ccc2n1

>  <score_type>  (80) 
oracle

>  <origin>  (80) 
autodockgpu

>  <m_score__min__energy>  (80) 
-6.8799999999999999

>  <m_primary>  (80) 
energy

>  <rmsd>  (80) 
4.172583320120067

>  <m_score__min__rmsd>  (80) 
4.172583320120067

>  <meeko>  (80) 
{"free_energy": -5.51, "intermolecular_energy": -9.09, "internal_energy": -1.44, "cluster_size": 4, "cluster_id": 2, "rank_in_cluster": 3}

>  <energy>  (80) 
-5.65

>  <cluster_rmsd>  (80) 
0.0

>  <cluster>  (80) 
7

$$$$

     RDKit          3D

 55 58  0  0  0  0  0  0  0  0999 V2000
  138.4710   70.5130  221.2490 O   0  0  0  0  0  0  0  0  0  0  0  0
  138.5900   71.3120  222.2340 C   0  0  0  0  0  0  0  0  0  0  0  0
  138.0860   72.6630  222.1280 N   0  0  0  0  0  0  0  0  0  0  0  0
  137.4460   73.1740  220.9590 C   0  0  0  0  0  0  0  0  0  0  0  0
  136.5850   74.3440  221.0410 C   0  0  0  0  0  0  0  0  0  0  0  0
  136.7400   75.1580  220.0230 O   0  0  0  0  0  0  0  0  0  0  0  0
  135.6440   74.7650  221.9800 N   0  0  0  0  0  0  0  0  0  0  0  0
  134.2340   74.8810  221.6650 C   0  0  0  0  0  0  0  0  0  0  0  0
  133.8300   76.3300  221.4470 C   0  0  0  0  0  0  0  0  0  0  0  0
  134.9070   77.3330  221.5920 C   0  0  0  0  0  0  0  0  0  0  0  0
  135.4100   77.4250  222.9970 C   0  0  0  0  0  0  0  0  0  0  0  0
  136.6090   76.5270  223.2260 C   0  0  0  0  0  0  0  0  0  0  0  0
  136.1630   75.1070  223.3190 C   0  0  1  0  0  0  0  0  0  0  0  0
  135.2260   74.7810  224.4000 C   0  0  0  0  0  0  0  0  0  0  0  0
  134.4730   73.6490  224.5240 C   0  0  0  0  0  0  0  0  0  0  0  0
  133.5770   73.4570  225.5840 C   0  0  0  0  0  0  0  0  0  0  0  0
  133.4190   74.4190  226.5590 C   0  0  0  0  0  0  0  0  0  0  0  0
  132.5480   74.2850  227.6320 O   0  0  0  0  0  0  0  0  0  0  0  0
  134.1800   75.5620  226.4330 C   0  0  0  0  0  0  0  0  0  0  0  0
  135.0620   75.7590  225.3950 C   0  0  0  0  0  0  0  0  0  0  0  0
  139.2210   70.9000  223.4710 C   0  0  0  0  0  0  0  0  0  0  0  0
  140.1330   71.7610  224.0670 C   0  0  0  0  0  0  0  0  0  0  0  0
  140.7720   71.4370  225.2450 C   0  0  0  0  0  0  0  0  0  0  0  0
  140.4660   70.2130  225.8120 C   0  0  0  0  0  0  0  0  0  0  0  0
  141.0800   69.8370  226.9970 C   0  0  0  0  0  0  0  0  0  0  0  0
  140.7800   68.6180  227.5670 C   0  0  0  0  0  0  0  0  0  0  0  0
  141.5860   68.1900  229.0680 Cl  0  0  0  0  0  0  0  0  0  0  0  0
  139.8690   67.7680  226.9620 C   0  0  0  0  0  0  0  0  0  0  0  0
  139.2480   68.1240  225.7840 C   0  0  0  0  0  0  0  0  0  0  0  0
  139.5510   69.3530  225.2110 C   0  0  0  0  0  0  0  0  0  0  0  0
  138.9550   69.7090  224.0670 N   0  0  0  0  0  0  0  0  0  0  0  0
  138.2090   73.2920  222.9760 H   0  0  0  0  0  0  0  0  0  0  0  0
  138.2450   73.4200  220.2441 H   0  0  0  0  0  0  0  0  0  0  0  0
  136.7460   72.3698  220.6883 H   0  0  0  0  0  0  0  0  0  0  0  0
  134.0241   74.3096  220.7488 H   0  0  0  0  0  0  0  0  0  0  0  0
  133.6568   74.4854  222.5137 H   0  0  0  0  0  0  0  0  0  0  0  0
  133.4247   76.4166  220.4281 H   0  0  0  0  0  0  0  0  0  0  0  0
  133.1042   76.5578  222.2416 H   0  0  0  0  0  0  0  0  0  0  0  0
  135.7430   77.0522  220.9345 H   0  0  0  0  0  0  0  0  0  0  0  0
  134.4927   78.3143  221.3175 H   0  0  0  0  0  0  0  0  0  0  0  0
  135.7001   78.4657  223.2038 H   0  0  0  0  0  0  0  0  0  0  0  0
  134.6043   77.0976  223.6705 H   0  0  0  0  0  0  0  0  0  0  0  0
  137.3123   76.6352  222.3872 H   0  0  0  0  0  0  0  0  0  0  0  0
  137.1059   76.8149  224.1642 H   0  0  0  0  0  0  0  0  0  0  0  0
  137.0237   74.4864  223.6088 H   0  0  0  0  0  0  0  0  0  0  0  0
  134.5733   72.8595  223.7647 H   0  0  0  0  0  0  0  0  0  0  0  0
  132.9922   72.5270  225.6390 H   0  0  0  0  0  0  0  0  0  0  0  0
  132.7380   73.5360  228.2880 H   0  0  0  0  0  0  0  0  0  0  0  0
  134.0778   76.3495  227.1942 H   0  0  0  0  0  0  0  0  0  0  0  0
  135.6440   76.6910  225.3440 H   0  0  0  0  0  0  0  0  0  0  0  0
  140.3512   72.7264  223.5870 H   0  0  0  0  0  0  0  0  0  0  0  0
  141.4938   72.1221  225.7136 H   0  0  0  0  0  0  0  0  0  0  0  0
  141.8041   70.5091  227.4807 H   0  0  0  0  0  0  0  0  0  0  0  0
  139.6385   66.7980  227.4268 H   0  0  0  0  0  0  0  0  0  0  0  0
  138.5250   67.4468  225.3058 H   0  0  0  0  0  0  0  0  0  0  0  0
  1  2  2  0
  2  3  1  0
  3  4  1  0
  4  5  1  0
  5  6  2  0
  5  7  1  0
  7  8  1  0
  8  9  1  0
  9 10  1  0
 10 11  1  0
 11 12  1  0
 12 13  1  0
 13 14  1  0
 14 15  2  0
 15 16  1  0
 16 17  2  0
 17 18  1  0
 17 19  1  0
 19 20  2  0
  2 21  1  0
 21 22  2  0
 22 23  1  0
 23 24  2  0
 24 25  1  0
 25 26  2  0
 26 27  1  0
 26 28  1  0
 28 29  2  0
 29 30  1  0
 30 31  2  0
 13  7  1  0
 20 14  1  0
 31 21  1  0
 30 24  1  0
  3 32  1  0
  4 33  1  0
  4 34  1  0
  8 35  1  0
  8 36  1  0
  9 37  1  0
  9 38  1  0
 10 39  1  0
 10 40  1  0
 11 41  1  0
 11 42  1  0
 12 43  1  0
 12 44  1  0
 13 45  1  1
 15 46  1  0
 16 47  1  0
 18 48  1  0
 19 49  1  0
 20 50  1  0
 22 51  1  0
 23 52  1  0
 25 53  1  0
 28 54  1  0
 29 55  1  0
M  END
>  <smiles>  (81) 
O=C(NCC(=O)N1CCCCCC1c1ccc(O)cc1)c1ccc2cc(Cl)ccc2n1

>  <score_type>  (81) 
oracle

>  <origin>  (81) 
autodockgpu

>  <m_score__min__energy>  (81) 
-6.8799999999999999

>  <m_primary>  (81) 
energy

>  <rmsd>  (81) 
4.535383533677191

>  <m_score__min__rmsd>  (81) 
4.535383533677191

>  <meeko>  (81) 
{"free_energy": -5.29, "intermolecular_energy": -8.87, "internal_energy": -1.33, "cluster_size": 1, "cluster_id": 10, "rank_in_cluster": 1}

>  <energy>  (81) 
-4.9

>  <cluster_rmsd>  (81) 
1.54

>  <cluster>  (81) 
7

$$$$

     RDKit          3D

 55 58  0  0  0  0  0  0  0  0999 V2000
  139.3140   74.8190  220.0750 O   0  0  0  0  0  0  0  0  0  0  0  0
  139.9900   74.5430  221.1190 C   0  0  0  0  0  0  0  0  0  0  0  0
  141.0650   75.4180  221.5300 N   0  0  0  0  0  0  0  0  0  0  0  0
  141.4290   76.6030  220.8220 C   0  0  0  0  0  0  0  0  0  0  0  0
  141.0830   77.9140  221.3520 C   0  0  0  0  0  0  0  0  0  0  0  0
  140.8820   78.8040  220.4080 O   0  0  0  0  0  0  0  0  0  0  0  0
  140.9280   78.4030  222.6490 N   0  0  0  0  0  0  0  0  0  0  0  0
  142.0590   78.6880  223.5090 C   0  0  0  0  0  0  0  0  0  0  0  0
  142.5940   80.0910  223.2770 C   0  0  0  0  0  0  0  0  0  0  0  0
  141.5820   81.1640  223.1810 C   0  0  0  0  0  0  0  0  0  0  0  0
  140.4110   80.7650  222.3420 C   0  0  0  0  0  0  0  0  0  0  0  0
  139.3410   80.0780  223.1640 C   0  0  0  0  0  0  0  0  0  0  0  0
  139.5400   78.6000  223.1120 C   0  0  1  0  0  0  0  0  0  0  0  0
  138.5610   77.8310  222.3360 C   0  0  0  0  0  0  0  0  0  0  0  0
  137.9810   78.1900  221.1530 C   0  0  0  0  0  0  0  0  0  0  0  0
  137.0240   77.3910  220.5150 C   0  0  0  0  0  0  0  0  0  0  0  0
  136.6250   76.1910  221.0630 C   0  0  0  0  0  0  0  0  0  0  0  0
  135.6830   75.3570  220.4770 O   0  0  0  0  0  0  0  0  0  0  0  0
  137.2110   75.8280  222.2580 C   0  0  0  0  0  0  0  0  0  0  0  0
  138.1510   76.6080  222.8930 C   0  0  0  0  0  0  0  0  0  0  0  0
  139.7070   73.3670  221.9160 C   0  0  0  0  0  0  0  0  0  0  0  0
  138.5860   72.6100  221.6020 C   0  0  0  0  0  0  0  0  0  0  0  0
  138.2530   71.4780  222.3150 C   0  0  0  0  0  0  0  0  0  0  0  0
  139.0870   71.1250  223.3600 C   0  0  0  0  0  0  0  0  0  0  0  0
  138.8000   69.9950  224.1110 C   0  0  0  0  0  0  0  0  0  0  0  0
  139.6250   69.6380  225.1550 C   0  0  0  0  0  0  0  0  0  0  0  0
  139.2150   68.1970  226.0740 Cl  0  0  0  0  0  0  0  0  0  0  0  0
  140.7400   70.4020  225.4580 C   0  0  0  0  0  0  0  0  0  0  0  0
  141.0430   71.5280  224.7240 C   0  0  0  0  0  0  0  0  0  0  0  0
  140.2100   71.8870  223.6720 C   0  0  0  0  0  0  0  0  0  0  0  0
  140.4940   72.9790  222.9520 N   0  0  0  0  0  0  0  0  0  0  0  0
  141.6000   75.1470  222.4080 H   0  0  0  0  0  0  0  0  0  0  0  0
  142.5238   76.5840  220.7170 H   0  0  0  0  0  0  0  0  0  0  0  0
  140.8257   76.5391  219.9044 H   0  0  0  0  0  0  0  0  0  0  0  0
  141.7427   78.5949  224.5584 H   0  0  0  0  0  0  0  0  0  0  0  0
  142.8594   77.9701  223.2766 H   0  0  0  0  0  0  0  0  0  0  0  0
  143.2666   80.3368  224.1120 H   0  0  0  0  0  0  0  0  0  0  0  0
  143.0875   80.0609  222.2944 H   0  0  0  0  0  0  0  0  0  0  0  0
  141.2260   81.4062  224.1932 H   0  0  0  0  0  0  0  0  0  0  0  0
  142.0574   82.0337  222.7039 H   0  0  0  0  0  0  0  0  0  0  0  0
  139.9813   81.6653  221.8785 H   0  0  0  0  0  0  0  0  0  0  0  0
  140.7627   80.0573  221.5769 H   0  0  0  0  0  0  0  0  0  0  0  0
  139.4059   80.4194  224.2077 H   0  0  0  0  0  0  0  0  0  0  0  0
  138.3507   80.3274  222.7553 H   0  0  0  0  0  0  0  0  0  0  0  0
  139.3666   78.1862  224.1163 H   0  0  0  0  0  0  0  0  0  0  0  0
  138.2760   79.1405  220.6845 H   0  0  0  0  0  0  0  0  0  0  0  0
  136.5848   77.7257  219.5636 H   0  0  0  0  0  0  0  0  0  0  0  0
  136.0330   74.5590  219.9600 H   0  0  0  0  0  0  0  0  0  0  0  0
  136.9149   74.8759  222.7227 H   0  0  0  0  0  0  0  0  0  0  0  0
  138.5853   76.2705  223.8456 H   0  0  0  0  0  0  0  0  0  0  0  0
  137.9471   72.9217  220.7626 H   0  0  0  0  0  0  0  0  0  0  0  0
  137.3633   70.8820  222.0637 H   0  0  0  0  0  0  0  0  0  0  0  0
  137.9158   69.3852  223.8737 H   0  0  0  0  0  0  0  0  0  0  0  0
  141.3909   70.1064  226.2940 H   0  0  0  0  0  0  0  0  0  0  0  0
  141.9294   72.1323  224.9670 H   0  0  0  0  0  0  0  0  0  0  0  0
  1  2  2  0
  2  3  1  0
  3  4  1  0
  4  5  1  0
  5  6  2  0
  5  7  1  0
  7  8  1  0
  8  9  1  0
  9 10  1  0
 10 11  1  0
 11 12  1  0
 12 13  1  0
 13 14  1  0
 14 15  2  0
 15 16  1  0
 16 17  2  0
 17 18  1  0
 17 19  1  0
 19 20  2  0
  2 21  1  0
 21 22  2  0
 22 23  1  0
 23 24  2  0
 24 25  1  0
 25 26  2  0
 26 27  1  0
 26 28  1  0
 28 29  2  0
 29 30  1  0
 30 31  2  0
 13  7  1  0
 20 14  1  0
 31 21  1  0
 30 24  1  0
  3 32  1  0
  4 33  1  0
  4 34  1  0
  8 35  1  0
  8 36  1  0
  9 37  1  0
  9 38  1  0
 10 39  1  0
 10 40  1  0
 11 41  1  0
 11 42  1  0
 12 43  1  0
 12 44  1  0
 13 45  1  1
 15 46  1  0
 16 47  1  0
 18 48  1  0
 19 49  1  0
 20 50  1  0
 22 51  1  0
 23 52  1  0
 25 53  1  0
 28 54  1  0
 29 55  1  0
M  END
>  <smiles>  (82) 
O=C(NCC(=O)N1CCCCCC1c1ccc(O)cc1)c1ccc2cc(Cl)ccc2n1

>  <score_type>  (82) 
oracle

>  <origin>  (82) 
autodockgpu

>  <m_score__min__energy>  (82) 
-6.8799999999999999

>  <m_primary>  (82) 
energy

>  <rmsd>  (82) 
4.820545196943057

>  <m_score__min__rmsd>  (82) 
4.820545196943057

>  <meeko>  (82) 
{"free_energy": -4.85, "intermolecular_energy": -8.43, "internal_energy": -2.35, "cluster_size": 6, "cluster_id": 8, "rank_in_cluster": 4}

>  <energy>  (82) 
-4.29

>  <cluster_rmsd>  (82) 
1.91

>  <cluster>  (82) 
7

$$$$

     RDKit          3D

 55 58  0  0  0  0  0  0  0  0999 V2000
  139.4160   74.7510  220.0440 O   0  0  0  0  0  0  0  0  0  0  0  0
  140.0520   74.5040  221.1190 C   0  0  0  0  0  0  0  0  0  0  0  0
  141.0760   75.4190  221.5740 N   0  0  0  0  0  0  0  0  0  0  0  0
  141.4280   76.6140  220.8770 C   0  0  0  0  0  0  0  0  0  0  0  0
  141.0780   77.9160  221.4230 C   0  0  0  0  0  0  0  0  0  0  0  0
  140.8880   78.8210  220.4900 O   0  0  0  0  0  0  0  0  0  0  0  0
  140.9090   78.3850  222.7250 N   0  0  0  0  0  0  0  0  0  0  0  0
  142.0300   78.6200  223.6150 C   0  0  0  0  0  0  0  0  0  0  0  0
  142.5920   80.0220  223.4430 C   0  0  0  0  0  0  0  0  0  0  0  0
  141.5980   81.1080  223.3090 C   0  0  0  0  0  0  0  0  0  0  0  0
  140.4780   80.7430  222.3890 C   0  0  0  0  0  0  0  0  0  0  0  0
  139.3290   80.0960  223.1330 C   0  0  0  0  0  0  0  0  0  0  0  0
  139.5180   78.6160  223.1620 C   0  0  1  0  0  0  0  0  0  0  0  0
  138.5420   77.8130  222.4190 C   0  0  0  0  0  0  0  0  0  0  0  0
  138.1190   76.5490  222.7140 C   0  0  0  0  0  0  0  0  0  0  0  0
  137.2050   75.8570  221.9090 C   0  0  0  0  0  0  0  0  0  0  0  0
  136.6860   76.4360  220.7700 C   0  0  0  0  0  0  0  0  0  0  0  0
  135.7780   75.8000  219.9350 O   0  0  0  0  0  0  0  0  0  0  0  0
  137.1130   77.7120  220.4720 C   0  0  0  0  0  0  0  0  0  0  0  0
  138.0120   78.3990  221.2570 C   0  0  0  0  0  0  0  0  0  0  0  0
  139.7760   73.3220  221.9080 C   0  0  0  0  0  0  0  0  0  0  0  0
  138.7110   72.5110  221.5340 C   0  0  0  0  0  0  0  0  0  0  0  0
  138.3880   71.3700  222.2370 C   0  0  0  0  0  0  0  0  0  0  0  0
  139.1720   71.0630  223.3340 C   0  0  0  0  0  0  0  0  0  0  0  0
  138.8920   69.9260  224.0770 C   0  0  0  0  0  0  0  0  0  0  0  0
  139.6680   69.6140  225.1720 C   0  0  0  0  0  0  0  0  0  0  0  0
  139.2690   68.1620  226.0780 Cl  0  0  0  0  0  0  0  0  0  0  0  0
  140.7260   70.4300  225.5340 C   0  0  0  0  0  0  0  0  0  0  0  0
  141.0210   71.5650  224.8090 C   0  0  0  0  0  0  0  0  0  0  0  0
  140.2380   71.8770  223.7060 C   0  0  0  0  0  0  0  0  0  0  0  0
  140.5150   72.9760  222.9940 N   0  0  0  0  0  0  0  0  0  0  0  0
  141.5790   75.1700  222.4770 H   0  0  0  0  0  0  0  0  0  0  0  0
  142.5222   76.6029  220.7646 H   0  0  0  0  0  0  0  0  0  0  0  0
  140.8187   76.5565  219.9629 H   0  0  0  0  0  0  0  0  0  0  0  0
  141.6936   78.4946  224.6548 H   0  0  0  0  0  0  0  0  0  0  0  0
  142.8227   77.8975  223.3707 H   0  0  0  0  0  0  0  0  0  0  0  0
  143.2164   80.2441  224.3209 H   0  0  0  0  0  0  0  0  0  0  0  0
  143.1425   80.0055  222.4908 H   0  0  0  0  0  0  0  0  0  0  0  0
  141.1813   81.3304  224.3024 H   0  0  0  0  0  0  0  0  0  0  0  0
  142.1113   81.9827  222.8830 H   0  0  0  0  0  0  0  0  0  0  0  0
  140.1130   81.6544  221.8929 H   0  0  0  0  0  0  0  0  0  0  0  0
  140.8606   80.0196  221.6539 H   0  0  0  0  0  0  0  0  0  0  0  0
  139.2975   80.4808  224.1630 H   0  0  0  0  0  0  0  0  0  0  0  0
  138.3845   80.3325  222.6211 H   0  0  0  0  0  0  0  0  0  0  0  0
  139.3315   78.2581  224.1853 H   0  0  0  0  0  0  0  0  0  0  0  0
  138.5100   76.0561  223.6164 H   0  0  0  0  0  0  0  0  0  0  0  0
  136.8973   74.8387  222.1889 H   0  0  0  0  0  0  0  0  0  0  0  0
  136.0320   75.7160  218.9570 H   0  0  0  0  0  0  0  0  0  0  0  0
  136.7193   78.2022  219.5694 H   0  0  0  0  0  0  0  0  0  0  0  0
  138.3181   79.4163  220.9717 H   0  0  0  0  0  0  0  0  0  0  0  0
  138.1105   72.7867  220.6546 H   0  0  0  0  0  0  0  0  0  0  0  0
  137.5435   70.7316  221.9384 H   0  0  0  0  0  0  0  0  0  0  0  0
  138.0523   69.2747  223.7928 H   0  0  0  0  0  0  0  0  0  0  0  0
  141.3383   70.1699  226.4100 H   0  0  0  0  0  0  0  0  0  0  0  0
  141.8619   72.2119  225.0995 H   0  0  0  0  0  0  0  0  0  0  0  0
  1  2  2  0
  2  3  1  0
  3  4  1  0
  4  5  1  0
  5  6  2  0
  5  7  1  0
  7  8  1  0
  8  9  1  0
  9 10  1  0
 10 11  1  0
 11 12  1  0
 12 13  1  0
 13 14  1  0
 14 15  2  0
 15 16  1  0
 16 17  2  0
 17 18  1  0
 17 19  1  0
 19 20  2  0
  2 21  1  0
 21 22  2  0
 22 23  1  0
 23 24  2  0
 24 25  1  0
 25 26  2  0
 26 27  1  0
 26 28  1  0
 28 29  2  0
 29 30  1  0
 30 31  2  0
 13  7  1  0
 20 14  1  0
 31 21  1  0
 30 24  1  0
  3 32  1  0
  4 33  1  0
  4 34  1  0
  8 35  1  0
  8 36  1  0
  9 37  1  0
  9 38  1  0
 10 39  1  0
 10 40  1  0
 11 41  1  0
 11 42  1  0
 12 43  1  0
 12 44  1  0
 13 45  1  1
 15 46  1  0
 16 47  1  0
 18 48  1  0
 19 49  1  0
 20 50  1  0
 22 51  1  0
 23 52  1  0
 25 53  1  0
 28 54  1  0
 29 55  1  0
M  END
>  <smiles>  (83) 
O=C(NCC(=O)N1CCCCCC1c1ccc(O)cc1)c1ccc2cc(Cl)ccc2n1

>  <score_type>  (83) 
oracle

>  <origin>  (83) 
autodockgpu

>  <m_score__min__energy>  (83) 
-6.8799999999999999

>  <m_primary>  (83) 
energy

>  <rmsd>  (83) 
4.816761836587354

>  <m_score__min__rmsd>  (83) 
4.816761836587354

>  <meeko>  (83) 
{"free_energy": -4.95, "intermolecular_energy": -8.53, "internal_energy": -2.2, "cluster_size": 6, "cluster_id": 8, "rank_in_cluster": 2}

>  <energy>  (83) 
-5.64

>  <cluster_rmsd>  (83) 
0.0

>  <cluster>  (83) 
8

$$$$

     RDKit          3D

 55 58  0  0  0  0  0  0  0  0999 V2000
  134.0450   71.0130  224.6720 O   0  0  0  0  0  0  0  0  0  0  0  0
  134.5190   72.1580  224.9700 C   0  0  0  0  0  0  0  0  0  0  0  0
  135.8560   72.5120  224.5470 N   0  0  0  0  0  0  0  0  0  0  0  0
  136.7010   71.6400  223.7960 C   0  0  0  0  0  0  0  0  0  0  0  0
  136.8400   70.2420  224.1760 C   0  0  0  0  0  0  0  0  0  0  0  0
  136.3260   69.9850  225.3560 O   0  0  0  0  0  0  0  0  0  0  0  0
  137.4080   69.1380  223.5400 N   0  0  0  0  0  0  0  0  0  0  0  0
  136.6260   68.2190  222.7380 C   0  0  0  0  0  0  0  0  0  0  0  0
  136.5360   68.6800  221.2930 C   0  0  0  0  0  0  0  0  0  0  0  0
  137.8210   68.9740  220.6240 C   0  0  0  0  0  0  0  0  0  0  0  0
  138.9860   68.3850  221.3510 C   0  0  0  0  0  0  0  0  0  0  0  0
  139.4960   69.3030  222.4430 C   0  0  0  0  0  0  0  0  0  0  0  0
  138.8570   68.9420  223.7420 C   0  0  1  0  0  0  0  0  0  0  0  0
  139.3680   69.6220  224.9370 C   0  0  0  0  0  0  0  0  0  0  0  0
  139.2240   69.2260  226.2360 C   0  0  0  0  0  0  0  0  0  0  0  0
  139.7240   69.9760  227.3080 C   0  0  0  0  0  0  0  0  0  0  0  0
  140.3930   71.1620  227.0910 C   0  0  0  0  0  0  0  0  0  0  0  0
  140.9100   71.9470  228.1120 O   0  0  0  0  0  0  0  0  0  0  0  0
  140.5380   71.5620  225.7800 C   0  0  0  0  0  0  0  0  0  0  0  0
  140.0490   70.8310  224.7190 C   0  0  0  0  0  0  0  0  0  0  0  0
  133.7500   73.1230  225.7260 C   0  0  0  0  0  0  0  0  0  0  0  0
  132.5650   72.7060  226.3190 C   0  0  0  0  0  0  0  0  0  0  0  0
  131.7790   73.5680  227.0540 C   0  0  0  0  0  0  0  0  0  0  0  0
  132.2230   74.8720  227.1790 C   0  0  0  0  0  0  0  0  0  0  0  0
  131.4720   75.7820  227.9080 C   0  0  0  0  0  0  0  0  0  0  0  0
  131.9080   77.0830  228.0360 C   0  0  0  0  0  0  0  0  0  0  0  0
  130.9180   78.1950  228.9690 Cl  0  0  0  0  0  0  0  0  0  0  0  0
  133.0910   77.4870  227.4390 C   0  0  0  0  0  0  0  0  0  0  0  0
  133.8510   76.5980  226.7110 C   0  0  0  0  0  0  0  0  0  0  0  0
  133.4110   75.2860  226.5830 C   0  0  0  0  0  0  0  0  0  0  0  0
  134.1410   74.4140  225.8780 N   0  0  0  0  0  0  0  0  0  0  0  0
  136.2080   73.4780  224.8190 H   0  0  0  0  0  0  0  0  0  0  0  0
  136.3260   71.6503  222.7620 H   0  0  0  0  0  0  0  0  0  0  0  0
  137.7057   72.0485  223.9795 H   0  0  0  0  0  0  0  0  0  0  0  0
  137.0993   67.2265  222.7679 H   0  0  0  0  0  0  0  0  0  0  0  0
  135.6077   68.1795  223.1521 H   0  0  0  0  0  0  0  0  0  0  0  0
  136.0310   67.8894  220.7186 H   0  0  0  0  0  0  0  0  0  0  0  0
  135.9913   69.6353  221.3205 H   0  0  0  0  0  0  0  0  0  0  0  0
  137.7928   68.5590  219.6057 H   0  0  0  0  0  0  0  0  0  0  0  0
  137.9507   70.0662  220.6090 H   0  0  0  0  0  0  0  0  0  0  0  0
  138.6768   67.4315  221.8041 H   0  0  0  0  0  0  0  0  0  0  0  0
  139.7991   68.2353  220.6254 H   0  0  0  0  0  0  0  0  0  0  0  0
  140.5874   69.1965  222.5302 H   0  0  0  0  0  0  0  0  0  0  0  0
  139.2456   70.3439  222.1905 H   0  0  0  0  0  0  0  0  0  0  0  0
  139.1120   67.8992  223.9819 H   0  0  0  0  0  0  0  0  0  0  0  0
  138.6965   68.2843  226.4480 H   0  0  0  0  0  0  0  0  0  0  0  0
  139.5811   69.6140  228.3369 H   0  0  0  0  0  0  0  0  0  0  0  0
  140.3310   72.7110  228.4430 H   0  0  0  0  0  0  0  0  0  0  0  0
  141.0662   72.5042  225.5719 H   0  0  0  0  0  0  0  0  0  0  0  0
  140.1933   71.1977  223.6920 H   0  0  0  0  0  0  0  0  0  0  0  0
  132.2453   71.6604  226.1990 H   0  0  0  0  0  0  0  0  0  0  0  0
  130.8405   73.2335  227.5203 H   0  0  0  0  0  0  0  0  0  0  0  0
  130.5312   75.4662  228.3826 H   0  0  0  0  0  0  0  0  0  0  0  0
  133.4271   78.5288  227.5474 H   0  0  0  0  0  0  0  0  0  0  0  0
  134.7905   76.9213  226.2389 H   0  0  0  0  0  0  0  0  0  0  0  0
  1  2  2  0
  2  3  1  0
  3  4  1  0
  4  5  1  0
  5  6  2  0
  5  7  1  0
  7  8  1  0
  8  9  1  0
  9 10  1  0
 10 11  1  0
 11 12  1  0
 12 13  1  0
 13 14  1  0
 14 15  2  0
 15 16  1  0
 16 17  2  0
 17 18  1  0
 17 19  1  0
 19 20  2  0
  2 21  1  0
 21 22  2  0
 22 23  1  0
 23 24  2  0
 24 25  1  0
 25 26  2  0
 26 27  1  0
 26 28  1  0
 28 29  2  0
 29 30  1  0
 30 31  2  0
 13  7  1  0
 20 14  1  0
 31 21  1  0
 30 24  1  0
  3 32  1  0
  4 33  1  0
  4 34  1  0
  8 35  1  0
  8 36  1  0
  9 37  1  0
  9 38  1  0
 10 39  1  0
 10 40  1  0
 11 41  1  0
 11 42  1  0
 12 43  1  0
 12 44  1  0
 13 45  1  1
 15 46  1  0
 16 47  1  0
 18 48  1  0
 19 49  1  0
 20 50  1  0
 22 51  1  0
 23 52  1  0
 25 53  1  0
 28 54  1  0
 29 55  1  0
M  END
>  <smiles>  (84) 
O=C(NCC(=O)N1CCCCCC1c1ccc(O)cc1)c1ccc2cc(Cl)ccc2n1

>  <score_type>  (84) 
oracle

>  <origin>  (84) 
autodockgpu

>  <m_score__min__energy>  (84) 
-6.8799999999999999

>  <m_primary>  (84) 
energy

>  <rmsd>  (84) 
8.338124308059196

>  <m_score__min__rmsd>  (84) 
8.338124308059196

>  <meeko>  (84) 
{"free_energy": -4.99, "intermolecular_energy": -8.57, "internal_energy": -1.72, "cluster_size": 1, "cluster_id": 14, "rank_in_cluster": 1}

>  <energy>  (84) 
-4.95

>  <cluster_rmsd>  (84) 
1.56

>  <cluster>  (84) 
8

$$$$

     RDKit          3D

 55 58  0  0  0  0  0  0  0  0999 V2000
  140.4030   72.1010  220.6280 O   0  0  0  0  0  0  0  0  0  0  0  0
  140.0010   72.4940  221.7720 C   0  0  0  0  0  0  0  0  0  0  0  0
  139.4900   73.8380  221.9300 N   0  0  0  0  0  0  0  0  0  0  0  0
  139.4050   74.7780  220.8590 C   0  0  0  0  0  0  0  0  0  0  0  0
  140.2320   75.9760  220.8620 C   0  0  0  0  0  0  0  0  0  0  0  0
  139.8700   76.8370  221.7840 O   0  0  0  0  0  0  0  0  0  0  0  0
  141.3150   76.3830  220.0850 N   0  0  0  0  0  0  0  0  0  0  0  0
  142.0740   77.5820  220.3810 C   0  0  0  0  0  0  0  0  0  0  0  0
  141.9000   78.6320  219.2970 C   0  0  0  0  0  0  0  0  0  0  0  0
  142.8320   78.5450  218.1530 C   0  0  0  0  0  0  0  0  0  0  0  0
  142.8930   77.1680  217.5750 C   0  0  0  0  0  0  0  0  0  0  0  0
  141.5740   76.4320  217.7350 C   0  0  0  0  0  0  0  0  0  0  0  0
  141.6430   75.5330  218.9230 C   0  0  1  0  0  0  0  0  0  0  0  0
  142.8840   74.7710  219.1000 C   0  0  0  0  0  0  0  0  0  0  0  0
  143.5980   74.1220  218.1340 C   0  0  0  0  0  0  0  0  0  0  0  0
  144.7570   73.3900  218.4220 C   0  0  0  0  0  0  0  0  0  0  0  0
  145.2300   73.2950  219.7140 C   0  0  0  0  0  0  0  0  0  0  0  0
  146.3720   72.5850  220.0600 O   0  0  0  0  0  0  0  0  0  0  0  0
  144.5090   73.9510  220.6890 C   0  0  0  0  0  0  0  0  0  0  0  0
  143.3690   74.6720  220.4150 C   0  0  0  0  0  0  0  0  0  0  0  0
  140.0400   71.6240  222.9280 C   0  0  0  0  0  0  0  0  0  0  0  0
  139.5490   70.3310  222.7990 C   0  0  0  0  0  0  0  0  0  0  0  0
  139.5530   69.4450  223.8560 C   0  0  0  0  0  0  0  0  0  0  0  0
  140.0700   69.9000  225.0560 C   0  0  0  0  0  0  0  0  0  0  0  0
  140.0990   69.0510  226.1520 C   0  0  0  0  0  0  0  0  0  0  0  0
  140.6120   69.4970  227.3510 C   0  0  0  0  0  0  0  0  0  0  0  0
  140.6240   68.3810  228.7080 Cl  0  0  0  0  0  0  0  0  0  0  0  0
  141.0970   70.7890  227.4660 C   0  0  0  0  0  0  0  0  0  0  0  0
  141.0770   71.6480  226.3890 C   0  0  0  0  0  0  0  0  0  0  0  0
  140.5610   71.1970  225.1810 C   0  0  0  0  0  0  0  0  0  0  0  0
  140.5360   72.0220  224.1270 N   0  0  0  0  0  0  0  0  0  0  0  0
  139.1670   74.1190  222.9020 H   0  0  0  0  0  0  0  0  0  0  0  0
  139.6483   74.2290  219.9374 H   0  0  0  0  0  0  0  0  0  0  0  0
  138.3861   75.1796  220.9617 H   0  0  0  0  0  0  0  0  0  0  0  0
  141.7281   77.9967  221.3393 H   0  0  0  0  0  0  0  0  0  0  0  0
  143.1392   77.3125  220.4330 H   0  0  0  0  0  0  0  0  0  0  0  0
  140.8763   78.5434  218.9042 H   0  0  0  0  0  0  0  0  0  0  0  0
  142.1153   79.5959  219.7814 H   0  0  0  0  0  0  0  0  0  0  0  0
  142.4981   79.2426  217.3708 H   0  0  0  0  0  0  0  0  0  0  0  0
  143.8375   78.8019  218.5176 H   0  0  0  0  0  0  0  0  0  0  0  0
  143.1325   77.2414  216.5039 H   0  0  0  0  0  0  0  0  0  0  0  0
  143.6679   76.6038  218.1147 H   0  0  0  0  0  0  0  0  0  0  0  0
  140.7625   77.1614  217.8746 H   0  0  0  0  0  0  0  0  0  0  0  0
  141.3791   75.8319  216.8339 H   0  0  0  0  0  0  0  0  0  0  0  0
  140.9237   74.7123  218.7847 H   0  0  0  0  0  0  0  0  0  0  0  0
  143.2505   74.1759  217.0917 H   0  0  0  0  0  0  0  0  0  0  0  0
  145.2966   72.8846  217.6075 H   0  0  0  0  0  0  0  0  0  0  0  0
  146.2890   71.9270  220.8260 H   0  0  0  0  0  0  0  0  0  0  0  0
  144.8597   73.8958  221.7301 H   0  0  0  0  0  0  0  0  0  0  0  0
  142.8327   75.1753  221.2330 H   0  0  0  0  0  0  0  0  0  0  0  0
  139.1465   70.0052  221.8285 H   0  0  0  0  0  0  0  0  0  0  0  0
  139.1625   68.4221  223.7497 H   0  0  0  0  0  0  0  0  0  0  0  0
  139.7136   68.0244  226.0647 H   0  0  0  0  0  0  0  0  0  0  0  0
  141.5030   71.1335  228.4285 H   0  0  0  0  0  0  0  0  0  0  0  0
  141.4631   72.6736  226.4843 H   0  0  0  0  0  0  0  0  0  0  0  0
  1  2  2  0
  2  3  1  0
  3  4  1  0
  4  5  1  0
  5  6  2  0
  5  7  1  0
  7  8  1  0
  8  9  1  0
  9 10  1  0
 10 11  1  0
 11 12  1  0
 12 13  1  0
 13 14  1  0
 14 15  2  0
 15 16  1  0
 16 17  2  0
 17 18  1  0
 17 19  1  0
 19 20  2  0
  2 21  1  0
 21 22  2  0
 22 23  1  0
 23 24  2  0
 24 25  1  0
 25 26  2  0
 26 27  1  0
 26 28  1  0
 28 29  2  0
 29 30  1  0
 30 31  2  0
 13  7  1  0
 20 14  1  0
 31 21  1  0
 30 24  1  0
  3 32  1  0
  4 33  1  0
  4 34  1  0
  8 35  1  0
  8 36  1  0
  9 37  1  0
  9 38  1  0
 10 39  1  0
 10 40  1  0
 11 41  1  0
 11 42  1  0
 12 43  1  0
 12 44  1  0
 13 45  1  6
 15 46  1  0
 16 47  1  0
 18 48  1  0
 19 49  1  0
 20 50  1  0
 22 51  1  0
 23 52  1  0
 25 53  1  0
 28 54  1  0
 29 55  1  0
M  END
>  <smiles>  (85) 
O=C(NCC(=O)N1CCCCCC1c1ccc(O)cc1)c1ccc2cc(Cl)ccc2n1

>  <score_type>  (85) 
oracle

>  <origin>  (85) 
autodockgpu

>  <m_score__min__energy>  (85) 
-6.8799999999999999

>  <m_primary>  (85) 
energy

>  <rmsd>  (85) 
2.260634055322095

>  <m_score__min__rmsd>  (85) 
2.260634055322095

>  <meeko>  (85) 
{"free_energy": -6.47, "intermolecular_energy": -10.05, "internal_energy": -1.76, "cluster_size": 17, "cluster_id": 1, "rank_in_cluster": 4}

>  <energy>  (85) 
-4.89

>  <cluster_rmsd>  (85) 
1.58

>  <cluster>  (85) 
8

$$$$

     RDKit          3D

 55 58  0  0  0  0  0  0  0  0999 V2000
  134.7300   68.5470  225.0300 O   0  0  0  0  0  0  0  0  0  0  0  0
  135.1890   69.7340  225.0930 C   0  0  0  0  0  0  0  0  0  0  0  0
  136.5220   70.0140  224.6090 N   0  0  0  0  0  0  0  0  0  0  0  0
  137.3810   69.0200  224.0490 C   0  0  0  0  0  0  0  0  0  0  0  0
  138.6690   68.7290  224.6600 C   0  0  0  0  0  0  0  0  0  0  0  0
  138.9950   67.4610  224.5740 O   0  0  0  0  0  0  0  0  0  0  0  0
  139.6100   69.5240  225.3140 N   0  0  0  0  0  0  0  0  0  0  0  0
  140.5870   68.9720  226.2310 C   0  0  0  0  0  0  0  0  0  0  0  0
  140.3510   69.4540  227.6520 C   0  0  0  0  0  0  0  0  0  0  0  0
  140.9640   70.7500  228.0090 C   0  0  0  0  0  0  0  0  0  0  0  0
  140.5040   71.8590  227.1190 C   0  0  0  0  0  0  0  0  0  0  0  0
  140.7730   71.5530  225.6600 C   0  0  0  0  0  0  0  0  0  0  0  0
  139.5490   70.9730  225.0360 C   0  0  1  0  0  0  0  0  0  0  0  0
  139.3250   71.2770  223.6180 C   0  0  0  0  0  0  0  0  0  0  0  0
  138.2350   71.8880  223.0680 C   0  0  0  0  0  0  0  0  0  0  0  0
  138.1090   72.0960  221.6890 C   0  0  0  0  0  0  0  0  0  0  0  0
  139.0970   71.6870  220.8180 C   0  0  0  0  0  0  0  0  0  0  0  0
  139.0280   71.8660  219.4440 O   0  0  0  0  0  0  0  0  0  0  0  0
  140.1980   71.0700  221.3740 C   0  0  0  0  0  0  0  0  0  0  0  0
  140.3300   70.8610  222.7290 C   0  0  0  0  0  0  0  0  0  0  0  0
  134.4050   70.8210  225.6410 C   0  0  0  0  0  0  0  0  0  0  0  0
  133.3100   70.5110  226.4370 C   0  0  0  0  0  0  0  0  0  0  0  0
  132.5170   71.4920  226.9930 C   0  0  0  0  0  0  0  0  0  0  0  0
  132.8590   72.8050  226.7250 C   0  0  0  0  0  0  0  0  0  0  0  0
  132.0960   73.8320  227.2580 C   0  0  0  0  0  0  0  0  0  0  0  0
  132.4310   75.1430  226.9950 C   0  0  0  0  0  0  0  0  0  0  0  0
  131.4300   76.4060  227.6960 Cl  0  0  0  0  0  0  0  0  0  0  0  0
  133.5250   75.4390  226.1990 C   0  0  0  0  0  0  0  0  0  0  0  0
  134.2960   74.4320  225.6590 C   0  0  0  0  0  0  0  0  0  0  0  0
  133.9580   73.1120  225.9260 C   0  0  0  0  0  0  0  0  0  0  0  0
  134.6990   72.1260  225.4070 N   0  0  0  0  0  0  0  0  0  0  0  0
  136.8610   71.0190  224.6830 H   0  0  0  0  0  0  0  0  0  0  0  0
  136.8132   68.0779  224.0463 H   0  0  0  0  0  0  0  0  0  0  0  0
  137.6600   69.4528  223.0770 H   0  0  0  0  0  0  0  0  0  0  0  0
  140.5172   67.8744  226.2096 H   0  0  0  0  0  0  0  0  0  0  0  0
  141.5857   69.3070  225.9142 H   0  0  0  0  0  0  0  0  0  0  0  0
  139.2648   69.5438  227.8004 H   0  0  0  0  0  0  0  0  0  0  0  0
  140.8353   68.7094  228.3008 H   0  0  0  0  0  0  0  0  0  0  0  0
  140.6948   70.9947  229.0471 H   0  0  0  0  0  0  0  0  0  0  0  0
  142.0530   70.6517  227.8890 H   0  0  0  0  0  0  0  0  0  0  0  0
  139.4227   72.0040  227.2596 H   0  0  0  0  0  0  0  0  0  0  0  0
  141.0613   72.7686  227.3876 H   0  0  0  0  0  0  0  0  0  0  0  0
  141.0465   72.4806  225.1359 H   0  0  0  0  0  0  0  0  0  0  0  0
  141.5987   70.8301  225.5848 H   0  0  0  0  0  0  0  0  0  0  0  0
  138.6659   71.4524  225.4836 H   0  0  0  0  0  0  0  0  0  0  0  0
  137.4269   72.2291  223.7318 H   0  0  0  0  0  0  0  0  0  0  0  0
  137.2098   72.5923  221.2951 H   0  0  0  0  0  0  0  0  0  0  0  0
  138.6820   72.7600  219.1130 H   0  0  0  0  0  0  0  0  0  0  0  0
  141.0045   70.7306  220.7074 H   0  0  0  0  0  0  0  0  0  0  0  0
  141.2306   70.3638  223.1186 H   0  0  0  0  0  0  0  0  0  0  0  0
  133.0692   69.4550  226.6288 H   0  0  0  0  0  0  0  0  0  0  0  0
  131.6502   71.2415  227.6222 H   0  0  0  0  0  0  0  0  0  0  0  0
  131.2252   73.6015  227.8893 H   0  0  0  0  0  0  0  0  0  0  0  0
  133.7814   76.4892  225.9955 H   0  0  0  0  0  0  0  0  0  0  0  0
  135.1644   74.6701  225.0272 H   0  0  0  0  0  0  0  0  0  0  0  0
  1  2  2  0
  2  3  1  0
  3  4  1  0
  4  5  1  0
  5  6  2  0
  5  7  1  0
  7  8  1  0
  8  9  1  0
  9 10  1  0
 10 11  1  0
 11 12  1  0
 12 13  1  0
 13 14  1  0
 14 15  2  0
 15 16  1  0
 16 17  2  0
 17 18  1  0
 17 19  1  0
 19 20  2  0
  2 21  1  0
 21 22  2  0
 22 23  1  0
 23 24  2  0
 24 25  1  0
 25 26  2  0
 26 27  1  0
 26 28  1  0
 28 29  2  0
 29 30  1  0
 30 31  2  0
 13  7  1  0
 20 14  1  0
 31 21  1  0
 30 24  1  0
  3 32  1  0
  4 33  1  0
  4 34  1  0
  8 35  1  0
  8 36  1  0
  9 37  1  0
  9 38  1  0
 10 39  1  0
 10 40  1  0
 11 41  1  0
 11 42  1  0
 12 43  1  0
 12 44  1  0
 13 45  1  1
 15 46  1  0
 16 47  1  0
 18 48  1  0
 19 49  1  0
 20 50  1  0
 22 51  1  0
 23 52  1  0
 25 53  1  0
 28 54  1  0
 29 55  1  0
M  END
>  <smiles>  (86) 
O=C(NCC(=O)N1CCCCCC1c1ccc(O)cc1)c1ccc2cc(Cl)ccc2n1

>  <score_type>  (86) 
oracle

>  <origin>  (86) 
autodockgpu

>  <m_score__min__energy>  (86) 
-6.8799999999999999

>  <m_primary>  (86) 
energy

>  <rmsd>  (86) 
8.224775300392746

>  <m_score__min__rmsd>  (86) 
8.224775300392746

>  <meeko>  (86) 
{"free_energy": -5.98, "intermolecular_energy": -9.56, "internal_energy": -1.72, "cluster_size": 1, "cluster_id": 4, "rank_in_cluster": 1}

>  <energy>  (86) 
-4.85

>  <cluster_rmsd>  (86) 
1.65

>  <cluster>  (86) 
8

$$$$

     RDKit          3D

 55 58  0  0  0  0  0  0  0  0999 V2000
  138.5040   77.8170  221.9410 O   0  0  0  0  0  0  0  0  0  0  0  0
  139.4210   77.7320  221.0600 C   0  0  0  0  0  0  0  0  0  0  0  0
  139.6110   78.8110  220.1160 N   0  0  0  0  0  0  0  0  0  0  0  0
  138.8160   79.9960  220.1070 C   0  0  0  0  0  0  0  0  0  0  0  0
  138.9300   80.9690  221.1840 C   0  0  0  0  0  0  0  0  0  0  0  0
  137.9660   81.8600  221.1640 O   0  0  0  0  0  0  0  0  0  0  0  0
  139.8530   81.1380  222.2150 N   0  0  0  0  0  0  0  0  0  0  0  0
  139.5600   80.7680  223.5860 C   0  0  0  0  0  0  0  0  0  0  0  0
  139.9990   79.3440  223.8830 C   0  0  0  0  0  0  0  0  0  0  0  0
  141.4580   79.1190  223.9680 C   0  0  0  0  0  0  0  0  0  0  0  0
  142.1940   79.7360  222.8230 C   0  0  0  0  0  0  0  0  0  0  0  0
  142.1250   81.2530  222.8620 C   0  0  0  0  0  0  0  0  0  0  0  0
  141.1500   81.7360  221.8410 C   0  0  1  0  0  0  0  0  0  0  0  0
  141.5030   81.5080  220.4350 C   0  0  0  0  0  0  0  0  0  0  0  0
  142.1050   80.4030  219.9050 C   0  0  0  0  0  0  0  0  0  0  0  0
  142.4320   80.3070  218.5470 C   0  0  0  0  0  0  0  0  0  0  0  0
  142.1530   81.3400  217.6770 C   0  0  0  0  0  0  0  0  0  0  0  0
  142.4520   81.3010  216.3220 O   0  0  0  0  0  0  0  0  0  0  0  0
  141.5450   82.4550  218.2120 C   0  0  0  0  0  0  0  0  0  0  0  0
  141.2200   82.5590  219.5460 C   0  0  0  0  0  0  0  0  0  0  0  0
  140.2880   76.5750  220.9790 C   0  0  0  0  0  0  0  0  0  0  0  0
  139.8780   75.3970  221.5890 C   0  0  0  0  0  0  0  0  0  0  0  0
  140.6500   74.2550  221.5530 C   0  0  0  0  0  0  0  0  0  0  0  0
  141.8560   74.3320  220.8800 C   0  0  0  0  0  0  0  0  0  0  0  0
  142.6730   73.2140  220.8120 C   0  0  0  0  0  0  0  0  0  0  0  0
  143.8760   73.2830  220.1440 C   0  0  0  0  0  0  0  0  0  0  0  0
  144.8720   71.8360  220.0890 Cl  0  0  0  0  0  0  0  0  0  0  0  0
  144.2740   74.4640  219.5400 C   0  0  0  0  0  0  0  0  0  0  0  0
  143.4760   75.5870  219.5960 C   0  0  0  0  0  0  0  0  0  0  0  0
  142.2640   75.5150  220.2700 C   0  0  0  0  0  0  0  0  0  0  0  0
  141.4810   76.5990  220.3310 N   0  0  0  0  0  0  0  0  0  0  0  0
  140.3880   78.6950  219.4010 H   0  0  0  0  0  0  0  0  0  0  0  0
  139.0541   80.5285  219.1744 H   0  0  0  0  0  0  0  0  0  0  0  0
  137.7934   79.6095  220.2292 H   0  0  0  0  0  0  0  0  0  0  0  0
  140.0901   81.4542  224.2628 H   0  0  0  0  0  0  0  0  0  0  0  0
  138.4723   80.8330  223.7367 H   0  0  0  0  0  0  0  0  0  0  0  0
  139.5565   79.0495  224.8461 H   0  0  0  0  0  0  0  0  0  0  0  0
  139.6561   78.7438  223.0273 H   0  0  0  0  0  0  0  0  0  0  0  0
  141.8297   79.5582  224.9055 H   0  0  0  0  0  0  0  0  0  0  0  0
  141.6338   78.0336  223.9358 H   0  0  0  0  0  0  0  0  0  0  0  0
  143.2484   79.4259  222.8686 H   0  0  0  0  0  0  0  0  0  0  0  0
  141.7226   79.3955  221.8893 H   0  0  0  0  0  0  0  0  0  0  0  0
  141.8005   81.5792  223.8612 H   0  0  0  0  0  0  0  0  0  0  0  0
  143.1193   81.6697  222.6435 H   0  0  0  0  0  0  0  0  0  0  0  0
  141.1307   82.8355  221.8665 H   0  0  0  0  0  0  0  0  0  0  0  0
  142.3415   79.5581  220.5685 H   0  0  0  0  0  0  0  0  0  0  0  0
  142.9180   79.3954  218.1690 H   0  0  0  0  0  0  0  0  0  0  0  0
  143.2140   80.6960  216.0360 H   0  0  0  0  0  0  0  0  0  0  0  0
  141.3094   83.2975  217.5452 H   0  0  0  0  0  0  0  0  0  0  0  0
  140.7345   83.4728  219.9192 H   0  0  0  0  0  0  0  0  0  0  0  0
  138.9121   75.3742  222.1148 H   0  0  0  0  0  0  0  0  0  0  0  0
  140.3213   73.3240  222.0380 H   0  0  0  0  0  0  0  0  0  0  0  0
  142.3614   72.2738  221.2904 H   0  0  0  0  0  0  0  0  0  0  0  0
  145.2369   74.5066  219.0100 H   0  0  0  0  0  0  0  0  0  0  0  0
  143.7939   76.5238  219.1151 H   0  0  0  0  0  0  0  0  0  0  0  0
  1  2  2  0
  2  3  1  0
  3  4  1  0
  4  5  1  0
  5  6  2  0
  5  7  1  0
  7  8  1  0
  8  9  1  0
  9 10  1  0
 10 11  1  0
 11 12  1  0
 12 13  1  0
 13 14  1  0
 14 15  2  0
 15 16  1  0
 16 17  2  0
 17 18  1  0
 17 19  1  0
 19 20  2  0
  2 21  1  0
 21 22  2  0
 22 23  1  0
 23 24  2  0
 24 25  1  0
 25 26  2  0
 26 27  1  0
 26 28  1  0
 28 29  2  0
 29 30  1  0
 30 31  2  0
 13  7  1  0
 20 14  1  0
 31 21  1  0
 30 24  1  0
  3 32  1  0
  4 33  1  0
  4 34  1  0
  8 35  1  0
  8 36  1  0
  9 37  1  0
  9 38  1  0
 10 39  1  0
 10 40  1  0
 11 41  1  0
 11 42  1  0
 12 43  1  0
 12 44  1  0
 13 45  1  6
 15 46  1  0
 16 47  1  0
 18 48  1  0
 19 49  1  0
 20 50  1  0
 22 51  1  0
 23 52  1  0
 25 53  1  0
 28 54  1  0
 29 55  1  0
M  END
>  <smiles>  (87) 
O=C(NCC(=O)N1CCCCCC1c1ccc(O)cc1)c1ccc2cc(Cl)ccc2n1

>  <score_type>  (87) 
oracle

>  <origin>  (87) 
autodockgpu

>  <m_score__min__energy>  (87) 
-6.8799999999999999

>  <m_primary>  (87) 
energy

>  <rmsd>  (87) 
7.378053953548609

>  <m_score__min__rmsd>  (87) 
7.378053953548609

>  <meeko>  (87) 
{"free_energy": -4.57, "intermolecular_energy": -8.15, "internal_energy": -2.49, "cluster_size": 1, "cluster_id": 18, "rank_in_cluster": 1}

>  <energy>  (87) 
-4.8

>  <cluster_rmsd>  (87) 
1.79

>  <cluster>  (87) 
8

$$$$

     RDKit          3D

 55 58  0  0  0  0  0  0  0  0999 V2000
  139.1560   74.1640  221.9500 O   0  0  0  0  0  0  0  0  0  0  0  0
  140.3870   74.4530  221.7950 C   0  0  0  0  0  0  0  0  0  0  0  0
  140.8650   75.7700  222.1540 N   0  0  0  0  0  0  0  0  0  0  0  0
  140.0250   76.7940  222.6850 C   0  0  0  0  0  0  0  0  0  0  0  0
  140.1570   78.1680  222.2240 C   0  0  0  0  0  0  0  0  0  0  0  0
  139.0000   78.7210  221.9440 O   0  0  0  0  0  0  0  0  0  0  0  0
  141.2590   78.9990  222.0210 N   0  0  0  0  0  0  0  0  0  0  0  0
  142.1360   79.4000  223.1030 C   0  0  0  0  0  0  0  0  0  0  0  0
  141.9560   80.8690  223.4500 C   0  0  0  0  0  0  0  0  0  0  0  0
  140.8840   81.5810  222.7220 C   0  0  0  0  0  0  0  0  0  0  0  0
  141.2320   81.8180  221.2880 C   0  0  0  0  0  0  0  0  0  0  0  0
  142.1860   80.7760  220.7660 C   0  0  0  0  0  0  0  0  0  0  0  0
  141.4770   79.4690  220.6390 C   0  0  1  0  0  0  0  0  0  0  0  0
  142.1090   78.4590  219.7820 C   0  0  0  0  0  0  0  0  0  0  0  0
  142.5420   77.2180  220.1520 C   0  0  0  0  0  0  0  0  0  0  0  0
  143.1680   76.3440  219.2550 C   0  0  0  0  0  0  0  0  0  0  0  0
  143.3740   76.7080  217.9410 C   0  0  0  0  0  0  0  0  0  0  0  0
  143.9870   75.8850  217.0060 O   0  0  0  0  0  0  0  0  0  0  0  0
  142.9360   77.9610  217.5670 C   0  0  0  0  0  0  0  0  0  0  0  0
  142.3200   78.8270  218.4430 C   0  0  0  0  0  0  0  0  0  0  0  0
  141.3300   73.4900  221.2660 C   0  0  0  0  0  0  0  0  0  0  0  0
  140.8930   72.1910  221.0400 C   0  0  0  0  0  0  0  0  0  0  0  0
  141.7330   71.2200  220.5380 C   0  0  0  0  0  0  0  0  0  0  0  0
  143.0360   71.5950  220.2670 C   0  0  0  0  0  0  0  0  0  0  0  0
  143.9250   70.6590  219.7600 C   0  0  0  0  0  0  0  0  0  0  0  0
  145.2250   71.0250  219.4880 C   0  0  0  0  0  0  0  0  0  0  0  0
  146.3090   69.7990  218.8480 Cl  0  0  0  0  0  0  0  0  0  0  0  0
  145.6490   72.3230  219.7180 C   0  0  0  0  0  0  0  0  0  0  0  0
  144.7820   73.2690  220.2210 C   0  0  0  0  0  0  0  0  0  0  0  0
  143.4710   72.8980  220.4950 C   0  0  0  0  0  0  0  0  0  0  0  0
  142.6200   73.8070  220.9840 N   0  0  0  0  0  0  0  0  0  0  0  0
  141.9000   75.9630  222.0070 H   0  0  0  0  0  0  0  0  0  0  0  0
  138.9881   76.4902  222.4786 H   0  0  0  0  0  0  0  0  0  0  0  0
  140.3409   76.8536  223.7370 H   0  0  0  0  0  0  0  0  0  0  0  0
  141.9088   78.7923  223.9913 H   0  0  0  0  0  0  0  0  0  0  0  0
  143.1761   79.2465  222.7795 H   0  0  0  0  0  0  0  0  0  0  0  0
  141.7342   80.9359  224.5253 H   0  0  0  0  0  0  0  0  0  0  0  0
  142.8937   81.3609  223.1519 H   0  0  0  0  0  0  0  0  0  0  0  0
  139.9649   80.9784  222.7679 H   0  0  0  0  0  0  0  0  0  0  0  0
  140.7463   82.5616  223.2010 H   0  0  0  0  0  0  0  0  0  0  0  0
  140.3103   81.7897  220.6883 H   0  0  0  0  0  0  0  0  0  0  0  0
  141.7221   82.7999  221.2121 H   0  0  0  0  0  0  0  0  0  0  0  0
  142.5630   81.0856  219.7801 H   0  0  0  0  0  0  0  0  0  0  0  0
  143.0288   80.6687  221.4647 H   0  0  0  0  0  0  0  0  0  0  0  0
  140.5348   79.6316  220.0951 H   0  0  0  0  0  0  0  0  0  0  0  0
  142.3937   76.8932  221.1924 H   0  0  0  0  0  0  0  0  0  0  0  0
  143.4997   75.3546  219.6028 H   0  0  0  0  0  0  0  0  0  0  0  0
  144.9600   75.6490  217.1690 H   0  0  0  0  0  0  0  0  0  0  0  0
  143.0849   78.2822  216.5255 H   0  0  0  0  0  0  0  0  0  0  0  0
  141.9904   79.8156  218.0909 H   0  0  0  0  0  0  0  0  0  0  0  0
  139.8489   71.9302  221.2676 H   0  0  0  0  0  0  0  0  0  0  0  0
  141.3823   70.1926  220.3609 H   0  0  0  0  0  0  0  0  0  0  0  0
  143.5929   69.6267  219.5755 H   0  0  0  0  0  0  0  0  0  0  0  0
  146.6897   72.6023  219.4967 H   0  0  0  0  0  0  0  0  0  0  0  0
  145.1217   74.2994  220.4023 H   0  0  0  0  0  0  0  0  0  0  0  0
  1  2  2  0
  2  3  1  0
  3  4  1  0
  4  5  1  0
  5  6  2  0
  5  7  1  0
  7  8  1  0
  8  9  1  0
  9 10  1  0
 10 11  1  0
 11 12  1  0
 12 13  1  0
 13 14  1  0
 14 15  2  0
 15 16  1  0
 16 17  2  0
 17 18  1  0
 17 19  1  0
 19 20  2  0
  2 21  1  0
 21 22  2  0
 22 23  1  0
 23 24  2  0
 24 25  1  0
 25 26  2  0
 26 27  1  0
 26 28  1  0
 28 29  2  0
 29 30  1  0
 30 31  2  0
 13  7  1  0
 20 14  1  0
 31 21  1  0
 30 24  1  0
  3 32  1  0
  4 33  1  0
  4 34  1  0
  8 35  1  0
  8 36  1  0
  9 37  1  0
  9 38  1  0
 10 39  1  0
 10 40  1  0
 11 41  1  0
 11 42  1  0
 12 43  1  0
 12 44  1  0
 13 45  1  6
 15 46  1  0
 16 47  1  0
 18 48  1  0
 19 49  1  0
 20 50  1  0
 22 51  1  0
 23 52  1  0
 25 53  1  0
 28 54  1  0
 29 55  1  0
M  END
>  <smiles>  (88) 
O=C(NCC(=O)N1CCCCCC1c1ccc(O)cc1)c1ccc2cc(Cl)ccc2n1

>  <score_type>  (88) 
oracle

>  <origin>  (88) 
autodockgpu

>  <m_score__min__energy>  (88) 
-6.8799999999999999

>  <m_primary>  (88) 
energy

>  <rmsd>  (88) 
6.195697802638255

>  <m_score__min__rmsd>  (88) 
6.195697802638255

>  <meeko>  (88) 
{"free_energy": -4.86, "intermolecular_energy": -8.44, "internal_energy": -2.23, "cluster_size": 1, "cluster_id": 16, "rank_in_cluster": 1}

>  <energy>  (88) 
-4.72

>  <cluster_rmsd>  (88) 
1.8

>  <cluster>  (88) 
8

$$$$

     RDKit          3D

 55 58  0  0  0  0  0  0  0  0999 V2000
  140.7520   72.7220  220.9780 O   0  0  0  0  0  0  0  0  0  0  0  0
  140.0400   72.8800  222.0230 C   0  0  0  0  0  0  0  0  0  0  0  0
  139.2040   74.0530  222.1520 N   0  0  0  0  0  0  0  0  0  0  0  0
  139.1230   75.0730  221.1570 C   0  0  0  0  0  0  0  0  0  0  0  0
  138.8010   76.4430  221.5300 C   0  0  0  0  0  0  0  0  0  0  0  0
  137.8890   76.5090  222.4720 O   0  0  0  0  0  0  0  0  0  0  0  0
  139.2640   77.6810  221.0860 N   0  0  0  0  0  0  0  0  0  0  0  0
  139.0730   78.1360  219.7230 C   0  0  0  0  0  0  0  0  0  0  0  0
  140.2550   77.7630  218.8420 C   0  0  0  0  0  0  0  0  0  0  0  0
  141.5840   77.8040  219.4880 C   0  0  0  0  0  0  0  0  0  0  0  0
  141.5870   77.1330  220.8230 C   0  0  0  0  0  0  0  0  0  0  0  0
  141.4190   78.1280  221.9520 C   0  0  0  0  0  0  0  0  0  0  0  0
  139.9810   78.5060  222.0790 C   0  0  1  0  0  0  0  0  0  0  0  0
  139.6640   79.9350  221.9750 C   0  0  0  0  0  0  0  0  0  0  0  0
  140.4560   80.9180  221.4560 C   0  0  0  0  0  0  0  0  0  0  0  0
  140.0670   82.2640  221.4410 C   0  0  0  0  0  0  0  0  0  0  0  0
  138.8490   82.6540  221.9560 C   0  0  0  0  0  0  0  0  0  0  0  0
  138.4090   83.9700  221.9690 O   0  0  0  0  0  0  0  0  0  0  0  0
  138.0490   81.6600  222.4800 C   0  0  0  0  0  0  0  0  0  0  0  0
  138.4240   80.3350  222.5000 C   0  0  0  0  0  0  0  0  0  0  0  0
  140.0440   71.9070  223.0950 C   0  0  0  0  0  0  0  0  0  0  0  0
  139.5410   70.6380  222.8380 C   0  0  0  0  0  0  0  0  0  0  0  0
  139.5120   69.6590  223.8080 C   0  0  0  0  0  0  0  0  0  0  0  0
  140.0080   69.9940  225.0550 C   0  0  0  0  0  0  0  0  0  0  0  0
  140.0030   69.0480  226.0690 C   0  0  0  0  0  0  0  0  0  0  0  0
  140.4950   69.3750  227.3140 C   0  0  0  0  0  0  0  0  0  0  0  0
  140.4650   68.1390  228.5630 Cl  0  0  0  0  0  0  0  0  0  0  0  0
  140.9930   70.6440  227.5580 C   0  0  0  0  0  0  0  0  0  0  0  0
  141.0060   71.5990  226.5640 C   0  0  0  0  0  0  0  0  0  0  0  0
  140.5110   71.2670  225.3090 C   0  0  0  0  0  0  0  0  0  0  0  0
  140.5190   72.1860  224.3360 N   0  0  0  0  0  0  0  0  0  0  0  0
  138.6290   74.1400  223.0410 H   0  0  0  0  0  0  0  0  0  0  0  0
  140.1021   75.1041  220.6566 H   0  0  0  0  0  0  0  0  0  0  0  0
  138.2520   74.7674  220.5587 H   0  0  0  0  0  0  0  0  0  0  0  0
  138.1626   77.6724  219.3153 H   0  0  0  0  0  0  0  0  0  0  0  0
  138.9820   79.2322  219.7338 H   0  0  0  0  0  0  0  0  0  0  0  0
  140.0909   76.7392  218.4747 H   0  0  0  0  0  0  0  0  0  0  0  0
  140.2868   78.5260  218.0503 H   0  0  0  0  0  0  0  0  0  0  0  0
  142.3101   77.2969  218.8357 H   0  0  0  0  0  0  0  0  0  0  0  0
  141.8508   78.8600  219.6418 H   0  0  0  0  0  0  0  0  0  0  0  0
  140.7593   76.4094  220.8598 H   0  0  0  0  0  0  0  0  0  0  0  0
  142.5570   76.6304  220.9512 H   0  0  0  0  0  0  0  0  0  0  0  0
  141.7624   77.6743  222.8934 H   0  0  0  0  0  0  0  0  0  0  0  0
  142.0146   79.0274  221.7367 H   0  0  0  0  0  0  0  0  0  0  0  0
  139.6548   78.3046  223.1100 H   0  0  0  0  0  0  0  0  0  0  0  0
  141.4344   80.6438  221.0345 H   0  0  0  0  0  0  0  0  0  0  0  0
  140.7422   83.0194  221.0127 H   0  0  0  0  0  0  0  0  0  0  0  0
  137.7200   84.2320  221.2730 H   0  0  0  0  0  0  0  0  0  0  0  0
  137.0706   81.9372  222.8994 H   0  0  0  0  0  0  0  0  0  0  0  0
  137.7464   79.5832  222.9309 H   0  0  0  0  0  0  0  0  0  0  0  0
  139.1556   70.4082  221.8337 H   0  0  0  0  0  0  0  0  0  0  0  0
  139.1121   68.6557  223.5996 H   0  0  0  0  0  0  0  0  0  0  0  0
  139.6073   68.0392  225.8800 H   0  0  0  0  0  0  0  0  0  0  0  0
  141.3826   70.8927  228.5562 H   0  0  0  0  0  0  0  0  0  0  0  0
  141.4014   72.6064  226.7610 H   0  0  0  0  0  0  0  0  0  0  0  0
  1  2  2  0
  2  3  1  0
  3  4  1  0
  4  5  1  0
  5  6  2  0
  5  7  1  0
  7  8  1  0
  8  9  1  0
  9 10  1  0
 10 11  1  0
 11 12  1  0
 12 13  1  0
 13 14  1  0
 14 15  2  0
 15 16  1  0
 16 17  2  0
 17 18  1  0
 17 19  1  0
 19 20  2  0
  2 21  1  0
 21 22  2  0
 22 23  1  0
 23 24  2  0
 24 25  1  0
 25 26  2  0
 26 27  1  0
 26 28  1  0
 28 29  2  0
 29 30  1  0
 30 31  2  0
 13  7  1  0
 20 14  1  0
 31 21  1  0
 30 24  1  0
  3 32  1  0
  4 33  1  0
  4 34  1  0
  8 35  1  0
  8 36  1  0
  9 37  1  0
  9 38  1  0
 10 39  1  0
 10 40  1  0
 11 41  1  0
 11 42  1  0
 12 43  1  0
 12 44  1  0
 13 45  1  1
 15 46  1  0
 16 47  1  0
 18 48  1  0
 19 49  1  0
 20 50  1  0
 22 51  1  0
 23 52  1  0
 25 53  1  0
 28 54  1  0
 29 55  1  0
M  END
>  <smiles>  (89) 
O=C(NCC(=O)N1CCCCCC1c1ccc(O)cc1)c1ccc2cc(Cl)ccc2n1

>  <score_type>  (89) 
oracle

>  <origin>  (89) 
autodockgpu

>  <m_score__min__energy>  (89) 
-6.8799999999999999

>  <m_primary>  (89) 
energy

>  <rmsd>  (89) 
2.4390794106514666

>  <m_score__min__rmsd>  (89) 
2.4390794106514666

>  <meeko>  (89) 
{"free_energy": -5.35, "intermolecular_energy": -8.93, "internal_energy": -1.55, "cluster_size": 2, "cluster_id": 3, "rank_in_cluster": 2}

>  <energy>  (89) 
-5.43

>  <cluster_rmsd>  (89) 
0.0

>  <cluster>  (89) 
9

$$$$

     RDKit          3D

 55 58  0  0  0  0  0  0  0  0999 V2000
  140.2820   71.3460  221.5140 O   0  0  0  0  0  0  0  0  0  0  0  0
  139.6980   71.7050  222.5890 C   0  0  0  0  0  0  0  0  0  0  0  0
  138.6270   72.6750  222.5340 N   0  0  0  0  0  0  0  0  0  0  0  0
  138.1690   73.2720  221.3210 C   0  0  0  0  0  0  0  0  0  0  0  0
  139.1160   73.8580  220.3840 C   0  0  0  0  0  0  0  0  0  0  0  0
  138.9850   73.3810  219.1680 O   0  0  0  0  0  0  0  0  0  0  0  0
  140.1240   74.8120  220.5250 N   0  0  0  0  0  0  0  0  0  0  0  0
  140.3850   75.4820  221.7830 C   0  0  0  0  0  0  0  0  0  0  0  0
  140.1360   76.9780  221.6780 C   0  0  0  0  0  0  0  0  0  0  0  0
  141.2760   77.7950  221.2120 C   0  0  0  0  0  0  0  0  0  0  0  0
  141.8000   77.3360  219.8900 C   0  0  0  0  0  0  0  0  0  0  0  0
  140.7480   76.5860  219.0920 C   0  0  0  0  0  0  0  0  0  0  0  0
  140.9070   75.1190  219.3120 C   0  0  1  0  0  0  0  0  0  0  0  0
  142.2810   74.6080  219.3700 C   0  0  0  0  0  0  0  0  0  0  0  0
  142.9580   74.1890  220.4790 C   0  0  0  0  0  0  0  0  0  0  0  0
  144.2880   73.7520  220.4240 C   0  0  0  0  0  0  0  0  0  0  0  0
  144.9760   73.7260  219.2300 C   0  0  0  0  0  0  0  0  0  0  0  0
  146.2930   73.3040  219.1140 O   0  0  0  0  0  0  0  0  0  0  0  0
  144.2920   74.1490  218.1100 C   0  0  0  0  0  0  0  0  0  0  0  0
  142.9850   74.5800  218.1540 C   0  0  0  0  0  0  0  0  0  0  0  0
  140.0800   71.1620  223.8750 C   0  0  0  0  0  0  0  0  0  0  0  0
  140.6960   72.0040  224.7920 C   0  0  0  0  0  0  0  0  0  0  0  0
  141.0870   71.5570  226.0370 C   0  0  0  0  0  0  0  0  0  0  0  0
  140.8380   70.2310  226.3370 C   0  0  0  0  0  0  0  0  0  0  0  0
  141.2100   69.7290  227.5750 C   0  0  0  0  0  0  0  0  0  0  0  0
  140.9650   68.4080  227.8810 C   0  0  0  0  0  0  0  0  0  0  0  0
  141.4580   67.8230  229.4630 Cl  0  0  0  0  0  0  0  0  0  0  0  0
  140.3500   67.5780  226.9580 C   0  0  0  0  0  0  0  0  0  0  0  0
  139.9730   68.0580  225.7220 C   0  0  0  0  0  0  0  0  0  0  0  0
  140.2200   69.3900  225.4150 C   0  0  0  0  0  0  0  0  0  0  0  0
  139.8570   69.8670  224.2180 N   0  0  0  0  0  0  0  0  0  0  0  0
  138.1710   72.9420  223.4560 H   0  0  0  0  0  0  0  0  0  0  0  0
  137.6237   72.4907  220.7712 H   0  0  0  0  0  0  0  0  0  0  0  0
  137.5978   74.1434  221.6738 H   0  0  0  0  0  0  0  0  0  0  0  0
  139.7237   75.0627  222.5555 H   0  0  0  0  0  0  0  0  0  0  0  0
  141.4416   75.3250  222.0457 H   0  0  0  0  0  0  0  0  0  0  0  0
  139.3030   77.1318  220.9762 H   0  0  0  0  0  0  0  0  0  0  0  0
  139.9295   77.3163  222.7041 H   0  0  0  0  0  0  0  0  0  0  0  0
  140.9470   78.8405  221.1184 H   0  0  0  0  0  0  0  0  0  0  0  0
  142.0864   77.6931  221.9489 H   0  0  0  0  0  0  0  0  0  0  0  0
  142.1253   78.2138  219.3124 H   0  0  0  0  0  0  0  0  0  0  0  0
  142.6393   76.6498  220.0762 H   0  0  0  0  0  0  0  0  0  0  0  0
  139.7462   76.8994  219.4209 H   0  0  0  0  0  0  0  0  0  0  0  0
  140.8706   76.8111  218.0223 H   0  0  0  0  0  0  0  0  0  0  0  0
  140.5344   74.5877  218.4238 H   0  0  0  0  0  0  0  0  0  0  0  0
  142.4410   74.1947  221.4499 H   0  0  0  0  0  0  0  0  0  0  0  0
  144.7901   73.4251  221.3465 H   0  0  0  0  0  0  0  0  0  0  0  0
  146.9960   74.0210  218.9780 H   0  0  0  0  0  0  0  0  0  0  0  0
  144.8122   74.1419  217.1408 H   0  0  0  0  0  0  0  0  0  0  0  0
  142.4872   74.9055  217.2287 H   0  0  0  0  0  0  0  0  0  0  0  0
  140.8766   73.0540  224.5184 H   0  0  0  0  0  0  0  0  0  0  0  0
  141.5758   72.2268  226.7598 H   0  0  0  0  0  0  0  0  0  0  0  0
  141.6995   70.3838  228.3110 H   0  0  0  0  0  0  0  0  0  0  0  0
  140.1606   66.5251  227.2140 H   0  0  0  0  0  0  0  0  0  0  0  0
  139.4846   67.3971  224.9908 H   0  0  0  0  0  0  0  0  0  0  0  0
  1  2  2  0
  2  3  1  0
  3  4  1  0
  4  5  1  0
  5  6  2  0
  5  7  1  0
  7  8  1  0
  8  9  1  0
  9 10  1  0
 10 11  1  0
 11 12  1  0
 12 13  1  0
 13 14  1  0
 14 15  2  0
 15 16  1  0
 16 17  2  0
 17 18  1  0
 17 19  1  0
 19 20  2  0
  2 21  1  0
 21 22  2  0
 22 23  1  0
 23 24  2  0
 24 25  1  0
 25 26  2  0
 26 27  1  0
 26 28  1  0
 28 29  2  0
 29 30  1  0
 30 31  2  0
 13  7  1  0
 20 14  1  0
 31 21  1  0
 30 24  1  0
  3 32  1  0
  4 33  1  0
  4 34  1  0
  8 35  1  0
  8 36  1  0
  9 37  1  0
  9 38  1  0
 10 39  1  0
 10 40  1  0
 11 41  1  0
 11 42  1  0
 12 43  1  0
 12 44  1  0
 13 45  1  6
 15 46  1  0
 16 47  1  0
 18 48  1  0
 19 49  1  0
 20 50  1  0
 22 51  1  0
 23 52  1  0
 25 53  1  0
 28 54  1  0
 29 55  1  0
M  END
>  <smiles>  (90) 
O=C(NCC(=O)N1CCCCCC1c1ccc(O)cc1)c1ccc2cc(Cl)ccc2n1

>  <score_type>  (90) 
oracle

>  <origin>  (90) 
autodockgpu

>  <m_score__min__energy>  (90) 
-6.8799999999999999

>  <m_primary>  (90) 
energy

>  <rmsd>  (90) 
3.089333868794399

>  <m_score__min__rmsd>  (90) 
3.089333868794399

>  <meeko>  (90) 
{"free_energy": -5.39, "intermolecular_energy": -8.97, "internal_energy": -1.68, "cluster_size": 17, "cluster_id": 1, "rank_in_cluster": 13}

>  <energy>  (90) 
-5.29

>  <cluster_rmsd>  (90) 
0.0

>  <cluster>  (90) 
10

$$$$

     RDKit          3D

 55 58  0  0  0  0  0  0  0  0999 V2000
  139.9930   72.4770  220.0690 O   0  0  0  0  0  0  0  0  0  0  0  0
  140.1020   72.9790  221.2350 C   0  0  0  0  0  0  0  0  0  0  0  0
  140.4370   74.3780  221.3850 N   0  0  0  0  0  0  0  0  0  0  0  0
  140.6590   75.2560  220.2820 C   0  0  0  0  0  0  0  0  0  0  0  0
  139.7600   76.3750  220.0380 C   0  0  0  0  0  0  0  0  0  0  0  0
  140.2590   77.2510  219.1970 O   0  0  0  0  0  0  0  0  0  0  0  0
  138.4910   76.6950  220.5200 N   0  0  0  0  0  0  0  0  0  0  0  0
  137.3070   75.9510  220.1390 C   0  0  0  0  0  0  0  0  0  0  0  0
  137.1000   74.7390  221.0330 C   0  0  0  0  0  0  0  0  0  0  0  0
  136.8850   75.0210  222.4680 C   0  0  0  0  0  0  0  0  0  0  0  0
  137.8410   76.0420  222.9950 C   0  0  0  0  0  0  0  0  0  0  0  0
  137.4840   77.4380  222.5270 C   0  0  0  0  0  0  0  0  0  0  0  0
  138.4110   77.8520  221.4330 C   0  0  1  0  0  0  0  0  0  0  0  0
  139.7280   78.3530  221.8420 C   0  0  0  0  0  0  0  0  0  0  0  0
  140.5360   77.8460  222.8190 C   0  0  0  0  0  0  0  0  0  0  0  0
  141.7640   78.4300  223.1540 C   0  0  0  0  0  0  0  0  0  0  0  0
  142.2140   79.5570  222.4980 C   0  0  0  0  0  0  0  0  0  0  0  0
  143.4210   80.1790  222.7860 O   0  0  0  0  0  0  0  0  0  0  0  0
  141.3980   80.0690  221.5120 C   0  0  0  0  0  0  0  0  0  0  0  0
  140.1880   79.5020  221.1770 C   0  0  0  0  0  0  0  0  0  0  0  0
  139.8960   72.1810  222.4250 C   0  0  0  0  0  0  0  0  0  0  0  0
  138.8900   71.2240  222.4140 C   0  0  0  0  0  0  0  0  0  0  0  0
  138.6360   70.4260  223.5100 C   0  0  0  0  0  0  0  0  0  0  0  0
  139.4290   70.6190  224.6260 C   0  0  0  0  0  0  0  0  0  0  0  0
  139.2180   69.8440  225.7560 C   0  0  0  0  0  0  0  0  0  0  0  0
  140.0050   70.0300  226.8720 C   0  0  0  0  0  0  0  0  0  0  0  0
  139.6930   69.0220  228.2770 Cl  0  0  0  0  0  0  0  0  0  0  0  0
  141.0050   70.9880  226.8700 C   0  0  0  0  0  0  0  0  0  0  0  0
  141.2310   71.7680  225.7570 C   0  0  0  0  0  0  0  0  0  0  0  0
  140.4380   71.5790  224.6330 C   0  0  0  0  0  0  0  0  0  0  0  0
  140.6480   72.3310  223.5460 N   0  0  0  0  0  0  0  0  0  0  0  0
  140.5170   74.7510  222.3770 H   0  0  0  0  0  0  0  0  0  0  0  0
  141.6643   75.6822  220.4153 H   0  0  0  0  0  0  0  0  0  0  0  0
  140.4899   74.6070  219.4101 H   0  0  0  0  0  0  0  0  0  0  0  0
  136.4295   76.6093  220.2202 H   0  0  0  0  0  0  0  0  0  0  0  0
  137.4378   75.5993  219.1050 H   0  0  0  0  0  0  0  0  0  0  0  0
  136.2199   74.1934  220.6618 H   0  0  0  0  0  0  0  0  0  0  0  0
  138.0389   74.1682  220.9805 H   0  0  0  0  0  0  0  0  0  0  0  0
  135.8589   75.3929  222.6055 H   0  0  0  0  0  0  0  0  0  0  0  0
  137.0513   74.0861  223.0233 H   0  0  0  0  0  0  0  0  0  0  0  0
  137.8181   76.0178  224.0945 H   0  0  0  0  0  0  0  0  0  0  0  0
  138.8449   75.7996  222.6163 H   0  0  0  0  0  0  0  0  0  0  0  0
  136.4497   77.4452  222.1527 H   0  0  0  0  0  0  0  0  0  0  0  0
  137.5760   78.1401  223.3688 H   0  0  0  0  0  0  0  0  0  0  0  0
  137.9996   78.7473  220.9439 H   0  0  0  0  0  0  0  0  0  0  0  0
  140.2107   76.9466  223.3624 H   0  0  0  0  0  0  0  0  0  0  0  0
  142.3777   77.9842  223.9506 H   0  0  0  0  0  0  0  0  0  0  0  0
  144.2410   79.8390  222.2970 H   0  0  0  0  0  0  0  0  0  0  0  0
  141.7268   80.9680  220.9700 H   0  0  0  0  0  0  0  0  0  0  0  0
  139.5764   79.9529  220.3816 H   0  0  0  0  0  0  0  0  0  0  0  0
  138.2796   71.0990  221.5075 H   0  0  0  0  0  0  0  0  0  0  0  0
  137.8377   69.6694  223.4967 H   0  0  0  0  0  0  0  0  0  0  0  0
  138.4243   69.0824  225.7618 H   0  0  0  0  0  0  0  0  0  0  0  0
  141.6259   71.1278  227.7672 H   0  0  0  0  0  0  0  0  0  0  0  0
  142.0264   72.5278  225.7588 H   0  0  0  0  0  0  0  0  0  0  0  0
  1  2  2  0
  2  3  1  0
  3  4  1  0
  4  5  1  0
  5  6  2  0
  5  7  1  0
  7  8  1  0
  8  9  1  0
  9 10  1  0
 10 11  1  0
 11 12  1  0
 12 13  1  0
 13 14  1  0
 14 15  2  0
 15 16  1  0
 16 17  2  0
 17 18  1  0
 17 19  1  0
 19 20  2  0
  2 21  1  0
 21 22  2  0
 22 23  1  0
 23 24  2  0
 24 25  1  0
 25 26  2  0
 26 27  1  0
 26 28  1  0
 28 29  2  0
 29 30  1  0
 30 31  2  0
 13  7  1  0
 20 14  1  0
 31 21  1  0
 30 24  1  0
  3 32  1  0
  4 33  1  0
  4 34  1  0
  8 35  1  0
  8 36  1  0
  9 37  1  0
  9 38  1  0
 10 39  1  0
 10 40  1  0
 11 41  1  0
 11 42  1  0
 12 43  1  0
 12 44  1  0
 13 45  1  6
 15 46  1  0
 16 47  1  0
 18 48  1  0
 19 49  1  0
 20 50  1  0
 22 51  1  0
 23 52  1  0
 25 53  1  0
 28 54  1  0
 29 55  1  0
M  END
>  <smiles>  (91) 
O=C(NCC(=O)N1CCCCCC1c1ccc(O)cc1)c1ccc2cc(Cl)ccc2n1

>  <score_type>  (91) 
oracle

>  <origin>  (91) 
autodockgpu

>  <m_score__min__energy>  (91) 
-6.8799999999999999

>  <m_primary>  (91) 
energy

>  <rmsd>  (91) 
3.2922949828339085

>  <m_score__min__rmsd>  (91) 
3.2922949828339085

>  <meeko>  (91) 
{"free_energy": -4.9, "intermolecular_energy": -8.48, "internal_energy": -2.23, "cluster_size": 3, "cluster_id": 7, "rank_in_cluster": 2}

>  <energy>  (91) 
-5.13

>  <cluster_rmsd>  (91) 
0.0

>  <cluster>  (91) 
11

$$$$

     RDKit          3D

 55 58  0  0  0  0  0  0  0  0999 V2000
  138.3560   81.1190  223.8060 O   0  0  0  0  0  0  0  0  0  0  0  0
  137.2890   80.5570  224.2180 C   0  0  0  0  0  0  0  0  0  0  0  0
  136.7460   79.4300  223.4930 N   0  0  0  0  0  0  0  0  0  0  0  0
  137.3430   78.8910  222.3140 C   0  0  0  0  0  0  0  0  0  0  0  0
  138.7190   78.4170  222.3360 C   0  0  0  0  0  0  0  0  0  0  0  0
  138.8090   77.1160  222.1840 O   0  0  0  0  0  0  0  0  0  0  0  0
  139.9440   79.0660  222.4890 N   0  0  0  0  0  0  0  0  0  0  0  0
  140.6550   79.0930  223.7520 C   0  0  0  0  0  0  0  0  0  0  0  0
  142.1570   78.9770  223.5470 C   0  0  0  0  0  0  0  0  0  0  0  0
  142.8800   80.2450  223.3170 C   0  0  0  0  0  0  0  0  0  0  0  0
  142.5640   80.8440  221.9850 C   0  0  0  0  0  0  0  0  0  0  0  0
  141.0740   81.0220  221.7870 C   0  0  0  0  0  0  0  0  0  0  0  0
  140.4770   79.7470  221.2920 C   0  0  1  0  0  0  0  0  0  0  0  0
  141.3440   78.8860  220.4800 C   0  0  0  0  0  0  0  0  0  0  0  0
  141.9900   79.2220  219.3240 C   0  0  0  0  0  0  0  0  0  0  0  0
  142.7670   78.3050  218.6070 C   0  0  0  0  0  0  0  0  0  0  0  0
  142.9160   77.0060  219.0470 C   0  0  0  0  0  0  0  0  0  0  0  0
  143.6730   76.0540  218.3790 O   0  0  0  0  0  0  0  0  0  0  0  0
  142.2640   76.6670  220.2130 C   0  0  0  0  0  0  0  0  0  0  0  0
  141.4970   77.5630  220.9250 C   0  0  0  0  0  0  0  0  0  0  0  0
  136.5990   81.0200  225.4040 C   0  0  0  0  0  0  0  0  0  0  0  0
  137.1730   82.0450  226.1450 C   0  0  0  0  0  0  0  0  0  0  0  0
  136.5750   82.5370  227.2860 C   0  0  0  0  0  0  0  0  0  0  0  0
  135.3730   81.9660  227.6630 C   0  0  0  0  0  0  0  0  0  0  0  0
  134.7270   82.4220  228.8020 C   0  0  0  0  0  0  0  0  0  0  0  0
  133.5300   81.8580  229.1840 C   0  0  0  0  0  0  0  0  0  0  0  0
  132.7540   82.4740  230.6360 Cl  0  0  0  0  0  0  0  0  0  0  0  0
  132.9680   80.8360  228.4370 C   0  0  0  0  0  0  0  0  0  0  0  0
  133.5940   80.3680  227.3010 C   0  0  0  0  0  0  0  0  0  0  0  0
  134.8010   80.9380  226.9170 C   0  0  0  0  0  0  0  0  0  0  0  0
  135.4180   80.4920  225.8170 N   0  0  0  0  0  0  0  0  0  0  0  0
  135.8540   78.9950  223.8760 H   0  0  0  0  0  0  0  0  0  0  0  0
  136.7202   78.0380  222.0065 H   0  0  0  0  0  0  0  0  0  0  0  0
  137.3899   79.7591  221.6400 H   0  0  0  0  0  0  0  0  0  0  0  0
  140.4362   80.0409  224.2654 H   0  0  0  0  0  0  0  0  0  0  0  0
  140.3212   78.2357  224.3550 H   0  0  0  0  0  0  0  0  0  0  0  0
  142.5835   78.5046  224.4442 H   0  0  0  0  0  0  0  0  0  0  0  0
  142.2857   78.3912  222.6249 H   0  0  0  0  0  0  0  0  0  0  0  0
  142.5975   80.9609  224.1029 H   0  0  0  0  0  0  0  0  0  0  0  0
  143.9579   80.0271  223.3410 H   0  0  0  0  0  0  0  0  0  0  0  0
  143.0527   81.8268  221.9118 H   0  0  0  0  0  0  0  0  0  0  0  0
  142.9326   80.1597  221.2067 H   0  0  0  0  0  0  0  0  0  0  0  0
  140.6080   81.2964  222.7449 H   0  0  0  0  0  0  0  0  0  0  0  0
  140.8969   81.8181  221.0488 H   0  0  0  0  0  0  0  0  0  0  0  0
  139.6928   79.9880  220.5592 H   0  0  0  0  0  0  0  0  0  0  0  0
  141.8961   80.2497  218.9433 H   0  0  0  0  0  0  0  0  0  0  0  0
  143.2657   78.6244  217.6800 H   0  0  0  0  0  0  0  0  0  0  0  0
  144.5250   76.3740  217.9320 H   0  0  0  0  0  0  0  0  0  0  0  0
  142.3600   75.6384  220.5908 H   0  0  0  0  0  0  0  0  0  0  0  0
  140.9996   77.2389  221.8511 H   0  0  0  0  0  0  0  0  0  0  0  0
  138.1293   82.4754  225.8131 H   0  0  0  0  0  0  0  0  0  0  0  0
  137.0338   83.3480  227.8707 H   0  0  0  0  0  0  0  0  0  0  0  0
  135.1697   83.2327  229.3994 H   0  0  0  0  0  0  0  0  0  0  0  0
  132.0121   80.3930  228.7533 H   0  0  0  0  0  0  0  0  0  0  0  0
  133.1450   79.5569  226.7089 H   0  0  0  0  0  0  0  0  0  0  0  0
  1  2  2  0
  2  3  1  0
  3  4  1  0
  4  5  1  0
  5  6  2  0
  5  7  1  0
  7  8  1  0
  8  9  1  0
  9 10  1  0
 10 11  1  0
 11 12  1  0
 12 13  1  0
 13 14  1  0
 14 15  2  0
 15 16  1  0
 16 17  2  0
 17 18  1  0
 17 19  1  0
 19 20  2  0
  2 21  1  0
 21 22  2  0
 22 23  1  0
 23 24  2  0
 24 25  1  0
 25 26  2  0
 26 27  1  0
 26 28  1  0
 28 29  2  0
 29 30  1  0
 30 31  2  0
 13  7  1  0
 20 14  1  0
 31 21  1  0
 30 24  1  0
  3 32  1  0
  4 33  1  0
  4 34  1  0
  8 35  1  0
  8 36  1  0
  9 37  1  0
  9 38  1  0
 10 39  1  0
 10 40  1  0
 11 41  1  0
 11 42  1  0
 12 43  1  0
 12 44  1  0
 13 45  1  6
 15 46  1  0
 16 47  1  0
 18 48  1  0
 19 49  1  0
 20 50  1  0
 22 51  1  0
 23 52  1  0
 25 53  1  0
 28 54  1  0
 29 55  1  0
M  END
>  <smiles>  (92) 
O=C(NCC(=O)N1CCCCCC1c1ccc(O)cc1)c1ccc2cc(Cl)ccc2n1

>  <score_type>  (92) 
oracle

>  <origin>  (92) 
autodockgpu

>  <m_score__min__energy>  (92) 
-6.8799999999999999

>  <m_primary>  (92) 
energy

>  <rmsd>  (92) 
9.902993400171045

>  <m_score__min__rmsd>  (92) 
9.902993400171045

>  <meeko>  (92) 
{"free_energy": -5.13, "intermolecular_energy": -8.71, "internal_energy": -1.82, "cluster_size": 1, "cluster_id": 11, "rank_in_cluster": 1}

>  <energy>  (92) 
-5.04

>  <cluster_rmsd>  (92) 
0.0

>  <cluster>  (92) 
12

$$$$

     RDKit          3D

 55 58  0  0  0  0  0  0  0  0999 V2000
  139.7890   72.2770  220.6800 O   0  0  0  0  0  0  0  0  0  0  0  0
  139.4190   72.5980  221.8570 C   0  0  0  0  0  0  0  0  0  0  0  0
  138.7520   73.8610  222.0800 N   0  0  0  0  0  0  0  0  0  0  0  0
  138.4720   74.7980  221.0400 C   0  0  0  0  0  0  0  0  0  0  0  0
  139.1790   76.0690  220.9840 C   0  0  0  0  0  0  0  0  0  0  0  0
  138.4310   77.0430  220.5200 O   0  0  0  0  0  0  0  0  0  0  0  0
  140.4790   76.4480  221.3180 N   0  0  0  0  0  0  0  0  0  0  0  0
  140.8630   76.7830  222.6750 C   0  0  0  0  0  0  0  0  0  0  0  0
  141.4150   78.1960  222.7640 C   0  0  0  0  0  0  0  0  0  0  0  0
  140.7360   79.2120  221.9320 C   0  0  0  0  0  0  0  0  0  0  0  0
  140.7150   78.8390  220.4850 C   0  0  0  0  0  0  0  0  0  0  0  0
  141.8780   77.9350  220.1260 C   0  0  0  0  0  0  0  0  0  0  0  0
  141.4480   76.5090  220.2070 C   0  0  1  0  0  0  0  0  0  0  0  0
  142.5140   75.5060  220.3190 C   0  0  0  0  0  0  0  0  0  0  0  0
  143.8410   75.6800  220.0490 C   0  0  0  0  0  0  0  0  0  0  0  0
  144.7700   74.6370  220.1540 C   0  0  0  0  0  0  0  0  0  0  0  0
  144.3750   73.3740  220.5420 C   0  0  0  0  0  0  0  0  0  0  0  0
  145.2490   72.3040  220.6650 O   0  0  0  0  0  0  0  0  0  0  0  0
  143.0350   73.1990  220.8150 C   0  0  0  0  0  0  0  0  0  0  0  0
  142.1150   74.2180  220.7130 C   0  0  0  0  0  0  0  0  0  0  0  0
  139.6490   71.7230  222.9870 C   0  0  0  0  0  0  0  0  0  0  0  0
  139.2900   70.3860  222.8730 C   0  0  0  0  0  0  0  0  0  0  0  0
  139.4790   69.4930  223.9060 C   0  0  0  0  0  0  0  0  0  0  0  0
  140.0460   69.9860  225.0680 C   0  0  0  0  0  0  0  0  0  0  0  0
  140.2590   69.1330  226.1390 C   0  0  0  0  0  0  0  0  0  0  0  0
  140.8230   69.6170  227.3000 C   0  0  0  0  0  0  0  0  0  0  0  0
  141.0700   68.4920  228.6270 Cl  0  0  0  0  0  0  0  0  0  0  0  0
  141.1760   70.9520  227.4010 C   0  0  0  0  0  0  0  0  0  0  0  0
  140.9730   71.8170  226.3480 C   0  0  0  0  0  0  0  0  0  0  0  0
  140.4050   71.3270  225.1780 C   0  0  0  0  0  0  0  0  0  0  0  0
  140.2020   72.1570  224.1490 N   0  0  0  0  0  0  0  0  0  0  0  0
  138.4620   74.0840  223.0790 H   0  0  0  0  0  0  0  0  0  0  0  0
  138.6725   74.2831  220.0888 H   0  0  0  0  0  0  0  0  0  0  0  0
  137.4351   75.0994  221.2496 H   0  0  0  0  0  0  0  0  0  0  0  0
  139.9805   76.7021  223.3267 H   0  0  0  0  0  0  0  0  0  0  0  0
  141.6501   76.0839  222.9939 H   0  0  0  0  0  0  0  0  0  0  0  0
  141.3448   78.5190  223.8132 H   0  0  0  0  0  0  0  0  0  0  0  0
  142.4434   78.1368  222.3783 H   0  0  0  0  0  0  0  0  0  0  0  0
  139.6996   79.3221  222.2839 H   0  0  0  0  0  0  0  0  0  0  0  0
  141.2955   80.1542  222.0283 H   0  0  0  0  0  0  0  0  0  0  0  0
  139.7736   78.3143  220.2650 H   0  0  0  0  0  0  0  0  0  0  0  0
  140.7986   79.7606  219.8903 H   0  0  0  0  0  0  0  0  0  0  0  0
  142.2129   78.1586  219.1024 H   0  0  0  0  0  0  0  0  0  0  0  0
  142.7051   78.1073  220.8304 H   0  0  0  0  0  0  0  0  0  0  0  0
  141.0031   76.2212  219.2431 H   0  0  0  0  0  0  0  0  0  0  0  0
  144.1931   76.6746  219.7379 H   0  0  0  0  0  0  0  0  0  0  0  0
  145.8286   74.8279  219.9240 H   0  0  0  0  0  0  0  0  0  0  0  0
  145.1780   71.7450  221.5080 H   0  0  0  0  0  0  0  0  0  0  0  0
  142.6864   72.2036  221.1274 H   0  0  0  0  0  0  0  0  0  0  0  0
  141.0572   74.0218  220.9422 H   0  0  0  0  0  0  0  0  0  0  0  0
  138.8428   70.0302  221.9331 H   0  0  0  0  0  0  0  0  0  0  0  0
  139.1918   68.4354  223.8108 H   0  0  0  0  0  0  0  0  0  0  0  0
  139.9787   68.0720  226.0630 H   0  0  0  0  0  0  0  0  0  0  0  0
  141.6239   71.3265  228.3332 H   0  0  0  0  0  0  0  0  0  0  0  0
  141.2555   72.8768  226.4318 H   0  0  0  0  0  0  0  0  0  0  0  0
  1  2  2  0
  2  3  1  0
  3  4  1  0
  4  5  1  0
  5  6  2  0
  5  7  1  0
  7  8  1  0
  8  9  1  0
  9 10  1  0
 10 11  1  0
 11 12  1  0
 12 13  1  0
 13 14  1  0
 14 15  2  0
 15 16  1  0
 16 17  2  0
 17 18  1  0
 17 19  1  0
 19 20  2  0
  2 21  1  0
 21 22  2  0
 22 23  1  0
 23 24  2  0
 24 25  1  0
 25 26  2  0
 26 27  1  0
 26 28  1  0
 28 29  2  0
 29 30  1  0
 30 31  2  0
 13  7  1  0
 20 14  1  0
 31 21  1  0
 30 24  1  0
  3 32  1  0
  4 33  1  0
  4 34  1  0
  8 35  1  0
  8 36  1  0
  9 37  1  0
  9 38  1  0
 10 39  1  0
 10 40  1  0
 11 41  1  0
 11 42  1  0
 12 43  1  0
 12 44  1  0
 13 45  1  6
 15 46  1  0
 16 47  1  0
 18 48  1  0
 19 49  1  0
 20 50  1  0
 22 51  1  0
 23 52  1  0
 25 53  1  0
 28 54  1  0
 29 55  1  0
M  END
>  <smiles>  (93) 
O=C(NCC(=O)N1CCCCCC1c1ccc(O)cc1)c1ccc2cc(Cl)ccc2n1

>  <score_type>  (93) 
oracle

>  <origin>  (93) 
autodockgpu

>  <m_score__min__energy>  (93) 
-6.8799999999999999

>  <m_primary>  (93) 
energy

>  <rmsd>  (93) 
2.8051642968834383

>  <m_score__min__rmsd>  (93) 
2.8051642968834383

>  <meeko>  (93) 
{"free_energy": -6.49, "intermolecular_energy": -10.07, "internal_energy": -1.88, "cluster_size": 17, "cluster_id": 1, "rank_in_cluster": 3}

>  <energy>  (93) 
-4.63

>  <cluster_rmsd>  (93) 
1.04

>  <cluster>  (93) 
12

$$$$

     RDKit          3D

 55 58  0  0  0  0  0  0  0  0999 V2000
  138.4250   72.4410  221.7100 O   0  0  0  0  0  0  0  0  0  0  0  0
  139.5910   72.1630  222.1440 C   0  0  0  0  0  0  0  0  0  0  0  0
  140.7530   72.7100  221.4800 N   0  0  0  0  0  0  0  0  0  0  0  0
  140.6770   73.5640  220.3380 C   0  0  0  0  0  0  0  0  0  0  0  0
  140.8890   74.9970  220.4740 C   0  0  0  0  0  0  0  0  0  0  0  0
  141.1390   75.3560  221.7120 O   0  0  0  0  0  0  0  0  0  0  0  0
  140.8750   76.0500  219.5590 N   0  0  0  0  0  0  0  0  0  0  0  0
  139.6800   76.8230  219.2860 C   0  0  0  0  0  0  0  0  0  0  0  0
  139.5040   77.9500  220.2900 C   0  0  0  0  0  0  0  0  0  0  0  0
  140.6950   78.7900  220.5360 C   0  0  0  0  0  0  0  0  0  0  0  0
  141.9430   77.9800  220.6720 C   0  0  0  0  0  0  0  0  0  0  0  0
  142.5670   77.6840  219.3230 C   0  0  0  0  0  0  0  0  0  0  0  0
  142.1470   76.3280  218.8640 C   0  0  1  0  0  0  0  0  0  0  0  0
  143.1300   75.2500  219.0110 C   0  0  0  0  0  0  0  0  0  0  0  0
  143.2470   74.1290  218.2390 C   0  0  0  0  0  0  0  0  0  0  0  0
  144.2050   73.1400  218.4940 C   0  0  0  0  0  0  0  0  0  0  0  0
  145.0830   73.2610  219.5500 C   0  0  0  0  0  0  0  0  0  0  0  0
  146.0530   72.3150  219.8510 O   0  0  0  0  0  0  0  0  0  0  0  0
  144.9660   74.3920  220.3290 C   0  0  0  0  0  0  0  0  0  0  0  0
  144.0260   75.3700  220.0860 C   0  0  0  0  0  0  0  0  0  0  0  0
  139.7860   71.3090  223.2970 C   0  0  0  0  0  0  0  0  0  0  0  0
  139.3810   69.9830  223.2130 C   0  0  0  0  0  0  0  0  0  0  0  0
  139.5350   69.1100  224.2690 C   0  0  0  0  0  0  0  0  0  0  0  0
  140.1130   69.6120  225.4210 C   0  0  0  0  0  0  0  0  0  0  0  0
  140.2920   68.7780  226.5140 C   0  0  0  0  0  0  0  0  0  0  0  0
  140.8660   69.2710  227.6660 C   0  0  0  0  0  0  0  0  0  0  0  0
  141.0690   68.1720  229.0210 Cl  0  0  0  0  0  0  0  0  0  0  0  0
  141.2640   70.5960  227.7370 C   0  0  0  0  0  0  0  0  0  0  0  0
  141.0950   71.4410  226.6610 C   0  0  0  0  0  0  0  0  0  0  0  0
  140.5170   70.9420  225.5010 C   0  0  0  0  0  0  0  0  0  0  0  0
  140.3470   71.7530  224.4500 N   0  0  0  0  0  0  0  0  0  0  0  0
  141.7030   72.4500  221.8780 H   0  0  0  0  0  0  0  0  0  0  0  0
  141.4285   73.2005  219.6217 H   0  0  0  0  0  0  0  0  0  0  0  0
  139.6182   73.4963  220.0476 H   0  0  0  0  0  0  0  0  0  0  0  0
  139.7551   77.2525  218.2761 H   0  0  0  0  0  0  0  0  0  0  0  0
  138.8108   76.1533  219.3632 H   0  0  0  0  0  0  0  0  0  0  0  0
  138.7000   78.6050  219.9232 H   0  0  0  0  0  0  0  0  0  0  0  0
  139.2828   77.4604  221.2499 H   0  0  0  0  0  0  0  0  0  0  0  0
  140.8160   79.4872  219.6938 H   0  0  0  0  0  0  0  0  0  0  0  0
  140.5379   79.3268  221.4832 H   0  0  0  0  0  0  0  0  0  0  0  0
  142.6659   78.5386  221.2846 H   0  0  0  0  0  0  0  0  0  0  0  0
  141.6814   77.0230  221.1470 H   0  0  0  0  0  0  0  0  0  0  0  0
  142.2349   78.4368  218.5929 H   0  0  0  0  0  0  0  0  0  0  0  0
  143.6629   77.7162  219.4125 H   0  0  0  0  0  0  0  0  0  0  0  0
  142.0349   76.3462  217.7699 H   0  0  0  0  0  0  0  0  0  0  0  0
  142.5642   73.9986  217.3865 H   0  0  0  0  0  0  0  0  0  0  0  0
  144.2577   72.2548  217.8431 H   0  0  0  0  0  0  0  0  0  0  0  0
  146.0190   71.8990  220.7750 H   0  0  0  0  0  0  0  0  0  0  0  0
  145.6514   74.5193  221.1799 H   0  0  0  0  0  0  0  0  0  0  0  0
  143.9769   76.2530  220.7401 H   0  0  0  0  0  0  0  0  0  0  0  0
  138.9256   69.6200  222.2798 H   0  0  0  0  0  0  0  0  0  0  0  0
  139.2125   68.0607  224.1985 H   0  0  0  0  0  0  0  0  0  0  0  0
  139.9767   67.7254  226.4619 H   0  0  0  0  0  0  0  0  0  0  0  0
  141.7200   70.9781  228.6623 H   0  0  0  0  0  0  0  0  0  0  0  0
  141.4125   72.4925  226.7202 H   0  0  0  0  0  0  0  0  0  0  0  0
  1  2  2  0
  2  3  1  0
  3  4  1  0
  4  5  1  0
  5  6  2  0
  5  7  1  0
  7  8  1  0
  8  9  1  0
  9 10  1  0
 10 11  1  0
 11 12  1  0
 12 13  1  0
 13 14  1  0
 14 15  2  0
 15 16  1  0
 16 17  2  0
 17 18  1  0
 17 19  1  0
 19 20  2  0
  2 21  1  0
 21 22  2  0
 22 23  1  0
 23 24  2  0
 24 25  1  0
 25 26  2  0
 26 27  1  0
 26 28  1  0
 28 29  2  0
 29 30  1  0
 30 31  2  0
 13  7  1  0
 20 14  1  0
 31 21  1  0
 30 24  1  0
  3 32  1  0
  4 33  1  0
  4 34  1  0
  8 35  1  0
  8 36  1  0
  9 37  1  0
  9 38  1  0
 10 39  1  0
 10 40  1  0
 11 41  1  0
 11 42  1  0
 12 43  1  0
 12 44  1  0
 13 45  1  6
 15 46  1  0
 16 47  1  0
 18 48  1  0
 19 49  1  0
 20 50  1  0
 22 51  1  0
 23 52  1  0
 25 53  1  0
 28 54  1  0
 29 55  1  0
M  END
>  <smiles>  (94) 
O=C(NCC(=O)N1CCCCCC1c1ccc(O)cc1)c1ccc2cc(Cl)ccc2n1

>  <score_type>  (94) 
oracle

>  <origin>  (94) 
autodockgpu

>  <m_score__min__energy>  (94) 
-6.8799999999999999

>  <m_primary>  (94) 
energy

>  <rmsd>  (94) 
2.12842293600637

>  <m_score__min__rmsd>  (94) 
2.12842293600637

>  <meeko>  (94) 
{"free_energy": -5.59, "intermolecular_energy": -9.17, "internal_energy": -1.5, "cluster_size": 17, "cluster_id": 1, "rank_in_cluster": 12}

>  <energy>  (94) 
-4.99

>  <cluster_rmsd>  (94) 
0.0

>  <cluster>  (94) 
13

$$$$

     RDKit          3D

 55 58  0  0  0  0  0  0  0  0999 V2000
  139.9670   72.5030  220.4910 O   0  0  0  0  0  0  0  0  0  0  0  0
  139.4220   72.7250  221.6220 C   0  0  0  0  0  0  0  0  0  0  0  0
  138.5720   73.8820  221.7930 N   0  0  0  0  0  0  0  0  0  0  0  0
  138.2950   74.8160  220.7500 C   0  0  0  0  0  0  0  0  0  0  0  0
  139.2180   75.9060  220.4720 C   0  0  0  0  0  0  0  0  0  0  0  0
  139.8680   75.7430  219.3430 O   0  0  0  0  0  0  0  0  0  0  0  0
  139.5450   77.0720  221.1630 N   0  0  0  0  0  0  0  0  0  0  0  0
  138.5440   78.0410  221.5650 C   0  0  0  0  0  0  0  0  0  0  0  0
  138.6180   78.3300  223.0550 C   0  0  0  0  0  0  0  0  0  0  0  0
  139.6030   79.3510  223.4710 C   0  0  0  0  0  0  0  0  0  0  0  0
  141.0110   78.8700  223.3280 C   0  0  0  0  0  0  0  0  0  0  0  0
  141.0730   77.4090  222.9360 C   0  0  0  0  0  0  0  0  0  0  0  0
  140.9770   77.2810  221.4520 C   0  0  1  0  0  0  0  0  0  0  0  0
  141.8430   76.2780  220.8220 C   0  0  0  0  0  0  0  0  0  0  0  0
  141.9840   74.9680  221.1820 C   0  0  0  0  0  0  0  0  0  0  0  0
  142.8730   74.1040  220.5300 C   0  0  0  0  0  0  0  0  0  0  0  0
  143.6500   74.5480  219.4810 C   0  0  0  0  0  0  0  0  0  0  0  0
  144.5470   73.7380  218.7970 O   0  0  0  0  0  0  0  0  0  0  0  0
  143.5070   75.8700  219.1180 C   0  0  0  0  0  0  0  0  0  0  0  0
  142.6370   76.7270  219.7540 C   0  0  0  0  0  0  0  0  0  0  0  0
  139.6320   71.8420  222.7500 C   0  0  0  0  0  0  0  0  0  0  0  0
  139.1880   70.5300  222.6540 C   0  0  0  0  0  0  0  0  0  0  0  0
  139.3530   69.6310  223.6870 C   0  0  0  0  0  0  0  0  0  0  0  0
  139.9840   70.0940  224.8280 C   0  0  0  0  0  0  0  0  0  0  0  0
  140.1760   69.2330  225.8980 C   0  0  0  0  0  0  0  0  0  0  0  0
  140.8030   69.6860  227.0380 C   0  0  0  0  0  0  0  0  0  0  0  0
  141.0210   68.5540  228.3640 Cl  0  0  0  0  0  0  0  0  0  0  0  0
  141.2410   70.9970  227.1210 C   0  0  0  0  0  0  0  0  0  0  0  0
  141.0590   71.8690  226.0690 C   0  0  0  0  0  0  0  0  0  0  0  0
  140.4280   71.4100  224.9200 C   0  0  0  0  0  0  0  0  0  0  0  0
  140.2450   72.2470  223.8920 N   0  0  0  0  0  0  0  0  0  0  0  0
  138.1400   74.0250  222.7540 H   0  0  0  0  0  0  0  0  0  0  0  0
  138.2054   74.2339  219.8210 H   0  0  0  0  0  0  0  0  0  0  0  0
  137.3983   75.3376  221.1160 H   0  0  0  0  0  0  0  0  0  0  0  0
  138.7088   78.9766  221.0105 H   0  0  0  0  0  0  0  0  0  0  0  0
  137.5505   77.6246  221.3423 H   0  0  0  0  0  0  0  0  0  0  0  0
  137.6239   78.6694  223.3814 H   0  0  0  0  0  0  0  0  0  0  0  0
  138.9502   77.3911  223.5221 H   0  0  0  0  0  0  0  0  0  0  0  0
  139.4697   80.2467  222.8465 H   0  0  0  0  0  0  0  0  0  0  0  0
  139.4291   79.5739  224.5340 H   0  0  0  0  0  0  0  0  0  0  0  0
  141.5136   79.4675  222.5531 H   0  0  0  0  0  0  0  0  0  0  0  0
  141.5095   78.9824  224.3021 H   0  0  0  0  0  0  0  0  0  0  0  0
  142.0254   76.9786  223.2791 H   0  0  0  0  0  0  0  0  0  0  0  0
  140.2346   76.8711  223.4027 H   0  0  0  0  0  0  0  0  0  0  0  0
  141.3697   78.2004  220.9932 H   0  0  0  0  0  0  0  0  0  0  0  0
  141.3781   74.5778  222.0131 H   0  0  0  0  0  0  0  0  0  0  0  0
  142.9524   73.0574  220.8592 H   0  0  0  0  0  0  0  0  0  0  0  0
  145.3250   74.1980  218.3380 H   0  0  0  0  0  0  0  0  0  0  0  0
  144.1132   76.2565  218.2855 H   0  0  0  0  0  0  0  0  0  0  0  0
  142.5631   77.7732  219.4225 H   0  0  0  0  0  0  0  0  0  0  0  0
  138.6916   70.1988  221.7299 H   0  0  0  0  0  0  0  0  0  0  0  0
  138.9988   68.5926  223.6073 H   0  0  0  0  0  0  0  0  0  0  0  0
  139.8286   68.1911  225.8367 H   0  0  0  0  0  0  0  0  0  0  0  0
  141.7399   71.3466  228.0369 H   0  0  0  0  0  0  0  0  0  0  0  0
  141.4074   72.9101  226.1383 H   0  0  0  0  0  0  0  0  0  0  0  0
  1  2  2  0
  2  3  1  0
  3  4  1  0
  4  5  1  0
  5  6  2  0
  5  7  1  0
  7  8  1  0
  8  9  1  0
  9 10  1  0
 10 11  1  0
 11 12  1  0
 12 13  1  0
 13 14  1  0
 14 15  2  0
 15 16  1  0
 16 17  2  0
 17 18  1  0
 17 19  1  0
 19 20  2  0
  2 21  1  0
 21 22  2  0
 22 23  1  0
 23 24  2  0
 24 25  1  0
 25 26  2  0
 26 27  1  0
 26 28  1  0
 28 29  2  0
 29 30  1  0
 30 31  2  0
 13  7  1  0
 20 14  1  0
 31 21  1  0
 30 24  1  0
  3 32  1  0
  4 33  1  0
  4 34  1  0
  8 35  1  0
  8 36  1  0
  9 37  1  0
  9 38  1  0
 10 39  1  0
 10 40  1  0
 11 41  1  0
 11 42  1  0
 12 43  1  0
 12 44  1  0
 13 45  1  6
 15 46  1  0
 16 47  1  0
 18 48  1  0
 19 49  1  0
 20 50  1  0
 22 51  1  0
 23 52  1  0
 25 53  1  0
 28 54  1  0
 29 55  1  0
M  END
>  <smiles>  (95) 
O=C(NCC(=O)N1CCCCCC1c1ccc(O)cc1)c1ccc2cc(Cl)ccc2n1

>  <score_type>  (95) 
oracle

>  <origin>  (95) 
autodockgpu

>  <m_score__min__energy>  (95) 
-6.8799999999999999

>  <m_primary>  (95) 
energy

>  <rmsd>  (95) 
3.141549009829843

>  <m_score__min__rmsd>  (95) 
3.141549009829843

>  <meeko>  (95) 
{"free_energy": -5.93, "intermolecular_energy": -9.51, "internal_energy": -1.39, "cluster_size": 17, "cluster_id": 1, "rank_in_cluster": 9}

>  <energy>  (95) 
-4.99

>  <cluster_rmsd>  (95) 
0.0

>  <cluster>  (95) 
14

$$$$

     RDKit          3D

 55 58  0  0  0  0  0  0  0  0999 V2000
  140.6190   73.5030  220.3460 O   0  0  0  0  0  0  0  0  0  0  0  0
  140.1510   73.5670  221.5300 C   0  0  0  0  0  0  0  0  0  0  0  0
  139.7810   74.8500  222.0860 N   0  0  0  0  0  0  0  0  0  0  0  0
  139.9110   76.0820  221.3770 C   0  0  0  0  0  0  0  0  0  0  0  0
  140.1200   77.3290  222.0980 C   0  0  0  0  0  0  0  0  0  0  0  0
  139.2070   77.5410  223.0160 O   0  0  0  0  0  0  0  0  0  0  0  0
  141.0870   78.3300  222.0020 N   0  0  0  0  0  0  0  0  0  0  0  0
  141.8520   78.7800  223.1470 C   0  0  0  0  0  0  0  0  0  0  0  0
  141.2040   79.9830  223.8120 C   0  0  0  0  0  0  0  0  0  0  0  0
  141.3390   81.2700  223.0980 C   0  0  0  0  0  0  0  0  0  0  0  0
  140.9770   81.1580  221.6520 C   0  0  0  0  0  0  0  0  0  0  0  0
  141.9310   80.2470  220.9050 C   0  0  0  0  0  0  0  0  0  0  0  0
  141.2790   78.9260  220.6650 C   0  0  1  0  0  0  0  0  0  0  0  0
  141.9510   78.0220  219.7250 C   0  0  0  0  0  0  0  0  0  0  0  0
  142.5970   76.8560  220.0200 C   0  0  0  0  0  0  0  0  0  0  0  0
  143.2390   76.0870  219.0420 C   0  0  0  0  0  0  0  0  0  0  0  0
  143.2430   76.4810  217.7210 C   0  0  0  0  0  0  0  0  0  0  0  0
  143.8620   75.7610  216.7090 O   0  0  0  0  0  0  0  0  0  0  0  0
  142.5910   77.6590  217.4230 C   0  0  0  0  0  0  0  0  0  0  0  0
  141.9570   78.4220  218.3780 C   0  0  0  0  0  0  0  0  0  0  0  0
  139.9740   72.3800  222.3390 C   0  0  0  0  0  0  0  0  0  0  0  0
  139.3320   71.2850  221.7760 C   0  0  0  0  0  0  0  0  0  0  0  0
  139.1280   70.1200  222.4850 C   0  0  0  0  0  0  0  0  0  0  0  0
  139.5920   70.0870  223.7880 C   0  0  0  0  0  0  0  0  0  0  0  0
  139.4140   68.9410  224.5470 C   0  0  0  0  0  0  0  0  0  0  0  0
  139.8740   68.9010  225.8460 C   0  0  0  0  0  0  0  0  0  0  0  0
  139.6220   67.4240  226.7640 Cl  0  0  0  0  0  0  0  0  0  0  0  0
  140.5120   70.0000  226.3960 C   0  0  0  0  0  0  0  0  0  0  0  0
  140.6980   71.1490  225.6580 C   0  0  0  0  0  0  0  0  0  0  0  0
  140.2350   71.1870  224.3490 C   0  0  0  0  0  0  0  0  0  0  0  0
  140.4110   72.2970  223.6220 N   0  0  0  0  0  0  0  0  0  0  0  0
  139.3950   74.8530  223.0770 H   0  0  0  0  0  0  0  0  0  0  0  0
  140.7661   75.9648  220.6950 H   0  0  0  0  0  0  0  0  0  0  0  0
  138.9149   76.2176  220.9304 H   0  0  0  0  0  0  0  0  0  0  0  0
  141.9178   77.9602  223.8775 H   0  0  0  0  0  0  0  0  0  0  0  0
  142.8527   79.0756  222.7988 H   0  0  0  0  0  0  0  0  0  0  0  0
  140.1304   79.7696  223.9205 H   0  0  0  0  0  0  0  0  0  0  0  0
  141.7357   80.1163  224.7657 H   0  0  0  0  0  0  0  0  0  0  0  0
  140.6762   82.0087  223.5723 H   0  0  0  0  0  0  0  0  0  0  0  0
  142.3931   81.5787  223.1578 H   0  0  0  0  0  0  0  0  0  0  0  0
  139.9581   80.7518  221.5699 H   0  0  0  0  0  0  0  0  0  0  0  0
  141.0384   82.1608  221.2041 H   0  0  0  0  0  0  0  0  0  0  0  0
  142.1949   80.7054  219.9405 H   0  0  0  0  0  0  0  0  0  0  0  0
  142.8412   80.1009  221.5052 H   0  0  0  0  0  0  0  0  0  0  0  0
  140.3291   79.0935  220.1363 H   0  0  0  0  0  0  0  0  0  0  0  0
  142.6137   76.5083  221.0635 H   0  0  0  0  0  0  0  0  0  0  0  0
  143.7473   75.1555  219.3317 H   0  0  0  0  0  0  0  0  0  0  0  0
  143.8230   76.1520  215.7750 H   0  0  0  0  0  0  0  0  0  0  0  0
  142.5768   78.0037  216.3785 H   0  0  0  0  0  0  0  0  0  0  0  0
  141.4506   79.3531  218.0837 H   0  0  0  0  0  0  0  0  0  0  0  0
  138.9767   71.3486  220.7369 H   0  0  0  0  0  0  0  0  0  0  0  0
  138.6189   69.2552  222.0345 H   0  0  0  0  0  0  0  0  0  0  0  0
  138.9072   68.0659  224.1141 H   0  0  0  0  0  0  0  0  0  0  0  0
  140.8744   69.9555  227.4336 H   0  0  0  0  0  0  0  0  0  0  0  0
  141.2043   72.0208  226.0980 H   0  0  0  0  0  0  0  0  0  0  0  0
  1  2  2  0
  2  3  1  0
  3  4  1  0
  4  5  1  0
  5  6  2  0
  5  7  1  0
  7  8  1  0
  8  9  1  0
  9 10  1  0
 10 11  1  0
 11 12  1  0
 12 13  1  0
 13 14  1  0
 14 15  2  0
 15 16  1  0
 16 17  2  0
 17 18  1  0
 17 19  1  0
 19 20  2  0
  2 21  1  0
 21 22  2  0
 22 23  1  0
 23 24  2  0
 24 25  1  0
 25 26  2  0
 26 27  1  0
 26 28  1  0
 28 29  2  0
 29 30  1  0
 30 31  2  0
 13  7  1  0
 20 14  1  0
 31 21  1  0
 30 24  1  0
  3 32  1  0
  4 33  1  0
  4 34  1  0
  8 35  1  0
  8 36  1  0
  9 37  1  0
  9 38  1  0
 10 39  1  0
 10 40  1  0
 11 41  1  0
 11 42  1  0
 12 43  1  0
 12 44  1  0
 13 45  1  6
 15 46  1  0
 16 47  1  0
 18 48  1  0
 19 49  1  0
 20 50  1  0
 22 51  1  0
 23 52  1  0
 25 53  1  0
 28 54  1  0
 29 55  1  0
M  END
>  <smiles>  (96) 
O=C(NCC(=O)N1CCCCCC1c1ccc(O)cc1)c1ccc2cc(Cl)ccc2n1

>  <score_type>  (96) 
oracle

>  <origin>  (96) 
autodockgpu

>  <m_score__min__energy>  (96) 
-6.8799999999999999

>  <m_primary>  (96) 
energy

>  <rmsd>  (96) 
3.927101324666789

>  <m_score__min__rmsd>  (96) 
3.927101324666789

>  <meeko>  (96) 
{"free_energy": -6.16, "intermolecular_energy": -9.74, "internal_energy": -1.58, "cluster_size": 4, "cluster_id": 2, "rank_in_cluster": 2}

>  <energy>  (96) 
-4.93

>  <cluster_rmsd>  (96) 
0.0

>  <cluster>  (96) 
15

$$$$

     RDKit          3D

 55 58  0  0  0  0  0  0  0  0999 V2000
  139.8210   74.4510  219.7630 O   0  0  0  0  0  0  0  0  0  0  0  0
  140.3120   74.3140  220.9310 C   0  0  0  0  0  0  0  0  0  0  0  0
  141.1520   75.3550  221.4820 N   0  0  0  0  0  0  0  0  0  0  0  0
  141.4750   76.5570  220.7840 C   0  0  0  0  0  0  0  0  0  0  0  0
  141.2150   77.8540  221.3900 C   0  0  0  0  0  0  0  0  0  0  0  0
  141.2300   78.8330  220.5160 O   0  0  0  0  0  0  0  0  0  0  0  0
  140.9590   78.2550  222.7010 N   0  0  0  0  0  0  0  0  0  0  0  0
  142.0190   78.6190  223.6200 C   0  0  0  0  0  0  0  0  0  0  0  0
  142.4100   80.0790  223.4670 C   0  0  0  0  0  0  0  0  0  0  0  0
  141.2950   81.0480  223.4090 C   0  0  0  0  0  0  0  0  0  0  0  0
  140.1780   80.5750  222.5360 C   0  0  0  0  0  0  0  0  0  0  0  0
  139.1960   79.7120  223.3000 C   0  0  0  0  0  0  0  0  0  0  0  0
  139.5420   78.2720  223.1150 C   0  0  1  0  0  0  0  0  0  0  0  0
  138.6730   77.4960  222.2230 C   0  0  0  0  0  0  0  0  0  0  0  0
  138.1990   77.8760  221.0000 C   0  0  0  0  0  0  0  0  0  0  0  0
  137.3400   77.0660  220.2450 C   0  0  0  0  0  0  0  0  0  0  0  0
  136.9350   75.8340  220.7140 C   0  0  0  0  0  0  0  0  0  0  0  0
  136.0880   74.9890  220.0120 O   0  0  0  0  0  0  0  0  0  0  0  0
  137.4150   75.4510  221.9490 C   0  0  0  0  0  0  0  0  0  0  0  0
  138.2590   76.2410  222.6980 C   0  0  0  0  0  0  0  0  0  0  0  0
  140.0480   73.1360  221.7300 C   0  0  0  0  0  0  0  0  0  0  0  0
  139.2550   72.1330  221.1880 C   0  0  0  0  0  0  0  0  0  0  0  0
  138.9610   70.9830  221.8890 C   0  0  0  0  0  0  0  0  0  0  0  0
  139.4920   70.8680  223.1610 C   0  0  0  0  0  0  0  0  0  0  0  0
  139.2290   69.7320  223.9100 C   0  0  0  0  0  0  0  0  0  0  0  0
  139.7550   69.6110  225.1790 C   0  0  0  0  0  0  0  0  0  0  0  0
  139.3890   68.1510  226.0860 Cl  0  0  0  0  0  0  0  0  0  0  0  0
  140.5440   70.6180  225.7080 C   0  0  0  0  0  0  0  0  0  0  0  0
  140.8170   71.7550  224.9790 C   0  0  0  0  0  0  0  0  0  0  0  0
  140.2870   71.8760  223.7010 C   0  0  0  0  0  0  0  0  0  0  0  0
  140.5460   72.9750  222.9830 N   0  0  0  0  0  0  0  0  0  0  0  0
  141.5370   75.1960  222.4600 H   0  0  0  0  0  0  0  0  0  0  0  0
  142.5537   76.5185  220.5720 H   0  0  0  0  0  0  0  0  0  0  0  0
  140.7841   76.5401  219.9282 H   0  0  0  0  0  0  0  0  0  0  0  0
  141.6738   78.4473  224.6502 H   0  0  0  0  0  0  0  0  0  0  0  0
  142.8998   77.9999  223.3944 H   0  0  0  0  0  0  0  0  0  0  0  0
  143.0452   80.3484  224.3237 H   0  0  0  0  0  0  0  0  0  0  0  0
  142.9139   80.1494  222.4917 H   0  0  0  0  0  0  0  0  0  0  0  0
  140.9074   81.2028  224.4268 H   0  0  0  0  0  0  0  0  0  0  0  0
  141.6839   81.9837  222.9809 H   0  0  0  0  0  0  0  0  0  0  0  0
  139.6457   81.4494  222.1333 H   0  0  0  0  0  0  0  0  0  0  0  0
  140.6094   79.9683  221.7262 H   0  0  0  0  0  0  0  0  0  0  0  0
  139.2423   79.9647  224.3696 H   0  0  0  0  0  0  0  0  0  0  0  0
  138.1795   79.8940  222.9211 H   0  0  0  0  0  0  0  0  0  0  0  0
  139.3733   77.7443  224.0653 H   0  0  0  0  0  0  0  0  0  0  0  0
  138.5020   78.8521  220.5932 H   0  0  0  0  0  0  0  0  0  0  0  0
  136.9841   77.4176  219.2653 H   0  0  0  0  0  0  0  0  0  0  0  0
  135.1130   74.9800  220.2900 H   0  0  0  0  0  0  0  0  0  0  0  0
  137.1111   74.4739  222.3527 H   0  0  0  0  0  0  0  0  0  0  0  0
  138.6120   75.8855  223.6773 H   0  0  0  0  0  0  0  0  0  0  0  0
  138.8509   72.2595  220.1728 H   0  0  0  0  0  0  0  0  0  0  0  0
  138.3317   70.1916  221.4558 H   0  0  0  0  0  0  0  0  0  0  0  0
  138.6026   68.9294  223.4936 H   0  0  0  0  0  0  0  0  0  0  0  0
  140.9576   70.5093  226.7215 H   0  0  0  0  0  0  0  0  0  0  0  0
  141.4442   72.5534  225.4022 H   0  0  0  0  0  0  0  0  0  0  0  0
  1  2  2  0
  2  3  1  0
  3  4  1  0
  4  5  1  0
  5  6  2  0
  5  7  1  0
  7  8  1  0
  8  9  1  0
  9 10  1  0
 10 11  1  0
 11 12  1  0
 12 13  1  0
 13 14  1  0
 14 15  2  0
 15 16  1  0
 16 17  2  0
 17 18  1  0
 17 19  1  0
 19 20  2  0
  2 21  1  0
 21 22  2  0
 22 23  1  0
 23 24  2  0
 24 25  1  0
 25 26  2  0
 26 27  1  0
 26 28  1  0
 28 29  2  0
 29 30  1  0
 30 31  2  0
 13  7  1  0
 20 14  1  0
 31 21  1  0
 30 24  1  0
  3 32  1  0
  4 33  1  0
  4 34  1  0
  8 35  1  0
  8 36  1  0
  9 37  1  0
  9 38  1  0
 10 39  1  0
 10 40  1  0
 11 41  1  0
 11 42  1  0
 12 43  1  0
 12 44  1  0
 13 45  1  1
 15 46  1  0
 16 47  1  0
 18 48  1  0
 19 49  1  0
 20 50  1  0
 22 51  1  0
 23 52  1  0
 25 53  1  0
 28 54  1  0
 29 55  1  0
M  END
>  <smiles>  (97) 
O=C(NCC(=O)N1CCCCCC1c1ccc(O)cc1)c1ccc2cc(Cl)ccc2n1

>  <score_type>  (97) 
oracle

>  <origin>  (97) 
autodockgpu

>  <m_score__min__energy>  (97) 
-6.8799999999999999

>  <m_primary>  (97) 
energy

>  <rmsd>  (97) 
4.769235149378279

>  <m_score__min__rmsd>  (97) 
4.769235149378279

>  <meeko>  (97) 
{"free_energy": -4.8, "intermolecular_energy": -8.38, "internal_energy": -2.34, "cluster_size": 6, "cluster_id": 8, "rank_in_cluster": 5}

>  <energy>  (97) 
-4.86

>  <cluster_rmsd>  (97) 
0.0

>  <cluster>  (97) 
16

$$$$

     RDKit          3D

 55 58  0  0  0  0  0  0  0  0999 V2000
  141.1280   73.2270  221.9820 O   0  0  0  0  0  0  0  0  0  0  0  0
  140.0720   72.6650  222.4200 C   0  0  0  0  0  0  0  0  0  0  0  0
  138.7950   72.9650  221.8130 N   0  0  0  0  0  0  0  0  0  0  0  0
  138.6350   73.8750  220.7250 C   0  0  0  0  0  0  0  0  0  0  0  0
  139.1850   75.2200  220.8020 C   0  0  0  0  0  0  0  0  0  0  0  0
  138.2600   76.1490  220.7420 O   0  0  0  0  0  0  0  0  0  0  0  0
  140.4860   75.7080  220.9230 N   0  0  0  0  0  0  0  0  0  0  0  0
  141.0150   76.2000  222.1800 C   0  0  0  0  0  0  0  0  0  0  0  0
  140.6130   77.6450  222.4240 C   0  0  0  0  0  0  0  0  0  0  0  0
  140.8850   78.5900  221.3210 C   0  0  0  0  0  0  0  0  0  0  0  0
  140.5160   78.0260  219.9870 C   0  0  0  0  0  0  0  0  0  0  0  0
  141.6160   77.1480  219.4270 C   0  0  0  0  0  0  0  0  0  0  0  0
  141.2990   75.7150  219.6910 C   0  0  1  0  0  0  0  0  0  0  0  0
  142.4360   74.7890  219.7480 C   0  0  0  0  0  0  0  0  0  0  0  0
  143.7160   75.0780  220.1250 C   0  0  0  0  0  0  0  0  0  0  0  0
  144.7370   74.1200  220.1060 C   0  0  0  0  0  0  0  0  0  0  0  0
  144.4860   72.8260  219.7000 C   0  0  0  0  0  0  0  0  0  0  0  0
  145.4570   71.8350  219.6600 O   0  0  0  0  0  0  0  0  0  0  0  0
  143.1940   72.5350  219.3190 C   0  0  0  0  0  0  0  0  0  0  0  0
  142.1830   73.4710  219.3340 C   0  0  0  0  0  0  0  0  0  0  0  0
  140.1160   71.7230  223.5190 C   0  0  0  0  0  0  0  0  0  0  0  0
  139.6710   70.4260  223.2970 C   0  0  0  0  0  0  0  0  0  0  0  0
  139.6830   69.4750  224.2950 C   0  0  0  0  0  0  0  0  0  0  0  0
  140.1610   69.8660  225.5320 C   0  0  0  0  0  0  0  0  0  0  0  0
  140.1970   68.9500  226.5720 C   0  0  0  0  0  0  0  0  0  0  0  0
  140.6710   69.3330  227.8070 C   0  0  0  0  0  0  0  0  0  0  0  0
  140.6930   68.1320  229.0900 Cl  0  0  0  0  0  0  0  0  0  0  0  0
  141.1120   70.6290  228.0160 C   0  0  0  0  0  0  0  0  0  0  0  0
  141.0850   71.5550  226.9960 C   0  0  0  0  0  0  0  0  0  0  0  0
  140.6070   71.1670  225.7500 C   0  0  0  0  0  0  0  0  0  0  0  0
  140.5760   72.0570  224.7520 N   0  0  0  0  0  0  0  0  0  0  0  0
  137.9430   72.4710  222.2130 H   0  0  0  0  0  0  0  0  0  0  0  0
  139.0907   73.3977  219.8449 H   0  0  0  0  0  0  0  0  0  0  0  0
  137.5494   74.0516  220.7069 H   0  0  0  0  0  0  0  0  0  0  0  0
  140.6269   75.5774  222.9996 H   0  0  0  0  0  0  0  0  0  0  0  0
  142.1130   76.1490  222.1368 H   0  0  0  0  0  0  0  0  0  0  0  0
  139.5315   77.6639  222.6239 H   0  0  0  0  0  0  0  0  0  0  0  0
  141.2334   77.9864  223.2657 H   0  0  0  0  0  0  0  0  0  0  0  0
  140.3031   79.5081  221.4901 H   0  0  0  0  0  0  0  0  0  0  0  0
  141.9657   78.7952  221.3124 H   0  0  0  0  0  0  0  0  0  0  0  0
  139.6005   77.4257  220.0945 H   0  0  0  0  0  0  0  0  0  0  0  0
  140.3583   78.8638  219.2919 H   0  0  0  0  0  0  0  0  0  0  0  0
  141.6970   77.3107  218.3421 H   0  0  0  0  0  0  0  0  0  0  0  0
  142.5695   77.4053  219.9114 H   0  0  0  0  0  0  0  0  0  0  0  0
  140.7557   75.3103  218.8244 H   0  0  0  0  0  0  0  0  0  0  0  0
  143.9537   76.0999  220.4555 H   0  0  0  0  0  0  0  0  0  0  0  0
  145.7528   74.4032  220.4190 H   0  0  0  0  0  0  0  0  0  0  0  0
  145.7710   71.4630  220.5490 H   0  0  0  0  0  0  0  0  0  0  0  0
  142.9599   71.5121  218.9889 H   0  0  0  0  0  0  0  0  0  0  0  0
  141.1690   73.1835  219.0190 H   0  0  0  0  0  0  0  0  0  0  0  0
  139.2994   70.1506  222.2990 H   0  0  0  0  0  0  0  0  0  0  0  0
  139.3277   68.4496  224.1150 H   0  0  0  0  0  0  0  0  0  0  0  0
  139.8477   67.9194  226.4111 H   0  0  0  0  0  0  0  0  0  0  0  0
  141.4880   70.9224  229.0072 H   0  0  0  0  0  0  0  0  0  0  0  0
  141.4358   72.5838  227.1650 H   0  0  0  0  0  0  0  0  0  0  0  0
  1  2  2  0
  2  3  1  0
  3  4  1  0
  4  5  1  0
  5  6  2  0
  5  7  1  0
  7  8  1  0
  8  9  1  0
  9 10  1  0
 10 11  1  0
 11 12  1  0
 12 13  1  0
 13 14  1  0
 14 15  2  0
 15 16  1  0
 16 17  2  0
 17 18  1  0
 17 19  1  0
 19 20  2  0
  2 21  1  0
 21 22  2  0
 22 23  1  0
 23 24  2  0
 24 25  1  0
 25 26  2  0
 26 27  1  0
 26 28  1  0
 28 29  2  0
 29 30  1  0
 30 31  2  0
 13  7  1  0
 20 14  1  0
 31 21  1  0
 30 24  1  0
  3 32  1  0
  4 33  1  0
  4 34  1  0
  8 35  1  0
  8 36  1  0
  9 37  1  0
  9 38  1  0
 10 39  1  0
 10 40  1  0
 11 41  1  0
 11 42  1  0
 12 43  1  0
 12 44  1  0
 13 45  1  6
 15 46  1  0
 16 47  1  0
 18 48  1  0
 19 49  1  0
 20 50  1  0
 22 51  1  0
 23 52  1  0
 25 53  1  0
 28 54  1  0
 29 55  1  0
M  END
>  <smiles>  (98) 
O=C(NCC(=O)N1CCCCCC1c1ccc(O)cc1)c1ccc2cc(Cl)ccc2n1

>  <score_type>  (98) 
oracle

>  <origin>  (98) 
autodockgpu

>  <m_score__min__energy>  (98) 
-6.8799999999999999

>  <m_primary>  (98) 
energy

>  <rmsd>  (98) 
2.50551681361471

>  <m_score__min__rmsd>  (98) 
2.50551681361471

>  <meeko>  (98) 
{"free_energy": -6.1, "intermolecular_energy": -9.68, "internal_energy": -1.76, "cluster_size": 17, "cluster_id": 1, "rank_in_cluster": 6}

>  <energy>  (98) 
-4.74

>  <cluster_rmsd>  (98) 
0.0

>  <cluster>  (98) 
17

$$$$

     RDKit          3D

 55 58  0  0  0  0  0  0  0  0999 V2000
  140.8300   76.6650  218.4740 O   0  0  0  0  0  0  0  0  0  0  0  0
  142.0830   76.7820  218.6730 C   0  0  0  0  0  0  0  0  0  0  0  0
  142.6960   78.0910  218.6330 N   0  0  0  0  0  0  0  0  0  0  0  0
  141.9690   79.2930  218.3780 C   0  0  0  0  0  0  0  0  0  0  0  0
  141.9370   80.3590  219.3690 C   0  0  0  0  0  0  0  0  0  0  0  0
  142.2010   81.5370  218.8530 O   0  0  0  0  0  0  0  0  0  0  0  0
  141.6860   80.3720  220.7410 N   0  0  0  0  0  0  0  0  0  0  0  0
  141.0100   81.4740  221.3940 C   0  0  0  0  0  0  0  0  0  0  0  0
  140.2080   81.0010  222.5950 C   0  0  0  0  0  0  0  0  0  0  0  0
  140.9500   80.8970  223.8700 C   0  0  0  0  0  0  0  0  0  0  0  0
  141.8850   79.7310  223.8880 C   0  0  0  0  0  0  0  0  0  0  0  0
  142.8400   79.7590  222.7110 C   0  0  0  0  0  0  0  0  0  0  0  0
  142.1650   79.2020  221.5030 C   0  0  1  0  0  0  0  0  0  0  0  0
  141.1180   78.2010  221.7380 C   0  0  0  0  0  0  0  0  0  0  0  0
  141.2030   77.0890  222.5260 C   0  0  0  0  0  0  0  0  0  0  0  0
  140.1480   76.1760  222.6490 C   0  0  0  0  0  0  0  0  0  0  0  0
  138.9630   76.3680  221.9700 C   0  0  0  0  0  0  0  0  0  0  0  0
  137.8840   75.4990  222.0530 O   0  0  0  0  0  0  0  0  0  0  0  0
  138.8780   77.4910  221.1750 C   0  0  0  0  0  0  0  0  0  0  0  0
  139.9100   78.3930  221.0470 C   0  0  0  0  0  0  0  0  0  0  0  0
  142.9170   75.6300  218.9420 C   0  0  0  0  0  0  0  0  0  0  0  0
  143.6320   75.5960  220.1330 C   0  0  0  0  0  0  0  0  0  0  0  0
  144.4470   74.5320  220.4580 C   0  0  0  0  0  0  0  0  0  0  0  0
  144.5220   73.4950  219.5460 C   0  0  0  0  0  0  0  0  0  0  0  0
  145.3260   72.4000  219.8230 C   0  0  0  0  0  0  0  0  0  0  0  0
  145.4070   71.3630  218.9190 C   0  0  0  0  0  0  0  0  0  0  0  0
  146.4410   70.0000  219.3190 Cl  0  0  0  0  0  0  0  0  0  0  0  0
  144.6890   71.4090  217.7350 C   0  0  0  0  0  0  0  0  0  0  0  0
  143.8840   72.4890  217.4420 C   0  0  0  0  0  0  0  0  0  0  0  0
  143.8040   73.5330  218.3540 C   0  0  0  0  0  0  0  0  0  0  0  0
  143.0250   74.5870  218.0800 N   0  0  0  0  0  0  0  0  0  0  0  0
  143.7440   78.1380  218.8050 H   0  0  0  0  0  0  0  0  0  0  0  0
  142.3906   79.7281  217.4599 H   0  0  0  0  0  0  0  0  0  0  0  0
  140.9243   78.9499  218.3484 H   0  0  0  0  0  0  0  0  0  0  0  0
  141.7601   82.2049  221.7303 H   0  0  0  0  0  0  0  0  0  0  0  0
  140.3158   81.9298  220.6727 H   0  0  0  0  0  0  0  0  0  0  0  0
  139.3784   81.7076  222.7451 H   0  0  0  0  0  0  0  0  0  0  0  0
  139.8886   79.9765  222.3534 H   0  0  0  0  0  0  0  0  0  0  0  0
  141.5314   81.8191  224.0173 H   0  0  0  0  0  0  0  0  0  0  0  0
  140.2157   80.7524  224.6762 H   0  0  0  0  0  0  0  0  0  0  0  0
  142.4679   79.7560  224.8205 H   0  0  0  0  0  0  0  0  0  0  0  0
  141.2862   78.8106  223.8215 H   0  0  0  0  0  0  0  0  0  0  0  0
  143.1461   80.7968  222.5130 H   0  0  0  0  0  0  0  0  0  0  0  0
  143.7261   79.1512  222.9461 H   0  0  0  0  0  0  0  0  0  0  0  0
  142.8929   78.6004  220.9389 H   0  0  0  0  0  0  0  0  0  0  0  0
  142.1328   76.9037  223.0838 H   0  0  0  0  0  0  0  0  0  0  0  0
  140.2661   75.2941  223.2958 H   0  0  0  0  0  0  0  0  0  0  0  0
  137.9100   74.8020  222.7900 H   0  0  0  0  0  0  0  0  0  0  0  0
  137.9464   77.6740  220.6196 H   0  0  0  0  0  0  0  0  0  0  0  0
  139.7876   79.2723  220.3976 H   0  0  0  0  0  0  0  0  0  0  0  0
  143.5458   76.4390  220.8343 H   0  0  0  0  0  0  0  0  0  0  0  0
  145.0126   74.5091  221.4012 H   0  0  0  0  0  0  0  0  0  0  0  0
  145.8977   72.3591  220.7618 H   0  0  0  0  0  0  0  0  0  0  0  0
  144.7620   70.5751  217.0214 H   0  0  0  0  0  0  0  0  0  0  0  0
  143.3146   72.5232  216.5015 H   0  0  0  0  0  0  0  0  0  0  0  0
  1  2  2  0
  2  3  1  0
  3  4  1  0
  4  5  1  0
  5  6  2  0
  5  7  1  0
  7  8  1  0
  8  9  1  0
  9 10  1  0
 10 11  1  0
 11 12  1  0
 12 13  1  0
 13 14  1  0
 14 15  2  0
 15 16  1  0
 16 17  2  0
 17 18  1  0
 17 19  1  0
 19 20  2  0
  2 21  1  0
 21 22  2  0
 22 23  1  0
 23 24  2  0
 24 25  1  0
 25 26  2  0
 26 27  1  0
 26 28  1  0
 28 29  2  0
 29 30  1  0
 30 31  2  0
 13  7  1  0
 20 14  1  0
 31 21  1  0
 30 24  1  0
  3 32  1  0
  4 33  1  0
  4 34  1  0
  8 35  1  0
  8 36  1  0
  9 37  1  0
  9 38  1  0
 10 39  1  0
 10 40  1  0
 11 41  1  0
 11 42  1  0
 12 43  1  0
 12 44  1  0
 13 45  1  6
 15 46  1  0
 16 47  1  0
 18 48  1  0
 19 49  1  0
 20 50  1  0
 22 51  1  0
 23 52  1  0
 25 53  1  0
 28 54  1  0
 29 55  1  0
M  END
>  <smiles>  (99) 
O=C(NCC(=O)N1CCCCCC1c1ccc(O)cc1)c1ccc2cc(Cl)ccc2n1

>  <score_type>  (99) 
oracle

>  <origin>  (99) 
autodockgpu

>  <m_score__min__energy>  (99) 
-6.8799999999999999

>  <m_primary>  (99) 
energy

>  <rmsd>  (99) 
8.01262990174518

>  <m_score__min__rmsd>  (99) 
8.01262990174518

>  <meeko>  (99) 
{"free_energy": -4.63, "intermolecular_energy": -8.21, "internal_energy": -1.95, "cluster_size": 2, "cluster_id": 12, "rank_in_cluster": 2}

>  <energy>  (99) 
-3.78

>  <cluster_rmsd>  (99) 
1.2

>  <cluster>  (99) 
17

$$$$

     RDKit          3D

 55 58  0  0  0  0  0  0  0  0999 V2000
  141.1990   73.8330  221.9090 O   0  0  0  0  0  0  0  0  0  0  0  0
  140.3200   72.9120  221.9440 C   0  0  0  0  0  0  0  0  0  0  0  0
  139.3670   72.7880  220.8640 N   0  0  0  0  0  0  0  0  0  0  0  0
  139.3480   73.6530  219.7290 C   0  0  0  0  0  0  0  0  0  0  0  0
  139.6800   75.0630  219.8710 C   0  0  0  0  0  0  0  0  0  0  0  0
  138.6220   75.8380  219.8320 O   0  0  0  0  0  0  0  0  0  0  0  0
  140.8870   75.7410  220.0350 N   0  0  0  0  0  0  0  0  0  0  0  0
  141.1750   76.5380  221.2110 C   0  0  0  0  0  0  0  0  0  0  0  0
  141.4460   77.9890  220.8480 C   0  0  0  0  0  0  0  0  0  0  0  0
  140.6320   78.5440  219.7460 C   0  0  0  0  0  0  0  0  0  0  0  0
  140.8250   77.7990  218.4650 C   0  0  0  0  0  0  0  0  0  0  0  0
  142.1190   77.0150  218.4690 C   0  0  0  0  0  0  0  0  0  0  0  0
  141.8600   75.6200  218.9310 C   0  0  1  0  0  0  0  0  0  0  0  0
  143.0350   74.8160  219.2860 C   0  0  0  0  0  0  0  0  0  0  0  0
  144.0590   75.1750  220.1140 C   0  0  0  0  0  0  0  0  0  0  0  0
  145.1560   74.3380  220.3550 C   0  0  0  0  0  0  0  0  0  0  0  0
  145.2460   73.0990  219.7560 C   0  0  0  0  0  0  0  0  0  0  0  0
  146.3080   72.2280  219.9560 O   0  0  0  0  0  0  0  0  0  0  0  0
  144.2120   72.7380  218.9190 C   0  0  0  0  0  0  0  0  0  0  0  0
  143.1300   73.5540  218.6770 C   0  0  0  0  0  0  0  0  0  0  0  0
  140.2480   71.9760  223.0470 C   0  0  0  0  0  0  0  0  0  0  0  0
  139.6740   70.7320  222.8220 C   0  0  0  0  0  0  0  0  0  0  0  0
  139.5710   69.7890  223.8230 C   0  0  0  0  0  0  0  0  0  0  0  0
  140.0670   70.1350  225.0660 C   0  0  0  0  0  0  0  0  0  0  0  0
  139.9900   69.2250  226.1090 C   0  0  0  0  0  0  0  0  0  0  0  0
  140.4830   69.5620  227.3510 C   0  0  0  0  0  0  0  0  0  0  0  0
  140.3590   68.3720  228.6380 Cl  0  0  0  0  0  0  0  0  0  0  0  0
  141.0530   70.8060  227.5630 C   0  0  0  0  0  0  0  0  0  0  0  0
  141.1390   71.7250  226.5390 C   0  0  0  0  0  0  0  0  0  0  0  0
  140.6430   71.3830  225.2880 C   0  0  0  0  0  0  0  0  0  0  0  0
  140.7210   72.2670  224.2860 N   0  0  0  0  0  0  0  0  0  0  0  0
  138.6530   72.0040  220.9380 H   0  0  0  0  0  0  0  0  0  0  0  0
  140.0578   73.2336  219.0008 H   0  0  0  0  0  0  0  0  0  0  0  0
  138.2837   73.6754  219.4519 H   0  0  0  0  0  0  0  0  0  0  0  0
  140.3122   76.4951  221.8920 H   0  0  0  0  0  0  0  0  0  0  0  0
  142.0752   76.1290  221.6931 H   0  0  0  0  0  0  0  0  0  0  0  0
  141.2613   78.6002  221.7437 H   0  0  0  0  0  0  0  0  0  0  0  0
  142.4862   78.0162  220.4913 H   0  0  0  0  0  0  0  0  0  0  0  0
  139.5704   78.4907  220.0293 H   0  0  0  0  0  0  0  0  0  0  0  0
  140.9533   79.5831  219.5817 H   0  0  0  0  0  0  0  0  0  0  0  0
  139.9852   77.1021  218.3268 H   0  0  0  0  0  0  0  0  0  0  0  0
  140.8667   78.5296  217.6438 H   0  0  0  0  0  0  0  0  0  0  0  0
  142.5357   76.9918  217.4512 H   0  0  0  0  0  0  0  0  0  0  0  0
  142.8353   77.4975  219.1503 H   0  0  0  0  0  0  0  0  0  0  0  0
  141.4676   75.0366  218.0850 H   0  0  0  0  0  0  0  0  0  0  0  0
  144.0214   76.1563  220.6096 H   0  0  0  0  0  0  0  0  0  0  0  0
  145.9563   74.6734  221.0310 H   0  0  0  0  0  0  0  0  0  0  0  0
  146.3340   71.7300  220.8380 H   0  0  0  0  0  0  0  0  0  0  0  0
  144.2531   71.7567  218.4237 H   0  0  0  0  0  0  0  0  0  0  0  0
  142.3322   73.2143  218.0002 H   0  0  0  0  0  0  0  0  0  0  0  0
  139.2913   70.4923  221.8190 H   0  0  0  0  0  0  0  0  0  0  0  0
  139.1144   68.8051  223.6404 H   0  0  0  0  0  0  0  0  0  0  0  0
  139.5365   68.2363  225.9456 H   0  0  0  0  0  0  0  0  0  0  0  0
  141.4414   71.0638  228.5593 H   0  0  0  0  0  0  0  0  0  0  0  0
  141.5928   72.7123  226.7101 H   0  0  0  0  0  0  0  0  0  0  0  0
  1  2  2  0
  2  3  1  0
  3  4  1  0
  4  5  1  0
  5  6  2  0
  5  7  1  0
  7  8  1  0
  8  9  1  0
  9 10  1  0
 10 11  1  0
 11 12  1  0
 12 13  1  0
 13 14  1  0
 14 15  2  0
 15 16  1  0
 16 17  2  0
 17 18  1  0
 17 19  1  0
 19 20  2  0
  2 21  1  0
 21 22  2  0
 22 23  1  0
 23 24  2  0
 24 25  1  0
 25 26  2  0
 26 27  1  0
 26 28  1  0
 28 29  2  0
 29 30  1  0
 30 31  2  0
 13  7  1  0
 20 14  1  0
 31 21  1  0
 30 24  1  0
  3 32  1  0
  4 33  1  0
  4 34  1  0
  8 35  1  0
  8 36  1  0
  9 37  1  0
  9 38  1  0
 10 39  1  0
 10 40  1  0
 11 41  1  0
 11 42  1  0
 12 43  1  0
 12 44  1  0
 13 45  1  6
 15 46  1  0
 16 47  1  0
 18 48  1  0
 19 49  1  0
 20 50  1  0
 22 51  1  0
 23 52  1  0
 25 53  1  0
 28 54  1  0
 29 55  1  0
M  END
>  <smiles>  (100) 
O=C(NCC(=O)N1CCCCCC1c1ccc(O)cc1)c1ccc2cc(Cl)ccc2n1

>  <score_type>  (100) 
oracle

>  <origin>  (100) 
autodockgpu

>  <m_score__min__energy>  (100) 
-6.8799999999999999

>  <m_primary>  (100) 
energy

>  <rmsd>  (100) 
2.519973979619528

>  <m_score__min__rmsd>  (100) 
2.519973979619528

>  <meeko>  (100) 
{"free_energy": -5.9, "intermolecular_energy": -9.48, "internal_energy": -1.65, "cluster_size": 17, "cluster_id": 1, "rank_in_cluster": 10}

>  <energy>  (100) 
-4.57

>  <cluster_rmsd>  (100) 
0.0

>  <cluster>  (100) 
18

$$$$
