
     RDKit          3D

 48 50  0  0  0  0  0  0  0  0999 V2000
  142.4870   70.1640  219.4580 C   0  0  0  0  0  0  0  0  0  0  0  0
  142.3160   71.5560  219.6300 O   0  0  0  0  0  0  0  0  0  0  0  0
  143.3680   72.4140  219.9520 C   0  0  0  0  0  0  0  0  0  0  0  0
  144.6310   71.8310  220.0910 C   0  0  0  0  0  0  0  0  0  0  0  0
  145.6880   72.6620  220.4090 C   0  0  0  0  0  0  0  0  0  0  0  0
  145.5060   74.0240  220.5870 C   0  0  0  0  0  0  0  0  0  0  0  0
  144.2290   74.5470  220.4360 C   0  0  0  0  0  0  0  0  0  0  0  0
  143.1510   73.7560  220.1190 C   0  0  0  0  0  0  0  0  0  0  0  0
  141.7670   74.2910  219.9510 C   0  0  2  0  0  0  0  0  0  0  0  0
  141.6850   75.5860  220.7360 C   0  0  0  0  0  0  0  0  0  0  0  0
  140.7580   73.4010  220.5080 N   0  0  0  0  0  0  0  0  0  0  0  0
  139.3750   73.6900  220.4550 C   0  0  0  0  0  0  0  0  0  0  0  0
  138.9800   74.7530  219.9100 O   0  0  0  0  0  0  0  0  0  0  0  0
  138.4440   72.7040  221.0580 C   0  0  0  0  0  0  0  0  0  0  0  0
  138.7970   72.3160  222.3870 N   0  0  0  0  0  0  0  0  0  0  0  0
  139.7550   71.3030  222.6710 C   0  0  0  0  0  0  0  0  0  0  0  0
  140.3180   70.7210  221.6950 O   0  0  0  0  0  0  0  0  0  0  0  0
  140.0780   70.9460  224.0660 C   0  0  0  0  0  0  0  0  0  0  0  0
  140.7640   71.8750  224.8230 C   0  0  0  0  0  0  0  0  0  0  0  0
  141.0710   71.5540  226.1190 C   0  0  0  0  0  0  0  0  0  0  0  0
  140.6950   70.3180  226.6520 C   0  0  0  0  0  0  0  0  0  0  0  0
  140.9900   69.9710  227.9510 C   0  0  0  0  0  0  0  0  0  0  0  0
  140.5770   68.7150  228.4030 C   0  0  0  0  0  0  0  0  0  0  0  0
  139.8950   67.8510  227.5710 C   0  0  0  0  0  0  0  0  0  0  0  0
  139.5970   68.2080  226.2530 C   0  0  0  0  0  0  0  0  0  0  0  0
  140.0130   69.4600  225.8130 C   0  0  0  0  0  0  0  0  0  0  0  0
  139.7080   69.7670  224.5380 N   0  0  0  0  0  0  0  0  0  0  0  0
  142.5468   69.6775  220.4427 H   0  0  0  0  0  0  0  0  0  0  0  0
  141.6322   69.7559  218.8987 H   0  0  0  0  0  0  0  0  0  0  0  0
  143.4151   69.9749  218.8987 H   0  0  0  0  0  0  0  0  0  0  0  0
  144.7779   70.7497  219.9522 H   0  0  0  0  0  0  0  0  0  0  0  0
  146.6947   72.2335  220.5232 H   0  0  0  0  0  0  0  0  0  0  0  0
  146.3543   74.6761  220.8422 H   0  0  0  0  0  0  0  0  0  0  0  0
  144.0754   75.6274  220.5743 H   0  0  0  0  0  0  0  0  0  0  0  0
  141.5759   74.4138  218.8747 H   0  0  0  0  0  0  0  0  0  0  0  0
  141.6991   75.3634  221.8131 H   0  0  0  0  0  0  0  0  0  0  0  0
  142.5446   76.2237  220.4821 H   0  0  0  0  0  0  0  0  0  0  0  0
  140.7519   76.1102  220.4821 H   0  0  0  0  0  0  0  0  0  0  0  0
  141.1040   72.5250  220.9560 H   0  0  0  0  0  0  0  0  0  0  0  0
  137.4374   73.1469  221.0818 H   0  0  0  0  0  0  0  0  0  0  0  0
  138.4904   71.7976  220.4365 H   0  0  0  0  0  0  0  0  0  0  0  0
  138.3590   72.7690  223.2440 H   0  0  0  0  0  0  0  0  0  0  0  0
  141.0560   72.8463  224.3971 H   0  0  0  0  0  0  0  0  0  0  0  0
  141.6177   72.2747  226.7449 H   0  0  0  0  0  0  0  0  0  0  0  0
  141.5340   70.6611  228.6127 H   0  0  0  0  0  0  0  0  0  0  0  0
  140.7987   68.4108  229.4366 H   0  0  0  0  0  0  0  0  0  0  0  0
  139.5814   66.8673  227.9504 H   0  0  0  0  0  0  0  0  0  0  0  0
  139.0524   67.5226  225.5869 H   0  0  0  0  0  0  0  0  0  0  0  0
  1  2  1  0
  2  3  1  0
  3  4  2  0
  4  5  1  0
  5  6  2  0
  6  7  1  0
  7  8  2  0
  8  9  1  0
  9 10  1  0
  9 11  1  0
 11 12  1  0
 12 13  2  0
 12 14  1  0
 14 15  1  0
 15 16  1  0
 16 17  2  0
 16 18  1  0
 18 19  2  0
 19 20  1  0
 20 21  2  0
 21 22  1  0
 22 23  2  0
 23 24  1  0
 24 25  2  0
 25 26  1  0
 26 27  2  0
  8  3  1  0
 27 18  1  0
 26 21  1  0
  1 28  1  0
  1 29  1  0
  1 30  1  0
  4 31  1  0
  5 32  1  0
  6 33  1  0
  7 34  1  0
  9 35  1  6
 10 36  1  0
 10 37  1  0
 10 38  1  0
 11 39  1  0
 14 40  1  0
 14 41  1  0
 15 42  1  0
 19 43  1  0
 20 44  1  0
 22 45  1  0
 23 46  1  0
 24 47  1  0
 25 48  1  0
M  END
>  <smiles>  (1) 
COc1ccccc1[C@H](C)NC(=O)CNC(=O)c1ccc2ccccc2n1

>  <score_type>  (1) 
oracle

>  <origin>  (1) 
autodockgpu

>  <m_score__min__energy>  (1) 
-8.5299999999999994

>  <m_primary>  (1) 
energy

>  <rmsd>  (1) 
6.311231204295514

>  <m_score__min__rmsd>  (1) 
6.311231204295514

>  <meeko>  (1) 
{"free_energy": -7.02, "intermolecular_energy": -8.81, "internal_energy": -2.47, "cluster_size": 7, "cluster_id": 3, "rank_in_cluster": 4}

>  <energy>  (1) 
-8.53

>  <cluster_rmsd>  (1) 
0.0

>  <cluster>  (1) 
1

$$$$

     RDKit          3D

 48 50  0  0  0  0  0  0  0  0999 V2000
  141.4280   75.5790  220.8680 C   0  0  0  0  0  0  0  0  0  0  0  0
  140.4650   75.6900  221.8960 O   0  0  0  0  0  0  0  0  0  0  0  0
  140.0620   76.9150  222.4270 C   0  0  0  0  0  0  0  0  0  0  0  0
  141.0790   77.7990  222.8040 C   0  0  0  0  0  0  0  0  0  0  0  0
  140.7030   79.0190  223.3330 C   0  0  0  0  0  0  0  0  0  0  0  0
  139.3680   79.3580  223.4850 C   0  0  0  0  0  0  0  0  0  0  0  0
  138.4020   78.4420  223.0920 C   0  0  0  0  0  0  0  0  0  0  0  0
  138.7330   77.2170  222.5620 C   0  0  0  0  0  0  0  0  0  0  0  0
  137.7170   76.2120  222.1310 C   0  0  2  0  0  0  0  0  0  0  0  0
  136.7550   76.0180  223.2880 C   0  0  0  0  0  0  0  0  0  0  0  0
  138.3070   74.9100  221.8560 N   0  0  0  0  0  0  0  0  0  0  0  0
  138.1830   74.2670  220.6030 C   0  0  0  0  0  0  0  0  0  0  0  0
  137.5410   74.8250  219.6760 O   0  0  0  0  0  0  0  0  0  0  0  0
  138.8280   72.9400  220.4450 C   0  0  0  0  0  0  0  0  0  0  0  0
  138.8290   72.1540  221.6370 N   0  0  0  0  0  0  0  0  0  0  0  0
  139.7650   72.3420  222.6910 C   0  0  0  0  0  0  0  0  0  0  0  0
  140.6390   73.2520  222.5610 O   0  0  0  0  0  0  0  0  0  0  0  0
  139.7140   71.4970  223.9000 C   0  0  0  0  0  0  0  0  0  0  0  0
  138.9720   70.3360  223.8400 C   0  0  0  0  0  0  0  0  0  0  0  0
  138.9170   69.5430  224.9570 C   0  0  0  0  0  0  0  0  0  0  0  0
  139.5980   69.9110  226.1210 C   0  0  0  0  0  0  0  0  0  0  0  0
  139.5590   69.1330  227.2560 C   0  0  0  0  0  0  0  0  0  0  0  0
  140.2680   69.5750  228.3770 C   0  0  0  0  0  0  0  0  0  0  0  0
  140.9850   70.7530  228.3430 C   0  0  0  0  0  0  0  0  0  0  0  0
  141.0210   71.5390  227.1880 C   0  0  0  0  0  0  0  0  0  0  0  0
  140.3110   71.0910  226.0790 C   0  0  0  0  0  0  0  0  0  0  0  0
  140.3710   71.8750  224.9860 N   0  0  0  0  0  0  0  0  0  0  0  0
  142.4275   75.4638  221.3127 H   0  0  0  0  0  0  0  0  0  0  0  0
  141.2003   74.7012  220.2455 H   0  0  0  0  0  0  0  0  0  0  0  0
  141.4060   76.4856  220.2455 H   0  0  0  0  0  0  0  0  0  0  0  0
  142.1394   77.5325  222.6836 H   0  0  0  0  0  0  0  0  0  0  0  0
  141.4792   79.7356  223.6396 H   0  0  0  0  0  0  0  0  0  0  0  0
  139.0801   80.3318  223.9079 H   0  0  0  0  0  0  0  0  0  0  0  0
  137.3399   78.7038  223.2080 H   0  0  0  0  0  0  0  0  0  0  0  0
  137.2364   76.5832  221.2138 H   0  0  0  0  0  0  0  0  0  0  0  0
  137.2978   76.1275  224.2385 H   0  0  0  0  0  0  0  0  0  0  0  0
  135.9573   76.7734  223.2322 H   0  0  0  0  0  0  0  0  0  0  0  0
  136.3124   75.0125  223.2322 H   0  0  0  0  0  0  0  0  0  0  0  0
  138.8350   74.4630  222.6360 H   0  0  0  0  0  0  0  0  0  0  0  0
  138.2899   72.3838  219.6633 H   0  0  0  0  0  0  0  0  0  0  0  0
  139.8801   73.1245  220.1821 H   0  0  0  0  0  0  0  0  0  0  0  0
  138.1200   71.3780  221.8030 H   0  0  0  0  0  0  0  0  0  0  0  0
  138.4385   70.0538  222.9204 H   0  0  0  0  0  0  0  0  0  0  0  0
  138.3331   68.6110  224.9371 H   0  0  0  0  0  0  0  0  0  0  0  0
  138.9880   68.1931  227.2802 H   0  0  0  0  0  0  0  0  0  0  0  0
  140.2539   68.9751  229.2989 H   0  0  0  0  0  0  0  0  0  0  0  0
  141.5362   71.0783  229.2376 H   0  0  0  0  0  0  0  0  0  0  0  0
  141.5910   72.4793  227.1570 H   0  0  0  0  0  0  0  0  0  0  0  0
  1  2  1  0
  2  3  1  0
  3  4  2  0
  4  5  1  0
  5  6  2  0
  6  7  1  0
  7  8  2  0
  8  9  1  0
  9 10  1  0
  9 11  1  0
 11 12  1  0
 12 13  2  0
 12 14  1  0
 14 15  1  0
 15 16  1  0
 16 17  2  0
 16 18  1  0
 18 19  2  0
 19 20  1  0
 20 21  2  0
 21 22  1  0
 22 23  2  0
 23 24  1  0
 24 25  2  0
 25 26  1  0
 26 27  2  0
  8  3  1  0
 27 18  1  0
 26 21  1  0
  1 28  1  0
  1 29  1  0
  1 30  1  0
  4 31  1  0
  5 32  1  0
  6 33  1  0
  7 34  1  0
  9 35  1  6
 10 36  1  0
 10 37  1  0
 10 38  1  0
 11 39  1  0
 14 40  1  0
 14 41  1  0
 15 42  1  0
 19 43  1  0
 20 44  1  0
 22 45  1  0
 23 46  1  0
 24 47  1  0
 25 48  1  0
M  END
>  <smiles>  (2) 
COc1ccccc1[C@H](C)NC(=O)CNC(=O)c1ccc2ccccc2n1

>  <score_type>  (2) 
oracle

>  <origin>  (2) 
autodockgpu

>  <m_score__min__energy>  (2) 
-8.5299999999999994

>  <m_primary>  (2) 
energy

>  <rmsd>  (2) 
5.02127606232913

>  <m_score__min__rmsd>  (2) 
5.02127606232913

>  <meeko>  (2) 
{"free_energy": -7.84, "intermolecular_energy": -9.63, "internal_energy": -1.93, "cluster_size": 28, "cluster_id": 1, "rank_in_cluster": 19}

>  <energy>  (2) 
-8.29

>  <cluster_rmsd>  (2) 
1.33

>  <cluster>  (2) 
1

$$$$

     RDKit          3D

 48 50  0  0  0  0  0  0  0  0999 V2000
  139.5460   67.5930  226.2740 C   0  0  0  0  0  0  0  0  0  0  0  0
  139.0040   68.8930  226.3670 O   0  0  0  0  0  0  0  0  0  0  0  0
  139.7750   70.0150  226.6730 C   0  0  0  0  0  0  0  0  0  0  0  0
  139.9490   70.3040  228.0300 C   0  0  0  0  0  0  0  0  0  0  0  0
  140.7100   71.4110  228.3560 C   0  0  0  0  0  0  0  0  0  0  0  0
  141.2800   72.2080  227.3760 C   0  0  0  0  0  0  0  0  0  0  0  0
  141.0730   71.8720  226.0460 C   0  0  0  0  0  0  0  0  0  0  0  0
  140.3240   70.7800  225.6780 C   0  0  0  0  0  0  0  0  0  0  0  0
  140.0850   70.3960  224.2560 C   0  0  2  0  0  0  0  0  0  0  0  0
  140.4380   71.5950  223.3980 C   0  0  0  0  0  0  0  0  0  0  0  0
  138.6860   70.0910  223.9920 N   0  0  0  0  0  0  0  0  0  0  0  0
  138.2020   69.7920  222.6970 C   0  0  0  0  0  0  0  0  0  0  0  0
  138.9960   69.7830  221.7210 O   0  0  0  0  0  0  0  0  0  0  0  0
  136.7540   69.4990  222.5550 C   0  0  0  0  0  0  0  0  0  0  0  0
  135.9150   70.3500  223.3370 N   0  0  0  0  0  0  0  0  0  0  0  0
  135.6350   70.1150  224.7120 C   0  0  0  0  0  0  0  0  0  0  0  0
  136.1580   69.1000  225.2640 O   0  0  0  0  0  0  0  0  0  0  0  0
  134.7600   71.0320  225.4670 C   0  0  0  0  0  0  0  0  0  0  0  0
  133.9640   70.4900  226.4560 C   0  0  0  0  0  0  0  0  0  0  0  0
  133.1460   71.3320  227.1640 C   0  0  0  0  0  0  0  0  0  0  0  0
  133.1260   72.7010  226.8840 C   0  0  0  0  0  0  0  0  0  0  0  0
  132.3150   73.5680  227.5800 C   0  0  0  0  0  0  0  0  0  0  0  0
  132.3550   74.9220  227.2350 C   0  0  0  0  0  0  0  0  0  0  0  0
  133.1850   75.3740  226.2300 C   0  0  0  0  0  0  0  0  0  0  0  0
  134.0070   74.4890  225.5260 C   0  0  0  0  0  0  0  0  0  0  0  0
  133.9580   73.1430  225.8760 C   0  0  0  0  0  0  0  0  0  0  0  0
  134.7650   72.3240  225.1760 N   0  0  0  0  0  0  0  0  0  0  0  0
  139.7131   67.1922  227.2847 H   0  0  0  0  0  0  0  0  0  0  0  0
  138.8447   66.9412  225.7324 H   0  0  0  0  0  0  0  0  0  0  0  0
  140.5026   67.6325  225.7324 H   0  0  0  0  0  0  0  0  0  0  0  0
  139.4968   69.6734  228.8097 H   0  0  0  0  0  0  0  0  0  0  0  0
  140.8663   71.6645  229.4149 H   0  0  0  0  0  0  0  0  0  0  0  0
  141.8830   73.0873  227.6466 H   0  0  0  0  0  0  0  0  0  0  0  0
  141.5222   72.4990  225.2617 H   0  0  0  0  0  0  0  0  0  0  0  0
  140.6894   69.5033  224.0371 H   0  0  0  0  0  0  0  0  0  0  0  0
  140.6891   72.4480  224.0455 H   0  0  0  0  0  0  0  0  0  0  0  0
  141.3021   71.3498  222.7630 H   0  0  0  0  0  0  0  0  0  0  0  0
  139.5789   71.8571  222.7630 H   0  0  0  0  0  0  0  0  0  0  0  0
  138.0420   70.1030  224.8120 H   0  0  0  0  0  0  0  0  0  0  0  0
  136.4782   69.6174  221.4967 H   0  0  0  0  0  0  0  0  0  0  0  0
  136.5974   68.4726  222.9182 H   0  0  0  0  0  0  0  0  0  0  0  0
  135.4500   71.2160  222.9280 H   0  0  0  0  0  0  0  0  0  0  0  0
  133.9855   69.4113  226.6703 H   0  0  0  0  0  0  0  0  0  0  0  0
  132.5010   70.9273  227.9579 H   0  0  0  0  0  0  0  0  0  0  0  0
  131.6557   73.2067  228.3830 H   0  0  0  0  0  0  0  0  0  0  0  0
  131.7154   75.6375  227.7726 H   0  0  0  0  0  0  0  0  0  0  0  0
  133.2002   76.4449  225.9792 H   0  0  0  0  0  0  0  0  0  0  0  0
  134.6697   74.8443  224.7231 H   0  0  0  0  0  0  0  0  0  0  0  0
  1  2  1  0
  2  3  1  0
  3  4  2  0
  4  5  1  0
  5  6  2  0
  6  7  1  0
  7  8  2  0
  8  9  1  0
  9 10  1  0
  9 11  1  0
 11 12  1  0
 12 13  2  0
 12 14  1  0
 14 15  1  0
 15 16  1  0
 16 17  2  0
 16 18  1  0
 18 19  2  0
 19 20  1  0
 20 21  2  0
 21 22  1  0
 22 23  2  0
 23 24  1  0
 24 25  2  0
 25 26  1  0
 26 27  2  0
  8  3  1  0
 27 18  1  0
 26 21  1  0
  1 28  1  0
  1 29  1  0
  1 30  1  0
  4 31  1  0
  5 32  1  0
  6 33  1  0
  7 34  1  0
  9 35  1  6
 10 36  1  0
 10 37  1  0
 10 38  1  0
 11 39  1  0
 14 40  1  0
 14 41  1  0
 15 42  1  0
 19 43  1  0
 20 44  1  0
 22 45  1  0
 23 46  1  0
 24 47  1  0
 25 48  1  0
M  END
>  <smiles>  (3) 
COc1ccccc1[C@H](C)NC(=O)CNC(=O)c1ccc2ccccc2n1

>  <score_type>  (3) 
oracle

>  <origin>  (3) 
autodockgpu

>  <m_score__min__energy>  (3) 
-8.5299999999999994

>  <m_primary>  (3) 
energy

>  <rmsd>  (3) 
9.476045564183192

>  <m_score__min__rmsd>  (3) 
9.476045564183192

>  <meeko>  (3) 
{"free_energy": -6.9, "intermolecular_energy": -8.69, "internal_energy": -2.67, "cluster_size": 5, "cluster_id": 5, "rank_in_cluster": 3}

>  <energy>  (3) 
-8.24

>  <cluster_rmsd>  (3) 
0.97

>  <cluster>  (3) 
1

$$$$

     RDKit          3D

 48 50  0  0  0  0  0  0  0  0999 V2000
  142.4580   75.7820  219.9480 C   0  0  0  0  0  0  0  0  0  0  0  0
  142.5700   74.4110  220.2670 O   0  0  0  0  0  0  0  0  0  0  0  0
  143.7890   73.7330  220.2730 C   0  0  0  0  0  0  0  0  0  0  0  0
  144.8850   74.4190  220.8060 C   0  0  0  0  0  0  0  0  0  0  0  0
  146.1030   73.7650  220.8220 C   0  0  0  0  0  0  0  0  0  0  0  0
  146.2370   72.4780  220.3280 C   0  0  0  0  0  0  0  0  0  0  0  0
  145.1140   71.8460  219.8110 C   0  0  0  0  0  0  0  0  0  0  0  0
  143.8840   72.4600  219.7770 C   0  0  0  0  0  0  0  0  0  0  0  0
  142.6610   71.8040  219.2270 C   0  0  2  0  0  0  0  0  0  0  0  0
  142.3490   72.4690  217.9000 C   0  0  0  0  0  0  0  0  0  0  0  0
  141.4960   72.0040  220.0770 N   0  0  0  0  0  0  0  0  0  0  0  0
  140.2370   71.4260  219.7940 C   0  0  0  0  0  0  0  0  0  0  0  0
  140.0970   70.7070  218.7700 O   0  0  0  0  0  0  0  0  0  0  0  0
  139.1250   71.7040  220.7360 C   0  0  0  0  0  0  0  0  0  0  0  0
  139.3220   71.1500  222.0380 N   0  0  0  0  0  0  0  0  0  0  0  0
  140.1080   71.7810  223.0400 C   0  0  0  0  0  0  0  0  0  0  0  0
  140.6600   72.8890  222.7600 O   0  0  0  0  0  0  0  0  0  0  0  0
  140.2740   71.1590  224.3680 C   0  0  0  0  0  0  0  0  0  0  0  0
  140.9310   71.8860  225.3400 C   0  0  0  0  0  0  0  0  0  0  0  0
  141.0900   71.3170  226.5770 C   0  0  0  0  0  0  0  0  0  0  0  0
  140.5980   70.0360  226.8370 C   0  0  0  0  0  0  0  0  0  0  0  0
  140.7450   69.4420  228.0700 C   0  0  0  0  0  0  0  0  0  0  0  0
  140.2230   68.1570  228.2440 C   0  0  0  0  0  0  0  0  0  0  0  0
  139.5800   67.5060  227.2120 C   0  0  0  0  0  0  0  0  0  0  0  0
  139.4340   68.1130  225.9610 C   0  0  0  0  0  0  0  0  0  0  0  0
  139.9570   69.3920  225.7980 C   0  0  0  0  0  0  0  0  0  0  0  0
  139.7950   69.9430  224.5800 N   0  0  0  0  0  0  0  0  0  0  0  0
  142.4098   76.3715  220.8754 H   0  0  0  0  0  0  0  0  0  0  0  0
  143.3336   76.0944  219.3600 H   0  0  0  0  0  0  0  0  0  0  0  0
  141.5433   75.9481  219.3600 H   0  0  0  0  0  0  0  0  0  0  0  0
  144.7817   75.4415  221.1982 H   0  0  0  0  0  0  0  0  0  0  0  0
  146.9840   74.2775  221.2357 H   0  0  0  0  0  0  0  0  0  0  0  0
  147.2114   71.9679  220.3449 H   0  0  0  0  0  0  0  0  0  0  0  0
  145.2111   70.8236  219.4169 H   0  0  0  0  0  0  0  0  0  0  0  0
  142.8593   70.7252  219.1448 H   0  0  0  0  0  0  0  0  0  0  0  0
  141.8882   73.4512  218.0815 H   0  0  0  0  0  0  0  0  0  0  0  0
  143.2794   72.6005  217.3281 H   0  0  0  0  0  0  0  0  0  0  0  0
  141.6532   71.8376  217.3281 H   0  0  0  0  0  0  0  0  0  0  0  0
  141.6310   72.6030  220.9200 H   0  0  0  0  0  0  0  0  0  0  0  0
  139.0185   72.7943  220.8352 H   0  0  0  0  0  0  0  0  0  0  0  0
  138.2244   71.2301  220.3184 H   0  0  0  0  0  0  0  0  0  0  0  0
  138.8840   70.2250  222.3300 H   0  0  0  0  0  0  0  0  0  0  0  0
  141.3164   72.8942  225.1279 H   0  0  0  0  0  0  0  0  0  0  0  0
  141.6092   71.8737  227.3711 H   0  0  0  0  0  0  0  0  0  0  0  0
  141.2572   69.9623  228.8928 H   0  0  0  0  0  0  0  0  0  0  0  0
  140.3266   67.6575  229.2186 H   0  0  0  0  0  0  0  0  0  0  0  0
  139.1767   66.4957  227.3754 H   0  0  0  0  0  0  0  0  0  0  0  0
  138.9234   67.5973  225.1343 H   0  0  0  0  0  0  0  0  0  0  0  0
  1  2  1  0
  2  3  1  0
  3  4  2  0
  4  5  1  0
  5  6  2  0
  6  7  1  0
  7  8  2  0
  8  9  1  0
  9 10  1  0
  9 11  1  0
 11 12  1  0
 12 13  2  0
 12 14  1  0
 14 15  1  0
 15 16  1  0
 16 17  2  0
 16 18  1  0
 18 19  2  0
 19 20  1  0
 20 21  2  0
 21 22  1  0
 22 23  2  0
 23 24  1  0
 24 25  2  0
 25 26  1  0
 26 27  2  0
  8  3  1  0
 27 18  1  0
 26 21  1  0
  1 28  1  0
  1 29  1  0
  1 30  1  0
  4 31  1  0
  5 32  1  0
  6 33  1  0
  7 34  1  0
  9 35  1  6
 10 36  1  0
 10 37  1  0
 10 38  1  0
 11 39  1  0
 14 40  1  0
 14 41  1  0
 15 42  1  0
 19 43  1  0
 20 44  1  0
 22 45  1  0
 23 46  1  0
 24 47  1  0
 25 48  1  0
M  END
>  <smiles>  (4) 
COc1ccccc1[C@H](C)NC(=O)CNC(=O)c1ccc2ccccc2n1

>  <score_type>  (4) 
oracle

>  <origin>  (4) 
autodockgpu

>  <m_score__min__energy>  (4) 
-8.5299999999999994

>  <m_primary>  (4) 
energy

>  <rmsd>  (4) 
7.198295326628464

>  <m_score__min__rmsd>  (4) 
7.198295326628464

>  <meeko>  (4) 
{"free_energy": -6.79, "intermolecular_energy": -8.58, "internal_energy": -2.75, "cluster_size": 7, "cluster_id": 3, "rank_in_cluster": 6}

>  <energy>  (4) 
-8.24

>  <cluster_rmsd>  (4) 
1.43

>  <cluster>  (4) 
1

$$$$

     RDKit          3D

 48 50  0  0  0  0  0  0  0  0999 V2000
  141.3860   75.0150  220.9530 C   0  0  0  0  0  0  0  0  0  0  0  0
  140.3810   75.1870  221.9300 O   0  0  0  0  0  0  0  0  0  0  0  0
  139.9900   76.4410  222.4010 C   0  0  0  0  0  0  0  0  0  0  0  0
  141.0140   77.3440  222.7030 C   0  0  0  0  0  0  0  0  0  0  0  0
  140.6500   78.5920  223.1700 C   0  0  0  0  0  0  0  0  0  0  0  0
  139.3190   78.9400  223.3360 C   0  0  0  0  0  0  0  0  0  0  0  0
  138.3450   78.0030  223.0190 C   0  0  0  0  0  0  0  0  0  0  0  0
  138.6640   76.7500  222.5500 C   0  0  0  0  0  0  0  0  0  0  0  0
  137.6380   75.7230  222.2020 C   0  0  2  0  0  0  0  0  0  0  0  0
  136.6620   75.6500  223.3600 C   0  0  0  0  0  0  0  0  0  0  0  0
  138.2130   74.3940  222.0560 N   0  0  0  0  0  0  0  0  0  0  0  0
  137.5460   73.3450  221.3820 C   0  0  0  0  0  0  0  0  0  0  0  0
  136.4090   73.5490  220.8820 O   0  0  0  0  0  0  0  0  0  0  0  0
  138.2350   72.0340  221.2990 C   0  0  0  0  0  0  0  0  0  0  0  0
  138.5980   71.4930  222.5700 N   0  0  0  0  0  0  0  0  0  0  0  0
  139.7880   71.8560  223.2580 C   0  0  0  0  0  0  0  0  0  0  0  0
  140.5610   72.7010  222.7120 O   0  0  0  0  0  0  0  0  0  0  0  0
  140.1090   71.2620  224.5700 C   0  0  0  0  0  0  0  0  0  0  0  0
  140.9690   71.9570  225.3960 C   0  0  0  0  0  0  0  0  0  0  0  0
  141.2740   71.4140  226.6170 C   0  0  0  0  0  0  0  0  0  0  0  0
  140.7240   70.1910  227.0060 C   0  0  0  0  0  0  0  0  0  0  0  0
  141.0140   69.6240  228.2270 C   0  0  0  0  0  0  0  0  0  0  0  0
  140.4210   68.3970  228.5360 C   0  0  0  0  0  0  0  0  0  0  0  0
  139.5710   67.7750  227.6450 C   0  0  0  0  0  0  0  0  0  0  0  0
  139.2800   68.3540  226.4070 C   0  0  0  0  0  0  0  0  0  0  0  0
  139.8760   69.5750  226.1080 C   0  0  0  0  0  0  0  0  0  0  0  0
  139.5700   70.1010  224.9070 N   0  0  0  0  0  0  0  0  0  0  0  0
  142.3542   74.8493  221.4481 H   0  0  0  0  0  0  0  0  0  0  0  0
  141.1418   74.1456  220.3249 H   0  0  0  0  0  0  0  0  0  0  0  0
  141.4448   75.9161  220.3249 H   0  0  0  0  0  0  0  0  0  0  0  0
  142.0715   77.0704  222.5734 H   0  0  0  0  0  0  0  0  0  0  0  0
  141.4329   79.3248  223.4152 H   0  0  0  0  0  0  0  0  0  0  0  0
  139.0405   79.9361  223.7105 H   0  0  0  0  0  0  0  0  0  0  0  0
  137.2858   78.2708  223.1468 H   0  0  0  0  0  0  0  0  0  0  0  0
  137.1717   76.0135  221.2490 H   0  0  0  0  0  0  0  0  0  0  0  0
  137.2159   75.6914  224.3095 H   0  0  0  0  0  0  0  0  0  0  0  0
  135.9640   76.4985  223.3053 H   0  0  0  0  0  0  0  0  0  0  0  0
  136.0980   74.7072  223.3053 H   0  0  0  0  0  0  0  0  0  0  0  0
  139.1550   74.2440  222.4770 H   0  0  0  0  0  0  0  0  0  0  0  0
  137.5646   71.3209  220.7970 H   0  0  0  0  0  0  0  0  0  0  0  0
  139.1690   72.1972  220.7413 H   0  0  0  0  0  0  0  0  0  0  0  0
  137.9900   70.7810  223.0760 H   0  0  0  0  0  0  0  0  0  0  0  0
  141.3979   72.9204  225.0830 H   0  0  0  0  0  0  0  0  0  0  0  0
  141.9572   71.9457  227.2956 H   0  0  0  0  0  0  0  0  0  0  0  0
  141.6913   70.1214  228.9369 H   0  0  0  0  0  0  0  0  0  0  0  0
  140.6351   67.9201  229.5038 H   0  0  0  0  0  0  0  0  0  0  0  0
  139.1161   66.8100  227.9128 H   0  0  0  0  0  0  0  0  0  0  0  0
  138.6031   67.8614  225.6935 H   0  0  0  0  0  0  0  0  0  0  0  0
  1  2  1  0
  2  3  1  0
  3  4  2  0
  4  5  1  0
  5  6  2  0
  6  7  1  0
  7  8  2  0
  8  9  1  0
  9 10  1  0
  9 11  1  0
 11 12  1  0
 12 13  2  0
 12 14  1  0
 14 15  1  0
 15 16  1  0
 16 17  2  0
 16 18  1  0
 18 19  2  0
 19 20  1  0
 20 21  2  0
 21 22  1  0
 22 23  2  0
 23 24  1  0
 24 25  2  0
 25 26  1  0
 26 27  2  0
  8  3  1  0
 27 18  1  0
 26 21  1  0
  1 28  1  0
  1 29  1  0
  1 30  1  0
  4 31  1  0
  5 32  1  0
  6 33  1  0
  7 34  1  0
  9 35  1  6
 10 36  1  0
 10 37  1  0
 10 38  1  0
 11 39  1  0
 14 40  1  0
 14 41  1  0
 15 42  1  0
 19 43  1  0
 20 44  1  0
 22 45  1  0
 23 46  1  0
 24 47  1  0
 25 48  1  0
M  END
>  <smiles>  (5) 
COc1ccccc1[C@H](C)NC(=O)CNC(=O)c1ccc2ccccc2n1

>  <score_type>  (5) 
oracle

>  <origin>  (5) 
autodockgpu

>  <m_score__min__energy>  (5) 
-8.5299999999999994

>  <m_primary>  (5) 
energy

>  <rmsd>  (5) 
5.113892683287614

>  <m_score__min__rmsd>  (5) 
5.113892683287614

>  <meeko>  (5) 
{"free_energy": -7.39, "intermolecular_energy": -9.18, "internal_energy": -2.39, "cluster_size": 8, "cluster_id": 4, "rank_in_cluster": 5}

>  <energy>  (5) 
-8.2

>  <cluster_rmsd>  (5) 
1.2

>  <cluster>  (5) 
1

$$$$

     RDKit          3D

 48 50  0  0  0  0  0  0  0  0999 V2000
  139.5950   67.5640  226.2630 C   0  0  0  0  0  0  0  0  0  0  0  0
  139.0360   68.8580  226.3630 O   0  0  0  0  0  0  0  0  0  0  0  0
  139.7950   69.9880  226.6690 C   0  0  0  0  0  0  0  0  0  0  0  0
  140.0130   70.2470  228.0260 C   0  0  0  0  0  0  0  0  0  0  0  0
  140.7620   71.3620  228.3530 C   0  0  0  0  0  0  0  0  0  0  0  0
  141.2800   72.1940  227.3740 C   0  0  0  0  0  0  0  0  0  0  0  0
  141.0320   71.8870  226.0430 C   0  0  0  0  0  0  0  0  0  0  0  0
  140.2920   70.7880  225.6750 C   0  0  0  0  0  0  0  0  0  0  0  0
  140.0090   70.4340  224.2530 C   0  0  2  0  0  0  0  0  0  0  0  0
  140.3200   71.6580  223.4120 C   0  0  0  0  0  0  0  0  0  0  0  0
  138.6060   70.1200  224.0290 N   0  0  0  0  0  0  0  0  0  0  0  0
  138.0650   69.9240  222.7370 C   0  0  0  0  0  0  0  0  0  0  0  0
  138.8110   70.0200  221.7280 O   0  0  0  0  0  0  0  0  0  0  0  0
  136.6190   69.6090  222.6370 C   0  0  0  0  0  0  0  0  0  0  0  0
  135.7860   70.4790  223.4060 N   0  0  0  0  0  0  0  0  0  0  0  0
  135.5100   70.2710  224.7850 C   0  0  0  0  0  0  0  0  0  0  0  0
  136.0300   69.2650  225.3550 O   0  0  0  0  0  0  0  0  0  0  0  0
  134.6410   71.2070  225.5260 C   0  0  0  0  0  0  0  0  0  0  0  0
  133.7710   70.6740  226.4560 C   0  0  0  0  0  0  0  0  0  0  0  0
  132.9590   71.5330  227.1490 C   0  0  0  0  0  0  0  0  0  0  0  0
  133.0170   72.9090  226.9140 C   0  0  0  0  0  0  0  0  0  0  0  0
  132.2130   73.7930  227.5970 C   0  0  0  0  0  0  0  0  0  0  0  0
  132.3350   75.1540  227.2990 C   0  0  0  0  0  0  0  0  0  0  0  0
  133.2360   75.5940  226.3510 C   0  0  0  0  0  0  0  0  0  0  0  0
  134.0500   74.6920  225.6610 C   0  0  0  0  0  0  0  0  0  0  0  0
  133.9200   73.3400  225.9630 C   0  0  0  0  0  0  0  0  0  0  0  0
  134.7220   72.5040  225.2780 N   0  0  0  0  0  0  0  0  0  0  0  0
  139.7692   67.1609  227.2715 H   0  0  0  0  0  0  0  0  0  0  0  0
  138.9010   66.9058  225.7198 H   0  0  0  0  0  0  0  0  0  0  0  0
  140.5500   67.6181  225.7198 H   0  0  0  0  0  0  0  0  0  0  0  0
  139.6033   69.5873  228.8050 H   0  0  0  0  0  0  0  0  0  0  0  0
  140.9504   71.5932  229.4118 H   0  0  0  0  0  0  0  0  0  0  0  0
  141.8749   73.0786  227.6453 H   0  0  0  0  0  0  0  0  0  0  0  0
  141.4396   72.5425  225.2593 H   0  0  0  0  0  0  0  0  0  0  0  0
  140.6147   69.5534  223.9929 H   0  0  0  0  0  0  0  0  0  0  0  0
  140.5367   72.5109  224.0720 H   0  0  0  0  0  0  0  0  0  0  0  0
  141.1949   71.4540  222.7772 H   0  0  0  0  0  0  0  0  0  0  0  0
  139.4539   71.8964  222.7772 H   0  0  0  0  0  0  0  0  0  0  0  0
  138.0030   70.0450  224.8760 H   0  0  0  0  0  0  0  0  0  0  0  0
  136.3194   69.6852  221.5813 H   0  0  0  0  0  0  0  0  0  0  0  0
  136.4828   68.5947  223.0404 H   0  0  0  0  0  0  0  0  0  0  0  0
  135.3230   71.3380  222.9820 H   0  0  0  0  0  0  0  0  0  0  0  0
  133.7308   69.5895  226.6357 H   0  0  0  0  0  0  0  0  0  0  0  0
  132.2560   71.1361  227.8962 H   0  0  0  0  0  0  0  0  0  0  0  0
  131.4968   73.4401  228.3536 H   0  0  0  0  0  0  0  0  0  0  0  0
  131.7041   75.8837  227.8276 H   0  0  0  0  0  0  0  0  0  0  0  0
  133.3145   76.6698  226.1355 H   0  0  0  0  0  0  0  0  0  0  0  0
  134.7693   75.0390  224.9046 H   0  0  0  0  0  0  0  0  0  0  0  0
  1  2  1  0
  2  3  1  0
  3  4  2  0
  4  5  1  0
  5  6  2  0
  6  7  1  0
  7  8  2  0
  8  9  1  0
  9 10  1  0
  9 11  1  0
 11 12  1  0
 12 13  2  0
 12 14  1  0
 14 15  1  0
 15 16  1  0
 16 17  2  0
 16 18  1  0
 18 19  2  0
 19 20  1  0
 20 21  2  0
 21 22  1  0
 22 23  2  0
 23 24  1  0
 24 25  2  0
 25 26  1  0
 26 27  2  0
  8  3  1  0
 27 18  1  0
 26 21  1  0
  1 28  1  0
  1 29  1  0
  1 30  1  0
  4 31  1  0
  5 32  1  0
  6 33  1  0
  7 34  1  0
  9 35  1  6
 10 36  1  0
 10 37  1  0
 10 38  1  0
 11 39  1  0
 14 40  1  0
 14 41  1  0
 15 42  1  0
 19 43  1  0
 20 44  1  0
 22 45  1  0
 23 46  1  0
 24 47  1  0
 25 48  1  0
M  END
>  <smiles>  (6) 
COc1ccccc1[C@H](C)NC(=O)CNC(=O)c1ccc2ccccc2n1

>  <score_type>  (6) 
oracle

>  <origin>  (6) 
autodockgpu

>  <m_score__min__energy>  (6) 
-8.5299999999999994

>  <m_primary>  (6) 
energy

>  <rmsd>  (6) 
9.528757045929794

>  <m_score__min__rmsd>  (6) 
9.528757045929794

>  <meeko>  (6) 
{"free_energy": -7.0, "intermolecular_energy": -8.78, "internal_energy": -2.61, "cluster_size": 5, "cluster_id": 5, "rank_in_cluster": 2}

>  <energy>  (6) 
-8.17

>  <cluster_rmsd>  (6) 
0.67

>  <cluster>  (6) 
1

$$$$

     RDKit          3D

 48 50  0  0  0  0  0  0  0  0999 V2000
  137.4860   78.3380  222.4350 C   0  0  0  0  0  0  0  0  0  0  0  0
  138.7860   77.9170  222.0750 O   0  0  0  0  0  0  0  0  0  0  0  0
  139.9380   78.6020  222.4600 C   0  0  0  0  0  0  0  0  0  0  0  0
  139.7770   79.6060  223.4210 C   0  0  0  0  0  0  0  0  0  0  0  0
  140.9050   80.2990  223.8180 C   0  0  0  0  0  0  0  0  0  0  0  0
  142.1520   80.0120  223.2850 C   0  0  0  0  0  0  0  0  0  0  0  0
  142.2510   79.0040  222.3360 C   0  0  0  0  0  0  0  0  0  0  0  0
  141.1540   78.2910  221.9130 C   0  0  0  0  0  0  0  0  0  0  0  0
  141.2310   77.2030  220.8940 C   0  0  2  0  0  0  0  0  0  0  0  0
  140.9300   77.8270  219.5440 C   0  0  0  0  0  0  0  0  0  0  0  0
  140.2280   76.1700  221.1090 N   0  0  0  0  0  0  0  0  0  0  0  0
  140.5660   74.8170  221.3450 C   0  0  0  0  0  0  0  0  0  0  0  0
  141.7760   74.4730  221.3730 O   0  0  0  0  0  0  0  0  0  0  0  0
  139.4540   73.8570  221.5500 C   0  0  0  0  0  0  0  0  0  0  0  0
  139.6330   73.0020  222.6800 N   0  0  0  0  0  0  0  0  0  0  0  0
  139.3700   71.6040  222.6450 C   0  0  0  0  0  0  0  0  0  0  0  0
  138.9560   71.0990  221.5580 O   0  0  0  0  0  0  0  0  0  0  0  0
  139.5740   70.7720  223.8470 C   0  0  0  0  0  0  0  0  0  0  0  0
  139.1860   69.4490  223.7850 C   0  0  0  0  0  0  0  0  0  0  0  0
  139.3710   68.6670  224.8950 C   0  0  0  0  0  0  0  0  0  0  0  0
  139.9380   69.2040  226.0540 C   0  0  0  0  0  0  0  0  0  0  0  0
  140.1350   68.4400  227.1820 C   0  0  0  0  0  0  0  0  0  0  0  0
  140.7070   69.0570  228.2980 C   0  0  0  0  0  0  0  0  0  0  0  0
  141.0640   70.3890  228.2680 C   0  0  0  0  0  0  0  0  0  0  0  0
  140.8620   71.1600  227.1200 C   0  0  0  0  0  0  0  0  0  0  0  0
  140.2910   70.5370  226.0140 C   0  0  0  0  0  0  0  0  0  0  0  0
  140.1130   71.3130  224.9280 N   0  0  0  0  0  0  0  0  0  0  0  0
  137.4000   78.3658  223.5313 H   0  0  0  0  0  0  0  0  0  0  0  0
  137.2997   79.3424  222.0270 H   0  0  0  0  0  0  0  0  0  0  0  0
  136.7463   77.6335  222.0270 H   0  0  0  0  0  0  0  0  0  0  0  0
  138.7884   79.8355  223.8453 H   0  0  0  0  0  0  0  0  0  0  0  0
  140.8113   81.0943  224.5721 H   0  0  0  0  0  0  0  0  0  0  0  0
  143.0432   80.5706  223.6070 H   0  0  0  0  0  0  0  0  0  0  0  0
  143.2371   78.7683  221.9093 H   0  0  0  0  0  0  0  0  0  0  0  0
  142.2292   76.7453  220.9571 H   0  0  0  0  0  0  0  0  0  0  0  0
  140.4564   78.8088  219.6913 H   0  0  0  0  0  0  0  0  0  0  0  0
  141.8666   77.9525  218.9810 H   0  0  0  0  0  0  0  0  0  0  0  0
  140.2488   77.1720  218.9810 H   0  0  0  0  0  0  0  0  0  0  0  0
  139.2310   76.4740  221.0830 H   0  0  0  0  0  0  0  0  0  0  0  0
  138.5242   74.4278  221.6905 H   0  0  0  0  0  0  0  0  0  0  0  0
  139.4201   73.2106  220.6606 H   0  0  0  0  0  0  0  0  0  0  0  0
  139.9770   73.3680  223.6170 H   0  0  0  0  0  0  0  0  0  0  0  0
  138.7403   69.0334  222.8692 H   0  0  0  0  0  0  0  0  0  0  0  0
  139.0710   67.6089  224.8736 H   0  0  0  0  0  0  0  0  0  0  0  0
  139.8512   67.3775  227.2043 H   0  0  0  0  0  0  0  0  0  0  0  0
  140.8750   68.4716  229.2140 H   0  0  0  0  0  0  0  0  0  0  0  0
  141.5137   70.8505  229.1595 H   0  0  0  0  0  0  0  0  0  0  0  0
  141.1446   72.2227  227.0914 H   0  0  0  0  0  0  0  0  0  0  0  0
  1  2  1  0
  2  3  1  0
  3  4  2  0
  4  5  1  0
  5  6  2  0
  6  7  1  0
  7  8  2  0
  8  9  1  0
  9 10  1  0
  9 11  1  0
 11 12  1  0
 12 13  2  0
 12 14  1  0
 14 15  1  0
 15 16  1  0
 16 17  2  0
 16 18  1  0
 18 19  2  0
 19 20  1  0
 20 21  2  0
 21 22  1  0
 22 23  2  0
 23 24  1  0
 24 25  2  0
 25 26  1  0
 26 27  2  0
  8  3  1  0
 27 18  1  0
 26 21  1  0
  1 28  1  0
  1 29  1  0
  1 30  1  0
  4 31  1  0
  5 32  1  0
  6 33  1  0
  7 34  1  0
  9 35  1  6
 10 36  1  0
 10 37  1  0
 10 38  1  0
 11 39  1  0
 14 40  1  0
 14 41  1  0
 15 42  1  0
 19 43  1  0
 20 44  1  0
 22 45  1  0
 23 46  1  0
 24 47  1  0
 25 48  1  0
M  END
>  <smiles>  (7) 
COc1ccccc1[C@H](C)NC(=O)CNC(=O)c1ccc2ccccc2n1

>  <score_type>  (7) 
oracle

>  <origin>  (7) 
autodockgpu

>  <m_score__min__energy>  (7) 
-8.5299999999999994

>  <m_primary>  (7) 
energy

>  <rmsd>  (7) 
4.1749965176125645

>  <m_score__min__rmsd>  (7) 
4.1749965176125645

>  <meeko>  (7) 
{"free_energy": -7.66, "intermolecular_energy": -9.45, "internal_energy": -1.81, "cluster_size": 28, "cluster_id": 1, "rank_in_cluster": 23}

>  <energy>  (7) 
-8.14

>  <cluster_rmsd>  (7) 
1.24

>  <cluster>  (7) 
1

$$$$

     RDKit          3D

 48 50  0  0  0  0  0  0  0  0999 V2000
  139.7870   67.4850  226.1700 C   0  0  0  0  0  0  0  0  0  0  0  0
  139.1860   68.7590  226.2760 O   0  0  0  0  0  0  0  0  0  0  0  0
  139.9030   69.9080  226.6120 C   0  0  0  0  0  0  0  0  0  0  0  0
  140.1450   70.1180  227.9740 C   0  0  0  0  0  0  0  0  0  0  0  0
  140.8530   71.2500  228.3310 C   0  0  0  0  0  0  0  0  0  0  0  0
  141.3080   72.1460  227.3770 C   0  0  0  0  0  0  0  0  0  0  0  0
  141.0390   71.8850  226.0410 C   0  0  0  0  0  0  0  0  0  0  0  0
  140.3380   70.7710  225.6430 C   0  0  0  0  0  0  0  0  0  0  0  0
  140.0340   70.4660  224.2130 C   0  0  2  0  0  0  0  0  0  0  0  0
  140.3110   71.7240  223.4140 C   0  0  0  0  0  0  0  0  0  0  0  0
  138.6310   70.1380  224.0040 N   0  0  0  0  0  0  0  0  0  0  0  0
  138.0450   70.0840  222.7180 C   0  0  0  0  0  0  0  0  0  0  0  0
  138.7480   70.3260  221.7020 O   0  0  0  0  0  0  0  0  0  0  0  0
  136.6050   69.7390  222.6330 C   0  0  0  0  0  0  0  0  0  0  0  0
  135.7610   70.5980  223.4010 N   0  0  0  0  0  0  0  0  0  0  0  0
  135.4990   70.3960  224.7840 C   0  0  0  0  0  0  0  0  0  0  0  0
  136.0430   69.4040  225.3570 O   0  0  0  0  0  0  0  0  0  0  0  0
  134.6170   71.3200  225.5240 C   0  0  0  0  0  0  0  0  0  0  0  0
  133.6660   70.7680  226.3580 C   0  0  0  0  0  0  0  0  0  0  0  0
  132.8410   71.6160  227.0500 C   0  0  0  0  0  0  0  0  0  0  0  0
  132.9670   73.0000  226.9070 C   0  0  0  0  0  0  0  0  0  0  0  0
  132.1520   73.8740  227.5910 C   0  0  0  0  0  0  0  0  0  0  0  0
  132.3460   75.2440  227.3890 C   0  0  0  0  0  0  0  0  0  0  0  0
  133.3250   75.7030  226.5330 C   0  0  0  0  0  0  0  0  0  0  0  0
  134.1500   74.8120  225.8420 C   0  0  0  0  0  0  0  0  0  0  0  0
  133.9480   73.4510  226.0480 C   0  0  0  0  0  0  0  0  0  0  0  0
  134.7630   72.6260  225.3650 N   0  0  0  0  0  0  0  0  0  0  0  0
  139.9762   67.0839  227.1767 H   0  0  0  0  0  0  0  0  0  0  0  0
  139.1141   66.8063  225.6254 H   0  0  0  0  0  0  0  0  0  0  0  0
  140.7387   67.5727  225.6254 H   0  0  0  0  0  0  0  0  0  0  0  0
  139.7849   69.4079  228.7330 H   0  0  0  0  0  0  0  0  0  0  0  0
  141.0595   71.4436  229.3940 H   0  0  0  0  0  0  0  0  0  0  0  0
  141.8700   73.0443  227.6722 H   0  0  0  0  0  0  0  0  0  0  0  0
  141.3974   72.5907  225.2771 H   0  0  0  0  0  0  0  0  0  0  0  0
  140.6480   69.6058  223.9079 H   0  0  0  0  0  0  0  0  0  0  0  0
  140.4956   72.5622  224.1020 H   0  0  0  0  0  0  0  0  0  0  0  0
  141.1964   71.5682  222.7801 H   0  0  0  0  0  0  0  0  0  0  0  0
  139.4421   71.9545  222.7801 H   0  0  0  0  0  0  0  0  0  0  0  0
  138.0650   69.9410  224.8560 H   0  0  0  0  0  0  0  0  0  0  0  0
  136.2952   69.7998  221.5793 H   0  0  0  0  0  0  0  0  0  0  0  0
  136.4929   68.7258  223.0465 H   0  0  0  0  0  0  0  0  0  0  0  0
  135.2780   71.4450  222.9740 H   0  0  0  0  0  0  0  0  0  0  0  0
  133.5727   69.6771  226.4645 H   0  0  0  0  0  0  0  0  0  0  0  0
  132.0743   71.2040  227.7227 H   0  0  0  0  0  0  0  0  0  0  0  0
  131.3728   73.5061  228.2748 H   0  0  0  0  0  0  0  0  0  0  0  0
  131.7086   75.9660  227.9205 H   0  0  0  0  0  0  0  0  0  0  0  0
  133.4582   76.7858  226.3923 H   0  0  0  0  0  0  0  0  0  0  0  0
  134.9323   75.1741  225.1586 H   0  0  0  0  0  0  0  0  0  0  0  0
  1  2  1  0
  2  3  1  0
  3  4  2  0
  4  5  1  0
  5  6  2  0
  6  7  1  0
  7  8  2  0
  8  9  1  0
  9 10  1  0
  9 11  1  0
 11 12  1  0
 12 13  2  0
 12 14  1  0
 14 15  1  0
 15 16  1  0
 16 17  2  0
 16 18  1  0
 18 19  2  0
 19 20  1  0
 20 21  2  0
 21 22  1  0
 22 23  2  0
 23 24  1  0
 24 25  2  0
 25 26  1  0
 26 27  2  0
  8  3  1  0
 27 18  1  0
 26 21  1  0
  1 28  1  0
  1 29  1  0
  1 30  1  0
  4 31  1  0
  5 32  1  0
  6 33  1  0
  7 34  1  0
  9 35  1  6
 10 36  1  0
 10 37  1  0
 10 38  1  0
 11 39  1  0
 14 40  1  0
 14 41  1  0
 15 42  1  0
 19 43  1  0
 20 44  1  0
 22 45  1  0
 23 46  1  0
 24 47  1  0
 25 48  1  0
M  END
>  <smiles>  (8) 
COc1ccccc1[C@H](C)NC(=O)CNC(=O)c1ccc2ccccc2n1

>  <score_type>  (8) 
oracle

>  <origin>  (8) 
autodockgpu

>  <m_score__min__energy>  (8) 
-8.5299999999999994

>  <m_primary>  (8) 
energy

>  <rmsd>  (8) 
9.54877809336705

>  <m_score__min__rmsd>  (8) 
9.54877809336705

>  <meeko>  (8) 
{"free_energy": -7.0, "intermolecular_energy": -8.79, "internal_energy": -2.5, "cluster_size": 5, "cluster_id": 5, "rank_in_cluster": 1}

>  <energy>  (8) 
-8.13

>  <cluster_rmsd>  (8) 
1.33

>  <cluster>  (8) 
1

$$$$

     RDKit          3D

 48 50  0  0  0  0  0  0  0  0999 V2000
  141.8650   78.9820  219.2370 C   0  0  0  0  0  0  0  0  0  0  0  0
  141.2660   79.8340  220.1910 O   0  0  0  0  0  0  0  0  0  0  0  0
  141.5770   79.7860  221.5510 C   0  0  0  0  0  0  0  0  0  0  0  0
  142.5400   80.6920  222.0050 C   0  0  0  0  0  0  0  0  0  0  0  0
  142.8640   80.6620  223.3480 C   0  0  0  0  0  0  0  0  0  0  0  0
  142.2580   79.7670  224.2160 C   0  0  0  0  0  0  0  0  0  0  0  0
  141.3080   78.8920  223.7090 C   0  0  0  0  0  0  0  0  0  0  0  0
  140.9570   78.8890  222.3790 C   0  0  0  0  0  0  0  0  0  0  0  0
  139.9400   77.9580  221.8060 C   0  0  2  0  0  0  0  0  0  0  0  0
  138.7620   77.9320  222.7610 C   0  0  0  0  0  0  0  0  0  0  0  0
  140.4310   76.5910  221.7120 N   0  0  0  0  0  0  0  0  0  0  0  0
  139.6780   75.5490  221.1220 C   0  0  0  0  0  0  0  0  0  0  0  0
  138.5350   75.7940  220.6550 O   0  0  0  0  0  0  0  0  0  0  0  0
  140.2860   74.1970  221.0860 C   0  0  0  0  0  0  0  0  0  0  0  0
  140.0750   73.4380  222.2780 N   0  0  0  0  0  0  0  0  0  0  0  0
  140.5050   72.0910  222.4280 C   0  0  0  0  0  0  0  0  0  0  0  0
  141.1030   71.5410  221.4540 O   0  0  0  0  0  0  0  0  0  0  0  0
  140.2580   71.3590  223.6860 C   0  0  0  0  0  0  0  0  0  0  0  0
  139.5860   70.1570  223.6070 C   0  0  0  0  0  0  0  0  0  0  0  0
  139.3500   69.4690  224.7690 C   0  0  0  0  0  0  0  0  0  0  0  0
  139.7830   69.9800  225.9950 C   0  0  0  0  0  0  0  0  0  0  0  0
  139.5600   69.3090  227.1760 C   0  0  0  0  0  0  0  0  0  0  0  0
  140.0260   69.8920  228.3580 C   0  0  0  0  0  0  0  0  0  0  0  0
  140.6900   71.1010  228.3390 C   0  0  0  0  0  0  0  0  0  0  0  0
  140.9140   71.7780  227.1370 C   0  0  0  0  0  0  0  0  0  0  0  0
  140.4450   71.1900  225.9660 C   0  0  0  0  0  0  0  0  0  0  0  0
  140.6820   71.8720  224.8300 N   0  0  0  0  0  0  0  0  0  0  0  0
  142.4234   78.1878  219.7541 H   0  0  0  0  0  0  0  0  0  0  0  0
  141.0843   78.5308  218.6070 H   0  0  0  0  0  0  0  0  0  0  0  0
  142.5538   79.5639  218.6070 H   0  0  0  0  0  0  0  0  0  0  0  0
  143.0223   81.4030  221.3181 H   0  0  0  0  0  0  0  0  0  0  0  0
  143.6181   81.3625  223.7362 H   0  0  0  0  0  0  0  0  0  0  0  0
  142.5244   79.7509  225.2831 H   0  0  0  0  0  0  0  0  0  0  0  0
  140.8210   78.1794  224.3910 H   0  0  0  0  0  0  0  0  0  0  0  0
  139.6828   78.3120  220.7968 H   0  0  0  0  0  0  0  0  0  0  0  0
  139.1301   77.9401  223.7976 H   0  0  0  0  0  0  0  0  0  0  0  0
  138.1310   78.8164  222.5890 H   0  0  0  0  0  0  0  0  0  0  0  0
  138.1706   77.0206  222.5890 H   0  0  0  0  0  0  0  0  0  0  0  0
  141.3790   76.4070  222.1050 H   0  0  0  0  0  0  0  0  0  0  0  0
  139.8510   73.6435  220.2408 H   0  0  0  0  0  0  0  0  0  0  0  0
  141.3722   74.3368  220.9832 H   0  0  0  0  0  0  0  0  0  0  0  0
  139.5810   73.8460  223.1270 H   0  0  0  0  0  0  0  0  0  0  0  0
  139.2486   69.7612  222.6377 H   0  0  0  0  0  0  0  0  0  0  0  0
  138.8160   68.5079  224.7358 H   0  0  0  0  0  0  0  0  0  0  0  0
  139.0317   68.3443  227.1893 H   0  0  0  0  0  0  0  0  0  0  0  0
  139.8608   69.3793  229.3171 H   0  0  0  0  0  0  0  0  0  0  0  0
  141.0481   71.5382  229.2828 H   0  0  0  0  0  0  0  0  0  0  0  0
  141.4428   72.7424  227.1172 H   0  0  0  0  0  0  0  0  0  0  0  0
  1  2  1  0
  2  3  1  0
  3  4  2  0
  4  5  1  0
  5  6  2  0
  6  7  1  0
  7  8  2  0
  8  9  1  0
  9 10  1  0
  9 11  1  0
 11 12  1  0
 12 13  2  0
 12 14  1  0
 14 15  1  0
 15 16  1  0
 16 17  2  0
 16 18  1  0
 18 19  2  0
 19 20  1  0
 20 21  2  0
 21 22  1  0
 22 23  2  0
 23 24  1  0
 24 25  2  0
 25 26  1  0
 26 27  2  0
  8  3  1  0
 27 18  1  0
 26 21  1  0
  1 28  1  0
  1 29  1  0
  1 30  1  0
  4 31  1  0
  5 32  1  0
  6 33  1  0
  7 34  1  0
  9 35  1  6
 10 36  1  0
 10 37  1  0
 10 38  1  0
 11 39  1  0
 14 40  1  0
 14 41  1  0
 15 42  1  0
 19 43  1  0
 20 44  1  0
 22 45  1  0
 23 46  1  0
 24 47  1  0
 25 48  1  0
M  END
>  <smiles>  (9) 
COc1ccccc1[C@H](C)NC(=O)CNC(=O)c1ccc2ccccc2n1

>  <score_type>  (9) 
oracle

>  <origin>  (9) 
autodockgpu

>  <m_score__min__energy>  (9) 
-8.5299999999999994

>  <m_primary>  (9) 
energy

>  <rmsd>  (9) 
4.24309752652326

>  <m_score__min__rmsd>  (9) 
4.24309752652326

>  <meeko>  (9) 
{"free_energy": -8.53, "intermolecular_energy": -10.32, "internal_energy": -1.0, "cluster_size": 28, "cluster_id": 1, "rank_in_cluster": 1}

>  <energy>  (9) 
-8.12

>  <cluster_rmsd>  (9) 
1.2

>  <cluster>  (9) 
1

$$$$

     RDKit          3D

 48 50  0  0  0  0  0  0  0  0999 V2000
  137.6110   77.9910  222.4950 C   0  0  0  0  0  0  0  0  0  0  0  0
  138.8230   78.2420  221.8160 O   0  0  0  0  0  0  0  0  0  0  0  0
  139.8960   78.9120  222.4050 C   0  0  0  0  0  0  0  0  0  0  0  0
  139.5800   79.9890  223.2400 C   0  0  0  0  0  0  0  0  0  0  0  0
  140.6280   80.6670  223.8340 C   0  0  0  0  0  0  0  0  0  0  0  0
  141.9440   80.2960  223.6130 C   0  0  0  0  0  0  0  0  0  0  0  0
  142.1980   79.2190  222.7750 C   0  0  0  0  0  0  0  0  0  0  0  0
  141.1850   78.5170  222.1640 C   0  0  0  0  0  0  0  0  0  0  0  0
  141.4280   77.3550  221.2590 C   0  0  2  0  0  0  0  0  0  0  0  0
  141.3280   77.8640  219.8340 C   0  0  0  0  0  0  0  0  0  0  0  0
  140.4160   76.3190  221.4040 N   0  0  0  0  0  0  0  0  0  0  0  0
  140.5740   75.0200  220.8680 C   0  0  0  0  0  0  0  0  0  0  0  0
  141.6240   74.7280  220.2380 O   0  0  0  0  0  0  0  0  0  0  0  0
  139.4710   74.0500  221.0810 C   0  0  0  0  0  0  0  0  0  0  0  0
  139.5670   73.3300  222.3110 N   0  0  0  0  0  0  0  0  0  0  0  0
  139.8140   71.9310  222.3750 C   0  0  0  0  0  0  0  0  0  0  0  0
  139.9550   71.2980  221.2850 O   0  0  0  0  0  0  0  0  0  0  0  0
  139.9030   71.2430  223.6780 C   0  0  0  0  0  0  0  0  0  0  0  0
  139.4640   69.9360  223.7440 C   0  0  0  0  0  0  0  0  0  0  0  0
  139.5420   69.2870  224.9480 C   0  0  0  0  0  0  0  0  0  0  0  0
  140.0520   69.9390  226.0730 C   0  0  0  0  0  0  0  0  0  0  0  0
  140.1410   69.3110  227.2950 C   0  0  0  0  0  0  0  0  0  0  0  0
  140.6630   70.0370  228.3690 C   0  0  0  0  0  0  0  0  0  0  0  0
  141.0780   71.3430  228.2070 C   0  0  0  0  0  0  0  0  0  0  0  0
  140.9860   71.9770  226.9650 C   0  0  0  0  0  0  0  0  0  0  0  0
  140.4630   71.2450  225.9030 C   0  0  0  0  0  0  0  0  0  0  0  0
  140.3920   71.8910  224.7240 N   0  0  0  0  0  0  0  0  0  0  0  0
  137.7846   78.0270  223.5806 H   0  0  0  0  0  0  0  0  0  0  0  0
  136.8698   78.7547  222.2167 H   0  0  0  0  0  0  0  0  0  0  0  0
  137.2341   76.9957  222.2167 H   0  0  0  0  0  0  0  0  0  0  0  0
  138.5357   80.2855  223.4174 H   0  0  0  0  0  0  0  0  0  0  0  0
  140.4124   81.5187  224.4958 H   0  0  0  0  0  0  0  0  0  0  0  0
  142.7699   80.8430  224.0912 H   0  0  0  0  0  0  0  0  0  0  0  0
  143.2404   78.9179  222.5941 H   0  0  0  0  0  0  0  0  0  0  0  0
  142.4105   76.9273  221.5076 H   0  0  0  0  0  0  0  0  0  0  0  0
  141.1160   78.9433  219.8442 H   0  0  0  0  0  0  0  0  0  0  0  0
  142.2791   77.6821  219.3121 H   0  0  0  0  0  0  0  0  0  0  0  0
  140.5165   77.3358  219.3121 H   0  0  0  0  0  0  0  0  0  0  0  0
  139.5540   76.5790  221.9280 H   0  0  0  0  0  0  0  0  0  0  0  0
  138.5187   74.6006  221.0746 H   0  0  0  0  0  0  0  0  0  0  0  0
  139.5340   73.3094  220.2701 H   0  0  0  0  0  0  0  0  0  0  0  0
  139.4580   73.8080  223.2560 H   0  0  0  0  0  0  0  0  0  0  0  0
  139.0624   69.4293  222.8541 H   0  0  0  0  0  0  0  0  0  0  0  0
  139.2004   68.2446  225.0293 H   0  0  0  0  0  0  0  0  0  0  0  0
  139.8112   68.2693  227.4221 H   0  0  0  0  0  0  0  0  0  0  0  0
  140.7442   69.5607  229.3572 H   0  0  0  0  0  0  0  0  0  0  0  0
  141.4870   71.8928  229.0675 H   0  0  0  0  0  0  0  0  0  0  0  0
  141.3153   73.0180  226.8314 H   0  0  0  0  0  0  0  0  0  0  0  0
  1  2  1  0
  2  3  1  0
  3  4  2  0
  4  5  1  0
  5  6  2  0
  6  7  1  0
  7  8  2  0
  8  9  1  0
  9 10  1  0
  9 11  1  0
 11 12  1  0
 12 13  2  0
 12 14  1  0
 14 15  1  0
 15 16  1  0
 16 17  2  0
 16 18  1  0
 18 19  2  0
 19 20  1  0
 20 21  2  0
 21 22  1  0
 22 23  2  0
 23 24  1  0
 24 25  2  0
 25 26  1  0
 26 27  2  0
  8  3  1  0
 27 18  1  0
 26 21  1  0
  1 28  1  0
  1 29  1  0
  1 30  1  0
  4 31  1  0
  5 32  1  0
  6 33  1  0
  7 34  1  0
  9 35  1  1
 10 36  1  0
 10 37  1  0
 10 38  1  0
 11 39  1  0
 14 40  1  0
 14 41  1  0
 15 42  1  0
 19 43  1  0
 20 44  1  0
 22 45  1  0
 23 46  1  0
 24 47  1  0
 25 48  1  0
M  END
>  <smiles>  (10) 
COc1ccccc1[C@H](C)NC(=O)CNC(=O)c1ccc2ccccc2n1

>  <score_type>  (10) 
oracle

>  <origin>  (10) 
autodockgpu

>  <m_score__min__energy>  (10) 
-8.5299999999999994

>  <m_primary>  (10) 
energy

>  <rmsd>  (10) 
4.014467392178693

>  <m_score__min__rmsd>  (10) 
4.014467392178693

>  <meeko>  (10) 
{"free_energy": -7.89, "intermolecular_energy": -9.68, "internal_energy": -1.69, "cluster_size": 28, "cluster_id": 1, "rank_in_cluster": 16}

>  <energy>  (10) 
-8.11

>  <cluster_rmsd>  (10) 
1.3

>  <cluster>  (10) 
1

$$$$

     RDKit          3D

 48 50  0  0  0  0  0  0  0  0999 V2000
  137.8870   78.5900  221.1600 C   0  0  0  0  0  0  0  0  0  0  0  0
  138.8560   77.9890  221.9950 O   0  0  0  0  0  0  0  0  0  0  0  0
  139.9650   78.6790  222.4840 C   0  0  0  0  0  0  0  0  0  0  0  0
  139.7060   79.7660  223.3250 C   0  0  0  0  0  0  0  0  0  0  0  0
  140.7910   80.4640  223.8210 C   0  0  0  0  0  0  0  0  0  0  0  0
  142.0890   80.1020  223.4990 C   0  0  0  0  0  0  0  0  0  0  0  0
  142.2860   79.0140  222.6610 C   0  0  0  0  0  0  0  0  0  0  0  0
  141.2350   78.2920  222.1460 C   0  0  0  0  0  0  0  0  0  0  0  0
  141.4170   77.1180  221.2420 C   0  0  2  0  0  0  0  0  0  0  0  0
  141.2800   77.6190  219.8170 C   0  0  0  0  0  0  0  0  0  0  0  0
  140.3840   76.1100  221.4300 N   0  0  0  0  0  0  0  0  0  0  0  0
  140.6540   74.7230  221.3740 C   0  0  0  0  0  0  0  0  0  0  0  0
  141.8270   74.3240  221.1550 O   0  0  0  0  0  0  0  0  0  0  0  0
  139.5170   73.7920  221.5820 C   0  0  0  0  0  0  0  0  0  0  0  0
  139.6670   72.9450  222.7220 N   0  0  0  0  0  0  0  0  0  0  0  0
  139.4590   71.5390  222.6770 C   0  0  0  0  0  0  0  0  0  0  0  0
  139.1260   71.0170  221.5700 O   0  0  0  0  0  0  0  0  0  0  0  0
  139.6300   70.7150  223.8900 C   0  0  0  0  0  0  0  0  0  0  0  0
  139.2100   69.4020  223.8380 C   0  0  0  0  0  0  0  0  0  0  0  0
  139.3630   68.6280  224.9590 C   0  0  0  0  0  0  0  0  0  0  0  0
  139.9300   69.1640  226.1180 C   0  0  0  0  0  0  0  0  0  0  0  0
  140.0960   68.4090  227.2570 C   0  0  0  0  0  0  0  0  0  0  0  0
  140.6710   69.0240  228.3720 C   0  0  0  0  0  0  0  0  0  0  0  0
  141.0620   70.3460  228.3310 C   0  0  0  0  0  0  0  0  0  0  0  0
  140.8920   71.1090  227.1720 C   0  0  0  0  0  0  0  0  0  0  0  0
  140.3170   70.4870  226.0680 C   0  0  0  0  0  0  0  0  0  0  0  0
  140.1710   71.2550  224.9710 N   0  0  0  0  0  0  0  0  0  0  0  0
  137.1149   79.0689  221.7801 H   0  0  0  0  0  0  0  0  0  0  0  0
  138.3693   79.3477  220.5250 H   0  0  0  0  0  0  0  0  0  0  0  0
  137.4226   77.8212  220.5250 H   0  0  0  0  0  0  0  0  0  0  0  0
  138.6763   80.0549  223.5824 H   0  0  0  0  0  0  0  0  0  0  0  0
  140.6205   81.3244  224.4849 H   0  0  0  0  0  0  0  0  0  0  0  0
  142.9450   80.6651  223.8992 H   0  0  0  0  0  0  0  0  0  0  0  0
  143.3136   78.7201  222.4007 H   0  0  0  0  0  0  0  0  0  0  0  0
  142.3966   76.6673  221.4596 H   0  0  0  0  0  0  0  0  0  0  0  0
  140.9899   78.6800  219.8277 H   0  0  0  0  0  0  0  0  0  0  0  0
  142.2417   77.5071  219.2949 H   0  0  0  0  0  0  0  0  0  0  0  0
  140.5091   77.0333  219.2949 H   0  0  0  0  0  0  0  0  0  0  0  0
  139.4180   76.4580  221.6110 H   0  0  0  0  0  0  0  0  0  0  0  0
  138.6006   74.3868  221.7100 H   0  0  0  0  0  0  0  0  0  0  0  0
  139.4737   73.1368  220.6995 H   0  0  0  0  0  0  0  0  0  0  0  0
  139.9450   73.3250  223.6760 H   0  0  0  0  0  0  0  0  0  0  0  0
  138.7644   68.9873  222.9218 H   0  0  0  0  0  0  0  0  0  0  0  0
  139.0371   67.5775  224.9460 H   0  0  0  0  0  0  0  0  0  0  0  0
  139.7856   67.3542  227.2884 H   0  0  0  0  0  0  0  0  0  0  0  0
  140.8140   68.4452  229.2964 H   0  0  0  0  0  0  0  0  0  0  0  0
  141.5137   70.8062  229.2222 H   0  0  0  0  0  0  0  0  0  0  0  0
  141.2018   72.1638  227.1341 H   0  0  0  0  0  0  0  0  0  0  0  0
  1  2  1  0
  2  3  1  0
  3  4  2  0
  4  5  1  0
  5  6  2  0
  6  7  1  0
  7  8  2  0
  8  9  1  0
  9 10  1  0
  9 11  1  0
 11 12  1  0
 12 13  2  0
 12 14  1  0
 14 15  1  0
 15 16  1  0
 16 17  2  0
 16 18  1  0
 18 19  2  0
 19 20  1  0
 20 21  2  0
 21 22  1  0
 22 23  2  0
 23 24  1  0
 24 25  2  0
 25 26  1  0
 26 27  2  0
  8  3  1  0
 27 18  1  0
 26 21  1  0
  1 28  1  0
  1 29  1  0
  1 30  1  0
  4 31  1  0
  5 32  1  0
  6 33  1  0
  7 34  1  0
  9 35  1  6
 10 36  1  0
 10 37  1  0
 10 38  1  0
 11 39  1  0
 14 40  1  0
 14 41  1  0
 15 42  1  0
 19 43  1  0
 20 44  1  0
 22 45  1  0
 23 46  1  0
 24 47  1  0
 25 48  1  0
M  END
>  <smiles>  (11) 
COc1ccccc1[C@H](C)NC(=O)CNC(=O)c1ccc2ccccc2n1

>  <score_type>  (11) 
oracle

>  <origin>  (11) 
autodockgpu

>  <m_score__min__energy>  (11) 
-8.5299999999999994

>  <m_primary>  (11) 
energy

>  <rmsd>  (11) 
4.167773506472594

>  <m_score__min__rmsd>  (11) 
4.167773506472594

>  <meeko>  (11) 
{"free_energy": -7.71, "intermolecular_energy": -9.5, "internal_energy": -1.82, "cluster_size": 28, "cluster_id": 1, "rank_in_cluster": 22}

>  <energy>  (11) 
-8.08

>  <cluster_rmsd>  (11) 
0.71

>  <cluster>  (11) 
1

$$$$

     RDKit          3D

 48 50  0  0  0  0  0  0  0  0999 V2000
  142.1150   76.5760  220.1050 C   0  0  0  0  0  0  0  0  0  0  0  0
  141.0020   76.4090  220.9590 O   0  0  0  0  0  0  0  0  0  0  0  0
  140.5740   77.3960  221.8470 C   0  0  0  0  0  0  0  0  0  0  0  0
  141.5490   78.2840  222.3130 C   0  0  0  0  0  0  0  0  0  0  0  0
  141.1480   79.2710  223.1930 C   0  0  0  0  0  0  0  0  0  0  0  0
  139.8280   79.3790  223.6010 C   0  0  0  0  0  0  0  0  0  0  0  0
  138.9040   78.4710  223.1050 C   0  0  0  0  0  0  0  0  0  0  0  0
  139.2610   77.4740  222.2280 C   0  0  0  0  0  0  0  0  0  0  0  0
  138.2890   76.4830  221.6780 C   0  0  2  0  0  0  0  0  0  0  0  0
  137.2370   76.2440  222.7440 C   0  0  0  0  0  0  0  0  0  0  0  0
  138.9080   75.1940  221.4060 N   0  0  0  0  0  0  0  0  0  0  0  0
  138.2700   74.1890  220.6420 C   0  0  0  0  0  0  0  0  0  0  0  0
  137.1220   74.3980  220.1700 O   0  0  0  0  0  0  0  0  0  0  0  0
  139.0020   72.9150  220.4340 C   0  0  0  0  0  0  0  0  0  0  0  0
  139.0640   72.0900  221.5980 N   0  0  0  0  0  0  0  0  0  0  0  0
  139.9360   72.3530  222.6910 C   0  0  0  0  0  0  0  0  0  0  0  0
  140.6910   73.3690  222.6230 O   0  0  0  0  0  0  0  0  0  0  0  0
  139.9540   71.4620  223.8680 C   0  0  0  0  0  0  0  0  0  0  0  0
  139.3970   70.2070  223.7300 C   0  0  0  0  0  0  0  0  0  0  0  0
  139.4080   69.3710  224.8170 C   0  0  0  0  0  0  0  0  0  0  0  0
  139.9690   69.7880  226.0260 C   0  0  0  0  0  0  0  0  0  0  0  0
  139.9940   68.9690  227.1320 C   0  0  0  0  0  0  0  0  0  0  0  0
  140.5740   69.4660  228.3020 C   0  0  0  0  0  0  0  0  0  0  0  0
  141.1070   70.7370  228.3450 C   0  0  0  0  0  0  0  0  0  0  0  0
  141.0810   71.5650  227.2200 C   0  0  0  0  0  0  0  0  0  0  0  0
  140.4990   71.0620  226.0600 C   0  0  0  0  0  0  0  0  0  0  0  0
  140.4940   71.8890  224.9980 N   0  0  0  0  0  0  0  0  0  0  0  0
  143.0238   76.7124  220.7095 H   0  0  0  0  0  0  0  0  0  0  0  0
  142.2272   75.6846  219.4703 H   0  0  0  0  0  0  0  0  0  0  0  0
  141.9606   77.4610  219.4703 H   0  0  0  0  0  0  0  0  0  0  0  0
  142.5973   78.1997  221.9906 H   0  0  0  0  0  0  0  0  0  0  0  0
  141.8912   79.9851  223.5773 H   0  0  0  0  0  0  0  0  0  0  0  0
  139.5196   80.1677  224.3030 H   0  0  0  0  0  0  0  0  0  0  0  0
  137.8540   78.5510  223.4229 H   0  0  0  0  0  0  0  0  0  0  0  0
  137.8826   76.8860  220.7386 H   0  0  0  0  0  0  0  0  0  0  0  0
  137.6935   76.3477  223.7394 H   0  0  0  0  0  0  0  0  0  0  0  0
  136.4283   76.9813  222.6329 H   0  0  0  0  0  0  0  0  0  0  0  0
  136.8262   75.2296  222.6329 H   0  0  0  0  0  0  0  0  0  0  0  0
  139.8580   75.0380  221.8050 H   0  0  0  0  0  0  0  0  0  0  0  0
  138.4973   72.3512  219.6356 H   0  0  0  0  0  0  0  0  0  0  0  0
  140.0373   73.1790  220.1726 H   0  0  0  0  0  0  0  0  0  0  0  0
  138.4550   71.2250  221.7110 H   0  0  0  0  0  0  0  0  0  0  0  0
  138.9564   69.8861  222.7745 H   0  0  0  0  0  0  0  0  0  0  0  0
  138.9717   68.3645  224.7360 H   0  0  0  0  0  0  0  0  0  0  0  0
  139.5704   67.9545  227.0959 H   0  0  0  0  0  0  0  0  0  0  0  0
  140.6059   68.8342  229.2019 H   0  0  0  0  0  0  0  0  0  0  0  0
  141.5590   71.1042  229.2782 H   0  0  0  0  0  0  0  0  0  0  0  0
  141.5057   72.5793  227.2499 H   0  0  0  0  0  0  0  0  0  0  0  0
  1  2  1  0
  2  3  1  0
  3  4  2  0
  4  5  1  0
  5  6  2  0
  6  7  1  0
  7  8  2  0
  8  9  1  0
  9 10  1  0
  9 11  1  0
 11 12  1  0
 12 13  2  0
 12 14  1  0
 14 15  1  0
 15 16  1  0
 16 17  2  0
 16 18  1  0
 18 19  2  0
 19 20  1  0
 20 21  2  0
 21 22  1  0
 22 23  2  0
 23 24  1  0
 24 25  2  0
 25 26  1  0
 26 27  2  0
  8  3  1  0
 27 18  1  0
 26 21  1  0
  1 28  1  0
  1 29  1  0
  1 30  1  0
  4 31  1  0
  5 32  1  0
  6 33  1  0
  7 34  1  0
  9 35  1  6
 10 36  1  0
 10 37  1  0
 10 38  1  0
 11 39  1  0
 14 40  1  0
 14 41  1  0
 15 42  1  0
 19 43  1  0
 20 44  1  0
 22 45  1  0
 23 46  1  0
 24 47  1  0
 25 48  1  0
M  END
>  <smiles>  (12) 
COc1ccccc1[C@H](C)NC(=O)CNC(=O)c1ccc2ccccc2n1

>  <score_type>  (12) 
oracle

>  <origin>  (12) 
autodockgpu

>  <m_score__min__energy>  (12) 
-8.5299999999999994

>  <m_primary>  (12) 
energy

>  <rmsd>  (12) 
4.846519439562921

>  <m_score__min__rmsd>  (12) 
4.846519439562921

>  <meeko>  (12) 
{"free_energy": -7.21, "intermolecular_energy": -9.0, "internal_energy": -2.26, "cluster_size": 28, "cluster_id": 1, "rank_in_cluster": 27}

>  <energy>  (12) 
-8.08

>  <cluster_rmsd>  (12) 
1.22

>  <cluster>  (12) 
1

$$$$

     RDKit          3D

 48 50  0  0  0  0  0  0  0  0999 V2000
  140.7490   72.0580  222.2480 C   0  0  0  0  0  0  0  0  0  0  0  0
  140.6700   73.4670  222.1820 O   0  0  0  0  0  0  0  0  0  0  0  0
  141.3820   74.2220  221.2500 C   0  0  0  0  0  0  0  0  0  0  0  0
  142.6350   73.7300  220.8720 C   0  0  0  0  0  0  0  0  0  0  0  0
  143.3580   74.4620  219.9490 C   0  0  0  0  0  0  0  0  0  0  0  0
  142.8620   75.6410  219.4170 C   0  0  0  0  0  0  0  0  0  0  0  0
  141.6120   76.0800  219.8290 C   0  0  0  0  0  0  0  0  0  0  0  0
  140.8600   75.3830  220.7440 C   0  0  0  0  0  0  0  0  0  0  0  0
  139.5130   75.8320  221.2060 C   0  0  2  0  0  0  0  0  0  0  0  0
  139.7280   76.7930  222.3580 C   0  0  0  0  0  0  0  0  0  0  0  0
  138.7110   74.7330  221.7230 N   0  0  0  0  0  0  0  0  0  0  0  0
  137.8250   73.9880  220.9110 C   0  0  0  0  0  0  0  0  0  0  0  0
  137.7110   74.2700  219.6900 O   0  0  0  0  0  0  0  0  0  0  0  0
  137.0600   72.8910  221.5550 C   0  0  0  0  0  0  0  0  0  0  0  0
  137.7460   72.2730  222.6450 N   0  0  0  0  0  0  0  0  0  0  0  0
  137.6280   70.8900  222.9530 C   0  0  0  0  0  0  0  0  0  0  0  0
  136.8760   70.1760  222.2220 O   0  0  0  0  0  0  0  0  0  0  0  0
  138.3640   70.3090  224.0930 C   0  0  0  0  0  0  0  0  0  0  0  0
  138.3340   68.9380  224.2440 C   0  0  0  0  0  0  0  0  0  0  0  0
  139.0130   68.3870  225.3000 C   0  0  0  0  0  0  0  0  0  0  0  0
  139.7130   69.2010  226.1940 C   0  0  0  0  0  0  0  0  0  0  0  0
  140.4040   68.6740  227.2620 C   0  0  0  0  0  0  0  0  0  0  0  0
  141.0770   69.5600  228.1080 C   0  0  0  0  0  0  0  0  0  0  0  0
  141.0500   70.9200  227.8770 C   0  0  0  0  0  0  0  0  0  0  0  0
  140.3480   71.4500  226.7910 C   0  0  0  0  0  0  0  0  0  0  0  0
  139.6800   70.5600  225.9560 C   0  0  0  0  0  0  0  0  0  0  0  0
  139.0170   71.1090  224.9210 N   0  0  0  0  0  0  0  0  0  0  0  0
  140.7668   71.7407  223.3011 H   0  0  0  0  0  0  0  0  0  0  0  0
  139.8741   71.6178  221.7471 H   0  0  0  0  0  0  0  0  0  0  0  0
  141.6676   71.7184  221.7471 H   0  0  0  0  0  0  0  0  0  0  0  0
  143.0310   72.7944  221.2938 H   0  0  0  0  0  0  0  0  0  0  0  0
  144.3471   74.1011  219.6305 H   0  0  0  0  0  0  0  0  0  0  0  0
  143.4464   76.2165  218.6840 H   0  0  0  0  0  0  0  0  0  0  0  0
  141.2106   77.0147  219.4104 H   0  0  0  0  0  0  0  0  0  0  0  0
  138.9889   76.2804  220.3491 H   0  0  0  0  0  0  0  0  0  0  0  0
  139.6079   76.2562  223.3106 H   0  0  0  0  0  0  0  0  0  0  0  0
  140.7425   77.2141  222.2998 H   0  0  0  0  0  0  0  0  0  0  0  0
  138.9896   77.6062  222.2998 H   0  0  0  0  0  0  0  0  0  0  0  0
  138.8180   74.5130  222.7370 H   0  0  0  0  0  0  0  0  0  0  0  0
  136.1120   73.3033  221.9308 H   0  0  0  0  0  0  0  0  0  0  0  0
  136.9076   72.1148  220.7906 H   0  0  0  0  0  0  0  0  0  0  0  0
  138.3900   72.8210  223.2910 H   0  0  0  0  0  0  0  0  0  0  0  0
  137.7801   68.3039  223.5361 H   0  0  0  0  0  0  0  0  0  0  0  0
  139.0066   67.2965  225.4443 H   0  0  0  0  0  0  0  0  0  0  0  0
  140.4257   67.5893  227.4438 H   0  0  0  0  0  0  0  0  0  0  0  0
  141.6361   69.1675  228.9702 H   0  0  0  0  0  0  0  0  0  0  0  0
  141.5885   71.5965  228.5570 H   0  0  0  0  0  0  0  0  0  0  0  0
  140.3244   72.5335  226.6029 H   0  0  0  0  0  0  0  0  0  0  0  0
  1  2  1  0
  2  3  1  0
  3  4  2  0
  4  5  1  0
  5  6  2  0
  6  7  1  0
  7  8  2  0
  8  9  1  0
  9 10  1  0
  9 11  1  0
 11 12  1  0
 12 13  2  0
 12 14  1  0
 14 15  1  0
 15 16  1  0
 16 17  2  0
 16 18  1  0
 18 19  2  0
 19 20  1  0
 20 21  2  0
 21 22  1  0
 22 23  2  0
 23 24  1  0
 24 25  2  0
 25 26  1  0
 26 27  2  0
  8  3  1  0
 27 18  1  0
 26 21  1  0
  1 28  1  0
  1 29  1  0
  1 30  1  0
  4 31  1  0
  5 32  1  0
  6 33  1  0
  7 34  1  0
  9 35  1  6
 10 36  1  0
 10 37  1  0
 10 38  1  0
 11 39  1  0
 14 40  1  0
 14 41  1  0
 15 42  1  0
 19 43  1  0
 20 44  1  0
 22 45  1  0
 23 46  1  0
 24 47  1  0
 25 48  1  0
M  END
>  <smiles>  (13) 
COc1ccccc1[C@H](C)NC(=O)CNC(=O)c1ccc2ccccc2n1

>  <score_type>  (13) 
oracle

>  <origin>  (13) 
autodockgpu

>  <m_score__min__energy>  (13) 
-8.5299999999999994

>  <m_primary>  (13) 
energy

>  <rmsd>  (13) 
5.610331475428181

>  <m_score__min__rmsd>  (13) 
5.610331475428181

>  <meeko>  (13) 
{"free_energy": -7.38, "intermolecular_energy": -9.17, "internal_energy": -2.18, "cluster_size": 8, "cluster_id": 4, "rank_in_cluster": 7}

>  <energy>  (13) 
-8.01

>  <cluster_rmsd>  (13) 
1.23

>  <cluster>  (13) 
1

$$$$

     RDKit          3D

 48 50  0  0  0  0  0  0  0  0999 V2000
  140.8000   72.2140  222.1910 C   0  0  0  0  0  0  0  0  0  0  0  0
  140.6940   73.6180  222.3120 O   0  0  0  0  0  0  0  0  0  0  0  0
  141.1600   74.4990  221.3350 C   0  0  0  0  0  0  0  0  0  0  0  0
  142.4520   74.2690  220.8500 C   0  0  0  0  0  0  0  0  0  0  0  0
  142.9340   75.1300  219.8810 C   0  0  0  0  0  0  0  0  0  0  0  0
  142.1680   76.1830  219.4070 C   0  0  0  0  0  0  0  0  0  0  0  0
  140.8930   76.3610  219.9250 C   0  0  0  0  0  0  0  0  0  0  0  0
  140.3750   75.5280  220.8890 C   0  0  0  0  0  0  0  0  0  0  0  0
  139.0080   75.6970  221.4640 C   0  0  2  0  0  0  0  0  0  0  0  0
  139.1460   76.5370  222.7190 C   0  0  0  0  0  0  0  0  0  0  0  0
  138.4190   74.4290  221.8730 N   0  0  0  0  0  0  0  0  0  0  0  0
  137.4320   73.7660  221.1080 C   0  0  0  0  0  0  0  0  0  0  0  0
  137.0320   74.2750  220.0290 O   0  0  0  0  0  0  0  0  0  0  0  0
  136.9080   72.4800  221.6300 C   0  0  0  0  0  0  0  0  0  0  0  0
  137.6040   71.9990  222.7810 N   0  0  0  0  0  0  0  0  0  0  0  0
  137.9770   70.6370  222.9500 C   0  0  0  0  0  0  0  0  0  0  0  0
  137.6750   69.8150  222.0330 O   0  0  0  0  0  0  0  0  0  0  0  0
  138.6970   70.2010  224.1630 C   0  0  0  0  0  0  0  0  0  0  0  0
  138.7820   68.8450  224.4050 C   0  0  0  0  0  0  0  0  0  0  0  0
  139.4480   68.4280  225.5290 C   0  0  0  0  0  0  0  0  0  0  0  0
  140.0200   69.3590  226.4000 C   0  0  0  0  0  0  0  0  0  0  0  0
  140.6930   68.9670  227.5350 C   0  0  0  0  0  0  0  0  0  0  0  0
  141.2340   69.9640  228.3520 C   0  0  0  0  0  0  0  0  0  0  0  0
  141.0980   71.2980  228.0280 C   0  0  0  0  0  0  0  0  0  0  0  0
  140.4130   71.6910  226.8750 C   0  0  0  0  0  0  0  0  0  0  0  0
  139.8770   70.6910  226.0690 C   0  0  0  0  0  0  0  0  0  0  0  0
  139.2270   71.1090  224.9670 N   0  0  0  0  0  0  0  0  0  0  0  0
  140.8342   71.7612  223.1929 H   0  0  0  0  0  0  0  0  0  0  0  0
  139.9286   71.8264  221.6430 H   0  0  0  0  0  0  0  0  0  0  0  0
  141.7198   71.9616  221.6430 H   0  0  0  0  0  0  0  0  0  0  0  0
  143.0619   73.4342  221.2255 H   0  0  0  0  0  0  0  0  0  0  0  0
  143.9460   74.9758  219.4784 H   0  0  0  0  0  0  0  0  0  0  0  0
  142.5619   76.8628  218.6371 H   0  0  0  0  0  0  0  0  0  0  0  0
  140.2779   77.1937  219.5533 H   0  0  0  0  0  0  0  0  0  0  0  0
  138.3675   76.1539  220.6953 H   0  0  0  0  0  0  0  0  0  0  0  0
  139.0402   75.8932  223.6046 H   0  0  0  0  0  0  0  0  0  0  0  0
  140.1352   77.0180  222.7314 H   0  0  0  0  0  0  0  0  0  0  0  0
  138.3627   77.3092  222.7314 H   0  0  0  0  0  0  0  0  0  0  0  0
  138.7620   74.0230  222.7700 H   0  0  0  0  0  0  0  0  0  0  0  0
  135.8502   72.6194  221.8974 H   0  0  0  0  0  0  0  0  0  0  0  0
  137.0462   71.7315  220.8358 H   0  0  0  0  0  0  0  0  0  0  0  0
  137.8840   72.6420  223.5820 H   0  0  0  0  0  0  0  0  0  0  0  0
  138.3279   68.1184  223.7151 H   0  0  0  0  0  0  0  0  0  0  0  0
  139.5325   67.3530  225.7464 H   0  0  0  0  0  0  0  0  0  0  0  0
  140.8017   67.9028  227.7911 H   0  0  0  0  0  0  0  0  0  0  0  0
  141.7759   69.6807  229.2664 H   0  0  0  0  0  0  0  0  0  0  0  0
  141.5349   72.0632  228.6865 H   0  0  0  0  0  0  0  0  0  0  0  0
  140.3014   72.7537  226.6136 H   0  0  0  0  0  0  0  0  0  0  0  0
  1  2  1  0
  2  3  1  0
  3  4  2  0
  4  5  1  0
  5  6  2  0
  6  7  1  0
  7  8  2  0
  8  9  1  0
  9 10  1  0
  9 11  1  0
 11 12  1  0
 12 13  2  0
 12 14  1  0
 14 15  1  0
 15 16  1  0
 16 17  2  0
 16 18  1  0
 18 19  2  0
 19 20  1  0
 20 21  2  0
 21 22  1  0
 22 23  2  0
 23 24  1  0
 24 25  2  0
 25 26  1  0
 26 27  2  0
  8  3  1  0
 27 18  1  0
 26 21  1  0
  1 28  1  0
  1 29  1  0
  1 30  1  0
  4 31  1  0
  5 32  1  0
  6 33  1  0
  7 34  1  0
  9 35  1  6
 10 36  1  0
 10 37  1  0
 10 38  1  0
 11 39  1  0
 14 40  1  0
 14 41  1  0
 15 42  1  0
 19 43  1  0
 20 44  1  0
 22 45  1  0
 23 46  1  0
 24 47  1  0
 25 48  1  0
M  END
>  <smiles>  (14) 
COc1ccccc1[C@H](C)NC(=O)CNC(=O)c1ccc2ccccc2n1

>  <score_type>  (14) 
oracle

>  <origin>  (14) 
autodockgpu

>  <m_score__min__energy>  (14) 
-8.5299999999999994

>  <m_primary>  (14) 
energy

>  <rmsd>  (14) 
5.599892365113663

>  <m_score__min__rmsd>  (14) 
5.599892365113663

>  <meeko>  (14) 
{"free_energy": -7.39, "intermolecular_energy": -9.18, "internal_energy": -2.21, "cluster_size": 8, "cluster_id": 4, "rank_in_cluster": 6}

>  <energy>  (14) 
-7.95

>  <cluster_rmsd>  (14) 
1.26

>  <cluster>  (14) 
1

$$$$

     RDKit          3D

 48 50  0  0  0  0  0  0  0  0999 V2000
  138.0090   78.3970  222.4220 C   0  0  0  0  0  0  0  0  0  0  0  0
  139.1550   78.7420  221.6710 O   0  0  0  0  0  0  0  0  0  0  0  0
  140.3090   79.2710  222.2520 C   0  0  0  0  0  0  0  0  0  0  0  0
  140.1250   80.2690  223.2140 C   0  0  0  0  0  0  0  0  0  0  0  0
  141.2540   80.8070  223.8020 C   0  0  0  0  0  0  0  0  0  0  0  0
  142.5240   80.3750  223.4530 C   0  0  0  0  0  0  0  0  0  0  0  0
  142.6450   79.3800  222.4930 C   0  0  0  0  0  0  0  0  0  0  0  0
  141.5480   78.8180  221.8830 C   0  0  0  0  0  0  0  0  0  0  0  0
  141.6480   77.7480  220.8480 C   0  0  2  0  0  0  0  0  0  0  0  0
  141.4870   78.4120  219.4940 C   0  0  0  0  0  0  0  0  0  0  0  0
  140.5790   76.7660  220.9610 N   0  0  0  0  0  0  0  0  0  0  0  0
  140.8290   75.3870  221.1490 C   0  0  0  0  0  0  0  0  0  0  0  0
  142.0140   74.9720  221.2240 O   0  0  0  0  0  0  0  0  0  0  0  0
  139.6550   74.4840  221.2490 C   0  0  0  0  0  0  0  0  0  0  0  0
  139.6910   73.6170  222.3830 N   0  0  0  0  0  0  0  0  0  0  0  0
  139.9480   72.2210  222.2860 C   0  0  0  0  0  0  0  0  0  0  0  0
  140.1540   71.7290  221.1360 O   0  0  0  0  0  0  0  0  0  0  0  0
  139.9730   71.3770  223.4970 C   0  0  0  0  0  0  0  0  0  0  0  0
  139.5080   70.0820  223.3850 C   0  0  0  0  0  0  0  0  0  0  0  0
  139.5250   69.2890  224.5020 C   0  0  0  0  0  0  0  0  0  0  0  0
  140.0030   69.7860  225.7170 C   0  0  0  0  0  0  0  0  0  0  0  0
  140.0320   69.0110  226.8540 C   0  0  0  0  0  0  0  0  0  0  0  0
  140.5240   69.5880  228.0280 C   0  0  0  0  0  0  0  0  0  0  0  0
  140.9690   70.8940  228.0440 C   0  0  0  0  0  0  0  0  0  0  0  0
  140.9370   71.6770  226.8870 C   0  0  0  0  0  0  0  0  0  0  0  0
  140.4440   71.0930  225.7240 C   0  0  0  0  0  0  0  0  0  0  0  0
  140.4310   71.8800  224.6320 N   0  0  0  0  0  0  0  0  0  0  0  0
  138.2394   78.4664  223.4953 H   0  0  0  0  0  0  0  0  0  0  0  0
  137.1888   79.0880  222.1777 H   0  0  0  0  0  0  0  0  0  0  0  0
  137.7066   77.3680  222.1777 H   0  0  0  0  0  0  0  0  0  0  0  0
  139.1181   80.6134  223.4926 H   0  0  0  0  0  0  0  0  0  0  0  0
  141.1425   81.5940  224.5624 H   0  0  0  0  0  0  0  0  0  0  0  0
  143.4161   80.8111  223.9264 H   0  0  0  0  0  0  0  0  0  0  0  0
  143.6492   79.0302  222.2114 H   0  0  0  0  0  0  0  0  0  0  0  0
  142.6134   77.2368  220.9773 H   0  0  0  0  0  0  0  0  0  0  0  0
  141.2299   79.4724  219.6339 H   0  0  0  0  0  0  0  0  0  0  0  0
  142.4300   78.3343  218.9330 H   0  0  0  0  0  0  0  0  0  0  0  0
  140.6843   77.9110  218.9330 H   0  0  0  0  0  0  0  0  0  0  0  0
  139.6040   77.1280  220.8960 H   0  0  0  0  0  0  0  0  0  0  0  0
  138.7468   75.1013  221.3129 H   0  0  0  0  0  0  0  0  0  0  0  0
  139.6659   73.8434  220.3549 H   0  0  0  0  0  0  0  0  0  0  0  0
  139.5260   73.9730  223.3720 H   0  0  0  0  0  0  0  0  0  0  0  0
  139.1339   69.6972  222.4248 H   0  0  0  0  0  0  0  0  0  0  0  0
  139.1595   68.2532  224.4418 H   0  0  0  0  0  0  0  0  0  0  0  0
  139.6787   67.9694  226.8392 H   0  0  0  0  0  0  0  0  0  0  0  0
  140.5570   68.9926  228.9523 H   0  0  0  0  0  0  0  0  0  0  0  0
  141.3541   71.3246  228.9801 H   0  0  0  0  0  0  0  0  0  0  0  0
  141.2893   72.7190  226.8952 H   0  0  0  0  0  0  0  0  0  0  0  0
  1  2  1  0
  2  3  1  0
  3  4  2  0
  4  5  1  0
  5  6  2  0
  6  7  1  0
  7  8  2  0
  8  9  1  0
  9 10  1  0
  9 11  1  0
 11 12  1  0
 12 13  2  0
 12 14  1  0
 14 15  1  0
 15 16  1  0
 16 17  2  0
 16 18  1  0
 18 19  2  0
 19 20  1  0
 20 21  2  0
 21 22  1  0
 22 23  2  0
 23 24  1  0
 24 25  2  0
 25 26  1  0
 26 27  2  0
  8  3  1  0
 27 18  1  0
 26 21  1  0
  1 28  1  0
  1 29  1  0
  1 30  1  0
  4 31  1  0
  5 32  1  0
  6 33  1  0
  7 34  1  0
  9 35  1  6
 10 36  1  0
 10 37  1  0
 10 38  1  0
 11 39  1  0
 14 40  1  0
 14 41  1  0
 15 42  1  0
 19 43  1  0
 20 44  1  0
 22 45  1  0
 23 46  1  0
 24 47  1  0
 25 48  1  0
M  END
>  <smiles>  (15) 
COc1ccccc1[C@H](C)NC(=O)CNC(=O)c1ccc2ccccc2n1

>  <score_type>  (15) 
oracle

>  <origin>  (15) 
autodockgpu

>  <m_score__min__energy>  (15) 
-8.5299999999999994

>  <m_primary>  (15) 
energy

>  <rmsd>  (15) 
3.9242787063785625

>  <m_score__min__rmsd>  (15) 
3.9242787063785625

>  <meeko>  (15) 
{"free_energy": -7.95, "intermolecular_energy": -9.74, "internal_energy": -1.73, "cluster_size": 28, "cluster_id": 1, "rank_in_cluster": 14}

>  <energy>  (15) 
-7.91

>  <cluster_rmsd>  (15) 
1.28

>  <cluster>  (15) 
1

$$$$

     RDKit          3D

 48 50  0  0  0  0  0  0  0  0999 V2000
  137.7220   77.7390  222.6880 C   0  0  0  0  0  0  0  0  0  0  0  0
  138.8570   78.0710  221.9150 O   0  0  0  0  0  0  0  0  0  0  0  0
  139.9600   78.7440  222.4400 C   0  0  0  0  0  0  0  0  0  0  0  0
  139.6900   79.8200  223.2920 C   0  0  0  0  0  0  0  0  0  0  0  0
  140.7690   80.5010  223.8240 C   0  0  0  0  0  0  0  0  0  0  0  0
  142.0710   80.1340  223.5260 C   0  0  0  0  0  0  0  0  0  0  0  0
  142.2780   79.0580  222.6760 C   0  0  0  0  0  0  0  0  0  0  0  0
  141.2340   78.3530  222.1250 C   0  0  0  0  0  0  0  0  0  0  0  0
  141.4280   77.1910  221.2070 C   0  0  2  0  0  0  0  0  0  0  0  0
  141.3030   77.7110  219.7880 C   0  0  0  0  0  0  0  0  0  0  0  0
  140.3960   76.1780  221.3720 N   0  0  0  0  0  0  0  0  0  0  0  0
  140.6820   74.7930  221.3720 C   0  0  0  0  0  0  0  0  0  0  0  0
  141.8690   74.4010  221.2250 O   0  0  0  0  0  0  0  0  0  0  0  0
  139.5440   73.8560  221.5490 C   0  0  0  0  0  0  0  0  0  0  0  0
  139.6610   73.0200  222.7010 N   0  0  0  0  0  0  0  0  0  0  0  0
  139.5800   71.6010  222.6420 C   0  0  0  0  0  0  0  0  0  0  0  0
  139.3960   71.0580  221.5100 O   0  0  0  0  0  0  0  0  0  0  0  0
  139.7080   70.7900  223.8680 C   0  0  0  0  0  0  0  0  0  0  0  0
  139.2550   69.4870  223.8250 C   0  0  0  0  0  0  0  0  0  0  0  0
  139.3690   68.7240  224.9590 C   0  0  0  0  0  0  0  0  0  0  0  0
  139.9290   69.2610  226.1210 C   0  0  0  0  0  0  0  0  0  0  0  0
  140.0550   68.5170  227.2720 C   0  0  0  0  0  0  0  0  0  0  0  0
  140.6260   69.1320  228.3900 C   0  0  0  0  0  0  0  0  0  0  0  0
  141.0500   70.4440  228.3390 C   0  0  0  0  0  0  0  0  0  0  0  0
  140.9200   71.1950  227.1670 C   0  0  0  0  0  0  0  0  0  0  0  0
  140.3500   70.5740  226.0600 C   0  0  0  0  0  0  0  0  0  0  0  0
  140.2430   71.3300  224.9520 N   0  0  0  0  0  0  0  0  0  0  0  0
  137.9721   77.8121  223.7567 H   0  0  0  0  0  0  0  0  0  0  0  0
  136.9030   78.4352  222.4546 H   0  0  0  0  0  0  0  0  0  0  0  0
  137.4073   76.7112  222.4546 H   0  0  0  0  0  0  0  0  0  0  0  0
  138.6569   80.1135  223.5300 H   0  0  0  0  0  0  0  0  0  0  0  0
  140.5899   81.3518  224.4978 H   0  0  0  0  0  0  0  0  0  0  0  0
  142.9220   80.6839  223.9542 H   0  0  0  0  0  0  0  0  0  0  0  0
  143.3089   78.7594  222.4352 H   0  0  0  0  0  0  0  0  0  0  0  0
  142.4066   76.7397  221.4276 H   0  0  0  0  0  0  0  0  0  0  0  0
  141.0459   78.7803  219.8106 H   0  0  0  0  0  0  0  0  0  0  0  0
  142.2594   77.5749  219.2620 H   0  0  0  0  0  0  0  0  0  0  0  0
  140.5129   77.1550  219.2620 H   0  0  0  0  0  0  0  0  0  0  0  0
  139.4190   76.5210  221.4920 H   0  0  0  0  0  0  0  0  0  0  0  0
  138.6199   74.4457  221.6405 H   0  0  0  0  0  0  0  0  0  0  0  0
  139.5345   73.1932  220.6711 H   0  0  0  0  0  0  0  0  0  0  0  0
  139.8160   73.4180  223.6750 H   0  0  0  0  0  0  0  0  0  0  0  0
  138.8146   69.0718  222.9065 H   0  0  0  0  0  0  0  0  0  0  0  0
  139.0170   67.6818  224.9536 H   0  0  0  0  0  0  0  0  0  0  0  0
  139.7169   67.4710  227.3110 H   0  0  0  0  0  0  0  0  0  0  0  0
  140.7389   68.5617  229.3238 H   0  0  0  0  0  0  0  0  0  0  0  0
  141.4963   70.9052  229.2324 H   0  0  0  0  0  0  0  0  0  0  0  0
  141.2568   72.2412  227.1216 H   0  0  0  0  0  0  0  0  0  0  0  0
  1  2  1  0
  2  3  1  0
  3  4  2  0
  4  5  1  0
  5  6  2  0
  6  7  1  0
  7  8  2  0
  8  9  1  0
  9 10  1  0
  9 11  1  0
 11 12  1  0
 12 13  2  0
 12 14  1  0
 14 15  1  0
 15 16  1  0
 16 17  2  0
 16 18  1  0
 18 19  2  0
 19 20  1  0
 20 21  2  0
 21 22  1  0
 22 23  2  0
 23 24  1  0
 24 25  2  0
 25 26  1  0
 26 27  2  0
  8  3  1  0
 27 18  1  0
 26 21  1  0
  1 28  1  0
  1 29  1  0
  1 30  1  0
  4 31  1  0
  5 32  1  0
  6 33  1  0
  7 34  1  0
  9 35  1  6
 10 36  1  0
 10 37  1  0
 10 38  1  0
 11 39  1  0
 14 40  1  0
 14 41  1  0
 15 42  1  0
 19 43  1  0
 20 44  1  0
 22 45  1  0
 23 46  1  0
 24 47  1  0
 25 48  1  0
M  END
>  <smiles>  (16) 
COc1ccccc1[C@H](C)NC(=O)CNC(=O)c1ccc2ccccc2n1

>  <score_type>  (16) 
oracle

>  <origin>  (16) 
autodockgpu

>  <m_score__min__energy>  (16) 
-8.5299999999999994

>  <m_primary>  (16) 
energy

>  <rmsd>  (16) 
4.138216796016886

>  <m_score__min__rmsd>  (16) 
4.138216796016886

>  <meeko>  (16) 
{"free_energy": -7.81, "intermolecular_energy": -9.59, "internal_energy": -1.79, "cluster_size": 28, "cluster_id": 1, "rank_in_cluster": 20}

>  <energy>  (16) 
-7.89

>  <cluster_rmsd>  (16) 
1.24

>  <cluster>  (16) 
1

$$$$

     RDKit          3D

 48 50  0  0  0  0  0  0  0  0999 V2000
  141.4440   75.5530  220.8480 C   0  0  0  0  0  0  0  0  0  0  0  0
  140.4830   75.6880  221.8760 O   0  0  0  0  0  0  0  0  0  0  0  0
  140.1000   76.9240  222.3960 C   0  0  0  0  0  0  0  0  0  0  0  0
  141.1290   77.8130  222.7210 C   0  0  0  0  0  0  0  0  0  0  0  0
  140.7710   79.0440  223.2380 C   0  0  0  0  0  0  0  0  0  0  0  0
  139.4430   79.3870  223.4290 C   0  0  0  0  0  0  0  0  0  0  0  0
  138.4640   78.4650  223.0880 C   0  0  0  0  0  0  0  0  0  0  0  0
  138.7760   77.2300  222.5710 C   0  0  0  0  0  0  0  0  0  0  0  0
  137.7450   76.2180  222.1960 C   0  0  2  0  0  0  0  0  0  0  0  0
  136.8440   76.0230  223.4000 C   0  0  0  0  0  0  0  0  0  0  0  0
  138.3280   74.9180  221.8960 N   0  0  0  0  0  0  0  0  0  0  0  0
  138.1640   74.2800  220.6440 C   0  0  0  0  0  0  0  0  0  0  0  0
  137.4910   74.8410  219.7410 O   0  0  0  0  0  0  0  0  0  0  0  0
  138.8070   72.9550  220.4590 C   0  0  0  0  0  0  0  0  0  0  0  0
  138.8280   72.1550  221.6430 N   0  0  0  0  0  0  0  0  0  0  0  0
  139.7900   72.3230  222.6760 C   0  0  0  0  0  0  0  0  0  0  0  0
  140.6680   73.2280  222.5360 O   0  0  0  0  0  0  0  0  0  0  0  0
  139.7600   71.4650  223.8770 C   0  0  0  0  0  0  0  0  0  0  0  0
  139.0300   70.2950  223.8100 C   0  0  0  0  0  0  0  0  0  0  0  0
  138.9950   69.4900  224.9190 C   0  0  0  0  0  0  0  0  0  0  0  0
  139.6820   69.8530  226.0810 C   0  0  0  0  0  0  0  0  0  0  0  0
  139.6630   69.0630  227.2080 C   0  0  0  0  0  0  0  0  0  0  0  0
  140.3770   69.5010  228.3270 C   0  0  0  0  0  0  0  0  0  0  0  0
  141.0790   70.6880  228.3000 C   0  0  0  0  0  0  0  0  0  0  0  0
  141.0950   71.4870  227.1530 C   0  0  0  0  0  0  0  0  0  0  0  0
  140.3810   71.0420  226.0450 C   0  0  0  0  0  0  0  0  0  0  0  0
  140.4220   71.8390  224.9610 N   0  0  0  0  0  0  0  0  0  0  0  0
  142.4401   75.4131  221.2933 H   0  0  0  0  0  0  0  0  0  0  0  0
  141.1949   74.6810  220.2254 H   0  0  0  0  0  0  0  0  0  0  0  0
  141.4448   76.4599  220.2254 H   0  0  0  0  0  0  0  0  0  0  0  0
  142.1847   77.5428  222.5708 H   0  0  0  0  0  0  0  0  0  0  0  0
  141.5573   79.7661  223.5032 H   0  0  0  0  0  0  0  0  0  0  0  0
  139.1702   80.3693  223.8422 H   0  0  0  0  0  0  0  0  0  0  0  0
  137.4067   78.7301  223.2357 H   0  0  0  0  0  0  0  0  0  0  0  0
  137.2163   76.5833  221.3033 H   0  0  0  0  0  0  0  0  0  0  0  0
  137.4309   76.1500  224.3216 H   0  0  0  0  0  0  0  0  0  0  0  0
  136.0337   76.7666  223.3759 H   0  0  0  0  0  0  0  0  0  0  0  0
  136.4137   75.0109  223.3759 H   0  0  0  0  0  0  0  0  0  0  0  0
  138.8820   74.4680  222.6560 H   0  0  0  0  0  0  0  0  0  0  0  0
  138.2560   72.4076  219.6800 H   0  0  0  0  0  0  0  0  0  0  0  0
  139.8543   73.1427  220.1799 H   0  0  0  0  0  0  0  0  0  0  0  0
  138.1170   71.3830  221.8150 H   0  0  0  0  0  0  0  0  0  0  0  0
  138.4914   70.0165  222.8922 H   0  0  0  0  0  0  0  0  0  0  0  0
  138.4220   68.5514  224.8943 H   0  0  0  0  0  0  0  0  0  0  0  0
  139.1032   68.1163  227.2274 H   0  0  0  0  0  0  0  0  0  0  0  0
  140.3791   68.8905  229.2420 H   0  0  0  0  0  0  0  0  0  0  0  0
  141.6339   71.0104  229.1934 H   0  0  0  0  0  0  0  0  0  0  0  0
  141.6528   72.4347  227.1274 H   0  0  0  0  0  0  0  0  0  0  0  0
  1  2  1  0
  2  3  1  0
  3  4  2  0
  4  5  1  0
  5  6  2  0
  6  7  1  0
  7  8  2  0
  8  9  1  0
  9 10  1  0
  9 11  1  0
 11 12  1  0
 12 13  2  0
 12 14  1  0
 14 15  1  0
 15 16  1  0
 16 17  2  0
 16 18  1  0
 18 19  2  0
 19 20  1  0
 20 21  2  0
 21 22  1  0
 22 23  2  0
 23 24  1  0
 24 25  2  0
 25 26  1  0
 26 27  2  0
  8  3  1  0
 27 18  1  0
 26 21  1  0
  1 28  1  0
  1 29  1  0
  1 30  1  0
  4 31  1  0
  5 32  1  0
  6 33  1  0
  7 34  1  0
  9 35  1  6
 10 36  1  0
 10 37  1  0
 10 38  1  0
 11 39  1  0
 14 40  1  0
 14 41  1  0
 15 42  1  0
 19 43  1  0
 20 44  1  0
 22 45  1  0
 23 46  1  0
 24 47  1  0
 25 48  1  0
M  END
>  <smiles>  (17) 
COc1ccccc1[C@H](C)NC(=O)CNC(=O)c1ccc2ccccc2n1

>  <score_type>  (17) 
oracle

>  <origin>  (17) 
autodockgpu

>  <m_score__min__energy>  (17) 
-8.5299999999999994

>  <m_primary>  (17) 
energy

>  <rmsd>  (17) 
4.995979367260192

>  <m_score__min__rmsd>  (17) 
4.995979367260192

>  <meeko>  (17) 
{"free_energy": -7.89, "intermolecular_energy": -9.68, "internal_energy": -1.9, "cluster_size": 28, "cluster_id": 1, "rank_in_cluster": 17}

>  <energy>  (17) 
-7.89

>  <cluster_rmsd>  (17) 
1.69

>  <cluster>  (17) 
1

$$$$

     RDKit          3D

 48 50  0  0  0  0  0  0  0  0999 V2000
  145.6080   73.3550  217.3570 C   0  0  0  0  0  0  0  0  0  0  0  0
  145.9500   72.6720  218.5450 O   0  0  0  0  0  0  0  0  0  0  0  0
  145.2600   71.5460  218.9950 C   0  0  0  0  0  0  0  0  0  0  0  0
  145.8720   70.3070  218.7740 C   0  0  0  0  0  0  0  0  0  0  0  0
  145.2070   69.1780  219.2120 C   0  0  0  0  0  0  0  0  0  0  0  0
  143.9790   69.2650  219.8480 C   0  0  0  0  0  0  0  0  0  0  0  0
  143.4210   70.5210  220.0410 C   0  0  0  0  0  0  0  0  0  0  0  0
  144.0490   71.6700  219.6210 C   0  0  0  0  0  0  0  0  0  0  0  0
  143.4720   73.0330  219.8150 C   0  0  2  0  0  0  0  0  0  0  0  0
  144.3540   73.7600  220.8110 C   0  0  0  0  0  0  0  0  0  0  0  0
  142.1360   72.9920  220.3930 N   0  0  0  0  0  0  0  0  0  0  0  0
  141.2600   74.1010  220.3670 C   0  0  0  0  0  0  0  0  0  0  0  0
  141.6300   75.1760  219.8270 O   0  0  0  0  0  0  0  0  0  0  0  0
  139.9230   73.9360  220.9900 C   0  0  0  0  0  0  0  0  0  0  0  0
  139.9490   73.2250  222.2290 N   0  0  0  0  0  0  0  0  0  0  0  0
  140.0310   71.8070  222.3090 C   0  0  0  0  0  0  0  0  0  0  0  0
  140.0820   71.1480  221.2260 O   0  0  0  0  0  0  0  0  0  0  0  0
  140.0550   71.1290  223.6200 C   0  0  0  0  0  0  0  0  0  0  0  0
  139.5820   69.8340  223.6800 C   0  0  0  0  0  0  0  0  0  0  0  0
  139.5990   69.1940  224.8920 C   0  0  0  0  0  0  0  0  0  0  0  0
  140.0830   69.8450  226.0300 C   0  0  0  0  0  0  0  0  0  0  0  0
  140.1120   69.2260  227.2590 C   0  0  0  0  0  0  0  0  0  0  0  0
  140.6110   69.9500  228.3460 C   0  0  0  0  0  0  0  0  0  0  0  0
  141.0620   71.2440  228.1890 C   0  0  0  0  0  0  0  0  0  0  0  0
  141.0320   71.8680  226.9390 C   0  0  0  0  0  0  0  0  0  0  0  0
  140.5320   71.1390  225.8640 C   0  0  0  0  0  0  0  0  0  0  0  0
  140.5200   71.7750  224.6770 N   0  0  0  0  0  0  0  0  0  0  0  0
  145.1286   74.3123  217.6095 H   0  0  0  0  0  0  0  0  0  0  0  0
  146.5176   73.5444  216.7681 H   0  0  0  0  0  0  0  0  0  0  0  0
  144.9114   72.7402  216.7681 H   0  0  0  0  0  0  0  0  0  0  0  0
  146.8470   70.2347  218.2699 H   0  0  0  0  0  0  0  0  0  0  0  0
  145.6619   68.1893  219.0525 H   0  0  0  0  0  0  0  0  0  0  0  0
  143.4583   68.3592  220.1921 H   0  0  0  0  0  0  0  0  0  0  0  0
  142.4466   70.5998  220.5453 H   0  0  0  0  0  0  0  0  0  0  0  0
  143.4179   73.5241  218.8322 H   0  0  0  0  0  0  0  0  0  0  0  0
  144.0416   73.5025  221.8338 H   0  0  0  0  0  0  0  0  0  0  0  0
  145.4015   73.4595  220.6609 H   0  0  0  0  0  0  0  0  0  0  0  0
  144.2589   74.8456  220.6609 H   0  0  0  0  0  0  0  0  0  0  0  0
  141.8470   72.0940  220.8360 H   0  0  0  0  0  0  0  0  0  0  0  0
  139.4993   74.9347  221.1719 H   0  0  0  0  0  0  0  0  0  0  0  0
  139.3149   73.3420  220.2919 H   0  0  0  0  0  0  0  0  0  0  0  0
  139.9100   73.7240  223.1680 H   0  0  0  0  0  0  0  0  0  0  0  0
  139.2017   69.3291  222.7797 H   0  0  0  0  0  0  0  0  0  0  0  0
  139.2292   68.1609  224.9694 H   0  0  0  0  0  0  0  0  0  0  0  0
  139.7536   68.1934  227.3822 H   0  0  0  0  0  0  0  0  0  0  0  0
  140.6444   69.4810  229.3405 H   0  0  0  0  0  0  0  0  0  0  0  0
  141.4507   71.7924  229.0598 H   0  0  0  0  0  0  0  0  0  0  0  0
  141.3911   72.8996  226.8092 H   0  0  0  0  0  0  0  0  0  0  0  0
  1  2  1  0
  2  3  1  0
  3  4  2  0
  4  5  1  0
  5  6  2  0
  6  7  1  0
  7  8  2  0
  8  9  1  0
  9 10  1  0
  9 11  1  0
 11 12  1  0
 12 13  2  0
 12 14  1  0
 14 15  1  0
 15 16  1  0
 16 17  2  0
 16 18  1  0
 18 19  2  0
 19 20  1  0
 20 21  2  0
 21 22  1  0
 22 23  2  0
 23 24  1  0
 24 25  2  0
 25 26  1  0
 26 27  2  0
  8  3  1  0
 27 18  1  0
 26 21  1  0
  1 28  1  0
  1 29  1  0
  1 30  1  0
  4 31  1  0
  5 32  1  0
  6 33  1  0
  7 34  1  0
  9 35  1  6
 10 36  1  0
 10 37  1  0
 10 38  1  0
 11 39  1  0
 14 40  1  0
 14 41  1  0
 15 42  1  0
 19 43  1  0
 20 44  1  0
 22 45  1  0
 23 46  1  0
 24 47  1  0
 25 48  1  0
M  END
>  <smiles>  (18) 
COc1ccccc1[C@H](C)NC(=O)CNC(=O)c1ccc2ccccc2n1

>  <score_type>  (18) 
oracle

>  <origin>  (18) 
autodockgpu

>  <m_score__min__energy>  (18) 
-8.5299999999999994

>  <m_primary>  (18) 
energy

>  <rmsd>  (18) 
7.768609104783715

>  <m_score__min__rmsd>  (18) 
7.768609104783715

>  <meeko>  (18) 
{"free_energy": -7.55, "intermolecular_energy": -9.34, "internal_energy": -2.08, "cluster_size": 7, "cluster_id": 3, "rank_in_cluster": 2}

>  <energy>  (18) 
-7.87

>  <cluster_rmsd>  (18) 
1.25

>  <cluster>  (18) 
1

$$$$

     RDKit          3D

 48 50  0  0  0  0  0  0  0  0999 V2000
  139.5660   67.5340  226.1910 C   0  0  0  0  0  0  0  0  0  0  0  0
  139.0090   68.8310  226.2530 O   0  0  0  0  0  0  0  0  0  0  0  0
  139.7520   69.9580  226.6060 C   0  0  0  0  0  0  0  0  0  0  0  0
  139.8840   70.2170  227.9740 C   0  0  0  0  0  0  0  0  0  0  0  0
  140.6160   71.3280  228.3470 C   0  0  0  0  0  0  0  0  0  0  0  0
  141.1990   72.1580  227.4030 C   0  0  0  0  0  0  0  0  0  0  0  0
  141.0350   71.8510  226.0600 C   0  0  0  0  0  0  0  0  0  0  0  0
  140.3140   70.7550  225.6450 C   0  0  0  0  0  0  0  0  0  0  0  0
  140.1210   70.4010  224.2080 C   0  0  2  0  0  0  0  0  0  0  0  0
  140.5290   71.6090  223.3870 C   0  0  0  0  0  0  0  0  0  0  0  0
  138.7270   70.1300  223.8870 N   0  0  0  0  0  0  0  0  0  0  0  0
  138.2600   70.0110  222.5580 C   0  0  0  0  0  0  0  0  0  0  0  0
  139.0660   70.1410  221.6000 O   0  0  0  0  0  0  0  0  0  0  0  0
  136.8170   69.7330  222.3580 C   0  0  0  0  0  0  0  0  0  0  0  0
  135.9590   70.5260  223.1810 N   0  0  0  0  0  0  0  0  0  0  0  0
  135.6290   70.1780  224.5200 C   0  0  0  0  0  0  0  0  0  0  0  0
  136.1220   69.1130  225.0010 O   0  0  0  0  0  0  0  0  0  0  0  0
  134.7370   71.0390  225.3210 C   0  0  0  0  0  0  0  0  0  0  0  0
  133.9350   70.4290  226.2650 C   0  0  0  0  0  0  0  0  0  0  0  0
  133.1020   71.2190  227.0140 C   0  0  0  0  0  0  0  0  0  0  0  0
  133.0720   72.6020  226.8200 C   0  0  0  0  0  0  0  0  0  0  0  0
  132.2450   73.4170  227.5590 C   0  0  0  0  0  0  0  0  0  0  0  0
  132.2770   74.7900  227.3000 C   0  0  0  0  0  0  0  0  0  0  0  0
  133.1140   75.3100  226.3340 C   0  0  0  0  0  0  0  0  0  0  0  0
  133.9520   74.4780  225.5870 C   0  0  0  0  0  0  0  0  0  0  0  0
  133.9110   73.1130  225.8520 C   0  0  0  0  0  0  0  0  0  0  0  0
  134.7330   72.3460  225.1110 N   0  0  0  0  0  0  0  0  0  0  0  0
  139.7285   67.1556  227.2110 H   0  0  0  0  0  0  0  0  0  0  0  0
  138.8763   66.8639  225.6569 H   0  0  0  0  0  0  0  0  0  0  0  0
  140.5268   67.5727  225.6569 H   0  0  0  0  0  0  0  0  0  0  0  0
  139.4219   69.5602  228.7257 H   0  0  0  0  0  0  0  0  0  0  0  0
  140.7384   71.5583  229.4156 H   0  0  0  0  0  0  0  0  0  0  0  0
  141.7788   73.0404  227.7115 H   0  0  0  0  0  0  0  0  0  0  0  0
  141.4955   72.5038  225.3038 H   0  0  0  0  0  0  0  0  0  0  0  0
  140.7152   69.5002  223.9944 H   0  0  0  0  0  0  0  0  0  0  0  0
  140.8073   72.4330  224.0605 H   0  0  0  0  0  0  0  0  0  0  0  0
  141.3887   71.3477  222.7525 H   0  0  0  0  0  0  0  0  0  0  0  0
  139.6869   71.9225  222.7525 H   0  0  0  0  0  0  0  0  0  0  0  0
  138.0740   70.0250  224.6930 H   0  0  0  0  0  0  0  0  0  0  0  0
  136.5680   69.9309  221.3050 H   0  0  0  0  0  0  0  0  0  0  0  0
  136.6504   68.6826  222.6388 H   0  0  0  0  0  0  0  0  0  0  0  0
  135.5170   71.4290  222.8320 H   0  0  0  0  0  0  0  0  0  0  0  0
  133.9637   69.3392  226.4119 H   0  0  0  0  0  0  0  0  0  0  0  0
  132.4521   70.7603  227.7738 H   0  0  0  0  0  0  0  0  0  0  0  0
  131.5795   73.0006  228.3296 H   0  0  0  0  0  0  0  0  0  0  0  0
  131.6259   75.4655  227.8742 H   0  0  0  0  0  0  0  0  0  0  0  0
  133.1216   76.3944  226.1495 H   0  0  0  0  0  0  0  0  0  0  0  0
  134.6209   74.8882  224.8161 H   0  0  0  0  0  0  0  0  0  0  0  0
  1  2  1  0
  2  3  1  0
  3  4  2  0
  4  5  1  0
  5  6  2  0
  6  7  1  0
  7  8  2  0
  8  9  1  0
  9 10  1  0
  9 11  1  0
 11 12  1  0
 12 13  2  0
 12 14  1  0
 14 15  1  0
 15 16  1  0
 16 17  2  0
 16 18  1  0
 18 19  2  0
 19 20  1  0
 20 21  2  0
 21 22  1  0
 22 23  2  0
 23 24  1  0
 24 25  2  0
 25 26  1  0
 26 27  2  0
  8  3  1  0
 27 18  1  0
 26 21  1  0
  1 28  1  0
  1 29  1  0
  1 30  1  0
  4 31  1  0
  5 32  1  0
  6 33  1  0
  7 34  1  0
  9 35  1  6
 10 36  1  0
 10 37  1  0
 10 38  1  0
 11 39  1  0
 14 40  1  0
 14 41  1  0
 15 42  1  0
 19 43  1  0
 20 44  1  0
 22 45  1  0
 23 46  1  0
 24 47  1  0
 25 48  1  0
M  END
>  <smiles>  (19) 
COc1ccccc1[C@H](C)NC(=O)CNC(=O)c1ccc2ccccc2n1

>  <score_type>  (19) 
oracle

>  <origin>  (19) 
autodockgpu

>  <m_score__min__energy>  (19) 
-8.5299999999999994

>  <m_primary>  (19) 
energy

>  <rmsd>  (19) 
9.451127985606952

>  <m_score__min__rmsd>  (19) 
9.451127985606952

>  <meeko>  (19) 
{"free_energy": -6.87, "intermolecular_energy": -8.66, "internal_energy": -2.64, "cluster_size": 5, "cluster_id": 5, "rank_in_cluster": 5}

>  <energy>  (19) 
-7.84

>  <cluster_rmsd>  (19) 
1.71

>  <cluster>  (19) 
1

$$$$

     RDKit          3D

 48 50  0  0  0  0  0  0  0  0999 V2000
  139.4300   67.6600  226.2400 C   0  0  0  0  0  0  0  0  0  0  0  0
  138.9140   68.9690  226.3660 O   0  0  0  0  0  0  0  0  0  0  0  0
  139.7140   70.0730  226.6620 C   0  0  0  0  0  0  0  0  0  0  0  0
  139.9100   70.3590  228.0170 C   0  0  0  0  0  0  0  0  0  0  0  0
  140.7000   71.4480  228.3330 C   0  0  0  0  0  0  0  0  0  0  0  0
  141.2770   72.2310  227.3470 C   0  0  0  0  0  0  0  0  0  0  0  0
  141.0480   71.8990  226.0190 C   0  0  0  0  0  0  0  0  0  0  0  0
  140.2690   70.8240  225.6610 C   0  0  0  0  0  0  0  0  0  0  0  0
  140.0060   70.4440  224.2410 C   0  0  2  0  0  0  0  0  0  0  0  0
  140.3350   71.6500  223.3820 C   0  0  0  0  0  0  0  0  0  0  0  0
  138.6040   70.1320  224.0020 N   0  0  0  0  0  0  0  0  0  0  0  0
  138.1160   69.7370  222.7350 C   0  0  0  0  0  0  0  0  0  0  0  0
  138.9090   69.6460  221.7620 O   0  0  0  0  0  0  0  0  0  0  0  0
  136.6660   69.4470  222.6170 C   0  0  0  0  0  0  0  0  0  0  0  0
  135.8390   70.3200  223.3880 N   0  0  0  0  0  0  0  0  0  0  0  0
  135.5880   70.1290  224.7750 C   0  0  0  0  0  0  0  0  0  0  0  0
  136.1260   69.1350  225.3490 O   0  0  0  0  0  0  0  0  0  0  0  0
  134.7240   71.0680  225.5170 C   0  0  0  0  0  0  0  0  0  0  0  0
  133.9200   70.5490  226.5120 C   0  0  0  0  0  0  0  0  0  0  0  0
  133.1130   71.4110  227.2080 C   0  0  0  0  0  0  0  0  0  0  0  0
  133.1110   72.7760  226.9100 C   0  0  0  0  0  0  0  0  0  0  0  0
  132.3100   73.6630  227.5940 C   0  0  0  0  0  0  0  0  0  0  0  0
  132.3690   75.0110  227.2310 C   0  0  0  0  0  0  0  0  0  0  0  0
  133.2050   75.4390  226.2210 C   0  0  0  0  0  0  0  0  0  0  0  0
  134.0160   74.5340  225.5300 C   0  0  0  0  0  0  0  0  0  0  0  0
  133.9490   73.1940  225.8970 C   0  0  0  0  0  0  0  0  0  0  0  0
  134.7460   72.3550  225.2090 N   0  0  0  0  0  0  0  0  0  0  0  0
  139.5978   67.2342  227.2403 H   0  0  0  0  0  0  0  0  0  0  0  0
  138.7114   67.0339  225.6908 H   0  0  0  0  0  0  0  0  0  0  0  0
  140.3825   67.6926  225.6908 H   0  0  0  0  0  0  0  0  0  0  0  0
  139.4521   69.7398  228.8024 H   0  0  0  0  0  0  0  0  0  0  0  0
  140.8742   71.6982  229.3899 H   0  0  0  0  0  0  0  0  0  0  0  0
  141.9027   73.0965  227.6105 H   0  0  0  0  0  0  0  0  0  0  0  0
  141.5034   72.5144  225.2291 H   0  0  0  0  0  0  0  0  0  0  0  0
  140.6117   69.5562  224.0067 H   0  0  0  0  0  0  0  0  0  0  0  0
  140.5691   72.5082  224.0291 H   0  0  0  0  0  0  0  0  0  0  0  0
  141.2037   71.4218  222.7470 H   0  0  0  0  0  0  0  0  0  0  0  0
  139.4708   71.8946  222.7470 H   0  0  0  0  0  0  0  0  0  0  0  0
  137.9620   70.2130  224.8200 H   0  0  0  0  0  0  0  0  0  0  0  0
  136.3784   69.5411  221.5594 H   0  0  0  0  0  0  0  0  0  0  0  0
  136.5098   68.4303  223.0069 H   0  0  0  0  0  0  0  0  0  0  0  0
  135.3620   71.1700  222.9600 H   0  0  0  0  0  0  0  0  0  0  0  0
  133.9268   69.4729  226.7401 H   0  0  0  0  0  0  0  0  0  0  0  0
  132.4624   71.0254  228.0068 H   0  0  0  0  0  0  0  0  0  0  0  0
  131.6448   73.3212  228.4006 H   0  0  0  0  0  0  0  0  0  0  0  0
  131.7390   75.7421  227.7589 H   0  0  0  0  0  0  0  0  0  0  0  0
  133.2340   76.5062  225.9558 H   0  0  0  0  0  0  0  0  0  0  0  0
  134.6843   74.8701  224.7236 H   0  0  0  0  0  0  0  0  0  0  0  0
  1  2  1  0
  2  3  1  0
  3  4  2  0
  4  5  1  0
  5  6  2  0
  6  7  1  0
  7  8  2  0
  8  9  1  0
  9 10  1  0
  9 11  1  0
 11 12  1  0
 12 13  2  0
 12 14  1  0
 14 15  1  0
 15 16  1  0
 16 17  2  0
 16 18  1  0
 18 19  2  0
 19 20  1  0
 20 21  2  0
 21 22  1  0
 22 23  2  0
 23 24  1  0
 24 25  2  0
 25 26  1  0
 26 27  2  0
  8  3  1  0
 27 18  1  0
 26 21  1  0
  1 28  1  0
  1 29  1  0
  1 30  1  0
  4 31  1  0
  5 32  1  0
  6 33  1  0
  7 34  1  0
  9 35  1  6
 10 36  1  0
 10 37  1  0
 10 38  1  0
 11 39  1  0
 14 40  1  0
 14 41  1  0
 15 42  1  0
 19 43  1  0
 20 44  1  0
 22 45  1  0
 23 46  1  0
 24 47  1  0
 25 48  1  0
M  END
>  <smiles>  (20) 
COc1ccccc1[C@H](C)NC(=O)CNC(=O)c1ccc2ccccc2n1

>  <score_type>  (20) 
oracle

>  <origin>  (20) 
autodockgpu

>  <m_score__min__energy>  (20) 
-8.5299999999999994

>  <m_primary>  (20) 
energy

>  <rmsd>  (20) 
9.480908748535079

>  <m_score__min__rmsd>  (20) 
9.480908748535079

>  <meeko>  (20) 
{"free_energy": -6.89, "intermolecular_energy": -8.68, "internal_energy": -2.67, "cluster_size": 5, "cluster_id": 5, "rank_in_cluster": 4}

>  <energy>  (20) 
-7.81

>  <cluster_rmsd>  (20) 
1.31

>  <cluster>  (20) 
1

$$$$

     RDKit          3D

 48 50  0  0  0  0  0  0  0  0999 V2000
  141.3500   75.0500  220.9340 C   0  0  0  0  0  0  0  0  0  0  0  0
  140.3760   75.2180  221.9440 O   0  0  0  0  0  0  0  0  0  0  0  0
  139.9840   76.4710  222.4160 C   0  0  0  0  0  0  0  0  0  0  0  0
  141.0070   77.3870  222.6850 C   0  0  0  0  0  0  0  0  0  0  0  0
  140.6420   78.6350  223.1530 C   0  0  0  0  0  0  0  0  0  0  0  0
  139.3120   78.9700  223.3510 C   0  0  0  0  0  0  0  0  0  0  0  0
  138.3400   78.0210  223.0660 C   0  0  0  0  0  0  0  0  0  0  0  0
  138.6600   76.7680  222.5980 C   0  0  0  0  0  0  0  0  0  0  0  0
  137.6360   75.7280  222.2850 C   0  0  2  0  0  0  0  0  0  0  0  0
  136.6840   75.6600  223.4630 C   0  0  0  0  0  0  0  0  0  0  0  0
  138.2190   74.4020  222.1430 N   0  0  0  0  0  0  0  0  0  0  0  0
  137.6500   73.4030  221.3200 C   0  0  0  0  0  0  0  0  0  0  0  0
  136.5970   73.6500  220.6760 O   0  0  0  0  0  0  0  0  0  0  0  0
  138.3370   72.0890  221.2580 C   0  0  0  0  0  0  0  0  0  0  0  0
  138.6640   71.5490  222.5390 N   0  0  0  0  0  0  0  0  0  0  0  0
  139.8470   71.8950  223.2490 C   0  0  0  0  0  0  0  0  0  0  0  0
  140.6460   72.7220  222.7140 O   0  0  0  0  0  0  0  0  0  0  0  0
  140.1290   71.3030  224.5710 C   0  0  0  0  0  0  0  0  0  0  0  0
  140.9160   72.0280  225.4440 C   0  0  0  0  0  0  0  0  0  0  0  0
  141.1850   71.4880  226.6740 C   0  0  0  0  0  0  0  0  0  0  0  0
  140.6720   70.2370  227.0270 C   0  0  0  0  0  0  0  0  0  0  0  0
  140.9270   69.6720  228.2560 C   0  0  0  0  0  0  0  0  0  0  0  0
  140.3760   68.4170  228.5270 C   0  0  0  0  0  0  0  0  0  0  0  0
  139.6000   67.7660  227.5900 C   0  0  0  0  0  0  0  0  0  0  0  0
  139.3440   68.3440  226.3440 C   0  0  0  0  0  0  0  0  0  0  0  0
  139.8980   69.5930  226.0840 C   0  0  0  0  0  0  0  0  0  0  0  0
  139.6280   70.1160  224.8730 N   0  0  0  0  0  0  0  0  0  0  0  0
  142.3332   74.8804  221.3973 H   0  0  0  0  0  0  0  0  0  0  0  0
  141.0848   74.1843  220.3093 H   0  0  0  0  0  0  0  0  0  0  0  0
  141.3902   75.9545  220.3093 H   0  0  0  0  0  0  0  0  0  0  0  0
  142.0635   77.1232  222.5296 H   0  0  0  0  0  0  0  0  0  0  0  0
  141.4231   79.3776  223.3728 H   0  0  0  0  0  0  0  0  0  0  0  0
  139.0328   79.9658  223.7257 H   0  0  0  0  0  0  0  0  0  0  0  0
  137.2817   78.2789  223.2191 H   0  0  0  0  0  0  0  0  0  0  0  0
  137.1478   76.0039  221.3387 H   0  0  0  0  0  0  0  0  0  0  0  0
  137.2575   75.7010  224.4008 H   0  0  0  0  0  0  0  0  0  0  0  0
  135.9879   76.5107  223.4215 H   0  0  0  0  0  0  0  0  0  0  0  0
  136.1159   74.7190  223.4215 H   0  0  0  0  0  0  0  0  0  0  0  0
  139.0910   74.2150  222.6840 H   0  0  0  0  0  0  0  0  0  0  0  0
  137.6780   71.3771  220.7394 H   0  0  0  0  0  0  0  0  0  0  0  0
  139.2862   72.2484  220.7255 H   0  0  0  0  0  0  0  0  0  0  0  0
  138.0320   70.8530  223.0370 H   0  0  0  0  0  0  0  0  0  0  0  0
  141.3160   73.0124  225.1595 H   0  0  0  0  0  0  0  0  0  0  0  0
  141.8096   72.0434  227.3892 H   0  0  0  0  0  0  0  0  0  0  0  0
  141.5456   70.1926  229.0019 H   0  0  0  0  0  0  0  0  0  0  0  0
  140.5634   67.9413  229.5009 H   0  0  0  0  0  0  0  0  0  0  0  0
  139.1772   66.7786  227.8272 H   0  0  0  0  0  0  0  0  0  0  0  0
  138.7255   67.8289  225.5943 H   0  0  0  0  0  0  0  0  0  0  0  0
  1  2  1  0
  2  3  1  0
  3  4  2  0
  4  5  1  0
  5  6  2  0
  6  7  1  0
  7  8  2  0
  8  9  1  0
  9 10  1  0
  9 11  1  0
 11 12  1  0
 12 13  2  0
 12 14  1  0
 14 15  1  0
 15 16  1  0
 16 17  2  0
 16 18  1  0
 18 19  2  0
 19 20  1  0
 20 21  2  0
 21 22  1  0
 22 23  2  0
 23 24  1  0
 24 25  2  0
 25 26  1  0
 26 27  2  0
  8  3  1  0
 27 18  1  0
 26 21  1  0
  1 28  1  0
  1 29  1  0
  1 30  1  0
  4 31  1  0
  5 32  1  0
  6 33  1  0
  7 34  1  0
  9 35  1  6
 10 36  1  0
 10 37  1  0
 10 38  1  0
 11 39  1  0
 14 40  1  0
 14 41  1  0
 15 42  1  0
 19 43  1  0
 20 44  1  0
 22 45  1  0
 23 46  1  0
 24 47  1  0
 25 48  1  0
M  END
>  <smiles>  (21) 
COc1ccccc1[C@H](C)NC(=O)CNC(=O)c1ccc2ccccc2n1

>  <score_type>  (21) 
oracle

>  <origin>  (21) 
autodockgpu

>  <m_score__min__energy>  (21) 
-8.5299999999999994

>  <m_primary>  (21) 
energy

>  <rmsd>  (21) 
5.085423368947764

>  <m_score__min__rmsd>  (21) 
5.085423368947764

>  <meeko>  (21) 
{"free_energy": -7.53, "intermolecular_energy": -9.32, "internal_energy": -2.35, "cluster_size": 8, "cluster_id": 4, "rank_in_cluster": 3}

>  <energy>  (21) 
-7.76

>  <cluster_rmsd>  (21) 
1.28

>  <cluster>  (21) 
1

$$$$

     RDKit          3D

 48 50  0  0  0  0  0  0  0  0999 V2000
  137.9290   78.0750  222.6050 C   0  0  0  0  0  0  0  0  0  0  0  0
  139.0330   78.4450  221.8050 O   0  0  0  0  0  0  0  0  0  0  0  0
  140.1860   79.0280  222.3310 C   0  0  0  0  0  0  0  0  0  0  0  0
  140.0000   80.0190  223.3010 C   0  0  0  0  0  0  0  0  0  0  0  0
  141.1290   80.6110  223.8350 C   0  0  0  0  0  0  0  0  0  0  0  0
  142.4000   80.2400  223.4270 C   0  0  0  0  0  0  0  0  0  0  0  0
  142.5230   79.2500  222.4610 C   0  0  0  0  0  0  0  0  0  0  0  0
  141.4270   78.6360  221.9040 C   0  0  0  0  0  0  0  0  0  0  0  0
  141.5290   77.5700  220.8640 C   0  0  2  0  0  0  0  0  0  0  0  0
  141.3060   78.2290  219.5170 C   0  0  0  0  0  0  0  0  0  0  0  0
  140.4960   76.5540  221.0080 N   0  0  0  0  0  0  0  0  0  0  0  0
  140.7910   75.1740  221.0920 C   0  0  0  0  0  0  0  0  0  0  0  0
  141.9880   74.7870  221.0420 O   0  0  0  0  0  0  0  0  0  0  0  0
  139.6510   74.2350  221.2360 C   0  0  0  0  0  0  0  0  0  0  0  0
  139.6990   73.4500  222.4280 N   0  0  0  0  0  0  0  0  0  0  0  0
  139.9210   72.0450  222.4250 C   0  0  0  0  0  0  0  0  0  0  0  0
  140.0830   71.4670  221.3080 O   0  0  0  0  0  0  0  0  0  0  0  0
  139.9600   71.2880  223.6920 C   0  0  0  0  0  0  0  0  0  0  0  0
  139.5280   69.9780  223.6690 C   0  0  0  0  0  0  0  0  0  0  0  0
  139.5600   69.2650  224.8400 C   0  0  0  0  0  0  0  0  0  0  0  0
  140.0180   69.8590  226.0180 C   0  0  0  0  0  0  0  0  0  0  0  0
  140.0610   69.1650  227.2070 C   0  0  0  0  0  0  0  0  0  0  0  0
  140.5330   69.8350  228.3390 C   0  0  0  0  0  0  0  0  0  0  0  0
  140.9450   71.1500  228.2650 C   0  0  0  0  0  0  0  0  0  0  0  0
  140.9000   71.8490  227.0560 C   0  0  0  0  0  0  0  0  0  0  0  0
  140.4270   71.1740  225.9350 C   0  0  0  0  0  0  0  0  0  0  0  0
  140.4000   71.8810  224.7900 N   0  0  0  0  0  0  0  0  0  0  0  0
  138.1993   78.1656  223.6674 H   0  0  0  0  0  0  0  0  0  0  0  0
  137.0786   78.7372  222.3852 H   0  0  0  0  0  0  0  0  0  0  0  0
  137.6494   77.0341  222.3852 H   0  0  0  0  0  0  0  0  0  0  0  0
  138.9922   80.3161  223.6267 H   0  0  0  0  0  0  0  0  0  0  0  0
  141.0160   81.3932  224.6001 H   0  0  0  0  0  0  0  0  0  0  0  0
  143.2914   80.7188  223.8585 H   0  0  0  0  0  0  0  0  0  0  0  0
  143.5282   78.9481  222.1317 H   0  0  0  0  0  0  0  0  0  0  0  0
  142.5137   77.0898  220.9629 H   0  0  0  0  0  0  0  0  0  0  0  0
  140.9567   79.2612  219.6671 H   0  0  0  0  0  0  0  0  0  0  0  0
  142.2505   78.2399  218.9533 H   0  0  0  0  0  0  0  0  0  0  0  0
  140.5490   77.6641  218.9533 H   0  0  0  0  0  0  0  0  0  0  0  0
  139.5110   76.8930  221.0470 H   0  0  0  0  0  0  0  0  0  0  0  0
  138.7190   74.8192  221.2426 H   0  0  0  0  0  0  0  0  0  0  0  0
  139.7028   73.5353  220.3888 H   0  0  0  0  0  0  0  0  0  0  0  0
  139.5710   73.8800  223.3930 H   0  0  0  0  0  0  0  0  0  0  0  0
  139.1678   69.5180  222.7370 H   0  0  0  0  0  0  0  0  0  0  0  0
  139.2226   68.2181  224.8515 H   0  0  0  0  0  0  0  0  0  0  0  0
  139.7341   68.1162  227.2638 H   0  0  0  0  0  0  0  0  0  0  0  0
  140.5767   69.3066  229.3028 H   0  0  0  0  0  0  0  0  0  0  0  0
  141.3139   71.6547  229.1701 H   0  0  0  0  0  0  0  0  0  0  0  0
  141.2273   72.8972  226.9926 H   0  0  0  0  0  0  0  0  0  0  0  0
  1  2  1  0
  2  3  1  0
  3  4  2  0
  4  5  1  0
  5  6  2  0
  6  7  1  0
  7  8  2  0
  8  9  1  0
  9 10  1  0
  9 11  1  0
 11 12  1  0
 12 13  2  0
 12 14  1  0
 14 15  1  0
 15 16  1  0
 16 17  2  0
 16 18  1  0
 18 19  2  0
 19 20  1  0
 20 21  2  0
 21 22  1  0
 22 23  2  0
 23 24  1  0
 24 25  2  0
 25 26  1  0
 26 27  2  0
  8  3  1  0
 27 18  1  0
 26 21  1  0
  1 28  1  0
  1 29  1  0
  1 30  1  0
  4 31  1  0
  5 32  1  0
  6 33  1  0
  7 34  1  0
  9 35  1  6
 10 36  1  0
 10 37  1  0
 10 38  1  0
 11 39  1  0
 14 40  1  0
 14 41  1  0
 15 42  1  0
 19 43  1  0
 20 44  1  0
 22 45  1  0
 23 46  1  0
 24 47  1  0
 25 48  1  0
M  END
>  <smiles>  (22) 
COc1ccccc1[C@H](C)NC(=O)CNC(=O)c1ccc2ccccc2n1

>  <score_type>  (22) 
oracle

>  <origin>  (22) 
autodockgpu

>  <m_score__min__energy>  (22) 
-8.5299999999999994

>  <m_primary>  (22) 
energy

>  <rmsd>  (22) 
4.017386473677601

>  <m_score__min__rmsd>  (22) 
4.017386473677601

>  <meeko>  (22) 
{"free_energy": -8.01, "intermolecular_energy": -9.8, "internal_energy": -1.74, "cluster_size": 28, "cluster_id": 1, "rank_in_cluster": 13}

>  <energy>  (22) 
-7.71

>  <cluster_rmsd>  (22) 
1.37

>  <cluster>  (22) 
1

$$$$

     RDKit          3D

 48 50  0  0  0  0  0  0  0  0999 V2000
  139.1730   80.8160  223.4580 C   0  0  0  0  0  0  0  0  0  0  0  0
  140.5360   80.8710  223.0880 O   0  0  0  0  0  0  0  0  0  0  0  0
  141.0080   80.3970  221.8640 C   0  0  0  0  0  0  0  0  0  0  0  0
  141.3010   81.3580  220.8910 C   0  0  0  0  0  0  0  0  0  0  0  0
  141.7700   80.9110  219.6700 C   0  0  0  0  0  0  0  0  0  0  0  0
  141.9440   79.5600  219.4160 C   0  0  0  0  0  0  0  0  0  0  0  0
  141.6380   78.6520  220.4200 C   0  0  0  0  0  0  0  0  0  0  0  0
  141.1690   79.0540  221.6480 C   0  0  0  0  0  0  0  0  0  0  0  0
  140.8310   78.1000  222.7450 C   0  0  2  0  0  0  0  0  0  0  0  0
  141.8540   78.2970  223.8470 C   0  0  0  0  0  0  0  0  0  0  0  0
  140.9350   76.7110  222.3220 N   0  0  0  0  0  0  0  0  0  0  0  0
  139.8900   76.0390  221.6470 C   0  0  0  0  0  0  0  0  0  0  0  0
  138.8190   76.6490  221.3920 O   0  0  0  0  0  0  0  0  0  0  0  0
  140.1150   74.6220  221.2680 C   0  0  0  0  0  0  0  0  0  0  0  0
  139.8760   73.6970  222.3290 N   0  0  0  0  0  0  0  0  0  0  0  0
  140.5940   72.4770  222.4720 C   0  0  0  0  0  0  0  0  0  0  0  0
  141.4870   72.2040  221.6140 O   0  0  0  0  0  0  0  0  0  0  0  0
  140.3010   71.5610  223.5920 C   0  0  0  0  0  0  0  0  0  0  0  0
  139.5780   70.4190  223.3140 C   0  0  0  0  0  0  0  0  0  0  0  0
  139.2990   69.5610  224.3460 C   0  0  0  0  0  0  0  0  0  0  0  0
  139.7400   69.8440  225.6410 C   0  0  0  0  0  0  0  0  0  0  0  0
  139.4750   69.0000  226.6950 C   0  0  0  0  0  0  0  0  0  0  0  0
  139.9520   69.3590  227.9580 C   0  0  0  0  0  0  0  0  0  0  0  0
  140.6680   70.5240  228.1410 C   0  0  0  0  0  0  0  0  0  0  0  0
  140.9350   71.3780  227.0680 C   0  0  0  0  0  0  0  0  0  0  0  0
  140.4550   71.0120  225.8140 C   0  0  0  0  0  0  0  0  0  0  0  0
  140.7330   71.8600  224.8070 N   0  0  0  0  0  0  0  0  0  0  0  0
  139.0907   80.8127  224.5549 H   0  0  0  0  0  0  0  0  0  0  0  0
  138.6476   81.6937  223.0535 H   0  0  0  0  0  0  0  0  0  0  0  0
  138.7200   79.8988  223.0535 H   0  0  0  0  0  0  0  0  0  0  0  0
  141.1632   82.4310  221.0903 H   0  0  0  0  0  0  0  0  0  0  0  0
  142.0099   81.6424  218.8842 H   0  0  0  0  0  0  0  0  0  0  0  0
  142.3164   79.2148  218.4402 H   0  0  0  0  0  0  0  0  0  0  0  0
  141.7750   77.5777  220.2272 H   0  0  0  0  0  0  0  0  0  0  0  0
  139.7965   78.2969  223.0629 H   0  0  0  0  0  0  0  0  0  0  0  0
  141.3613   78.2021  224.8259 H   0  0  0  0  0  0  0  0  0  0  0  0
  142.6412   77.5339  223.7572 H   0  0  0  0  0  0  0  0  0  0  0  0
  142.3015   79.2978  223.7572 H   0  0  0  0  0  0  0  0  0  0  0  0
  141.8290   76.2220  222.5420 H   0  0  0  0  0  0  0  0  0  0  0  0
  139.4416   74.3749  220.4341 H   0  0  0  0  0  0  0  0  0  0  0  0
  141.1762   74.5282  220.9940 H   0  0  0  0  0  0  0  0  0  0  0  0
  139.1410   73.8730  223.0770 H   0  0  0  0  0  0  0  0  0  0  0  0
  139.2347   70.2029  222.2915 H   0  0  0  0  0  0  0  0  0  0  0  0
  138.7239   68.6433  224.1531 H   0  0  0  0  0  0  0  0  0  0  0  0
  138.9049   68.0709  226.5476 H   0  0  0  0  0  0  0  0  0  0  0  0
  139.7539   68.7035  228.8188 H   0  0  0  0  0  0  0  0  0  0  0  0
  141.0336   70.7840  229.1454 H   0  0  0  0  0  0  0  0  0  0  0  0
  141.5052   72.3080  227.2095 H   0  0  0  0  0  0  0  0  0  0  0  0
  1  2  1  0
  2  3  1  0
  3  4  2  0
  4  5  1  0
  5  6  2  0
  6  7  1  0
  7  8  2  0
  8  9  1  0
  9 10  1  0
  9 11  1  0
 11 12  1  0
 12 13  2  0
 12 14  1  0
 14 15  1  0
 15 16  1  0
 16 17  2  0
 16 18  1  0
 18 19  2  0
 19 20  1  0
 20 21  2  0
 21 22  1  0
 22 23  2  0
 23 24  1  0
 24 25  2  0
 25 26  1  0
 26 27  2  0
  8  3  1  0
 27 18  1  0
 26 21  1  0
  1 28  1  0
  1 29  1  0
  1 30  1  0
  4 31  1  0
  5 32  1  0
  6 33  1  0
  7 34  1  0
  9 35  1  1
 10 36  1  0
 10 37  1  0
 10 38  1  0
 11 39  1  0
 14 40  1  0
 14 41  1  0
 15 42  1  0
 19 43  1  0
 20 44  1  0
 22 45  1  0
 23 46  1  0
 24 47  1  0
 25 48  1  0
M  END
>  <smiles>  (23) 
COc1ccccc1[C@H](C)NC(=O)CNC(=O)c1ccc2ccccc2n1

>  <score_type>  (23) 
oracle

>  <origin>  (23) 
autodockgpu

>  <m_score__min__energy>  (23) 
-8.5299999999999994

>  <m_primary>  (23) 
energy

>  <rmsd>  (23) 
3.430776907245874

>  <m_score__min__rmsd>  (23) 
3.430776907245874

>  <meeko>  (23) 
{"free_energy": -8.29, "intermolecular_energy": -10.08, "internal_energy": -0.99, "cluster_size": 28, "cluster_id": 1, "rank_in_cluster": 2}

>  <energy>  (23) 
-7.66

>  <cluster_rmsd>  (23) 
1.37

>  <cluster>  (23) 
1

$$$$

     RDKit          3D

 48 50  0  0  0  0  0  0  0  0999 V2000
  142.8580   77.1080  219.0070 C   0  0  0  0  0  0  0  0  0  0  0  0
  142.2360   77.6110  220.1720 O   0  0  0  0  0  0  0  0  0  0  0  0
  141.8260   78.9390  220.2970 C   0  0  0  0  0  0  0  0  0  0  0  0
  142.1750   79.8030  219.2540 C   0  0  0  0  0  0  0  0  0  0  0  0
  141.7780   81.1230  219.3580 C   0  0  0  0  0  0  0  0  0  0  0  0
  141.0610   81.5770  220.4530 C   0  0  0  0  0  0  0  0  0  0  0  0
  140.7420   80.6740  221.4570 C   0  0  0  0  0  0  0  0  0  0  0  0
  141.1170   79.3520  221.3940 C   0  0  0  0  0  0  0  0  0  0  0  0
  140.7890   78.3590  222.4580 C   0  0  2  0  0  0  0  0  0  0  0  0
  141.8480   78.4850  223.5360 C   0  0  0  0  0  0  0  0  0  0  0  0
  140.8470   76.9880  221.9740 N   0  0  0  0  0  0  0  0  0  0  0  0
  139.7000   76.1670  221.8660 C   0  0  0  0  0  0  0  0  0  0  0  0
  138.5750   76.6220  222.1980 O   0  0  0  0  0  0  0  0  0  0  0  0
  139.8880   74.7860  221.3590 C   0  0  0  0  0  0  0  0  0  0  0  0
  139.6820   73.7760  222.3480 N   0  0  0  0  0  0  0  0  0  0  0  0
  140.5370   72.6490  222.4970 C   0  0  0  0  0  0  0  0  0  0  0  0
  141.5280   72.5410  221.7130 O   0  0  0  0  0  0  0  0  0  0  0  0
  140.2710   71.6380  223.5390 C   0  0  0  0  0  0  0  0  0  0  0  0
  139.5890   70.4980  223.1680 C   0  0  0  0  0  0  0  0  0  0  0  0
  139.3360   69.5530  224.1270 C   0  0  0  0  0  0  0  0  0  0  0  0
  139.7620   69.7470  225.4440 C   0  0  0  0  0  0  0  0  0  0  0  0
  139.5210   68.8140  226.4260 C   0  0  0  0  0  0  0  0  0  0  0  0
  139.9810   69.0890  227.7170 C   0  0  0  0  0  0  0  0  0  0  0  0
  140.6570   70.2590  227.9950 C   0  0  0  0  0  0  0  0  0  0  0  0
  140.8980   71.2040  226.9940 C   0  0  0  0  0  0  0  0  0  0  0  0
  140.4350   70.9210  225.7130 C   0  0  0  0  0  0  0  0  0  0  0  0
  140.6890   71.8550  224.7770 N   0  0  0  0  0  0  0  0  0  0  0  0
  143.6842   76.4399  219.2918 H   0  0  0  0  0  0  0  0  0  0  0  0
  142.1222   76.5479  218.4112 H   0  0  0  0  0  0  0  0  0  0  0  0
  143.2517   77.9447  218.4112 H   0  0  0  0  0  0  0  0  0  0  0  0
  142.7442   79.4454  218.3833 H   0  0  0  0  0  0  0  0  0  0  0  0
  142.0369   81.8279  218.5542 H   0  0  0  0  0  0  0  0  0  0  0  0
  140.7514   82.6301  220.5249 H   0  0  0  0  0  0  0  0  0  0  0  0
  140.1721   81.0258  222.3296 H   0  0  0  0  0  0  0  0  0  0  0  0
  139.7690   78.5650  222.8146 H   0  0  0  0  0  0  0  0  0  0  0  0
  141.3720   78.4284  224.5260 H   0  0  0  0  0  0  0  0  0  0  0  0
  142.5762   77.6672  223.4320 H   0  0  0  0  0  0  0  0  0  0  0  0
  142.3640   79.4509  223.4320 H   0  0  0  0  0  0  0  0  0  0  0  0
  141.7880   76.6280  221.7030 H   0  0  0  0  0  0  0  0  0  0  0  0
  139.1755   74.6179  220.5379 H   0  0  0  0  0  0  0  0  0  0  0  0
  140.9348   74.7047  221.0311 H   0  0  0  0  0  0  0  0  0  0  0  0
  138.8690   73.8140  223.0330 H   0  0  0  0  0  0  0  0  0  0  0  0
  139.2570   70.3515  222.1296 H   0  0  0  0  0  0  0  0  0  0  0  0
  138.7935   68.6345  223.8585 H   0  0  0  0  0  0  0  0  0  0  0  0
  138.9832   67.8809  226.2022 H   0  0  0  0  0  0  0  0  0  0  0  0
  139.8014   68.3621  228.5228 H   0  0  0  0  0  0  0  0  0  0  0  0
  141.0112   70.4507  229.0186 H   0  0  0  0  0  0  0  0  0  0  0  0
  141.4351   72.1390  227.2114 H   0  0  0  0  0  0  0  0  0  0  0  0
  1  2  1  0
  2  3  1  0
  3  4  2  0
  4  5  1  0
  5  6  2  0
  6  7  1  0
  7  8  2  0
  8  9  1  0
  9 10  1  0
  9 11  1  0
 11 12  1  0
 12 13  2  0
 12 14  1  0
 14 15  1  0
 15 16  1  0
 16 17  2  0
 16 18  1  0
 18 19  2  0
 19 20  1  0
 20 21  2  0
 21 22  1  0
 22 23  2  0
 23 24  1  0
 24 25  2  0
 25 26  1  0
 26 27  2  0
  8  3  1  0
 27 18  1  0
 26 21  1  0
  1 28  1  0
  1 29  1  0
  1 30  1  0
  4 31  1  0
  5 32  1  0
  6 33  1  0
  7 34  1  0
  9 35  1  1
 10 36  1  0
 10 37  1  0
 10 38  1  0
 11 39  1  0
 14 40  1  0
 14 41  1  0
 15 42  1  0
 19 43  1  0
 20 44  1  0
 22 45  1  0
 23 46  1  0
 24 47  1  0
 25 48  1  0
M  END
>  <smiles>  (24) 
COc1ccccc1[C@H](C)NC(=O)CNC(=O)c1ccc2ccccc2n1

>  <score_type>  (24) 
oracle

>  <origin>  (24) 
autodockgpu

>  <m_score__min__energy>  (24) 
-8.5299999999999994

>  <m_primary>  (24) 
energy

>  <rmsd>  (24) 
3.481353211595227

>  <m_score__min__rmsd>  (24) 
3.481353211595227

>  <meeko>  (24) 
{"free_energy": -8.13, "intermolecular_energy": -9.92, "internal_energy": -1.36, "cluster_size": 28, "cluster_id": 1, "rank_in_cluster": 8}

>  <energy>  (24) 
-7.59

>  <cluster_rmsd>  (24) 
1.66

>  <cluster>  (24) 
1

$$$$

     RDKit          3D

 48 50  0  0  0  0  0  0  0  0999 V2000
  142.3150   76.5620  219.8750 C   0  0  0  0  0  0  0  0  0  0  0  0
  141.0600   76.6220  220.5210 O   0  0  0  0  0  0  0  0  0  0  0  0
  140.7720   77.5390  221.5310 C   0  0  0  0  0  0  0  0  0  0  0  0
  141.8040   78.4070  221.9020 C   0  0  0  0  0  0  0  0  0  0  0  0
  141.5410   79.3240  222.9020 C   0  0  0  0  0  0  0  0  0  0  0  0
  140.3000   79.3850  223.5160 C   0  0  0  0  0  0  0  0  0  0  0  0
  139.3140   78.4990  223.1060 C   0  0  0  0  0  0  0  0  0  0  0  0
  139.5340   77.5710  222.1160 C   0  0  0  0  0  0  0  0  0  0  0  0
  138.4910   76.6070  221.6550 C   0  0  2  0  0  0  0  0  0  0  0  0
  137.5110   76.4210  222.7970 C   0  0  0  0  0  0  0  0  0  0  0  0
  139.0440   75.2930  221.3620 N   0  0  0  0  0  0  0  0  0  0  0  0
  138.3050   74.2850  220.7000 C   0  0  0  0  0  0  0  0  0  0  0  0
  137.1200   74.5140  220.3430 O   0  0  0  0  0  0  0  0  0  0  0  0
  138.9780   72.9850  220.4580 C   0  0  0  0  0  0  0  0  0  0  0  0
  139.0420   72.1460  221.6130 N   0  0  0  0  0  0  0  0  0  0  0  0
  139.9400   72.3750  222.6910 C   0  0  0  0  0  0  0  0  0  0  0  0
  140.7200   73.3730  222.6190 O   0  0  0  0  0  0  0  0  0  0  0  0
  139.9590   71.4710  223.8580 C   0  0  0  0  0  0  0  0  0  0  0  0
  139.4010   70.2180  223.7070 C   0  0  0  0  0  0  0  0  0  0  0  0
  139.4120   69.3710  224.7840 C   0  0  0  0  0  0  0  0  0  0  0  0
  139.9740   69.7740  225.9980 C   0  0  0  0  0  0  0  0  0  0  0  0
  139.9980   68.9430  227.0950 C   0  0  0  0  0  0  0  0  0  0  0  0
  140.5790   69.4270  228.2700 C   0  0  0  0  0  0  0  0  0  0  0  0
  141.1130   70.6980  228.3270 C   0  0  0  0  0  0  0  0  0  0  0  0
  141.0860   71.5380  227.2110 C   0  0  0  0  0  0  0  0  0  0  0  0
  140.5050   71.0470  226.0460 C   0  0  0  0  0  0  0  0  0  0  0  0
  140.4990   71.8860  224.9930 N   0  0  0  0  0  0  0  0  0  0  0  0
  143.1144   76.5238  220.6297 H   0  0  0  0  0  0  0  0  0  0  0  0
  142.3610   75.6606  219.2462 H   0  0  0  0  0  0  0  0  0  0  0  0
  142.4468   77.4549  219.2462 H   0  0  0  0  0  0  0  0  0  0  0  0
  142.7895   78.3615  221.4154 H   0  0  0  0  0  0  0  0  0  0  0  0
  142.3328   80.0196  223.2170 H   0  0  0  0  0  0  0  0  0  0  0  0
  140.1012   80.1193  224.3105 H   0  0  0  0  0  0  0  0  0  0  0  0
  138.3260   78.5405  223.5879 H   0  0  0  0  0  0  0  0  0  0  0  0
  138.0318   77.0107  220.7406 H   0  0  0  0  0  0  0  0  0  0  0  0
  138.0414   76.5217  223.7554 H   0  0  0  0  0  0  0  0  0  0  0  0
  136.7228   77.1856  222.7320 H   0  0  0  0  0  0  0  0  0  0  0  0
  137.0578   75.4208  222.7320 H   0  0  0  0  0  0  0  0  0  0  0  0
  140.0270   75.1210  221.6650 H   0  0  0  0  0  0  0  0  0  0  0  0
  138.4267   72.4501  219.6707 H   0  0  0  0  0  0  0  0  0  0  0  0
  140.0147   73.2097  220.1668 H   0  0  0  0  0  0  0  0  0  0  0  0
  138.4120   71.2960  221.7290 H   0  0  0  0  0  0  0  0  0  0  0  0
  138.9595   69.9077  222.7484 H   0  0  0  0  0  0  0  0  0  0  0  0
  138.9749   68.3658  224.6921 H   0  0  0  0  0  0  0  0  0  0  0  0
  139.5731   67.9295  227.0482 H   0  0  0  0  0  0  0  0  0  0  0  0
  140.6111   68.7852  229.1628 H   0  0  0  0  0  0  0  0  0  0  0  0
  141.5661   71.0547  229.2637 H   0  0  0  0  0  0  0  0  0  0  0  0
  141.5094   72.5524  227.2519 H   0  0  0  0  0  0  0  0  0  0  0  0
  1  2  1  0
  2  3  1  0
  3  4  2  0
  4  5  1  0
  5  6  2  0
  6  7  1  0
  7  8  2  0
  8  9  1  0
  9 10  1  0
  9 11  1  0
 11 12  1  0
 12 13  2  0
 12 14  1  0
 14 15  1  0
 15 16  1  0
 16 17  2  0
 16 18  1  0
 18 19  2  0
 19 20  1  0
 20 21  2  0
 21 22  1  0
 22 23  2  0
 23 24  1  0
 24 25  2  0
 25 26  1  0
 26 27  2  0
  8  3  1  0
 27 18  1  0
 26 21  1  0
  1 28  1  0
  1 29  1  0
  1 30  1  0
  4 31  1  0
  5 32  1  0
  6 33  1  0
  7 34  1  0
  9 35  1  6
 10 36  1  0
 10 37  1  0
 10 38  1  0
 11 39  1  0
 14 40  1  0
 14 41  1  0
 15 42  1  0
 19 43  1  0
 20 44  1  0
 22 45  1  0
 23 46  1  0
 24 47  1  0
 25 48  1  0
M  END
>  <smiles>  (25) 
COc1ccccc1[C@H](C)NC(=O)CNC(=O)c1ccc2ccccc2n1

>  <score_type>  (25) 
oracle

>  <origin>  (25) 
autodockgpu

>  <m_score__min__energy>  (25) 
-8.5299999999999994

>  <m_primary>  (25) 
energy

>  <rmsd>  (25) 
4.755580495087815

>  <m_score__min__rmsd>  (25) 
4.755580495087815

>  <meeko>  (25) 
{"free_energy": -7.18, "intermolecular_energy": -8.97, "internal_energy": -2.3, "cluster_size": 28, "cluster_id": 1, "rank_in_cluster": 28}

>  <energy>  (25) 
-7.57

>  <cluster_rmsd>  (25) 
1.74

>  <cluster>  (25) 
1

$$$$

     RDKit          3D

 48 50  0  0  0  0  0  0  0  0999 V2000
  140.9910   72.1330  222.2770 C   0  0  0  0  0  0  0  0  0  0  0  0
  140.7580   73.5200  222.1460 O   0  0  0  0  0  0  0  0  0  0  0  0
  141.4510   74.3210  221.2380 C   0  0  0  0  0  0  0  0  0  0  0  0
  142.7160   73.8720  220.8450 C   0  0  0  0  0  0  0  0  0  0  0  0
  143.4200   74.6510  219.9450 C   0  0  0  0  0  0  0  0  0  0  0  0
  142.8950   75.8330  219.4500 C   0  0  0  0  0  0  0  0  0  0  0  0
  141.6350   76.2280  219.8740 C   0  0  0  0  0  0  0  0  0  0  0  0
  140.9010   75.4840  220.7670 C   0  0  0  0  0  0  0  0  0  0  0  0
  139.5430   75.8850  221.2420 C   0  0  2  0  0  0  0  0  0  0  0  0
  139.7330   76.7970  222.4380 C   0  0  0  0  0  0  0  0  0  0  0  0
  138.7600   74.7480  221.7040 N   0  0  0  0  0  0  0  0  0  0  0  0
  138.0070   73.9340  220.8270 C   0  0  0  0  0  0  0  0  0  0  0  0
  138.0000   74.1860  219.5940 O   0  0  0  0  0  0  0  0  0  0  0  0
  137.2490   72.8040  221.4180 C   0  0  0  0  0  0  0  0  0  0  0  0
  137.8490   72.2610  222.5950 N   0  0  0  0  0  0  0  0  0  0  0  0
  138.0770   70.8690  222.7800 C   0  0  0  0  0  0  0  0  0  0  0  0
  137.7280   70.0770  221.8530 O   0  0  0  0  0  0  0  0  0  0  0  0
  138.7020   70.3690  224.0190 C   0  0  0  0  0  0  0  0  0  0  0  0
  138.6060   69.0180  224.2860 C   0  0  0  0  0  0  0  0  0  0  0  0
  139.1830   68.5430  225.4350 C   0  0  0  0  0  0  0  0  0  0  0  0
  139.8470   69.4090  226.3060 C   0  0  0  0  0  0  0  0  0  0  0  0
  140.4360   68.9570  227.4660 C   0  0  0  0  0  0  0  0  0  0  0  0
  141.0800   69.8930  228.2800 C   0  0  0  0  0  0  0  0  0  0  0  0
  141.1250   71.2260  227.9310 C   0  0  0  0  0  0  0  0  0  0  0  0
  140.5270   71.6800  226.7520 C   0  0  0  0  0  0  0  0  0  0  0  0
  139.8870   70.7410  225.9490 C   0  0  0  0  0  0  0  0  0  0  0  0
  139.3240   71.2180  224.8230 N   0  0  0  0  0  0  0  0  0  0  0  0
  141.0355   71.8678  223.3436 H   0  0  0  0  0  0  0  0  0  0  0  0
  140.1737   71.5767  221.7947 H   0  0  0  0  0  0  0  0  0  0  0  0
  141.9452   71.8743  221.7947 H   0  0  0  0  0  0  0  0  0  0  0  0
  143.1354   72.9338  221.2373 H   0  0  0  0  0  0  0  0  0  0  0  0
  144.4176   74.3250  219.6155 H   0  0  0  0  0  0  0  0  0  0  0  0
  143.4651   76.4454  218.7359 H   0  0  0  0  0  0  0  0  0  0  0  0
  141.2102   77.1647  219.4840 H   0  0  0  0  0  0  0  0  0  0  0  0
  139.0144   76.3616  220.4033 H   0  0  0  0  0  0  0  0  0  0  0  0
  139.6121   76.2166  223.3646 H   0  0  0  0  0  0  0  0  0  0  0  0
  140.7417   77.2349  222.4086 H   0  0  0  0  0  0  0  0  0  0  0  0
  138.9831   77.6013  222.4086 H   0  0  0  0  0  0  0  0  0  0  0  0
  138.7780   74.5540  222.7280 H   0  0  0  0  0  0  0  0  0  0  0  0
  136.2404   73.1597  221.6753 H   0  0  0  0  0  0  0  0  0  0  0  0
  137.2329   72.0008  220.6666 H   0  0  0  0  0  0  0  0  0  0  0  0
  138.1620   72.8760  223.4050 H   0  0  0  0  0  0  0  0  0  0  0  0
  138.0810   68.3414  223.5957 H   0  0  0  0  0  0  0  0  0  0  0  0
  139.1224   67.4707  225.6729 H   0  0  0  0  0  0  0  0  0  0  0  0
  140.4007   67.8930  227.7431 H   0  0  0  0  0  0  0  0  0  0  0  0
  141.5582   69.5610  229.2133 H   0  0  0  0  0  0  0  0  0  0  0  0
  141.6385   71.9421  228.5894 H   0  0  0  0  0  0  0  0  0  0  0  0
  140.5611   72.7424  226.4689 H   0  0  0  0  0  0  0  0  0  0  0  0
  1  2  1  0
  2  3  1  0
  3  4  2  0
  4  5  1  0
  5  6  2  0
  6  7  1  0
  7  8  2  0
  8  9  1  0
  9 10  1  0
  9 11  1  0
 11 12  1  0
 12 13  2  0
 12 14  1  0
 14 15  1  0
 15 16  1  0
 16 17  2  0
 16 18  1  0
 18 19  2  0
 19 20  1  0
 20 21  2  0
 21 22  1  0
 22 23  2  0
 23 24  1  0
 24 25  2  0
 25 26  1  0
 26 27  2  0
  8  3  1  0
 27 18  1  0
 26 21  1  0
  1 28  1  0
  1 29  1  0
  1 30  1  0
  4 31  1  0
  5 32  1  0
  6 33  1  0
  7 34  1  0
  9 35  1  6
 10 36  1  0
 10 37  1  0
 10 38  1  0
 11 39  1  0
 14 40  1  0
 14 41  1  0
 15 42  1  0
 19 43  1  0
 20 44  1  0
 22 45  1  0
 23 46  1  0
 24 47  1  0
 25 48  1  0
M  END
>  <smiles>  (26) 
COc1ccccc1[C@H](C)NC(=O)CNC(=O)c1ccc2ccccc2n1

>  <score_type>  (26) 
oracle

>  <origin>  (26) 
autodockgpu

>  <m_score__min__energy>  (26) 
-8.5299999999999994

>  <m_primary>  (26) 
energy

>  <rmsd>  (26) 
5.5476436661164215

>  <m_score__min__rmsd>  (26) 
5.5476436661164215

>  <meeko>  (26) 
{"free_energy": -7.53, "intermolecular_energy": -9.32, "internal_energy": -1.96, "cluster_size": 8, "cluster_id": 4, "rank_in_cluster": 2}

>  <energy>  (26) 
-7.41

>  <cluster_rmsd>  (26) 
1.58

>  <cluster>  (26) 
1

$$$$

     RDKit          3D

 48 50  0  0  0  0  0  0  0  0999 V2000
  145.5410   73.3180  217.1480 C   0  0  0  0  0  0  0  0  0  0  0  0
  145.9480   72.6930  218.3470 O   0  0  0  0  0  0  0  0  0  0  0  0
  145.3020   71.5740  218.8750 C   0  0  0  0  0  0  0  0  0  0  0  0
  145.9120   70.3350  218.6510 C   0  0  0  0  0  0  0  0  0  0  0  0
  145.2900   69.2140  219.1650 C   0  0  0  0  0  0  0  0  0  0  0  0
  144.1040   69.3090  219.8760 C   0  0  0  0  0  0  0  0  0  0  0  0
  143.5460   70.5650  220.0680 C   0  0  0  0  0  0  0  0  0  0  0  0
  144.1320   71.7060  219.5730 C   0  0  0  0  0  0  0  0  0  0  0  0
  143.5530   73.0690  219.7640 C   0  0  2  0  0  0  0  0  0  0  0  0
  144.3790   73.7660  220.8270 C   0  0  0  0  0  0  0  0  0  0  0  0
  142.1850   73.0250  220.2600 N   0  0  0  0  0  0  0  0  0  0  0  0
  141.3980   74.1880  220.4260 C   0  0  0  0  0  0  0  0  0  0  0  0
  141.8800   75.3140  220.1400 O   0  0  0  0  0  0  0  0  0  0  0  0
  140.0170   74.0140  220.9410 C   0  0  0  0  0  0  0  0  0  0  0  0
  139.9490   73.3090  222.1810 N   0  0  0  0  0  0  0  0  0  0  0  0
  140.2110   71.9160  222.2980 C   0  0  0  0  0  0  0  0  0  0  0  0
  140.5190   71.2750  221.2480 O   0  0  0  0  0  0  0  0  0  0  0  0
  140.1250   71.2430  223.6090 C   0  0  0  0  0  0  0  0  0  0  0  0
  139.5010   70.0130  223.6580 C   0  0  0  0  0  0  0  0  0  0  0  0
  139.4150   69.3790  224.8700 C   0  0  0  0  0  0  0  0  0  0  0  0
  139.9460   69.9700  226.0190 C   0  0  0  0  0  0  0  0  0  0  0  0
  139.8740   69.3550  227.2480 C   0  0  0  0  0  0  0  0  0  0  0  0
  140.4310   70.0170  228.3460 C   0  0  0  0  0  0  0  0  0  0  0  0
  141.0360   71.2480  228.1990 C   0  0  0  0  0  0  0  0  0  0  0  0
  141.1080   71.8680  226.9490 C   0  0  0  0  0  0  0  0  0  0  0  0
  140.5490   71.2020  225.8630 C   0  0  0  0  0  0  0  0  0  0  0  0
  140.6390   71.8310  224.6770 N   0  0  0  0  0  0  0  0  0  0  0  0
  144.9548   74.2182  217.3844 H   0  0  0  0  0  0  0  0  0  0  0  0
  146.4282   73.6014  216.5628 H   0  0  0  0  0  0  0  0  0  0  0  0
  144.9230   72.6212  216.5628 H   0  0  0  0  0  0  0  0  0  0  0  0
  146.8526   70.2565  218.0862 H   0  0  0  0  0  0  0  0  0  0  0  0
  145.7453   68.2252  219.0068 H   0  0  0  0  0  0  0  0  0  0  0  0
  143.6161   68.4092  220.2790 H   0  0  0  0  0  0  0  0  0  0  0  0
  142.6063   70.6503  220.6334 H   0  0  0  0  0  0  0  0  0  0  0  0
  143.5605   73.5832  218.7916 H   0  0  0  0  0  0  0  0  0  0  0  0
  144.0230   73.4656  221.8235 H   0  0  0  0  0  0  0  0  0  0  0  0
  145.4359   73.4827  220.7144 H   0  0  0  0  0  0  0  0  0  0  0  0
  144.2775   74.8555  220.7144 H   0  0  0  0  0  0  0  0  0  0  0  0
  141.8030   72.0840  220.4920 H   0  0  0  0  0  0  0  0  0  0  0  0
  139.5719   75.0098  221.0833 H   0  0  0  0  0  0  0  0  0  0  0  0
  139.4720   73.4114  220.1995 H   0  0  0  0  0  0  0  0  0  0  0  0
  139.6960   73.7940  223.0940 H   0  0  0  0  0  0  0  0  0  0  0  0
  139.0842   69.5541  222.7493 H   0  0  0  0  0  0  0  0  0  0  0  0
  138.9240   68.3971  224.9385 H   0  0  0  0  0  0  0  0  0  0  0  0
  139.3928   68.3725  227.3628 H   0  0  0  0  0  0  0  0  0  0  0  0
  140.3863   69.5499  229.3409 H   0  0  0  0  0  0  0  0  0  0  0  0
  141.4678   71.7485  229.0783 H   0  0  0  0  0  0  0  0  0  0  0  0
  141.5902   72.8492  226.8277 H   0  0  0  0  0  0  0  0  0  0  0  0
  1  2  1  0
  2  3  1  0
  3  4  2  0
  4  5  1  0
  5  6  2  0
  6  7  1  0
  7  8  2  0
  8  9  1  0
  9 10  1  0
  9 11  1  0
 11 12  1  0
 12 13  2  0
 12 14  1  0
 14 15  1  0
 15 16  1  0
 16 17  2  0
 16 18  1  0
 18 19  2  0
 19 20  1  0
 20 21  2  0
 21 22  1  0
 22 23  2  0
 23 24  1  0
 24 25  2  0
 25 26  1  0
 26 27  2  0
  8  3  1  0
 27 18  1  0
 26 21  1  0
  1 28  1  0
  1 29  1  0
  1 30  1  0
  4 31  1  0
  5 32  1  0
  6 33  1  0
  7 34  1  0
  9 35  1  6
 10 36  1  0
 10 37  1  0
 10 38  1  0
 11 39  1  0
 14 40  1  0
 14 41  1  0
 15 42  1  0
 19 43  1  0
 20 44  1  0
 22 45  1  0
 23 46  1  0
 24 47  1  0
 25 48  1  0
M  END
>  <smiles>  (27) 
COc1ccccc1[C@H](C)NC(=O)CNC(=O)c1ccc2ccccc2n1

>  <score_type>  (27) 
oracle

>  <origin>  (27) 
autodockgpu

>  <m_score__min__energy>  (27) 
-8.5299999999999994

>  <m_primary>  (27) 
energy

>  <rmsd>  (27) 
7.76397939345766

>  <m_score__min__rmsd>  (27) 
7.76397939345766

>  <meeko>  (27) 
{"free_energy": -7.76, "intermolecular_energy": -9.55, "internal_energy": -1.95, "cluster_size": 7, "cluster_id": 3, "rank_in_cluster": 1}

>  <energy>  (27) 
-7.21

>  <cluster_rmsd>  (27) 
1.63

>  <cluster>  (27) 
1

$$$$

     RDKit          3D

 48 50  0  0  0  0  0  0  0  0999 V2000
  137.9500   77.8490  222.3370 C   0  0  0  0  0  0  0  0  0  0  0  0
  139.0490   78.3660  221.6160 O   0  0  0  0  0  0  0  0  0  0  0  0
  140.1730   78.9120  222.2360 C   0  0  0  0  0  0  0  0  0  0  0  0
  139.9370   79.8750  223.2230 C   0  0  0  0  0  0  0  0  0  0  0  0
  141.0370   80.4290  223.8510 C   0  0  0  0  0  0  0  0  0  0  0  0
  142.3260   80.0470  223.5180 C   0  0  0  0  0  0  0  0  0  0  0  0
  142.4990   79.0850  222.5330 C   0  0  0  0  0  0  0  0  0  0  0  0
  141.4330   78.5090  221.8830 C   0  0  0  0  0  0  0  0  0  0  0  0
  141.5890   77.4730  220.8190 C   0  0  2  0  0  0  0  0  0  0  0  0
  141.5160   78.1850  219.4810 C   0  0  0  0  0  0  0  0  0  0  0  0
  140.5070   76.4990  220.8320 N   0  0  0  0  0  0  0  0  0  0  0  0
  140.6960   75.1560  221.2350 C   0  0  0  0  0  0  0  0  0  0  0  0
  141.8360   74.7690  221.6010 O   0  0  0  0  0  0  0  0  0  0  0  0
  139.5160   74.2580  221.2050 C   0  0  0  0  0  0  0  0  0  0  0  0
  139.4190   73.3960  222.3400 N   0  0  0  0  0  0  0  0  0  0  0  0
  140.3120   72.3140  222.5720 C   0  0  0  0  0  0  0  0  0  0  0  0
  141.2360   72.1090  221.7290 O   0  0  0  0  0  0  0  0  0  0  0  0
  140.1600   71.4590  223.7660 C   0  0  0  0  0  0  0  0  0  0  0  0
  139.4670   70.2740  223.6210 C   0  0  0  0  0  0  0  0  0  0  0  0
  139.3190   69.4720  224.7230 C   0  0  0  0  0  0  0  0  0  0  0  0
  139.8600   69.8520  225.9540 C   0  0  0  0  0  0  0  0  0  0  0  0
  139.7270   69.0640  227.0750 C   0  0  0  0  0  0  0  0  0  0  0  0
  140.2970   69.5200  228.2670 C   0  0  0  0  0  0  0  0  0  0  0  0
  140.9750   70.7210  228.3150 C   0  0  0  0  0  0  0  0  0  0  0  0
  141.1080   71.5170  227.1740 C   0  0  0  0  0  0  0  0  0  0  0  0
  140.5350   71.0550  225.9930 C   0  0  0  0  0  0  0  0  0  0  0  0
  140.6850   71.8490  224.9170 N   0  0  0  0  0  0  0  0  0  0  0  0
  138.1437   77.9401  223.4160 H   0  0  0  0  0  0  0  0  0  0  0  0
  137.0428   78.4148  222.0783 H   0  0  0  0  0  0  0  0  0  0  0  0
  137.8075   76.7894  222.0783 H   0  0  0  0  0  0  0  0  0  0  0  0
  138.9143   80.1800  223.4895 H   0  0  0  0  0  0  0  0  0  0  0  0
  140.8853   81.1891  224.6315 H   0  0  0  0  0  0  0  0  0  0  0  0
  143.1936   80.4964  224.0233 H   0  0  0  0  0  0  0  0  0  0  0  0
  143.5193   78.7740  222.2642 H   0  0  0  0  0  0  0  0  0  0  0  0
  142.5406   76.9482  220.9893 H   0  0  0  0  0  0  0  0  0  0  0  0
  141.4051   79.2667  219.6469 H   0  0  0  0  0  0  0  0  0  0  0  0
  142.4385   77.9938  218.9131 H   0  0  0  0  0  0  0  0  0  0  0  0
  140.6515   77.8106  218.9131 H   0  0  0  0  0  0  0  0  0  0  0  0
  139.5700   76.8370  220.5260 H   0  0  0  0  0  0  0  0  0  0  0  0
  138.6088   74.8786  221.1622 H   0  0  0  0  0  0  0  0  0  0  0  0
  139.6266   73.6128  220.3210 H   0  0  0  0  0  0  0  0  0  0  0  0
  138.6650   73.5200  223.0800 H   0  0  0  0  0  0  0  0  0  0  0  0
  139.0452   69.9813  222.6482 H   0  0  0  0  0  0  0  0  0  0  0  0
  138.7704   68.5224  224.6375 H   0  0  0  0  0  0  0  0  0  0  0  0
  139.1890   68.1055  227.0339 H   0  0  0  0  0  0  0  0  0  0  0  0
  140.2038   68.9130  229.1796 H   0  0  0  0  0  0  0  0  0  0  0  0
  141.4170   71.0565  229.2648 H   0  0  0  0  0  0  0  0  0  0  0  0
  141.6469   72.4754  227.2083 H   0  0  0  0  0  0  0  0  0  0  0  0
  1  2  1  0
  2  3  1  0
  3  4  2  0
  4  5  1  0
  5  6  2  0
  6  7  1  0
  7  8  2  0
  8  9  1  0
  9 10  1  0
  9 11  1  0
 11 12  1  0
 12 13  2  0
 12 14  1  0
 14 15  1  0
 15 16  1  0
 16 17  2  0
 16 18  1  0
 18 19  2  0
 19 20  1  0
 20 21  2  0
 21 22  1  0
 22 23  2  0
 23 24  1  0
 24 25  2  0
 25 26  1  0
 26 27  2  0
  8  3  1  0
 27 18  1  0
 26 21  1  0
  1 28  1  0
  1 29  1  0
  1 30  1  0
  4 31  1  0
  5 32  1  0
  6 33  1  0
  7 34  1  0
  9 35  1  1
 10 36  1  0
 10 37  1  0
 10 38  1  0
 11 39  1  0
 14 40  1  0
 14 41  1  0
 15 42  1  0
 19 43  1  0
 20 44  1  0
 22 45  1  0
 23 46  1  0
 24 47  1  0
 25 48  1  0
M  END
>  <smiles>  (28) 
COc1ccccc1[C@H](C)NC(=O)CNC(=O)c1ccc2ccccc2n1

>  <score_type>  (28) 
oracle

>  <origin>  (28) 
autodockgpu

>  <m_score__min__energy>  (28) 
-8.5299999999999994

>  <m_primary>  (28) 
energy

>  <rmsd>  (28) 
4.01910717198998

>  <m_score__min__rmsd>  (28) 
4.01910717198998

>  <meeko>  (28) 
{"free_energy": -8.14, "intermolecular_energy": -9.93, "internal_energy": -1.51, "cluster_size": 28, "cluster_id": 1, "rank_in_cluster": 7}

>  <energy>  (28) 
-7.18

>  <cluster_rmsd>  (28) 
1.57

>  <cluster>  (28) 
1

$$$$

     RDKit          3D

 48 50  0  0  0  0  0  0  0  0999 V2000
  141.4850   75.7150  220.7520 C   0  0  0  0  0  0  0  0  0  0  0  0
  140.5630   75.7780  221.8210 O   0  0  0  0  0  0  0  0  0  0  0  0
  140.1440   76.9810  222.3890 C   0  0  0  0  0  0  0  0  0  0  0  0
  141.1490   77.8510  222.8250 C   0  0  0  0  0  0  0  0  0  0  0  0
  140.7570   79.0490  223.3920 C   0  0  0  0  0  0  0  0  0  0  0  0
  139.4180   79.3790  223.5250 C   0  0  0  0  0  0  0  0  0  0  0  0
  138.4650   78.4770  223.0740 C   0  0  0  0  0  0  0  0  0  0  0  0
  138.8120   77.2740  222.5040 C   0  0  0  0  0  0  0  0  0  0  0  0
  137.8080   76.2850  222.0110 C   0  0  2  0  0  0  0  0  0  0  0  0
  136.8070   76.0620  223.1280 C   0  0  0  0  0  0  0  0  0  0  0  0
  138.4050   74.9890  221.7210 N   0  0  0  0  0  0  0  0  0  0  0  0
  137.9390   74.1520  220.6800 C   0  0  0  0  0  0  0  0  0  0  0  0
  136.9720   74.5240  219.9660 O   0  0  0  0  0  0  0  0  0  0  0  0
  138.6290   72.8530  220.4830 C   0  0  0  0  0  0  0  0  0  0  0  0
  138.7220   72.0640  221.6690 N   0  0  0  0  0  0  0  0  0  0  0  0
  139.7020   72.2860  222.6760 C   0  0  0  0  0  0  0  0  0  0  0  0
  140.5310   73.2310  222.5060 O   0  0  0  0  0  0  0  0  0  0  0  0
  139.7470   71.4360  223.8810 C   0  0  0  0  0  0  0  0  0  0  0  0
  139.1470   70.1950  223.8130 C   0  0  0  0  0  0  0  0  0  0  0  0
  139.1820   69.3970  224.9270 C   0  0  0  0  0  0  0  0  0  0  0  0
  139.8090   69.8370  226.0950 C   0  0  0  0  0  0  0  0  0  0  0  0
  139.8590   69.0550  227.2270 C   0  0  0  0  0  0  0  0  0  0  0  0
  140.5050   69.5740  228.3530 C   0  0  0  0  0  0  0  0  0  0  0  0
  141.0770   70.8290  228.3270 C   0  0  0  0  0  0  0  0  0  0  0  0
  141.0250   71.6180  227.1750 C   0  0  0  0  0  0  0  0  0  0  0  0
  140.3770   71.0940  226.0610 C   0  0  0  0  0  0  0  0  0  0  0  0
  140.3490   71.8840  224.9710 N   0  0  0  0  0  0  0  0  0  0  0  0
  142.5070   75.6452  221.1529 H   0  0  0  0  0  0  0  0  0  0  0  0
  141.2716   74.8293  220.1355 H   0  0  0  0  0  0  0  0  0  0  0  0
  141.3941   76.6214  220.1355 H   0  0  0  0  0  0  0  0  0  0  0  0
  142.2127   77.5911  222.7204 H   0  0  0  0  0  0  0  0  0  0  0  0
  141.5236   79.7546  223.7448 H   0  0  0  0  0  0  0  0  0  0  0  0
  139.1170   80.3351  223.9782 H   0  0  0  0  0  0  0  0  0  0  0  0
  137.3997   78.7316  223.1753 H   0  0  0  0  0  0  0  0  0  0  0  0
  137.3592   76.6832  221.0890 H   0  0  0  0  0  0  0  0  0  0  0  0
  137.3106   76.1742  224.0995 H   0  0  0  0  0  0  0  0  0  0  0  0
  135.9968   76.8017  223.0474 H   0  0  0  0  0  0  0  0  0  0  0  0
  136.3874   75.0484  223.0474 H   0  0  0  0  0  0  0  0  0  0  0  0
  139.2050   74.6980  222.3220 H   0  0  0  0  0  0  0  0  0  0  0  0
  138.0755   72.2776  219.7263 H   0  0  0  0  0  0  0  0  0  0  0  0
  139.6581   73.0815  220.1688 H   0  0  0  0  0  0  0  0  0  0  0  0
  138.0540   71.2590  221.8660 H   0  0  0  0  0  0  0  0  0  0  0  0
  138.6541   69.8555  222.8901 H   0  0  0  0  0  0  0  0  0  0  0  0
  138.7127   68.4025  224.9009 H   0  0  0  0  0  0  0  0  0  0  0  0
  139.4049   68.0533  227.2450 H   0  0  0  0  0  0  0  0  0  0  0  0
  140.5579   68.9730  229.2728 H   0  0  0  0  0  0  0  0  0  0  0  0
  141.5811   71.2140  229.2257 H   0  0  0  0  0  0  0  0  0  0  0  0
  141.4807   72.6189  227.1498 H   0  0  0  0  0  0  0  0  0  0  0  0
  1  2  1  0
  2  3  1  0
  3  4  2  0
  4  5  1  0
  5  6  2  0
  6  7  1  0
  7  8  2  0
  8  9  1  0
  9 10  1  0
  9 11  1  0
 11 12  1  0
 12 13  2  0
 12 14  1  0
 14 15  1  0
 15 16  1  0
 16 17  2  0
 16 18  1  0
 18 19  2  0
 19 20  1  0
 20 21  2  0
 21 22  1  0
 22 23  2  0
 23 24  1  0
 24 25  2  0
 25 26  1  0
 26 27  2  0
  8  3  1  0
 27 18  1  0
 26 21  1  0
  1 28  1  0
  1 29  1  0
  1 30  1  0
  4 31  1  0
  5 32  1  0
  6 33  1  0
  7 34  1  0
  9 35  1  6
 10 36  1  0
 10 37  1  0
 10 38  1  0
 11 39  1  0
 14 40  1  0
 14 41  1  0
 15 42  1  0
 19 43  1  0
 20 44  1  0
 22 45  1  0
 23 46  1  0
 24 47  1  0
 25 48  1  0
M  END
>  <smiles>  (29) 
COc1ccccc1[C@H](C)NC(=O)CNC(=O)c1ccc2ccccc2n1

>  <score_type>  (29) 
oracle

>  <origin>  (29) 
autodockgpu

>  <m_score__min__energy>  (29) 
-8.5299999999999994

>  <m_primary>  (29) 
energy

>  <rmsd>  (29) 
5.015292579144054

>  <m_score__min__rmsd>  (29) 
5.015292579144054

>  <meeko>  (29) 
{"free_energy": -7.57, "intermolecular_energy": -9.36, "internal_energy": -2.02, "cluster_size": 28, "cluster_id": 1, "rank_in_cluster": 25}

>  <energy>  (29) 
-8.26

>  <cluster_rmsd>  (29) 
0.0

>  <cluster>  (29) 
2

$$$$

     RDKit          3D

 48 50  0  0  0  0  0  0  0  0999 V2000
  140.7590   72.0880  222.2550 C   0  0  0  0  0  0  0  0  0  0  0  0
  140.7410   73.5010  222.2370 O   0  0  0  0  0  0  0  0  0  0  0  0
  141.3670   74.2540  221.2430 C   0  0  0  0  0  0  0  0  0  0  0  0
  142.6180   73.8010  220.8100 C   0  0  0  0  0  0  0  0  0  0  0  0
  143.2560   74.5320  219.8260 C   0  0  0  0  0  0  0  0  0  0  0  0
  142.6810   75.6720  219.2870 C   0  0  0  0  0  0  0  0  0  0  0  0
  141.4380   76.0720  219.7550 C   0  0  0  0  0  0  0  0  0  0  0  0
  140.7680   75.3740  220.7330 C   0  0  0  0  0  0  0  0  0  0  0  0
  139.4310   75.7820  221.2560 C   0  0  2  0  0  0  0  0  0  0  0  0
  139.6690   76.7000  222.4390 C   0  0  0  0  0  0  0  0  0  0  0  0
  138.6630   74.6500  221.7540 N   0  0  0  0  0  0  0  0  0  0  0  0
  137.7410   73.9410  220.9490 C   0  0  0  0  0  0  0  0  0  0  0  0
  137.5640   74.2870  219.7520 O   0  0  0  0  0  0  0  0  0  0  0  0
  137.0170   72.8050  221.5710 C   0  0  0  0  0  0  0  0  0  0  0  0
  137.7030   72.2240  222.6810 N   0  0  0  0  0  0  0  0  0  0  0  0
  137.7280   70.8240  222.9320 C   0  0  0  0  0  0  0  0  0  0  0  0
  137.1100   70.0610  222.1300 O   0  0  0  0  0  0  0  0  0  0  0  0
  138.4560   70.2830  224.0960 C   0  0  0  0  0  0  0  0  0  0  0  0
  138.4470   68.9150  224.2790 C   0  0  0  0  0  0  0  0  0  0  0  0
  139.1190   68.4010  225.3570 C   0  0  0  0  0  0  0  0  0  0  0  0
  139.7910   69.2470  226.2420 C   0  0  0  0  0  0  0  0  0  0  0  0
  140.4740   68.7570  227.3320 C   0  0  0  0  0  0  0  0  0  0  0  0
  141.1180   69.6740  228.1680 C   0  0  0  0  0  0  0  0  0  0  0  0
  141.0720   71.0280  227.9050 C   0  0  0  0  0  0  0  0  0  0  0  0
  140.3780   71.5200  226.7970 C   0  0  0  0  0  0  0  0  0  0  0  0
  139.7390   70.5990  225.9720 C   0  0  0  0  0  0  0  0  0  0  0  0
  139.0820   71.1130  224.9150 N   0  0  0  0  0  0  0  0  0  0  0  0
  140.7635   71.7346  223.2967 H   0  0  0  0  0  0  0  0  0  0  0  0
  139.8657   71.7033  221.7412 H   0  0  0  0  0  0  0  0  0  0  0  0
  141.6618   71.7262  221.7412 H   0  0  0  0  0  0  0  0  0  0  0  0
  143.0765   72.8968  221.2369 H   0  0  0  0  0  0  0  0  0  0  0  0
  144.2406   74.2022  219.4630 H   0  0  0  0  0  0  0  0  0  0  0  0
  143.1990   76.2470  218.5053 H   0  0  0  0  0  0  0  0  0  0  0  0
  140.9739   76.9748  219.3313 H   0  0  0  0  0  0  0  0  0  0  0  0
  138.8725   76.2557  220.4352 H   0  0  0  0  0  0  0  0  0  0  0  0
  139.5235   76.1387  223.3738 H   0  0  0  0  0  0  0  0  0  0  0  0
  140.6975   77.0882  222.4007 H   0  0  0  0  0  0  0  0  0  0  0  0
  138.9587   77.5390  222.4007 H   0  0  0  0  0  0  0  0  0  0  0  0
  138.8230   74.3780  222.7470 H   0  0  0  0  0  0  0  0  0  0  0  0
  136.0378   73.1661  221.9186 H   0  0  0  0  0  0  0  0  0  0  0  0
  136.9281   72.0222  220.8033 H   0  0  0  0  0  0  0  0  0  0  0  0
  138.2390   72.8140  223.3860 H   0  0  0  0  0  0  0  0  0  0  0  0
  137.9147   68.2550  223.5783 H   0  0  0  0  0  0  0  0  0  0  0  0
  139.1292   67.3142  225.5265 H   0  0  0  0  0  0  0  0  0  0  0  0
  140.5119   67.6773  227.5389 H   0  0  0  0  0  0  0  0  0  0  0  0
  141.6693   69.3111  229.0480 H   0  0  0  0  0  0  0  0  0  0  0  0
  141.5887   71.7292  228.5768 H   0  0  0  0  0  0  0  0  0  0  0  0
  140.3379   72.5984  226.5838 H   0  0  0  0  0  0  0  0  0  0  0  0
  1  2  1  0
  2  3  1  0
  3  4  2  0
  4  5  1  0
  5  6  2  0
  6  7  1  0
  7  8  2  0
  8  9  1  0
  9 10  1  0
  9 11  1  0
 11 12  1  0
 12 13  2  0
 12 14  1  0
 14 15  1  0
 15 16  1  0
 16 17  2  0
 16 18  1  0
 18 19  2  0
 19 20  1  0
 20 21  2  0
 21 22  1  0
 22 23  2  0
 23 24  1  0
 24 25  2  0
 25 26  1  0
 26 27  2  0
  8  3  1  0
 27 18  1  0
 26 21  1  0
  1 28  1  0
  1 29  1  0
  1 30  1  0
  4 31  1  0
  5 32  1  0
  6 33  1  0
  7 34  1  0
  9 35  1  6
 10 36  1  0
 10 37  1  0
 10 38  1  0
 11 39  1  0
 14 40  1  0
 14 41  1  0
 15 42  1  0
 19 43  1  0
 20 44  1  0
 22 45  1  0
 23 46  1  0
 24 47  1  0
 25 48  1  0
M  END
>  <smiles>  (30) 
COc1ccccc1[C@H](C)NC(=O)CNC(=O)c1ccc2ccccc2n1

>  <score_type>  (30) 
oracle

>  <origin>  (30) 
autodockgpu

>  <m_score__min__energy>  (30) 
-8.5299999999999994

>  <m_primary>  (30) 
energy

>  <rmsd>  (30) 
5.620794692017201

>  <m_score__min__rmsd>  (30) 
5.620794692017201

>  <meeko>  (30) 
{"free_energy": -7.35, "intermolecular_energy": -9.14, "internal_energy": -2.2, "cluster_size": 8, "cluster_id": 4, "rank_in_cluster": 8}

>  <energy>  (30) 
-8.1

>  <cluster_rmsd>  (30) 
0.25

>  <cluster>  (30) 
2

$$$$

     RDKit          3D

 48 50  0  0  0  0  0  0  0  0999 V2000
  137.6920   78.0900  222.4530 C   0  0  0  0  0  0  0  0  0  0  0  0
  138.9250   78.2570  221.7850 O   0  0  0  0  0  0  0  0  0  0  0  0
  140.0240   78.8870  222.3690 C   0  0  0  0  0  0  0  0  0  0  0  0
  139.7480   79.9360  223.2530 C   0  0  0  0  0  0  0  0  0  0  0  0
  140.8220   80.5740  223.8440 C   0  0  0  0  0  0  0  0  0  0  0  0
  142.1260   80.1920  223.5730 C   0  0  0  0  0  0  0  0  0  0  0  0
  142.3390   79.1440  222.6890 C   0  0  0  0  0  0  0  0  0  0  0  0
  141.2990   78.4820  222.0790 C   0  0  0  0  0  0  0  0  0  0  0  0
  141.4990   77.3520  221.1240 C   0  0  2  0  0  0  0  0  0  0  0  0
  141.4750   77.9340  219.7240 C   0  0  0  0  0  0  0  0  0  0  0  0
  140.4220   76.3750  221.1890 N   0  0  0  0  0  0  0  0  0  0  0  0
  140.6360   74.9910  220.9940 C   0  0  0  0  0  0  0  0  0  0  0  0
  141.7960   74.5670  220.7550 O   0  0  0  0  0  0  0  0  0  0  0  0
  139.4580   74.0940  221.0840 C   0  0  0  0  0  0  0  0  0  0  0  0
  139.4280   73.3000  222.2710 N   0  0  0  0  0  0  0  0  0  0  0  0
  140.2620   72.1650  222.4680 C   0  0  0  0  0  0  0  0  0  0  0  0
  141.0690   71.8480  221.5420 O   0  0  0  0  0  0  0  0  0  0  0  0
  140.1850   71.3840  223.7180 C   0  0  0  0  0  0  0  0  0  0  0  0
  139.6110   70.1310  223.6560 C   0  0  0  0  0  0  0  0  0  0  0  0
  139.5330   69.3960  224.8110 C   0  0  0  0  0  0  0  0  0  0  0  0
  140.0250   69.9110  226.0120 C   0  0  0  0  0  0  0  0  0  0  0  0
  139.9600   69.1950  227.1860 C   0  0  0  0  0  0  0  0  0  0  0  0
  140.4750   69.7850  228.3430 C   0  0  0  0  0  0  0  0  0  0  0  0
  141.0320   71.0470  228.3080 C   0  0  0  0  0  0  0  0  0  0  0  0
  141.0960   71.7710  227.1140 C   0  0  0  0  0  0  0  0  0  0  0  0
  140.5800   71.1740  225.9680 C   0  0  0  0  0  0  0  0  0  0  0  0
  140.6610   71.9020  224.8390 N   0  0  0  0  0  0  0  0  0  0  0  0
  137.8580   78.1125  223.5402 H   0  0  0  0  0  0  0  0  0  0  0  0
  137.0083   78.9037  222.1696 H   0  0  0  0  0  0  0  0  0  0  0  0
  137.2494   77.1237  222.1696 H   0  0  0  0  0  0  0  0  0  0  0  0
  138.7138   80.2417  223.4696 H   0  0  0  0  0  0  0  0  0  0  0  0
  140.6378   81.4022  224.5440 H   0  0  0  0  0  0  0  0  0  0  0  0
  142.9734   80.7080  224.0480 H   0  0  0  0  0  0  0  0  0  0  0  0
  143.3710   78.8331  222.4693 H   0  0  0  0  0  0  0  0  0  0  0  0
  142.4455   76.8525  221.3782 H   0  0  0  0  0  0  0  0  0  0  0  0
  141.4298   79.0314  219.7839 H   0  0  0  0  0  0  0  0  0  0  0  0
  142.3863   77.6334  219.1863 H   0  0  0  0  0  0  0  0  0  0  0  0
  140.5915   77.5594  219.1863 H   0  0  0  0  0  0  0  0  0  0  0  0
  139.4680   76.7450  221.3880 H   0  0  0  0  0  0  0  0  0  0  0  0
  138.5485   74.7121  221.0570 H   0  0  0  0  0  0  0  0  0  0  0  0
  139.5192   73.3982  220.2343 H   0  0  0  0  0  0  0  0  0  0  0  0
  138.7720   73.5180  223.0800 H   0  0  0  0  0  0  0  0  0  0  0  0
  139.2263   69.7323  222.7057 H   0  0  0  0  0  0  0  0  0  0  0  0
  139.0798   68.3939  224.7913 H   0  0  0  0  0  0  0  0  0  0  0  0
  139.5161   68.1889  227.2123 H   0  0  0  0  0  0  0  0  0  0  0  0
  140.4359   69.2358  229.2953 H   0  0  0  0  0  0  0  0  0  0  0  0
  141.4312   71.4894  229.2326 H   0  0  0  0  0  0  0  0  0  0  0  0
  141.5388   72.7774  227.0815 H   0  0  0  0  0  0  0  0  0  0  0  0
  1  2  1  0
  2  3  1  0
  3  4  2  0
  4  5  1  0
  5  6  2  0
  6  7  1  0
  7  8  2  0
  8  9  1  0
  9 10  1  0
  9 11  1  0
 11 12  1  0
 12 13  2  0
 12 14  1  0
 14 15  1  0
 15 16  1  0
 16 17  2  0
 16 18  1  0
 18 19  2  0
 19 20  1  0
 20 21  2  0
 21 22  1  0
 22 23  2  0
 23 24  1  0
 24 25  2  0
 25 26  1  0
 26 27  2  0
  8  3  1  0
 27 18  1  0
 26 21  1  0
  1 28  1  0
  1 29  1  0
  1 30  1  0
  4 31  1  0
  5 32  1  0
  6 33  1  0
  7 34  1  0
  9 35  1  1
 10 36  1  0
 10 37  1  0
 10 38  1  0
 11 39  1  0
 14 40  1  0
 14 41  1  0
 15 42  1  0
 19 43  1  0
 20 44  1  0
 22 45  1  0
 23 46  1  0
 24 47  1  0
 25 48  1  0
M  END
>  <smiles>  (31) 
COc1ccccc1[C@H](C)NC(=O)CNC(=O)c1ccc2ccccc2n1

>  <score_type>  (31) 
oracle

>  <origin>  (31) 
autodockgpu

>  <m_score__min__energy>  (31) 
-8.5299999999999994

>  <m_primary>  (31) 
energy

>  <rmsd>  (31) 
4.017828980240088

>  <m_score__min__rmsd>  (31) 
4.017828980240088

>  <meeko>  (31) 
{"free_energy": -8.12, "intermolecular_energy": -9.91, "internal_energy": -1.53, "cluster_size": 28, "cluster_id": 1, "rank_in_cluster": 9}

>  <energy>  (31) 
-7.76

>  <cluster_rmsd>  (31) 
0.0

>  <cluster>  (31) 
3

$$$$

     RDKit          3D

 48 50  0  0  0  0  0  0  0  0999 V2000
  145.5300   73.2800  217.2240 C   0  0  0  0  0  0  0  0  0  0  0  0
  145.9360   72.5470  218.3610 O   0  0  0  0  0  0  0  0  0  0  0  0
  145.2330   71.4400  218.8380 C   0  0  0  0  0  0  0  0  0  0  0  0
  145.6770   70.1840  218.4090 C   0  0  0  0  0  0  0  0  0  0  0  0
  144.9960   69.0730  218.8690 C   0  0  0  0  0  0  0  0  0  0  0  0
  143.9120   69.1950  219.7230 C   0  0  0  0  0  0  0  0  0  0  0  0
  143.5170   70.4660  220.1160 C   0  0  0  0  0  0  0  0  0  0  0  0
  144.1670   71.5970  219.6820 C   0  0  0  0  0  0  0  0  0  0  0  0
  143.7640   72.9760  220.0880 C   0  0  2  0  0  0  0  0  0  0  0  0
  144.6920   73.4070  221.2070 C   0  0  0  0  0  0  0  0  0  0  0  0
  142.4120   73.0220  220.6260 N   0  0  0  0  0  0  0  0  0  0  0  0
  141.4580   73.9790  220.2090 C   0  0  0  0  0  0  0  0  0  0  0  0
  141.7700   74.8340  219.3400 O   0  0  0  0  0  0  0  0  0  0  0  0
  140.1120   73.9240  220.8320 C   0  0  0  0  0  0  0  0  0  0  0  0
  140.0890   73.2610  222.0970 N   0  0  0  0  0  0  0  0  0  0  0  0
  140.2170   71.8510  222.2370 C   0  0  0  0  0  0  0  0  0  0  0  0
  140.3570   71.1550  221.1870 O   0  0  0  0  0  0  0  0  0  0  0  0
  140.1870   71.2240  223.5730 C   0  0  0  0  0  0  0  0  0  0  0  0
  139.6700   69.9480  223.6710 C   0  0  0  0  0  0  0  0  0  0  0  0
  139.6360   69.3560  224.9060 C   0  0  0  0  0  0  0  0  0  0  0  0
  140.1140   70.0340  226.0300 C   0  0  0  0  0  0  0  0  0  0  0  0
  140.0920   69.4620  227.2820 C   0  0  0  0  0  0  0  0  0  0  0  0
  140.5890   70.2110  228.3530 C   0  0  0  0  0  0  0  0  0  0  0  0
  141.0870   71.4820  228.1590 C   0  0  0  0  0  0  0  0  0  0  0  0
  141.1080   72.0580  226.8860 C   0  0  0  0  0  0  0  0  0  0  0  0
  140.6090   71.3050  225.8270 C   0  0  0  0  0  0  0  0  0  0  0  0
  140.6470   71.8950  224.6170 N   0  0  0  0  0  0  0  0  0  0  0  0
  145.0201   74.2006  217.5441 H   0  0  0  0  0  0  0  0  0  0  0  0
  146.4125   73.5403  216.6212 H   0  0  0  0  0  0  0  0  0  0  0  0
  144.8412   72.6700  216.6212 H   0  0  0  0  0  0  0  0  0  0  0  0
  146.5369   70.0848  217.7302 H   0  0  0  0  0  0  0  0  0  0  0  0
  145.3212   68.0716  218.5507 H   0  0  0  0  0  0  0  0  0  0  0  0
  143.3761   68.3039  220.0818 H   0  0  0  0  0  0  0  0  0  0  0  0
  142.6581   70.5717  220.7951 H   0  0  0  0  0  0  0  0  0  0  0  0
  143.8137   73.6224  219.1994 H   0  0  0  0  0  0  0  0  0  0  0  0
  144.2223   73.1888  222.1774 H   0  0  0  0  0  0  0  0  0  0  0  0
  145.6418   72.8578  221.1277 H   0  0  0  0  0  0  0  0  0  0  0  0
  144.8852   74.4870  221.1277 H   0  0  0  0  0  0  0  0  0  0  0  0
  142.1710   72.3060  221.3450 H   0  0  0  0  0  0  0  0  0  0  0  0
  139.7531   74.9541  220.9737 H   0  0  0  0  0  0  0  0  0  0  0  0
  139.4687   73.3436  220.1543 H   0  0  0  0  0  0  0  0  0  0  0  0
  139.9750   73.7920  223.0110 H   0  0  0  0  0  0  0  0  0  0  0  0
  139.2953   69.4206  222.7814 H   0  0  0  0  0  0  0  0  0  0  0  0
  139.2294   68.3396  225.0133 H   0  0  0  0  0  0  0  0  0  0  0  0
  139.6958   68.4473  227.4351 H   0  0  0  0  0  0  0  0  0  0  0  0
  140.5826   69.7800  229.3650 H   0  0  0  0  0  0  0  0  0  0  0  0
  141.4731   72.0504  229.0180 H   0  0  0  0  0  0  0  0  0  0  0  0
  141.5051   73.0713  226.7264 H   0  0  0  0  0  0  0  0  0  0  0  0
  1  2  1  0
  2  3  1  0
  3  4  2  0
  4  5  1  0
  5  6  2  0
  6  7  1  0
  7  8  2  0
  8  9  1  0
  9 10  1  0
  9 11  1  0
 11 12  1  0
 12 13  2  0
 12 14  1  0
 14 15  1  0
 15 16  1  0
 16 17  2  0
 16 18  1  0
 18 19  2  0
 19 20  1  0
 20 21  2  0
 21 22  1  0
 22 23  2  0
 23 24  1  0
 24 25  2  0
 25 26  1  0
 26 27  2  0
  8  3  1  0
 27 18  1  0
 26 21  1  0
  1 28  1  0
  1 29  1  0
  1 30  1  0
  4 31  1  0
  5 32  1  0
  6 33  1  0
  7 34  1  0
  9 35  1  6
 10 36  1  0
 10 37  1  0
 10 38  1  0
 11 39  1  0
 14 40  1  0
 14 41  1  0
 15 42  1  0
 19 43  1  0
 20 44  1  0
 22 45  1  0
 23 46  1  0
 24 47  1  0
 25 48  1  0
M  END
>  <smiles>  (32) 
COc1ccccc1[C@H](C)NC(=O)CNC(=O)c1ccc2ccccc2n1

>  <score_type>  (32) 
oracle

>  <origin>  (32) 
autodockgpu

>  <m_score__min__energy>  (32) 
-8.5299999999999994

>  <m_primary>  (32) 
energy

>  <rmsd>  (32) 
7.8272777958702635

>  <m_score__min__rmsd>  (32) 
7.8272777958702635

>  <meeko>  (32) 
{"free_energy": -7.32, "intermolecular_energy": -9.11, "internal_energy": -2.11, "cluster_size": 7, "cluster_id": 3, "rank_in_cluster": 3}

>  <energy>  (32) 
-7.55

>  <cluster_rmsd>  (32) 
0.2

>  <cluster>  (32) 
3

$$$$

     RDKit          3D

 48 50  0  0  0  0  0  0  0  0999 V2000
  137.9760   77.9420  222.3760 C   0  0  0  0  0  0  0  0  0  0  0  0
  139.1090   78.3880  221.6590 O   0  0  0  0  0  0  0  0  0  0  0  0
  140.2130   78.9760  222.2770 C   0  0  0  0  0  0  0  0  0  0  0  0
  139.9450   79.9750  223.2190 C   0  0  0  0  0  0  0  0  0  0  0  0
  141.0230   80.5720  223.8440 C   0  0  0  0  0  0  0  0  0  0  0  0
  142.3240   80.1960  223.5500 C   0  0  0  0  0  0  0  0  0  0  0  0
  142.5300   79.1980  222.6080 C   0  0  0  0  0  0  0  0  0  0  0  0
  141.4850   78.5790  221.9640 C   0  0  0  0  0  0  0  0  0  0  0  0
  141.6770   77.5040  220.9460 C   0  0  2  0  0  0  0  0  0  0  0  0
  141.6320   78.1610  219.5800 C   0  0  0  0  0  0  0  0  0  0  0  0
  140.6030   76.5200  220.9710 N   0  0  0  0  0  0  0  0  0  0  0  0
  140.8440   75.1330  221.0980 C   0  0  0  0  0  0  0  0  0  0  0  0
  142.0260   74.7110  221.1940 O   0  0  0  0  0  0  0  0  0  0  0  0
  139.6670   74.2290  221.1100 C   0  0  0  0  0  0  0  0  0  0  0  0
  139.5680   73.4280  222.2880 N   0  0  0  0  0  0  0  0  0  0  0  0
  140.3200   72.2360  222.4810 C   0  0  0  0  0  0  0  0  0  0  0  0
  141.1130   71.8720  221.5610 O   0  0  0  0  0  0  0  0  0  0  0  0
  140.1750   71.4500  223.7220 C   0  0  0  0  0  0  0  0  0  0  0  0
  139.5000   70.2480  223.6450 C   0  0  0  0  0  0  0  0  0  0  0  0
  139.3590   69.5100  224.7910 C   0  0  0  0  0  0  0  0  0  0  0  0
  139.8860   69.9700  226.0000 C   0  0  0  0  0  0  0  0  0  0  0  0
  139.7590   69.2480  227.1650 C   0  0  0  0  0  0  0  0  0  0  0  0
  140.3160   69.7820  228.3310 C   0  0  0  0  0  0  0  0  0  0  0  0
  140.9740   70.9940  228.3110 C   0  0  0  0  0  0  0  0  0  0  0  0
  141.1010   71.7230  227.1260 C   0  0  0  0  0  0  0  0  0  0  0  0
  140.5420   71.1840  225.9710 C   0  0  0  0  0  0  0  0  0  0  0  0
  140.6860   71.9150  224.8510 N   0  0  0  0  0  0  0  0  0  0  0  0
  138.1717   78.0190  223.4557 H   0  0  0  0  0  0  0  0  0  0  0  0
  137.1082   78.5656  222.1152 H   0  0  0  0  0  0  0  0  0  0  0  0
  137.7661   76.8942  222.1152 H   0  0  0  0  0  0  0  0  0  0  0  0
  138.9129   80.2745  223.4537 H   0  0  0  0  0  0  0  0  0  0  0  0
  140.8450   81.3611  224.5894 H   0  0  0  0  0  0  0  0  0  0  0  0
  143.1753   80.6784  224.0526 H   0  0  0  0  0  0  0  0  0  0  0  0
  143.5597   78.8933  222.3696 H   0  0  0  0  0  0  0  0  0  0  0  0
  142.6288   76.9961  221.1604 H   0  0  0  0  0  0  0  0  0  0  0  0
  141.5573   79.2519  219.7001 H   0  0  0  0  0  0  0  0  0  0  0  0
  142.5491   77.9152  219.0245 H   0  0  0  0  0  0  0  0  0  0  0  0
  140.7570   77.7925  219.0245 H   0  0  0  0  0  0  0  0  0  0  0  0
  139.6310   76.8880  220.8900 H   0  0  0  0  0  0  0  0  0  0  0  0
  138.7575   74.8426  221.0303 H   0  0  0  0  0  0  0  0  0  0  0  0
  139.7845   73.5385  220.2618 H   0  0  0  0  0  0  0  0  0  0  0  0
  138.9210   73.6830  223.0930 H   0  0  0  0  0  0  0  0  0  0  0  0
  139.0866   69.8924  222.6897 H   0  0  0  0  0  0  0  0  0  0  0  0
  138.8267   68.5479  224.7586 H   0  0  0  0  0  0  0  0  0  0  0  0
  139.2354   68.2807  227.1783 H   0  0  0  0  0  0  0  0  0  0  0  0
  140.2282   69.2279  229.2772 H   0  0  0  0  0  0  0  0  0  0  0  0
  141.4049   71.3923  229.2414 H   0  0  0  0  0  0  0  0  0  0  0  0
  141.6249   72.6900  227.1065 H   0  0  0  0  0  0  0  0  0  0  0  0
  1  2  1  0
  2  3  1  0
  3  4  2  0
  4  5  1  0
  5  6  2  0
  6  7  1  0
  7  8  2  0
  8  9  1  0
  9 10  1  0
  9 11  1  0
 11 12  1  0
 12 13  2  0
 12 14  1  0
 14 15  1  0
 15 16  1  0
 16 17  2  0
 16 18  1  0
 18 19  2  0
 19 20  1  0
 20 21  2  0
 21 22  1  0
 22 23  2  0
 23 24  1  0
 24 25  2  0
 25 26  1  0
 26 27  2  0
  8  3  1  0
 27 18  1  0
 26 21  1  0
  1 28  1  0
  1 29  1  0
  1 30  1  0
  4 31  1  0
  5 32  1  0
  6 33  1  0
  7 34  1  0
  9 35  1  1
 10 36  1  0
 10 37  1  0
 10 38  1  0
 11 39  1  0
 14 40  1  0
 14 41  1  0
 15 42  1  0
 19 43  1  0
 20 44  1  0
 22 45  1  0
 23 46  1  0
 24 47  1  0
 25 48  1  0
M  END
>  <smiles>  (33) 
COc1ccccc1[C@H](C)NC(=O)CNC(=O)c1ccc2ccccc2n1

>  <score_type>  (33) 
oracle

>  <origin>  (33) 
autodockgpu

>  <m_score__min__energy>  (33) 
-8.5299999999999994

>  <m_primary>  (33) 
energy

>  <rmsd>  (33) 
4.0005464171994385

>  <m_score__min__rmsd>  (33) 
4.0005464171994385

>  <meeko>  (33) 
{"free_energy": -8.2, "intermolecular_energy": -9.99, "internal_energy": -1.54, "cluster_size": 28, "cluster_id": 1, "rank_in_cluster": 5}

>  <energy>  (33) 
-7.32

>  <cluster_rmsd>  (33) 
0.36

>  <cluster>  (33) 
3

$$$$

     RDKit          3D

 48 50  0  0  0  0  0  0  0  0999 V2000
  137.4400   77.5470  222.2960 C   0  0  0  0  0  0  0  0  0  0  0  0
  138.6790   77.9150  221.7260 O   0  0  0  0  0  0  0  0  0  0  0  0
  139.6030   78.7280  222.3840 C   0  0  0  0  0  0  0  0  0  0  0  0
  139.0810   79.7670  223.1610 C   0  0  0  0  0  0  0  0  0  0  0  0
  139.9790   80.5850  223.8220 C   0  0  0  0  0  0  0  0  0  0  0  0
  141.3460   80.3850  223.7200 C   0  0  0  0  0  0  0  0  0  0  0  0
  141.8060   79.3370  222.9350 C   0  0  0  0  0  0  0  0  0  0  0  0
  140.9480   78.5010  222.2610 C   0  0  0  0  0  0  0  0  0  0  0  0
  141.4150   77.3670  221.4090 C   0  0  2  0  0  0  0  0  0  0  0  0
  141.5060   77.8790  219.9850 C   0  0  0  0  0  0  0  0  0  0  0  0
  140.4700   76.2600  221.3950 N   0  0  0  0  0  0  0  0  0  0  0  0
  140.7780   75.0020  220.8270 C   0  0  0  0  0  0  0  0  0  0  0  0
  141.9080   74.8120  220.3080 O   0  0  0  0  0  0  0  0  0  0  0  0
  139.7300   73.9520  220.8720 C   0  0  0  0  0  0  0  0  0  0  0  0
  139.6750   73.2480  222.1140 N   0  0  0  0  0  0  0  0  0  0  0  0
  140.2470   71.9600  222.3030 C   0  0  0  0  0  0  0  0  0  0  0  0
  140.8330   71.4150  221.3190 O   0  0  0  0  0  0  0  0  0  0  0  0
  140.1570   71.2830  223.6120 C   0  0  0  0  0  0  0  0  0  0  0  0
  139.5180   70.0600  223.6580 C   0  0  0  0  0  0  0  0  0  0  0  0
  139.4280   69.4230  224.8680 C   0  0  0  0  0  0  0  0  0  0  0  0
  139.9700   70.0030  226.0170 C   0  0  0  0  0  0  0  0  0  0  0  0
  139.8940   69.3840  227.2450 C   0  0  0  0  0  0  0  0  0  0  0  0
  140.4630   70.0350  228.3430 C   0  0  0  0  0  0  0  0  0  0  0  0
  141.0830   71.2590  228.1990 C   0  0  0  0  0  0  0  0  0  0  0  0
  141.1580   71.8830  226.9510 C   0  0  0  0  0  0  0  0  0  0  0  0
  140.5880   71.2280  225.8650 C   0  0  0  0  0  0  0  0  0  0  0  0
  140.6810   71.8610  224.6800 N   0  0  0  0  0  0  0  0  0  0  0  0
  137.5196   77.5706  223.3929 H   0  0  0  0  0  0  0  0  0  0  0  0
  136.6621   78.2529  221.9695 H   0  0  0  0  0  0  0  0  0  0  0  0
  137.1735   76.5309  221.9695 H   0  0  0  0  0  0  0  0  0  0  0  0
  137.9959   79.9277  223.2434 H   0  0  0  0  0  0  0  0  0  0  0  0
  139.6001   81.4113  224.4414 H   0  0  0  0  0  0  0  0  0  0  0  0
  142.0513   81.0424  224.2495 H   0  0  0  0  0  0  0  0  0  0  0  0
  142.8899   79.1704  222.8496 H   0  0  0  0  0  0  0  0  0  0  0  0
  142.3741   77.0090  221.8114 H   0  0  0  0  0  0  0  0  0  0  0  0
  141.6985   78.9620  219.9963 H   0  0  0  0  0  0  0  0  0  0  0  0
  142.3271   77.3661  219.4627 H   0  0  0  0  0  0  0  0  0  0  0  0
  140.5585   77.6804  219.4627 H   0  0  0  0  0  0  0  0  0  0  0  0
  139.5380   76.4350  221.8290 H   0  0  0  0  0  0  0  0  0  0  0  0
  138.7536   74.4283  220.6993 H   0  0  0  0  0  0  0  0  0  0  0  0
  139.9805   73.2144  220.0953 H   0  0  0  0  0  0  0  0  0  0  0  0
  139.1970   73.6550  222.9730 H   0  0  0  0  0  0  0  0  0  0  0  0
  139.0931   69.6095  222.7489 H   0  0  0  0  0  0  0  0  0  0  0  0
  138.9248   68.4471  224.9348 H   0  0  0  0  0  0  0  0  0  0  0  0
  139.4007   68.4074  227.3581 H   0  0  0  0  0  0  0  0  0  0  0  0
  140.4158   69.5647  229.3363 H   0  0  0  0  0  0  0  0  0  0  0  0
  141.5243   71.7504  229.0786 H   0  0  0  0  0  0  0  0  0  0  0  0
  141.6511   72.8590  226.8318 H   0  0  0  0  0  0  0  0  0  0  0  0
  1  2  1  0
  2  3  1  0
  3  4  2  0
  4  5  1  0
  5  6  2  0
  6  7  1  0
  7  8  2  0
  8  9  1  0
  9 10  1  0
  9 11  1  0
 11 12  1  0
 12 13  2  0
 12 14  1  0
 14 15  1  0
 15 16  1  0
 16 17  2  0
 16 18  1  0
 18 19  2  0
 19 20  1  0
 20 21  2  0
 21 22  1  0
 22 23  2  0
 23 24  1  0
 24 25  2  0
 25 26  1  0
 26 27  2  0
  8  3  1  0
 27 18  1  0
 26 21  1  0
  1 28  1  0
  1 29  1  0
  1 30  1  0
  4 31  1  0
  5 32  1  0
  6 33  1  0
  7 34  1  0
  9 35  1  1
 10 36  1  0
 10 37  1  0
 10 38  1  0
 11 39  1  0
 14 40  1  0
 14 41  1  0
 15 42  1  0
 19 43  1  0
 20 44  1  0
 22 45  1  0
 23 46  1  0
 24 47  1  0
 25 48  1  0
M  END
>  <smiles>  (34) 
COc1ccccc1[C@H](C)NC(=O)CNC(=O)c1ccc2ccccc2n1

>  <score_type>  (34) 
oracle

>  <origin>  (34) 
autodockgpu

>  <m_score__min__energy>  (34) 
-8.5299999999999994

>  <m_primary>  (34) 
energy

>  <rmsd>  (34) 
3.961551915883662

>  <m_score__min__rmsd>  (34) 
3.961551915883662

>  <meeko>  (34) 
{"free_energy": -7.87, "intermolecular_energy": -9.66, "internal_energy": -1.51, "cluster_size": 28, "cluster_id": 1, "rank_in_cluster": 18}

>  <energy>  (34) 
-7.02

>  <cluster_rmsd>  (34) 
1.71

>  <cluster>  (34) 
3

$$$$

     RDKit          3D

 48 50  0  0  0  0  0  0  0  0999 V2000
  141.3900   81.7550  219.9920 C   0  0  0  0  0  0  0  0  0  0  0  0
  141.8910   80.4650  220.2740 O   0  0  0  0  0  0  0  0  0  0  0  0
  141.8490   79.8990  221.5490 C   0  0  0  0  0  0  0  0  0  0  0  0
  142.6270   80.5160  222.5340 C   0  0  0  0  0  0  0  0  0  0  0  0
  142.6010   79.9720  223.8040 C   0  0  0  0  0  0  0  0  0  0  0  0
  141.8330   78.8560  224.0940 C   0  0  0  0  0  0  0  0  0  0  0  0
  141.0800   78.2870  223.0770 C   0  0  0  0  0  0  0  0  0  0  0  0
  141.0780   78.7960  221.8000 C   0  0  0  0  0  0  0  0  0  0  0  0
  140.2780   78.2040  220.6870 C   0  0  2  0  0  0  0  0  0  0  0  0
  138.8140   78.3900  221.0340 C   0  0  0  0  0  0  0  0  0  0  0  0
  140.4960   76.7710  220.5510 N   0  0  0  0  0  0  0  0  0  0  0  0
  139.9760   75.8300  221.4700 C   0  0  0  0  0  0  0  0  0  0  0  0
  139.2960   76.2280  222.4510 O   0  0  0  0  0  0  0  0  0  0  0  0
  140.2670   74.3960  221.2240 C   0  0  0  0  0  0  0  0  0  0  0  0
  140.0160   73.5560  222.3510 N   0  0  0  0  0  0  0  0  0  0  0  0
  140.6210   72.2800  222.5190 C   0  0  0  0  0  0  0  0  0  0  0  0
  141.4210   71.8740  221.6220 O   0  0  0  0  0  0  0  0  0  0  0  0
  140.3230   71.4580  223.7080 C   0  0  0  0  0  0  0  0  0  0  0  0
  139.6230   70.2840  223.5160 C   0  0  0  0  0  0  0  0  0  0  0  0
  139.3390   69.5130  224.6130 C   0  0  0  0  0  0  0  0  0  0  0  0
  139.7510   69.9130  225.8860 C   0  0  0  0  0  0  0  0  0  0  0  0
  139.4800   69.1560  227.0040 C   0  0  0  0  0  0  0  0  0  0  0  0
  139.9280   69.6310  228.2400 C   0  0  0  0  0  0  0  0  0  0  0  0
  140.6220   70.8190  228.3350 C   0  0  0  0  0  0  0  0  0  0  0  0
  140.8950   71.5830  227.1970 C   0  0  0  0  0  0  0  0  0  0  0  0
  140.4440   71.1030  225.9710 C   0  0  0  0  0  0  0  0  0  0  0  0
  140.7280   71.8670  224.9000 N   0  0  0  0  0  0  0  0  0  0  0  0
  141.1850   82.2829  220.9350 H   0  0  0  0  0  0  0  0  0  0  0  0
  142.1346   82.3186  219.4107 H   0  0  0  0  0  0  0  0  0  0  0  0
  140.4602   81.6682  219.4107 H   0  0  0  0  0  0  0  0  0  0  0  0
  143.2375   81.4022  222.3060 H   0  0  0  0  0  0  0  0  0  0  0  0
  143.2022   80.4344  224.6007 H   0  0  0  0  0  0  0  0  0  0  0  0
  141.8205   78.4304  225.1082 H   0  0  0  0  0  0  0  0  0  0  0  0
  140.4660   77.4018  223.2993 H   0  0  0  0  0  0  0  0  0  0  0  0
  140.5758   78.6984  219.7506 H   0  0  0  0  0  0  0  0  0  0  0  0
  138.6954   78.4051  222.1275 H   0  0  0  0  0  0  0  0  0  0  0  0
  138.4554   79.3409  220.6131 H   0  0  0  0  0  0  0  0  0  0  0  0
  138.2290   77.5590  220.6131 H   0  0  0  0  0  0  0  0  0  0  0  0
  141.0620   76.4610  219.7320 H   0  0  0  0  0  0  0  0  0  0  0  0
  139.6388   74.0528  220.3888 H   0  0  0  0  0  0  0  0  0  0  0  0
  141.3415   74.3206  221.0009 H   0  0  0  0  0  0  0  0  0  0  0  0
  139.3560   73.8440  223.1350 H   0  0  0  0  0  0  0  0  0  0  0  0
  139.3019   69.9756  222.5101 H   0  0  0  0  0  0  0  0  0  0  0  0
  138.7825   68.5722  224.4898 H   0  0  0  0  0  0  0  0  0  0  0  0
  138.9284   68.2074  226.9268 H   0  0  0  0  0  0  0  0  0  0  0  0
  139.7239   69.0485  229.1505 H   0  0  0  0  0  0  0  0  0  0  0  0
  140.9652   71.1699  229.3194 H   0  0  0  0  0  0  0  0  0  0  0  0
  141.4476   72.5315  227.2679 H   0  0  0  0  0  0  0  0  0  0  0  0
  1  2  1  0
  2  3  1  0
  3  4  2  0
  4  5  1  0
  5  6  2  0
  6  7  1  0
  7  8  2  0
  8  9  1  0
  9 10  1  0
  9 11  1  0
 11 12  1  0
 12 13  2  0
 12 14  1  0
 14 15  1  0
 15 16  1  0
 16 17  2  0
 16 18  1  0
 18 19  2  0
 19 20  1  0
 20 21  2  0
 21 22  1  0
 22 23  2  0
 23 24  1  0
 24 25  2  0
 25 26  1  0
 26 27  2  0
  8  3  1  0
 27 18  1  0
 26 21  1  0
  1 28  1  0
  1 29  1  0
  1 30  1  0
  4 31  1  0
  5 32  1  0
  6 33  1  0
  7 34  1  0
  9 35  1  6
 10 36  1  0
 10 37  1  0
 10 38  1  0
 11 39  1  0
 14 40  1  0
 14 41  1  0
 15 42  1  0
 19 43  1  0
 20 44  1  0
 22 45  1  0
 23 46  1  0
 24 47  1  0
 25 48  1  0
M  END
>  <smiles>  (35) 
COc1ccccc1[C@H](C)NC(=O)CNC(=O)c1ccc2ccccc2n1

>  <score_type>  (35) 
oracle

>  <origin>  (35) 
autodockgpu

>  <m_score__min__energy>  (35) 
-8.5299999999999994

>  <m_primary>  (35) 
energy

>  <rmsd>  (35) 
4.297189542223674

>  <m_score__min__rmsd>  (35) 
4.297189542223674

>  <meeko>  (35) 
{"free_energy": -8.24, "intermolecular_energy": -10.03, "internal_energy": -0.99, "cluster_size": 28, "cluster_id": 1, "rank_in_cluster": 3}

>  <energy>  (35) 
-6.99

>  <cluster_rmsd>  (35) 
1.74

>  <cluster>  (35) 
3

$$$$

     RDKit          3D

 48 50  0  0  0  0  0  0  0  0999 V2000
  140.9800   72.3230  222.0230 C   0  0  0  0  0  0  0  0  0  0  0  0
  140.7760   73.7170  222.1370 O   0  0  0  0  0  0  0  0  0  0  0  0
  141.3670   74.6410  221.2760 C   0  0  0  0  0  0  0  0  0  0  0  0
  142.6660   74.3520  220.8430 C   0  0  0  0  0  0  0  0  0  0  0  0
  143.2710   75.2550  219.9890 C   0  0  0  0  0  0  0  0  0  0  0  0
  142.6190   76.4050  219.5750 C   0  0  0  0  0  0  0  0  0  0  0  0
  141.3310   76.6390  220.0360 C   0  0  0  0  0  0  0  0  0  0  0  0
  140.6920   75.7670  220.8870 C   0  0  0  0  0  0  0  0  0  0  0  0
  139.3080   75.9930  221.3990 C   0  0  2  0  0  0  0  0  0  0  0  0
  139.4230   76.8410  222.6510 C   0  0  0  0  0  0  0  0  0  0  0  0
  138.6540   74.7540  221.7920 N   0  0  0  0  0  0  0  0  0  0  0  0
  137.8600   73.9950  220.9000 C   0  0  0  0  0  0  0  0  0  0  0  0
  137.7010   74.3910  219.7160 O   0  0  0  0  0  0  0  0  0  0  0  0
  137.2440   72.7490  221.4190 C   0  0  0  0  0  0  0  0  0  0  0  0
  137.8580   72.2560  222.6100 N   0  0  0  0  0  0  0  0  0  0  0  0
  138.1190   70.8760  222.8360 C   0  0  0  0  0  0  0  0  0  0  0  0
  137.7880   70.0490  221.9340 O   0  0  0  0  0  0  0  0  0  0  0  0
  138.7570   70.4280  224.0890 C   0  0  0  0  0  0  0  0  0  0  0  0
  138.6650   69.0890  224.4120 C   0  0  0  0  0  0  0  0  0  0  0  0
  139.2540   68.6610  225.5740 C   0  0  0  0  0  0  0  0  0  0  0  0
  139.9270   69.5630  226.4010 C   0  0  0  0  0  0  0  0  0  0  0  0
  140.5270   69.1600  227.5720 C   0  0  0  0  0  0  0  0  0  0  0  0
  141.1790   70.1280  228.3410 C   0  0  0  0  0  0  0  0  0  0  0  0
  141.2200   71.4460  227.9360 C   0  0  0  0  0  0  0  0  0  0  0  0
  140.6090   71.8510  226.7460 C   0  0  0  0  0  0  0  0  0  0  0  0
  139.9620   70.8800  225.9890 C   0  0  0  0  0  0  0  0  0  0  0  0
  139.3870   71.3090  224.8500 N   0  0  0  0  0  0  0  0  0  0  0  0
  141.0450   71.8786  223.0271 H   0  0  0  0  0  0  0  0  0  0  0  0
  140.1382   71.8727  221.4766 H   0  0  0  0  0  0  0  0  0  0  0  0
  141.9155   72.1328  221.4766 H   0  0  0  0  0  0  0  0  0  0  0  0
  143.1865   73.4398  221.1702 H   0  0  0  0  0  0  0  0  0  0  0  0
  144.2918   75.0562  219.6306 H   0  0  0  0  0  0  0  0  0  0  0  0
  143.1112   77.1169  218.8960 H   0  0  0  0  0  0  0  0  0  0  0  0
  140.8052   77.5490  219.7112 H   0  0  0  0  0  0  0  0  0  0  0  0
  138.7194   76.4649  220.5985 H   0  0  0  0  0  0  0  0  0  0  0  0
  139.3357   76.1976  223.5389 H   0  0  0  0  0  0  0  0  0  0  0  0
  140.3983   77.3495  222.6611 H   0  0  0  0  0  0  0  0  0  0  0  0
  138.6183   77.5910  222.6611 H   0  0  0  0  0  0  0  0  0  0  0  0
  138.7960   74.4420  222.7760 H   0  0  0  0  0  0  0  0  0  0  0  0
  136.1837   72.9491  221.6326 H   0  0  0  0  0  0  0  0  0  0  0  0
  137.3793   71.9783  220.6459 H   0  0  0  0  0  0  0  0  0  0  0  0
  138.1580   72.9020  223.4010 H   0  0  0  0  0  0  0  0  0  0  0  0
  138.1337   68.3846  223.7551 H   0  0  0  0  0  0  0  0  0  0  0  0
  139.1960   67.5996  225.8568 H   0  0  0  0  0  0  0  0  0  0  0  0
  140.4945   68.1084  227.8930 H   0  0  0  0  0  0  0  0  0  0  0  0
  141.6664   69.8347  229.2825 H   0  0  0  0  0  0  0  0  0  0  0  0
  141.7408   72.1886  228.5583 H   0  0  0  0  0  0  0  0  0  0  0  0
  140.6388   72.9010  226.4195 H   0  0  0  0  0  0  0  0  0  0  0  0
  1  2  1  0
  2  3  1  0
  3  4  2  0
  4  5  1  0
  5  6  2  0
  6  7  1  0
  7  8  2  0
  8  9  1  0
  9 10  1  0
  9 11  1  0
 11 12  1  0
 12 13  2  0
 12 14  1  0
 14 15  1  0
 15 16  1  0
 16 17  2  0
 16 18  1  0
 18 19  2  0
 19 20  1  0
 20 21  2  0
 21 22  1  0
 22 23  2  0
 23 24  1  0
 24 25  2  0
 25 26  1  0
 26 27  2  0
  8  3  1  0
 27 18  1  0
 26 21  1  0
  1 28  1  0
  1 29  1  0
  1 30  1  0
  4 31  1  0
  5 32  1  0
  6 33  1  0
  7 34  1  0
  9 35  1  6
 10 36  1  0
 10 37  1  0
 10 38  1  0
 11 39  1  0
 14 40  1  0
 14 41  1  0
 15 42  1  0
 19 43  1  0
 20 44  1  0
 22 45  1  0
 23 46  1  0
 24 47  1  0
 25 48  1  0
M  END
>  <smiles>  (36) 
COc1ccccc1[C@H](C)NC(=O)CNC(=O)c1ccc2ccccc2n1

>  <score_type>  (36) 
oracle

>  <origin>  (36) 
autodockgpu

>  <m_score__min__energy>  (36) 
-8.5299999999999994

>  <m_primary>  (36) 
energy

>  <rmsd>  (36) 
5.429149938884533

>  <m_score__min__rmsd>  (36) 
5.429149938884533

>  <meeko>  (36) 
{"free_energy": -7.57, "intermolecular_energy": -9.36, "internal_energy": -2.08, "cluster_size": 8, "cluster_id": 4, "rank_in_cluster": 1}

>  <energy>  (36) 
-6.79

>  <cluster_rmsd>  (36) 
1.88

>  <cluster>  (36) 
3

$$$$

     RDKit          3D

 48 50  0  0  0  0  0  0  0  0999 V2000
  142.1500   79.4450  218.9840 C   0  0  0  0  0  0  0  0  0  0  0  0
  141.2040   79.6500  220.0140 O   0  0  0  0  0  0  0  0  0  0  0  0
  141.5310   79.5750  221.3680 C   0  0  0  0  0  0  0  0  0  0  0  0
  142.3150   80.6140  221.8810 C   0  0  0  0  0  0  0  0  0  0  0  0
  142.6510   80.5610  223.2210 C   0  0  0  0  0  0  0  0  0  0  0  0
  142.2290   79.5170  224.0280 C   0  0  0  0  0  0  0  0  0  0  0  0
  141.4530   78.5140  223.4650 C   0  0  0  0  0  0  0  0  0  0  0  0
  141.0960   78.5290  222.1370 C   0  0  0  0  0  0  0  0  0  0  0  0
  140.2630   77.4640  221.5040 C   0  0  2  0  0  0  0  0  0  0  0  0
  139.0110   77.3100  222.3450 C   0  0  0  0  0  0  0  0  0  0  0  0
  140.9270   76.1690  221.5030 N   0  0  0  0  0  0  0  0  0  0  0  0
  140.3530   75.0180  220.9140 C   0  0  0  0  0  0  0  0  0  0  0  0
  139.2240   75.0970  220.3650 O   0  0  0  0  0  0  0  0  0  0  0  0
  141.1280   73.7550  220.9780 C   0  0  0  0  0  0  0  0  0  0  0  0
  140.9740   73.0470  222.2090 N   0  0  0  0  0  0  0  0  0  0  0  0
  140.2220   71.8450  222.3260 C   0  0  0  0  0  0  0  0  0  0  0  0
  139.6630   71.3860  221.2850 O   0  0  0  0  0  0  0  0  0  0  0  0
  140.1000   71.1590  223.6270 C   0  0  0  0  0  0  0  0  0  0  0  0
  139.4230   69.9570  223.6570 C   0  0  0  0  0  0  0  0  0  0  0  0
  139.3030   69.3100  224.8590 C   0  0  0  0  0  0  0  0  0  0  0  0
  139.8550   69.8620  226.0180 C   0  0  0  0  0  0  0  0  0  0  0  0
  139.7500   69.2330  227.2380 C   0  0  0  0  0  0  0  0  0  0  0  0
  140.3300   69.8550  228.3470 C   0  0  0  0  0  0  0  0  0  0  0  0
  140.9890   71.0600  228.2210 C   0  0  0  0  0  0  0  0  0  0  0  0
  141.0940   71.6950  226.9800 C   0  0  0  0  0  0  0  0  0  0  0  0
  140.5120   71.0680  225.8820 C   0  0  0  0  0  0  0  0  0  0  0  0
  140.6350   71.7100  224.7050 N   0  0  0  0  0  0  0  0  0  0  0  0
  143.1340   79.2318  219.4270 H   0  0  0  0  0  0  0  0  0  0  0  0
  141.8359   78.5941  218.3617 H   0  0  0  0  0  0  0  0  0  0  0  0
  142.2163   80.3496  218.3617 H   0  0  0  0  0  0  0  0  0  0  0  0
  142.6519   81.4431  221.2413 H   0  0  0  0  0  0  0  0  0  0  0  0
  143.2655   81.3635  223.6549 H   0  0  0  0  0  0  0  0  0  0  0  0
  142.5034   79.4839  225.0927 H   0  0  0  0  0  0  0  0  0  0  0  0
  141.1133   77.6822  224.0996 H   0  0  0  0  0  0  0  0  0  0  0  0
  140.0626   77.7598  220.4636 H   0  0  0  0  0  0  0  0  0  0  0  0
  139.2792   77.3430  223.4113 H   0  0  0  0  0  0  0  0  0  0  0  0
  138.3131   78.1291  222.1170 H   0  0  0  0  0  0  0  0  0  0  0  0
  138.5324   76.3462  222.1170 H   0  0  0  0  0  0  0  0  0  0  0  0
  141.8620   76.1230  221.9630 H   0  0  0  0  0  0  0  0  0  0  0  0
  140.7952   73.1017  220.1580 H   0  0  0  0  0  0  0  0  0  0  0  0
  142.1908   74.0262  220.8946 H   0  0  0  0  0  0  0  0  0  0  0  0
  141.4200   73.3840  223.1150 H   0  0  0  0  0  0  0  0  0  0  0  0
  138.9910   69.5294  222.7402 H   0  0  0  0  0  0  0  0  0  0  0  0
  138.7687   68.3499  224.9119 H   0  0  0  0  0  0  0  0  0  0  0  0
  139.2260   68.2709  227.3369 H   0  0  0  0  0  0  0  0  0  0  0  0
  140.2599   69.3764  229.3350 H   0  0  0  0  0  0  0  0  0  0  0  0
  141.4382   71.5279  229.1094 H   0  0  0  0  0  0  0  0  0  0  0  0
  141.6181   72.6564  226.8749 H   0  0  0  0  0  0  0  0  0  0  0  0
  1  2  1  0
  2  3  1  0
  3  4  2  0
  4  5  1  0
  5  6  2  0
  6  7  1  0
  7  8  2  0
  8  9  1  0
  9 10  1  0
  9 11  1  0
 11 12  1  0
 12 13  2  0
 12 14  1  0
 14 15  1  0
 15 16  1  0
 16 17  2  0
 16 18  1  0
 18 19  2  0
 19 20  1  0
 20 21  2  0
 21 22  1  0
 22 23  2  0
 23 24  1  0
 24 25  2  0
 25 26  1  0
 26 27  2  0
  8  3  1  0
 27 18  1  0
 26 21  1  0
  1 28  1  0
  1 29  1  0
  1 30  1  0
  4 31  1  0
  5 32  1  0
  6 33  1  0
  7 34  1  0
  9 35  1  6
 10 36  1  0
 10 37  1  0
 10 38  1  0
 11 39  1  0
 14 40  1  0
 14 41  1  0
 15 42  1  0
 19 43  1  0
 20 44  1  0
 22 45  1  0
 23 46  1  0
 24 47  1  0
 25 48  1  0
M  END
>  <smiles>  (37) 
COc1ccccc1[C@H](C)NC(=O)CNC(=O)c1ccc2ccccc2n1

>  <score_type>  (37) 
oracle

>  <origin>  (37) 
autodockgpu

>  <m_score__min__energy>  (37) 
-8.5299999999999994

>  <m_primary>  (37) 
energy

>  <rmsd>  (37) 
4.295992265286185

>  <m_score__min__rmsd>  (37) 
4.295992265286185

>  <meeko>  (37) 
{"free_energy": -8.17, "intermolecular_energy": -9.96, "internal_energy": -1.28, "cluster_size": 28, "cluster_id": 1, "rank_in_cluster": 6}

>  <energy>  (37) 
-6.73

>  <cluster_rmsd>  (37) 
1.72

>  <cluster>  (37) 
3

$$$$

     RDKit          3D

 48 50  0  0  0  0  0  0  0  0999 V2000
  141.1790   72.2570  227.2380 C   0  0  0  0  0  0  0  0  0  0  0  0
  140.4240   71.4900  226.3230 O   0  0  0  0  0  0  0  0  0  0  0  0
  140.2950   70.1050  226.4230 C   0  0  0  0  0  0  0  0  0  0  0  0
  141.0760   69.4710  227.3950 C   0  0  0  0  0  0  0  0  0  0  0  0
  140.9640   68.0990  227.5120 C   0  0  0  0  0  0  0  0  0  0  0  0
  140.1110   67.3730  226.6960 C   0  0  0  0  0  0  0  0  0  0  0  0
  139.3590   68.0550  225.7500 C   0  0  0  0  0  0  0  0  0  0  0  0
  139.4410   69.4200  225.6010 C   0  0  0  0  0  0  0  0  0  0  0  0
  138.6450   70.1790  224.5910 C   0  0  2  0  0  0  0  0  0  0  0  0
  138.0750   69.1700  223.6130 C   0  0  0  0  0  0  0  0  0  0  0  0
  139.4670   71.0950  223.8140 N   0  0  0  0  0  0  0  0  0  0  0  0
  138.9890   71.7560  222.6580 C   0  0  0  0  0  0  0  0  0  0  0  0
  137.8090   71.5570  222.2700 O   0  0  0  0  0  0  0  0  0  0  0  0
  139.9230   72.6660  221.9500 C   0  0  0  0  0  0  0  0  0  0  0  0
  139.7430   74.0440  222.2780 N   0  0  0  0  0  0  0  0  0  0  0  0
  140.6730   75.0570  221.9140 C   0  0  0  0  0  0  0  0  0  0  0  0
  141.7100   74.7140  221.2700 O   0  0  0  0  0  0  0  0  0  0  0  0
  140.4300   76.4660  222.2810 C   0  0  0  0  0  0  0  0  0  0  0  0
  139.1350   76.8360  222.5840 C   0  0  0  0  0  0  0  0  0  0  0  0
  138.8980   78.1420  222.9260 C   0  0  0  0  0  0  0  0  0  0  0  0
  139.9450   79.0660  222.9630 C   0  0  0  0  0  0  0  0  0  0  0  0
  139.7340   80.3830  223.3030 C   0  0  0  0  0  0  0  0  0  0  0  0
  140.8370   81.2410  223.3140 C   0  0  0  0  0  0  0  0  0  0  0  0
  142.0970   80.7800  222.9960 C   0  0  0  0  0  0  0  0  0  0  0  0
  142.3070   79.4420  222.6520 C   0  0  0  0  0  0  0  0  0  0  0  0
  141.2020   78.5970  222.6420 C   0  0  0  0  0  0  0  0  0  0  0  0
  141.4440   77.3160  222.3060 N   0  0  0  0  0  0  0  0  0  0  0  0
  140.9037   71.9774  228.2656 H   0  0  0  0  0  0  0  0  0  0  0  0
  142.2507   72.0654  227.0804 H   0  0  0  0  0  0  0  0  0  0  0  0
  140.9705   73.3255  227.0804 H   0  0  0  0  0  0  0  0  0  0  0  0
  141.7551   70.0444  228.0431 H   0  0  0  0  0  0  0  0  0  0  0  0
  141.5642   67.5720  228.2683 H   0  0  0  0  0  0  0  0  0  0  0  0
  140.0318   66.2804  226.7960 H   0  0  0  0  0  0  0  0  0  0  0  0
  138.6771   67.4872  225.0999 H   0  0  0  0  0  0  0  0  0  0  0  0
  137.8773   70.7579  225.1253 H   0  0  0  0  0  0  0  0  0  0  0  0
  137.6082   68.3437  224.1691 H   0  0  0  0  0  0  0  0  0  0  0  0
  137.3197   69.6590  222.9802 H   0  0  0  0  0  0  0  0  0  0  0  0
  138.8837   68.7754  222.9802 H   0  0  0  0  0  0  0  0  0  0  0  0
  140.4420   71.2480  224.1500 H   0  0  0  0  0  0  0  0  0  0  0  0
  140.9522   72.3787  222.2112 H   0  0  0  0  0  0  0  0  0  0  0  0
  139.7178   72.5628  220.8742 H   0  0  0  0  0  0  0  0  0  0  0  0
  138.8930   74.3910  222.8160 H   0  0  0  0  0  0  0  0  0  0  0  0
  138.3157   76.1027  222.5519 H   0  0  0  0  0  0  0  0  0  0  0  0
  137.8759   78.4648  223.1731 H   0  0  0  0  0  0  0  0  0  0  0  0
  138.7284   80.7487  223.5581 H   0  0  0  0  0  0  0  0  0  0  0  0
  140.6981   82.2992  223.5801 H   0  0  0  0  0  0  0  0  0  0  0  0
  142.9491   81.4755  223.0134 H   0  0  0  0  0  0  0  0  0  0  0  0
  143.3106   79.0701  222.3981 H   0  0  0  0  0  0  0  0  0  0  0  0
  1  2  1  0
  2  3  1  0
  3  4  2  0
  4  5  1  0
  5  6  2  0
  6  7  1  0
  7  8  2  0
  8  9  1  0
  9 10  1  0
  9 11  1  0
 11 12  1  0
 12 13  2  0
 12 14  1  0
 14 15  1  0
 15 16  1  0
 16 17  2  0
 16 18  1  0
 18 19  2  0
 19 20  1  0
 20 21  2  0
 21 22  1  0
 22 23  2  0
 23 24  1  0
 24 25  2  0
 25 26  1  0
 26 27  2  0
  8  3  1  0
 27 18  1  0
 26 21  1  0
  1 28  1  0
  1 29  1  0
  1 30  1  0
  4 31  1  0
  5 32  1  0
  6 33  1  0
  7 34  1  0
  9 35  1  1
 10 36  1  0
 10 37  1  0
 10 38  1  0
 11 39  1  0
 14 40  1  0
 14 41  1  0
 15 42  1  0
 19 43  1  0
 20 44  1  0
 22 45  1  0
 23 46  1  0
 24 47  1  0
 25 48  1  0
M  END
>  <smiles>  (38) 
COc1ccccc1[C@H](C)NC(=O)CNC(=O)c1ccc2ccccc2n1

>  <score_type>  (38) 
oracle

>  <origin>  (38) 
autodockgpu

>  <m_score__min__energy>  (38) 
-8.5299999999999994

>  <m_primary>  (38) 
energy

>  <rmsd>  (38) 
10.723979946334147

>  <m_score__min__rmsd>  (38) 
10.723979946334147

>  <meeko>  (38) 
{"free_energy": -8.1, "intermolecular_energy": -9.89, "internal_energy": -1.36, "cluster_size": 2, "cluster_id": 2, "rank_in_cluster": 2}

>  <energy>  (38) 
-7.57

>  <cluster_rmsd>  (38) 
0.0

>  <cluster>  (38) 
4

$$$$

     RDKit          3D

 48 50  0  0  0  0  0  0  0  0999 V2000
  142.2070   78.9450  219.0180 C   0  0  0  0  0  0  0  0  0  0  0  0
  141.3960   79.5860  219.9800 O   0  0  0  0  0  0  0  0  0  0  0  0
  141.6520   79.5230  221.3500 C   0  0  0  0  0  0  0  0  0  0  0  0
  142.4240   80.5570  221.8910 C   0  0  0  0  0  0  0  0  0  0  0  0
  142.6900   80.5140  223.2460 C   0  0  0  0  0  0  0  0  0  0  0  0
  142.2120   79.4860  224.0430 C   0  0  0  0  0  0  0  0  0  0  0  0
  141.4510   78.4880  223.4510 C   0  0  0  0  0  0  0  0  0  0  0  0
  141.1630   78.4920  222.1060 C   0  0  0  0  0  0  0  0  0  0  0  0
  140.3480   77.4320  221.4430 C   0  0  2  0  0  0  0  0  0  0  0  0
  139.0500   77.3090  222.2180 C   0  0  0  0  0  0  0  0  0  0  0  0
  140.9900   76.1260  221.4950 N   0  0  0  0  0  0  0  0  0  0  0  0
  140.5700   75.0380  220.6960 C   0  0  0  0  0  0  0  0  0  0  0  0
  139.6040   75.1830  219.9020 O   0  0  0  0  0  0  0  0  0  0  0  0
  141.3040   73.7560  220.8390 C   0  0  0  0  0  0  0  0  0  0  0  0
  141.0900   73.1080  222.0940 N   0  0  0  0  0  0  0  0  0  0  0  0
  140.3940   71.8740  222.2220 C   0  0  0  0  0  0  0  0  0  0  0  0
  139.9430   71.3290  221.1690 O   0  0  0  0  0  0  0  0  0  0  0  0
  140.2060   71.2530  223.5470 C   0  0  0  0  0  0  0  0  0  0  0  0
  139.5070   70.0640  223.6040 C   0  0  0  0  0  0  0  0  0  0  0  0
  139.3260   69.4770  224.8300 C   0  0  0  0  0  0  0  0  0  0  0  0
  139.8380   70.0750  225.9840 C   0  0  0  0  0  0  0  0  0  0  0  0
  139.6710   69.5070  227.2270 C   0  0  0  0  0  0  0  0  0  0  0  0
  140.2150   70.1720  228.3300 C   0  0  0  0  0  0  0  0  0  0  0  0
  140.8990   71.3600  228.1750 C   0  0  0  0  0  0  0  0  0  0  0  0
  141.0670   71.9330  226.9110 C   0  0  0  0  0  0  0  0  0  0  0  0
  140.5200   71.2630  225.8200 C   0  0  0  0  0  0  0  0  0  0  0  0
  140.7040   71.8460  224.6210 N   0  0  0  0  0  0  0  0  0  0  0  0
  142.9719   78.3405  219.5274 H   0  0  0  0  0  0  0  0  0  0  0  0
  141.5835   78.2930  218.3886 H   0  0  0  0  0  0  0  0  0  0  0  0
  142.6974   79.7022  218.3886 H   0  0  0  0  0  0  0  0  0  0  0  0
  142.8051   81.3740  221.2607 H   0  0  0  0  0  0  0  0  0  0  0  0
  143.2939   81.3125  223.7018 H   0  0  0  0  0  0  0  0  0  0  0  0
  142.4309   79.4617  225.1207 H   0  0  0  0  0  0  0  0  0  0  0  0
  141.0664   77.6688  224.0763 H   0  0  0  0  0  0  0  0  0  0  0  0
  140.2086   77.7166  220.3896 H   0  0  0  0  0  0  0  0  0  0  0  0
  139.2638   77.3293  223.2968 H   0  0  0  0  0  0  0  0  0  0  0  0
  138.3877   78.1484  221.9596 H   0  0  0  0  0  0  0  0  0  0  0  0
  138.5572   76.3601  221.9596 H   0  0  0  0  0  0  0  0  0  0  0  0
  141.7880   76.0240  222.1580 H   0  0  0  0  0  0  0  0  0  0  0  0
  140.9767   73.0773  220.0376 H   0  0  0  0  0  0  0  0  0  0  0  0
  142.3768   73.9915  220.7779 H   0  0  0  0  0  0  0  0  0  0  0  0
  141.4460   73.5170  223.0090 H   0  0  0  0  0  0  0  0  0  0  0  0
  139.1061   69.6000  222.6908 H   0  0  0  0  0  0  0  0  0  0  0  0
  138.7738   68.5286  224.9053 H   0  0  0  0  0  0  0  0  0  0  0  0
  139.1263   68.5591  227.3486 H   0  0  0  0  0  0  0  0  0  0  0  0
  140.0959   69.7419  229.3354 H   0  0  0  0  0  0  0  0  0  0  0  0
  141.3182   71.8635  229.0586 H   0  0  0  0  0  0  0  0  0  0  0  0
  141.6121   72.8798  226.7829 H   0  0  0  0  0  0  0  0  0  0  0  0
  1  2  1  0
  2  3  1  0
  3  4  2  0
  4  5  1  0
  5  6  2  0
  6  7  1  0
  7  8  2  0
  8  9  1  0
  9 10  1  0
  9 11  1  0
 11 12  1  0
 12 13  2  0
 12 14  1  0
 14 15  1  0
 15 16  1  0
 16 17  2  0
 16 18  1  0
 18 19  2  0
 19 20  1  0
 20 21  2  0
 21 22  1  0
 22 23  2  0
 23 24  1  0
 24 25  2  0
 25 26  1  0
 26 27  2  0
  8  3  1  0
 27 18  1  0
 26 21  1  0
  1 28  1  0
  1 29  1  0
  1 30  1  0
  4 31  1  0
  5 32  1  0
  6 33  1  0
  7 34  1  0
  9 35  1  6
 10 36  1  0
 10 37  1  0
 10 38  1  0
 11 39  1  0
 14 40  1  0
 14 41  1  0
 15 42  1  0
 19 43  1  0
 20 44  1  0
 22 45  1  0
 23 46  1  0
 24 47  1  0
 25 48  1  0
M  END
>  <smiles>  (39) 
COc1ccccc1[C@H](C)NC(=O)CNC(=O)c1ccc2ccccc2n1

>  <score_type>  (39) 
oracle

>  <origin>  (39) 
autodockgpu

>  <m_score__min__energy>  (39) 
-8.5299999999999994

>  <m_primary>  (39) 
energy

>  <rmsd>  (39) 
4.30961663085708

>  <m_score__min__rmsd>  (39) 
4.30961663085708

>  <meeko>  (39) 
{"free_energy": -8.08, "intermolecular_energy": -9.87, "internal_energy": -1.32, "cluster_size": 28, "cluster_id": 1, "rank_in_cluster": 11}

>  <energy>  (39) 
-7.53

>  <cluster_rmsd>  (39) 
0.3

>  <cluster>  (39) 
4

$$$$

     RDKit          3D

 48 50  0  0  0  0  0  0  0  0999 V2000
  137.8470   78.9590  221.3860 C   0  0  0  0  0  0  0  0  0  0  0  0
  138.9240   78.3050  222.0240 O   0  0  0  0  0  0  0  0  0  0  0  0
  140.0510   78.9810  222.4910 C   0  0  0  0  0  0  0  0  0  0  0  0
  139.8240   80.0410  223.3740 C   0  0  0  0  0  0  0  0  0  0  0  0
  140.9270   80.7260  223.8490 C   0  0  0  0  0  0  0  0  0  0  0  0
  142.2120   80.3770  223.4660 C   0  0  0  0  0  0  0  0  0  0  0  0
  142.3760   79.3150  222.5880 C   0  0  0  0  0  0  0  0  0  0  0  0
  141.3070   78.6080  222.0920 C   0  0  0  0  0  0  0  0  0  0  0  0
  141.4540   77.4630  221.1460 C   0  0  2  0  0  0  0  0  0  0  0  0
  141.2940   78.0130  219.7410 C   0  0  0  0  0  0  0  0  0  0  0  0
  140.4130   76.4610  221.3220 N   0  0  0  0  0  0  0  0  0  0  0  0
  140.6070   75.0960  221.0070 C   0  0  0  0  0  0  0  0  0  0  0  0
  141.7170   74.7120  220.5540 O   0  0  0  0  0  0  0  0  0  0  0  0
  139.4690   74.1710  221.2300 C   0  0  0  0  0  0  0  0  0  0  0  0
  139.5840   73.3950  222.4240 N   0  0  0  0  0  0  0  0  0  0  0  0
  139.7400   71.9810  222.4200 C   0  0  0  0  0  0  0  0  0  0  0  0
  139.7800   71.3870  221.3000 O   0  0  0  0  0  0  0  0  0  0  0  0
  139.8540   71.2350  223.6880 C   0  0  0  0  0  0  0  0  0  0  0  0
  139.4750   69.9080  223.6860 C   0  0  0  0  0  0  0  0  0  0  0  0
  139.5760   69.2040  224.8590 C   0  0  0  0  0  0  0  0  0  0  0  0
  140.0500   69.8230  226.0180 C   0  0  0  0  0  0  0  0  0  0  0  0
  140.1610   69.1400  227.2080 C   0  0  0  0  0  0  0  0  0  0  0  0
  140.6440   69.8350  228.3200 C   0  0  0  0  0  0  0  0  0  0  0  0
  141.0000   71.1650  228.2250 C   0  0  0  0  0  0  0  0  0  0  0  0
  140.8850   71.8540  227.0150 C   0  0  0  0  0  0  0  0  0  0  0  0
  140.4020   71.1530  225.9140 C   0  0  0  0  0  0  0  0  0  0  0  0
  140.3070   71.8520  224.7680 N   0  0  0  0  0  0  0  0  0  0  0  0
  137.1670   79.3720  222.1456 H   0  0  0  0  0  0  0  0  0  0  0  0
  138.2338   79.7749  220.7577 H   0  0  0  0  0  0  0  0  0  0  0  0
  137.3014   78.2395  220.7577 H   0  0  0  0  0  0  0  0  0  0  0  0
  138.8048   80.3198  223.6797 H   0  0  0  0  0  0  0  0  0  0  0  0
  140.7814   81.5651  224.5452 H   0  0  0  0  0  0  0  0  0  0  0  0
  143.0826   80.9294  223.8493 H   0  0  0  0  0  0  0  0  0  0  0  0
  143.3928   79.0303  222.2796 H   0  0  0  0  0  0  0  0  0  0  0  0
  142.4319   76.9935  221.3282 H   0  0  0  0  0  0  0  0  0  0  0  0
  140.9871   79.0680  219.7930 H   0  0  0  0  0  0  0  0  0  0  0  0
  142.2519   77.9357  219.2057 H   0  0  0  0  0  0  0  0  0  0  0  0
  140.5271   77.4340  219.2057 H   0  0  0  0  0  0  0  0  0  0  0  0
  139.5010   76.7970  221.6980 H   0  0  0  0  0  0  0  0  0  0  0  0
  138.5453   74.7652  221.2899 H   0  0  0  0  0  0  0  0  0  0  0  0
  139.4600   73.4641  220.3873 H   0  0  0  0  0  0  0  0  0  0  0  0
  139.5580   73.8380  223.3910 H   0  0  0  0  0  0  0  0  0  0  0  0
  139.1022   69.4281  222.7691 H   0  0  0  0  0  0  0  0  0  0  0  0
  139.2816   68.1445  224.8871 H   0  0  0  0  0  0  0  0  0  0  0  0
  139.8781   68.0795  227.2814 H   0  0  0  0  0  0  0  0  0  0  0  0
  140.7418   69.3148  229.2843 H   0  0  0  0  0  0  0  0  0  0  0  0
  141.3795   71.6898  229.1141 H   0  0  0  0  0  0  0  0  0  0  0  0
  141.1666   72.9143  226.9353 H   0  0  0  0  0  0  0  0  0  0  0  0
  1  2  1  0
  2  3  1  0
  3  4  2  0
  4  5  1  0
  5  6  2  0
  6  7  1  0
  7  8  2  0
  8  9  1  0
  9 10  1  0
  9 11  1  0
 11 12  1  0
 12 13  2  0
 12 14  1  0
 14 15  1  0
 15 16  1  0
 16 17  2  0
 16 18  1  0
 18 19  2  0
 19 20  1  0
 20 21  2  0
 21 22  1  0
 22 23  2  0
 23 24  1  0
 24 25  2  0
 25 26  1  0
 26 27  2  0
  8  3  1  0
 27 18  1  0
 26 21  1  0
  1 28  1  0
  1 29  1  0
  1 30  1  0
  4 31  1  0
  5 32  1  0
  6 33  1  0
  7 34  1  0
  9 35  1  6
 10 36  1  0
 10 37  1  0
 10 38  1  0
 11 39  1  0
 14 40  1  0
 14 41  1  0
 15 42  1  0
 19 43  1  0
 20 44  1  0
 22 45  1  0
 23 46  1  0
 24 47  1  0
 25 48  1  0
M  END
>  <smiles>  (40) 
COc1ccccc1[C@H](C)NC(=O)CNC(=O)c1ccc2ccccc2n1

>  <score_type>  (40) 
oracle

>  <origin>  (40) 
autodockgpu

>  <m_score__min__energy>  (40) 
-8.5299999999999994

>  <m_primary>  (40) 
energy

>  <rmsd>  (40) 
3.997638105357857

>  <m_score__min__rmsd>  (40) 
3.997638105357857

>  <meeko>  (40) 
{"free_energy": -7.91, "intermolecular_energy": -9.7, "internal_energy": -1.73, "cluster_size": 28, "cluster_id": 1, "rank_in_cluster": 15}

>  <energy>  (40) 
-7.53

>  <cluster_rmsd>  (40) 
1.98

>  <cluster>  (40) 
4

$$$$

     RDKit          3D

 48 50  0  0  0  0  0  0  0  0999 V2000
  140.9490   72.3030  221.9860 C   0  0  0  0  0  0  0  0  0  0  0  0
  140.7280   73.6890  222.1490 O   0  0  0  0  0  0  0  0  0  0  0  0
  141.2450   74.6460  221.2740 C   0  0  0  0  0  0  0  0  0  0  0  0
  142.5500   74.4360  220.8170 C   0  0  0  0  0  0  0  0  0  0  0  0
  143.0820   75.3710  219.9490 C   0  0  0  0  0  0  0  0  0  0  0  0
  142.3520   76.4770  219.5460 C   0  0  0  0  0  0  0  0  0  0  0  0
  141.0610   76.6330  220.0310 C   0  0  0  0  0  0  0  0  0  0  0  0
  140.4940   75.7260  220.8960 C   0  0  0  0  0  0  0  0  0  0  0  0
  139.1090   75.8690  221.4340 C   0  0  2  0  0  0  0  0  0  0  0  0
  139.2000   76.6920  222.7050 C   0  0  0  0  0  0  0  0  0  0  0  0
  138.5260   74.5880  221.8080 N   0  0  0  0  0  0  0  0  0  0  0  0
  137.6100   73.8980  220.9810 C   0  0  0  0  0  0  0  0  0  0  0  0
  137.2720   74.3930  219.8750 O   0  0  0  0  0  0  0  0  0  0  0  0
  137.0840   72.6000  221.4730 C   0  0  0  0  0  0  0  0  0  0  0  0
  137.7260   72.1300  222.6590 N   0  0  0  0  0  0  0  0  0  0  0  0
  138.0800   70.7680  222.8630 C   0  0  0  0  0  0  0  0  0  0  0  0
  137.8100   69.9350  221.9460 O   0  0  0  0  0  0  0  0  0  0  0  0
  138.7430   70.3440  224.1120 C   0  0  0  0  0  0  0  0  0  0  0  0
  138.6960   69.0040  224.4390 C   0  0  0  0  0  0  0  0  0  0  0  0
  139.3080   68.5990  225.5970 C   0  0  0  0  0  0  0  0  0  0  0  0
  139.9580   69.5240  226.4170 C   0  0  0  0  0  0  0  0  0  0  0  0
  140.5810   69.1440  227.5840 C   0  0  0  0  0  0  0  0  0  0  0  0
  141.2070   70.1350  228.3450 C   0  0  0  0  0  0  0  0  0  0  0  0
  141.2010   71.4520  227.9370 C   0  0  0  0  0  0  0  0  0  0  0  0
  140.5680   71.8340  226.7510 C   0  0  0  0  0  0  0  0  0  0  0  0
  139.9470   70.8400  226.0010 C   0  0  0  0  0  0  0  0  0  0  0  0
  139.3490   71.2470  224.8660 N   0  0  0  0  0  0  0  0  0  0  0  0
  141.0252   71.8252  222.9739 H   0  0  0  0  0  0  0  0  0  0  0  0
  140.1100   71.8610  221.4286 H   0  0  0  0  0  0  0  0  0  0  0  0
  141.8839   72.1438  221.4286 H   0  0  0  0  0  0  0  0  0  0  0  0
  143.1318   73.5588  221.1366 H   0  0  0  0  0  0  0  0  0  0  0  0
  144.1058   75.2340  219.5707 H   0  0  0  0  0  0  0  0  0  0  0  0
  142.7862   77.2158  218.8564 H   0  0  0  0  0  0  0  0  0  0  0  0
  140.4739   77.5077  219.7144 H   0  0  0  0  0  0  0  0  0  0  0  0
  138.4847   76.3290  220.6538 H   0  0  0  0  0  0  0  0  0  0  0  0
  139.1265   76.0272  223.5783 H   0  0  0  0  0  0  0  0  0  0  0  0
  140.1625   77.2241  222.7292 H   0  0  0  0  0  0  0  0  0  0  0  0
  138.3770   77.4215  222.7292 H   0  0  0  0  0  0  0  0  0  0  0  0
  138.8170   74.1930  222.7280 H   0  0  0  0  0  0  0  0  0  0  0  0
  136.0107   72.7180  221.6832 H   0  0  0  0  0  0  0  0  0  0  0  0
  137.2798   71.8562  220.6866 H   0  0  0  0  0  0  0  0  0  0  0  0
  137.9770   72.7820  223.4610 H   0  0  0  0  0  0  0  0  0  0  0  0
  138.1818   68.2811  223.7886 H   0  0  0  0  0  0  0  0  0  0  0  0
  139.2869   67.5369  225.8826 H   0  0  0  0  0  0  0  0  0  0  0  0
  140.5860   68.0927  227.9077 H   0  0  0  0  0  0  0  0  0  0  0  0
  141.7118   69.8604  229.2830 H   0  0  0  0  0  0  0  0  0  0  0  0
  141.7016   72.2129  228.5538 H   0  0  0  0  0  0  0  0  0  0  0  0
  140.5609   72.8836  226.4220 H   0  0  0  0  0  0  0  0  0  0  0  0
  1  2  1  0
  2  3  1  0
  3  4  2  0
  4  5  1  0
  5  6  2  0
  6  7  1  0
  7  8  2  0
  8  9  1  0
  9 10  1  0
  9 11  1  0
 11 12  1  0
 12 13  2  0
 12 14  1  0
 14 15  1  0
 15 16  1  0
 16 17  2  0
 16 18  1  0
 18 19  2  0
 19 20  1  0
 20 21  2  0
 21 22  1  0
 22 23  2  0
 23 24  1  0
 24 25  2  0
 25 26  1  0
 26 27  2  0
  8  3  1  0
 27 18  1  0
 26 21  1  0
  1 28  1  0
  1 29  1  0
  1 30  1  0
  4 31  1  0
  5 32  1  0
  6 33  1  0
  7 34  1  0
  9 35  1  6
 10 36  1  0
 10 37  1  0
 10 38  1  0
 11 39  1  0
 14 40  1  0
 14 41  1  0
 15 42  1  0
 19 43  1  0
 20 44  1  0
 22 45  1  0
 23 46  1  0
 24 47  1  0
 25 48  1  0
M  END
>  <smiles>  (41) 
COc1ccccc1[C@H](C)NC(=O)CNC(=O)c1ccc2ccccc2n1

>  <score_type>  (41) 
oracle

>  <origin>  (41) 
autodockgpu

>  <m_score__min__energy>  (41) 
-8.5299999999999994

>  <m_primary>  (41) 
energy

>  <rmsd>  (41) 
5.4752096463655

>  <m_score__min__rmsd>  (41) 
5.4752096463655

>  <meeko>  (41) 
{"free_energy": -7.51, "intermolecular_energy": -9.3, "internal_energy": -2.1, "cluster_size": 8, "cluster_id": 4, "rank_in_cluster": 4}

>  <energy>  (41) 
-7.51

>  <cluster_rmsd>  (41) 
0.19

>  <cluster>  (41) 
4

$$$$

     RDKit          3D

 48 50  0  0  0  0  0  0  0  0999 V2000
  138.0430   77.9610  222.5370 C   0  0  0  0  0  0  0  0  0  0  0  0
  139.1260   78.4030  221.7450 O   0  0  0  0  0  0  0  0  0  0  0  0
  140.2610   79.0070  222.2850 C   0  0  0  0  0  0  0  0  0  0  0  0
  140.0460   79.9870  223.2590 C   0  0  0  0  0  0  0  0  0  0  0  0
  141.1570   80.5990  223.8080 C   0  0  0  0  0  0  0  0  0  0  0  0
  142.4390   80.2570  223.4090 C   0  0  0  0  0  0  0  0  0  0  0  0
  142.5920   79.2770  222.4390 C   0  0  0  0  0  0  0  0  0  0  0  0
  141.5140   78.6430  221.8670 C   0  0  0  0  0  0  0  0  0  0  0  0
  141.6490   77.5860  220.8220 C   0  0  2  0  0  0  0  0  0  0  0  0
  141.4530   78.2550  219.4750 C   0  0  0  0  0  0  0  0  0  0  0  0
  140.6190   76.5630  220.9320 N   0  0  0  0  0  0  0  0  0  0  0  0
  140.9220   75.1890  221.0740 C   0  0  0  0  0  0  0  0  0  0  0  0
  142.1230   74.8160  221.1080 O   0  0  0  0  0  0  0  0  0  0  0  0
  139.7850   74.2420  221.1770 C   0  0  0  0  0  0  0  0  0  0  0  0
  139.7970   73.4550  222.3690 N   0  0  0  0  0  0  0  0  0  0  0  0
  140.0920   72.0640  222.3780 C   0  0  0  0  0  0  0  0  0  0  0  0
  140.3560   71.5000  221.2730 O   0  0  0  0  0  0  0  0  0  0  0  0
  140.0890   71.3040  223.6440 C   0  0  0  0  0  0  0  0  0  0  0  0
  139.5890   70.0180  223.6180 C   0  0  0  0  0  0  0  0  0  0  0  0
  139.5810   69.3030  224.7880 C   0  0  0  0  0  0  0  0  0  0  0  0
  140.0670   69.8700  225.9690 C   0  0  0  0  0  0  0  0  0  0  0  0
  140.0710   69.1740  227.1560 C   0  0  0  0  0  0  0  0  0  0  0  0
  140.5740   69.8180  228.2910 C   0  0  0  0  0  0  0  0  0  0  0  0
  141.0530   71.1090  228.2200 C   0  0  0  0  0  0  0  0  0  0  0  0
  141.0480   71.8110  227.0110 C   0  0  0  0  0  0  0  0  0  0  0  0
  140.5430   71.1630  225.8890 C   0  0  0  0  0  0  0  0  0  0  0  0
  140.5560   71.8720  224.7440 N   0  0  0  0  0  0  0  0  0  0  0  0
  138.3002   78.0660  223.6013 H   0  0  0  0  0  0  0  0  0  0  0  0
  137.1533   78.5680  222.3132 H   0  0  0  0  0  0  0  0  0  0  0  0
  137.8321   76.9049  222.3132 H   0  0  0  0  0  0  0  0  0  0  0  0
  139.0292   80.2610  223.5769 H   0  0  0  0  0  0  0  0  0  0  0  0
  141.0206   81.3733  224.5773 H   0  0  0  0  0  0  0  0  0  0  0  0
  143.3162   80.7516  223.8516 H   0  0  0  0  0  0  0  0  0  0  0  0
  143.6065   78.9986  222.1176 H   0  0  0  0  0  0  0  0  0  0  0  0
  142.6342   77.1114  220.9414 H   0  0  0  0  0  0  0  0  0  0  0  0
  141.1467   79.3006  219.6260 H   0  0  0  0  0  0  0  0  0  0  0  0
  142.3970   78.2273  218.9110 H   0  0  0  0  0  0  0  0  0  0  0  0
  140.6732   77.7223  218.9110 H   0  0  0  0  0  0  0  0  0  0  0  0
  139.6300   76.8910  220.9030 H   0  0  0  0  0  0  0  0  0  0  0  0
  138.8491   74.8195  221.1520 H   0  0  0  0  0  0  0  0  0  0  0  0
  139.8714   73.5441  220.3312 H   0  0  0  0  0  0  0  0  0  0  0  0
  139.5840   73.8730  223.3240 H   0  0  0  0  0  0  0  0  0  0  0  0
  139.2074   69.5787  222.6845 H   0  0  0  0  0  0  0  0  0  0  0  0
  139.1890   68.2753  224.7969 H   0  0  0  0  0  0  0  0  0  0  0  0
  139.6905   68.1434  227.2105 H   0  0  0  0  0  0  0  0  0  0  0  0
  140.5877   69.2869  229.2542 H   0  0  0  0  0  0  0  0  0  0  0  0
  141.4443   71.5931  229.1269 H   0  0  0  0  0  0  0  0  0  0  0  0
  141.4304   72.8405  226.9494 H   0  0  0  0  0  0  0  0  0  0  0  0
  1  2  1  0
  2  3  1  0
  3  4  2  0
  4  5  1  0
  5  6  2  0
  6  7  1  0
  7  8  2  0
  8  9  1  0
  9 10  1  0
  9 11  1  0
 11 12  1  0
 12 13  2  0
 12 14  1  0
 14 15  1  0
 15 16  1  0
 16 17  2  0
 16 18  1  0
 18 19  2  0
 19 20  1  0
 20 21  2  0
 21 22  1  0
 22 23  2  0
 23 24  1  0
 24 25  2  0
 25 26  1  0
 26 27  2  0
  8  3  1  0
 27 18  1  0
 26 21  1  0
  1 28  1  0
  1 29  1  0
  1 30  1  0
  4 31  1  0
  5 32  1  0
  6 33  1  0
  7 34  1  0
  9 35  1  6
 10 36  1  0
 10 37  1  0
 10 38  1  0
 11 39  1  0
 14 40  1  0
 14 41  1  0
 15 42  1  0
 19 43  1  0
 20 44  1  0
 22 45  1  0
 23 46  1  0
 24 47  1  0
 25 48  1  0
M  END
>  <smiles>  (42) 
COc1ccccc1[C@H](C)NC(=O)CNC(=O)c1ccc2ccccc2n1

>  <score_type>  (42) 
oracle

>  <origin>  (42) 
autodockgpu

>  <m_score__min__energy>  (42) 
-8.5299999999999994

>  <m_primary>  (42) 
energy

>  <rmsd>  (42) 
4.010116906004699

>  <m_score__min__rmsd>  (42) 
4.010116906004699

>  <meeko>  (42) 
{"free_energy": -8.08, "intermolecular_energy": -9.87, "internal_energy": -1.69, "cluster_size": 28, "cluster_id": 1, "rank_in_cluster": 12}

>  <energy>  (42) 
-7.39

>  <cluster_rmsd>  (42) 
1.98

>  <cluster>  (42) 
4

$$$$

     RDKit          3D

 48 50  0  0  0  0  0  0  0  0999 V2000
  139.0180   80.9880  223.2250 C   0  0  0  0  0  0  0  0  0  0  0  0
  140.3930   81.1220  222.9300 O   0  0  0  0  0  0  0  0  0  0  0  0
  140.9530   80.7020  221.7230 C   0  0  0  0  0  0  0  0  0  0  0  0
  141.2550   81.7020  220.7920 C   0  0  0  0  0  0  0  0  0  0  0  0
  141.8110   81.3090  219.5890 C   0  0  0  0  0  0  0  0  0  0  0  0
  142.0600   79.9750  219.3120 C   0  0  0  0  0  0  0  0  0  0  0  0
  141.7410   79.0270  220.2740 C   0  0  0  0  0  0  0  0  0  0  0  0
  141.1870   79.3750  221.4840 C   0  0  0  0  0  0  0  0  0  0  0  0
  140.8330   78.3770  222.5360 C   0  0  2  0  0  0  0  0  0  0  0  0
  141.8380   78.5310  223.6610 C   0  0  0  0  0  0  0  0  0  0  0  0
  140.9470   77.0060  222.0600 N   0  0  0  0  0  0  0  0  0  0  0  0
  139.8240   76.1660  221.8810 C   0  0  0  0  0  0  0  0  0  0  0  0
  138.6720   76.6020  222.1380 O   0  0  0  0  0  0  0  0  0  0  0  0
  140.0680   74.7870  221.3900 C   0  0  0  0  0  0  0  0  0  0  0  0
  139.8190   73.7750  222.3670 N   0  0  0  0  0  0  0  0  0  0  0  0
  140.5910   72.5850  222.4670 C   0  0  0  0  0  0  0  0  0  0  0  0
  141.5440   72.4190  221.6470 O   0  0  0  0  0  0  0  0  0  0  0  0
  140.2840   71.5760  223.5000 C   0  0  0  0  0  0  0  0  0  0  0  0
  139.5940   70.4460  223.1080 C   0  0  0  0  0  0  0  0  0  0  0  0
  139.3040   69.5030  224.0580 C   0  0  0  0  0  0  0  0  0  0  0  0
  139.6990   69.6880  225.3850 C   0  0  0  0  0  0  0  0  0  0  0  0
  139.4200   68.7560  226.3590 C   0  0  0  0  0  0  0  0  0  0  0  0
  139.8510   69.0220  227.6620 C   0  0  0  0  0  0  0  0  0  0  0  0
  140.5360   70.1810  227.9600 C   0  0  0  0  0  0  0  0  0  0  0  0
  140.8170   71.1240  226.9680 C   0  0  0  0  0  0  0  0  0  0  0  0
  140.3820   70.8510  225.6750 C   0  0  0  0  0  0  0  0  0  0  0  0
  140.6730   71.7830  224.7480 N   0  0  0  0  0  0  0  0  0  0  0  0
  138.8767   80.9742  224.3158 H   0  0  0  0  0  0  0  0  0  0  0  0
  138.4662   81.8366  222.7945 H   0  0  0  0  0  0  0  0  0  0  0  0
  138.6404   80.0488  222.7945 H   0  0  0  0  0  0  0  0  0  0  0  0
  141.0572   82.7620  221.0095 H   0  0  0  0  0  0  0  0  0  0  0  0
  142.0608   82.0713  218.8363 H   0  0  0  0  0  0  0  0  0  0  0  0
  142.5010   79.6735  218.3504 H   0  0  0  0  0  0  0  0  0  0  0  0
  141.9371   77.9655  220.0626 H   0  0  0  0  0  0  0  0  0  0  0  0
  139.7929   78.5595  222.8442 H   0  0  0  0  0  0  0  0  0  0  0  0
  141.3205   78.4517  224.6284 H   0  0  0  0  0  0  0  0  0  0  0  0
  142.5973   77.7387  223.5853 H   0  0  0  0  0  0  0  0  0  0  0  0
  142.3252   79.5143  223.5853 H   0  0  0  0  0  0  0  0  0  0  0  0
  141.9090   76.6620  221.8520 H   0  0  0  0  0  0  0  0  0  0  0  0
  139.4111   74.6049  220.5267 H   0  0  0  0  0  0  0  0  0  0  0  0
  141.1345   74.7241  221.1279 H   0  0  0  0  0  0  0  0  0  0  0  0
  139.0340   73.8600  223.0800 H   0  0  0  0  0  0  0  0  0  0  0  0
  139.2856   70.3070  222.0613 H   0  0  0  0  0  0  0  0  0  0  0  0
  138.7557   68.5927  223.7737 H   0  0  0  0  0  0  0  0  0  0  0  0
  138.8750   67.8310  226.1195 H   0  0  0  0  0  0  0  0  0  0  0  0
  139.6406   68.2961  228.4612 H   0  0  0  0  0  0  0  0  0  0  0  0
  140.8658   70.3658  228.9930 H   0  0  0  0  0  0  0  0  0  0  0  0
  141.3631   72.0499  227.2012 H   0  0  0  0  0  0  0  0  0  0  0  0
  1  2  1  0
  2  3  1  0
  3  4  2  0
  4  5  1  0
  5  6  2  0
  6  7  1  0
  7  8  2  0
  8  9  1  0
  9 10  1  0
  9 11  1  0
 11 12  1  0
 12 13  2  0
 12 14  1  0
 14 15  1  0
 15 16  1  0
 16 17  2  0
 16 18  1  0
 18 19  2  0
 19 20  1  0
 20 21  2  0
 21 22  1  0
 22 23  2  0
 23 24  1  0
 24 25  2  0
 25 26  1  0
 26 27  2  0
  8  3  1  0
 27 18  1  0
 26 21  1  0
  1 28  1  0
  1 29  1  0
  1 30  1  0
  4 31  1  0
  5 32  1  0
  6 33  1  0
  7 34  1  0
  9 35  1  1
 10 36  1  0
 10 37  1  0
 10 38  1  0
 11 39  1  0
 14 40  1  0
 14 41  1  0
 15 42  1  0
 19 43  1  0
 20 44  1  0
 22 45  1  0
 23 46  1  0
 24 47  1  0
 25 48  1  0
M  END
>  <smiles>  (43) 
COc1ccccc1[C@H](C)NC(=O)CNC(=O)c1ccc2ccccc2n1

>  <score_type>  (43) 
oracle

>  <origin>  (43) 
autodockgpu

>  <m_score__min__energy>  (43) 
-8.5299999999999994

>  <m_primary>  (43) 
energy

>  <rmsd>  (43) 
3.308224760848626

>  <m_score__min__rmsd>  (43) 
3.308224760848626

>  <meeko>  (43) 
{"free_energy": -8.24, "intermolecular_energy": -10.03, "internal_energy": -0.99, "cluster_size": 28, "cluster_id": 1, "rank_in_cluster": 4}

>  <energy>  (43) 
-7.39

>  <cluster_rmsd>  (43) 
0.37

>  <cluster>  (43) 
4

$$$$

     RDKit          3D

 48 50  0  0  0  0  0  0  0  0999 V2000
  141.9050   71.1950  218.4650 C   0  0  0  0  0  0  0  0  0  0  0  0
  142.2090   71.6460  219.7690 O   0  0  0  0  0  0  0  0  0  0  0  0
  143.2710   72.5090  220.0430 C   0  0  0  0  0  0  0  0  0  0  0  0
  144.5430   71.9330  220.1190 C   0  0  0  0  0  0  0  0  0  0  0  0
  145.6090   72.7700  220.3900 C   0  0  0  0  0  0  0  0  0  0  0  0
  145.4280   74.1300  220.5800 C   0  0  0  0  0  0  0  0  0  0  0  0
  144.1430   74.6460  220.4920 C   0  0  0  0  0  0  0  0  0  0  0  0
  143.0540   73.8490  220.2250 C   0  0  0  0  0  0  0  0  0  0  0  0
  141.6610   74.3770  220.1260 C   0  0  2  0  0  0  0  0  0  0  0  0
  141.5750   75.5970  221.0220 C   0  0  0  0  0  0  0  0  0  0  0  0
  140.6730   73.4280  220.6180 N   0  0  0  0  0  0  0  0  0  0  0  0
  139.3310   73.7900  220.8750 C   0  0  0  0  0  0  0  0  0  0  0  0
  138.9560   74.9750  220.6780 O   0  0  0  0  0  0  0  0  0  0  0  0
  138.4180   72.7330  221.3750 C   0  0  0  0  0  0  0  0  0  0  0  0
  138.7450   72.2610  222.6830 N   0  0  0  0  0  0  0  0  0  0  0  0
  139.9160   71.5050  222.9660 C   0  0  0  0  0  0  0  0  0  0  0  0
  140.7030   71.2400  222.0080 O   0  0  0  0  0  0  0  0  0  0  0  0
  140.1990   71.0460  224.3400 C   0  0  0  0  0  0  0  0  0  0  0  0
  140.9460   71.8750  225.1520 C   0  0  0  0  0  0  0  0  0  0  0  0
  141.2150   71.4590  226.4300 C   0  0  0  0  0  0  0  0  0  0  0  0
  140.7430   70.2270  226.8880 C   0  0  0  0  0  0  0  0  0  0  0  0
  141.0000   69.7850  228.1670 C   0  0  0  0  0  0  0  0  0  0  0  0
  140.4910   68.5390  228.5440 C   0  0  0  0  0  0  0  0  0  0  0  0
  139.7530   67.7780  227.6610 C   0  0  0  0  0  0  0  0  0  0  0  0
  139.4950   68.2310  226.3640 C   0  0  0  0  0  0  0  0  0  0  0  0
  140.0070   69.4720  225.9990 C   0  0  0  0  0  0  0  0  0  0  0  0
  139.7370   69.8730  224.7420 N   0  0  0  0  0  0  0  0  0  0  0  0
  141.2911   70.2843  218.5258 H   0  0  0  0  0  0  0  0  0  0  0  0
  141.3488   71.9768  217.9270 H   0  0  0  0  0  0  0  0  0  0  0  0
  142.8384   70.9728  217.9270 H   0  0  0  0  0  0  0  0  0  0  0  0
  144.6898   70.8533  219.9686 H   0  0  0  0  0  0  0  0  0  0  0  0
  146.6223   72.3472  220.4562 H   0  0  0  0  0  0  0  0  0  0  0  0
  146.2839   74.7864  220.7959 H   0  0  0  0  0  0  0  0  0  0  0  0
  143.9904   75.7252  220.6403 H   0  0  0  0  0  0  0  0  0  0  0  0
  141.4509   74.5907  219.0676 H   0  0  0  0  0  0  0  0  0  0  0  0
  141.5973   75.2807  222.0753 H   0  0  0  0  0  0  0  0  0  0  0  0
  142.4286   76.2609  220.8204 H   0  0  0  0  0  0  0  0  0  0  0  0
  140.6367   76.1346  220.8204 H   0  0  0  0  0  0  0  0  0  0  0  0
  141.0020   72.4510  220.7760 H   0  0  0  0  0  0  0  0  0  0  0  0
  137.3962   73.1397  221.3983 H   0  0  0  0  0  0  0  0  0  0  0  0
  138.5144   71.8764  220.6916 H   0  0  0  0  0  0  0  0  0  0  0  0
  138.1230   72.4530  223.5250 H   0  0  0  0  0  0  0  0  0  0  0  0
  141.3155   72.8434  224.7836 H   0  0  0  0  0  0  0  0  0  0  0  0
  141.8069   72.1002  227.0997 H   0  0  0  0  0  0  0  0  0  0  0  0
  141.5876   70.3937  228.8700 H   0  0  0  0  0  0  0  0  0  0  0  0
  140.6815   68.1599  229.5589 H   0  0  0  0  0  0  0  0  0  0  0  0
  139.3622   66.8012  227.9821 H   0  0  0  0  0  0  0  0  0  0  0  0
  138.9076   67.6273  225.6566 H   0  0  0  0  0  0  0  0  0  0  0  0
  1  2  1  0
  2  3  1  0
  3  4  2  0
  4  5  1  0
  5  6  2  0
  6  7  1  0
  7  8  2  0
  8  9  1  0
  9 10  1  0
  9 11  1  0
 11 12  1  0
 12 13  2  0
 12 14  1  0
 14 15  1  0
 15 16  1  0
 16 17  2  0
 16 18  1  0
 18 19  2  0
 19 20  1  0
 20 21  2  0
 21 22  1  0
 22 23  2  0
 23 24  1  0
 24 25  2  0
 25 26  1  0
 26 27  2  0
  8  3  1  0
 27 18  1  0
 26 21  1  0
  1 28  1  0
  1 29  1  0
  1 30  1  0
  4 31  1  0
  5 32  1  0
  6 33  1  0
  7 34  1  0
  9 35  1  6
 10 36  1  0
 10 37  1  0
 10 38  1  0
 11 39  1  0
 14 40  1  0
 14 41  1  0
 15 42  1  0
 19 43  1  0
 20 44  1  0
 22 45  1  0
 23 46  1  0
 24 47  1  0
 25 48  1  0
M  END
>  <smiles>  (44) 
COc1ccccc1[C@H](C)NC(=O)CNC(=O)c1ccc2ccccc2n1

>  <score_type>  (44) 
oracle

>  <origin>  (44) 
autodockgpu

>  <m_score__min__energy>  (44) 
-8.5299999999999994

>  <m_primary>  (44) 
energy

>  <rmsd>  (44) 
6.244609346102081

>  <m_score__min__rmsd>  (44) 
6.244609346102081

>  <meeko>  (44) 
{"free_energy": -6.99, "intermolecular_energy": -8.78, "internal_energy": -2.28, "cluster_size": 7, "cluster_id": 3, "rank_in_cluster": 5}

>  <energy>  (44) 
-7.38

>  <cluster_rmsd>  (44) 
0.48

>  <cluster>  (44) 
4

$$$$

     RDKit          3D

 48 50  0  0  0  0  0  0  0  0999 V2000
  141.2890   72.2770  227.0690 C   0  0  0  0  0  0  0  0  0  0  0  0
  140.4550   71.5240  226.2120 O   0  0  0  0  0  0  0  0  0  0  0  0
  140.2890   70.1450  226.3380 C   0  0  0  0  0  0  0  0  0  0  0  0
  141.1010   69.4990  227.2760 C   0  0  0  0  0  0  0  0  0  0  0  0
  140.9540   68.1320  227.4170 C   0  0  0  0  0  0  0  0  0  0  0  0
  140.0350   67.4240  226.6590 C   0  0  0  0  0  0  0  0  0  0  0  0
  139.2550   68.1180  225.7450 C   0  0  0  0  0  0  0  0  0  0  0  0
  139.3700   69.4780  225.5730 C   0  0  0  0  0  0  0  0  0  0  0  0
  138.5440   70.2490  224.5970 C   0  0  2  0  0  0  0  0  0  0  0  0
  137.9280   69.2500  223.6370 C   0  0  0  0  0  0  0  0  0  0  0  0
  139.3460   71.1610  223.7930 N   0  0  0  0  0  0  0  0  0  0  0  0
  138.8020   71.9160  222.7280 C   0  0  0  0  0  0  0  0  0  0  0  0
  137.5800   71.8100  222.4490 O   0  0  0  0  0  0  0  0  0  0  0  0
  139.7210   72.8110  221.9820 C   0  0  0  0  0  0  0  0  0  0  0  0
  139.6070   74.1870  222.3460 N   0  0  0  0  0  0  0  0  0  0  0  0
  140.5090   75.1880  221.8930 C   0  0  0  0  0  0  0  0  0  0  0  0
  141.4590   74.8370  221.1300 O   0  0  0  0  0  0  0  0  0  0  0  0
  140.3380   76.5960  222.3050 C   0  0  0  0  0  0  0  0  0  0  0  0
  139.0500   77.0740  222.4320 C   0  0  0  0  0  0  0  0  0  0  0  0
  138.8790   78.3800  222.8130 C   0  0  0  0  0  0  0  0  0  0  0  0
  139.9850   79.1960  223.0630 C   0  0  0  0  0  0  0  0  0  0  0  0
  139.8410   80.5100  223.4480 C   0  0  0  0  0  0  0  0  0  0  0  0
  141.0000   81.2560  223.6770 C   0  0  0  0  0  0  0  0  0  0  0  0
  142.2490   80.6900  223.5240 C   0  0  0  0  0  0  0  0  0  0  0  0
  142.3900   79.3560  223.1340 C   0  0  0  0  0  0  0  0  0  0  0  0
  141.2300   78.6220  222.9070 C   0  0  0  0  0  0  0  0  0  0  0  0
  141.4080   77.3410  222.5340 N   0  0  0  0  0  0  0  0  0  0  0  0
  141.0386   72.0509  228.1160 H   0  0  0  0  0  0  0  0  0  0  0  0
  142.3407   72.0165  226.8791 H   0  0  0  0  0  0  0  0  0  0  0  0
  141.1369   73.3497  226.8791 H   0  0  0  0  0  0  0  0  0  0  0  0
  141.8304   70.0589  227.8798 H   0  0  0  0  0  0  0  0  0  0  0  0
  141.5791   67.5951  228.1457 H   0  0  0  0  0  0  0  0  0  0  0  0
  139.9263   66.3360  226.7792 H   0  0  0  0  0  0  0  0  0  0  0  0
  138.5225   67.5639  225.1396 H   0  0  0  0  0  0  0  0  0  0  0  0
  137.8024   70.8327  225.1620 H   0  0  0  0  0  0  0  0  0  0  0  0
  137.4344   68.4495  224.2076 H   0  0  0  0  0  0  0  0  0  0  0  0
  137.1869   69.7593  223.0035 H   0  0  0  0  0  0  0  0  0  0  0  0
  138.7158   68.8165  223.0035 H   0  0  0  0  0  0  0  0  0  0  0  0
  140.3560   71.2360  224.0400 H   0  0  0  0  0  0  0  0  0  0  0  0
  140.7540   72.4858  222.1745 H   0  0  0  0  0  0  0  0  0  0  0  0
  139.4475   72.7371  220.9191 H   0  0  0  0  0  0  0  0  0  0  0  0
  138.8310   74.5410  222.9830 H   0  0  0  0  0  0  0  0  0  0  0  0
  138.1842   76.4253  222.2331 H   0  0  0  0  0  0  0  0  0  0  0  0
  137.8635   78.7882  222.9226 H   0  0  0  0  0  0  0  0  0  0  0  0
  138.8443   80.9587  223.5715 H   0  0  0  0  0  0  0  0  0  0  0  0
  140.9155   82.3091  223.9835 H   0  0  0  0  0  0  0  0  0  0  0  0
  143.1464   81.2978  223.7118 H   0  0  0  0  0  0  0  0  0  0  0  0
  143.3841   78.9015  223.0106 H   0  0  0  0  0  0  0  0  0  0  0  0
  1  2  1  0
  2  3  1  0
  3  4  2  0
  4  5  1  0
  5  6  2  0
  6  7  1  0
  7  8  2  0
  8  9  1  0
  9 10  1  0
  9 11  1  0
 11 12  1  0
 12 13  2  0
 12 14  1  0
 14 15  1  0
 15 16  1  0
 16 17  2  0
 16 18  1  0
 18 19  2  0
 19 20  1  0
 20 21  2  0
 21 22  1  0
 22 23  2  0
 23 24  1  0
 24 25  2  0
 25 26  1  0
 26 27  2  0
  8  3  1  0
 27 18  1  0
 26 21  1  0
  1 28  1  0
  1 29  1  0
  1 30  1  0
  4 31  1  0
  5 32  1  0
  6 33  1  0
  7 34  1  0
  9 35  1  1
 10 36  1  0
 10 37  1  0
 10 38  1  0
 11 39  1  0
 14 40  1  0
 14 41  1  0
 15 42  1  0
 19 43  1  0
 20 44  1  0
 22 45  1  0
 23 46  1  0
 24 47  1  0
 25 48  1  0
M  END
>  <smiles>  (45) 
COc1ccccc1[C@H](C)NC(=O)CNC(=O)c1ccc2ccccc2n1

>  <score_type>  (45) 
oracle

>  <origin>  (45) 
autodockgpu

>  <m_score__min__energy>  (45) 
-8.5299999999999994

>  <m_primary>  (45) 
energy

>  <rmsd>  (45) 
10.727926831080143

>  <m_score__min__rmsd>  (45) 
10.727926831080143

>  <meeko>  (45) 
{"free_energy": -8.26, "intermolecular_energy": -10.05, "internal_energy": -1.41, "cluster_size": 2, "cluster_id": 2, "rank_in_cluster": 1}

>  <energy>  (45) 
-7.35

>  <cluster_rmsd>  (45) 
0.42

>  <cluster>  (45) 
4

$$$$

     RDKit          3D

 48 50  0  0  0  0  0  0  0  0999 V2000
  141.6300   70.3630  219.4280 C   0  0  0  0  0  0  0  0  0  0  0  0
  141.5970   71.7050  219.8680 O   0  0  0  0  0  0  0  0  0  0  0  0
  142.7490   72.4290  220.1760 C   0  0  0  0  0  0  0  0  0  0  0  0
  143.9530   71.7170  220.1830 C   0  0  0  0  0  0  0  0  0  0  0  0
  145.1070   72.4150  220.4840 C   0  0  0  0  0  0  0  0  0  0  0  0
  145.0760   73.7710  220.7710 C   0  0  0  0  0  0  0  0  0  0  0  0
  143.8530   74.4250  220.7470 C   0  0  0  0  0  0  0  0  0  0  0  0
  142.6810   73.7680  220.4520 C   0  0  0  0  0  0  0  0  0  0  0  0
  141.3510   74.4460  220.4210 C   0  0  2  0  0  0  0  0  0  0  0  0
  141.4030   75.5890  221.4160 C   0  0  0  0  0  0  0  0  0  0  0  0
  140.2720   73.5680  220.8490 N   0  0  0  0  0  0  0  0  0  0  0  0
  138.9620   74.0380  221.1000 C   0  0  0  0  0  0  0  0  0  0  0  0
  138.6980   75.2590  220.9520 O   0  0  0  0  0  0  0  0  0  0  0  0
  137.9470   73.0450  221.5320 C   0  0  0  0  0  0  0  0  0  0  0  0
  138.3070   72.3320  222.7160 N   0  0  0  0  0  0  0  0  0  0  0  0
  139.1140   71.1610  222.7030 C   0  0  0  0  0  0  0  0  0  0  0  0
  139.5300   70.7330  221.5840 O   0  0  0  0  0  0  0  0  0  0  0  0
  139.4520   70.4680  223.9610 C   0  0  0  0  0  0  0  0  0  0  0  0
  139.2290   69.1080  224.0240 C   0  0  0  0  0  0  0  0  0  0  0  0
  139.5390   68.4540  225.1880 C   0  0  0  0  0  0  0  0  0  0  0  0
  140.0670   69.1550  226.2760 C   0  0  0  0  0  0  0  0  0  0  0  0
  140.3870   68.5220  227.4560 C   0  0  0  0  0  0  0  0  0  0  0  0
  140.9090   69.2990  228.4940 C   0  0  0  0  0  0  0  0  0  0  0  0
  141.0980   70.6560  228.3390 C   0  0  0  0  0  0  0  0  0  0  0  0
  140.7720   71.2940  227.1390 C   0  0  0  0  0  0  0  0  0  0  0  0
  140.2510   70.5120  226.1120 C   0  0  0  0  0  0  0  0  0  0  0  0
  139.9500   71.1620  224.9720 N   0  0  0  0  0  0  0  0  0  0  0  0
  141.6465   69.6918  220.2993 H   0  0  0  0  0  0  0  0  0  0  0  0
  140.7367   70.1541  218.8210 H   0  0  0  0  0  0  0  0  0  0  0  0
  142.5325   70.1982  218.8210 H   0  0  0  0  0  0  0  0  0  0  0  0
  143.9802   70.6408  219.9572 H   0  0  0  0  0  0  0  0  0  0  0  0
  146.0701   71.8838  220.4961 H   0  0  0  0  0  0  0  0  0  0  0  0
  146.0005   74.3160  221.0123 H   0  0  0  0  0  0  0  0  0  0  0  0
  143.8193   75.5015  220.9706 H   0  0  0  0  0  0  0  0  0  0  0  0
  141.1556   74.7690  219.3878 H   0  0  0  0  0  0  0  0  0  0  0  0
  141.3846   75.1856  222.4392 H   0  0  0  0  0  0  0  0  0  0  0  0
  142.3283   76.1645  221.2653 H   0  0  0  0  0  0  0  0  0  0  0  0
  140.5338   76.2461  221.2653 H   0  0  0  0  0  0  0  0  0  0  0  0
  140.5090   72.5600  220.9660 H   0  0  0  0  0  0  0  0  0  0  0  0
  137.0014   73.5746  221.7199 H   0  0  0  0  0  0  0  0  0  0  0  0
  137.8601   72.3030  220.7246 H   0  0  0  0  0  0  0  0  0  0  0  0
  137.9880   72.6440  223.6820 H   0  0  0  0  0  0  0  0  0  0  0  0
  138.8137   68.5632  223.1634 H   0  0  0  0  0  0  0  0  0  0  0  0
  139.3711   67.3697  225.2665 H   0  0  0  0  0  0  0  0  0  0  0  0
  140.2366   67.4392  227.5780 H   0  0  0  0  0  0  0  0  0  0  0  0
  141.1730   68.8208  229.4488 H   0  0  0  0  0  0  0  0  0  0  0  0
  141.5111   71.2446  229.1714 H   0  0  0  0  0  0  0  0  0  0  0  0
  140.9219   72.3762  227.0106 H   0  0  0  0  0  0  0  0  0  0  0  0
  1  2  1  0
  2  3  1  0
  3  4  2  0
  4  5  1  0
  5  6  2  0
  6  7  1  0
  7  8  2  0
  8  9  1  0
  9 10  1  0
  9 11  1  0
 11 12  1  0
 12 13  2  0
 12 14  1  0
 14 15  1  0
 15 16  1  0
 16 17  2  0
 16 18  1  0
 18 19  2  0
 19 20  1  0
 20 21  2  0
 21 22  1  0
 22 23  2  0
 23 24  1  0
 24 25  2  0
 25 26  1  0
 26 27  2  0
  8  3  1  0
 27 18  1  0
 26 21  1  0
  1 28  1  0
  1 29  1  0
  1 30  1  0
  4 31  1  0
  5 32  1  0
  6 33  1  0
  7 34  1  0
  9 35  1  6
 10 36  1  0
 10 37  1  0
 10 38  1  0
 11 39  1  0
 14 40  1  0
 14 41  1  0
 15 42  1  0
 19 43  1  0
 20 44  1  0
 22 45  1  0
 23 46  1  0
 24 47  1  0
 25 48  1  0
M  END
>  <smiles>  (46) 
COc1ccccc1[C@H](C)NC(=O)CNC(=O)c1ccc2ccccc2n1

>  <score_type>  (46) 
oracle

>  <origin>  (46) 
autodockgpu

>  <m_score__min__energy>  (46) 
-8.5299999999999994

>  <m_primary>  (46) 
energy

>  <rmsd>  (46) 
6.448561874533227

>  <m_score__min__rmsd>  (46) 
6.448561874533227

>  <meeko>  (46) 
{"free_energy": -6.73, "intermolecular_energy": -8.52, "internal_energy": -2.46, "cluster_size": 7, "cluster_id": 3, "rank_in_cluster": 7}

>  <energy>  (46) 
-7.0

>  <cluster_rmsd>  (46) 
0.0

>  <cluster>  (46) 
5

$$$$

     RDKit          3D

 48 50  0  0  0  0  0  0  0  0999 V2000
  137.1020   77.6920  222.6250 C   0  0  0  0  0  0  0  0  0  0  0  0
  138.3500   77.5190  221.9860 O   0  0  0  0  0  0  0  0  0  0  0  0
  139.5060   78.1880  222.3890 C   0  0  0  0  0  0  0  0  0  0  0  0
  139.3640   79.1090  223.4330 C   0  0  0  0  0  0  0  0  0  0  0  0
  140.4970   79.7830  223.8490 C   0  0  0  0  0  0  0  0  0  0  0  0
  141.7290   79.5590  223.2550 C   0  0  0  0  0  0  0  0  0  0  0  0
  141.8090   78.6330  222.2250 C   0  0  0  0  0  0  0  0  0  0  0  0
  140.7070   77.9400  221.7800 C   0  0  0  0  0  0  0  0  0  0  0  0
  140.7640   76.9390  220.6740 C   0  0  2  0  0  0  0  0  0  0  0  0
  140.3110   77.6400  219.4070 C   0  0  0  0  0  0  0  0  0  0  0  0
  139.8480   75.8270  220.8860 N   0  0  0  0  0  0  0  0  0  0  0  0
  140.2420   74.6250  221.5180 C   0  0  0  0  0  0  0  0  0  0  0  0
  141.4270   74.4920  221.9200 O   0  0  0  0  0  0  0  0  0  0  0  0
  139.2170   73.5640  221.6750 C   0  0  0  0  0  0  0  0  0  0  0  0
  139.4620   72.6860  222.7750 N   0  0  0  0  0  0  0  0  0  0  0  0
  139.0200   71.3340  222.8030 C   0  0  0  0  0  0  0  0  0  0  0  0
  138.3790   70.8930  221.8020 O   0  0  0  0  0  0  0  0  0  0  0  0
  139.3050   70.4750  223.9690 C   0  0  0  0  0  0  0  0  0  0  0  0
  138.9400   69.1460  223.8910 C   0  0  0  0  0  0  0  0  0  0  0  0
  139.1990   68.3390  224.9680 C   0  0  0  0  0  0  0  0  0  0  0  0
  139.8160   68.8570  226.1100 C   0  0  0  0  0  0  0  0  0  0  0  0
  140.0880   68.0690  227.2050 C   0  0  0  0  0  0  0  0  0  0  0  0
  140.7060   68.6680  228.3060 C   0  0  0  0  0  0  0  0  0  0  0  0
  141.0350   70.0070  228.2930 C   0  0  0  0  0  0  0  0  0  0  0  0
  140.7570   70.8040  227.1780 C   0  0  0  0  0  0  0  0  0  0  0  0
  140.1400   70.1980  226.0880 C   0  0  0  0  0  0  0  0  0  0  0  0
  139.8900   70.9980  225.0350 N   0  0  0  0  0  0  0  0  0  0  0  0
  137.2428   77.6725  223.7158 H   0  0  0  0  0  0  0  0  0  0  0  0
  136.6691   78.6587  222.3284 H   0  0  0  0  0  0  0  0  0  0  0  0
  136.4224   76.8795  222.3284 H   0  0  0  0  0  0  0  0  0  0  0  0
  138.3871   79.2899  223.9051 H   0  0  0  0  0  0  0  0  0  0  0  0
  140.4191   80.5124  224.6687 H   0  0  0  0  0  0  0  0  0  0  0  0
  142.6233   80.1032  223.5926 H   0  0  0  0  0  0  0  0  0  0  0  0
  142.7834   78.4472  221.7496 H   0  0  0  0  0  0  0  0  0  0  0  0
  141.7903   76.5469  220.6194 H   0  0  0  0  0  0  0  0  0  0  0  0
  139.7315   78.5368  219.6713 H   0  0  0  0  0  0  0  0  0  0  0  0
  141.1909   77.9332  218.8155 H   0  0  0  0  0  0  0  0  0  0  0  0
  139.6822   76.9582  218.8155 H   0  0  0  0  0  0  0  0  0  0  0  0
  138.8710   75.9560  220.5460 H   0  0  0  0  0  0  0  0  0  0  0  0
  138.2395   74.0453  221.8261 H   0  0  0  0  0  0  0  0  0  0  0  0
  139.2469   72.9511  220.7621 H   0  0  0  0  0  0  0  0  0  0  0  0
  139.9950   73.0000  223.6410 H   0  0  0  0  0  0  0  0  0  0  0  0
  138.4544   68.7455  222.9889 H   0  0  0  0  0  0  0  0  0  0  0  0
  138.9192   67.2757  224.9333 H   0  0  0  0  0  0  0  0  0  0  0  0
  139.8270   67.0005  227.2133 H   0  0  0  0  0  0  0  0  0  0  0  0
  140.9333   68.0626  229.1958 H   0  0  0  0  0  0  0  0  0  0  0  0
  141.5228   70.4544  229.1716 H   0  0  0  0  0  0  0  0  0  0  0  0
  141.0171   71.8727  227.1632 H   0  0  0  0  0  0  0  0  0  0  0  0
  1  2  1  0
  2  3  1  0
  3  4  2  0
  4  5  1  0
  5  6  2  0
  6  7  1  0
  7  8  2  0
  8  9  1  0
  9 10  1  0
  9 11  1  0
 11 12  1  0
 12 13  2  0
 12 14  1  0
 14 15  1  0
 15 16  1  0
 16 17  2  0
 16 18  1  0
 18 19  2  0
 19 20  1  0
 20 21  2  0
 21 22  1  0
 22 23  2  0
 23 24  1  0
 24 25  2  0
 25 26  1  0
 26 27  2  0
  8  3  1  0
 27 18  1  0
 26 21  1  0
  1 28  1  0
  1 29  1  0
  1 30  1  0
  4 31  1  0
  5 32  1  0
  6 33  1  0
  7 34  1  0
  9 35  1  6
 10 36  1  0
 10 37  1  0
 10 38  1  0
 11 39  1  0
 14 40  1  0
 14 41  1  0
 15 42  1  0
 19 43  1  0
 20 44  1  0
 22 45  1  0
 23 46  1  0
 24 47  1  0
 25 48  1  0
M  END
>  <smiles>  (47) 
COc1ccccc1[C@H](C)NC(=O)CNC(=O)c1ccc2ccccc2n1

>  <score_type>  (47) 
oracle

>  <origin>  (47) 
autodockgpu

>  <m_score__min__energy>  (47) 
-8.5299999999999994

>  <m_primary>  (47) 
energy

>  <rmsd>  (47) 
4.375789908414441

>  <m_score__min__rmsd>  (47) 
4.375789908414441

>  <meeko>  (47) 
{"free_energy": -7.41, "intermolecular_energy": -9.2, "internal_energy": -1.96, "cluster_size": 28, "cluster_id": 1, "rank_in_cluster": 26}

>  <energy>  (47) 
-7.0

>  <cluster_rmsd>  (47) 
0.15

>  <cluster>  (47) 
5

$$$$

     RDKit          3D

 48 50  0  0  0  0  0  0  0  0999 V2000
  137.9470   77.3290  222.6790 C   0  0  0  0  0  0  0  0  0  0  0  0
  138.7760   78.1190  221.8510 O   0  0  0  0  0  0  0  0  0  0  0  0
  139.9470   78.7240  222.3100 C   0  0  0  0  0  0  0  0  0  0  0  0
  139.8170   79.5980  223.3940 C   0  0  0  0  0  0  0  0  0  0  0  0
  140.9640   80.2080  223.8650 C   0  0  0  0  0  0  0  0  0  0  0  0
  142.1990   79.9670  223.2850 C   0  0  0  0  0  0  0  0  0  0  0  0
  142.2670   79.0890  222.2120 C   0  0  0  0  0  0  0  0  0  0  0  0
  141.1510   78.4600  221.7130 C   0  0  0  0  0  0  0  0  0  0  0  0
  141.1950   77.5130  220.5600 C   0  0  2  0  0  0  0  0  0  0  0  0
  140.7800   78.2860  219.3240 C   0  0  0  0  0  0  0  0  0  0  0  0
  140.2450   76.4190  220.7060 N   0  0  0  0  0  0  0  0  0  0  0  0
  140.6170   75.1480  221.2010 C   0  0  0  0  0  0  0  0  0  0  0  0
  141.8110   74.9330  221.5340 O   0  0  0  0  0  0  0  0  0  0  0  0
  139.5580   74.1130  221.3030 C   0  0  0  0  0  0  0  0  0  0  0  0
  139.6390   73.3220  222.4890 N   0  0  0  0  0  0  0  0  0  0  0  0
  139.7980   71.9080  222.4700 C   0  0  0  0  0  0  0  0  0  0  0  0
  139.8720   71.3290  221.3440 O   0  0  0  0  0  0  0  0  0  0  0  0
  139.8760   71.1450  223.7310 C   0  0  0  0  0  0  0  0  0  0  0  0
  139.4690   69.8260  223.7080 C   0  0  0  0  0  0  0  0  0  0  0  0
  139.5360   69.1070  224.8730 C   0  0  0  0  0  0  0  0  0  0  0  0
  140.0050   69.7020  226.0470 C   0  0  0  0  0  0  0  0  0  0  0  0
  140.0830   69.0030  227.2300 C   0  0  0  0  0  0  0  0  0  0  0  0
  140.5630   69.6750  228.3580 C   0  0  0  0  0  0  0  0  0  0  0  0
  140.9470   70.9980  228.2850 C   0  0  0  0  0  0  0  0  0  0  0  0
  140.8670   71.7040  227.0810 C   0  0  0  0  0  0  0  0  0  0  0  0
  140.3860   71.0260  225.9650 C   0  0  0  0  0  0  0  0  0  0  0  0
  140.3250   71.7390  224.8250 N   0  0  0  0  0  0  0  0  0  0  0  0
  138.1718   77.5432  223.7343 H   0  0  0  0  0  0  0  0  0  0  0  0
  136.8923   77.5646  222.4736 H   0  0  0  0  0  0  0  0  0  0  0  0
  138.1316   76.2642  222.4736 H   0  0  0  0  0  0  0  0  0  0  0  0
  138.8374   79.7928  223.8549 H   0  0  0  0  0  0  0  0  0  0  0  0
  140.8951   80.8991  224.7180 H   0  0  0  0  0  0  0  0  0  0  0  0
  143.1052   80.4604  223.6663 H   0  0  0  0  0  0  0  0  0  0  0  0
  143.2438   78.8904  221.7467 H   0  0  0  0  0  0  0  0  0  0  0  0
  142.2107   77.0951  220.4992 H   0  0  0  0  0  0  0  0  0  0  0  0
  140.2796   79.2181  219.6253 H   0  0  0  0  0  0  0  0  0  0  0  0
  141.6709   78.5253  218.7249 H   0  0  0  0  0  0  0  0  0  0  0  0
  140.0883   77.6756  218.7249 H   0  0  0  0  0  0  0  0  0  0  0  0
  139.2600   76.6150  220.4260 H   0  0  0  0  0  0  0  0  0  0  0  0
  138.5794   74.6151  221.2869 H   0  0  0  0  0  0  0  0  0  0  0  0
  139.6941   73.4298  220.4517 H   0  0  0  0  0  0  0  0  0  0  0  0
  139.5840   73.7520  223.4610 H   0  0  0  0  0  0  0  0  0  0  0  0
  139.1009   69.3645  222.7798 H   0  0  0  0  0  0  0  0  0  0  0  0
  139.2182   68.0540  224.8838 H   0  0  0  0  0  0  0  0  0  0  0  0
  139.7770   67.9479  227.2862 H   0  0  0  0  0  0  0  0  0  0  0  0
  140.6355   69.1414  229.3172 H   0  0  0  0  0  0  0  0  0  0  0  0
  141.3214   71.5045  229.1868 H   0  0  0  0  0  0  0  0  0  0  0  0
  141.1735   72.7585  227.0180 H   0  0  0  0  0  0  0  0  0  0  0  0
  1  2  1  0
  2  3  1  0
  3  4  2  0
  4  5  1  0
  5  6  2  0
  6  7  1  0
  7  8  2  0
  8  9  1  0
  9 10  1  0
  9 11  1  0
 11 12  1  0
 12 13  2  0
 12 14  1  0
 14 15  1  0
 15 16  1  0
 16 17  2  0
 16 18  1  0
 18 19  2  0
 19 20  1  0
 20 21  2  0
 21 22  1  0
 22 23  2  0
 23 24  1  0
 24 25  2  0
 25 26  1  0
 26 27  2  0
  8  3  1  0
 27 18  1  0
 26 21  1  0
  1 28  1  0
  1 29  1  0
  1 30  1  0
  4 31  1  0
  5 32  1  0
  6 33  1  0
  7 34  1  0
  9 35  1  6
 10 36  1  0
 10 37  1  0
 10 38  1  0
 11 39  1  0
 14 40  1  0
 14 41  1  0
 15 42  1  0
 19 43  1  0
 20 44  1  0
 22 45  1  0
 23 46  1  0
 24 47  1  0
 25 48  1  0
M  END
>  <smiles>  (48) 
COc1ccccc1[C@H](C)NC(=O)CNC(=O)c1ccc2ccccc2n1

>  <score_type>  (48) 
oracle

>  <origin>  (48) 
autodockgpu

>  <m_score__min__energy>  (48) 
-8.5299999999999994

>  <m_primary>  (48) 
energy

>  <rmsd>  (48) 
4.103504429265525

>  <m_score__min__rmsd>  (48) 
4.103504429265525

>  <meeko>  (48) 
{"free_energy": -7.76, "intermolecular_energy": -9.55, "internal_energy": -1.79, "cluster_size": 28, "cluster_id": 1, "rank_in_cluster": 21}

>  <energy>  (48) 
-6.9

>  <cluster_rmsd>  (48) 
0.31

>  <cluster>  (48) 
5

$$$$

     RDKit          3D

 48 50  0  0  0  0  0  0  0  0999 V2000
  141.5260   75.7190  220.7550 C   0  0  0  0  0  0  0  0  0  0  0  0
  140.7080   75.8030  221.9040 O   0  0  0  0  0  0  0  0  0  0  0  0
  140.3070   77.0180  222.4610 C   0  0  0  0  0  0  0  0  0  0  0  0
  141.3240   77.8630  222.9160 C   0  0  0  0  0  0  0  0  0  0  0  0
  140.9500   79.0720  223.4710 C   0  0  0  0  0  0  0  0  0  0  0  0
  139.6170   79.4360  223.5750 C   0  0  0  0  0  0  0  0  0  0  0  0
  138.6510   78.5570  223.1050 C   0  0  0  0  0  0  0  0  0  0  0  0
  138.9800   77.3450  222.5460 C   0  0  0  0  0  0  0  0  0  0  0  0
  137.9630   76.3800  222.0340 C   0  0  2  0  0  0  0  0  0  0  0  0
  136.9400   76.1740  223.1340 C   0  0  0  0  0  0  0  0  0  0  0  0
  138.5360   75.0720  221.7470 N   0  0  0  0  0  0  0  0  0  0  0  0
  138.0780   74.2550  220.6880 C   0  0  0  0  0  0  0  0  0  0  0  0
  137.1390   74.6560  219.9520 O   0  0  0  0  0  0  0  0  0  0  0  0
  138.7410   72.9420  220.4960 C   0  0  0  0  0  0  0  0  0  0  0  0
  138.8010   72.1480  221.6830 N   0  0  0  0  0  0  0  0  0  0  0  0
  139.8110   72.3040  222.6710 C   0  0  0  0  0  0  0  0  0  0  0  0
  140.6980   73.1910  222.4860 O   0  0  0  0  0  0  0  0  0  0  0  0
  139.8190   71.4540  223.8780 C   0  0  0  0  0  0  0  0  0  0  0  0
  139.1650   70.2400  223.8100 C   0  0  0  0  0  0  0  0  0  0  0  0
  139.1650   69.4410  224.9240 C   0  0  0  0  0  0  0  0  0  0  0  0
  139.8120   69.8540  226.0920 C   0  0  0  0  0  0  0  0  0  0  0  0
  139.8280   69.0720  227.2240 C   0  0  0  0  0  0  0  0  0  0  0  0
  140.4970   69.5620  228.3490 C   0  0  0  0  0  0  0  0  0  0  0  0
  141.1230   70.7910  228.3230 C   0  0  0  0  0  0  0  0  0  0  0  0
  141.1050   71.5810  227.1710 C   0  0  0  0  0  0  0  0  0  0  0  0
  140.4350   71.0850  226.0570 C   0  0  0  0  0  0  0  0  0  0  0  0
  140.4400   71.8750  224.9670 N   0  0  0  0  0  0  0  0  0  0  0  0
  142.5772   75.6111  221.0604 H   0  0  0  0  0  0  0  0  0  0  0  0
  141.2271   74.8468  220.1550 H   0  0  0  0  0  0  0  0  0  0  0  0
  141.4106   76.6337  220.1550 H   0  0  0  0  0  0  0  0  0  0  0  0
  142.3828   77.5759  222.8351 H   0  0  0  0  0  0  0  0  0  0  0  0
  141.7264   79.7596  223.8377 H   0  0  0  0  0  0  0  0  0  0  0  0
  139.3307   80.4003  224.0202 H   0  0  0  0  0  0  0  0  0  0  0  0
  137.5905   78.8387  223.1821 H   0  0  0  0  0  0  0  0  0  0  0  0
  137.5375   76.7920  221.1071 H   0  0  0  0  0  0  0  0  0  0  0  0
  137.4302   76.2727  224.1138 H   0  0  0  0  0  0  0  0  0  0  0  0
  136.1465   76.9304  223.0431 H   0  0  0  0  0  0  0  0  0  0  0  0
  136.5011   75.1695  223.0431 H   0  0  0  0  0  0  0  0  0  0  0  0
  139.3120   74.7560  222.3670 H   0  0  0  0  0  0  0  0  0  0  0  0
  138.1844   72.3808  219.7309 H   0  0  0  0  0  0  0  0  0  0  0  0
  139.7788   73.1476  220.1948 H   0  0  0  0  0  0  0  0  0  0  0  0
  138.0840   71.3910  221.8920 H   0  0  0  0  0  0  0  0  0  0  0  0
  138.6577   69.9225  222.8870 H   0  0  0  0  0  0  0  0  0  0  0  0
  138.6522   68.4682  224.8984 H   0  0  0  0  0  0  0  0  0  0  0  0
  139.3297   68.0915  227.2429 H   0  0  0  0  0  0  0  0  0  0  0  0
  140.5248   68.9589  229.2685 H   0  0  0  0  0  0  0  0  0  0  0  0
  141.6434   71.1539  229.2216 H   0  0  0  0  0  0  0  0  0  0  0  0
  141.6033   72.5613  227.1455 H   0  0  0  0  0  0  0  0  0  0  0  0
  1  2  1  0
  2  3  1  0
  3  4  2  0
  4  5  1  0
  5  6  2  0
  6  7  1  0
  7  8  2  0
  8  9  1  0
  9 10  1  0
  9 11  1  0
 11 12  1  0
 12 13  2  0
 12 14  1  0
 14 15  1  0
 15 16  1  0
 16 17  2  0
 16 18  1  0
 18 19  2  0
 19 20  1  0
 20 21  2  0
 21 22  1  0
 22 23  2  0
 23 24  1  0
 24 25  2  0
 25 26  1  0
 26 27  2  0
  8  3  1  0
 27 18  1  0
 26 21  1  0
  1 28  1  0
  1 29  1  0
  1 30  1  0
  4 31  1  0
  5 32  1  0
  6 33  1  0
  7 34  1  0
  9 35  1  6
 10 36  1  0
 10 37  1  0
 10 38  1  0
 11 39  1  0
 14 40  1  0
 14 41  1  0
 15 42  1  0
 19 43  1  0
 20 44  1  0
 22 45  1  0
 23 46  1  0
 24 47  1  0
 25 48  1  0
M  END
>  <smiles>  (49) 
COc1ccccc1[C@H](C)NC(=O)CNC(=O)c1ccc2ccccc2n1

>  <score_type>  (49) 
oracle

>  <origin>  (49) 
autodockgpu

>  <m_score__min__energy>  (49) 
-8.5299999999999994

>  <m_primary>  (49) 
energy

>  <rmsd>  (49) 
4.956337416798375

>  <m_score__min__rmsd>  (49) 
4.956337416798375

>  <meeko>  (49) 
{"free_energy": -7.59, "intermolecular_energy": -9.38, "internal_energy": -2.03, "cluster_size": 28, "cluster_id": 1, "rank_in_cluster": 24}

>  <energy>  (49) 
-6.89

>  <cluster_rmsd>  (49) 
0.31

>  <cluster>  (49) 
5

$$$$

     RDKit          3D

 48 50  0  0  0  0  0  0  0  0999 V2000
  137.8240   77.8530  222.3000 C   0  0  0  0  0  0  0  0  0  0  0  0
  138.8950   78.4220  221.5750 O   0  0  0  0  0  0  0  0  0  0  0  0
  140.0290   78.9530  222.1910 C   0  0  0  0  0  0  0  0  0  0  0  0
  139.8090   79.8800  223.2150 C   0  0  0  0  0  0  0  0  0  0  0  0
  140.9180   80.4190  223.8390 C   0  0  0  0  0  0  0  0  0  0  0  0
  142.2020   80.0560  223.4660 C   0  0  0  0  0  0  0  0  0  0  0  0
  142.3590   79.1310  222.4440 C   0  0  0  0  0  0  0  0  0  0  0  0
  141.2830   78.5710  221.7970 C   0  0  0  0  0  0  0  0  0  0  0  0
  141.4230   77.5740  220.6940 C   0  0  2  0  0  0  0  0  0  0  0  0
  141.3290   78.3330  219.3850 C   0  0  0  0  0  0  0  0  0  0  0  0
  140.3410   76.5990  220.6890 N   0  0  0  0  0  0  0  0  0  0  0  0
  140.4390   75.3490  221.3440 C   0  0  0  0  0  0  0  0  0  0  0  0
  141.4950   75.0490  221.9600 O   0  0  0  0  0  0  0  0  0  0  0  0
  139.2700   74.4390  221.2670 C   0  0  0  0  0  0  0  0  0  0  0  0
  139.1900   73.5110  222.3500 N   0  0  0  0  0  0  0  0  0  0  0  0
  140.1390   72.4710  222.5530 C   0  0  0  0  0  0  0  0  0  0  0  0
  141.0990   72.3680  221.7310 O   0  0  0  0  0  0  0  0  0  0  0  0
  140.0030   71.5420  223.6920 C   0  0  0  0  0  0  0  0  0  0  0  0
  139.3070   70.3690  223.4820 C   0  0  0  0  0  0  0  0  0  0  0  0
  139.1740   69.4990  224.5330 C   0  0  0  0  0  0  0  0  0  0  0  0
  139.7300   69.8010  225.7780 C   0  0  0  0  0  0  0  0  0  0  0  0
  139.6110   68.9450  226.8500 C   0  0  0  0  0  0  0  0  0  0  0  0
  140.1970   69.3260  228.0600 C   0  0  0  0  0  0  0  0  0  0  0  0
  140.8750   70.5220  228.1750 C   0  0  0  0  0  0  0  0  0  0  0  0
  140.9930   71.3870  227.0850 C   0  0  0  0  0  0  0  0  0  0  0  0
  140.4050   71.0000  225.8850 C   0  0  0  0  0  0  0  0  0  0  0  0
  140.5420   71.8600  224.8580 N   0  0  0  0  0  0  0  0  0  0  0  0
  138.0160   77.9550  223.3783 H   0  0  0  0  0  0  0  0  0  0  0  0
  136.8897   78.3737  222.0431 H   0  0  0  0  0  0  0  0  0  0  0  0
  137.7325   76.7873  222.0431 H   0  0  0  0  0  0  0  0  0  0  0  0
  138.7904   80.1694  223.5128 H   0  0  0  0  0  0  0  0  0  0  0  0
  140.7785   81.1510  224.6482 H   0  0  0  0  0  0  0  0  0  0  0  0
  143.0778   80.4917  223.9692 H   0  0  0  0  0  0  0  0  0  0  0  0
  143.3751   78.8368  222.1423 H   0  0  0  0  0  0  0  0  0  0  0  0
  142.3774   77.0442  220.8302 H   0  0  0  0  0  0  0  0  0  0  0  0
  141.1962   79.4052  219.5916 H   0  0  0  0  0  0  0  0  0  0  0  0
  142.2526   78.1826  218.8068 H   0  0  0  0  0  0  0  0  0  0  0  0
  140.4700   77.9618  218.8068 H   0  0  0  0  0  0  0  0  0  0  0  0
  139.4750   76.8640  220.1740 H   0  0  0  0  0  0  0  0  0  0  0  0
  138.3548   75.0493  221.2648 H   0  0  0  0  0  0  0  0  0  0  0  0
  139.3839   73.8481  220.3462 H   0  0  0  0  0  0  0  0  0  0  0  0
  138.4080   73.5490  223.0700 H   0  0  0  0  0  0  0  0  0  0  0  0
  138.8711   70.1386  222.4987 H   0  0  0  0  0  0  0  0  0  0  0  0
  138.6251   68.5558  224.3947 H   0  0  0  0  0  0  0  0  0  0  0  0
  139.0714   67.9910  226.7568 H   0  0  0  0  0  0  0  0  0  0  0  0
  140.1165   68.6625  228.9337 H   0  0  0  0  0  0  0  0  0  0  0  0
  141.3288   70.7980  229.1383 H   0  0  0  0  0  0  0  0  0  0  0  0
  141.5324   72.3417  227.1723 H   0  0  0  0  0  0  0  0  0  0  0  0
  1  2  1  0
  2  3  1  0
  3  4  2  0
  4  5  1  0
  5  6  2  0
  6  7  1  0
  7  8  2  0
  8  9  1  0
  9 10  1  0
  9 11  1  0
 11 12  1  0
 12 13  2  0
 12 14  1  0
 14 15  1  0
 15 16  1  0
 16 17  2  0
 16 18  1  0
 18 19  2  0
 19 20  1  0
 20 21  2  0
 21 22  1  0
 22 23  2  0
 23 24  1  0
 24 25  2  0
 25 26  1  0
 26 27  2  0
  8  3  1  0
 27 18  1  0
 26 21  1  0
  1 28  1  0
  1 29  1  0
  1 30  1  0
  4 31  1  0
  5 32  1  0
  6 33  1  0
  7 34  1  0
  9 35  1  1
 10 36  1  0
 10 37  1  0
 10 38  1  0
 11 39  1  0
 14 40  1  0
 14 41  1  0
 15 42  1  0
 19 43  1  0
 20 44  1  0
 22 45  1  0
 23 46  1  0
 24 47  1  0
 25 48  1  0
M  END
>  <smiles>  (50) 
COc1ccccc1[C@H](C)NC(=O)CNC(=O)c1ccc2ccccc2n1

>  <score_type>  (50) 
oracle

>  <origin>  (50) 
autodockgpu

>  <m_score__min__energy>  (50) 
-8.5299999999999994

>  <m_primary>  (50) 
energy

>  <rmsd>  (50) 
3.9607059890660152

>  <m_score__min__rmsd>  (50) 
3.9607059890660152

>  <meeko>  (50) 
{"free_energy": -8.11, "intermolecular_energy": -9.9, "internal_energy": -1.5, "cluster_size": 28, "cluster_id": 1, "rank_in_cluster": 10}

>  <energy>  (50) 
-6.87

>  <cluster_rmsd>  (50) 
0.33

>  <cluster>  (50) 
5

$$$$
