
     RDKit          3D

 55 59  0  0  0  0  0  0  0  0999 V2000
  138.1350   76.0760  221.9490 O   0  0  0  0  0  0  0  0  0  0  0  0
  139.3600   76.3410  221.8840 C   0  0  0  0  0  0  0  0  0  0  0  0
  140.2660   75.4020  221.3200 N   0  0  0  0  0  0  0  0  0  0  0  0
  139.7730   74.1570  220.8270 C   0  0  0  0  0  0  0  0  0  0  0  0
  139.2110   73.2830  221.8880 C   0  0  0  0  0  0  0  0  0  0  0  0
  140.0440   72.8810  222.7680 O   0  0  0  0  0  0  0  0  0  0  0  0
  137.8510   72.9210  221.9190 N   0  0  0  0  0  0  0  0  0  0  0  0
  136.8270   73.5410  221.0610 C   0  0  0  0  0  0  0  0  0  0  0  0
  135.6530   72.5850  221.0850 C   0  0  0  0  0  0  0  0  0  0  0  0
  136.2270   71.3320  221.7070 C   0  0  0  0  0  0  0  0  0  0  0  0
  137.1990   71.9520  222.7240 C   0  0  1  0  0  0  0  0  0  0  0  0
  138.0870   70.8970  223.2880 C   0  0  0  0  0  0  0  0  0  0  0  0
  138.6060   69.7750  222.6820 C   0  0  0  0  0  0  0  0  0  0  0  0
  139.3640   69.1100  223.5980 N   0  0  0  0  0  0  0  0  0  0  0  0
  139.3240   69.7980  224.7550 C   0  0  0  0  0  0  0  0  0  0  0  0
  139.9770   69.4860  226.0300 C   0  0  0  0  0  0  0  0  0  0  0  0
  140.2250   68.1640  226.4140 C   0  0  0  0  0  0  0  0  0  0  0  0
  140.8400   67.8560  227.6110 C   0  0  0  0  0  0  0  0  0  0  0  0
  141.2140   68.8950  228.4430 C   0  0  0  0  0  0  0  0  0  0  0  0
  140.9760   70.2160  228.0820 C   0  0  0  0  0  0  0  0  0  0  0  0
  140.3580   70.5210  226.8740 C   0  0  0  0  0  0  0  0  0  0  0  0
  138.5550   70.8650  224.5510 N   0  0  0  0  0  0  0  0  0  0  0  0
  139.8650   77.6150  222.3890 C   0  0  0  0  0  0  0  0  0  0  0  0
  138.9760   78.5720  222.8430 C   0  0  0  0  0  0  0  0  0  0  0  0
  139.3800   79.7940  223.3300 C   0  0  0  0  0  0  0  0  0  0  0  0
  140.7230   80.0550  223.3610 C   0  0  0  0  0  0  0  0  0  0  0  0
  141.1420   81.2750  223.8480 C   0  0  0  0  0  0  0  0  0  0  0  0
  142.4980   81.5220  223.8700 C   0  0  0  0  0  0  0  0  0  0  0  0
  143.4200   80.5860  223.4230 C   0  0  0  0  0  0  0  0  0  0  0  0
  142.9800   79.3750  222.9430 C   0  0  0  0  0  0  0  0  0  0  0  0
  141.6250   79.1080  222.9100 C   0  0  0  0  0  0  0  0  0  0  0  0
  141.1770   77.9170  222.4380 N   0  0  0  0  0  0  0  0  0  0  0  0
  141.2870   75.6830  221.2930 H   0  0  0  0  0  0  0  0  0  0  0  0
  138.9829   74.3623  220.0897 H   0  0  0  0  0  0  0  0  0  0  0  0
  140.6264   73.6224  220.3843 H   0  0  0  0  0  0  0  0  0  0  0  0
  136.5326   74.5227  221.4604 H   0  0  0  0  0  0  0  0  0  0  0  0
  137.1965   73.7109  220.0390 H   0  0  0  0  0  0  0  0  0  0  0  0
  134.8320   72.9866  221.6971 H   0  0  0  0  0  0  0  0  0  0  0  0
  135.2247   72.4091  220.0872 H   0  0  0  0  0  0  0  0  0  0  0  0
  135.4501   70.7300  222.2010 H   0  0  0  0  0  0  0  0  0  0  0  0
  136.6896   70.6338  220.9939 H   0  0  0  0  0  0  0  0  0  0  0  0
  136.7521   72.4041  223.6217 H   0  0  0  0  0  0  0  0  0  0  0  0
  138.4378   69.4686  221.6390 H   0  0  0  0  0  0  0  0  0  0  0  0
  139.8880   68.2190  223.4320 H   0  0  0  0  0  0  0  0  0  0  0  0
  139.9214   67.3467  225.7433 H   0  0  0  0  0  0  0  0  0  0  0  0
  141.0277   66.8102  227.8957 H   0  0  0  0  0  0  0  0  0  0  0  0
  141.7056   68.6736  229.4018 H   0  0  0  0  0  0  0  0  0  0  0  0
  141.2795   71.0284  228.7586 H   0  0  0  0  0  0  0  0  0  0  0  0
  140.1735   71.5678  226.5909 H   0  0  0  0  0  0  0  0  0  0  0  0
  137.8997   78.3468  222.8136 H   0  0  0  0  0  0  0  0  0  0  0  0
  138.6483   80.5358  223.6824 H   0  0  0  0  0  0  0  0  0  0  0  0
  140.4204   82.0240  224.2060 H   0  0  0  0  0  0  0  0  0  0  0  0
  142.8594   82.4880  224.2525 H   0  0  0  0  0  0  0  0  0  0  0  0
  144.4962   80.8115  223.4525 H   0  0  0  0  0  0  0  0  0  0  0  0
  143.7015   78.6244  222.5879 H   0  0  0  0  0  0  0  0  0  0  0  0
  1  2  2  0
  2  3  1  0
  3  4  1  0
  4  5  1  0
  5  6  2  0
  5  7  1  0
  7  8  1  0
  8  9  1  0
  9 10  1  0
 10 11  1  0
 11 12  1  0
 12 13  2  0
 13 14  1  0
 14 15  1  0
 15 16  1  0
 16 17  2  0
 17 18  1  0
 18 19  2  0
 19 20  1  0
 20 21  2  0
 15 22  2  0
  2 23  1  0
 23 24  2  0
 24 25  1  0
 25 26  2  0
 26 27  1  0
 27 28  2  0
 28 29  1  0
 29 30  2  0
 30 31  1  0
 31 32  2  0
 11  7  1  0
 22 12  1  0
 32 23  1  0
 21 16  1  0
 31 26  1  0
  3 33  1  0
  4 34  1  0
  4 35  1  0
  8 36  1  0
  8 37  1  0
  9 38  1  0
  9 39  1  0
 10 40  1  0
 10 41  1  0
 11 42  1  1
 13 43  1  0
 14 44  1  0
 17 45  1  0
 18 46  1  0
 19 47  1  0
 20 48  1  0
 21 49  1  0
 24 50  1  0
 25 51  1  0
 27 52  1  0
 28 53  1  0
 29 54  1  0
 30 55  1  0
M  END
>  <smiles>  (1) 
O=C(NCC(=O)N1CCC[C@H]1c1c[nH]c(-c2ccccc2)n1)c1ccc2ccccc2n1

>  <score_type>  (1) 
oracle

>  <origin>  (1) 
autodockgpu

>  <m_score__min__energy>  (1) 
-9.75

>  <m_primary>  (1) 
energy

>  <rmsd>  (1) 
9.718621270853458

>  <m_score__min__rmsd>  (1) 
9.718621270853458

>  <meeko>  (1) 
{"free_energy": -8.69, "intermolecular_energy": -10.48, "internal_energy": -1.72, "cluster_size": 10, "cluster_id": 3, "rank_in_cluster": 7}

>  <energy>  (1) 
-9.75

>  <cluster_rmsd>  (1) 
0.0

>  <cluster>  (1) 
1

$$$$

     RDKit          3D

 55 59  0  0  0  0  0  0  0  0999 V2000
  138.7960   75.2590  222.1410 O   0  0  0  0  0  0  0  0  0  0  0  0
  139.9230   75.7830  221.9740 C   0  0  0  0  0  0  0  0  0  0  0  0
  140.9700   75.0460  221.3560 N   0  0  0  0  0  0  0  0  0  0  0  0
  140.7290   73.7070  220.9260 C   0  0  0  0  0  0  0  0  0  0  0  0
  141.8080   73.1600  220.0670 C   0  0  0  0  0  0  0  0  0  0  0  0
  141.4180   72.5630  219.0070 O   0  0  0  0  0  0  0  0  0  0  0  0
  143.1700   73.2890  220.3980 N   0  0  0  0  0  0  0  0  0  0  0  0
  143.9950   72.1700  220.8850 C   0  0  0  0  0  0  0  0  0  0  0  0
  145.4290   72.6140  220.6840 C   0  0  0  0  0  0  0  0  0  0  0  0
  145.3040   73.8320  219.7970 C   0  0  0  0  0  0  0  0  0  0  0  0
  144.0020   74.4360  220.3460 C   0  0  1  0  0  0  0  0  0  0  0  0
  143.5250   75.5230  219.4450 C   0  0  0  0  0  0  0  0  0  0  0  0
  143.4540   75.5510  218.0700 C   0  0  0  0  0  0  0  0  0  0  0  0
  142.9510   76.7590  217.6960 N   0  0  0  0  0  0  0  0  0  0  0  0
  142.7090   77.4770  218.8090 C   0  0  0  0  0  0  0  0  0  0  0  0
  142.1670   78.8350  218.9250 C   0  0  0  0  0  0  0  0  0  0  0  0
  142.7130   79.8980  218.1980 C   0  0  0  0  0  0  0  0  0  0  0  0
  142.2130   81.1800  218.2970 C   0  0  0  0  0  0  0  0  0  0  0  0
  141.1430   81.4050  219.1440 C   0  0  0  0  0  0  0  0  0  0  0  0
  140.5860   80.3630  219.8760 C   0  0  0  0  0  0  0  0  0  0  0  0
  141.0930   79.0720  219.7720 C   0  0  0  0  0  0  0  0  0  0  0  0
  143.0590   76.7210  219.8470 N   0  0  0  0  0  0  0  0  0  0  0  0
  140.1700   77.1540  222.4140 C   0  0  0  0  0  0  0  0  0  0  0  0
  139.1020   77.9800  222.7100 C   0  0  0  0  0  0  0  0  0  0  0  0
  139.2590   79.2820  223.1290 C   0  0  0  0  0  0  0  0  0  0  0  0
  140.5350   79.7610  223.2520 C   0  0  0  0  0  0  0  0  0  0  0  0
  140.7080   81.0630  223.6710 C   0  0  0  0  0  0  0  0  0  0  0  0
  142.0000   81.5300  223.7880 C   0  0  0  0  0  0  0  0  0  0  0  0
  143.0960   80.7310  223.4990 C   0  0  0  0  0  0  0  0  0  0  0  0
  142.9010   79.4340  223.0830 C   0  0  0  0  0  0  0  0  0  0  0  0
  141.6150   78.9470  222.9580 C   0  0  0  0  0  0  0  0  0  0  0  0
  141.4070   77.6700  222.5490 N   0  0  0  0  0  0  0  0  0  0  0  0
  141.8980   75.5430  221.2420 H   0  0  0  0  0  0  0  0  0  0  0  0
  140.6336   73.0671  221.8156 H   0  0  0  0  0  0  0  0  0  0  0  0
  139.8094   73.7206  220.3225 H   0  0  0  0  0  0  0  0  0  0  0  0
  143.7962   71.9797  221.9500 H   0  0  0  0  0  0  0  0  0  0  0  0
  143.7760   71.2350  220.3484 H   0  0  0  0  0  0  0  0  0  0  0  0
  145.8977   72.8743  221.6445 H   0  0  0  0  0  0  0  0  0  0  0  0
  146.0616   71.8287  220.2445 H   0  0  0  0  0  0  0  0  0  0  0  0
  146.1556   74.5168  219.9229 H   0  0  0  0  0  0  0  0  0  0  0  0
  145.2942   73.6179  218.7181 H   0  0  0  0  0  0  0  0  0  0  0  0
  144.0650   74.9356  221.3240 H   0  0  0  0  0  0  0  0  0  0  0  0
  143.7521   74.7380  217.3917 H   0  0  0  0  0  0  0  0  0  0  0  0
  142.7800   77.0760  216.7120 H   0  0  0  0  0  0  0  0  0  0  0  0
  143.5647   79.7064  217.5287 H   0  0  0  0  0  0  0  0  0  0  0  0
  142.6546   82.0033  217.7164 H   0  0  0  0  0  0  0  0  0  0  0  0
  140.7284   82.4194  219.2393 H   0  0  0  0  0  0  0  0  0  0  0  0
  139.7353   80.5614  220.5446 H   0  0  0  0  0  0  0  0  0  0  0  0
  140.6491   78.2501  220.3529 H   0  0  0  0  0  0  0  0  0  0  0  0
  138.0826   77.5798  222.6063 H   0  0  0  0  0  0  0  0  0  0  0  0
  138.3890   79.9153  223.3570 H   0  0  0  0  0  0  0  0  0  0  0  0
  139.8464   81.7060  223.9036 H   0  0  0  0  0  0  0  0  0  0  0  0
  142.1661   82.5655  224.1199 H   0  0  0  0  0  0  0  0  0  0  0  0
  144.1152   81.1317  223.6017 H   0  0  0  0  0  0  0  0  0  0  0  0
  143.7626   78.7903  222.8519 H   0  0  0  0  0  0  0  0  0  0  0  0
  1  2  2  0
  2  3  1  0
  3  4  1  0
  4  5  1  0
  5  6  2  0
  5  7  1  0
  7  8  1  0
  8  9  1  0
  9 10  1  0
 10 11  1  0
 11 12  1  0
 12 13  2  0
 13 14  1  0
 14 15  1  0
 15 16  1  0
 16 17  2  0
 17 18  1  0
 18 19  2  0
 19 20  1  0
 20 21  2  0
 15 22  2  0
  2 23  1  0
 23 24  2  0
 24 25  1  0
 25 26  2  0
 26 27  1  0
 27 28  2  0
 28 29  1  0
 29 30  2  0
 30 31  1  0
 31 32  2  0
 11  7  1  0
 22 12  1  0
 32 23  1  0
 21 16  1  0
 31 26  1  0
  3 33  1  0
  4 34  1  0
  4 35  1  0
  8 36  1  0
  8 37  1  0
  9 38  1  0
  9 39  1  0
 10 40  1  0
 10 41  1  0
 11 42  1  1
 13 43  1  0
 14 44  1  0
 17 45  1  0
 18 46  1  0
 19 47  1  0
 20 48  1  0
 21 49  1  0
 24 50  1  0
 25 51  1  0
 27 52  1  0
 28 53  1  0
 29 54  1  0
 30 55  1  0
M  END
>  <smiles>  (2) 
O=C(NCC(=O)N1CCC[C@H]1c1c[nH]c(-c2ccccc2)n1)c1ccc2ccccc2n1

>  <score_type>  (2) 
oracle

>  <origin>  (2) 
autodockgpu

>  <m_score__min__energy>  (2) 
-9.75

>  <m_primary>  (2) 
energy

>  <rmsd>  (2) 
7.109835644463485

>  <m_score__min__rmsd>  (2) 
7.109835644463485

>  <meeko>  (2) 
{"free_energy": -7.71, "intermolecular_energy": -9.5, "internal_energy": -3.81, "cluster_size": 19, "cluster_id": 5, "rank_in_cluster": 5}

>  <energy>  (2) 
-9.58

>  <cluster_rmsd>  (2) 
1.26

>  <cluster>  (2) 
1

$$$$

     RDKit          3D

 55 59  0  0  0  0  0  0  0  0999 V2000
  138.3920   70.6590  221.7270 O   0  0  0  0  0  0  0  0  0  0  0  0
  138.9380   71.1870  222.7260 C   0  0  0  0  0  0  0  0  0  0  0  0
  139.2500   72.5730  222.7210 N   0  0  0  0  0  0  0  0  0  0  0  0
  138.9370   73.3610  221.5740 C   0  0  0  0  0  0  0  0  0  0  0  0
  139.6100   74.6850  221.5640 C   0  0  0  0  0  0  0  0  0  0  0  0
  140.6290   74.7890  222.3250 O   0  0  0  0  0  0  0  0  0  0  0  0
  139.1530   75.7530  220.7700 N   0  0  0  0  0  0  0  0  0  0  0  0
  137.8170   76.3570  220.9150 C   0  0  0  0  0  0  0  0  0  0  0  0
  137.9090   77.7010  220.2230 C   0  0  0  0  0  0  0  0  0  0  0  0
  139.3950   77.8930  220.0130 C   0  0  0  0  0  0  0  0  0  0  0  0
  139.8180   76.4440  219.7250 C   0  0  1  0  0  0  0  0  0  0  0  0
  141.3040   76.3350  219.7410 C   0  0  0  0  0  0  0  0  0  0  0  0
  142.2550   77.3270  219.6640 C   0  0  0  0  0  0  0  0  0  0  0  0
  143.4840   76.7430  219.7180 N   0  0  0  0  0  0  0  0  0  0  0  0
  143.3120   75.4120  219.8270 C   0  0  0  0  0  0  0  0  0  0  0  0
  144.3300   74.3610  219.9180 C   0  0  0  0  0  0  0  0  0  0  0  0
  144.2780   73.2280  219.0990 C   0  0  0  0  0  0  0  0  0  0  0  0
  145.2290   72.2310  219.1740 C   0  0  0  0  0  0  0  0  0  0  0  0
  146.2560   72.3700  220.0900 C   0  0  0  0  0  0  0  0  0  0  0  0
  146.3260   73.4870  220.9140 C   0  0  0  0  0  0  0  0  0  0  0  0
  145.3660   74.4890  220.8330 C   0  0  0  0  0  0  0  0  0  0  0  0
  142.0010   75.1850  219.8390 N   0  0  0  0  0  0  0  0  0  0  0  0
  139.2600   70.3800  223.9000 C   0  0  0  0  0  0  0  0  0  0  0  0
  138.9350   69.0370  223.9170 C   0  0  0  0  0  0  0  0  0  0  0  0
  139.2060   68.2170  224.9890 C   0  0  0  0  0  0  0  0  0  0  0  0
  139.8250   68.7730  226.0750 C   0  0  0  0  0  0  0  0  0  0  0  0
  140.1040   67.9630  227.1560 C   0  0  0  0  0  0  0  0  0  0  0  0
  140.7270   68.5410  228.2420 C   0  0  0  0  0  0  0  0  0  0  0  0
  141.0680   69.8850  228.2610 C   0  0  0  0  0  0  0  0  0  0  0  0
  140.7820   70.6740  227.1710 C   0  0  0  0  0  0  0  0  0  0  0  0
  140.1570   70.1160  226.0730 C   0  0  0  0  0  0  0  0  0  0  0  0
  139.8680   70.8840  224.9920 N   0  0  0  0  0  0  0  0  0  0  0  0
  139.7100   72.9610  223.5930 H   0  0  0  0  0  0  0  0  0  0  0  0
  139.2459   72.8065  220.6756 H   0  0  0  0  0  0  0  0  0  0  0  0
  137.8534   73.5487  221.5960 H   0  0  0  0  0  0  0  0  0  0  0  0
  137.0549   75.7269  220.4332 H   0  0  0  0  0  0  0  0  0  0  0  0
  137.5251   76.4583  221.9707 H   0  0  0  0  0  0  0  0  0  0  0  0
  137.3754   77.6847  219.2612 H   0  0  0  0  0  0  0  0  0  0  0  0
  137.4515   78.5138  220.8061 H   0  0  0  0  0  0  0  0  0  0  0  0
  139.6037   78.5556  219.1601 H   0  0  0  0  0  0  0  0  0  0  0  0
  139.9221   78.3694  220.8528 H   0  0  0  0  0  0  0  0  0  0  0  0
  139.5506   76.0399  218.7375 H   0  0  0  0  0  0  0  0  0  0  0  0
  142.0566   78.4052  219.5743 H   0  0  0  0  0  0  0  0  0  0  0  0
  144.4040   77.2420  219.6830 H   0  0  0  0  0  0  0  0  0  0  0  0
  143.4559   73.1291  218.3749 H   0  0  0  0  0  0  0  0  0  0  0  0
  145.1718   71.3474  218.5213 H   0  0  0  0  0  0  0  0  0  0  0  0
  147.0257   71.5880  220.1671 H   0  0  0  0  0  0  0  0  0  0  0  0
  147.1494   73.5791  221.6376 H   0  0  0  0  0  0  0  0  0  0  0  0
  145.4265   75.3723  221.4858 H   0  0  0  0  0  0  0  0  0  0  0  0
  138.4383   68.6045  223.0359 H   0  0  0  0  0  0  0  0  0  0  0  0
  138.9342   67.1512  224.9730 H   0  0  0  0  0  0  0  0  0  0  0  0
  139.8393   66.8953  227.1520 H   0  0  0  0  0  0  0  0  0  0  0  0
  140.9601   67.9182  229.1182 H   0  0  0  0  0  0  0  0  0  0  0  0
  141.5642   70.3176  229.1423 H   0  0  0  0  0  0  0  0  0  0  0  0
  141.0490   71.7411  227.1739 H   0  0  0  0  0  0  0  0  0  0  0  0
  1  2  2  0
  2  3  1  0
  3  4  1  0
  4  5  1  0
  5  6  2  0
  5  7  1  0
  7  8  1  0
  8  9  1  0
  9 10  1  0
 10 11  1  0
 11 12  1  0
 12 13  2  0
 13 14  1  0
 14 15  1  0
 15 16  1  0
 16 17  2  0
 17 18  1  0
 18 19  2  0
 19 20  1  0
 20 21  2  0
 15 22  2  0
  2 23  1  0
 23 24  2  0
 24 25  1  0
 25 26  2  0
 26 27  1  0
 27 28  2  0
 28 29  1  0
 29 30  2  0
 30 31  1  0
 31 32  2  0
 11  7  1  0
 22 12  1  0
 32 23  1  0
 21 16  1  0
 31 26  1  0
  3 33  1  0
  4 34  1  0
  4 35  1  0
  8 36  1  0
  8 37  1  0
  9 38  1  0
  9 39  1  0
 10 40  1  0
 10 41  1  0
 11 42  1  6
 13 43  1  0
 14 44  1  0
 17 45  1  0
 18 46  1  0
 19 47  1  0
 20 48  1  0
 21 49  1  0
 24 50  1  0
 25 51  1  0
 27 52  1  0
 28 53  1  0
 29 54  1  0
 30 55  1  0
M  END
>  <smiles>  (3) 
O=C(NCC(=O)N1CCC[C@H]1c1c[nH]c(-c2ccccc2)n1)c1ccc2ccccc2n1

>  <score_type>  (3) 
oracle

>  <origin>  (3) 
autodockgpu

>  <m_score__min__energy>  (3) 
-9.75

>  <m_primary>  (3) 
energy

>  <rmsd>  (3) 
5.025645501325202

>  <m_score__min__rmsd>  (3) 
5.025645501325202

>  <meeko>  (3) 
{"free_energy": -9.1, "intermolecular_energy": -10.89, "internal_energy": -1.98, "cluster_size": 5, "cluster_id": 1, "rank_in_cluster": 5}

>  <energy>  (3) 
-9.54

>  <cluster_rmsd>  (3) 
1.25

>  <cluster>  (3) 
1

$$$$

     RDKit          3D

 55 59  0  0  0  0  0  0  0  0999 V2000
  141.3970   71.7430  221.5520 O   0  0  0  0  0  0  0  0  0  0  0  0
  140.6490   72.2420  222.4270 C   0  0  0  0  0  0  0  0  0  0  0  0
  140.1100   73.5450  222.2480 N   0  0  0  0  0  0  0  0  0  0  0  0
  140.4250   74.2810  221.0670 C   0  0  0  0  0  0  0  0  0  0  0  0
  139.5330   75.4460  220.8420 C   0  0  0  0  0  0  0  0  0  0  0  0
  138.4430   75.1930  220.2270 O   0  0  0  0  0  0  0  0  0  0  0  0
  139.8670   76.7430  221.2760 N   0  0  0  0  0  0  0  0  0  0  0  0
  139.1520   77.4450  222.3550 C   0  0  0  0  0  0  0  0  0  0  0  0
  140.0800   78.5590  222.7910 C   0  0  0  0  0  0  0  0  0  0  0  0
  141.3960   78.2030  222.1360 C   0  0  0  0  0  0  0  0  0  0  0  0
  140.8890   77.6100  220.8110 C   0  0  1  0  0  0  0  0  0  0  0  0
  142.0080   76.9390  220.0920 C   0  0  0  0  0  0  0  0  0  0  0  0
  142.6610   77.3190  218.9410 C   0  0  0  0  0  0  0  0  0  0  0  0
  143.6160   76.3880  218.6680 N   0  0  0  0  0  0  0  0  0  0  0  0
  143.5670   75.4420  219.6250 C   0  0  0  0  0  0  0  0  0  0  0  0
  144.3920   74.2380  219.7670 C   0  0  0  0  0  0  0  0  0  0  0  0
  144.2550   73.1570  218.8900 C   0  0  0  0  0  0  0  0  0  0  0  0
  145.0250   72.0180  219.0120 C   0  0  0  0  0  0  0  0  0  0  0  0
  145.9530   71.9590  220.0360 C   0  0  0  0  0  0  0  0  0  0  0  0
  146.1050   73.0210  220.9190 C   0  0  0  0  0  0  0  0  0  0  0  0
  145.3270   74.1670  220.7910 C   0  0  0  0  0  0  0  0  0  0  0  0
  142.5990   75.7880  220.4690 N   0  0  0  0  0  0  0  0  0  0  0  0
  140.3260   71.4890  223.6360 C   0  0  0  0  0  0  0  0  0  0  0  0
  139.5810   70.3280  223.5400 C   0  0  0  0  0  0  0  0  0  0  0  0
  139.2390   69.5690  224.6360 C   0  0  0  0  0  0  0  0  0  0  0  0
  139.6650   69.9970  225.8650 C   0  0  0  0  0  0  0  0  0  0  0  0
  139.3300   69.2460  226.9720 C   0  0  0  0  0  0  0  0  0  0  0  0
  139.7660   69.6920  228.2010 C   0  0  0  0  0  0  0  0  0  0  0  0
  140.5160   70.8510  228.3350 C   0  0  0  0  0  0  0  0  0  0  0  0
  140.8390   71.5850  227.2180 C   0  0  0  0  0  0  0  0  0  0  0  0
  140.4110   71.1560  225.9770 C   0  0  0  0  0  0  0  0  0  0  0  0
  140.7230   71.8710  224.8650 N   0  0  0  0  0  0  0  0  0  0  0  0
  139.4850   73.9120  223.0210 H   0  0  0  0  0  0  0  0  0  0  0  0
  141.4598   74.6450  221.1488 H   0  0  0  0  0  0  0  0  0  0  0  0
  140.2898   73.5994  220.2143 H   0  0  0  0  0  0  0  0  0  0  0  0
  138.2027   77.8579  221.9830 H   0  0  0  0  0  0  0  0  0  0  0  0
  138.9017   76.7707  223.1872 H   0  0  0  0  0  0  0  0  0  0  0  0
  139.7161   79.5346  222.4364 H   0  0  0  0  0  0  0  0  0  0  0  0
  140.1572   78.6473  223.8847 H   0  0  0  0  0  0  0  0  0  0  0  0
  142.0226   79.0919  221.9712 H   0  0  0  0  0  0  0  0  0  0  0  0
  142.0383   77.5325  222.7257 H   0  0  0  0  0  0  0  0  0  0  0  0
  140.5086   78.3233  220.0650 H   0  0  0  0  0  0  0  0  0  0  0  0
  142.4480   78.2189  218.3453 H   0  0  0  0  0  0  0  0  0  0  0  0
  144.2760   76.4040  217.8550 H   0  0  0  0  0  0  0  0  0  0  0  0
  143.5128   73.2163  218.0803 H   0  0  0  0  0  0  0  0  0  0  0  0
  144.9036   71.1780  218.3122 H   0  0  0  0  0  0  0  0  0  0  0  0
  146.5777   71.0612  220.1526 H   0  0  0  0  0  0  0  0  0  0  0  0
  146.8480   72.9549  221.7274 H   0  0  0  0  0  0  0  0  0  0  0  0
  145.4509   75.0058  221.4917 H   0  0  0  0  0  0  0  0  0  0  0  0
  139.2475   69.9970  222.5454 H   0  0  0  0  0  0  0  0  0  0  0  0
  138.6439   68.6501  224.5284 H   0  0  0  0  0  0  0  0  0  0  0  0
  138.7365   68.3247  226.8776 H   0  0  0  0  0  0  0  0  0  0  0  0
  139.5121   69.1125  229.1009 H   0  0  0  0  0  0  0  0  0  0  0  0
  140.8506   71.1812  229.3295 H   0  0  0  0  0  0  0  0  0  0  0  0
  141.4332   72.5059  227.3121 H   0  0  0  0  0  0  0  0  0  0  0  0
  1  2  2  0
  2  3  1  0
  3  4  1  0
  4  5  1  0
  5  6  2  0
  5  7  1  0
  7  8  1  0
  8  9  1  0
  9 10  1  0
 10 11  1  0
 11 12  1  0
 12 13  2  0
 13 14  1  0
 14 15  1  0
 15 16  1  0
 16 17  2  0
 17 18  1  0
 18 19  2  0
 19 20  1  0
 20 21  2  0
 15 22  2  0
  2 23  1  0
 23 24  2  0
 24 25  1  0
 25 26  2  0
 26 27  1  0
 27 28  2  0
 28 29  1  0
 29 30  2  0
 30 31  1  0
 31 32  2  0
 11  7  1  0
 22 12  1  0
 32 23  1  0
 21 16  1  0
 31 26  1  0
  3 33  1  0
  4 34  1  0
  4 35  1  0
  8 36  1  0
  8 37  1  0
  9 38  1  0
  9 39  1  0
 10 40  1  0
 10 41  1  0
 11 42  1  6
 13 43  1  0
 14 44  1  0
 17 45  1  0
 18 46  1  0
 19 47  1  0
 20 48  1  0
 21 49  1  0
 24 50  1  0
 25 51  1  0
 27 52  1  0
 28 53  1  0
 29 54  1  0
 30 55  1  0
M  END
>  <smiles>  (4) 
O=C(NCC(=O)N1CCC[C@H]1c1c[nH]c(-c2ccccc2)n1)c1ccc2ccccc2n1

>  <score_type>  (4) 
oracle

>  <origin>  (4) 
autodockgpu

>  <m_score__min__energy>  (4) 
-9.75

>  <m_primary>  (4) 
energy

>  <rmsd>  (4) 
5.4553195365020315

>  <m_score__min__rmsd>  (4) 
5.4553195365020315

>  <meeko>  (4) 
{"free_energy": -9.58, "intermolecular_energy": -11.37, "internal_energy": -1.52, "cluster_size": 5, "cluster_id": 1, "rank_in_cluster": 2}

>  <energy>  (4) 
-9.52

>  <cluster_rmsd>  (4) 
1.26

>  <cluster>  (4) 
1

$$$$

     RDKit          3D

 55 59  0  0  0  0  0  0  0  0999 V2000
  139.7650   74.7740  222.3450 O   0  0  0  0  0  0  0  0  0  0  0  0
  140.3910   75.0310  221.2870 C   0  0  0  0  0  0  0  0  0  0  0  0
  139.9890   76.1190  220.4660 N   0  0  0  0  0  0  0  0  0  0  0  0
  138.8720   76.9180  220.8510 C   0  0  0  0  0  0  0  0  0  0  0  0
  139.1120   78.3760  220.7130 C   0  0  0  0  0  0  0  0  0  0  0  0
  138.4140   78.9660  219.8220 O   0  0  0  0  0  0  0  0  0  0  0  0
  140.0480   79.0620  221.5100 N   0  0  0  0  0  0  0  0  0  0  0  0
  139.8690   79.2910  222.9540 C   0  0  0  0  0  0  0  0  0  0  0  0
  141.2470   79.6350  223.4780 C   0  0  0  0  0  0  0  0  0  0  0  0
  142.1660   79.2610  222.3360 C   0  0  0  0  0  0  0  0  0  0  0  0
  141.2840   79.6490  221.1380 C   0  0  1  0  0  0  0  0  0  0  0  0
  141.8790   79.1240  219.8770 C   0  0  0  0  0  0  0  0  0  0  0  0
  142.4210   79.8100  218.8140 C   0  0  0  0  0  0  0  0  0  0  0  0
  142.8380   78.9010  217.8900 N   0  0  0  0  0  0  0  0  0  0  0  0
  142.5660   77.6690  218.3600 C   0  0  0  0  0  0  0  0  0  0  0  0
  142.8260   76.3700  217.7320 C   0  0  0  0  0  0  0  0  0  0  0  0
  144.0250   76.1170  217.0590 C   0  0  0  0  0  0  0  0  0  0  0  0
  144.2830   74.8990  216.4620 C   0  0  0  0  0  0  0  0  0  0  0  0
  143.3180   73.9120  216.5410 C   0  0  0  0  0  0  0  0  0  0  0  0
  142.1180   74.1420  217.2040 C   0  0  0  0  0  0  0  0  0  0  0  0
  141.8640   75.3710  217.8040 C   0  0  0  0  0  0  0  0  0  0  0  0
  141.9920   77.8210  219.5510 N   0  0  0  0  0  0  0  0  0  0  0  0
  141.5350   74.2130  220.8920 C   0  0  0  0  0  0  0  0  0  0  0  0
  141.3390   72.8920  220.5330 C   0  0  0  0  0  0  0  0  0  0  0  0
  142.3690   72.0630  220.1510 C   0  0  0  0  0  0  0  0  0  0  0  0
  143.6330   72.5860  220.1310 C   0  0  0  0  0  0  0  0  0  0  0  0
  144.6750   71.7670  219.7500 C   0  0  0  0  0  0  0  0  0  0  0  0
  145.9430   72.3100  219.7370 C   0  0  0  0  0  0  0  0  0  0  0  0
  146.1760   73.6310  220.0900 C   0  0  0  0  0  0  0  0  0  0  0  0
  145.1230   74.4310  220.4660 C   0  0  0  0  0  0  0  0  0  0  0  0
  143.8450   73.9060  220.4880 C   0  0  0  0  0  0  0  0  0  0  0  0
  142.7960   74.6840  220.8580 N   0  0  0  0  0  0  0  0  0  0  0  0
  140.5570   76.2860  219.5870 H   0  0  0  0  0  0  0  0  0  0  0  0
  138.0141   76.6449  220.2190 H   0  0  0  0  0  0  0  0  0  0  0  0
  138.6844   76.7202  221.9167 H   0  0  0  0  0  0  0  0  0  0  0  0
  139.1716   80.1236  223.1285 H   0  0  0  0  0  0  0  0  0  0  0  0
  139.4462   78.4102  223.4595 H   0  0  0  0  0  0  0  0  0  0  0  0
  141.3231   80.7080  223.7080 H   0  0  0  0  0  0  0  0  0  0  0  0
  141.4919   79.1098  224.4130 H   0  0  0  0  0  0  0  0  0  0  0  0
  143.1005   79.8409  222.3585 H   0  0  0  0  0  0  0  0  0  0  0  0
  142.5041   78.2143  222.3399 H   0  0  0  0  0  0  0  0  0  0  0  0
  141.1770   80.7242  220.9320 H   0  0  0  0  0  0  0  0  0  0  0  0
  142.5031   80.9034  218.7261 H   0  0  0  0  0  0  0  0  0  0  0  0
  143.2930   79.1210  216.9720 H   0  0  0  0  0  0  0  0  0  0  0  0
  144.7844   76.9108  217.0035 H   0  0  0  0  0  0  0  0  0  0  0  0
  145.2325   74.7184  215.9367 H   0  0  0  0  0  0  0  0  0  0  0  0
  143.5019   72.9333  216.0738 H   0  0  0  0  0  0  0  0  0  0  0  0
  141.3621   73.3445  217.2546 H   0  0  0  0  0  0  0  0  0  0  0  0
  140.9137   75.5492  218.3286 H   0  0  0  0  0  0  0  0  0  0  0  0
  140.3166   72.4867  220.5536 H   0  0  0  0  0  0  0  0  0  0  0  0
  142.1823   71.0157  219.8713 H   0  0  0  0  0  0  0  0  0  0  0  0
  144.5013   70.7184  219.4666 H   0  0  0  0  0  0  0  0  0  0  0  0
  146.7925   71.6782  219.4385 H   0  0  0  0  0  0  0  0  0  0  0  0
  147.1983   74.0366  220.0692 H   0  0  0  0  0  0  0  0  0  0  0  0
  145.2964   75.4803  220.7470 H   0  0  0  0  0  0  0  0  0  0  0  0
  1  2  2  0
  2  3  1  0
  3  4  1  0
  4  5  1  0
  5  6  2  0
  5  7  1  0
  7  8  1  0
  8  9  1  0
  9 10  1  0
 10 11  1  0
 11 12  1  0
 12 13  2  0
 13 14  1  0
 14 15  1  0
 15 16  1  0
 16 17  2  0
 17 18  1  0
 18 19  2  0
 19 20  1  0
 20 21  2  0
 15 22  2  0
  2 23  1  0
 23 24  2  0
 24 25  1  0
 25 26  2  0
 26 27  1  0
 27 28  2  0
 28 29  1  0
 29 30  2  0
 30 31  1  0
 31 32  2  0
 11  7  1  0
 22 12  1  0
 32 23  1  0
 21 16  1  0
 31 26  1  0
  3 33  1  0
  4 34  1  0
  4 35  1  0
  8 36  1  0
  8 37  1  0
  9 38  1  0
  9 39  1  0
 10 40  1  0
 10 41  1  0
 11 42  1  6
 13 43  1  0
 14 44  1  0
 17 45  1  0
 18 46  1  0
 19 47  1  0
 20 48  1  0
 21 49  1  0
 24 50  1  0
 25 51  1  0
 27 52  1  0
 28 53  1  0
 29 54  1  0
 30 55  1  0
M  END
>  <smiles>  (5) 
O=C(NCC(=O)N1CCC[C@H]1c1c[nH]c(-c2ccccc2)n1)c1ccc2ccccc2n1

>  <score_type>  (5) 
oracle

>  <origin>  (5) 
autodockgpu

>  <m_score__min__energy>  (5) 
-9.75

>  <m_primary>  (5) 
energy

>  <rmsd>  (5) 
6.864125019316211

>  <m_score__min__rmsd>  (5) 
6.864125019316211

>  <meeko>  (5) 
{"free_energy": -6.62, "intermolecular_energy": -8.41, "internal_energy": -4.08, "cluster_size": 6, "cluster_id": 6, "rank_in_cluster": 6}

>  <energy>  (5) 
-9.1

>  <cluster_rmsd>  (5) 
0.82

>  <cluster>  (5) 
1

$$$$

     RDKit          3D

 55 59  0  0  0  0  0  0  0  0999 V2000
  139.4300   70.6140  221.4860 O   0  0  0  0  0  0  0  0  0  0  0  0
  139.1300   71.2980  222.4940 C   0  0  0  0  0  0  0  0  0  0  0  0
  138.3190   72.4560  222.3560 N   0  0  0  0  0  0  0  0  0  0  0  0
  137.8470   72.8360  221.0640 C   0  0  0  0  0  0  0  0  0  0  0  0
  138.8860   73.4820  220.2230 C   0  0  0  0  0  0  0  0  0  0  0  0
  138.4490   74.1670  219.2380 O   0  0  0  0  0  0  0  0  0  0  0  0
  140.2610   73.3470  220.4920 N   0  0  0  0  0  0  0  0  0  0  0  0
  141.1450   72.4280  219.7540 C   0  0  0  0  0  0  0  0  0  0  0  0
  142.5510   72.9150  220.0360 C   0  0  0  0  0  0  0  0  0  0  0  0
  142.3390   74.2760  220.6610 C   0  0  0  0  0  0  0  0  0  0  0  0
  141.0550   74.0100  221.4620 C   0  0  1  0  0  0  0  0  0  0  0  0
  140.4940   75.2950  221.9660 C   0  0  0  0  0  0  0  0  0  0  0  0
  139.1980   75.6110  222.3050 C   0  0  0  0  0  0  0  0  0  0  0  0
  139.1700   76.9100  222.7140 N   0  0  0  0  0  0  0  0  0  0  0  0
  140.4210   77.4020  222.6350 C   0  0  0  0  0  0  0  0  0  0  0  0
  140.8990   78.7480  222.9650 C   0  0  0  0  0  0  0  0  0  0  0  0
  142.2650   79.0210  223.0940 C   0  0  0  0  0  0  0  0  0  0  0  0
  142.7290   80.2840  223.4040 C   0  0  0  0  0  0  0  0  0  0  0  0
  141.8050   81.2960  223.5900 C   0  0  0  0  0  0  0  0  0  0  0  0
  140.4440   81.0460  223.4680 C   0  0  0  0  0  0  0  0  0  0  0  0
  139.9820   79.7720  223.1540 C   0  0  0  0  0  0  0  0  0  0  0  0
  141.2010   76.4220  222.1860 N   0  0  0  0  0  0  0  0  0  0  0  0
  139.6130   70.9100  223.8170 C   0  0  0  0  0  0  0  0  0  0  0  0
  140.3710   71.7990  224.5560 C   0  0  0  0  0  0  0  0  0  0  0  0
  140.8600   71.5020  225.8080 C   0  0  0  0  0  0  0  0  0  0  0  0
  140.5730   70.2680  226.3270 C   0  0  0  0  0  0  0  0  0  0  0  0
  141.0560   69.9570  227.5800 C   0  0  0  0  0  0  0  0  0  0  0  0
  140.7580   68.7090  228.0870 C   0  0  0  0  0  0  0  0  0  0  0  0
  140.0000   67.7920  227.3740 C   0  0  0  0  0  0  0  0  0  0  0  0
  139.5270   68.1240  226.1260 C   0  0  0  0  0  0  0  0  0  0  0  0
  139.8160   69.3670  225.5990 C   0  0  0  0  0  0  0  0  0  0  0  0
  139.3560   69.7080  224.3680 N   0  0  0  0  0  0  0  0  0  0  0  0
  138.0990   72.9920  223.2430 H   0  0  0  0  0  0  0  0  0  0  0  0
  137.4888   71.9349  220.5447 H   0  0  0  0  0  0  0  0  0  0  0  0
  137.0462   73.5748  221.2153 H   0  0  0  0  0  0  0  0  0  0  0  0
  141.0150   71.3965  220.1133 H   0  0  0  0  0  0  0  0  0  0  0  0
  140.9216   72.4199  218.6769 H   0  0  0  0  0  0  0  0  0  0  0  0
  143.0680   72.2392  220.7331 H   0  0  0  0  0  0  0  0  0  0  0  0
  143.1786   72.9529  219.1334 H   0  0  0  0  0  0  0  0  0  0  0  0
  143.1765   74.5586  221.3157 H   0  0  0  0  0  0  0  0  0  0  0  0
  142.2718   75.1077  219.9442 H   0  0  0  0  0  0  0  0  0  0  0  0
  141.1615   73.4100  222.3778 H   0  0  0  0  0  0  0  0  0  0  0  0
  138.3341   74.9319  222.2544 H   0  0  0  0  0  0  0  0  0  0  0  0
  138.3230   77.4350  223.0350 H   0  0  0  0  0  0  0  0  0  0  0  0
  142.9895   78.2069  222.9443 H   0  0  0  0  0  0  0  0  0  0  0  0
  143.8070   80.4804  223.5007 H   0  0  0  0  0  0  0  0  0  0  0  0
  142.1516   82.3102  223.8373 H   0  0  0  0  0  0  0  0  0  0  0  0
  139.7244   81.8637  223.6212 H   0  0  0  0  0  0  0  0  0  0  0  0
  138.9035   79.5789  223.0568 H   0  0  0  0  0  0  0  0  0  0  0  0
  140.5930   72.7864  224.1249 H   0  0  0  0  0  0  0  0  0  0  0  0
  141.4606   72.2309  226.3720 H   0  0  0  0  0  0  0  0  0  0  0  0
  141.6569   70.6773  228.1545 H   0  0  0  0  0  0  0  0  0  0  0  0
  141.1318   68.4336  229.0842 H   0  0  0  0  0  0  0  0  0  0  0  0
  139.7783   66.8043  227.8045 H   0  0  0  0  0  0  0  0  0  0  0  0
  138.9234   67.4052  225.5524 H   0  0  0  0  0  0  0  0  0  0  0  0
  1  2  2  0
  2  3  1  0
  3  4  1  0
  4  5  1  0
  5  6  2  0
  5  7  1  0
  7  8  1  0
  8  9  1  0
  9 10  1  0
 10 11  1  0
 11 12  1  0
 12 13  2  0
 13 14  1  0
 14 15  1  0
 15 16  1  0
 16 17  2  0
 17 18  1  0
 18 19  2  0
 19 20  1  0
 20 21  2  0
 15 22  2  0
  2 23  1  0
 23 24  2  0
 24 25  1  0
 25 26  2  0
 26 27  1  0
 27 28  2  0
 28 29  1  0
 29 30  2  0
 30 31  1  0
 31 32  2  0
 11  7  1  0
 22 12  1  0
 32 23  1  0
 21 16  1  0
 31 26  1  0
  3 33  1  0
  4 34  1  0
  4 35  1  0
  8 36  1  0
  8 37  1  0
  9 38  1  0
  9 39  1  0
 10 40  1  0
 10 41  1  0
 11 42  1  1
 13 43  1  0
 14 44  1  0
 17 45  1  0
 18 46  1  0
 19 47  1  0
 20 48  1  0
 21 49  1  0
 24 50  1  0
 25 51  1  0
 27 52  1  0
 28 53  1  0
 29 54  1  0
 30 55  1  0
M  END
>  <smiles>  (6) 
O=C(NCC(=O)N1CCC[C@H]1c1c[nH]c(-c2ccccc2)n1)c1ccc2ccccc2n1

>  <score_type>  (6) 
oracle

>  <origin>  (6) 
autodockgpu

>  <m_score__min__energy>  (6) 
-9.75

>  <m_primary>  (6) 
energy

>  <rmsd>  (6) 
3.4647438323039945

>  <m_score__min__rmsd>  (6) 
3.4647438323039945

>  <meeko>  (6) 
{"free_energy": -9.06, "intermolecular_energy": -10.85, "internal_energy": -1.71, "cluster_size": 10, "cluster_id": 3, "rank_in_cluster": 4}

>  <energy>  (6) 
-9.23

>  <cluster_rmsd>  (6) 
0.0

>  <cluster>  (6) 
2

$$$$

     RDKit          3D

 55 59  0  0  0  0  0  0  0  0999 V2000
  138.8630   75.3350  222.2140 O   0  0  0  0  0  0  0  0  0  0  0  0
  139.9850   75.8650  222.0280 C   0  0  0  0  0  0  0  0  0  0  0  0
  141.0330   75.1240  221.4170 N   0  0  0  0  0  0  0  0  0  0  0  0
  140.8000   73.7740  221.0170 C   0  0  0  0  0  0  0  0  0  0  0  0
  141.8070   73.2610  220.0550 C   0  0  0  0  0  0  0  0  0  0  0  0
  141.3360   72.7670  218.9760 O   0  0  0  0  0  0  0  0  0  0  0  0
  143.1900   73.3150  220.3140 N   0  0  0  0  0  0  0  0  0  0  0  0
  143.9770   72.1520  220.7580 C   0  0  0  0  0  0  0  0  0  0  0  0
  145.4200   72.5180  220.4830 C   0  0  0  0  0  0  0  0  0  0  0  0
  145.3150   73.7440  219.6030 C   0  0  0  0  0  0  0  0  0  0  0  0
  144.0790   74.4160  220.2200 C   0  0  1  0  0  0  0  0  0  0  0  0
  143.6150   75.5290  219.3440 C   0  0  0  0  0  0  0  0  0  0  0  0
  143.6180   75.6200  217.9700 C   0  0  0  0  0  0  0  0  0  0  0  0
  143.0960   76.8290  217.6240 N   0  0  0  0  0  0  0  0  0  0  0  0
  142.7700   77.4860  218.7540 C   0  0  0  0  0  0  0  0  0  0  0  0
  142.1770   78.8190  218.9020 C   0  0  0  0  0  0  0  0  0  0  0  0
  141.0800   79.0350  219.7420 C   0  0  0  0  0  0  0  0  0  0  0  0
  140.5120   80.2840  219.8910 C   0  0  0  0  0  0  0  0  0  0  0  0
  141.0540   81.3410  219.1820 C   0  0  0  0  0  0  0  0  0  0  0  0
  142.1430   81.1480  218.3400 C   0  0  0  0  0  0  0  0  0  0  0  0
  142.7120   79.8870  218.1950 C   0  0  0  0  0  0  0  0  0  0  0  0
  143.0880   76.6920  219.7740 N   0  0  0  0  0  0  0  0  0  0  0  0
  140.2240   77.2460  222.4370 C   0  0  0  0  0  0  0  0  0  0  0  0
  139.1500   78.0780  222.6960 C   0  0  0  0  0  0  0  0  0  0  0  0
  139.2990   79.3900  223.0850 C   0  0  0  0  0  0  0  0  0  0  0  0
  140.5720   79.8740  223.2160 C   0  0  0  0  0  0  0  0  0  0  0  0
  140.7370   81.1860  223.6050 C   0  0  0  0  0  0  0  0  0  0  0  0
  142.0270   81.6580  223.7320 C   0  0  0  0  0  0  0  0  0  0  0  0
  143.1280   80.8520  223.4800 C   0  0  0  0  0  0  0  0  0  0  0  0
  142.9410   79.5460  223.0940 C   0  0  0  0  0  0  0  0  0  0  0  0
  141.6570   79.0540  222.9600 C   0  0  0  0  0  0  0  0  0  0  0  0
  141.4580   77.7660  222.5790 N   0  0  0  0  0  0  0  0  0  0  0  0
  141.9560   75.6260  221.2860 H   0  0  0  0  0  0  0  0  0  0  0  0
  140.8183   73.1368  221.9135 H   0  0  0  0  0  0  0  0  0  0  0  0
  139.8246   73.7501  220.5090 H   0  0  0  0  0  0  0  0  0  0  0  0
  143.8235   71.9701  221.8319 H   0  0  0  0  0  0  0  0  0  0  0  0
  143.6802   71.2316  220.2339 H   0  0  0  0  0  0  0  0  0  0  0  0
  145.9513   72.7500  221.4178 H   0  0  0  0  0  0  0  0  0  0  0  0
  145.9856   71.7008  220.0115 H   0  0  0  0  0  0  0  0  0  0  0  0
  146.2081   74.3811  219.6836 H   0  0  0  0  0  0  0  0  0  0  0  0
  145.2368   73.5338  218.5261 H   0  0  0  0  0  0  0  0  0  0  0  0
  144.2199   74.9085  221.1935 H   0  0  0  0  0  0  0  0  0  0  0  0
  143.9794   74.8496  217.2729 H   0  0  0  0  0  0  0  0  0  0  0  0
  142.9680   77.1880  216.6480 H   0  0  0  0  0  0  0  0  0  0  0  0
  140.6581   78.1858  220.2995 H   0  0  0  0  0  0  0  0  0  0  0  0
  139.6497   80.4352  220.5570 H   0  0  0  0  0  0  0  0  0  0  0  0
  140.6182   82.3457  219.2857 H   0  0  0  0  0  0  0  0  0  0  0  0
  142.5588   82.0006  217.7830 H   0  0  0  0  0  0  0  0  0  0  0  0
  143.5746   79.7381  217.5288 H   0  0  0  0  0  0  0  0  0  0  0  0
  138.1328   77.6739  222.5864 H   0  0  0  0  0  0  0  0  0  0  0  0
  138.4247   80.0273  223.2837 H   0  0  0  0  0  0  0  0  0  0  0  0
  139.8710   81.8335  223.8069 H   0  0  0  0  0  0  0  0  0  0  0  0
  142.1871   82.7014  224.0414 H   0  0  0  0  0  0  0  0  0  0  0  0
  144.1453   81.2561  223.5886 H   0  0  0  0  0  0  0  0  0  0  0  0
  143.8068   78.8978  222.8934 H   0  0  0  0  0  0  0  0  0  0  0  0
  1  2  2  0
  2  3  1  0
  3  4  1  0
  4  5  1  0
  5  6  2  0
  5  7  1  0
  7  8  1  0
  8  9  1  0
  9 10  1  0
 10 11  1  0
 11 12  1  0
 12 13  2  0
 13 14  1  0
 14 15  1  0
 15 16  1  0
 16 17  2  0
 17 18  1  0
 18 19  2  0
 19 20  1  0
 20 21  2  0
 15 22  2  0
  2 23  1  0
 23 24  2  0
 24 25  1  0
 25 26  2  0
 26 27  1  0
 27 28  2  0
 28 29  1  0
 29 30  2  0
 30 31  1  0
 31 32  2  0
 11  7  1  0
 22 12  1  0
 32 23  1  0
 21 16  1  0
 31 26  1  0
  3 33  1  0
  4 34  1  0
  4 35  1  0
  8 36  1  0
  8 37  1  0
  9 38  1  0
  9 39  1  0
 10 40  1  0
 10 41  1  0
 11 42  1  1
 13 43  1  0
 14 44  1  0
 17 45  1  0
 18 46  1  0
 19 47  1  0
 20 48  1  0
 21 49  1  0
 24 50  1  0
 25 51  1  0
 27 52  1  0
 28 53  1  0
 29 54  1  0
 30 55  1  0
M  END
>  <smiles>  (7) 
O=C(NCC(=O)N1CCC[C@H]1c1c[nH]c(-c2ccccc2)n1)c1ccc2ccccc2n1

>  <score_type>  (7) 
oracle

>  <origin>  (7) 
autodockgpu

>  <m_score__min__energy>  (7) 
-9.75

>  <m_primary>  (7) 
energy

>  <rmsd>  (7) 
7.085830140136724

>  <m_score__min__rmsd>  (7) 
7.085830140136724

>  <meeko>  (7) 
{"free_energy": -7.75, "intermolecular_energy": -9.54, "internal_energy": -3.8, "cluster_size": 19, "cluster_id": 5, "rank_in_cluster": 1}

>  <energy>  (7) 
-8.99

>  <cluster_rmsd>  (7) 
0.27

>  <cluster>  (7) 
2

$$$$

     RDKit          3D

 55 59  0  0  0  0  0  0  0  0999 V2000
  140.2020   74.2100  222.0270 O   0  0  0  0  0  0  0  0  0  0  0  0
  141.1820   74.8600  221.5900 C   0  0  0  0  0  0  0  0  0  0  0  0
  141.1980   76.2780  221.6860 N   0  0  0  0  0  0  0  0  0  0  0  0
  140.0940   76.9570  222.2830 C   0  0  0  0  0  0  0  0  0  0  0  0
  139.8470   78.3030  221.7070 C   0  0  0  0  0  0  0  0  0  0  0  0
  138.9160   78.3660  220.8360 O   0  0  0  0  0  0  0  0  0  0  0  0
  140.5900   79.4330  222.0950 N   0  0  0  0  0  0  0  0  0  0  0  0
  140.6060   79.9590  223.4710 C   0  0  0  0  0  0  0  0  0  0  0  0
  141.8290   80.8490  223.5440 C   0  0  0  0  0  0  0  0  0  0  0  0
  142.5950   80.5050  222.2870 C   0  0  0  0  0  0  0  0  0  0  0  0
  141.4300   80.2670  221.3140 C   0  0  1  0  0  0  0  0  0  0  0  0
  141.9360   79.6520  220.0540 C   0  0  0  0  0  0  0  0  0  0  0  0
  142.5060   80.2530  218.9550 C   0  0  0  0  0  0  0  0  0  0  0  0
  142.8100   79.2820  218.0500 N   0  0  0  0  0  0  0  0  0  0  0  0
  142.4390   78.0950  218.5670 C   0  0  0  0  0  0  0  0  0  0  0  0
  142.5580   76.7600  217.9730 C   0  0  0  0  0  0  0  0  0  0  0  0
  143.7130   76.3730  217.2840 C   0  0  0  0  0  0  0  0  0  0  0  0
  143.8390   75.1190  216.7210 C   0  0  0  0  0  0  0  0  0  0  0  0
  142.7850   74.2320  216.8500 C   0  0  0  0  0  0  0  0  0  0  0  0
  141.6290   74.5960  217.5290 C   0  0  0  0  0  0  0  0  0  0  0  0
  141.5080   75.8610  218.0960 C   0  0  0  0  0  0  0  0  0  0  0  0
  141.9180   78.3350  219.7670 N   0  0  0  0  0  0  0  0  0  0  0  0
  142.3120   74.1660  220.9780 C   0  0  0  0  0  0  0  0  0  0  0  0
  143.4120   74.8910  220.5570 C   0  0  0  0  0  0  0  0  0  0  0  0
  144.5120   74.3040  219.9720 C   0  0  0  0  0  0  0  0  0  0  0  0
  144.4970   72.9460  219.8090 C   0  0  0  0  0  0  0  0  0  0  0  0
  145.5920   72.3440  219.2250 C   0  0  0  0  0  0  0  0  0  0  0  0
  145.5600   70.9750  219.0670 C   0  0  0  0  0  0  0  0  0  0  0  0
  144.4730   70.2160  219.4780 C   0  0  0  0  0  0  0  0  0  0  0  0
  143.3920   70.8360  220.0590 C   0  0  0  0  0  0  0  0  0  0  0  0
  143.4030   72.2070  220.2250 C   0  0  0  0  0  0  0  0  0  0  0  0
  142.3430   72.8320  220.7970 N   0  0  0  0  0  0  0  0  0  0  0  0
  142.0530   76.7710  221.3000 H   0  0  0  0  0  0  0  0  0  0  0  0
  139.1906   76.3458  222.1405 H   0  0  0  0  0  0  0  0  0  0  0  0
  140.3371   77.0989  223.3464 H   0  0  0  0  0  0  0  0  0  0  0  0
  139.6939   80.5401  223.6720 H   0  0  0  0  0  0  0  0  0  0  0  0
  140.6404   79.1524  224.2181 H   0  0  0  0  0  0  0  0  0  0  0  0
  141.5420   81.9109  223.5508 H   0  0  0  0  0  0  0  0  0  0  0  0
  142.4178   80.6917  224.4597 H   0  0  0  0  0  0  0  0  0  0  0  0
  143.2354   81.3373  221.9597 H   0  0  0  0  0  0  0  0  0  0  0  0
  143.2912   79.6594  222.3882 H   0  0  0  0  0  0  0  0  0  0  0  0
  140.8964   81.1600  220.9564 H   0  0  0  0  0  0  0  0  0  0  0  0
  142.6850   81.3310  218.8294 H   0  0  0  0  0  0  0  0  0  0  0  0
  143.2550   79.4320  217.1140 H   0  0  0  0  0  0  0  0  0  0  0  0
  144.5435   77.0880  217.1884 H   0  0  0  0  0  0  0  0  0  0  0  0
  144.7546   74.8320  216.1831 H   0  0  0  0  0  0  0  0  0  0  0  0
  142.8633   73.2270  216.4098 H   0  0  0  0  0  0  0  0  0  0  0  0
  140.8012   73.8772  217.6193 H   0  0  0  0  0  0  0  0  0  0  0  0
  140.5919   76.1447  218.6347 H   0  0  0  0  0  0  0  0  0  0  0  0
  143.4082   75.9823  220.6952 H   0  0  0  0  0  0  0  0  0  0  0  0
  145.3730   74.9065  219.6470 H   0  0  0  0  0  0  0  0  0  0  0  0
  146.4597   72.9352  218.8971 H   0  0  0  0  0  0  0  0  0  0  0  0
  146.4197   70.4701  218.6023 H   0  0  0  0  0  0  0  0  0  0  0  0
  144.4764   69.1247  219.3397 H   0  0  0  0  0  0  0  0  0  0  0  0
  142.5252   70.2446  220.3890 H   0  0  0  0  0  0  0  0  0  0  0  0
  1  2  2  0
  2  3  1  0
  3  4  1  0
  4  5  1  0
  5  6  2  0
  5  7  1  0
  7  8  1  0
  8  9  1  0
  9 10  1  0
 10 11  1  0
 11 12  1  0
 12 13  2  0
 13 14  1  0
 14 15  1  0
 15 16  1  0
 16 17  2  0
 17 18  1  0
 18 19  2  0
 19 20  1  0
 20 21  2  0
 15 22  2  0
  2 23  1  0
 23 24  2  0
 24 25  1  0
 25 26  2  0
 26 27  1  0
 27 28  2  0
 28 29  1  0
 29 30  2  0
 30 31  1  0
 31 32  2  0
 11  7  1  0
 22 12  1  0
 32 23  1  0
 21 16  1  0
 31 26  1  0
  3 33  1  0
  4 34  1  0
  4 35  1  0
  8 36  1  0
  8 37  1  0
  9 38  1  0
  9 39  1  0
 10 40  1  0
 10 41  1  0
 11 42  1  6
 13 43  1  0
 14 44  1  0
 17 45  1  0
 18 46  1  0
 19 47  1  0
 20 48  1  0
 21 49  1  0
 24 50  1  0
 25 51  1  0
 27 52  1  0
 28 53  1  0
 29 54  1  0
 30 55  1  0
M  END
>  <smiles>  (8) 
O=C(NCC(=O)N1CCC[C@H]1c1c[nH]c(-c2ccccc2)n1)c1ccc2ccccc2n1

>  <score_type>  (8) 
oracle

>  <origin>  (8) 
autodockgpu

>  <m_score__min__energy>  (8) 
-9.75

>  <m_primary>  (8) 
energy

>  <rmsd>  (8) 
7.216461605882973

>  <m_score__min__rmsd>  (8) 
7.216461605882973

>  <meeko>  (8) 
{"free_energy": -7.42, "intermolecular_energy": -9.21, "internal_energy": -3.49, "cluster_size": 6, "cluster_id": 6, "rank_in_cluster": 2}

>  <energy>  (8) 
-8.95

>  <cluster_rmsd>  (8) 
0.28

>  <cluster>  (8) 
2

$$$$

     RDKit          3D

 55 59  0  0  0  0  0  0  0  0999 V2000
  138.8200   70.8720  221.5260 O   0  0  0  0  0  0  0  0  0  0  0  0
  139.1570   71.6070  222.4860 C   0  0  0  0  0  0  0  0  0  0  0  0
  139.1850   73.0190  222.3280 N   0  0  0  0  0  0  0  0  0  0  0  0
  138.8270   73.5950  221.0730 C   0  0  0  0  0  0  0  0  0  0  0  0
  139.7230   73.1910  219.9610 C   0  0  0  0  0  0  0  0  0  0  0  0
  139.2270   73.2970  218.7890 O   0  0  0  0  0  0  0  0  0  0  0  0
  141.0310   72.7210  220.1830 N   0  0  0  0  0  0  0  0  0  0  0  0
  141.4930   71.3850  219.7700 C   0  0  0  0  0  0  0  0  0  0  0  0
  143.0050   71.4650  219.7830 C   0  0  0  0  0  0  0  0  0  0  0  0
  143.2840   72.9470  219.8970 C   0  0  0  0  0  0  0  0  0  0  0  0
  142.1240   73.3720  220.8110 C   0  0  1  0  0  0  0  0  0  0  0  0
  142.0320   74.8580  220.8580 C   0  0  0  0  0  0  0  0  0  0  0  0
  142.6480   75.7990  220.0630 C   0  0  0  0  0  0  0  0  0  0  0  0
  142.2580   77.0330  220.4860 N   0  0  0  0  0  0  0  0  0  0  0  0
  141.4150   76.8750  221.5250 C   0  0  0  0  0  0  0  0  0  0  0  0
  140.7320   77.9030  222.3160 C   0  0  0  0  0  0  0  0  0  0  0  0
  141.4530   78.8710  223.0240 C   0  0  0  0  0  0  0  0  0  0  0  0
  140.8230   79.8440  223.7730 C   0  0  0  0  0  0  0  0  0  0  0  0
  139.4410   79.8490  223.8150 C   0  0  0  0  0  0  0  0  0  0  0  0
  138.7060   78.8970  223.1200 C   0  0  0  0  0  0  0  0  0  0  0  0
  139.3450   77.9190  222.3660 C   0  0  0  0  0  0  0  0  0  0  0  0
  141.2910   75.5660  221.7340 N   0  0  0  0  0  0  0  0  0  0  0  0
  139.5240   71.0180  223.7710 C   0  0  0  0  0  0  0  0  0  0  0  0
  139.3050   69.6710  223.9930 C   0  0  0  0  0  0  0  0  0  0  0  0
  139.6250   69.0490  225.1790 C   0  0  0  0  0  0  0  0  0  0  0  0
  140.1830   69.8130  226.1670 C   0  0  0  0  0  0  0  0  0  0  0  0
  140.5090   69.2030  227.3610 C   0  0  0  0  0  0  0  0  0  0  0  0
  141.0700   69.9870  228.3460 C   0  0  0  0  0  0  0  0  0  0  0  0
  141.3040   71.3420  228.1590 C   0  0  0  0  0  0  0  0  0  0  0  0
  140.9720   71.9300  226.9610 C   0  0  0  0  0  0  0  0  0  0  0  0
  140.4080   71.1620  225.9600 C   0  0  0  0  0  0  0  0  0  0  0  0
  140.0750   71.7290  224.7730 N   0  0  0  0  0  0  0  0  0  0  0  0
  139.4770   73.5870  223.1740 H   0  0  0  0  0  0  0  0  0  0  0  0
  137.8018   73.2822  220.8257 H   0  0  0  0  0  0  0  0  0  0  0  0
  138.9148   74.6862  221.1801 H   0  0  0  0  0  0  0  0  0  0  0  0
  141.1413   70.6197  220.4775 H   0  0  0  0  0  0  0  0  0  0  0  0
  141.1051   71.1043  218.7797 H   0  0  0  0  0  0  0  0  0  0  0  0
  143.4193   70.9204  220.6442 H   0  0  0  0  0  0  0  0  0  0  0  0
  143.4638   71.0119  218.8918 H   0  0  0  0  0  0  0  0  0  0  0  0
  144.2617   73.1431  220.3615 H   0  0  0  0  0  0  0  0  0  0  0  0
  143.3355   73.4822  218.9374 H   0  0  0  0  0  0  0  0  0  0  0  0
  142.2056   73.0953  221.8725 H   0  0  0  0  0  0  0  0  0  0  0  0
  143.3359   75.5898  219.2305 H   0  0  0  0  0  0  0  0  0  0  0  0
  142.5600   77.9480  220.0750 H   0  0  0  0  0  0  0  0  0  0  0  0
  142.5521   78.8560  222.9824 H   0  0  0  0  0  0  0  0  0  0  0  0
  141.4061   80.5972  224.3231 H   0  0  0  0  0  0  0  0  0  0  0  0
  138.9177   80.6155  224.4054 H   0  0  0  0  0  0  0  0  0  0  0  0
  137.6072   78.9170  223.1666 H   0  0  0  0  0  0  0  0  0  0  0  0
  138.7590   77.1678  221.8163 H   0  0  0  0  0  0  0  0  0  0  0  0
  138.8560   69.0707  223.1879 H   0  0  0  0  0  0  0  0  0  0  0  0
  139.4384   67.9751  225.3269 H   0  0  0  0  0  0  0  0  0  0  0  0
  140.3277   68.1299  227.5209 H   0  0  0  0  0  0  0  0  0  0  0  0
  141.3399   69.5257  229.3074 H   0  0  0  0  0  0  0  0  0  0  0  0
  141.7524   71.9423  228.9644 H   0  0  0  0  0  0  0  0  0  0  0  0
  141.1539   73.0030  226.8008 H   0  0  0  0  0  0  0  0  0  0  0  0
  1  2  2  0
  2  3  1  0
  3  4  1  0
  4  5  1  0
  5  6  2  0
  5  7  1  0
  7  8  1  0
  8  9  1  0
  9 10  1  0
 10 11  1  0
 11 12  1  0
 12 13  2  0
 13 14  1  0
 14 15  1  0
 15 16  1  0
 16 17  2  0
 17 18  1  0
 18 19  2  0
 19 20  1  0
 20 21  2  0
 15 22  2  0
  2 23  1  0
 23 24  2  0
 24 25  1  0
 25 26  2  0
 26 27  1  0
 27 28  2  0
 28 29  1  0
 29 30  2  0
 30 31  1  0
 31 32  2  0
 11  7  1  0
 22 12  1  0
 32 23  1  0
 21 16  1  0
 31 26  1  0
  3 33  1  0
  4 34  1  0
  4 35  1  0
  8 36  1  0
  8 37  1  0
  9 38  1  0
  9 39  1  0
 10 40  1  0
 10 41  1  0
 11 42  1  1
 13 43  1  0
 14 44  1  0
 17 45  1  0
 18 46  1  0
 19 47  1  0
 20 48  1  0
 21 49  1  0
 24 50  1  0
 25 51  1  0
 27 52  1  0
 28 53  1  0
 29 54  1  0
 30 55  1  0
M  END
>  <smiles>  (9) 
O=C(NCC(=O)N1CCC[C@H]1c1c[nH]c(-c2ccccc2)n1)c1ccc2ccccc2n1

>  <score_type>  (9) 
oracle

>  <origin>  (9) 
autodockgpu

>  <m_score__min__energy>  (9) 
-9.75

>  <m_primary>  (9) 
energy

>  <rmsd>  (9) 
3.3190452726741166

>  <m_score__min__rmsd>  (9) 
3.3190452726741166

>  <meeko>  (9) 
{"free_energy": -8.67, "intermolecular_energy": -10.46, "internal_energy": -2.22, "cluster_size": 2, "cluster_id": 4, "rank_in_cluster": 2}

>  <energy>  (9) 
-8.91

>  <cluster_rmsd>  (9) 
0.33

>  <cluster>  (9) 
2

$$$$

     RDKit          3D

 55 59  0  0  0  0  0  0  0  0999 V2000
  139.6140   70.9410  221.3110 O   0  0  0  0  0  0  0  0  0  0  0  0
  139.5440   71.6800  222.3230 C   0  0  0  0  0  0  0  0  0  0  0  0
  139.2160   73.0560  222.1820 N   0  0  0  0  0  0  0  0  0  0  0  0
  138.9660   73.5900  220.8830 C   0  0  0  0  0  0  0  0  0  0  0  0
  138.5810   75.0240  220.8980 C   0  0  0  0  0  0  0  0  0  0  0  0
  138.5310   75.5680  222.0530 O   0  0  0  0  0  0  0  0  0  0  0  0
  138.2900   75.7360  219.7200 N   0  0  0  0  0  0  0  0  0  0  0  0
  136.9800   75.6900  219.0480 C   0  0  0  0  0  0  0  0  0  0  0  0
  136.9580   76.8970  218.1340 C   0  0  0  0  0  0  0  0  0  0  0  0
  138.1400   77.7180  218.5980 C   0  0  0  0  0  0  0  0  0  0  0  0
  139.1250   76.5950  218.9610 C   0  0  1  0  0  0  0  0  0  0  0  0
  140.2900   77.1590  219.6990 C   0  0  0  0  0  0  0  0  0  0  0  0
  141.6120   76.7760  219.6700 C   0  0  0  0  0  0  0  0  0  0  0  0
  142.3080   77.5880  220.5140 N   0  0  0  0  0  0  0  0  0  0  0  0
  141.4430   78.4630  221.0630 C   0  0  0  0  0  0  0  0  0  0  0  0
  141.7110   79.5320  222.0310 C   0  0  0  0  0  0  0  0  0  0  0  0
  140.8120   80.5880  222.2100 C   0  0  0  0  0  0  0  0  0  0  0  0
  141.0510   81.6010  223.1170 C   0  0  0  0  0  0  0  0  0  0  0  0
  142.2170   81.5560  223.8610 C   0  0  0  0  0  0  0  0  0  0  0  0
  143.1240   80.5150  223.6970 C   0  0  0  0  0  0  0  0  0  0  0  0
  142.8770   79.4970  222.7830 C   0  0  0  0  0  0  0  0  0  0  0  0
  140.2400   78.1910  220.5640 N   0  0  0  0  0  0  0  0  0  0  0  0
  139.8000   71.1330  223.6530 C   0  0  0  0  0  0  0  0  0  0  0  0
  139.5210   69.8040  223.9110 C   0  0  0  0  0  0  0  0  0  0  0  0
  139.7350   69.2210  225.1400 C   0  0  0  0  0  0  0  0  0  0  0  0
  140.2490   70.0070  226.1350 C   0  0  0  0  0  0  0  0  0  0  0  0
  140.4700   69.4370  227.3710 C   0  0  0  0  0  0  0  0  0  0  0  0
  140.9860   70.2440  228.3630 C   0  0  0  0  0  0  0  0  0  0  0  0
  141.2790   71.5810  228.1400 C   0  0  0  0  0  0  0  0  0  0  0  0
  141.0520   72.1290  226.9000 C   0  0  0  0  0  0  0  0  0  0  0  0
  140.5340   71.3390  225.8920 C   0  0  0  0  0  0  0  0  0  0  0  0
  140.3040   71.8670  224.6630 N   0  0  0  0  0  0  0  0  0  0  0  0
  139.1720   73.6280  223.0720 H   0  0  0  0  0  0  0  0  0  0  0  0
  139.8792   73.4806  220.2796 H   0  0  0  0  0  0  0  0  0  0  0  0
  138.1182   73.0310  220.4602 H   0  0  0  0  0  0  0  0  0  0  0  0
  136.8784   74.7629  218.4647 H   0  0  0  0  0  0  0  0  0  0  0  0
  136.1486   75.7053  219.7681 H   0  0  0  0  0  0  0  0  0  0  0  0
  137.0779   76.5956  217.0829 H   0  0  0  0  0  0  0  0  0  0  0  0
  136.0088   77.4509  218.1812 H   0  0  0  0  0  0  0  0  0  0  0  0
  138.5313   78.3593  217.7945 H   0  0  0  0  0  0  0  0  0  0  0  0
  137.9211   78.4218  219.4146 H   0  0  0  0  0  0  0  0  0  0  0  0
  139.5978   76.0634  218.1220 H   0  0  0  0  0  0  0  0  0  0  0  0
  142.0334   75.9564  219.0694 H   0  0  0  0  0  0  0  0  0  0  0  0
  143.3370   77.5410  220.7040 H   0  0  0  0  0  0  0  0  0  0  0  0
  139.8892   80.6122  221.6118 H   0  0  0  0  0  0  0  0  0  0  0  0
  140.3322   82.4238  223.2452 H   0  0  0  0  0  0  0  0  0  0  0  0
  142.4285   82.3523  224.5898 H   0  0  0  0  0  0  0  0  0  0  0  0
  144.0461   80.4967  224.2964 H   0  0  0  0  0  0  0  0  0  0  0  0
  143.5964   78.6744  222.6574 H   0  0  0  0  0  0  0  0  0  0  0  0
  139.1103   69.1854  223.0995 H   0  0  0  0  0  0  0  0  0  0  0  0
  139.5010   68.1606  225.3157 H   0  0  0  0  0  0  0  0  0  0  0  0
  140.2430   68.3772  227.5588 H   0  0  0  0  0  0  0  0  0  0  0  0
  141.1703   69.8152  229.3591 H   0  0  0  0  0  0  0  0  0  0  0  0
  141.6908   72.1996  228.9510 H   0  0  0  0  0  0  0  0  0  0  0  0
  141.2810   73.1883  226.7118 H   0  0  0  0  0  0  0  0  0  0  0  0
  1  2  2  0
  2  3  1  0
  3  4  1  0
  4  5  1  0
  5  6  2  0
  5  7  1  0
  7  8  1  0
  8  9  1  0
  9 10  1  0
 10 11  1  0
 11 12  1  0
 12 13  2  0
 13 14  1  0
 14 15  1  0
 15 16  1  0
 16 17  2  0
 17 18  1  0
 18 19  2  0
 19 20  1  0
 20 21  2  0
 15 22  2  0
  2 23  1  0
 23 24  2  0
 24 25  1  0
 25 26  2  0
 26 27  1  0
 27 28  2  0
 28 29  1  0
 29 30  2  0
 30 31  1  0
 31 32  2  0
 11  7  1  0
 22 12  1  0
 32 23  1  0
 21 16  1  0
 31 26  1  0
  3 33  1  0
  4 34  1  0
  4 35  1  0
  8 36  1  0
  8 37  1  0
  9 38  1  0
  9 39  1  0
 10 40  1  0
 10 41  1  0
 11 42  1  6
 13 43  1  0
 14 44  1  0
 17 45  1  0
 18 46  1  0
 19 47  1  0
 20 48  1  0
 21 49  1  0
 24 50  1  0
 25 51  1  0
 27 52  1  0
 28 53  1  0
 29 54  1  0
 30 55  1  0
M  END
>  <smiles>  (10) 
O=C(NCC(=O)N1CCC[C@H]1c1c[nH]c(-c2ccccc2)n1)c1ccc2ccccc2n1

>  <score_type>  (10) 
oracle

>  <origin>  (10) 
autodockgpu

>  <m_score__min__energy>  (10) 
-9.75

>  <m_primary>  (10) 
energy

>  <rmsd>  (10) 
2.3762412083821247

>  <m_score__min__rmsd>  (10) 
2.3762412083821247

>  <meeko>  (10) 
{"free_energy": -8.77, "intermolecular_energy": -10.56, "internal_energy": -2.04, "cluster_size": 2, "cluster_id": 4, "rank_in_cluster": 1}

>  <energy>  (10) 
-8.71

>  <cluster_rmsd>  (10) 
0.32

>  <cluster>  (10) 
2

$$$$

     RDKit          3D

 55 59  0  0  0  0  0  0  0  0999 V2000
  138.9930   70.4970  221.4450 O   0  0  0  0  0  0  0  0  0  0  0  0
  138.8310   71.2000  222.4710 C   0  0  0  0  0  0  0  0  0  0  0  0
  138.2130   72.4760  222.3730 N   0  0  0  0  0  0  0  0  0  0  0  0
  137.7780   72.9520  221.1000 C   0  0  0  0  0  0  0  0  0  0  0  0
  138.8920   73.3920  220.2220 C   0  0  0  0  0  0  0  0  0  0  0  0
  138.5430   73.9180  219.1120 O   0  0  0  0  0  0  0  0  0  0  0  0
  140.2420   73.2370  220.5870 N   0  0  0  0  0  0  0  0  0  0  0  0
  141.1450   72.2570  219.9590 C   0  0  0  0  0  0  0  0  0  0  0  0
  142.5430   72.7220  220.3060 C   0  0  0  0  0  0  0  0  0  0  0  0
  142.3310   74.1200  220.8420 C   0  0  0  0  0  0  0  0  0  0  0  0
  140.9910   73.9320  221.5710 C   0  0  1  0  0  0  0  0  0  0  0  0
  140.4370   75.2570  221.9680 C   0  0  0  0  0  0  0  0  0  0  0  0
  139.1300   75.6250  222.1960 C   0  0  0  0  0  0  0  0  0  0  0  0
  139.1140   76.9440  222.5360 N   0  0  0  0  0  0  0  0  0  0  0  0
  140.3830   77.3970  222.5230 C   0  0  0  0  0  0  0  0  0  0  0  0
  140.8780   78.7450  222.8190 C   0  0  0  0  0  0  0  0  0  0  0  0
  142.0860   78.9410  223.4960 C   0  0  0  0  0  0  0  0  0  0  0  0
  142.5650   80.2040  223.7810 C   0  0  0  0  0  0  0  0  0  0  0  0
  141.8170   81.2960  223.3790 C   0  0  0  0  0  0  0  0  0  0  0  0
  140.6130   81.1230  222.7060 C   0  0  0  0  0  0  0  0  0  0  0  0
  140.1370   79.8480  222.4200 C   0  0  0  0  0  0  0  0  0  0  0  0
  141.1610   76.3730  222.1810 N   0  0  0  0  0  0  0  0  0  0  0  0
  139.2760   70.7140  223.7750 C   0  0  0  0  0  0  0  0  0  0  0  0
  139.1400   69.3740  224.0880 C   0  0  0  0  0  0  0  0  0  0  0  0
  139.5360   68.8470  225.2960 C   0  0  0  0  0  0  0  0  0  0  0  0
  140.0870   69.7000  226.2130 C   0  0  0  0  0  0  0  0  0  0  0  0
  140.4890   69.1850  227.4270 C   0  0  0  0  0  0  0  0  0  0  0  0
  141.0410   70.0590  228.3400 C   0  0  0  0  0  0  0  0  0  0  0  0
  141.1930   71.4090  228.0600 C   0  0  0  0  0  0  0  0  0  0  0  0
  140.7860   71.9020  226.8420 C   0  0  0  0  0  0  0  0  0  0  0  0
  140.2300   71.0430  225.9140 C   0  0  0  0  0  0  0  0  0  0  0  0
  139.8230   71.5160  224.7080 N   0  0  0  0  0  0  0  0  0  0  0  0
  138.1030   73.0230  223.2740 H   0  0  0  0  0  0  0  0  0  0  0  0
  137.2333   72.1422  220.5926 H   0  0  0  0  0  0  0  0  0  0  0  0
  137.1420   73.8308  221.2823 H   0  0  0  0  0  0  0  0  0  0  0  0
  140.9623   71.2505  220.3633 H   0  0  0  0  0  0  0  0  0  0  0  0
  140.9913   72.1960  218.8715 H   0  0  0  0  0  0  0  0  0  0  0  0
  142.9942   72.0726  221.0707 H   0  0  0  0  0  0  0  0  0  0  0  0
  143.2282   72.6937  219.4460 H   0  0  0  0  0  0  0  0  0  0  0  0
  143.1330   74.4170  221.5339 H   0  0  0  0  0  0  0  0  0  0  0  0
  142.3336   74.9120  220.0786 H   0  0  0  0  0  0  0  0  0  0  0  0
  141.0205   73.3813  222.5228 H   0  0  0  0  0  0  0  0  0  0  0  0
  138.2513   74.9680  222.1173 H   0  0  0  0  0  0  0  0  0  0  0  0
  138.2640   77.5090  222.7690 H   0  0  0  0  0  0  0  0  0  0  0  0
  142.6710   78.0640  223.8103 H   0  0  0  0  0  0  0  0  0  0  0  0
  143.5176   80.3386  224.3144 H   0  0  0  0  0  0  0  0  0  0  0  0
  142.1788   82.3122  223.5942 H   0  0  0  0  0  0  0  0  0  0  0  0
  140.0309   82.0036  222.3965 H   0  0  0  0  0  0  0  0  0  0  0  0
  139.1853   79.7157  221.8844 H   0  0  0  0  0  0  0  0  0  0  0  0
  138.6965   68.7007  223.3397 H   0  0  0  0  0  0  0  0  0  0  0  0
  139.4137   67.7764  225.5169 H   0  0  0  0  0  0  0  0  0  0  0  0
  140.3737   68.1159  227.6590 H   0  0  0  0  0  0  0  0  0  0  0  0
  141.3697   69.6750  229.3170 H   0  0  0  0  0  0  0  0  0  0  0  0
  141.6368   72.0821  228.8083 H   0  0  0  0  0  0  0  0  0  0  0  0
  140.9022   72.9707  226.6091 H   0  0  0  0  0  0  0  0  0  0  0  0
  1  2  2  0
  2  3  1  0
  3  4  1  0
  4  5  1  0
  5  6  2  0
  5  7  1  0
  7  8  1  0
  8  9  1  0
  9 10  1  0
 10 11  1  0
 11 12  1  0
 12 13  2  0
 13 14  1  0
 14 15  1  0
 15 16  1  0
 16 17  2  0
 17 18  1  0
 18 19  2  0
 19 20  1  0
 20 21  2  0
 15 22  2  0
  2 23  1  0
 23 24  2  0
 24 25  1  0
 25 26  2  0
 26 27  1  0
 27 28  2  0
 28 29  1  0
 29 30  2  0
 30 31  1  0
 31 32  2  0
 11  7  1  0
 22 12  1  0
 32 23  1  0
 21 16  1  0
 31 26  1  0
  3 33  1  0
  4 34  1  0
  4 35  1  0
  8 36  1  0
  8 37  1  0
  9 38  1  0
  9 39  1  0
 10 40  1  0
 10 41  1  0
 11 42  1  1
 13 43  1  0
 14 44  1  0
 17 45  1  0
 18 46  1  0
 19 47  1  0
 20 48  1  0
 21 49  1  0
 24 50  1  0
 25 51  1  0
 27 52  1  0
 28 53  1  0
 29 54  1  0
 30 55  1  0
M  END
>  <smiles>  (11) 
O=C(NCC(=O)N1CCC[C@H]1c1c[nH]c(-c2ccccc2)n1)c1ccc2ccccc2n1

>  <score_type>  (11) 
oracle

>  <origin>  (11) 
autodockgpu

>  <m_score__min__energy>  (11) 
-9.75

>  <m_primary>  (11) 
energy

>  <rmsd>  (11) 
2.897068777125629

>  <m_score__min__rmsd>  (11) 
2.897068777125629

>  <meeko>  (11) 
{"free_energy": -9.05, "intermolecular_energy": -10.84, "internal_energy": -1.82, "cluster_size": 10, "cluster_id": 3, "rank_in_cluster": 5}

>  <energy>  (11) 
-9.15

>  <cluster_rmsd>  (11) 
0.0

>  <cluster>  (11) 
3

$$$$

     RDKit          3D

 55 59  0  0  0  0  0  0  0  0999 V2000
  138.7130   75.5630  221.8440 O   0  0  0  0  0  0  0  0  0  0  0  0
  139.8980   75.9650  221.9490 C   0  0  0  0  0  0  0  0  0  0  0  0
  140.9770   75.1000  221.6230 N   0  0  0  0  0  0  0  0  0  0  0  0
  140.7060   73.7730  221.1750 C   0  0  0  0  0  0  0  0  0  0  0  0
  141.7130   73.2560  220.2150 C   0  0  0  0  0  0  0  0  0  0  0  0
  141.2390   72.7140  219.1600 O   0  0  0  0  0  0  0  0  0  0  0  0
  143.0970   73.3560  220.4510 N   0  0  0  0  0  0  0  0  0  0  0  0
  143.9410   72.2050  220.8150 C   0  0  0  0  0  0  0  0  0  0  0  0
  145.3620   72.6480  220.5340 C   0  0  0  0  0  0  0  0  0  0  0  0
  145.1870   73.9150  219.7260 C   0  0  0  0  0  0  0  0  0  0  0  0
  143.9360   74.4980  220.4020 C   0  0  1  0  0  0  0  0  0  0  0  0
  143.4070   75.6360  219.5980 C   0  0  0  0  0  0  0  0  0  0  0  0
  143.5300   75.8860  218.2500 C   0  0  0  0  0  0  0  0  0  0  0  0
  142.8790   77.0500  217.9730 N   0  0  0  0  0  0  0  0  0  0  0  0
  142.3570   77.5230  219.1220 C   0  0  0  0  0  0  0  0  0  0  0  0
  141.5730   78.7420  219.3380 C   0  0  0  0  0  0  0  0  0  0  0  0
  142.1930   79.9870  219.4900 C   0  0  0  0  0  0  0  0  0  0  0  0
  141.4670   81.1430  219.6940 C   0  0  0  0  0  0  0  0  0  0  0  0
  140.0880   81.0510  219.7490 C   0  0  0  0  0  0  0  0  0  0  0  0
  139.4510   79.8250  219.6010 C   0  0  0  0  0  0  0  0  0  0  0  0
  140.1880   78.6640  219.3940 C   0  0  0  0  0  0  0  0  0  0  0  0
  142.6840   76.6640  220.0840 N   0  0  0  0  0  0  0  0  0  0  0  0
  140.1760   77.3240  222.4070 C   0  0  0  0  0  0  0  0  0  0  0  0
  139.1280   78.1590  222.7470 C   0  0  0  0  0  0  0  0  0  0  0  0
  139.3150   79.4500  223.1850 C   0  0  0  0  0  0  0  0  0  0  0  0
  140.6000   79.9090  223.2830 C   0  0  0  0  0  0  0  0  0  0  0  0
  140.8030   81.2010  223.7220 C   0  0  0  0  0  0  0  0  0  0  0  0
  142.1040   81.6470  223.8130 C   0  0  0  0  0  0  0  0  0  0  0  0
  143.1810   80.8370  223.4810 C   0  0  0  0  0  0  0  0  0  0  0  0
  142.9560   79.5520  223.0470 C   0  0  0  0  0  0  0  0  0  0  0  0
  141.6600   79.0850  222.9470 C   0  0  0  0  0  0  0  0  0  0  0  0
  141.4230   77.8190  222.5190 N   0  0  0  0  0  0  0  0  0  0  0  0
  141.9540   75.4970  221.7310 H   0  0  0  0  0  0  0  0  0  0  0  0
  140.6852   73.1072  222.0504 H   0  0  0  0  0  0  0  0  0  0  0  0
  139.7404   73.7996  220.6487 H   0  0  0  0  0  0  0  0  0  0  0  0
  143.8177   71.9580  221.8798 H   0  0  0  0  0  0  0  0  0  0  0  0
  143.6722   71.3027  220.2462 H   0  0  0  0  0  0  0  0  0  0  0  0
  145.9025   72.8509  221.4703 H   0  0  0  0  0  0  0  0  0  0  0  0
  145.9516   71.8833  220.0071 H   0  0  0  0  0  0  0  0  0  0  0  0
  146.0537   74.5849  219.8259 H   0  0  0  0  0  0  0  0  0  0  0  0
  145.0957   73.7612  218.6406 H   0  0  0  0  0  0  0  0  0  0  0  0
  144.0759   74.9423  221.3985 H   0  0  0  0  0  0  0  0  0  0  0  0
  144.0618   75.2551  217.5226 H   0  0  0  0  0  0  0  0  0  0  0  0
  142.7960   77.4990  217.0310 H   0  0  0  0  0  0  0  0  0  0  0  0
  143.2905   80.0462  219.4457 H   0  0  0  0  0  0  0  0  0  0  0  0
  141.9724   82.1131  219.8099 H   0  0  0  0  0  0  0  0  0  0  0  0
  139.4886   81.9589  219.9118 H   0  0  0  0  0  0  0  0  0  0  0  0
  138.3533   79.7723  219.6480 H   0  0  0  0  0  0  0  0  0  0  0  0
  139.6798   77.6956  219.2761 H   0  0  0  0  0  0  0  0  0  0  0  0
  138.1006   77.7749  222.6638 H   0  0  0  0  0  0  0  0  0  0  0  0
  138.4605   80.0910  223.4474 H   0  0  0  0  0  0  0  0  0  0  0  0
  139.9573   81.8516  223.9897 H   0  0  0  0  0  0  0  0  0  0  0  0
  142.2941   82.6739  224.1585 H   0  0  0  0  0  0  0  0  0  0  0  0
  144.2085   81.2208  223.5646 H   0  0  0  0  0  0  0  0  0  0  0  0
  143.8017   78.9007  222.7814 H   0  0  0  0  0  0  0  0  0  0  0  0
  1  2  2  0
  2  3  1  0
  3  4  1  0
  4  5  1  0
  5  6  2  0
  5  7  1  0
  7  8  1  0
  8  9  1  0
  9 10  1  0
 10 11  1  0
 11 12  1  0
 12 13  2  0
 13 14  1  0
 14 15  1  0
 15 16  1  0
 16 17  2  0
 17 18  1  0
 18 19  2  0
 19 20  1  0
 20 21  2  0
 15 22  2  0
  2 23  1  0
 23 24  2  0
 24 25  1  0
 25 26  2  0
 26 27  1  0
 27 28  2  0
 28 29  1  0
 29 30  2  0
 30 31  1  0
 31 32  2  0
 11  7  1  0
 22 12  1  0
 32 23  1  0
 21 16  1  0
 31 26  1  0
  3 33  1  0
  4 34  1  0
  4 35  1  0
  8 36  1  0
  8 37  1  0
  9 38  1  0
  9 39  1  0
 10 40  1  0
 10 41  1  0
 11 42  1  1
 13 43  1  0
 14 44  1  0
 17 45  1  0
 18 46  1  0
 19 47  1  0
 20 48  1  0
 21 49  1  0
 24 50  1  0
 25 51  1  0
 27 52  1  0
 28 53  1  0
 29 54  1  0
 30 55  1  0
M  END
>  <smiles>  (12) 
O=C(NCC(=O)N1CCC[C@H]1c1c[nH]c(-c2ccccc2)n1)c1ccc2ccccc2n1

>  <score_type>  (12) 
oracle

>  <origin>  (12) 
autodockgpu

>  <m_score__min__energy>  (12) 
-9.75

>  <m_primary>  (12) 
energy

>  <rmsd>  (12) 
7.095018713842864

>  <m_score__min__rmsd>  (12) 
7.095018713842864

>  <meeko>  (12) 
{"free_energy": -7.48, "intermolecular_energy": -9.27, "internal_energy": -4.3, "cluster_size": 19, "cluster_id": 5, "rank_in_cluster": 14}

>  <energy>  (12) 
-9.13

>  <cluster_rmsd>  (12) 
1.83

>  <cluster>  (12) 
3

$$$$

     RDKit          3D

 55 59  0  0  0  0  0  0  0  0999 V2000
  141.8950   77.6830  217.1650 O   0  0  0  0  0  0  0  0  0  0  0  0
  142.3430   77.3630  218.2920 C   0  0  0  0  0  0  0  0  0  0  0  0
  142.2350   78.2630  219.3870 N   0  0  0  0  0  0  0  0  0  0  0  0
  141.6120   79.5320  219.1960 C   0  0  0  0  0  0  0  0  0  0  0  0
  140.9720   80.0660  220.4240 C   0  0  0  0  0  0  0  0  0  0  0  0
  139.8160   80.5850  220.2610 O   0  0  0  0  0  0  0  0  0  0  0  0
  141.5980   80.0070  221.6830 N   0  0  0  0  0  0  0  0  0  0  0  0
  142.0970   81.1950  222.3970 C   0  0  0  0  0  0  0  0  0  0  0  0
  142.2640   80.7550  223.8360 C   0  0  0  0  0  0  0  0  0  0  0  0
  141.5390   79.4290  223.8900 C   0  0  0  0  0  0  0  0  0  0  0  0
  141.8750   78.8780  222.4950 C   0  0  1  0  0  0  0  0  0  0  0  0
  141.0430   77.6750  222.2100 C   0  0  0  0  0  0  0  0  0  0  0  0
  139.7290   77.4230  222.5330 C   0  0  0  0  0  0  0  0  0  0  0  0
  139.4050   76.1870  222.0620 N   0  0  0  0  0  0  0  0  0  0  0  0
  140.4910   75.6710  221.4560 C   0  0  0  0  0  0  0  0  0  0  0  0
  140.6410   74.3700  220.7960 C   0  0  0  0  0  0  0  0  0  0  0  0
  141.3390   73.3230  221.4060 C   0  0  0  0  0  0  0  0  0  0  0  0
  141.4880   72.0940  220.7970 C   0  0  0  0  0  0  0  0  0  0  0  0
  140.9250   71.9080  219.5470 C   0  0  0  0  0  0  0  0  0  0  0  0
  140.2280   72.9350  218.9220 C   0  0  0  0  0  0  0  0  0  0  0  0
  140.0800   74.1710  219.5410 C   0  0  0  0  0  0  0  0  0  0  0  0
  141.4620   76.5750  221.5540 N   0  0  0  0  0  0  0  0  0  0  0  0
  142.9820   76.0640  218.4880 C   0  0  0  0  0  0  0  0  0  0  0  0
  142.8650   75.0900  217.5130 C   0  0  0  0  0  0  0  0  0  0  0  0
  143.4390   73.8440  217.6300 C   0  0  0  0  0  0  0  0  0  0  0  0
  144.1520   73.5770  218.7670 C   0  0  0  0  0  0  0  0  0  0  0  0
  144.7330   72.3330  218.8970 C   0  0  0  0  0  0  0  0  0  0  0  0
  145.4480   72.0800  220.0490 C   0  0  0  0  0  0  0  0  0  0  0  0
  145.5860   73.0330  221.0480 C   0  0  0  0  0  0  0  0  0  0  0  0
  145.0000   74.2670  220.8970 C   0  0  0  0  0  0  0  0  0  0  0  0
  144.2780   74.5410  219.7510 C   0  0  0  0  0  0  0  0  0  0  0  0
  143.6940   75.7550  219.5890 N   0  0  0  0  0  0  0  0  0  0  0  0
  142.6320   77.9350  220.3130 H   0  0  0  0  0  0  0  0  0  0  0  0
  142.3764   80.2487  218.8615 H   0  0  0  0  0  0  0  0  0  0  0  0
  140.8162   79.3936  218.4493 H   0  0  0  0  0  0  0  0  0  0  0  0
  143.0614   81.5192  221.9788 H   0  0  0  0  0  0  0  0  0  0  0  0
  141.4081   82.0477  222.3061 H   0  0  0  0  0  0  0  0  0  0  0  0
  143.3276   80.6314  224.0878 H   0  0  0  0  0  0  0  0  0  0  0  0
  141.8685   81.4875  224.5551 H   0  0  0  0  0  0  0  0  0  0  0  0
  141.9314   78.7824  224.6887 H   0  0  0  0  0  0  0  0  0  0  0  0
  140.4638   79.4998  224.1114 H   0  0  0  0  0  0  0  0  0  0  0  0
  142.9010   78.5114  222.3434 H   0  0  0  0  0  0  0  0  0  0  0  0
  139.0568   78.1025  223.0775 H   0  0  0  0  0  0  0  0  0  0  0  0
  138.4730   75.7180  222.1550 H   0  0  0  0  0  0  0  0  0  0  0  0
  141.7820   73.4839  222.3999 H   0  0  0  0  0  0  0  0  0  0  0  0
  142.0406   71.2824  221.2929 H   0  0  0  0  0  0  0  0  0  0  0  0
  141.0303   70.9363  219.0422 H   0  0  0  0  0  0  0  0  0  0  0  0
  139.7889   72.7683  217.9273 H   0  0  0  0  0  0  0  0  0  0  0  0
  139.5260   74.9806  219.0435 H   0  0  0  0  0  0  0  0  0  0  0  0
  142.2886   75.3208  216.6050 H   0  0  0  0  0  0  0  0  0  0  0  0
  143.3283   73.0895  216.8372 H   0  0  0  0  0  0  0  0  0  0  0  0
  144.6300   71.5706  218.1108 H   0  0  0  0  0  0  0  0  0  0  0  0
  145.9218   71.0958  220.1793 H   0  0  0  0  0  0  0  0  0  0  0  0
  146.1616   72.8020  221.9565 H   0  0  0  0  0  0  0  0  0  0  0  0
  145.1049   75.0304  221.6820 H   0  0  0  0  0  0  0  0  0  0  0  0
  1  2  2  0
  2  3  1  0
  3  4  1  0
  4  5  1  0
  5  6  2  0
  5  7  1  0
  7  8  1  0
  8  9  1  0
  9 10  1  0
 10 11  1  0
 11 12  1  0
 12 13  2  0
 13 14  1  0
 14 15  1  0
 15 16  1  0
 16 17  2  0
 17 18  1  0
 18 19  2  0
 19 20  1  0
 20 21  2  0
 15 22  2  0
  2 23  1  0
 23 24  2  0
 24 25  1  0
 25 26  2  0
 26 27  1  0
 27 28  2  0
 28 29  1  0
 29 30  2  0
 30 31  1  0
 31 32  2  0
 11  7  1  0
 22 12  1  0
 32 23  1  0
 21 16  1  0
 31 26  1  0
  3 33  1  0
  4 34  1  0
  4 35  1  0
  8 36  1  0
  8 37  1  0
  9 38  1  0
  9 39  1  0
 10 40  1  0
 10 41  1  0
 11 42  1  1
 13 43  1  0
 14 44  1  0
 17 45  1  0
 18 46  1  0
 19 47  1  0
 20 48  1  0
 21 49  1  0
 24 50  1  0
 25 51  1  0
 27 52  1  0
 28 53  1  0
 29 54  1  0
 30 55  1  0
M  END
>  <smiles>  (13) 
O=C(NCC(=O)N1CCC[C@H]1c1c[nH]c(-c2ccccc2)n1)c1ccc2ccccc2n1

>  <score_type>  (13) 
oracle

>  <origin>  (13) 
autodockgpu

>  <m_score__min__energy>  (13) 
-9.75

>  <m_primary>  (13) 
energy

>  <rmsd>  (13) 
7.9962775837594

>  <m_score__min__rmsd>  (13) 
7.9962775837594

>  <meeko>  (13) 
{"free_energy": -6.52, "intermolecular_energy": -8.31, "internal_energy": -4.28, "cluster_size": 1, "cluster_id": 9, "rank_in_cluster": 1}

>  <energy>  (13) 
-9.09

>  <cluster_rmsd>  (13) 
1.75

>  <cluster>  (13) 
3

$$$$

     RDKit          3D

 55 59  0  0  0  0  0  0  0  0999 V2000
  141.4710   71.7860  221.6290 O   0  0  0  0  0  0  0  0  0  0  0  0
  140.6580   72.2530  222.4630 C   0  0  0  0  0  0  0  0  0  0  0  0
  140.0790   73.5340  222.2570 N   0  0  0  0  0  0  0  0  0  0  0  0
  140.4280   74.2860  221.0960 C   0  0  0  0  0  0  0  0  0  0  0  0
  139.5200   75.4320  220.8390 C   0  0  0  0  0  0  0  0  0  0  0  0
  138.4380   75.1490  220.2240 O   0  0  0  0  0  0  0  0  0  0  0  0
  139.8320   76.7430  221.2460 N   0  0  0  0  0  0  0  0  0  0  0  0
  139.1040   77.4550  222.3100 C   0  0  0  0  0  0  0  0  0  0  0  0
  140.0140   78.5930  222.7220 C   0  0  0  0  0  0  0  0  0  0  0  0
  141.3350   78.2460  222.0740 C   0  0  0  0  0  0  0  0  0  0  0  0
  140.8380   77.6170  220.7630 C   0  0  1  0  0  0  0  0  0  0  0  0
  141.9690   76.9510  220.0570 C   0  0  0  0  0  0  0  0  0  0  0  0
  142.6340   77.3340  218.9140 C   0  0  0  0  0  0  0  0  0  0  0  0
  143.5960   76.4070  218.6520 N   0  0  0  0  0  0  0  0  0  0  0  0
  143.5390   75.4600  219.6080 C   0  0  0  0  0  0  0  0  0  0  0  0
  144.3670   74.2590  219.7600 C   0  0  0  0  0  0  0  0  0  0  0  0
  144.2610   73.1880  218.8660 C   0  0  0  0  0  0  0  0  0  0  0  0
  145.0340   72.0520  218.9970 C   0  0  0  0  0  0  0  0  0  0  0  0
  145.9320   71.9850  220.0460 C   0  0  0  0  0  0  0  0  0  0  0  0
  146.0520   73.0370  220.9460 C   0  0  0  0  0  0  0  0  0  0  0  0
  145.2720   74.1810  220.8090 C   0  0  0  0  0  0  0  0  0  0  0  0
  142.5590   75.8020  220.4410 N   0  0  0  0  0  0  0  0  0  0  0  0
  140.3010   71.4840  223.6530 C   0  0  0  0  0  0  0  0  0  0  0  0
  139.5340   70.3410  223.5230 C   0  0  0  0  0  0  0  0  0  0  0  0
  139.1590   69.5680  224.5990 C   0  0  0  0  0  0  0  0  0  0  0  0
  139.5740   69.9640  225.8420 C   0  0  0  0  0  0  0  0  0  0  0  0
  139.2070   69.2000  226.9290 C   0  0  0  0  0  0  0  0  0  0  0  0
  139.6320   69.6140  228.1740 C   0  0  0  0  0  0  0  0  0  0  0  0
  140.4030   70.7550  228.3410 C   0  0  0  0  0  0  0  0  0  0  0  0
  140.7590   71.5020  227.2430 C   0  0  0  0  0  0  0  0  0  0  0  0
  140.3420   71.1060  225.9880 C   0  0  0  0  0  0  0  0  0  0  0  0
  140.6860   71.8340  224.8950 N   0  0  0  0  0  0  0  0  0  0  0  0
  139.4000   73.8740  222.9960 H   0  0  0  0  0  0  0  0  0  0  0  0
  141.4494   74.6731  221.2257 H   0  0  0  0  0  0  0  0  0  0  0  0
  140.3458   73.6078  220.2338 H   0  0  0  0  0  0  0  0  0  0  0  0
  138.1482   77.8441  221.9293 H   0  0  0  0  0  0  0  0  0  0  0  0
  138.8636   76.7944  223.1561 H   0  0  0  0  0  0  0  0  0  0  0  0
  139.6338   79.5549  222.3476 H   0  0  0  0  0  0  0  0  0  0  0  0
  140.0903   78.7048  223.8136 H   0  0  0  0  0  0  0  0  0  0  0  0
  141.9463   79.1418  221.8900 H   0  0  0  0  0  0  0  0  0  0  0  0
  141.9890   77.5991  222.6772 H   0  0  0  0  0  0  0  0  0  0  0  0
  140.4446   78.3077  220.0026 H   0  0  0  0  0  0  0  0  0  0  0  0
  142.4244   78.2332  218.3161 H   0  0  0  0  0  0  0  0  0  0  0  0
  144.2650   76.4250  217.8470 H   0  0  0  0  0  0  0  0  0  0  0  0
  143.5420   73.2531  218.0361 H   0  0  0  0  0  0  0  0  0  0  0  0
  144.9378   71.2200  218.2839 H   0  0  0  0  0  0  0  0  0  0  0  0
  146.5583   71.0892  220.1696 H   0  0  0  0  0  0  0  0  0  0  0  0
  146.7711   72.9646  221.7753 H   0  0  0  0  0  0  0  0  0  0  0  0
  145.3714   75.0123  221.5225 H   0  0  0  0  0  0  0  0  0  0  0  0
  139.2095   70.0362  222.5171 H   0  0  0  0  0  0  0  0  0  0  0  0
  138.5472   68.6638  224.4645 H   0  0  0  0  0  0  0  0  0  0  0  0
  138.5970   68.2927  226.8078 H   0  0  0  0  0  0  0  0  0  0  0  0
  139.3520   69.0233  229.0587 H   0  0  0  0  0  0  0  0  0  0  0  0
  140.7278   71.0605  229.3466 H   0  0  0  0  0  0  0  0  0  0  0  0
  141.3712   72.4079  227.3636 H   0  0  0  0  0  0  0  0  0  0  0  0
  1  2  2  0
  2  3  1  0
  3  4  1  0
  4  5  1  0
  5  6  2  0
  5  7  1  0
  7  8  1  0
  8  9  1  0
  9 10  1  0
 10 11  1  0
 11 12  1  0
 12 13  2  0
 13 14  1  0
 14 15  1  0
 15 16  1  0
 16 17  2  0
 17 18  1  0
 18 19  2  0
 19 20  1  0
 20 21  2  0
 15 22  2  0
  2 23  1  0
 23 24  2  0
 24 25  1  0
 25 26  2  0
 26 27  1  0
 27 28  2  0
 28 29  1  0
 29 30  2  0
 30 31  1  0
 31 32  2  0
 11  7  1  0
 22 12  1  0
 32 23  1  0
 21 16  1  0
 31 26  1  0
  3 33  1  0
  4 34  1  0
  4 35  1  0
  8 36  1  0
  8 37  1  0
  9 38  1  0
  9 39  1  0
 10 40  1  0
 10 41  1  0
 11 42  1  6
 13 43  1  0
 14 44  1  0
 17 45  1  0
 18 46  1  0
 19 47  1  0
 20 48  1  0
 21 49  1  0
 24 50  1  0
 25 51  1  0
 27 52  1  0
 28 53  1  0
 29 54  1  0
 30 55  1  0
M  END
>  <smiles>  (14) 
O=C(NCC(=O)N1CCC[C@H]1c1c[nH]c(-c2ccccc2)n1)c1ccc2ccccc2n1

>  <score_type>  (14) 
oracle

>  <origin>  (14) 
autodockgpu

>  <m_score__min__energy>  (14) 
-9.75

>  <m_primary>  (14) 
energy

>  <rmsd>  (14) 
5.438687534715428

>  <m_score__min__rmsd>  (14) 
5.438687534715428

>  <meeko>  (14) 
{"free_energy": -9.54, "intermolecular_energy": -11.33, "internal_energy": -1.5, "cluster_size": 5, "cluster_id": 1, "rank_in_cluster": 3}

>  <energy>  (14) 
-9.06

>  <cluster_rmsd>  (14) 
1.74

>  <cluster>  (14) 
3

$$$$

     RDKit          3D

 55 59  0  0  0  0  0  0  0  0999 V2000
  138.7630   75.4930  221.9970 O   0  0  0  0  0  0  0  0  0  0  0  0
  139.9390   75.9240  222.0700 C   0  0  0  0  0  0  0  0  0  0  0  0
  141.0320   75.0760  221.7450 N   0  0  0  0  0  0  0  0  0  0  0  0
  140.7840   73.7330  221.3340 C   0  0  0  0  0  0  0  0  0  0  0  0
  141.7080   73.2590  220.2730 C   0  0  0  0  0  0  0  0  0  0  0  0
  141.1490   72.8230  219.2110 O   0  0  0  0  0  0  0  0  0  0  0  0
  143.1070   73.2860  220.4290 N   0  0  0  0  0  0  0  0  0  0  0  0
  143.9110   72.0920  220.7390 C   0  0  0  0  0  0  0  0  0  0  0  0
  145.3340   72.4640  220.3770 C   0  0  0  0  0  0  0  0  0  0  0  0
  145.1770   73.7430  219.5850 C   0  0  0  0  0  0  0  0  0  0  0  0
  143.9990   74.3850  220.3340 C   0  0  1  0  0  0  0  0  0  0  0  0
  143.4830   75.5530  219.5670 C   0  0  0  0  0  0  0  0  0  0  0  0
  143.6640   75.8770  218.2410 C   0  0  0  0  0  0  0  0  0  0  0  0
  143.0000   77.0410  217.9940 N   0  0  0  0  0  0  0  0  0  0  0  0
  142.4150   77.4410  219.1390 C   0  0  0  0  0  0  0  0  0  0  0  0
  141.5930   78.6320  219.3800 C   0  0  0  0  0  0  0  0  0  0  0  0
  142.1770   79.8840  219.5980 C   0  0  0  0  0  0  0  0  0  0  0  0
  141.4160   81.0120  219.8270 C   0  0  0  0  0  0  0  0  0  0  0  0
  140.0390   80.8850  219.8380 C   0  0  0  0  0  0  0  0  0  0  0  0
  139.4380   79.6500  219.6250 C   0  0  0  0  0  0  0  0  0  0  0  0
  140.2100   78.5160  219.3940 C   0  0  0  0  0  0  0  0  0  0  0  0
  142.7140   76.5390  220.0700 N   0  0  0  0  0  0  0  0  0  0  0  0
  140.1950   77.2990  222.4920 C   0  0  0  0  0  0  0  0  0  0  0  0
  139.1320   78.1300  222.7940 C   0  0  0  0  0  0  0  0  0  0  0  0
  139.2970   79.4360  223.1970 C   0  0  0  0  0  0  0  0  0  0  0  0
  140.5750   79.9140  223.2960 C   0  0  0  0  0  0  0  0  0  0  0  0
  140.7560   81.2210  223.6980 C   0  0  0  0  0  0  0  0  0  0  0  0
  142.0500   81.6870  223.7920 C   0  0  0  0  0  0  0  0  0  0  0  0
  143.1410   80.8820  223.4960 C   0  0  0  0  0  0  0  0  0  0  0  0
  142.9380   79.5810  223.0980 C   0  0  0  0  0  0  0  0  0  0  0  0
  141.6490   79.0950  222.9960 C   0  0  0  0  0  0  0  0  0  0  0  0
  141.4340   77.8140  222.6030 N   0  0  0  0  0  0  0  0  0  0  0  0
  142.0010   75.4970  221.8250 H   0  0  0  0  0  0  0  0  0  0  0  0
  140.8919   73.0754  222.2091 H   0  0  0  0  0  0  0  0  0  0  0  0
  139.7675   73.7051  220.9145 H   0  0  0  0  0  0  0  0  0  0  0  0
  143.8374   71.8448  221.8083 H   0  0  0  0  0  0  0  0  0  0  0  0
  143.5640   71.2082  220.1837 H   0  0  0  0  0  0  0  0  0  0  0  0
  145.9377   72.6334  221.2808 H   0  0  0  0  0  0  0  0  0  0  0  0
  145.8523   71.6737  219.8141 H   0  0  0  0  0  0  0  0  0  0  0  0
  146.0811   74.3674  219.6364 H   0  0  0  0  0  0  0  0  0  0  0  0
  145.0148   73.6004  218.5064 H   0  0  0  0  0  0  0  0  0  0  0  0
  144.2192   74.8162  221.3217 H   0  0  0  0  0  0  0  0  0  0  0  0
  144.2440   75.2968  217.5082 H   0  0  0  0  0  0  0  0  0  0  0  0
  142.9530   77.5380  217.0740 H   0  0  0  0  0  0  0  0  0  0  0  0
  143.2734   79.9719  219.5866 H   0  0  0  0  0  0  0  0  0  0  0  0
  141.8931   81.9885  219.9967 H   0  0  0  0  0  0  0  0  0  0  0  0
  139.4124   81.7712  220.0173 H   0  0  0  0  0  0  0  0  0  0  0  0
  138.3411   79.5684  219.6392 H   0  0  0  0  0  0  0  0  0  0  0  0
  139.7308   77.5405  219.2247 H   0  0  0  0  0  0  0  0  0  0  0  0
  138.1107   77.7305  222.7086 H   0  0  0  0  0  0  0  0  0  0  0  0
  138.4314   80.0730  223.4313 H   0  0  0  0  0  0  0  0  0  0  0  0
  139.8987   81.8682  223.9350 H   0  0  0  0  0  0  0  0  0  0  0  0
  142.2225   82.7257  224.1105 H   0  0  0  0  0  0  0  0  0  0  0  0
  144.1623   81.2820  223.5792 H   0  0  0  0  0  0  0  0  0  0  0  0
  143.7952   78.9329  222.8629 H   0  0  0  0  0  0  0  0  0  0  0  0
  1  2  2  0
  2  3  1  0
  3  4  1  0
  4  5  1  0
  5  6  2  0
  5  7  1  0
  7  8  1  0
  8  9  1  0
  9 10  1  0
 10 11  1  0
 11 12  1  0
 12 13  2  0
 13 14  1  0
 14 15  1  0
 15 16  1  0
 16 17  2  0
 17 18  1  0
 18 19  2  0
 19 20  1  0
 20 21  2  0
 15 22  2  0
  2 23  1  0
 23 24  2  0
 24 25  1  0
 25 26  2  0
 26 27  1  0
 27 28  2  0
 28 29  1  0
 29 30  2  0
 30 31  1  0
 31 32  2  0
 11  7  1  0
 22 12  1  0
 32 23  1  0
 21 16  1  0
 31 26  1  0
  3 33  1  0
  4 34  1  0
  4 35  1  0
  8 36  1  0
  8 37  1  0
  9 38  1  0
  9 39  1  0
 10 40  1  0
 10 41  1  0
 11 42  1  1
 13 43  1  0
 14 44  1  0
 17 45  1  0
 18 46  1  0
 19 47  1  0
 20 48  1  0
 21 49  1  0
 24 50  1  0
 25 51  1  0
 27 52  1  0
 28 53  1  0
 29 54  1  0
 30 55  1  0
M  END
>  <smiles>  (15) 
O=C(NCC(=O)N1CCC[C@H]1c1c[nH]c(-c2ccccc2)n1)c1ccc2ccccc2n1

>  <score_type>  (15) 
oracle

>  <origin>  (15) 
autodockgpu

>  <m_score__min__energy>  (15) 
-9.75

>  <m_primary>  (15) 
energy

>  <rmsd>  (15) 
7.1089606591877

>  <m_score__min__rmsd>  (15) 
7.1089606591877

>  <meeko>  (15) 
{"free_energy": -7.46, "intermolecular_energy": -9.25, "internal_energy": -4.31, "cluster_size": 19, "cluster_id": 5, "rank_in_cluster": 15}

>  <energy>  (15) 
-9.05

>  <cluster_rmsd>  (15) 
1.8

>  <cluster>  (15) 
3

$$$$

     RDKit          3D

 55 59  0  0  0  0  0  0  0  0999 V2000
  140.8650   70.7710  221.3640 O   0  0  0  0  0  0  0  0  0  0  0  0
  140.5420   71.4780  222.3490 C   0  0  0  0  0  0  0  0  0  0  0  0
  140.4220   72.8870  222.2080 N   0  0  0  0  0  0  0  0  0  0  0  0
  140.6720   73.4920  220.9410 C   0  0  0  0  0  0  0  0  0  0  0  0
  140.8820   74.9600  221.0170 C   0  0  0  0  0  0  0  0  0  0  0  0
  140.3490   75.5400  222.0220 O   0  0  0  0  0  0  0  0  0  0  0  0
  141.6190   75.6640  220.0470 N   0  0  0  0  0  0  0  0  0  0  0  0
  141.3550   77.0690  219.6910 C   0  0  0  0  0  0  0  0  0  0  0  0
  142.6070   77.5440  218.9840 C   0  0  0  0  0  0  0  0  0  0  0  0
  143.6160   76.4560  219.2770 C   0  0  0  0  0  0  0  0  0  0  0  0
  142.7020   75.2210  219.2460 C   0  0  1  0  0  0  0  0  0  0  0  0
  143.4330   74.0330  219.7720 C   0  0  0  0  0  0  0  0  0  0  0  0
  144.2920   73.9390  220.8430 C   0  0  0  0  0  0  0  0  0  0  0  0
  144.7140   72.6480  220.9370 N   0  0  0  0  0  0  0  0  0  0  0  0
  144.1350   71.9440  219.9460 C   0  0  0  0  0  0  0  0  0  0  0  0
  144.2760   70.5190  219.6300 C   0  0  0  0  0  0  0  0  0  0  0  0
  143.1750   69.6560  219.6620 C   0  0  0  0  0  0  0  0  0  0  0  0
  143.2940   68.3130  219.3680 C   0  0  0  0  0  0  0  0  0  0  0  0
  144.5420   67.8220  219.0330 C   0  0  0  0  0  0  0  0  0  0  0  0
  145.6490   68.6610  218.9950 C   0  0  0  0  0  0  0  0  0  0  0  0
  145.5240   70.0140  219.2920 C   0  0  0  0  0  0  0  0  0  0  0  0
  143.3710   72.7890  219.2580 N   0  0  0  0  0  0  0  0  0  0  0  0
  140.2870   70.8590  223.6470 C   0  0  0  0  0  0  0  0  0  0  0  0
  139.5410   69.6980  223.7170 C   0  0  0  0  0  0  0  0  0  0  0  0
  139.2600   69.0610  224.9050 C   0  0  0  0  0  0  0  0  0  0  0  0
  139.7510   69.6160  226.0550 C   0  0  0  0  0  0  0  0  0  0  0  0
  139.4790   68.9880  227.2530 C   0  0  0  0  0  0  0  0  0  0  0  0
  139.9800   69.5610  228.4020 C   0  0  0  0  0  0  0  0  0  0  0  0
  140.7330   70.7260  228.3710 C   0  0  0  0  0  0  0  0  0  0  0  0
  140.9940   71.3350  227.1650 C   0  0  0  0  0  0  0  0  0  0  0  0
  140.5000   70.7780  226.0020 C   0  0  0  0  0  0  0  0  0  0  0  0
  140.7490   71.3690  224.8060 N   0  0  0  0  0  0  0  0  0  0  0  0
  140.1470   73.4300  223.0750 H   0  0  0  0  0  0  0  0  0  0  0  0
  141.5731   73.0333  220.5078 H   0  0  0  0  0  0  0  0  0  0  0  0
  139.7793   73.3244  220.3205 H   0  0  0  0  0  0  0  0  0  0  0  0
  140.4844   77.1400  219.0223 H   0  0  0  0  0  0  0  0  0  0  0  0
  141.1269   77.6806  220.5764 H   0  0  0  0  0  0  0  0  0  0  0  0
  142.4348   77.6387  217.9017 H   0  0  0  0  0  0  0  0  0  0  0  0
  142.9385   78.5366  219.3229 H   0  0  0  0  0  0  0  0  0  0  0  0
  144.3961   76.4049  218.5032 H   0  0  0  0  0  0  0  0  0  0  0  0
  144.1795   76.5893  220.2123 H   0  0  0  0  0  0  0  0  0  0  0  0
  142.3626   74.8839  218.2555 H   0  0  0  0  0  0  0  0  0  0  0  0
  144.5867   74.7641  221.5081 H   0  0  0  0  0  0  0  0  0  0  0  0
  145.3750   72.2670  221.6540 H   0  0  0  0  0  0  0  0  0  0  0  0
  142.1871   70.0594  219.9290 H   0  0  0  0  0  0  0  0  0  0  0  0
  142.4172   67.6494  219.3994 H   0  0  0  0  0  0  0  0  0  0  0  0
  144.6601   66.7548  218.7938 H   0  0  0  0  0  0  0  0  0  0  0  0
  146.6340   68.2510  218.7273 H   0  0  0  0  0  0  0  0  0  0  0  0
  146.4025   70.6752  219.2595 H   0  0  0  0  0  0  0  0  0  0  0  0
  139.1548   69.2637  222.7830 H   0  0  0  0  0  0  0  0  0  0  0  0
  138.6617   68.1382  224.9285 H   0  0  0  0  0  0  0  0  0  0  0  0
  138.8839   68.0636  227.2898 H   0  0  0  0  0  0  0  0  0  0  0  0
  139.7772   69.0812  229.3709 H   0  0  0  0  0  0  0  0  0  0  0  0
  141.1191   71.1602  229.3050 H   0  0  0  0  0  0  0  0  0  0  0  0
  141.5913   72.2580  227.1276 H   0  0  0  0  0  0  0  0  0  0  0  0
  1  2  2  0
  2  3  1  0
  3  4  1  0
  4  5  1  0
  5  6  2  0
  5  7  1  0
  7  8  1  0
  8  9  1  0
  9 10  1  0
 10 11  1  0
 11 12  1  0
 12 13  2  0
 13 14  1  0
 14 15  1  0
 15 16  1  0
 16 17  2  0
 17 18  1  0
 18 19  2  0
 19 20  1  0
 20 21  2  0
 15 22  2  0
  2 23  1  0
 23 24  2  0
 24 25  1  0
 25 26  2  0
 26 27  1  0
 27 28  2  0
 28 29  1  0
 29 30  2  0
 30 31  1  0
 31 32  2  0
 11  7  1  0
 22 12  1  0
 32 23  1  0
 21 16  1  0
 31 26  1  0
  3 33  1  0
  4 34  1  0
  4 35  1  0
  8 36  1  0
  8 37  1  0
  9 38  1  0
  9 39  1  0
 10 40  1  0
 10 41  1  0
 11 42  1  6
 13 43  1  0
 14 44  1  0
 17 45  1  0
 18 46  1  0
 19 47  1  0
 20 48  1  0
 21 49  1  0
 24 50  1  0
 25 51  1  0
 27 52  1  0
 28 53  1  0
 29 54  1  0
 30 55  1  0
M  END
>  <smiles>  (16) 
O=C(NCC(=O)N1CCC[C@H]1c1c[nH]c(-c2ccccc2)n1)c1ccc2ccccc2n1

>  <score_type>  (16) 
oracle

>  <origin>  (16) 
autodockgpu

>  <m_score__min__energy>  (16) 
-9.75

>  <m_primary>  (16) 
energy

>  <rmsd>  (16) 
6.605682401253587

>  <m_score__min__rmsd>  (16) 
6.605682401253587

>  <meeko>  (16) 
{"free_energy": -8.71, "intermolecular_energy": -10.5, "internal_energy": -2.23, "cluster_size": 5, "cluster_id": 2, "rank_in_cluster": 5}

>  <energy>  (16) 
-8.99

>  <cluster_rmsd>  (16) 
1.77

>  <cluster>  (16) 
3

$$$$

     RDKit          3D

 55 59  0  0  0  0  0  0  0  0999 V2000
  138.9990   70.4760  221.4590 O   0  0  0  0  0  0  0  0  0  0  0  0
  138.8530   71.1880  222.4810 C   0  0  0  0  0  0  0  0  0  0  0  0
  138.2490   72.4700  222.3790 N   0  0  0  0  0  0  0  0  0  0  0  0
  137.8100   72.9430  221.1070 C   0  0  0  0  0  0  0  0  0  0  0  0
  138.9230   73.3400  220.2080 C   0  0  0  0  0  0  0  0  0  0  0  0
  138.5730   73.8080  219.0730 O   0  0  0  0  0  0  0  0  0  0  0  0
  140.2730   73.2080  220.5820 N   0  0  0  0  0  0  0  0  0  0  0  0
  141.1950   72.2390  219.9640 C   0  0  0  0  0  0  0  0  0  0  0  0
  142.5840   72.7280  220.3170 C   0  0  0  0  0  0  0  0  0  0  0  0
  142.3470   74.1260  220.8440 C   0  0  0  0  0  0  0  0  0  0  0  0
  141.0060   73.9200  221.5660 C   0  0  1  0  0  0  0  0  0  0  0  0
  140.4290   75.2390  221.9530 C   0  0  0  0  0  0  0  0  0  0  0  0
  139.1100   75.6070  222.0980 C   0  0  0  0  0  0  0  0  0  0  0  0
  139.0740   76.9180  222.4650 N   0  0  0  0  0  0  0  0  0  0  0  0
  140.3410   77.3660  222.5490 C   0  0  0  0  0  0  0  0  0  0  0  0
  140.8180   78.7060  222.9070 C   0  0  0  0  0  0  0  0  0  0  0  0
  142.1820   78.9720  223.0640 C   0  0  0  0  0  0  0  0  0  0  0  0
  142.6460   80.2280  223.4000 C   0  0  0  0  0  0  0  0  0  0  0  0
  141.7220   81.2410  223.5850 C   0  0  0  0  0  0  0  0  0  0  0  0
  140.3620   80.9980  223.4350 C   0  0  0  0  0  0  0  0  0  0  0  0
  139.9010   79.7310  223.0940 C   0  0  0  0  0  0  0  0  0  0  0  0
  141.1390   76.3470  222.2390 N   0  0  0  0  0  0  0  0  0  0  0  0
  139.3030   70.7050  223.7850 C   0  0  0  0  0  0  0  0  0  0  0  0
  139.1760   69.3640  224.0980 C   0  0  0  0  0  0  0  0  0  0  0  0
  139.5770   68.8400  225.3060 C   0  0  0  0  0  0  0  0  0  0  0  0
  140.1230   69.6970  226.2220 C   0  0  0  0  0  0  0  0  0  0  0  0
  140.5290   69.1850  227.4370 C   0  0  0  0  0  0  0  0  0  0  0  0
  141.0760   70.0630  228.3490 C   0  0  0  0  0  0  0  0  0  0  0  0
  141.2190   71.4140  228.0690 C   0  0  0  0  0  0  0  0  0  0  0  0
  140.8080   71.9030  226.8510 C   0  0  0  0  0  0  0  0  0  0  0  0
  140.2560   71.0410  225.9230 C   0  0  0  0  0  0  0  0  0  0  0  0
  139.8450   71.5100  224.7180 N   0  0  0  0  0  0  0  0  0  0  0  0
  138.1530   73.0240  223.2780 H   0  0  0  0  0  0  0  0  0  0  0  0
  137.2349   72.1433  220.6174 H   0  0  0  0  0  0  0  0  0  0  0  0
  137.2025   73.8421  221.2874 H   0  0  0  0  0  0  0  0  0  0  0  0
  141.0258   71.2317  220.3723 H   0  0  0  0  0  0  0  0  0  0  0  0
  141.0487   72.1701  218.8760 H   0  0  0  0  0  0  0  0  0  0  0  0
  143.0406   72.0900  221.0880 H   0  0  0  0  0  0  0  0  0  0  0  0
  143.2748   72.7057  219.4612 H   0  0  0  0  0  0  0  0  0  0  0  0
  143.1400   74.4395  221.5389 H   0  0  0  0  0  0  0  0  0  0  0  0
  142.3418   74.9140  220.0765 H   0  0  0  0  0  0  0  0  0  0  0  0
  141.0389   73.3741  222.5204 H   0  0  0  0  0  0  0  0  0  0  0  0
  138.2372   74.9554  221.9442 H   0  0  0  0  0  0  0  0  0  0  0  0
  138.2110   77.4810  222.6510 H   0  0  0  0  0  0  0  0  0  0  0  0
  142.9058   78.1571  222.9155 H   0  0  0  0  0  0  0  0  0  0  0  0
  143.7230   80.4186  223.5176 H   0  0  0  0  0  0  0  0  0  0  0  0
  142.0678   82.2500  223.8539 H   0  0  0  0  0  0  0  0  0  0  0  0
  139.6427   81.8162  223.5875 H   0  0  0  0  0  0  0  0  0  0  0  0
  138.8237   79.5436  222.9740 H   0  0  0  0  0  0  0  0  0  0  0  0
  138.7361   68.6877  223.3503 H   0  0  0  0  0  0  0  0  0  0  0  0
  139.4623   67.7686  225.5273 H   0  0  0  0  0  0  0  0  0  0  0  0
  140.4204   68.1154  227.6698 H   0  0  0  0  0  0  0  0  0  0  0  0
  141.4082   69.6813  229.3257 H   0  0  0  0  0  0  0  0  0  0  0  0
  141.6586   72.0904  228.8168 H   0  0  0  0  0  0  0  0  0  0  0  0
  140.9179   72.9723  226.6174 H   0  0  0  0  0  0  0  0  0  0  0  0
  1  2  2  0
  2  3  1  0
  3  4  1  0
  4  5  1  0
  5  6  2  0
  5  7  1  0
  7  8  1  0
  8  9  1  0
  9 10  1  0
 10 11  1  0
 11 12  1  0
 12 13  2  0
 13 14  1  0
 14 15  1  0
 15 16  1  0
 16 17  2  0
 17 18  1  0
 18 19  2  0
 19 20  1  0
 20 21  2  0
 15 22  2  0
  2 23  1  0
 23 24  2  0
 24 25  1  0
 25 26  2  0
 26 27  1  0
 27 28  2  0
 28 29  1  0
 29 30  2  0
 30 31  1  0
 31 32  2  0
 11  7  1  0
 22 12  1  0
 32 23  1  0
 21 16  1  0
 31 26  1  0
  3 33  1  0
  4 34  1  0
  4 35  1  0
  8 36  1  0
  8 37  1  0
  9 38  1  0
  9 39  1  0
 10 40  1  0
 10 41  1  0
 11 42  1  1
 13 43  1  0
 14 44  1  0
 17 45  1  0
 18 46  1  0
 19 47  1  0
 20 48  1  0
 21 49  1  0
 24 50  1  0
 25 51  1  0
 27 52  1  0
 28 53  1  0
 29 54  1  0
 30 55  1  0
M  END
>  <smiles>  (17) 
O=C(NCC(=O)N1CCC[C@H]1c1c[nH]c(-c2ccccc2)n1)c1ccc2ccccc2n1

>  <score_type>  (17) 
oracle

>  <origin>  (17) 
autodockgpu

>  <m_score__min__energy>  (17) 
-9.75

>  <m_primary>  (17) 
energy

>  <rmsd>  (17) 
2.9998269513153026

>  <m_score__min__rmsd>  (17) 
2.9998269513153026

>  <meeko>  (17) 
{"free_energy": -9.13, "intermolecular_energy": -10.92, "internal_energy": -1.78, "cluster_size": 10, "cluster_id": 3, "rank_in_cluster": 2}

>  <energy>  (17) 
-8.69

>  <cluster_rmsd>  (17) 
1.67

>  <cluster>  (17) 
3

$$$$

     RDKit          3D

 55 59  0  0  0  0  0  0  0  0999 V2000
  140.4790   72.7420  222.1200 O   0  0  0  0  0  0  0  0  0  0  0  0
  139.6550   71.9270  222.6000 C   0  0  0  0  0  0  0  0  0  0  0  0
  138.4400   71.6530  221.9160 N   0  0  0  0  0  0  0  0  0  0  0  0
  138.1640   72.3090  220.6800 C   0  0  0  0  0  0  0  0  0  0  0  0
  138.1420   73.7900  220.7890 C   0  0  0  0  0  0  0  0  0  0  0  0
  139.0550   74.4030  220.1420 O   0  0  0  0  0  0  0  0  0  0  0  0
  137.1790   74.4710  221.5570 N   0  0  0  0  0  0  0  0  0  0  0  0
  135.8620   73.9030  221.8950 C   0  0  0  0  0  0  0  0  0  0  0  0
  135.3570   74.7320  223.0570 C   0  0  0  0  0  0  0  0  0  0  0  0
  136.5770   75.5100  223.4980 C   0  0  0  0  0  0  0  0  0  0  0  0
  137.2440   75.7640  222.1360 C   0  0  1  0  0  0  0  0  0  0  0  0
  138.6200   76.2990  222.3360 C   0  0  0  0  0  0  0  0  0  0  0  0
  139.8250   75.6330  222.3390 C   0  0  0  0  0  0  0  0  0  0  0  0
  140.8120   76.5440  222.5620 N   0  0  0  0  0  0  0  0  0  0  0  0
  140.2430   77.7570  222.6960 C   0  0  0  0  0  0  0  0  0  0  0  0
  140.8870   79.0500  222.9480 C   0  0  0  0  0  0  0  0  0  0  0  0
  140.2780   80.2500  222.5670 C   0  0  0  0  0  0  0  0  0  0  0  0
  140.8730   81.4740  222.7980 C   0  0  0  0  0  0  0  0  0  0  0  0
  142.1070   81.4970  223.4230 C   0  0  0  0  0  0  0  0  0  0  0  0
  142.7300   80.3160  223.8090 C   0  0  0  0  0  0  0  0  0  0  0  0
  142.1250   79.0860  223.5750 C   0  0  0  0  0  0  0  0  0  0  0  0
  138.9300   77.5910  222.5580 N   0  0  0  0  0  0  0  0  0  0  0  0
  139.9360   71.2550  223.8670 C   0  0  0  0  0  0  0  0  0  0  0  0
  140.7150   71.8880  224.8180 C   0  0  0  0  0  0  0  0  0  0  0  0
  141.0220   71.3150  226.0310 C   0  0  0  0  0  0  0  0  0  0  0  0
  140.5250   70.0670  226.2900 C   0  0  0  0  0  0  0  0  0  0  0  0
  140.8240   69.4810  227.5020 C   0  0  0  0  0  0  0  0  0  0  0  0
  140.3150   68.2220  227.7450 C   0  0  0  0  0  0  0  0  0  0  0  0
  139.5300   67.5580  226.8150 C   0  0  0  0  0  0  0  0  0  0  0  0
  139.2430   68.1610  225.6120 C   0  0  0  0  0  0  0  0  0  0  0  0
  139.7440   69.4210  225.3480 C   0  0  0  0  0  0  0  0  0  0  0  0
  139.4690   70.0280  224.1650 N   0  0  0  0  0  0  0  0  0  0  0  0
  137.7840   70.9560  222.3710 H   0  0  0  0  0  0  0  0  0  0  0  0
  138.9396   72.0245  219.9537 H   0  0  0  0  0  0  0  0  0  0  0  0
  137.1597   71.9924  220.3621 H   0  0  0  0  0  0  0  0  0  0  0  0
  135.1766   73.9823  221.0383 H   0  0  0  0  0  0  0  0  0  0  0  0
  135.9288   72.8352  222.1508 H   0  0  0  0  0  0  0  0  0  0  0  0
  134.5538   75.4111  222.7348 H   0  0  0  0  0  0  0  0  0  0  0  0
  134.9271   74.1194  223.8632 H   0  0  0  0  0  0  0  0  0  0  0  0
  136.3018   76.4500  223.9986 H   0  0  0  0  0  0  0  0  0  0  0  0
  137.2118   74.9949  224.2340 H   0  0  0  0  0  0  0  0  0  0  0  0
  136.7755   76.5215  221.4905 H   0  0  0  0  0  0  0  0  0  0  0  0
  139.9659   74.5526  222.1876 H   0  0  0  0  0  0  0  0  0  0  0  0
  141.8380   76.3380  222.6180 H   0  0  0  0  0  0  0  0  0  0  0  0
  139.2975   80.2176  222.0694 H   0  0  0  0  0  0  0  0  0  0  0  0
  140.3783   82.4078  222.4927 H   0  0  0  0  0  0  0  0  0  0  0  0
  142.6007   82.4607  223.6166 H   0  0  0  0  0  0  0  0  0  0  0  0
  143.7113   80.3547  224.3045 H   0  0  0  0  0  0  0  0  0  0  0  0
  142.6210   78.1536  223.8827 H   0  0  0  0  0  0  0  0  0  0  0  0
  141.1058   72.8919  224.5956 H   0  0  0  0  0  0  0  0  0  0  0  0
  141.6459   71.8426  226.7674 H   0  0  0  0  0  0  0  0  0  0  0  0
  141.4455   69.9984  228.2476 H   0  0  0  0  0  0  0  0  0  0  0  0
  140.5383   67.7311  228.7037 H   0  0  0  0  0  0  0  0  0  0  0  0
  139.1387   66.5544  227.0377 H   0  0  0  0  0  0  0  0  0  0  0  0
  138.6201   67.6443  224.8670 H   0  0  0  0  0  0  0  0  0  0  0  0
  1  2  2  0
  2  3  1  0
  3  4  1  0
  4  5  1  0
  5  6  2  0
  5  7  1  0
  7  8  1  0
  8  9  1  0
  9 10  1  0
 10 11  1  0
 11 12  1  0
 12 13  2  0
 13 14  1  0
 14 15  1  0
 15 16  1  0
 16 17  2  0
 17 18  1  0
 18 19  2  0
 19 20  1  0
 20 21  2  0
 15 22  2  0
  2 23  1  0
 23 24  2  0
 24 25  1  0
 25 26  2  0
 26 27  1  0
 27 28  2  0
 28 29  1  0
 29 30  2  0
 30 31  1  0
 31 32  2  0
 11  7  1  0
 22 12  1  0
 32 23  1  0
 21 16  1  0
 31 26  1  0
  3 33  1  0
  4 34  1  0
  4 35  1  0
  8 36  1  0
  8 37  1  0
  9 38  1  0
  9 39  1  0
 10 40  1  0
 10 41  1  0
 11 42  1  6
 13 43  1  0
 14 44  1  0
 17 45  1  0
 18 46  1  0
 19 47  1  0
 20 48  1  0
 21 49  1  0
 24 50  1  0
 25 51  1  0
 27 52  1  0
 28 53  1  0
 29 54  1  0
 30 55  1  0
M  END
>  <smiles>  (18) 
O=C(NCC(=O)N1CCC[C@H]1c1c[nH]c(-c2ccccc2)n1)c1ccc2ccccc2n1

>  <score_type>  (18) 
oracle

>  <origin>  (18) 
autodockgpu

>  <m_score__min__energy>  (18) 
-9.75

>  <m_primary>  (18) 
energy

>  <rmsd>  (18) 
4.1130472217940905

>  <m_score__min__rmsd>  (18) 
4.1130472217940905

>  <meeko>  (18) 
{"free_energy": -9.15, "intermolecular_energy": -10.94, "internal_energy": -1.46, "cluster_size": 10, "cluster_id": 3, "rank_in_cluster": 1}

>  <energy>  (18) 
-8.58

>  <cluster_rmsd>  (18) 
1.89

>  <cluster>  (18) 
3

$$$$

     RDKit          3D

 55 59  0  0  0  0  0  0  0  0999 V2000
  139.9060   74.6020  222.3460 O   0  0  0  0  0  0  0  0  0  0  0  0
  140.1240   75.5800  221.5910 C   0  0  0  0  0  0  0  0  0  0  0  0
  140.2470   75.3870  220.1880 N   0  0  0  0  0  0  0  0  0  0  0  0
  140.1200   74.0740  219.6440 C   0  0  0  0  0  0  0  0  0  0  0  0
  141.4060   73.5060  219.1670 C   0  0  0  0  0  0  0  0  0  0  0  0
  141.3760   72.9750  218.0070 O   0  0  0  0  0  0  0  0  0  0  0  0
  142.5790   73.5480  219.9440 N   0  0  0  0  0  0  0  0  0  0  0  0
  143.2200   72.3480  220.5100 C   0  0  0  0  0  0  0  0  0  0  0  0
  144.6300   72.7760  220.8590 C   0  0  0  0  0  0  0  0  0  0  0  0
  144.7800   74.1110  220.1650 C   0  0  0  0  0  0  0  0  0  0  0  0
  143.3570   74.6670  220.3350 C   0  0  1  0  0  0  0  0  0  0  0  0
  143.1820   75.8840  219.4930 C   0  0  0  0  0  0  0  0  0  0  0  0
  143.6090   76.1260  218.2060 C   0  0  0  0  0  0  0  0  0  0  0  0
  143.2140   77.3810  217.8570 N   0  0  0  0  0  0  0  0  0  0  0  0
  142.5530   77.9190  218.9000 C   0  0  0  0  0  0  0  0  0  0  0  0
  141.9380   79.2460  219.0100 C   0  0  0  0  0  0  0  0  0  0  0  0
  142.5350   80.3710  218.4320 C   0  0  0  0  0  0  0  0  0  0  0  0
  141.9680   81.6260  218.5280 C   0  0  0  0  0  0  0  0  0  0  0  0
  140.7770   81.7580  219.2190 C   0  0  0  0  0  0  0  0  0  0  0  0
  140.1680   80.6530  219.8020 C   0  0  0  0  0  0  0  0  0  0  0  0
  140.7430   79.3910  219.7010 C   0  0  0  0  0  0  0  0  0  0  0  0
  142.5440   77.0090  219.8710 N   0  0  0  0  0  0  0  0  0  0  0  0
  140.2550   76.9250  222.1470 C   0  0  0  0  0  0  0  0  0  0  0  0
  139.1190   77.6490  222.4590 C   0  0  0  0  0  0  0  0  0  0  0  0
  139.1660   78.9200  222.9850 C   0  0  0  0  0  0  0  0  0  0  0  0
  140.3990   79.4740  223.2010 C   0  0  0  0  0  0  0  0  0  0  0  0
  140.4620   80.7470  223.7280 C   0  0  0  0  0  0  0  0  0  0  0  0
  141.7110   81.2900  223.9390 C   0  0  0  0  0  0  0  0  0  0  0  0
  142.8720   80.5920  223.6380 C   0  0  0  0  0  0  0  0  0  0  0  0
  142.7870   79.3240  223.1140 C   0  0  0  0  0  0  0  0  0  0  0  0
  141.5450   78.7620  222.8940 C   0  0  0  0  0  0  0  0  0  0  0  0
  141.4450   77.5110  222.3770 N   0  0  0  0  0  0  0  0  0  0  0  0
  140.4310   76.2510  219.6030 H   0  0  0  0  0  0  0  0  0  0  0  0
  139.7140   73.4118  220.4228 H   0  0  0  0  0  0  0  0  0  0  0  0
  139.4541   74.1472  218.7715 H   0  0  0  0  0  0  0  0  0  0  0  0
  142.6846   72.0136  221.4108 H   0  0  0  0  0  0  0  0  0  0  0  0
  143.2100   71.5053  219.8030 H   0  0  0  0  0  0  0  0  0  0  0  0
  144.7495   72.8837  221.9472 H   0  0  0  0  0  0  0  0  0  0  0  0
  145.3884   72.0439  220.5446 H   0  0  0  0  0  0  0  0  0  0  0  0
  145.5279   74.7467  220.6616 H   0  0  0  0  0  0  0  0  0  0  0  0
  145.1317   74.0532  219.1243 H   0  0  0  0  0  0  0  0  0  0  0  0
  143.0828   75.0201  221.3401 H   0  0  0  0  0  0  0  0  0  0  0  0
  144.1716   75.4264  217.5704 H   0  0  0  0  0  0  0  0  0  0  0  0
  143.3920   77.8480  216.9370 H   0  0  0  0  0  0  0  0  0  0  0  0
  143.4825   80.2525  217.8859 H   0  0  0  0  0  0  0  0  0  0  0  0
  142.4514   82.4996  218.0663 H   0  0  0  0  0  0  0  0  0  0  0  0
  140.3067   82.7484  219.3081 H   0  0  0  0  0  0  0  0  0  0  0  0
  139.2217   80.7781  220.3488 H   0  0  0  0  0  0  0  0  0  0  0  0
  140.2571   78.5188  220.1628 H   0  0  0  0  0  0  0  0  0  0  0  0
  138.1359   77.1896  222.2791 H   0  0  0  0  0  0  0  0  0  0  0  0
  138.2446   79.4715  223.2236 H   0  0  0  0  0  0  0  0  0  0  0  0
  139.5481   81.3088  223.9712 H   0  0  0  0  0  0  0  0  0  0  0  0
  141.7897   82.3043  224.3574 H   0  0  0  0  0  0  0  0  0  0  0  0
  143.8553   81.0511  223.8178 H   0  0  0  0  0  0  0  0  0  0  0  0
  143.7009   78.7616  222.8719 H   0  0  0  0  0  0  0  0  0  0  0  0
  1  2  2  0
  2  3  1  0
  3  4  1  0
  4  5  1  0
  5  6  2  0
  5  7  1  0
  7  8  1  0
  8  9  1  0
  9 10  1  0
 10 11  1  0
 11 12  1  0
 12 13  2  0
 13 14  1  0
 14 15  1  0
 15 16  1  0
 16 17  2  0
 17 18  1  0
 18 19  2  0
 19 20  1  0
 20 21  2  0
 15 22  2  0
  2 23  1  0
 23 24  2  0
 24 25  1  0
 25 26  2  0
 26 27  1  0
 27 28  2  0
 28 29  1  0
 29 30  2  0
 30 31  1  0
 31 32  2  0
 11  7  1  0
 22 12  1  0
 32 23  1  0
 21 16  1  0
 31 26  1  0
  3 33  1  0
  4 34  1  0
  4 35  1  0
  8 36  1  0
  8 37  1  0
  9 38  1  0
  9 39  1  0
 10 40  1  0
 10 41  1  0
 11 42  1  1
 13 43  1  0
 14 44  1  0
 17 45  1  0
 18 46  1  0
 19 47  1  0
 20 48  1  0
 21 49  1  0
 24 50  1  0
 25 51  1  0
 27 52  1  0
 28 53  1  0
 29 54  1  0
 30 55  1  0
M  END
>  <smiles>  (19) 
O=C(NCC(=O)N1CCC[C@H]1c1c[nH]c(-c2ccccc2)n1)c1ccc2ccccc2n1

>  <score_type>  (19) 
oracle

>  <origin>  (19) 
autodockgpu

>  <m_score__min__energy>  (19) 
-9.75

>  <m_primary>  (19) 
energy

>  <rmsd>  (19) 
6.827546999295291

>  <m_score__min__rmsd>  (19) 
6.827546999295291

>  <meeko>  (19) 
{"free_energy": -7.55, "intermolecular_energy": -9.34, "internal_energy": -3.79, "cluster_size": 19, "cluster_id": 5, "rank_in_cluster": 12}

>  <energy>  (19) 
-8.48

>  <cluster_rmsd>  (19) 
1.91

>  <cluster>  (19) 
3

$$$$

     RDKit          3D

 55 59  0  0  0  0  0  0  0  0999 V2000
  138.9440   75.0180  222.3440 O   0  0  0  0  0  0  0  0  0  0  0  0
  139.9610   75.6490  221.9690 C   0  0  0  0  0  0  0  0  0  0  0  0
  140.9310   75.0170  221.1460 N   0  0  0  0  0  0  0  0  0  0  0  0
  140.7420   73.6600  220.7480 C   0  0  0  0  0  0  0  0  0  0  0  0
  141.8660   73.1170  219.9450 C   0  0  0  0  0  0  0  0  0  0  0  0
  141.5320   72.5070  218.8740 O   0  0  0  0  0  0  0  0  0  0  0  0
  143.2090   73.2640  220.3380 N   0  0  0  0  0  0  0  0  0  0  0  0
  144.0300   72.1530  220.8480 C   0  0  0  0  0  0  0  0  0  0  0  0
  145.4640   72.6230  220.7170 C   0  0  0  0  0  0  0  0  0  0  0  0
  145.3580   73.8500  219.8390 C   0  0  0  0  0  0  0  0  0  0  0  0
  144.0230   74.4260  220.3370 C   0  0  1  0  0  0  0  0  0  0  0  0
  143.5680   75.5150  219.4280 C   0  0  0  0  0  0  0  0  0  0  0  0
  143.5680   75.5630  218.0520 C   0  0  0  0  0  0  0  0  0  0  0  0
  143.0560   76.7660  217.6690 N   0  0  0  0  0  0  0  0  0  0  0  0
  142.7410   77.4610  218.7780 C   0  0  0  0  0  0  0  0  0  0  0  0
  142.1630   78.8040  218.8850 C   0  0  0  0  0  0  0  0  0  0  0  0
  142.7200   79.8900  218.2020 C   0  0  0  0  0  0  0  0  0  0  0  0
  142.1860   81.1600  218.2940 C   0  0  0  0  0  0  0  0  0  0  0  0
  141.0700   81.3470  219.0880 C   0  0  0  0  0  0  0  0  0  0  0  0
  140.5010   80.2820  219.7760 C   0  0  0  0  0  0  0  0  0  0  0  0
  141.0420   79.0050  219.6790 C   0  0  0  0  0  0  0  0  0  0  0  0
  143.0540   76.6970  219.8220 N   0  0  0  0  0  0  0  0  0  0  0  0
  140.1560   77.0390  222.3760 C   0  0  0  0  0  0  0  0  0  0  0  0
  139.0570   77.8320  222.6490 C   0  0  0  0  0  0  0  0  0  0  0  0
  139.1650   79.1490  223.0360 C   0  0  0  0  0  0  0  0  0  0  0  0
  140.4220   79.6770  223.1510 C   0  0  0  0  0  0  0  0  0  0  0  0
  140.5460   80.9940  223.5390 C   0  0  0  0  0  0  0  0  0  0  0  0
  141.8190   81.5100  223.6490 C   0  0  0  0  0  0  0  0  0  0  0  0
  142.9450   80.7440  223.3840 C   0  0  0  0  0  0  0  0  0  0  0  0
  142.7990   79.4320  223.0000 C   0  0  0  0  0  0  0  0  0  0  0  0
  141.5320   78.8950  222.8820 C   0  0  0  0  0  0  0  0  0  0  0  0
  141.3730   77.6020  222.5030 N   0  0  0  0  0  0  0  0  0  0  0  0
  141.7680   75.6020  220.8620 H   0  0  0  0  0  0  0  0  0  0  0  0
  140.6308   73.0440  221.6526 H   0  0  0  0  0  0  0  0  0  0  0  0
  139.8456   73.6312  220.1111 H   0  0  0  0  0  0  0  0  0  0  0  0
  143.7870   71.9459  221.9007 H   0  0  0  0  0  0  0  0  0  0  0  0
  143.8512   71.2215  220.2910 H   0  0  0  0  0  0  0  0  0  0  0  0
  145.8846   72.8792  221.7006 H   0  0  0  0  0  0  0  0  0  0  0  0
  146.1290   71.8537  220.2975 H   0  0  0  0  0  0  0  0  0  0  0  0
  146.1917   74.5469  220.0104 H   0  0  0  0  0  0  0  0  0  0  0  0
  145.3995   73.6491  218.7583 H   0  0  0  0  0  0  0  0  0  0  0  0
  144.0341   74.9146  221.3225 H   0  0  0  0  0  0  0  0  0  0  0  0
  143.9203   74.7678  217.3786 H   0  0  0  0  0  0  0  0  0  0  0  0
  142.9290   77.0940  216.6830 H   0  0  0  0  0  0  0  0  0  0  0  0
  143.6084   79.7278  217.5739 H   0  0  0  0  0  0  0  0  0  0  0  0
  142.6375   82.0021  217.7490 H   0  0  0  0  0  0  0  0  0  0  0  0
  140.6273   82.3501  219.1762 H   0  0  0  0  0  0  0  0  0  0  0  0
  139.6136   80.4511  220.4037 H   0  0  0  0  0  0  0  0  0  0  0  0
  140.5877   78.1646  220.2244 H   0  0  0  0  0  0  0  0  0  0  0  0
  138.0534   77.3921  222.5530 H   0  0  0  0  0  0  0  0  0  0  0  0
  138.2716   79.7556  223.2454 H   0  0  0  0  0  0  0  0  0  0  0  0
  139.6607   81.6108  223.7531 H   0  0  0  0  0  0  0  0  0  0  0  0
  141.9460   82.5588  223.9555 H   0  0  0  0  0  0  0  0  0  0  0  0
  143.9486   81.1838  223.4806 H   0  0  0  0  0  0  0  0  0  0  0  0
  143.6845   78.8147  222.7884 H   0  0  0  0  0  0  0  0  0  0  0  0
  1  2  2  0
  2  3  1  0
  3  4  1  0
  4  5  1  0
  5  6  2  0
  5  7  1  0
  7  8  1  0
  8  9  1  0
  9 10  1  0
 10 11  1  0
 11 12  1  0
 12 13  2  0
 13 14  1  0
 14 15  1  0
 15 16  1  0
 16 17  2  0
 17 18  1  0
 18 19  2  0
 19 20  1  0
 20 21  2  0
 15 22  2  0
  2 23  1  0
 23 24  2  0
 24 25  1  0
 25 26  2  0
 26 27  1  0
 27 28  2  0
 28 29  1  0
 29 30  2  0
 30 31  1  0
 31 32  2  0
 11  7  1  0
 22 12  1  0
 32 23  1  0
 21 16  1  0
 31 26  1  0
  3 33  1  0
  4 34  1  0
  4 35  1  0
  8 36  1  0
  8 37  1  0
  9 38  1  0
  9 39  1  0
 10 40  1  0
 10 41  1  0
 11 42  1  1
 13 43  1  0
 14 44  1  0
 17 45  1  0
 18 46  1  0
 19 47  1  0
 20 48  1  0
 21 49  1  0
 24 50  1  0
 25 51  1  0
 27 52  1  0
 28 53  1  0
 29 54  1  0
 30 55  1  0
M  END
>  <smiles>  (20) 
O=C(NCC(=O)N1CCC[C@H]1c1c[nH]c(-c2ccccc2)n1)c1ccc2ccccc2n1

>  <score_type>  (20) 
oracle

>  <origin>  (20) 
autodockgpu

>  <m_score__min__energy>  (20) 
-9.75

>  <m_primary>  (20) 
energy

>  <rmsd>  (20) 
7.094242935635816

>  <m_score__min__rmsd>  (20) 
7.094242935635816

>  <meeko>  (20) 
{"free_energy": -7.62, "intermolecular_energy": -9.41, "internal_energy": -3.78, "cluster_size": 19, "cluster_id": 5, "rank_in_cluster": 9}

>  <energy>  (20) 
-8.47

>  <cluster_rmsd>  (20) 
1.88

>  <cluster>  (20) 
3

$$$$

     RDKit          3D

 55 59  0  0  0  0  0  0  0  0999 V2000
  138.7490   75.4040  221.9660 O   0  0  0  0  0  0  0  0  0  0  0  0
  139.9150   75.8630  221.9070 C   0  0  0  0  0  0  0  0  0  0  0  0
  140.9680   75.0730  221.3700 N   0  0  0  0  0  0  0  0  0  0  0  0
  140.6890   73.7550  220.8980 C   0  0  0  0  0  0  0  0  0  0  0  0
  141.7910   73.1700  220.0950 C   0  0  0  0  0  0  0  0  0  0  0  0
  141.4310   72.5270  219.0520 O   0  0  0  0  0  0  0  0  0  0  0  0
  143.1440   73.3120  220.4590 N   0  0  0  0  0  0  0  0  0  0  0  0
  143.9690   72.2010  220.9630 C   0  0  0  0  0  0  0  0  0  0  0  0
  145.4020   72.6610  220.7980 C   0  0  0  0  0  0  0  0  0  0  0  0
  145.2850   73.8810  219.9110 C   0  0  0  0  0  0  0  0  0  0  0  0
  143.9630   74.4690  220.4310 C   0  0  1  0  0  0  0  0  0  0  0  0
  143.4960   75.5530  219.5210 C   0  0  0  0  0  0  0  0  0  0  0  0
  143.4520   75.5810  218.1450 C   0  0  0  0  0  0  0  0  0  0  0  0
  142.9470   76.7860  217.7610 N   0  0  0  0  0  0  0  0  0  0  0  0
  142.6800   77.5020  218.8700 C   0  0  0  0  0  0  0  0  0  0  0  0
  142.1270   78.8560  218.9770 C   0  0  0  0  0  0  0  0  0  0  0  0
  142.7030   79.9310  218.2920 C   0  0  0  0  0  0  0  0  0  0  0  0
  142.1930   81.2100  218.3820 C   0  0  0  0  0  0  0  0  0  0  0  0
  141.0810   81.4190  219.1770 C   0  0  0  0  0  0  0  0  0  0  0  0
  140.4930   80.3650  219.8670 C   0  0  0  0  0  0  0  0  0  0  0  0
  141.0100   79.0780  219.7710 C   0  0  0  0  0  0  0  0  0  0  0  0
  143.0150   76.7480  219.9140 N   0  0  0  0  0  0  0  0  0  0  0  0
  140.2010   77.2110  222.3900 C   0  0  0  0  0  0  0  0  0  0  0  0
  139.1580   78.0420  222.7540 C   0  0  0  0  0  0  0  0  0  0  0  0
  139.3530   79.3240  223.2160 C   0  0  0  0  0  0  0  0  0  0  0  0
  140.6400   79.7770  223.3130 C   0  0  0  0  0  0  0  0  0  0  0  0
  140.8500   81.0600  223.7750 C   0  0  0  0  0  0  0  0  0  0  0  0
  142.1540   81.5000  223.8650 C   0  0  0  0  0  0  0  0  0  0  0  0
  143.2250   80.6940  223.5090 C   0  0  0  0  0  0  0  0  0  0  0  0
  142.9930   79.4180  223.0510 C   0  0  0  0  0  0  0  0  0  0  0  0
  141.6950   78.9570  222.9520 C   0  0  0  0  0  0  0  0  0  0  0  0
  141.4510   77.7000  222.5010 N   0  0  0  0  0  0  0  0  0  0  0  0
  141.9300   75.5150  221.3450 H   0  0  0  0  0  0  0  0  0  0  0  0
  140.5076   73.1049  221.7666 H   0  0  0  0  0  0  0  0  0  0  0  0
  139.8103   73.8254  220.2400 H   0  0  0  0  0  0  0  0  0  0  0  0
  143.7466   72.0056  222.0224 H   0  0  0  0  0  0  0  0  0  0  0  0
  143.7734   71.2652  220.4190 H   0  0  0  0  0  0  0  0  0  0  0  0
  145.8445   72.9235  221.7703 H   0  0  0  0  0  0  0  0  0  0  0  0
  146.0536   71.8840  220.3718 H   0  0  0  0  0  0  0  0  0  0  0  0
  146.1257   74.5747  220.0592 H   0  0  0  0  0  0  0  0  0  0  0  0
  145.3036   73.6704  218.8315 H   0  0  0  0  0  0  0  0  0  0  0  0
  143.9959   74.9663  221.4116 H   0  0  0  0  0  0  0  0  0  0  0  0
  143.7697   74.7705  217.4725 H   0  0  0  0  0  0  0  0  0  0  0  0
  142.7930   77.1030  216.7750 H   0  0  0  0  0  0  0  0  0  0  0  0
  143.5878   79.7517  217.6636 H   0  0  0  0  0  0  0  0  0  0  0  0
  142.6594   82.0426  217.8350 H   0  0  0  0  0  0  0  0  0  0  0  0
  140.6570   82.4303  219.2644 H   0  0  0  0  0  0  0  0  0  0  0  0
  139.6096   80.5512  220.4954 H   0  0  0  0  0  0  0  0  0  0  0  0
  140.5402   78.2466  220.3169 H   0  0  0  0  0  0  0  0  0  0  0  0
  138.1288   77.6628  222.6710 H   0  0  0  0  0  0  0  0  0  0  0  0
  138.5027   79.9625  223.4976 H   0  0  0  0  0  0  0  0  0  0  0  0
  140.0084   81.7080  224.0610 H   0  0  0  0  0  0  0  0  0  0  0  0
  142.3502   82.5191  224.2295 H   0  0  0  0  0  0  0  0  0  0  0  0
  144.2542   81.0731  223.5925 H   0  0  0  0  0  0  0  0  0  0  0  0
  143.8347   78.7698  222.7658 H   0  0  0  0  0  0  0  0  0  0  0  0
  1  2  2  0
  2  3  1  0
  3  4  1  0
  4  5  1  0
  5  6  2  0
  5  7  1  0
  7  8  1  0
  8  9  1  0
  9 10  1  0
 10 11  1  0
 11 12  1  0
 12 13  2  0
 13 14  1  0
 14 15  1  0
 15 16  1  0
 16 17  2  0
 17 18  1  0
 18 19  2  0
 19 20  1  0
 20 21  2  0
 15 22  2  0
  2 23  1  0
 23 24  2  0
 24 25  1  0
 25 26  2  0
 26 27  1  0
 27 28  2  0
 28 29  1  0
 29 30  2  0
 30 31  1  0
 31 32  2  0
 11  7  1  0
 22 12  1  0
 32 23  1  0
 21 16  1  0
 31 26  1  0
  3 33  1  0
  4 34  1  0
  4 35  1  0
  8 36  1  0
  8 37  1  0
  9 38  1  0
  9 39  1  0
 10 40  1  0
 10 41  1  0
 11 42  1  1
 13 43  1  0
 14 44  1  0
 17 45  1  0
 18 46  1  0
 19 47  1  0
 20 48  1  0
 21 49  1  0
 24 50  1  0
 25 51  1  0
 27 52  1  0
 28 53  1  0
 29 54  1  0
 30 55  1  0
M  END
>  <smiles>  (21) 
O=C(NCC(=O)N1CCC[C@H]1c1c[nH]c(-c2ccccc2)n1)c1ccc2ccccc2n1

>  <score_type>  (21) 
oracle

>  <origin>  (21) 
autodockgpu

>  <m_score__min__energy>  (21) 
-9.75

>  <m_primary>  (21) 
energy

>  <rmsd>  (21) 
7.108816552370899

>  <m_score__min__rmsd>  (21) 
7.108816552370899

>  <meeko>  (21) 
{"free_energy": -7.66, "intermolecular_energy": -9.45, "internal_energy": -3.86, "cluster_size": 19, "cluster_id": 5, "rank_in_cluster": 7}

>  <energy>  (21) 
-8.77

>  <cluster_rmsd>  (21) 
0.0

>  <cluster>  (21) 
4

$$$$

     RDKit          3D

 55 59  0  0  0  0  0  0  0  0999 V2000
  137.9240   70.2590  222.0780 O   0  0  0  0  0  0  0  0  0  0  0  0
  138.5780   70.9370  222.9060 C   0  0  0  0  0  0  0  0  0  0  0  0
  138.8270   72.3150  222.6640 N   0  0  0  0  0  0  0  0  0  0  0  0
  138.3290   72.9220  221.4730 C   0  0  0  0  0  0  0  0  0  0  0  0
  138.7770   74.3260  221.2940 C   0  0  0  0  0  0  0  0  0  0  0  0
  139.8430   74.6470  221.9190 O   0  0  0  0  0  0  0  0  0  0  0  0
  138.0730   75.2410  220.4890 N   0  0  0  0  0  0  0  0  0  0  0  0
  136.6330   75.1270  220.2020 C   0  0  0  0  0  0  0  0  0  0  0  0
  136.2130   76.4970  219.7120 C   0  0  0  0  0  0  0  0  0  0  0  0
  137.3910   77.3770  220.0650 C   0  0  0  0  0  0  0  0  0  0  0  0
  138.5480   76.3960  219.8170 C   0  0  1  0  0  0  0  0  0  0  0  0
  139.8190   76.9610  220.3530 C   0  0  0  0  0  0  0  0  0  0  0  0
  141.1180   76.5770  220.1080 C   0  0  0  0  0  0  0  0  0  0  0  0
  141.9420   77.3910  220.8240 N   0  0  0  0  0  0  0  0  0  0  0  0
  141.1800   78.2680  221.5050 C   0  0  0  0  0  0  0  0  0  0  0  0
  141.6030   79.3400  222.4120 C   0  0  0  0  0  0  0  0  0  0  0  0
  142.9490   79.5120  222.7520 C   0  0  0  0  0  0  0  0  0  0  0  0
  143.3620   80.5160  223.6050 C   0  0  0  0  0  0  0  0  0  0  0  0
  142.4050   81.3680  224.1280 C   0  0  0  0  0  0  0  0  0  0  0  0
  141.0630   81.2140  223.8030 C   0  0  0  0  0  0  0  0  0  0  0  0
  140.6530   80.2010  222.9430 C   0  0  0  0  0  0  0  0  0  0  0  0
  139.9110   77.9960  221.2100 N   0  0  0  0  0  0  0  0  0  0  0  0
  139.0890   70.3150  224.1250 C   0  0  0  0  0  0  0  0  0  0  0  0
  138.9360   68.9550  224.3150 C   0  0  0  0  0  0  0  0  0  0  0  0
  139.3900   68.3020  225.4390 C   0  0  0  0  0  0  0  0  0  0  0  0
  140.0200   69.0490  226.3970 C   0  0  0  0  0  0  0  0  0  0  0  0
  140.4810   68.4090  227.5280 C   0  0  0  0  0  0  0  0  0  0  0  0
  141.1120   69.1770  228.4840 C   0  0  0  0  0  0  0  0  0  0  0  0
  141.2840   70.5450  228.3270 C   0  0  0  0  0  0  0  0  0  0  0  0
  140.8170   71.1630  227.1910 C   0  0  0  0  0  0  0  0  0  0  0  0
  140.1810   70.4120  226.2220 C   0  0  0  0  0  0  0  0  0  0  0  0
  139.7140   71.0090  225.0960 N   0  0  0  0  0  0  0  0  0  0  0  0
  139.3850   72.8340  223.4000 H   0  0  0  0  0  0  0  0  0  0  0  0
  138.6751   72.3331  220.6108 H   0  0  0  0  0  0  0  0  0  0  0  0
  137.2320   72.9392  221.5520 H   0  0  0  0  0  0  0  0  0  0  0  0
  136.4538   74.3686  219.4257 H   0  0  0  0  0  0  0  0  0  0  0  0
  136.0616   74.8160  221.0890 H   0  0  0  0  0  0  0  0  0  0  0  0
  136.0398   76.4896  218.6258 H   0  0  0  0  0  0  0  0  0  0  0  0
  135.2710   76.8422  220.1632 H   0  0  0  0  0  0  0  0  0  0  0  0
  137.4543   78.2562  219.4070 H   0  0  0  0  0  0  0  0  0  0  0  0
  137.3591   77.8061  221.0774 H   0  0  0  0  0  0  0  0  0  0  0  0
  138.7961   76.1819  218.7669 H   0  0  0  0  0  0  0  0  0  0  0  0
  141.4352   75.7556  219.4486 H   0  0  0  0  0  0  0  0  0  0  0  0
  142.9880   77.3440  220.8430 H   0  0  0  0  0  0  0  0  0  0  0  0
  143.6992   78.8283  222.3280 H   0  0  0  0  0  0  0  0  0  0  0  0
  144.4247   80.6357  223.8624 H   0  0  0  0  0  0  0  0  0  0  0  0
  142.7103   82.1763  224.8088 H   0  0  0  0  0  0  0  0  0  0  0  0
  140.3172   81.9004  224.2303 H   0  0  0  0  0  0  0  0  0  0  0  0
  139.5896   80.0837  222.6870 H   0  0  0  0  0  0  0  0  0  0  0  0
  138.4295   68.3684  223.5344 H   0  0  0  0  0  0  0  0  0  0  0  0
  139.2511   67.2178  225.5626 H   0  0  0  0  0  0  0  0  0  0  0  0
  140.3502   67.3252  227.6628 H   0  0  0  0  0  0  0  0  0  0  0  0
  141.4894   68.6918  229.3962 H   0  0  0  0  0  0  0  0  0  0  0  0
  141.7911   71.1317  229.1071 H   0  0  0  0  0  0  0  0  0  0  0  0
  140.9489   72.2466  227.0551 H   0  0  0  0  0  0  0  0  0  0  0  0
  1  2  2  0
  2  3  1  0
  3  4  1  0
  4  5  1  0
  5  6  2  0
  5  7  1  0
  7  8  1  0
  8  9  1  0
  9 10  1  0
 10 11  1  0
 11 12  1  0
 12 13  2  0
 13 14  1  0
 14 15  1  0
 15 16  1  0
 16 17  2  0
 17 18  1  0
 18 19  2  0
 19 20  1  0
 20 21  2  0
 15 22  2  0
  2 23  1  0
 23 24  2  0
 24 25  1  0
 25 26  2  0
 26 27  1  0
 27 28  2  0
 28 29  1  0
 29 30  2  0
 30 31  1  0
 31 32  2  0
 11  7  1  0
 22 12  1  0
 32 23  1  0
 21 16  1  0
 31 26  1  0
  3 33  1  0
  4 34  1  0
  4 35  1  0
  8 36  1  0
  8 37  1  0
  9 38  1  0
  9 39  1  0
 10 40  1  0
 10 41  1  0
 11 42  1  6
 13 43  1  0
 14 44  1  0
 17 45  1  0
 18 46  1  0
 19 47  1  0
 20 48  1  0
 21 49  1  0
 24 50  1  0
 25 51  1  0
 27 52  1  0
 28 53  1  0
 29 54  1  0
 30 55  1  0
M  END
>  <smiles>  (22) 
O=C(NCC(=O)N1CCC[C@H]1c1c[nH]c(-c2ccccc2)n1)c1ccc2ccccc2n1

>  <score_type>  (22) 
oracle

>  <origin>  (22) 
autodockgpu

>  <m_score__min__energy>  (22) 
-9.75

>  <m_primary>  (22) 
energy

>  <rmsd>  (22) 
2.7898260281234655

>  <m_score__min__rmsd>  (22) 
2.7898260281234655

>  <meeko>  (22) 
{"free_energy": -9.09, "intermolecular_energy": -10.88, "internal_energy": -1.87, "cluster_size": 10, "cluster_id": 3, "rank_in_cluster": 3}

>  <energy>  (22) 
-8.67

>  <cluster_rmsd>  (22) 
1.95

>  <cluster>  (22) 
4

$$$$

     RDKit          3D

 55 59  0  0  0  0  0  0  0  0999 V2000
  139.7110   74.3130  221.5270 O   0  0  0  0  0  0  0  0  0  0  0  0
  140.1260   75.4920  221.6390 C   0  0  0  0  0  0  0  0  0  0  0  0
  141.4700   75.8110  221.3070 N   0  0  0  0  0  0  0  0  0  0  0  0
  142.3440   74.7840  220.8440 C   0  0  0  0  0  0  0  0  0  0  0  0
  143.2830   75.2380  219.7870 C   0  0  0  0  0  0  0  0  0  0  0  0
  144.4820   75.4500  220.1710 O   0  0  0  0  0  0  0  0  0  0  0  0
  142.8780   75.4250  218.4520 N   0  0  0  0  0  0  0  0  0  0  0  0
  143.0280   74.3960  217.4090 C   0  0  0  0  0  0  0  0  0  0  0  0
  142.0900   74.8160  216.2960 C   0  0  0  0  0  0  0  0  0  0  0  0
  141.2370   75.8890  216.9360 C   0  0  0  0  0  0  0  0  0  0  0  0
  142.2780   76.5580  217.8470 C   0  0  1  0  0  0  0  0  0  0  0  0
  141.6030   77.4960  218.7880 C   0  0  0  0  0  0  0  0  0  0  0  0
  140.2780   77.8630  218.8570 C   0  0  0  0  0  0  0  0  0  0  0  0
  140.1350   78.7460  219.8830 N   0  0  0  0  0  0  0  0  0  0  0  0
  141.3430   78.9320  220.4490 C   0  0  0  0  0  0  0  0  0  0  0  0
  141.7020   79.7880  221.5840 C   0  0  0  0  0  0  0  0  0  0  0  0
  142.4310   79.2870  222.6680 C   0  0  0  0  0  0  0  0  0  0  0  0
  142.7760   80.0820  223.7430 C   0  0  0  0  0  0  0  0  0  0  0  0
  142.3810   81.4070  223.7330 C   0  0  0  0  0  0  0  0  0  0  0  0
  141.6550   81.9240  222.6680 C   0  0  0  0  0  0  0  0  0  0  0  0
  141.3110   81.1200  221.5860 C   0  0  0  0  0  0  0  0  0  0  0  0
  142.2100   78.1750  219.7810 N   0  0  0  0  0  0  0  0  0  0  0  0
  139.2310   76.5440  222.1140 C   0  0  0  0  0  0  0  0  0  0  0  0
  137.8650   76.4090  221.9430 C   0  0  0  0  0  0  0  0  0  0  0  0
  136.9630   77.3600  222.3630 C   0  0  0  0  0  0  0  0  0  0  0  0
  137.4580   78.4800  222.9760 C   0  0  0  0  0  0  0  0  0  0  0  0
  136.5660   79.4410  223.4030 C   0  0  0  0  0  0  0  0  0  0  0  0
  137.0820   80.5620  224.0170 C   0  0  0  0  0  0  0  0  0  0  0  0
  138.4460   80.7310  224.2060 C   0  0  0  0  0  0  0  0  0  0  0  0
  139.3180   79.7600  223.7730 C   0  0  0  0  0  0  0  0  0  0  0  0
  138.8220   78.6290  223.1540 C   0  0  0  0  0  0  0  0  0  0  0  0
  139.6710   77.6620  222.7210 N   0  0  0  0  0  0  0  0  0  0  0  0
  141.7600   76.8240  221.4220 H   0  0  0  0  0  0  0  0  0  0  0  0
  142.9321   74.4161  221.6977 H   0  0  0  0  0  0  0  0  0  0  0  0
  141.7143   73.9979  220.4018 H   0  0  0  0  0  0  0  0  0  0  0  0
  144.0660   74.3632  217.0464 H   0  0  0  0  0  0  0  0  0  0  0  0
  142.7914   73.3906  217.7875 H   0  0  0  0  0  0  0  0  0  0  0  0
  142.6515   75.2190  215.4402 H   0  0  0  0  0  0  0  0  0  0  0  0
  141.4971   73.9793  215.8980 H   0  0  0  0  0  0  0  0  0  0  0  0
  140.8380   76.5913  216.1893 H   0  0  0  0  0  0  0  0  0  0  0  0
  140.3412   75.5173  217.4550 H   0  0  0  0  0  0  0  0  0  0  0  0
  143.0255   77.1977  217.3551 H   0  0  0  0  0  0  0  0  0  0  0  0
  139.4740   77.5047  218.1972 H   0  0  0  0  0  0  0  0  0  0  0  0
  139.2410   79.2020  220.1820 H   0  0  0  0  0  0  0  0  0  0  0  0
  142.7378   78.2307  222.6638 H   0  0  0  0  0  0  0  0  0  0  0  0
  143.3507   79.6714  224.5863 H   0  0  0  0  0  0  0  0  0  0  0  0
  142.6449   82.0593  224.5785 H   0  0  0  0  0  0  0  0  0  0  0  0
  141.3487   82.9804  222.6801 H   0  0  0  0  0  0  0  0  0  0  0  0
  140.7372   81.5340  220.7438 H   0  0  0  0  0  0  0  0  0  0  0  0
  137.4832   75.5027  221.4502 H   0  0  0  0  0  0  0  0  0  0  0  0
  135.8819   77.2250  222.2115 H   0  0  0  0  0  0  0  0  0  0  0  0
  135.4825   79.3175  223.2589 H   0  0  0  0  0  0  0  0  0  0  0  0
  136.3929   81.3447  224.3670 H   0  0  0  0  0  0  0  0  0  0  0  0
  138.8278   81.6369  224.6996 H   0  0  0  0  0  0  0  0  0  0  0  0
  140.4014   79.8828  223.9183 H   0  0  0  0  0  0  0  0  0  0  0  0
  1  2  2  0
  2  3  1  0
  3  4  1  0
  4  5  1  0
  5  6  2  0
  5  7  1  0
  7  8  1  0
  8  9  1  0
  9 10  1  0
 10 11  1  0
 11 12  1  0
 12 13  2  0
 13 14  1  0
 14 15  1  0
 15 16  1  0
 16 17  2  0
 17 18  1  0
 18 19  2  0
 19 20  1  0
 20 21  2  0
 15 22  2  0
  2 23  1  0
 23 24  2  0
 24 25  1  0
 25 26  2  0
 26 27  1  0
 27 28  2  0
 28 29  1  0
 29 30  2  0
 30 31  1  0
 31 32  2  0
 11  7  1  0
 22 12  1  0
 32 23  1  0
 21 16  1  0
 31 26  1  0
  3 33  1  0
  4 34  1  0
  4 35  1  0
  8 36  1  0
  8 37  1  0
  9 38  1  0
  9 39  1  0
 10 40  1  0
 10 41  1  0
 11 42  1  6
 13 43  1  0
 14 44  1  0
 17 45  1  0
 18 46  1  0
 19 47  1  0
 20 48  1  0
 21 49  1  0
 24 50  1  0
 25 51  1  0
 27 52  1  0
 28 53  1  0
 29 54  1  0
 30 55  1  0
M  END
>  <smiles>  (23) 
O=C(NCC(=O)N1CCC[C@H]1c1c[nH]c(-c2ccccc2)n1)c1ccc2ccccc2n1

>  <score_type>  (23) 
oracle

>  <origin>  (23) 
autodockgpu

>  <m_score__min__energy>  (23) 
-9.75

>  <m_primary>  (23) 
energy

>  <rmsd>  (23) 
6.309481356939928

>  <m_score__min__rmsd>  (23) 
6.309481356939928

>  <meeko>  (23) 
{"free_energy": -6.53, "intermolecular_energy": -8.32, "internal_energy": -4.04, "cluster_size": 1, "cluster_id": 8, "rank_in_cluster": 1}

>  <energy>  (23) 
-7.75

>  <cluster_rmsd>  (23) 
0.0

>  <cluster>  (23) 
5

$$$$

     RDKit          3D

 55 59  0  0  0  0  0  0  0  0999 V2000
  140.5460   70.8330  221.3000 O   0  0  0  0  0  0  0  0  0  0  0  0
  140.3360   71.5030  222.3390 C   0  0  0  0  0  0  0  0  0  0  0  0
  140.2770   72.9220  222.2750 N   0  0  0  0  0  0  0  0  0  0  0  0
  140.4570   73.5780  221.0220 C   0  0  0  0  0  0  0  0  0  0  0  0
  141.0080   74.9510  221.1470 C   0  0  0  0  0  0  0  0  0  0  0  0
  140.8520   75.5040  222.2870 O   0  0  0  0  0  0  0  0  0  0  0  0
  141.6580   75.5990  220.0800 N   0  0  0  0  0  0  0  0  0  0  0  0
  141.3530   76.9790  219.6640 C   0  0  0  0  0  0  0  0  0  0  0  0
  142.5390   77.4160  218.8310 C   0  0  0  0  0  0  0  0  0  0  0  0
  143.5790   76.3530  219.1060 C   0  0  0  0  0  0  0  0  0  0  0  0
  142.6770   75.1140  219.2220 C   0  0  1  0  0  0  0  0  0  0  0  0
  143.4590   73.9640  219.7570 C   0  0  0  0  0  0  0  0  0  0  0  0
  144.3070   73.9110  220.8400 C   0  0  0  0  0  0  0  0  0  0  0  0
  144.7920   72.6420  220.9370 N   0  0  0  0  0  0  0  0  0  0  0  0
  144.2620   71.9110  219.9380 C   0  0  0  0  0  0  0  0  0  0  0  0
  144.4780   70.4960  219.6230 C   0  0  0  0  0  0  0  0  0  0  0  0
  143.4370   69.5660  219.7100 C   0  0  0  0  0  0  0  0  0  0  0  0
  143.6260   68.2310  219.4160 C   0  0  0  0  0  0  0  0  0  0  0  0
  144.8870   67.8160  219.0270 C   0  0  0  0  0  0  0  0  0  0  0  0
  145.9360   68.7230  218.9350 C   0  0  0  0  0  0  0  0  0  0  0  0
  145.7390   70.0670  219.2310 C   0  0  0  0  0  0  0  0  0  0  0  0
  143.4660   72.7190  219.2410 N   0  0  0  0  0  0  0  0  0  0  0  0
  140.1520   70.8310  223.6240 C   0  0  0  0  0  0  0  0  0  0  0  0
  139.5520   69.5870  223.6640 C   0  0  0  0  0  0  0  0  0  0  0  0
  139.3450   68.8970  224.8370 C   0  0  0  0  0  0  0  0  0  0  0  0
  139.7600   69.4830  226.0020 C   0  0  0  0  0  0  0  0  0  0  0  0
  139.5600   68.8030  227.1850 C   0  0  0  0  0  0  0  0  0  0  0  0
  139.9820   69.4090  228.3490 C   0  0  0  0  0  0  0  0  0  0  0  0
  140.5890   70.6570  228.3460 C   0  0  0  0  0  0  0  0  0  0  0  0
  140.7790   71.3170  227.1550 C   0  0  0  0  0  0  0  0  0  0  0  0
  140.3620   70.7280  225.9780 C   0  0  0  0  0  0  0  0  0  0  0  0
  140.5430   71.3690  224.7950 N   0  0  0  0  0  0  0  0  0  0  0  0
  140.0970   73.4320  223.1860 H   0  0  0  0  0  0  0  0  0  0  0  0
  141.1490   72.9792  220.4116 H   0  0  0  0  0  0  0  0  0  0  0  0
  139.4637   73.6686  220.5582 H   0  0  0  0  0  0  0  0  0  0  0  0
  140.4306   77.0061  219.0653 H   0  0  0  0  0  0  0  0  0  0  0  0
  141.1915   77.6415  220.5271 H   0  0  0  0  0  0  0  0  0  0  0  0
  142.2793   77.4440  217.7625 H   0  0  0  0  0  0  0  0  0  0  0  0
  142.8870   78.4289  219.0818 H   0  0  0  0  0  0  0  0  0  0  0  0
  144.2952   76.2594  218.2764 H   0  0  0  0  0  0  0  0  0  0  0  0
  144.2144   76.5450  219.9831 H   0  0  0  0  0  0  0  0  0  0  0  0
  142.2623   74.7166  218.2839 H   0  0  0  0  0  0  0  0  0  0  0  0
  144.5507   74.7482  221.5106 H   0  0  0  0  0  0  0  0  0  0  0  0
  145.4610   72.2930  221.6640 H   0  0  0  0  0  0  0  0  0  0  0  0
  142.4392   69.9085  220.0217 H   0  0  0  0  0  0  0  0  0  0  0  0
  142.7945   67.5146  219.4892 H   0  0  0  0  0  0  0  0  0  0  0  0
  145.0613   66.7566  218.7879 H   0  0  0  0  0  0  0  0  0  0  0  0
  146.9320   68.3740  218.6249 H   0  0  0  0  0  0  0  0  0  0  0  0
  146.5718   70.7817  219.1556 H   0  0  0  0  0  0  0  0  0  0  0  0
  139.2260   69.1287  222.7187 H   0  0  0  0  0  0  0  0  0  0  0  0
  138.8625   67.9085  224.8379 H   0  0  0  0  0  0  0  0  0  0  0  0
  139.0810   67.8128  227.1992 H   0  0  0  0  0  0  0  0  0  0  0  0
  139.8335   68.8889  229.3068 H   0  0  0  0  0  0  0  0  0  0  0  0
  140.9162   71.1154  229.2909 H   0  0  0  0  0  0  0  0  0  0  0  0
  141.2594   72.3064  227.1400 H   0  0  0  0  0  0  0  0  0  0  0  0
  1  2  2  0
  2  3  1  0
  3  4  1  0
  4  5  1  0
  5  6  2  0
  5  7  1  0
  7  8  1  0
  8  9  1  0
  9 10  1  0
 10 11  1  0
 11 12  1  0
 12 13  2  0
 13 14  1  0
 14 15  1  0
 15 16  1  0
 16 17  2  0
 17 18  1  0
 18 19  2  0
 19 20  1  0
 20 21  2  0
 15 22  2  0
  2 23  1  0
 23 24  2  0
 24 25  1  0
 25 26  2  0
 26 27  1  0
 27 28  2  0
 28 29  1  0
 29 30  2  0
 30 31  1  0
 31 32  2  0
 11  7  1  0
 22 12  1  0
 32 23  1  0
 21 16  1  0
 31 26  1  0
  3 33  1  0
  4 34  1  0
  4 35  1  0
  8 36  1  0
  8 37  1  0
  9 38  1  0
  9 39  1  0
 10 40  1  0
 10 41  1  0
 11 42  1  6
 13 43  1  0
 14 44  1  0
 17 45  1  0
 18 46  1  0
 19 47  1  0
 20 48  1  0
 21 49  1  0
 24 50  1  0
 25 51  1  0
 27 52  1  0
 28 53  1  0
 29 54  1  0
 30 55  1  0
M  END
>  <smiles>  (24) 
O=C(NCC(=O)N1CCC[C@H]1c1c[nH]c(-c2ccccc2)n1)c1ccc2ccccc2n1

>  <score_type>  (24) 
oracle

>  <origin>  (24) 
autodockgpu

>  <m_score__min__energy>  (24) 
-9.75

>  <m_primary>  (24) 
energy

>  <rmsd>  (24) 
6.626567457931203

>  <m_score__min__rmsd>  (24) 
6.626567457931203

>  <meeko>  (24) 
{"free_energy": -8.99, "intermolecular_energy": -10.78, "internal_energy": -2.26, "cluster_size": 5, "cluster_id": 2, "rank_in_cluster": 2}

>  <energy>  (24) 
-7.75

>  <cluster_rmsd>  (24) 
1.69

>  <cluster>  (24) 
5

$$$$

     RDKit          3D

 55 59  0  0  0  0  0  0  0  0999 V2000
  138.7410   70.1500  221.6650 O   0  0  0  0  0  0  0  0  0  0  0  0
  139.1440   70.8160  222.6490 C   0  0  0  0  0  0  0  0  0  0  0  0
  139.3280   72.2200  222.5340 N   0  0  0  0  0  0  0  0  0  0  0  0
  139.0530   72.8680  221.2930 C   0  0  0  0  0  0  0  0  0  0  0  0
  139.0910   74.3490  221.3790 C   0  0  0  0  0  0  0  0  0  0  0  0
  139.8360   74.8280  222.2980 O   0  0  0  0  0  0  0  0  0  0  0  0
  138.3540   75.1710  220.5050 N   0  0  0  0  0  0  0  0  0  0  0  0
  136.9230   74.9700  220.2170 C   0  0  0  0  0  0  0  0  0  0  0  0
  136.4470   76.2800  219.6270 C   0  0  0  0  0  0  0  0  0  0  0  0
  137.5800   77.2370  219.9220 C   0  0  0  0  0  0  0  0  0  0  0  0
  138.7820   76.2950  219.7540 C   0  0  1  0  0  0  0  0  0  0  0  0
  140.0200   76.9560  220.2560 C   0  0  0  0  0  0  0  0  0  0  0  0
  141.3380   76.6490  220.0040 C   0  0  0  0  0  0  0  0  0  0  0  0
  142.1180   77.5340  220.6860 N   0  0  0  0  0  0  0  0  0  0  0  0
  141.3090   78.3790  221.3530 C   0  0  0  0  0  0  0  0  0  0  0  0
  141.6730   79.5010  222.2240 C   0  0  0  0  0  0  0  0  0  0  0  0
  142.5130   79.3190  223.3280 C   0  0  0  0  0  0  0  0  0  0  0  0
  142.8640   80.3660  224.1560 C   0  0  0  0  0  0  0  0  0  0  0  0
  142.3620   81.6240  223.8740 C   0  0  0  0  0  0  0  0  0  0  0  0
  141.5250   81.8260  222.7840 C   0  0  0  0  0  0  0  0  0  0  0  0
  141.1760   80.7680  221.9510 C   0  0  0  0  0  0  0  0  0  0  0  0
  140.0560   78.0180  221.0840 N   0  0  0  0  0  0  0  0  0  0  0  0
  139.4270   70.1530  223.9200 C   0  0  0  0  0  0  0  0  0  0  0  0
  139.0660   68.8300  224.0960 C   0  0  0  0  0  0  0  0  0  0  0  0
  139.3000   68.1430  225.2650 C   0  0  0  0  0  0  0  0  0  0  0  0
  139.9180   68.8140  226.2850 C   0  0  0  0  0  0  0  0  0  0  0  0
  140.1600   68.1380  227.4630 C   0  0  0  0  0  0  0  0  0  0  0  0
  140.7820   68.8300  228.4800 C   0  0  0  0  0  0  0  0  0  0  0  0
  141.1570   70.1580  228.3390 C   0  0  0  0  0  0  0  0  0  0  0  0
  140.9080   70.8130  227.1560 C   0  0  0  0  0  0  0  0  0  0  0  0
  140.2850   70.1390  226.1240 C   0  0  0  0  0  0  0  0  0  0  0  0
  140.0320   70.7730  224.9510 N   0  0  0  0  0  0  0  0  0  0  0  0
  139.6690   72.7270  223.4000 H   0  0  0  0  0  0  0  0  0  0  0  0
  139.8022   72.5424  220.5563 H   0  0  0  0  0  0  0  0  0  0  0  0
  138.0309   72.5864  220.9997 H   0  0  0  0  0  0  0  0  0  0  0  0
  136.7864   74.1504  219.4961 H   0  0  0  0  0  0  0  0  0  0  0  0
  136.3572   74.6970  221.1199 H   0  0  0  0  0  0  0  0  0  0  0  0
  136.2845   76.1863  218.5431 H   0  0  0  0  0  0  0  0  0  0  0  0
  135.4865   76.6133  220.0469 H   0  0  0  0  0  0  0  0  0  0  0  0
  137.6096   78.0678  219.2016 H   0  0  0  0  0  0  0  0  0  0  0  0
  137.5188   77.7372  220.8998 H   0  0  0  0  0  0  0  0  0  0  0  0
  139.0497   76.0164  218.7241 H   0  0  0  0  0  0  0  0  0  0  0  0
  141.6990   75.8311  219.3632 H   0  0  0  0  0  0  0  0  0  0  0  0
  143.1650   77.5550  220.6910 H   0  0  0  0  0  0  0  0  0  0  0  0
  142.9045   78.3136  223.5420 H   0  0  0  0  0  0  0  0  0  0  0  0
  143.5266   80.2042  225.0190 H   0  0  0  0  0  0  0  0  0  0  0  0
  142.6286   82.4735  224.5200 H   0  0  0  0  0  0  0  0  0  0  0  0
  141.1340   82.8332  222.5773 H   0  0  0  0  0  0  0  0  0  0  0  0
  140.5150   80.9332  221.0874 H   0  0  0  0  0  0  0  0  0  0  0  0
  138.5707   68.3044  223.2663 H   0  0  0  0  0  0  0  0  0  0  0  0
  139.0005   67.0904  225.3758 H   0  0  0  0  0  0  0  0  0  0  0  0
  139.8672   67.0849  227.5862 H   0  0  0  0  0  0  0  0  0  0  0  0
  140.9867   68.3147  229.4300 H   0  0  0  0  0  0  0  0  0  0  0  0
  141.6509   70.6843  229.1691 H   0  0  0  0  0  0  0  0  0  0  0  0
  141.2027   71.8656  227.0325 H   0  0  0  0  0  0  0  0  0  0  0  0
  1  2  2  0
  2  3  1  0
  3  4  1  0
  4  5  1  0
  5  6  2  0
  5  7  1  0
  7  8  1  0
  8  9  1  0
  9 10  1  0
 10 11  1  0
 11 12  1  0
 12 13  2  0
 13 14  1  0
 14 15  1  0
 15 16  1  0
 16 17  2  0
 17 18  1  0
 18 19  2  0
 19 20  1  0
 20 21  2  0
 15 22  2  0
  2 23  1  0
 23 24  2  0
 24 25  1  0
 25 26  2  0
 26 27  1  0
 27 28  2  0
 28 29  1  0
 29 30  2  0
 30 31  1  0
 31 32  2  0
 11  7  1  0
 22 12  1  0
 32 23  1  0
 21 16  1  0
 31 26  1  0
  3 33  1  0
  4 34  1  0
  4 35  1  0
  8 36  1  0
  8 37  1  0
  9 38  1  0
  9 39  1  0
 10 40  1  0
 10 41  1  0
 11 42  1  6
 13 43  1  0
 14 44  1  0
 17 45  1  0
 18 46  1  0
 19 47  1  0
 20 48  1  0
 21 49  1  0
 24 50  1  0
 25 51  1  0
 27 52  1  0
 28 53  1  0
 29 54  1  0
 30 55  1  0
M  END
>  <smiles>  (25) 
O=C(NCC(=O)N1CCC[C@H]1c1c[nH]c(-c2ccccc2)n1)c1ccc2ccccc2n1

>  <score_type>  (25) 
oracle

>  <origin>  (25) 
autodockgpu

>  <m_score__min__energy>  (25) 
-9.75

>  <m_primary>  (25) 
energy

>  <rmsd>  (25) 
2.5280715580133664

>  <m_score__min__rmsd>  (25) 
2.5280715580133664

>  <meeko>  (25) 
{"free_energy": -8.99, "intermolecular_energy": -10.78, "internal_energy": -1.96, "cluster_size": 10, "cluster_id": 3, "rank_in_cluster": 6}

>  <energy>  (25) 
-7.73

>  <cluster_rmsd>  (25) 
1.68

>  <cluster>  (25) 
5

$$$$

     RDKit          3D

 55 59  0  0  0  0  0  0  0  0999 V2000
  138.7820   75.3910  221.9440 O   0  0  0  0  0  0  0  0  0  0  0  0
  139.9540   75.8320  222.0140 C   0  0  0  0  0  0  0  0  0  0  0  0
  141.0550   74.9890  221.7050 N   0  0  0  0  0  0  0  0  0  0  0  0
  140.8190   73.6370  221.3140 C   0  0  0  0  0  0  0  0  0  0  0  0
  141.7670   73.1470  220.2820 C   0  0  0  0  0  0  0  0  0  0  0  0
  141.2310   72.6270  219.2460 O   0  0  0  0  0  0  0  0  0  0  0  0
  143.1620   73.2460  220.4360 N   0  0  0  0  0  0  0  0  0  0  0  0
  144.0240   72.0990  220.7690 C   0  0  0  0  0  0  0  0  0  0  0  0
  145.4270   72.5340  220.3990 C   0  0  0  0  0  0  0  0  0  0  0  0
  145.2080   73.7870  219.5820 C   0  0  0  0  0  0  0  0  0  0  0  0
  143.9990   74.3850  220.3190 C   0  0  1  0  0  0  0  0  0  0  0  0
  143.4270   75.5110  219.5290 C   0  0  0  0  0  0  0  0  0  0  0  0
  143.5120   75.7630  218.1780 C   0  0  0  0  0  0  0  0  0  0  0  0
  142.8290   76.9130  217.9180 N   0  0  0  0  0  0  0  0  0  0  0  0
  142.3260   77.3750  219.0780 C   0  0  0  0  0  0  0  0  0  0  0  0
  141.5200   78.5780  219.3140 C   0  0  0  0  0  0  0  0  0  0  0  0
  140.1230   78.5180  219.3520 C   0  0  0  0  0  0  0  0  0  0  0  0
  139.3530   79.6420  219.5730 C   0  0  0  0  0  0  0  0  0  0  0  0
  139.9950   80.8530  219.7590 C   0  0  0  0  0  0  0  0  0  0  0  0
  141.3820   80.9340  219.7230 C   0  0  0  0  0  0  0  0  0  0  0  0
  142.1530   79.7980  219.5020 C   0  0  0  0  0  0  0  0  0  0  0  0
  142.6940   76.5240  220.0320 N   0  0  0  0  0  0  0  0  0  0  0  0
  140.1960   77.2160  222.4150 C   0  0  0  0  0  0  0  0  0  0  0  0
  139.1260   78.0410  222.7060 C   0  0  0  0  0  0  0  0  0  0  0  0
  139.2790   79.3540  223.0890 C   0  0  0  0  0  0  0  0  0  0  0  0
  140.5520   79.8460  223.1800 C   0  0  0  0  0  0  0  0  0  0  0  0
  140.7210   81.1600  223.5630 C   0  0  0  0  0  0  0  0  0  0  0  0
  142.0110   81.6400  223.6490 C   0  0  0  0  0  0  0  0  0  0  0  0
  143.1090   80.8410  223.3640 C   0  0  0  0  0  0  0  0  0  0  0  0
  142.9180   79.5330  222.9850 C   0  0  0  0  0  0  0  0  0  0  0  0
  141.6340   79.0330  222.8920 C   0  0  0  0  0  0  0  0  0  0  0  0
  141.4310   77.7440  222.5180 N   0  0  0  0  0  0  0  0  0  0  0  0
  142.0200   75.4190  221.7820 H   0  0  0  0  0  0  0  0  0  0  0  0
  140.9100   72.9960  222.2033 H   0  0  0  0  0  0  0  0  0  0  0  0
  139.8116   73.5977  220.8740 H   0  0  0  0  0  0  0  0  0  0  0  0
  143.9622   71.8694  221.8430 H   0  0  0  0  0  0  0  0  0  0  0  0
  143.7214   71.1883  220.2314 H   0  0  0  0  0  0  0  0  0  0  0  0
  146.0209   72.7511  221.2991 H   0  0  0  0  0  0  0  0  0  0  0  0
  145.9839   71.7592  219.8516 H   0  0  0  0  0  0  0  0  0  0  0  0
  146.0803   74.4561  219.6206 H   0  0  0  0  0  0  0  0  0  0  0  0
  145.0538   73.6153  218.5065 H   0  0  0  0  0  0  0  0  0  0  0  0
  144.1970   74.8456  221.2981 H   0  0  0  0  0  0  0  0  0  0  0  0
  144.0394   75.1437  217.4375 H   0  0  0  0  0  0  0  0  0  0  0  0
  142.7150   77.3600  216.9780 H   0  0  0  0  0  0  0  0  0  0  0  0
  139.6247   77.5489  219.2017 H   0  0  0  0  0  0  0  0  0  0  0  0
  138.2553   79.5763  219.6005 H   0  0  0  0  0  0  0  0  0  0  0  0
  139.4014   81.7617  219.9373 H   0  0  0  0  0  0  0  0  0  0  0  0
  141.8747   81.9063  219.8708 H   0  0  0  0  0  0  0  0  0  0  0  0
  143.2506   79.8659  219.4766 H   0  0  0  0  0  0  0  0  0  0  0  0
  138.1084   77.6305  222.6281 H   0  0  0  0  0  0  0  0  0  0  0  0
  138.4074   79.9861  223.3142 H   0  0  0  0  0  0  0  0  0  0  0  0
  139.8577   81.8023  223.7917 H   0  0  0  0  0  0  0  0  0  0  0  0
  142.1739   82.6849  223.9518 H   0  0  0  0  0  0  0  0  0  0  0  0
  144.1266   81.2516  223.4408 H   0  0  0  0  0  0  0  0  0  0  0  0
  143.7811   78.8900  222.7577 H   0  0  0  0  0  0  0  0  0  0  0  0
  1  2  2  0
  2  3  1  0
  3  4  1  0
  4  5  1  0
  5  6  2  0
  5  7  1  0
  7  8  1  0
  8  9  1  0
  9 10  1  0
 10 11  1  0
 11 12  1  0
 12 13  2  0
 13 14  1  0
 14 15  1  0
 15 16  1  0
 16 17  2  0
 17 18  1  0
 18 19  2  0
 19 20  1  0
 20 21  2  0
 15 22  2  0
  2 23  1  0
 23 24  2  0
 24 25  1  0
 25 26  2  0
 26 27  1  0
 27 28  2  0
 28 29  1  0
 29 30  2  0
 30 31  1  0
 31 32  2  0
 11  7  1  0
 22 12  1  0
 32 23  1  0
 21 16  1  0
 31 26  1  0
  3 33  1  0
  4 34  1  0
  4 35  1  0
  8 36  1  0
  8 37  1  0
  9 38  1  0
  9 39  1  0
 10 40  1  0
 10 41  1  0
 11 42  1  1
 13 43  1  0
 14 44  1  0
 17 45  1  0
 18 46  1  0
 19 47  1  0
 20 48  1  0
 21 49  1  0
 24 50  1  0
 25 51  1  0
 27 52  1  0
 28 53  1  0
 29 54  1  0
 30 55  1  0
M  END
>  <smiles>  (26) 
O=C(NCC(=O)N1CCC[C@H]1c1c[nH]c(-c2ccccc2)n1)c1ccc2ccccc2n1

>  <score_type>  (26) 
oracle

>  <origin>  (26) 
autodockgpu

>  <m_score__min__energy>  (26) 
-9.75

>  <m_primary>  (26) 
energy

>  <rmsd>  (26) 
7.034683056992942

>  <m_score__min__rmsd>  (26) 
7.034683056992942

>  <meeko>  (26) 
{"free_energy": -7.37, "intermolecular_energy": -9.16, "internal_energy": -4.31, "cluster_size": 19, "cluster_id": 5, "rank_in_cluster": 16}

>  <energy>  (26) 
-7.71

>  <cluster_rmsd>  (26) 
1.68

>  <cluster>  (26) 
5

$$$$

     RDKit          3D

 55 59  0  0  0  0  0  0  0  0999 V2000
  140.3870   70.7810  221.2780 O   0  0  0  0  0  0  0  0  0  0  0  0
  140.3160   71.4510  222.3360 C   0  0  0  0  0  0  0  0  0  0  0  0
  140.4040   72.8690  222.2910 N   0  0  0  0  0  0  0  0  0  0  0  0
  140.5740   73.5250  221.0350 C   0  0  0  0  0  0  0  0  0  0  0  0
  141.0620   74.9210  221.1590 C   0  0  0  0  0  0  0  0  0  0  0  0
  140.8500   75.4800  222.2870 O   0  0  0  0  0  0  0  0  0  0  0  0
  141.7130   75.5860  220.1020 N   0  0  0  0  0  0  0  0  0  0  0  0
  141.4060   76.9700  219.7040 C   0  0  0  0  0  0  0  0  0  0  0  0
  142.5930   77.4210  218.8800 C   0  0  0  0  0  0  0  0  0  0  0  0
  143.6340   76.3560  219.1430 C   0  0  0  0  0  0  0  0  0  0  0  0
  142.7350   75.1140  219.2400 C   0  0  1  0  0  0  0  0  0  0  0  0
  143.5180   73.9580  219.7600 C   0  0  0  0  0  0  0  0  0  0  0  0
  144.3830   73.8990  220.8290 C   0  0  0  0  0  0  0  0  0  0  0  0
  144.8620   72.6270  220.9180 N   0  0  0  0  0  0  0  0  0  0  0  0
  144.3100   71.9000  219.9270 C   0  0  0  0  0  0  0  0  0  0  0  0
  144.5120   70.4840  219.6070 C   0  0  0  0  0  0  0  0  0  0  0  0
  145.7620   70.0030  219.2030 C   0  0  0  0  0  0  0  0  0  0  0  0
  145.9670   68.6720  218.8990 C   0  0  0  0  0  0  0  0  0  0  0  0
  144.8960   67.8030  219.0000 C   0  0  0  0  0  0  0  0  0  0  0  0
  143.6450   68.2600  219.3980 C   0  0  0  0  0  0  0  0  0  0  0  0
  143.4450   69.6020  219.7050 C   0  0  0  0  0  0  0  0  0  0  0  0
  143.5090   72.7140  219.2440 N   0  0  0  0  0  0  0  0  0  0  0  0
  140.1430   70.7810  223.6220 C   0  0  0  0  0  0  0  0  0  0  0  0
  139.5570   69.5290  223.6670 C   0  0  0  0  0  0  0  0  0  0  0  0
  139.3610   68.8390  224.8420 C   0  0  0  0  0  0  0  0  0  0  0  0
  139.7710   69.4330  226.0040 C   0  0  0  0  0  0  0  0  0  0  0  0
  139.5820   68.7530  227.1890 C   0  0  0  0  0  0  0  0  0  0  0  0
  140.0000   69.3670  228.3510 C   0  0  0  0  0  0  0  0  0  0  0  0
  140.5910   70.6220  228.3440 C   0  0  0  0  0  0  0  0  0  0  0  0
  140.7710   71.2820  227.1510 C   0  0  0  0  0  0  0  0  0  0  0  0
  140.3590   70.6860  225.9750 C   0  0  0  0  0  0  0  0  0  0  0  0
  140.5300   71.3260  224.7910 N   0  0  0  0  0  0  0  0  0  0  0  0
  140.3370   73.3800  223.2170 H   0  0  0  0  0  0  0  0  0  0  0  0
  141.3007   72.9535  220.4390 H   0  0  0  0  0  0  0  0  0  0  0  0
  139.5849   73.5688  220.5557 H   0  0  0  0  0  0  0  0  0  0  0  0
  140.4851   77.0030  219.1033 H   0  0  0  0  0  0  0  0  0  0  0  0
  141.2408   77.6204  220.5756 H   0  0  0  0  0  0  0  0  0  0  0  0
  142.3358   77.4634  217.8113 H   0  0  0  0  0  0  0  0  0  0  0  0
  142.9385   78.4310  219.1455 H   0  0  0  0  0  0  0  0  0  0  0  0
  144.3523   76.2751  218.3139 H   0  0  0  0  0  0  0  0  0  0  0  0
  144.2666   76.5373  220.0244 H   0  0  0  0  0  0  0  0  0  0  0  0
  142.3232   74.7280  218.2959 H   0  0  0  0  0  0  0  0  0  0  0  0
  144.6425   74.7344  221.4959 H   0  0  0  0  0  0  0  0  0  0  0  0
  145.5400   72.2730  221.6330 H   0  0  0  0  0  0  0  0  0  0  0  0
  146.6053   70.7050  219.1254 H   0  0  0  0  0  0  0  0  0  0  0  0
  146.9575   68.3117  218.5843 H   0  0  0  0  0  0  0  0  0  0  0  0
  145.0356   66.7380  218.7627 H   0  0  0  0  0  0  0  0  0  0  0  0
  142.8050   67.5536  219.4709 H   0  0  0  0  0  0  0  0  0  0  0  0
  142.4540   69.9594  220.0214 H   0  0  0  0  0  0  0  0  0  0  0  0
  139.2338   69.0648  222.7236 H   0  0  0  0  0  0  0  0  0  0  0  0
  138.8910   67.8445  224.8463 H   0  0  0  0  0  0  0  0  0  0  0  0
  139.1149   67.7573  227.2066 H   0  0  0  0  0  0  0  0  0  0  0  0
  139.8609   68.8470  229.3103 H   0  0  0  0  0  0  0  0  0  0  0  0
  140.9138   71.0866  229.2873 H   0  0  0  0  0  0  0  0  0  0  0  0
  141.2395   72.2771  227.1334 H   0  0  0  0  0  0  0  0  0  0  0  0
  1  2  2  0
  2  3  1  0
  3  4  1  0
  4  5  1  0
  5  6  2  0
  5  7  1  0
  7  8  1  0
  8  9  1  0
  9 10  1  0
 10 11  1  0
 11 12  1  0
 12 13  2  0
 13 14  1  0
 14 15  1  0
 15 16  1  0
 16 17  2  0
 17 18  1  0
 18 19  2  0
 19 20  1  0
 20 21  2  0
 15 22  2  0
  2 23  1  0
 23 24  2  0
 24 25  1  0
 25 26  2  0
 26 27  1  0
 27 28  2  0
 28 29  1  0
 29 30  2  0
 30 31  1  0
 31 32  2  0
 11  7  1  0
 22 12  1  0
 32 23  1  0
 21 16  1  0
 31 26  1  0
  3 33  1  0
  4 34  1  0
  4 35  1  0
  8 36  1  0
  8 37  1  0
  9 38  1  0
  9 39  1  0
 10 40  1  0
 10 41  1  0
 11 42  1  6
 13 43  1  0
 14 44  1  0
 17 45  1  0
 18 46  1  0
 19 47  1  0
 20 48  1  0
 21 49  1  0
 24 50  1  0
 25 51  1  0
 27 52  1  0
 28 53  1  0
 29 54  1  0
 30 55  1  0
M  END
>  <smiles>  (27) 
O=C(NCC(=O)N1CCC[C@H]1c1c[nH]c(-c2ccccc2)n1)c1ccc2ccccc2n1

>  <score_type>  (27) 
oracle

>  <origin>  (27) 
autodockgpu

>  <m_score__min__energy>  (27) 
-9.75

>  <m_primary>  (27) 
energy

>  <rmsd>  (27) 
6.714242580488036

>  <m_score__min__rmsd>  (27) 
6.714242580488036

>  <meeko>  (27) 
{"free_energy": -8.91, "intermolecular_energy": -10.7, "internal_energy": -2.29, "cluster_size": 5, "cluster_id": 2, "rank_in_cluster": 4}

>  <energy>  (27) 
-7.71

>  <cluster_rmsd>  (27) 
0.14

>  <cluster>  (27) 
5

$$$$

     RDKit          3D

 55 59  0  0  0  0  0  0  0  0999 V2000
  141.5290   71.7280  221.6100 O   0  0  0  0  0  0  0  0  0  0  0  0
  140.6640   72.2020  222.3860 C   0  0  0  0  0  0  0  0  0  0  0  0
  140.0100   73.4230  222.0660 N   0  0  0  0  0  0  0  0  0  0  0  0
  140.3430   74.1040  220.8580 C   0  0  0  0  0  0  0  0  0  0  0  0
  139.4760   75.2780  220.5830 C   0  0  0  0  0  0  0  0  0  0  0  0
  138.4710   75.0550  219.8270 O   0  0  0  0  0  0  0  0  0  0  0  0
  139.7440   76.5510  221.1200 N   0  0  0  0  0  0  0  0  0  0  0  0
  138.9350   77.1680  222.1860 C   0  0  0  0  0  0  0  0  0  0  0  0
  139.8010   78.2710  222.7560 C   0  0  0  0  0  0  0  0  0  0  0  0
  141.1690   77.9860  222.1780 C   0  0  0  0  0  0  0  0  0  0  0  0
  140.7730   77.4680  220.7860 C   0  0  1  0  0  0  0  0  0  0  0  0
  141.9580   76.8690  220.1100 C   0  0  0  0  0  0  0  0  0  0  0  0
  142.6670   77.3250  219.0220 C   0  0  0  0  0  0  0  0  0  0  0  0
  143.6700   76.4390  218.7670 N   0  0  0  0  0  0  0  0  0  0  0  0
  143.5940   75.4460  219.6740 C   0  0  0  0  0  0  0  0  0  0  0  0
  144.4500   74.2640  219.8130 C   0  0  0  0  0  0  0  0  0  0  0  0
  144.3330   73.1780  218.9400 C   0  0  0  0  0  0  0  0  0  0  0  0
  145.1320   72.0580  219.0580 C   0  0  0  0  0  0  0  0  0  0  0  0
  146.0690   72.0250  220.0750 C   0  0  0  0  0  0  0  0  0  0  0  0
  146.2010   73.0930  220.9550 C   0  0  0  0  0  0  0  0  0  0  0  0
  145.3940   74.2190  220.8290 C   0  0  0  0  0  0  0  0  0  0  0  0
  142.5630   75.7200  220.4700 N   0  0  0  0  0  0  0  0  0  0  0  0
  140.3240   71.5050  223.6230 C   0  0  0  0  0  0  0  0  0  0  0  0
  139.5030   70.3940  223.5780 C   0  0  0  0  0  0  0  0  0  0  0  0
  139.1390   69.6890  224.7040 C   0  0  0  0  0  0  0  0  0  0  0  0
  139.6220   70.1210  225.9090 C   0  0  0  0  0  0  0  0  0  0  0  0
  139.2680   69.4240  227.0440 C   0  0  0  0  0  0  0  0  0  0  0  0
  139.7620   69.8740  228.2500 C   0  0  0  0  0  0  0  0  0  0  0  0
  140.5890   70.9850  228.3330 C   0  0  0  0  0  0  0  0  0  0  0  0
  140.9310   71.6650  227.1880 C   0  0  0  0  0  0  0  0  0  0  0  0
  140.4450   71.2320  225.9700 C   0  0  0  0  0  0  0  0  0  0  0  0
  140.7750   71.8930  224.8310 N   0  0  0  0  0  0  0  0  0  0  0  0
  139.2900   73.7720  222.7600 H   0  0  0  0  0  0  0  0  0  0  0  0
  141.3850   74.4493  220.9286 H   0  0  0  0  0  0  0  0  0  0  0  0
  140.1953   73.3916  220.0330 H   0  0  0  0  0  0  0  0  0  0  0  0
  138.0044   77.5836  221.7721 H   0  0  0  0  0  0  0  0  0  0  0  0
  138.6427   76.4372  222.9544 H   0  0  0  0  0  0  0  0  0  0  0  0
  139.4383   79.2593  222.4370 H   0  0  0  0  0  0  0  0  0  0  0  0
  139.7981   78.2906  223.8558 H   0  0  0  0  0  0  0  0  0  0  0  0
  141.7824   78.8969  222.1145 H   0  0  0  0  0  0  0  0  0  0  0  0
  141.7852   77.2934  222.7702 H   0  0  0  0  0  0  0  0  0  0  0  0
  140.4274   78.2191  220.0605 H   0  0  0  0  0  0  0  0  0  0  0  0
  142.4597   78.2454  218.4564 H   0  0  0  0  0  0  0  0  0  0  0  0
  144.3780   76.5160  218.0000 H   0  0  0  0  0  0  0  0  0  0  0  0
  143.5830   73.2170  218.1363 H   0  0  0  0  0  0  0  0  0  0  0  0
  145.0261   71.2136  218.3610 H   0  0  0  0  0  0  0  0  0  0  0  0
  146.7171   71.1435  220.1887 H   0  0  0  0  0  0  0  0  0  0  0  0
  146.9507   73.0473  221.7586 H   0  0  0  0  0  0  0  0  0  0  0  0
  145.5028   75.0631  221.5259 H   0  0  0  0  0  0  0  0  0  0  0  0
  139.1241   70.0585  222.6013 H   0  0  0  0  0  0  0  0  0  0  0  0
  138.4826   68.8089  224.6367 H   0  0  0  0  0  0  0  0  0  0  0  0
  138.6149   68.5405  226.9897 H   0  0  0  0  0  0  0  0  0  0  0  0
  139.4930   69.3374  229.1718 H   0  0  0  0  0  0  0  0  0  0  0  0
  140.9689   71.3199  229.3095 H   0  0  0  0  0  0  0  0  0  0  0  0
  141.5864   72.5468  227.2417 H   0  0  0  0  0  0  0  0  0  0  0  0
  1  2  2  0
  2  3  1  0
  3  4  1  0
  4  5  1  0
  5  6  2  0
  5  7  1  0
  7  8  1  0
  8  9  1  0
  9 10  1  0
 10 11  1  0
 11 12  1  0
 12 13  2  0
 13 14  1  0
 14 15  1  0
 15 16  1  0
 16 17  2  0
 17 18  1  0
 18 19  2  0
 19 20  1  0
 20 21  2  0
 15 22  2  0
  2 23  1  0
 23 24  2  0
 24 25  1  0
 25 26  2  0
 26 27  1  0
 27 28  2  0
 28 29  1  0
 29 30  2  0
 30 31  1  0
 31 32  2  0
 11  7  1  0
 22 12  1  0
 32 23  1  0
 21 16  1  0
 31 26  1  0
  3 33  1  0
  4 34  1  0
  4 35  1  0
  8 36  1  0
  8 37  1  0
  9 38  1  0
  9 39  1  0
 10 40  1  0
 10 41  1  0
 11 42  1  6
 13 43  1  0
 14 44  1  0
 17 45  1  0
 18 46  1  0
 19 47  1  0
 20 48  1  0
 21 49  1  0
 24 50  1  0
 25 51  1  0
 27 52  1  0
 28 53  1  0
 29 54  1  0
 30 55  1  0
M  END
>  <smiles>  (28) 
O=C(NCC(=O)N1CCC[C@H]1c1c[nH]c(-c2ccccc2)n1)c1ccc2ccccc2n1

>  <score_type>  (28) 
oracle

>  <origin>  (28) 
autodockgpu

>  <m_score__min__energy>  (28) 
-9.75

>  <m_primary>  (28) 
energy

>  <rmsd>  (28) 
5.434030040871053

>  <m_score__min__rmsd>  (28) 
5.434030040871053

>  <meeko>  (28) 
{"free_energy": -9.52, "intermolecular_energy": -11.3, "internal_energy": -1.6, "cluster_size": 5, "cluster_id": 1, "rank_in_cluster": 4}

>  <energy>  (28) 
-7.67

>  <cluster_rmsd>  (28) 
0.21

>  <cluster>  (28) 
5

$$$$

     RDKit          3D

 55 59  0  0  0  0  0  0  0  0999 V2000
  138.2700   75.6010  222.2970 O   0  0  0  0  0  0  0  0  0  0  0  0
  139.4340   76.0060  222.0600 C   0  0  0  0  0  0  0  0  0  0  0  0
  140.3510   75.1750  221.3620 N   0  0  0  0  0  0  0  0  0  0  0  0
  139.9400   73.8780  220.9320 C   0  0  0  0  0  0  0  0  0  0  0  0
  140.6720   72.7740  221.6010 C   0  0  0  0  0  0  0  0  0  0  0  0
  140.5530   72.7260  222.8720 O   0  0  0  0  0  0  0  0  0  0  0  0
  141.4460   71.8420  220.8830 N   0  0  0  0  0  0  0  0  0  0  0  0
  140.9520   70.5120  220.4880 C   0  0  0  0  0  0  0  0  0  0  0  0
  141.8890   70.0480  219.3930 C   0  0  0  0  0  0  0  0  0  0  0  0
  142.6580   71.2980  219.0280 C   0  0  0  0  0  0  0  0  0  0  0  0
  142.7780   71.9570  220.4110 C   0  0  1  0  0  0  0  0  0  0  0  0
  143.2800   73.3520  220.2690 C   0  0  0  0  0  0  0  0  0  0  0  0
  144.4830   73.8940  220.6640 C   0  0  0  0  0  0  0  0  0  0  0  0
  144.4890   75.2110  220.3200 N   0  0  0  0  0  0  0  0  0  0  0  0
  143.3160   75.4940  219.7210 C   0  0  0  0  0  0  0  0  0  0  0  0
  142.8510   76.7730  219.1760 C   0  0  0  0  0  0  0  0  0  0  0  0
  142.1950   77.7100  219.9830 C   0  0  0  0  0  0  0  0  0  0  0  0
  141.7520   78.9170  219.4830 C   0  0  0  0  0  0  0  0  0  0  0  0
  141.9680   79.1940  218.1450 C   0  0  0  0  0  0  0  0  0  0  0  0
  142.6160   78.2780  217.3260 C   0  0  0  0  0  0  0  0  0  0  0  0
  143.0620   77.0630  217.8350 C   0  0  0  0  0  0  0  0  0  0  0  0
  142.6050   74.3700  219.6990 N   0  0  0  0  0  0  0  0  0  0  0  0
  139.8560   77.3330  222.5010 C   0  0  0  0  0  0  0  0  0  0  0  0
  138.9030   78.2690  222.8590 C   0  0  0  0  0  0  0  0  0  0  0  0
  139.2270   79.5380  223.2830 C   0  0  0  0  0  0  0  0  0  0  0  0
  140.5540   79.8690  223.3460 C   0  0  0  0  0  0  0  0  0  0  0  0
  140.8930   81.1360  223.7690 C   0  0  0  0  0  0  0  0  0  0  0  0
  142.2340   81.4530  223.8250 C   0  0  0  0  0  0  0  0  0  0  0  0
  143.2170   80.5390  223.4740 C   0  0  0  0  0  0  0  0  0  0  0  0
  142.8560   79.2800  223.0560 C   0  0  0  0  0  0  0  0  0  0  0  0
  141.5180   78.9430  222.9900 C   0  0  0  0  0  0  0  0  0  0  0  0
  141.1480   77.7030  222.5790 N   0  0  0  0  0  0  0  0  0  0  0  0
  141.3180   75.5720  221.1920 H   0  0  0  0  0  0  0  0  0  0  0  0
  138.8669   73.7641  221.1454 H   0  0  0  0  0  0  0  0  0  0  0  0
  140.1607   73.8082  219.8566 H   0  0  0  0  0  0  0  0  0  0  0  0
  140.9843   69.8195  221.3421 H   0  0  0  0  0  0  0  0  0  0  0  0
  139.9069   70.5470  220.1465 H   0  0  0  0  0  0  0  0  0  0  0  0
  142.5666   69.2641  219.7623 H   0  0  0  0  0  0  0  0  0  0  0  0
  141.3589   69.6073  218.5358 H   0  0  0  0  0  0  0  0  0  0  0  0
  143.6443   71.0600  218.6031 H   0  0  0  0  0  0  0  0  0  0  0  0
  142.1827   71.9239  218.2583 H   0  0  0  0  0  0  0  0  0  0  0  0
  143.4970   71.5062  221.1109 H   0  0  0  0  0  0  0  0  0  0  0  0
  145.2980   73.3557  221.1700 H   0  0  0  0  0  0  0  0  0  0  0  0
  145.2700   75.8880  220.4900 H   0  0  0  0  0  0  0  0  0  0  0  0
  142.0282   77.4775  221.0451 H   0  0  0  0  0  0  0  0  0  0  0  0
  141.2393   79.6417  220.1326 H   0  0  0  0  0  0  0  0  0  0  0  0
  141.6228   80.1502  217.7249 H   0  0  0  0  0  0  0  0  0  0  0  0
  142.7780   78.5160  216.2643 H   0  0  0  0  0  0  0  0  0  0  0  0
  143.5755   76.3409  217.1831 H   0  0  0  0  0  0  0  0  0  0  0  0
  137.8411   77.9876  222.8025 H   0  0  0  0  0  0  0  0  0  0  0  0
  138.4465   80.2613  223.5617 H   0  0  0  0  0  0  0  0  0  0  0  0
  140.1220   81.8679  224.0517 H   0  0  0  0  0  0  0  0  0  0  0  0
  142.5325   82.4583  224.1571 H   0  0  0  0  0  0  0  0  0  0  0  0
  144.2790   80.8200  223.5298 H   0  0  0  0  0  0  0  0  0  0  0  0
  143.6267   78.5467  222.7763 H   0  0  0  0  0  0  0  0  0  0  0  0
  1  2  2  0
  2  3  1  0
  3  4  1  0
  4  5  1  0
  5  6  2  0
  5  7  1  0
  7  8  1  0
  8  9  1  0
  9 10  1  0
 10 11  1  0
 11 12  1  0
 12 13  2  0
 13 14  1  0
 14 15  1  0
 15 16  1  0
 16 17  2  0
 17 18  1  0
 18 19  2  0
 19 20  1  0
 20 21  2  0
 15 22  2  0
  2 23  1  0
 23 24  2  0
 24 25  1  0
 25 26  2  0
 26 27  1  0
 27 28  2  0
 28 29  1  0
 29 30  2  0
 30 31  1  0
 31 32  2  0
 11  7  1  0
 22 12  1  0
 32 23  1  0
 21 16  1  0
 31 26  1  0
  3 33  1  0
  4 34  1  0
  4 35  1  0
  8 36  1  0
  8 37  1  0
  9 38  1  0
  9 39  1  0
 10 40  1  0
 10 41  1  0
 11 42  1  1
 13 43  1  0
 14 44  1  0
 17 45  1  0
 18 46  1  0
 19 47  1  0
 20 48  1  0
 21 49  1  0
 24 50  1  0
 25 51  1  0
 27 52  1  0
 28 53  1  0
 29 54  1  0
 30 55  1  0
M  END
>  <smiles>  (29) 
O=C(NCC(=O)N1CCC[C@H]1c1c[nH]c(-c2ccccc2)n1)c1ccc2ccccc2n1

>  <score_type>  (29) 
oracle

>  <origin>  (29) 
autodockgpu

>  <m_score__min__energy>  (29) 
-9.75

>  <m_primary>  (29) 
energy

>  <rmsd>  (29) 
7.296236397958046

>  <m_score__min__rmsd>  (29) 
7.296236397958046

>  <meeko>  (29) 
{"free_energy": -7.63, "intermolecular_energy": -9.42, "internal_energy": -3.13, "cluster_size": 19, "cluster_id": 5, "rank_in_cluster": 8}

>  <energy>  (29) 
-7.66

>  <cluster_rmsd>  (29) 
0.18

>  <cluster>  (29) 
5

$$$$

     RDKit          3D

 55 59  0  0  0  0  0  0  0  0999 V2000
  139.5530   74.4230  222.0790 O   0  0  0  0  0  0  0  0  0  0  0  0
  140.6480   74.9310  221.7370 C   0  0  0  0  0  0  0  0  0  0  0  0
  140.8570   76.3310  221.8630 N   0  0  0  0  0  0  0  0  0  0  0  0
  139.8140   77.1550  222.3820 C   0  0  0  0  0  0  0  0  0  0  0  0
  139.8220   78.5340  221.8320 C   0  0  0  0  0  0  0  0  0  0  0  0
  138.9190   78.7860  220.9650 O   0  0  0  0  0  0  0  0  0  0  0  0
  140.7630   79.4990  222.2390 N   0  0  0  0  0  0  0  0  0  0  0  0
  140.8830   79.9780  223.6260 C   0  0  0  0  0  0  0  0  0  0  0  0
  142.2500   80.6260  223.7070 C   0  0  0  0  0  0  0  0  0  0  0  0
  142.9320   80.1790  222.4340 C   0  0  0  0  0  0  0  0  0  0  0  0
  141.7370   80.1830  221.4680 C   0  0  1  0  0  0  0  0  0  0  0  0
  142.1130   79.5170  220.1900 C   0  0  0  0  0  0  0  0  0  0  0  0
  142.5590   80.0740  219.0120 C   0  0  0  0  0  0  0  0  0  0  0  0
  142.7750   79.0660  218.1210 N   0  0  0  0  0  0  0  0  0  0  0  0
  142.4730   77.9000  218.7240 C   0  0  0  0  0  0  0  0  0  0  0  0
  142.5430   76.5410  218.1790 C   0  0  0  0  0  0  0  0  0  0  0  0
  141.4380   75.6850  218.2230 C   0  0  0  0  0  0  0  0  0  0  0  0
  141.4890   74.4030  217.7140 C   0  0  0  0  0  0  0  0  0  0  0  0
  142.6740   73.9680  217.1470 C   0  0  0  0  0  0  0  0  0  0  0  0
  143.7830   74.8020  217.0940 C   0  0  0  0  0  0  0  0  0  0  0  0
  143.7260   76.0940  217.6080 C   0  0  0  0  0  0  0  0  0  0  0  0
  142.0790   78.1900  219.9620 N   0  0  0  0  0  0  0  0  0  0  0  0
  141.7160   74.0880  221.2050 C   0  0  0  0  0  0  0  0  0  0  0  0
  141.4300   72.8000  220.7950 C   0  0  0  0  0  0  0  0  0  0  0  0
  142.3850   71.9490  220.2850 C   0  0  0  0  0  0  0  0  0  0  0  0
  143.6670   72.4180  220.1880 C   0  0  0  0  0  0  0  0  0  0  0  0
  144.6340   71.5770  219.6790 C   0  0  0  0  0  0  0  0  0  0  0  0
  145.9210   72.0650  219.5890 C   0  0  0  0  0  0  0  0  0  0  0  0
  146.2450   73.3530  219.9910 C   0  0  0  0  0  0  0  0  0  0  0  0
  145.2640   74.1750  220.4950 C   0  0  0  0  0  0  0  0  0  0  0  0
  143.9690   73.7050  220.5950 C   0  0  0  0  0  0  0  0  0  0  0  0
  142.9920   74.5050  221.0910 N   0  0  0  0  0  0  0  0  0  0  0  0
  141.8020   76.7010  221.5580 H   0  0  0  0  0  0  0  0  0  0  0  0
  138.8478   76.6885  222.1392 H   0  0  0  0  0  0  0  0  0  0  0  0
  139.9753   77.2376  223.4670 H   0  0  0  0  0  0  0  0  0  0  0  0
  140.0947   80.7117  223.8500 H   0  0  0  0  0  0  0  0  0  0  0  0
  140.7723   79.1606  224.3537 H   0  0  0  0  0  0  0  0  0  0  0  0
  142.1635   81.7220  223.7421 H   0  0  0  0  0  0  0  0  0  0  0  0
  142.8054   80.3398  224.6123 H   0  0  0  0  0  0  0  0  0  0  0  0
  143.7122   80.8878  222.1195 H   0  0  0  0  0  0  0  0  0  0  0  0
  143.4618   79.2178  222.5079 H   0  0  0  0  0  0  0  0  0  0  0  0
  141.3745   81.1671  221.1362 H   0  0  0  0  0  0  0  0  0  0  0  0
  142.7140   81.1465  218.8232 H   0  0  0  0  0  0  0  0  0  0  0  0
  143.1170   79.1780  217.1380 H   0  0  0  0  0  0  0  0  0  0  0  0
  140.5019   76.0434  218.6760 H   0  0  0  0  0  0  0  0  0  0  0  0
  140.6097   73.7436  217.7580 H   0  0  0  0  0  0  0  0  0  0  0  0
  142.7381   72.9506  216.7338 H   0  0  0  0  0  0  0  0  0  0  0  0
  144.7167   74.4375  216.6408 H   0  0  0  0  0  0  0  0  0  0  0  0
  144.6065   76.7517  217.5623 H   0  0  0  0  0  0  0  0  0  0  0  0
  140.3945   72.4386  220.8796 H   0  0  0  0  0  0  0  0  0  0  0  0
  142.1265   70.9282  219.9668 H   0  0  0  0  0  0  0  0  0  0  0  0
  144.3881   70.5545  219.3566 H   0  0  0  0  0  0  0  0  0  0  0  0
  146.7125   71.4151  219.1874 H   0  0  0  0  0  0  0  0  0  0  0  0
  147.2805   73.7146  219.9071 H   0  0  0  0  0  0  0  0  0  0  0  0
  145.5088   75.1983  220.8158 H   0  0  0  0  0  0  0  0  0  0  0  0
  1  2  2  0
  2  3  1  0
  3  4  1  0
  4  5  1  0
  5  6  2  0
  5  7  1  0
  7  8  1  0
  8  9  1  0
  9 10  1  0
 10 11  1  0
 11 12  1  0
 12 13  2  0
 13 14  1  0
 14 15  1  0
 15 16  1  0
 16 17  2  0
 17 18  1  0
 18 19  2  0
 19 20  1  0
 20 21  2  0
 15 22  2  0
  2 23  1  0
 23 24  2  0
 24 25  1  0
 25 26  2  0
 26 27  1  0
 27 28  2  0
 28 29  1  0
 29 30  2  0
 30 31  1  0
 31 32  2  0
 11  7  1  0
 22 12  1  0
 32 23  1  0
 21 16  1  0
 31 26  1  0
  3 33  1  0
  4 34  1  0
  4 35  1  0
  8 36  1  0
  8 37  1  0
  9 38  1  0
  9 39  1  0
 10 40  1  0
 10 41  1  0
 11 42  1  6
 13 43  1  0
 14 44  1  0
 17 45  1  0
 18 46  1  0
 19 47  1  0
 20 48  1  0
 21 49  1  0
 24 50  1  0
 25 51  1  0
 27 52  1  0
 28 53  1  0
 29 54  1  0
 30 55  1  0
M  END
>  <smiles>  (30) 
O=C(NCC(=O)N1CCC[C@H]1c1c[nH]c(-c2ccccc2)n1)c1ccc2ccccc2n1

>  <score_type>  (30) 
oracle

>  <origin>  (30) 
autodockgpu

>  <m_score__min__energy>  (30) 
-9.75

>  <m_primary>  (30) 
energy

>  <rmsd>  (30) 
6.85249276315244

>  <m_score__min__rmsd>  (30) 
6.85249276315244

>  <meeko>  (30) 
{"free_energy": -7.22, "intermolecular_energy": -9.01, "internal_energy": -4.1, "cluster_size": 6, "cluster_id": 6, "rank_in_cluster": 4}

>  <energy>  (30) 
-7.63

>  <cluster_rmsd>  (30) 
1.61

>  <cluster>  (30) 
5

$$$$

     RDKit          3D

 55 59  0  0  0  0  0  0  0  0999 V2000
  139.5730   74.4350  222.0580 O   0  0  0  0  0  0  0  0  0  0  0  0
  140.6680   74.9420  221.7150 C   0  0  0  0  0  0  0  0  0  0  0  0
  140.8700   76.3450  221.8220 N   0  0  0  0  0  0  0  0  0  0  0  0
  139.8210   77.1720  222.3220 C   0  0  0  0  0  0  0  0  0  0  0  0
  139.7440   78.4970  221.6570 C   0  0  0  0  0  0  0  0  0  0  0  0
  138.9020   78.5850  220.7020 O   0  0  0  0  0  0  0  0  0  0  0  0
  140.5480   79.5820  222.0530 N   0  0  0  0  0  0  0  0  0  0  0  0
  140.5450   80.1370  223.4180 C   0  0  0  0  0  0  0  0  0  0  0  0
  141.8230   80.9430  223.5240 C   0  0  0  0  0  0  0  0  0  0  0  0
  142.6140   80.5190  222.3060 C   0  0  0  0  0  0  0  0  0  0  0  0
  141.4740   80.3380  221.2910 C   0  0  1  0  0  0  0  0  0  0  0  0
  141.9860   79.6620  220.0660 C   0  0  0  0  0  0  0  0  0  0  0  0
  142.5560   80.2080  218.9380 C   0  0  0  0  0  0  0  0  0  0  0  0
  142.8670   79.1930  218.0850 N   0  0  0  0  0  0  0  0  0  0  0  0
  142.5010   78.0320  218.6620 C   0  0  0  0  0  0  0  0  0  0  0  0
  142.6290   76.6680  218.1390 C   0  0  0  0  0  0  0  0  0  0  0  0
  143.7590   76.2710  217.4180 C   0  0  0  0  0  0  0  0  0  0  0  0
  143.8930   74.9910  216.9200 C   0  0  0  0  0  0  0  0  0  0  0  0
  142.8710   74.0870  217.1490 C   0  0  0  0  0  0  0  0  0  0  0  0
  141.7380   74.4610  217.8620 C   0  0  0  0  0  0  0  0  0  0  0  0
  141.6100   75.7520  218.3620 C   0  0  0  0  0  0  0  0  0  0  0  0
  141.9760   78.3320  219.8480 N   0  0  0  0  0  0  0  0  0  0  0  0
  141.7430   74.0970  221.2020 C   0  0  0  0  0  0  0  0  0  0  0  0
  141.4750   72.7850  220.8570 C   0  0  0  0  0  0  0  0  0  0  0  0
  142.4380   71.9300  220.3690 C   0  0  0  0  0  0  0  0  0  0  0  0
  143.7080   72.4190  220.2250 C   0  0  0  0  0  0  0  0  0  0  0  0
  144.6830   71.5750  219.7360 C   0  0  0  0  0  0  0  0  0  0  0  0
  145.9570   72.0830  219.5980 C   0  0  0  0  0  0  0  0  0  0  0  0
  146.2620   73.3940  219.9340 C   0  0  0  0  0  0  0  0  0  0  0  0
  145.2750   74.2190  220.4180 C   0  0  0  0  0  0  0  0  0  0  0  0
  143.9920   73.7300  220.5650 C   0  0  0  0  0  0  0  0  0  0  0  0
  143.0070   74.5330  221.0430 N   0  0  0  0  0  0  0  0  0  0  0  0
  141.8160   76.7140  221.5170 H   0  0  0  0  0  0  0  0  0  0  0  0
  138.8643   76.6504  222.1710 H   0  0  0  0  0  0  0  0  0  0  0  0
  140.0325   77.3555  223.3858 H   0  0  0  0  0  0  0  0  0  0  0  0
  139.6680   80.7835  223.5692 H   0  0  0  0  0  0  0  0  0  0  0  0
  140.4934   79.3472  224.1819 H   0  0  0  0  0  0  0  0  0  0  0  0
  141.6101   82.0219  223.4978 H   0  0  0  0  0  0  0  0  0  0  0  0
  142.3624   80.7665  224.4663 H   0  0  0  0  0  0  0  0  0  0  0  0
  143.3223   81.2985  221.9885 H   0  0  0  0  0  0  0  0  0  0  0  0
  143.2466   79.6311  222.4527 H   0  0  0  0  0  0  0  0  0  0  0  0
  141.0173   81.2566  220.8940 H   0  0  0  0  0  0  0  0  0  0  0  0
  142.7301   81.2789  218.7570 H   0  0  0  0  0  0  0  0  0  0  0  0
  143.3130   79.2960  217.1440 H   0  0  0  0  0  0  0  0  0  0  0  0
  144.5642   76.9996  217.2427 H   0  0  0  0  0  0  0  0  0  0  0  0
  144.7899   74.6968  216.3551 H   0  0  0  0  0  0  0  0  0  0  0  0
  142.9561   73.0607  216.7624 H   0  0  0  0  0  0  0  0  0  0  0  0
  140.9351   73.7287  218.0323 H   0  0  0  0  0  0  0  0  0  0  0  0
  140.7126   76.0439  218.9272 H   0  0  0  0  0  0  0  0  0  0  0  0
  140.4486   72.4081  220.9775 H   0  0  0  0  0  0  0  0  0  0  0  0
  142.1949   70.8904  220.1042 H   0  0  0  0  0  0  0  0  0  0  0  0
  144.4523   70.5339  219.4658 H   0  0  0  0  0  0  0  0  0  0  0  0
  146.7538   71.4309  219.2108 H   0  0  0  0  0  0  0  0  0  0  0  0
  147.2883   73.7712  219.8137 H   0  0  0  0  0  0  0  0  0  0  0  0
  145.5053   75.2607  220.6862 H   0  0  0  0  0  0  0  0  0  0  0  0
  1  2  2  0
  2  3  1  0
  3  4  1  0
  4  5  1  0
  5  6  2  0
  5  7  1  0
  7  8  1  0
  8  9  1  0
  9 10  1  0
 10 11  1  0
 11 12  1  0
 12 13  2  0
 13 14  1  0
 14 15  1  0
 15 16  1  0
 16 17  2  0
 17 18  1  0
 18 19  2  0
 19 20  1  0
 20 21  2  0
 15 22  2  0
  2 23  1  0
 23 24  2  0
 24 25  1  0
 25 26  2  0
 26 27  1  0
 27 28  2  0
 28 29  1  0
 29 30  2  0
 30 31  1  0
 31 32  2  0
 11  7  1  0
 22 12  1  0
 32 23  1  0
 21 16  1  0
 31 26  1  0
  3 33  1  0
  4 34  1  0
  4 35  1  0
  8 36  1  0
  8 37  1  0
  9 38  1  0
  9 39  1  0
 10 40  1  0
 10 41  1  0
 11 42  1  6
 13 43  1  0
 14 44  1  0
 17 45  1  0
 18 46  1  0
 19 47  1  0
 20 48  1  0
 21 49  1  0
 24 50  1  0
 25 51  1  0
 27 52  1  0
 28 53  1  0
 29 54  1  0
 30 55  1  0
M  END
>  <smiles>  (31) 
O=C(NCC(=O)N1CCC[C@H]1c1c[nH]c(-c2ccccc2)n1)c1ccc2ccccc2n1

>  <score_type>  (31) 
oracle

>  <origin>  (31) 
autodockgpu

>  <m_score__min__energy>  (31) 
-9.75

>  <m_primary>  (31) 
energy

>  <rmsd>  (31) 
6.914776819727958

>  <m_score__min__rmsd>  (31) 
6.914776819727958

>  <meeko>  (31) 
{"free_energy": -7.46, "intermolecular_energy": -9.25, "internal_energy": -3.83, "cluster_size": 6, "cluster_id": 6, "rank_in_cluster": 1}

>  <energy>  (31) 
-7.62

>  <cluster_rmsd>  (31) 
0.22

>  <cluster>  (31) 
5

$$$$

     RDKit          3D

 55 59  0  0  0  0  0  0  0  0999 V2000
  140.9630   71.2250  221.3760 O   0  0  0  0  0  0  0  0  0  0  0  0
  140.4660   71.8400  222.3500 C   0  0  0  0  0  0  0  0  0  0  0  0
  140.0870   73.2030  222.2160 N   0  0  0  0  0  0  0  0  0  0  0  0
  140.2740   73.8670  220.9660 C   0  0  0  0  0  0  0  0  0  0  0  0
  141.0530   75.1250  221.0770 C   0  0  0  0  0  0  0  0  0  0  0  0
  141.0830   75.6540  222.2380 O   0  0  0  0  0  0  0  0  0  0  0  0
  141.7150   75.6970  219.9740 N   0  0  0  0  0  0  0  0  0  0  0  0
  141.4610   77.0690  219.4990 C   0  0  0  0  0  0  0  0  0  0  0  0
  142.6530   77.4180  218.6330 C   0  0  0  0  0  0  0  0  0  0  0  0
  143.6520   76.3260  218.9440 C   0  0  0  0  0  0  0  0  0  0  0  0
  142.7020   75.1320  219.1270 C   0  0  1  0  0  0  0  0  0  0  0  0
  143.4430   73.9750  219.7040 C   0  0  0  0  0  0  0  0  0  0  0  0
  144.2070   73.9090  220.8470 C   0  0  0  0  0  0  0  0  0  0  0  0
  144.6860   72.6400  220.9650 N   0  0  0  0  0  0  0  0  0  0  0  0
  144.2330   71.9210  219.9190 C   0  0  0  0  0  0  0  0  0  0  0  0
  144.4740   70.5100  219.6030 C   0  0  0  0  0  0  0  0  0  0  0  0
  143.4550   69.5580  219.7130 C   0  0  0  0  0  0  0  0  0  0  0  0
  143.6680   68.2260  219.4190 C   0  0  0  0  0  0  0  0  0  0  0  0
  144.9290   67.8380  219.0060 C   0  0  0  0  0  0  0  0  0  0  0  0
  145.9560   68.7670  218.8920 C   0  0  0  0  0  0  0  0  0  0  0  0
  145.7360   70.1080  219.1880 C   0  0  0  0  0  0  0  0  0  0  0  0
  143.4900   72.7370  219.1750 N   0  0  0  0  0  0  0  0  0  0  0  0
  140.2760   71.1620  223.6290 C   0  0  0  0  0  0  0  0  0  0  0  0
  139.6450   69.9320  223.6630 C   0  0  0  0  0  0  0  0  0  0  0  0
  139.4300   69.2360  224.8320 C   0  0  0  0  0  0  0  0  0  0  0  0
  139.8670   69.8020  225.9990 C   0  0  0  0  0  0  0  0  0  0  0  0
  139.6590   69.1160  227.1770 C   0  0  0  0  0  0  0  0  0  0  0  0
  140.1040   69.7010  228.3430 C   0  0  0  0  0  0  0  0  0  0  0  0
  140.7410   70.9330  228.3470 C   0  0  0  0  0  0  0  0  0  0  0  0
  140.9390   71.6000  227.1610 C   0  0  0  0  0  0  0  0  0  0  0  0
  140.4990   71.0320  225.9810 C   0  0  0  0  0  0  0  0  0  0  0  0
  140.6880   71.6790  224.8020 N   0  0  0  0  0  0  0  0  0  0  0  0
  139.6730   73.6680  223.0730 H   0  0  0  0  0  0  0  0  0  0  0  0
  140.8067   73.1860  220.2859 H   0  0  0  0  0  0  0  0  0  0  0  0
  139.2762   74.1355  220.5888 H   0  0  0  0  0  0  0  0  0  0  0  0
  140.5325   77.1075  218.9104 H   0  0  0  0  0  0  0  0  0  0  0  0
  141.3383   77.7760  220.3328 H   0  0  0  0  0  0  0  0  0  0  0  0
  142.3802   77.4086  217.5674 H   0  0  0  0  0  0  0  0  0  0  0  0
  143.0459   78.4257  218.8334 H   0  0  0  0  0  0  0  0  0  0  0  0
  144.3524   76.1654  218.1111 H   0  0  0  0  0  0  0  0  0  0  0  0
  144.3065   76.5308  219.8041 H   0  0  0  0  0  0  0  0  0  0  0  0
  142.2589   74.7105  218.2127 H   0  0  0  0  0  0  0  0  0  0  0  0
  144.3976   74.7380  221.5444 H   0  0  0  0  0  0  0  0  0  0  0  0
  145.2990   72.2820  221.7340 H   0  0  0  0  0  0  0  0  0  0  0  0
  142.4562   69.8796  220.0429 H   0  0  0  0  0  0  0  0  0  0  0  0
  142.8544   67.4915  219.5111 H   0  0  0  0  0  0  0  0  0  0  0  0
  145.1215   66.7821  218.7649 H   0  0  0  0  0  0  0  0  0  0  0  0
  146.9533   68.4384  218.5643 H   0  0  0  0  0  0  0  0  0  0  0  0
  146.5514   70.8404  219.0945 H   0  0  0  0  0  0  0  0  0  0  0  0
  139.3001   69.4907  222.7163 H   0  0  0  0  0  0  0  0  0  0  0  0
  138.9245   68.2590  224.8278 H   0  0  0  0  0  0  0  0  0  0  0  0
  139.1563   68.1376  227.1858 H   0  0  0  0  0  0  0  0  0  0  0  0
  139.9496   69.1760  229.2972 H   0  0  0  0  0  0  0  0  0  0  0  0
  141.0859   71.3741  229.2938 H   0  0  0  0  0  0  0  0  0  0  0  0
  141.4434   72.5775  227.1518 H   0  0  0  0  0  0  0  0  0  0  0  0
  1  2  2  0
  2  3  1  0
  3  4  1  0
  4  5  1  0
  5  6  2  0
  5  7  1  0
  7  8  1  0
  8  9  1  0
  9 10  1  0
 10 11  1  0
 11 12  1  0
 12 13  2  0
 13 14  1  0
 14 15  1  0
 15 16  1  0
 16 17  2  0
 17 18  1  0
 18 19  2  0
 19 20  1  0
 20 21  2  0
 15 22  2  0
  2 23  1  0
 23 24  2  0
 24 25  1  0
 25 26  2  0
 26 27  1  0
 27 28  2  0
 28 29  1  0
 29 30  2  0
 30 31  1  0
 31 32  2  0
 11  7  1  0
 22 12  1  0
 32 23  1  0
 21 16  1  0
 31 26  1  0
  3 33  1  0
  4 34  1  0
  4 35  1  0
  8 36  1  0
  8 37  1  0
  9 38  1  0
  9 39  1  0
 10 40  1  0
 10 41  1  0
 11 42  1  6
 13 43  1  0
 14 44  1  0
 17 45  1  0
 18 46  1  0
 19 47  1  0
 20 48  1  0
 21 49  1  0
 24 50  1  0
 25 51  1  0
 27 52  1  0
 28 53  1  0
 29 54  1  0
 30 55  1  0
M  END
>  <smiles>  (32) 
O=C(NCC(=O)N1CCC[C@H]1c1c[nH]c(-c2ccccc2)n1)c1ccc2ccccc2n1

>  <score_type>  (32) 
oracle

>  <origin>  (32) 
autodockgpu

>  <m_score__min__energy>  (32) 
-9.75

>  <m_primary>  (32) 
energy

>  <rmsd>  (32) 
6.6320819811305824

>  <m_score__min__rmsd>  (32) 
6.6320819811305824

>  <meeko>  (32) 
{"free_energy": -9.23, "intermolecular_energy": -11.02, "internal_energy": -2.1, "cluster_size": 5, "cluster_id": 2, "rank_in_cluster": 1}

>  <energy>  (32) 
-7.61

>  <cluster_rmsd>  (32) 
0.89

>  <cluster>  (32) 
5

$$$$

     RDKit          3D

 55 59  0  0  0  0  0  0  0  0999 V2000
  138.7060   75.4980  221.7150 O   0  0  0  0  0  0  0  0  0  0  0  0
  139.8940   75.8780  221.8540 C   0  0  0  0  0  0  0  0  0  0  0  0
  140.9670   75.0020  221.5340 N   0  0  0  0  0  0  0  0  0  0  0  0
  140.6840   73.6890  221.0540 C   0  0  0  0  0  0  0  0  0  0  0  0
  141.7550   73.1320  220.1900 C   0  0  0  0  0  0  0  0  0  0  0  0
  141.3540   72.4800  219.1680 O   0  0  0  0  0  0  0  0  0  0  0  0
  143.1210   73.3110  220.4780 N   0  0  0  0  0  0  0  0  0  0  0  0
  144.0140   72.2110  220.8830 C   0  0  0  0  0  0  0  0  0  0  0  0
  145.4170   72.7320  220.6530 C   0  0  0  0  0  0  0  0  0  0  0  0
  145.2030   73.9820  219.8290 C   0  0  0  0  0  0  0  0  0  0  0  0
  143.8960   74.4980  220.4520 C   0  0  1  0  0  0  0  0  0  0  0  0
  143.3360   75.6000  219.6200 C   0  0  0  0  0  0  0  0  0  0  0  0
  143.3660   75.7670  218.2540 C   0  0  0  0  0  0  0  0  0  0  0  0
  142.7230   76.9280  217.9530 N   0  0  0  0  0  0  0  0  0  0  0  0
  142.2960   77.4820  219.1040 C   0  0  0  0  0  0  0  0  0  0  0  0
  141.5560   78.7320  219.3010 C   0  0  0  0  0  0  0  0  0  0  0  0
  140.1610   78.7390  219.4140 C   0  0  0  0  0  0  0  0  0  0  0  0
  139.4510   79.9080  219.5990 C   0  0  0  0  0  0  0  0  0  0  0  0
  140.1530   81.0980  219.6730 C   0  0  0  0  0  0  0  0  0  0  0  0
  141.5380   81.1140  219.5620 C   0  0  0  0  0  0  0  0  0  0  0  0
  142.2480   79.9330  219.3760 C   0  0  0  0  0  0  0  0  0  0  0  0
  142.6720   76.6730  220.0920 N   0  0  0  0  0  0  0  0  0  0  0  0
  140.1850   77.2220  222.3470 C   0  0  0  0  0  0  0  0  0  0  0  0
  139.1440   78.0530  222.7200 C   0  0  0  0  0  0  0  0  0  0  0  0
  139.3430   79.3310  223.1920 C   0  0  0  0  0  0  0  0  0  0  0  0
  140.6320   79.7800  223.2890 C   0  0  0  0  0  0  0  0  0  0  0  0
  140.8460   81.0580  223.7600 C   0  0  0  0  0  0  0  0  0  0  0  0
  142.1510   81.4950  223.8500 C   0  0  0  0  0  0  0  0  0  0  0  0
  143.2190   80.6900  223.4850 C   0  0  0  0  0  0  0  0  0  0  0  0
  142.9830   79.4180  223.0180 C   0  0  0  0  0  0  0  0  0  0  0  0
  141.6830   78.9610  222.9190 C   0  0  0  0  0  0  0  0  0  0  0  0
  141.4360   77.7080  222.4590 N   0  0  0  0  0  0  0  0  0  0  0  0
  141.9470   75.3800  221.6720 H   0  0  0  0  0  0  0  0  0  0  0  0
  140.5525   73.0226  221.9192 H   0  0  0  0  0  0  0  0  0  0  0  0
  139.7745   73.7578  220.4391 H   0  0  0  0  0  0  0  0  0  0  0  0
  143.8638   71.9633  221.9442 H   0  0  0  0  0  0  0  0  0  0  0  0
  143.8185   71.2917  220.3115 H   0  0  0  0  0  0  0  0  0  0  0  0
  145.9085   72.9706  221.6077 H   0  0  0  0  0  0  0  0  0  0  0  0
  146.0684   71.9987  220.1550 H   0  0  0  0  0  0  0  0  0  0  0  0
  146.0265   74.7001  219.9567 H   0  0  0  0  0  0  0  0  0  0  0  0
  145.1624   73.8169  218.7422 H   0  0  0  0  0  0  0  0  0  0  0  0
  143.9721   74.9552  221.4496 H   0  0  0  0  0  0  0  0  0  0  0  0
  143.8297   75.0804  217.5304 H   0  0  0  0  0  0  0  0  0  0  0  0
  142.5830   77.3240  216.9940 H   0  0  0  0  0  0  0  0  0  0  0  0
  139.6151   77.7859  219.3537 H   0  0  0  0  0  0  0  0  0  0  0  0
  138.3545   79.8940  219.6854 H   0  0  0  0  0  0  0  0  0  0  0  0
  139.6085   82.0422  219.8214 H   0  0  0  0  0  0  0  0  0  0  0  0
  142.0781   82.0704  219.6218 H   0  0  0  0  0  0  0  0  0  0  0  0
  143.3445   79.9502  219.2894 H   0  0  0  0  0  0  0  0  0  0  0  0
  138.1137   77.6769  222.6360 H   0  0  0  0  0  0  0  0  0  0  0  0
  138.4950   79.9692  223.4812 H   0  0  0  0  0  0  0  0  0  0  0  0
  140.0065   81.7055  224.0533 H   0  0  0  0  0  0  0  0  0  0  0  0
  142.3500   82.5109  224.2219 H   0  0  0  0  0  0  0  0  0  0  0  0
  144.2492   81.0664  223.5684 H   0  0  0  0  0  0  0  0  0  0  0  0
  143.8224   78.7699  222.7258 H   0  0  0  0  0  0  0  0  0  0  0  0
  1  2  2  0
  2  3  1  0
  3  4  1  0
  4  5  1  0
  5  6  2  0
  5  7  1  0
  7  8  1  0
  8  9  1  0
  9 10  1  0
 10 11  1  0
 11 12  1  0
 12 13  2  0
 13 14  1  0
 14 15  1  0
 15 16  1  0
 16 17  2  0
 17 18  1  0
 18 19  2  0
 19 20  1  0
 20 21  2  0
 15 22  2  0
  2 23  1  0
 23 24  2  0
 24 25  1  0
 25 26  2  0
 26 27  1  0
 27 28  2  0
 28 29  1  0
 29 30  2  0
 30 31  1  0
 31 32  2  0
 11  7  1  0
 22 12  1  0
 32 23  1  0
 21 16  1  0
 31 26  1  0
  3 33  1  0
  4 34  1  0
  4 35  1  0
  8 36  1  0
  8 37  1  0
  9 38  1  0
  9 39  1  0
 10 40  1  0
 10 41  1  0
 11 42  1  1
 13 43  1  0
 14 44  1  0
 17 45  1  0
 18 46  1  0
 19 47  1  0
 20 48  1  0
 21 49  1  0
 24 50  1  0
 25 51  1  0
 27 52  1  0
 28 53  1  0
 29 54  1  0
 30 55  1  0
M  END
>  <smiles>  (33) 
O=C(NCC(=O)N1CCC[C@H]1c1c[nH]c(-c2ccccc2)n1)c1ccc2ccccc2n1

>  <score_type>  (33) 
oracle

>  <origin>  (33) 
autodockgpu

>  <m_score__min__energy>  (33) 
-9.75

>  <m_primary>  (33) 
energy

>  <rmsd>  (33) 
6.972315754804639

>  <m_score__min__rmsd>  (33) 
6.972315754804639

>  <meeko>  (33) 
{"free_energy": -7.32, "intermolecular_energy": -9.11, "internal_energy": -4.27, "cluster_size": 19, "cluster_id": 5, "rank_in_cluster": 17}

>  <energy>  (33) 
-7.59

>  <cluster_rmsd>  (33) 
0.19

>  <cluster>  (33) 
5

$$$$

     RDKit          3D

 55 59  0  0  0  0  0  0  0  0999 V2000
  140.7320   70.8440  221.3210 O   0  0  0  0  0  0  0  0  0  0  0  0
  140.4180   71.5190  222.3310 C   0  0  0  0  0  0  0  0  0  0  0  0
  140.2680   72.9290  222.2310 N   0  0  0  0  0  0  0  0  0  0  0  0
  140.4770   73.5710  220.9750 C   0  0  0  0  0  0  0  0  0  0  0  0
  140.9280   74.9800  221.1000 C   0  0  0  0  0  0  0  0  0  0  0  0
  140.6380   75.5550  222.2020 O   0  0  0  0  0  0  0  0  0  0  0  0
  141.6270   75.6390  220.0710 N   0  0  0  0  0  0  0  0  0  0  0  0
  141.3640   77.0330  219.6760 C   0  0  0  0  0  0  0  0  0  0  0  0
  142.5870   77.4650  218.8940 C   0  0  0  0  0  0  0  0  0  0  0  0
  143.5950   76.3740  219.1800 C   0  0  0  0  0  0  0  0  0  0  0  0
  142.6650   75.1520  219.2360 C   0  0  1  0  0  0  0  0  0  0  0  0
  143.4050   73.9740  219.7710 C   0  0  0  0  0  0  0  0  0  0  0  0
  144.2630   73.8940  220.8440 C   0  0  0  0  0  0  0  0  0  0  0  0
  144.6970   72.6070  220.9460 N   0  0  0  0  0  0  0  0  0  0  0  0
  144.1250   71.8910  219.9580 C   0  0  0  0  0  0  0  0  0  0  0  0
  144.2800   70.4660  219.6500 C   0  0  0  0  0  0  0  0  0  0  0  0
  143.1870   69.5940  219.6870 C   0  0  0  0  0  0  0  0  0  0  0  0
  143.3170   68.2500  219.4000 C   0  0  0  0  0  0  0  0  0  0  0  0
  144.5710   67.7680  219.0690 C   0  0  0  0  0  0  0  0  0  0  0  0
  145.6700   68.6170  219.0280 C   0  0  0  0  0  0  0  0  0  0  0  0
  145.5320   69.9700  219.3170 C   0  0  0  0  0  0  0  0  0  0  0  0
  143.3550   72.7260  219.2640 N   0  0  0  0  0  0  0  0  0  0  0  0
  140.2040   70.8610  223.6180 C   0  0  0  0  0  0  0  0  0  0  0  0
  139.5520   69.6430  223.6630 C   0  0  0  0  0  0  0  0  0  0  0  0
  139.3150   68.9670  224.8390 C   0  0  0  0  0  0  0  0  0  0  0  0
  139.7510   69.5410  226.0020 C   0  0  0  0  0  0  0  0  0  0  0  0
  139.5210   68.8750  227.1880 C   0  0  0  0  0  0  0  0  0  0  0  0
  139.9670   69.4690  228.3500 C   0  0  0  0  0  0  0  0  0  0  0  0
  140.6240   70.6900  228.3430 C   0  0  0  0  0  0  0  0  0  0  0  0
  140.8440   71.3370  227.1490 C   0  0  0  0  0  0  0  0  0  0  0  0
  140.4050   70.7600  225.9730 C   0  0  0  0  0  0  0  0  0  0  0  0
  140.6150   71.3880  224.7880 N   0  0  0  0  0  0  0  0  0  0  0  0
  140.0010   73.4430  223.1180 H   0  0  0  0  0  0  0  0  0  0  0  0
  141.2414   73.0084  220.4189 H   0  0  0  0  0  0  0  0  0  0  0  0
  139.5089   73.5854  220.4530 H   0  0  0  0  0  0  0  0  0  0  0  0
  140.4638   77.0917  219.0466 H   0  0  0  0  0  0  0  0  0  0  0  0
  141.1857   77.6794  220.5480 H   0  0  0  0  0  0  0  0  0  0  0  0
  142.3652   77.5227  217.8181 H   0  0  0  0  0  0  0  0  0  0  0  0
  142.9462   78.4647  219.1797 H   0  0  0  0  0  0  0  0  0  0  0  0
  144.3377   76.2840  218.3736 H   0  0  0  0  0  0  0  0  0  0  0  0
  144.2029   76.5328  220.0829 H   0  0  0  0  0  0  0  0  0  0  0  0
  142.2750   74.7848  218.2752 H   0  0  0  0  0  0  0  0  0  0  0  0
  144.5488   74.7256  221.5049 H   0  0  0  0  0  0  0  0  0  0  0  0
  145.3590   72.2360  221.6670 H   0  0  0  0  0  0  0  0  0  0  0  0
  142.1958   69.9904  219.9523 H   0  0  0  0  0  0  0  0  0  0  0  0
  142.4458   67.5793  219.4336 H   0  0  0  0  0  0  0  0  0  0  0  0
  144.6993   66.7007  218.8357 H   0  0  0  0  0  0  0  0  0  0  0  0
  146.6592   68.2147  218.7642 H   0  0  0  0  0  0  0  0  0  0  0  0
  146.4047   70.6387  219.2820 H   0  0  0  0  0  0  0  0  0  0  0  0
  139.2079   69.1947  222.7193 H   0  0  0  0  0  0  0  0  0  0  0  0
  138.7931   67.9987  224.8433 H   0  0  0  0  0  0  0  0  0  0  0  0
  139.0010   67.9058  227.2062 H   0  0  0  0  0  0  0  0  0  0  0  0
  139.7966   68.9595  229.3099 H   0  0  0  0  0  0  0  0  0  0  0  0
  140.9674   71.1388  229.2868 H   0  0  0  0  0  0  0  0  0  0  0  0
  141.3651   72.3056  227.1308 H   0  0  0  0  0  0  0  0  0  0  0  0
  1  2  2  0
  2  3  1  0
  3  4  1  0
  4  5  1  0
  5  6  2  0
  5  7  1  0
  7  8  1  0
  8  9  1  0
  9 10  1  0
 10 11  1  0
 11 12  1  0
 12 13  2  0
 13 14  1  0
 14 15  1  0
 15 16  1  0
 16 17  2  0
 17 18  1  0
 18 19  2  0
 19 20  1  0
 20 21  2  0
 15 22  2  0
  2 23  1  0
 23 24  2  0
 24 25  1  0
 25 26  2  0
 26 27  1  0
 27 28  2  0
 28 29  1  0
 29 30  2  0
 30 31  1  0
 31 32  2  0
 11  7  1  0
 22 12  1  0
 32 23  1  0
 21 16  1  0
 31 26  1  0
  3 33  1  0
  4 34  1  0
  4 35  1  0
  8 36  1  0
  8 37  1  0
  9 38  1  0
  9 39  1  0
 10 40  1  0
 10 41  1  0
 11 42  1  6
 13 43  1  0
 14 44  1  0
 17 45  1  0
 18 46  1  0
 19 47  1  0
 20 48  1  0
 21 49  1  0
 24 50  1  0
 25 51  1  0
 27 52  1  0
 28 53  1  0
 29 54  1  0
 30 55  1  0
M  END
>  <smiles>  (34) 
O=C(NCC(=O)N1CCC[C@H]1c1c[nH]c(-c2ccccc2)n1)c1ccc2ccccc2n1

>  <score_type>  (34) 
oracle

>  <origin>  (34) 
autodockgpu

>  <m_score__min__energy>  (34) 
-9.75

>  <m_primary>  (34) 
energy

>  <rmsd>  (34) 
6.611230491786848

>  <m_score__min__rmsd>  (34) 
6.611230491786848

>  <meeko>  (34) 
{"free_energy": -8.95, "intermolecular_energy": -10.74, "internal_energy": -2.28, "cluster_size": 5, "cluster_id": 2, "rank_in_cluster": 3}

>  <energy>  (34) 
-7.55

>  <cluster_rmsd>  (34) 
0.83

>  <cluster>  (34) 
5

$$$$

     RDKit          3D

 55 59  0  0  0  0  0  0  0  0999 V2000
  138.1890   75.6130  222.4280 O   0  0  0  0  0  0  0  0  0  0  0  0
  139.3420   76.0100  222.1330 C   0  0  0  0  0  0  0  0  0  0  0  0
  140.2340   75.1560  221.4290 N   0  0  0  0  0  0  0  0  0  0  0  0
  139.8090   73.8450  221.0610 C   0  0  0  0  0  0  0  0  0  0  0  0
  140.5590   72.7650  221.7510 C   0  0  0  0  0  0  0  0  0  0  0  0
  140.5330   72.8060  223.0260 O   0  0  0  0  0  0  0  0  0  0  0  0
  141.2550   71.7650  221.0450 N   0  0  0  0  0  0  0  0  0  0  0  0
  140.6660   70.4600  220.7000 C   0  0  0  0  0  0  0  0  0  0  0  0
  141.5460   69.9040  219.6000 C   0  0  0  0  0  0  0  0  0  0  0  0
  142.3870   71.0890  219.1830 C   0  0  0  0  0  0  0  0  0  0  0  0
  142.5810   71.7780  220.5430 C   0  0  1  0  0  0  0  0  0  0  0  0
  143.1700   73.1330  220.3480 C   0  0  0  0  0  0  0  0  0  0  0  0
  144.4340   73.5880  220.6450 C   0  0  0  0  0  0  0  0  0  0  0  0
  144.5090   74.9000  220.2880 N   0  0  0  0  0  0  0  0  0  0  0  0
  143.3170   75.2640  219.7770 C   0  0  0  0  0  0  0  0  0  0  0  0
  142.9040   76.5710  219.2560 C   0  0  0  0  0  0  0  0  0  0  0  0
  142.2050   77.4820  220.0550 C   0  0  0  0  0  0  0  0  0  0  0  0
  141.8100   78.7150  219.5780 C   0  0  0  0  0  0  0  0  0  0  0  0
  142.1210   79.0450  218.2710 C   0  0  0  0  0  0  0  0  0  0  0  0
  142.8140   78.1540  217.4600 C   0  0  0  0  0  0  0  0  0  0  0  0
  143.2110   76.9130  217.9460 C   0  0  0  0  0  0  0  0  0  0  0  0
  142.5280   74.1940  219.8210 N   0  0  0  0  0  0  0  0  0  0  0  0
  139.7770   77.3530  222.5100 C   0  0  0  0  0  0  0  0  0  0  0  0
  138.8340   78.3300  222.7670 C   0  0  0  0  0  0  0  0  0  0  0  0
  139.1710   79.6160  223.1260 C   0  0  0  0  0  0  0  0  0  0  0  0
  140.5010   79.9200  223.2290 C   0  0  0  0  0  0  0  0  0  0  0  0
  140.8530   81.2030  223.5890 C   0  0  0  0  0  0  0  0  0  0  0  0
  142.1980   81.4930  223.6870 C   0  0  0  0  0  0  0  0  0  0  0  0
  143.1720   80.5370  223.4360 C   0  0  0  0  0  0  0  0  0  0  0  0
  142.7990   79.2630  223.0800 C   0  0  0  0  0  0  0  0  0  0  0  0
  141.4570   78.9520  222.9750 C   0  0  0  0  0  0  0  0  0  0  0  0
  141.0740   77.6980  222.6240 N   0  0  0  0  0  0  0  0  0  0  0  0
  141.1930   75.5480  221.2080 H   0  0  0  0  0  0  0  0  0  0  0  0
  138.7424   73.7420  221.3093 H   0  0  0  0  0  0  0  0  0  0  0  0
  139.9984   73.7335  219.9832 H   0  0  0  0  0  0  0  0  0  0  0  0
  140.6719   69.7914  221.5734 H   0  0  0  0  0  0  0  0  0  0  0  0
  139.6181   70.5544  220.3792 H   0  0  0  0  0  0  0  0  0  0  0  0
  142.1785   69.0874  219.9783 H   0  0  0  0  0  0  0  0  0  0  0  0
  140.9691   69.4756  218.7671 H   0  0  0  0  0  0  0  0  0  0  0  0
  143.3459   70.7741  218.7455 H   0  0  0  0  0  0  0  0  0  0  0  0
  141.9367   71.7230  218.4050 H   0  0  0  0  0  0  0  0  0  0  0  0
  143.2843   71.3011  221.2416 H   0  0  0  0  0  0  0  0  0  0  0  0
  145.2442   72.9944  221.0935 H   0  0  0  0  0  0  0  0  0  0  0  0
  145.3470   75.5190  220.3920 H   0  0  0  0  0  0  0  0  0  0  0  0
  141.9635   77.2077  221.0925 H   0  0  0  0  0  0  0  0  0  0  0  0
  141.2611   79.4185  220.2213 H   0  0  0  0  0  0  0  0  0  0  0  0
  141.8166   80.0228  217.8694 H   0  0  0  0  0  0  0  0  0  0  0  0
  143.0509   78.4334  216.4228 H   0  0  0  0  0  0  0  0  0  0  0  0
  143.7609   76.2118  217.3011 H   0  0  0  0  0  0  0  0  0  0  0  0
  137.7688   78.0693  222.6811 H   0  0  0  0  0  0  0  0  0  0  0  0
  138.3975   80.3728  223.3232 H   0  0  0  0  0  0  0  0  0  0  0  0
  140.0889   81.9681  223.7909 H   0  0  0  0  0  0  0  0  0  0  0  0
  142.5068   82.5096  223.9718 H   0  0  0  0  0  0  0  0  0  0  0  0
  144.2373   80.7975  223.5215 H   0  0  0  0  0  0  0  0  0  0  0  0
  143.5629   78.4971  222.8803 H   0  0  0  0  0  0  0  0  0  0  0  0
  1  2  2  0
  2  3  1  0
  3  4  1  0
  4  5  1  0
  5  6  2  0
  5  7  1  0
  7  8  1  0
  8  9  1  0
  9 10  1  0
 10 11  1  0
 11 12  1  0
 12 13  2  0
 13 14  1  0
 14 15  1  0
 15 16  1  0
 16 17  2  0
 17 18  1  0
 18 19  2  0
 19 20  1  0
 20 21  2  0
 15 22  2  0
  2 23  1  0
 23 24  2  0
 24 25  1  0
 25 26  2  0
 26 27  1  0
 27 28  2  0
 28 29  1  0
 29 30  2  0
 30 31  1  0
 31 32  2  0
 11  7  1  0
 22 12  1  0
 32 23  1  0
 21 16  1  0
 31 26  1  0
  3 33  1  0
  4 34  1  0
  4 35  1  0
  8 36  1  0
  8 37  1  0
  9 38  1  0
  9 39  1  0
 10 40  1  0
 10 41  1  0
 11 42  1  1
 13 43  1  0
 14 44  1  0
 17 45  1  0
 18 46  1  0
 19 47  1  0
 20 48  1  0
 21 49  1  0
 24 50  1  0
 25 51  1  0
 27 52  1  0
 28 53  1  0
 29 54  1  0
 30 55  1  0
M  END
>  <smiles>  (35) 
O=C(NCC(=O)N1CCC[C@H]1c1c[nH]c(-c2ccccc2)n1)c1ccc2ccccc2n1

>  <score_type>  (35) 
oracle

>  <origin>  (35) 
autodockgpu

>  <m_score__min__energy>  (35) 
-9.75

>  <m_primary>  (35) 
energy

>  <rmsd>  (35) 
7.357727415913433

>  <m_score__min__rmsd>  (35) 
7.357727415913433

>  <meeko>  (35) 
{"free_energy": -7.73, "intermolecular_energy": -9.52, "internal_energy": -3.05, "cluster_size": 19, "cluster_id": 5, "rank_in_cluster": 3}

>  <energy>  (35) 
-7.48

>  <cluster_rmsd>  (35) 
0.31

>  <cluster>  (35) 
5

$$$$

     RDKit          3D

 55 59  0  0  0  0  0  0  0  0999 V2000
  138.9050   75.1770  222.3670 O   0  0  0  0  0  0  0  0  0  0  0  0
  139.9360   75.7870  221.9920 C   0  0  0  0  0  0  0  0  0  0  0  0
  140.8630   75.1550  221.1190 N   0  0  0  0  0  0  0  0  0  0  0  0
  140.6140   73.8230  220.6720 C   0  0  0  0  0  0  0  0  0  0  0  0
  141.7010   73.2710  219.8260 C   0  0  0  0  0  0  0  0  0  0  0  0
  141.3290   72.7530  218.7210 O   0  0  0  0  0  0  0  0  0  0  0  0
  143.0530   73.3160  220.2170 N   0  0  0  0  0  0  0  0  0  0  0  0
  143.8000   72.1360  220.6870 C   0  0  0  0  0  0  0  0  0  0  0  0
  145.2610   72.5140  220.5640 C   0  0  0  0  0  0  0  0  0  0  0  0
  145.2340   73.7730  219.7280 C   0  0  0  0  0  0  0  0  0  0  0  0
  143.9420   74.4200  220.2500 C   0  0  1  0  0  0  0  0  0  0  0  0
  143.5580   75.5670  219.3800 C   0  0  0  0  0  0  0  0  0  0  0  0
  143.6620   75.7000  218.0130 C   0  0  0  0  0  0  0  0  0  0  0  0
  143.1830   76.9280  217.6690 N   0  0  0  0  0  0  0  0  0  0  0  0
  142.7850   77.5540  218.7930 C   0  0  0  0  0  0  0  0  0  0  0  0
  142.2020   78.8910  218.9410 C   0  0  0  0  0  0  0  0  0  0  0  0
  141.1080   79.1160  219.7830 C   0  0  0  0  0  0  0  0  0  0  0  0
  140.5490   80.3690  219.9310 C   0  0  0  0  0  0  0  0  0  0  0  0
  141.0970   81.4210  219.2200 C   0  0  0  0  0  0  0  0  0  0  0  0
  142.1830   81.2200  218.3770 C   0  0  0  0  0  0  0  0  0  0  0  0
  142.7430   79.9550  218.2320 C   0  0  0  0  0  0  0  0  0  0  0  0
  143.0180   76.7240  219.8080 N   0  0  0  0  0  0  0  0  0  0  0  0
  140.1910   77.1500  222.4500 C   0  0  0  0  0  0  0  0  0  0  0  0
  139.1300   77.9670  222.7920 C   0  0  0  0  0  0  0  0  0  0  0  0
  139.2950   79.2620  223.2300 C   0  0  0  0  0  0  0  0  0  0  0  0
  140.5730   79.7430  223.3250 C   0  0  0  0  0  0  0  0  0  0  0  0
  140.7540   81.0380  223.7630 C   0  0  0  0  0  0  0  0  0  0  0  0
  142.0480   81.5060  223.8520 C   0  0  0  0  0  0  0  0  0  0  0  0
  143.1370   80.7150  223.5170 C   0  0  0  0  0  0  0  0  0  0  0  0
  142.9340   79.4260  223.0830 C   0  0  0  0  0  0  0  0  0  0  0  0
  141.6460   78.9370  222.9860 C   0  0  0  0  0  0  0  0  0  0  0  0
  141.4300   77.6670  222.5590 N   0  0  0  0  0  0  0  0  0  0  0  0
  141.7130   75.7210  220.8380 H   0  0  0  0  0  0  0  0  0  0  0  0
  140.4960   73.1759  221.5537 H   0  0  0  0  0  0  0  0  0  0  0  0
  139.7052   73.8534  220.0530 H   0  0  0  0  0  0  0  0  0  0  0  0
  143.5468   71.9113  221.7336 H   0  0  0  0  0  0  0  0  0  0  0  0
  143.5580   71.2369  220.1013 H   0  0  0  0  0  0  0  0  0  0  0  0
  145.7007   72.7089  221.5533 H   0  0  0  0  0  0  0  0  0  0  0  0
  145.8722   71.7167  220.1159 H   0  0  0  0  0  0  0  0  0  0  0  0
  146.1125   74.4070  219.9182 H   0  0  0  0  0  0  0  0  0  0  0  0
  145.2589   73.6052  218.6412 H   0  0  0  0  0  0  0  0  0  0  0  0
  143.9883   74.8744  221.2507 H   0  0  0  0  0  0  0  0  0  0  0  0
  144.0623   74.9457  217.3196 H   0  0  0  0  0  0  0  0  0  0  0  0
  143.1300   77.3180  216.6990 H   0  0  0  0  0  0  0  0  0  0  0  0
  140.6814   78.2707  220.3428 H   0  0  0  0  0  0  0  0  0  0  0  0
  139.6887   80.5271  220.5981 H   0  0  0  0  0  0  0  0  0  0  0  0
  140.6681   82.4287  219.3231 H   0  0  0  0  0  0  0  0  0  0  0  0
  142.6040   82.0693  217.8189 H   0  0  0  0  0  0  0  0  0  0  0  0
  143.6033   79.7997  217.5643 H   0  0  0  0  0  0  0  0  0  0  0  0
  138.1092   77.5652  222.7108 H   0  0  0  0  0  0  0  0  0  0  0  0
  138.4300   79.8881  223.4943 H   0  0  0  0  0  0  0  0  0  0  0  0
  139.8977   81.6742  224.0315 H   0  0  0  0  0  0  0  0  0  0  0  0
  142.2215   82.5355  224.1984 H   0  0  0  0  0  0  0  0  0  0  0  0
  144.1578   81.1167  223.5981 H   0  0  0  0  0  0  0  0  0  0  0  0
  143.7904   78.7897  222.8153 H   0  0  0  0  0  0  0  0  0  0  0  0
  1  2  2  0
  2  3  1  0
  3  4  1  0
  4  5  1  0
  5  6  2  0
  5  7  1  0
  7  8  1  0
  8  9  1  0
  9 10  1  0
 10 11  1  0
 11 12  1  0
 12 13  2  0
 13 14  1  0
 14 15  1  0
 15 16  1  0
 16 17  2  0
 17 18  1  0
 18 19  2  0
 19 20  1  0
 20 21  2  0
 15 22  2  0
  2 23  1  0
 23 24  2  0
 24 25  1  0
 25 26  2  0
 26 27  1  0
 27 28  2  0
 28 29  1  0
 29 30  2  0
 30 31  1  0
 31 32  2  0
 11  7  1  0
 22 12  1  0
 32 23  1  0
 21 16  1  0
 31 26  1  0
  3 33  1  0
  4 34  1  0
  4 35  1  0
  8 36  1  0
  8 37  1  0
  9 38  1  0
  9 39  1  0
 10 40  1  0
 10 41  1  0
 11 42  1  1
 13 43  1  0
 14 44  1  0
 17 45  1  0
 18 46  1  0
 19 47  1  0
 20 48  1  0
 21 49  1  0
 24 50  1  0
 25 51  1  0
 27 52  1  0
 28 53  1  0
 29 54  1  0
 30 55  1  0
M  END
>  <smiles>  (36) 
O=C(NCC(=O)N1CCC[C@H]1c1c[nH]c(-c2ccccc2)n1)c1ccc2ccccc2n1

>  <score_type>  (36) 
oracle

>  <origin>  (36) 
autodockgpu

>  <m_score__min__energy>  (36) 
-9.75

>  <m_primary>  (36) 
energy

>  <rmsd>  (36) 
6.99133050858243

>  <m_score__min__rmsd>  (36) 
6.99133050858243

>  <meeko>  (36) 
{"free_energy": -7.59, "intermolecular_energy": -9.38, "internal_energy": -3.78, "cluster_size": 19, "cluster_id": 5, "rank_in_cluster": 11}

>  <energy>  (36) 
-7.48

>  <cluster_rmsd>  (36) 
0.49

>  <cluster>  (36) 
5

$$$$

     RDKit          3D

 55 59  0  0  0  0  0  0  0  0999 V2000
  140.7830   71.5180  222.0130 O   0  0  0  0  0  0  0  0  0  0  0  0
  139.8460   71.5190  222.8480 C   0  0  0  0  0  0  0  0  0  0  0  0
  138.7670   72.4330  222.7110 N   0  0  0  0  0  0  0  0  0  0  0  0
  138.7550   73.3490  221.6170 C   0  0  0  0  0  0  0  0  0  0  0  0
  139.6220   74.5340  221.8300 C   0  0  0  0  0  0  0  0  0  0  0  0
  140.7710   74.2920  222.3330 O   0  0  0  0  0  0  0  0  0  0  0  0
  139.2060   75.8380  221.5010 N   0  0  0  0  0  0  0  0  0  0  0  0
  138.0130   76.4780  222.0810 C   0  0  0  0  0  0  0  0  0  0  0  0
  138.1890   77.9600  221.8220 C   0  0  0  0  0  0  0  0  0  0  0  0
  139.6340   78.0770  221.3930 C   0  0  0  0  0  0  0  0  0  0  0  0
  139.7910   76.7670  220.6040 C   0  0  1  0  0  0  0  0  0  0  0  0
  141.2290   76.5290  220.2950 C   0  0  0  0  0  0  0  0  0  0  0  0
  142.2000   77.4230  219.9040 C   0  0  0  0  0  0  0  0  0  0  0  0
  143.3660   76.7390  219.7380 N   0  0  0  0  0  0  0  0  0  0  0  0
  143.1350   75.4420  220.0180 C   0  0  0  0  0  0  0  0  0  0  0  0
  144.0730   74.3150  219.9830 C   0  0  0  0  0  0  0  0  0  0  0  0
  145.1870   74.2730  220.8280 C   0  0  0  0  0  0  0  0  0  0  0  0
  146.0780   73.2200  220.8070 C   0  0  0  0  0  0  0  0  0  0  0  0
  145.8500   72.1850  219.9180 C   0  0  0  0  0  0  0  0  0  0  0  0
  144.7500   72.2070  219.0690 C   0  0  0  0  0  0  0  0  0  0  0  0
  143.8550   73.2710  219.0960 C   0  0  0  0  0  0  0  0  0  0  0  0
  141.8510   75.3340  220.3490 N   0  0  0  0  0  0  0  0  0  0  0  0
  139.8590   70.5810  223.9680 C   0  0  0  0  0  0  0  0  0  0  0  0
  139.2370   69.3530  223.8390 C   0  0  0  0  0  0  0  0  0  0  0  0
  139.2080   68.4220  224.8520 C   0  0  0  0  0  0  0  0  0  0  0  0
  139.8260   68.7430  226.0300 C   0  0  0  0  0  0  0  0  0  0  0  0
  139.8050   67.8190  227.0530 C   0  0  0  0  0  0  0  0  0  0  0  0
  140.4320   68.1590  228.2330 C   0  0  0  0  0  0  0  0  0  0  0  0
  141.0660   69.3820  228.3990 C   0  0  0  0  0  0  0  0  0  0  0  0
  141.0760   70.2880  227.3650 C   0  0  0  0  0  0  0  0  0  0  0  0
  140.4520   69.9680  226.1750 C   0  0  0  0  0  0  0  0  0  0  0  0
  140.4540   70.8530  225.1460 N   0  0  0  0  0  0  0  0  0  0  0  0
  138.0060   72.3840  223.4460 H   0  0  0  0  0  0  0  0  0  0  0  0
  139.1017   72.8209  220.7165 H   0  0  0  0  0  0  0  0  0  0  0  0
  137.7234   73.7164  221.5129 H   0  0  0  0  0  0  0  0  0  0  0  0
  137.1004   76.1070  221.5917 H   0  0  0  0  0  0  0  0  0  0  0  0
  137.9104   76.2584  223.1540 H   0  0  0  0  0  0  0  0  0  0  0  0
  137.5135   78.3022  221.0241 H   0  0  0  0  0  0  0  0  0  0  0  0
  137.9526   78.5784  222.7005 H   0  0  0  0  0  0  0  0  0  0  0  0
  139.7997   78.9584  220.7561 H   0  0  0  0  0  0  0  0  0  0  0  0
  140.3507   78.2077  222.2172 H   0  0  0  0  0  0  0  0  0  0  0  0
  139.3154   76.7278  219.6129 H   0  0  0  0  0  0  0  0  0  0  0  0
  142.0586   78.5032  219.7519 H   0  0  0  0  0  0  0  0  0  0  0  0
  144.2830   77.1490  219.4440 H   0  0  0  0  0  0  0  0  0  0  0  0
  145.3574   75.1032  221.5292 H   0  0  0  0  0  0  0  0  0  0  0  0
  146.9478   73.2038  221.4802 H   0  0  0  0  0  0  0  0  0  0  0  0
  146.5473   71.3350  219.8827 H   0  0  0  0  0  0  0  0  0  0  0  0
  144.5857   71.3747  218.3688 H   0  0  0  0  0  0  0  0  0  0  0  0
  142.9853   73.2846  218.4226 H   0  0  0  0  0  0  0  0  0  0  0  0
  138.7443   69.1098  222.8860 H   0  0  0  0  0  0  0  0  0  0  0  0
  138.7051   67.4527  224.7193 H   0  0  0  0  0  0  0  0  0  0  0  0
  139.3062   66.8460  226.9322 H   0  0  0  0  0  0  0  0  0  0  0  0
  140.4295   67.4406  229.0660 H   0  0  0  0  0  0  0  0  0  0  0  0
  141.5578   69.6253  229.3524 H   0  0  0  0  0  0  0  0  0  0  0  0
  141.5770   71.2600  227.4844 H   0  0  0  0  0  0  0  0  0  0  0  0
  1  2  2  0
  2  3  1  0
  3  4  1  0
  4  5  1  0
  5  6  2  0
  5  7  1  0
  7  8  1  0
  8  9  1  0
  9 10  1  0
 10 11  1  0
 11 12  1  0
 12 13  2  0
 13 14  1  0
 14 15  1  0
 15 16  1  0
 16 17  2  0
 17 18  1  0
 18 19  2  0
 19 20  1  0
 20 21  2  0
 15 22  2  0
  2 23  1  0
 23 24  2  0
 24 25  1  0
 25 26  2  0
 26 27  1  0
 27 28  2  0
 28 29  1  0
 29 30  2  0
 30 31  1  0
 31 32  2  0
 11  7  1  0
 22 12  1  0
 32 23  1  0
 21 16  1  0
 31 26  1  0
  3 33  1  0
  4 34  1  0
  4 35  1  0
  8 36  1  0
  8 37  1  0
  9 38  1  0
  9 39  1  0
 10 40  1  0
 10 41  1  0
 11 42  1  6
 13 43  1  0
 14 44  1  0
 17 45  1  0
 18 46  1  0
 19 47  1  0
 20 48  1  0
 21 49  1  0
 24 50  1  0
 25 51  1  0
 27 52  1  0
 28 53  1  0
 29 54  1  0
 30 55  1  0
M  END
>  <smiles>  (37) 
O=C(NCC(=O)N1CCC[C@H]1c1c[nH]c(-c2ccccc2)n1)c1ccc2ccccc2n1

>  <score_type>  (37) 
oracle

>  <origin>  (37) 
autodockgpu

>  <m_score__min__energy>  (37) 
-9.75

>  <m_primary>  (37) 
energy

>  <rmsd>  (37) 
5.167534594932996

>  <m_score__min__rmsd>  (37) 
5.167534594932996

>  <meeko>  (37) 
{"free_energy": -9.75, "intermolecular_energy": -11.54, "internal_energy": -1.23, "cluster_size": 5, "cluster_id": 1, "rank_in_cluster": 1}

>  <energy>  (37) 
-7.46

>  <cluster_rmsd>  (37) 
0.5

>  <cluster>  (37) 
5

$$$$

     RDKit          3D

 55 59  0  0  0  0  0  0  0  0999 V2000
  139.5420   74.4410  222.1380 O   0  0  0  0  0  0  0  0  0  0  0  0
  140.6280   74.9590  221.7820 C   0  0  0  0  0  0  0  0  0  0  0  0
  140.8110   76.3660  221.8690 N   0  0  0  0  0  0  0  0  0  0  0  0
  139.7530   77.1850  222.3640 C   0  0  0  0  0  0  0  0  0  0  0  0
  139.6900   78.5210  221.7210 C   0  0  0  0  0  0  0  0  0  0  0  0
  138.8120   78.6490  220.8030 O   0  0  0  0  0  0  0  0  0  0  0  0
  140.5420   79.5760  222.0970 N   0  0  0  0  0  0  0  0  0  0  0  0
  140.5750   80.1460  223.4550 C   0  0  0  0  0  0  0  0  0  0  0  0
  141.8860   80.8980  223.5410 C   0  0  0  0  0  0  0  0  0  0  0  0
  142.6480   80.4280  222.3220 C   0  0  0  0  0  0  0  0  0  0  0  0
  141.4930   80.2840  221.3180 C   0  0  1  0  0  0  0  0  0  0  0  0
  141.9650   79.5730  220.0970 C   0  0  0  0  0  0  0  0  0  0  0  0
  142.5110   80.0860  218.9420 C   0  0  0  0  0  0  0  0  0  0  0  0
  142.7880   79.0470  218.1060 N   0  0  0  0  0  0  0  0  0  0  0  0
  142.4240   77.9050  218.7200 C   0  0  0  0  0  0  0  0  0  0  0  0
  142.5230   76.5270  218.2270 C   0  0  0  0  0  0  0  0  0  0  0  0
  141.4390   75.6480  218.3120 C   0  0  0  0  0  0  0  0  0  0  0  0
  141.5170   74.3490  217.8510 C   0  0  0  0  0  0  0  0  0  0  0  0
  142.7080   73.9200  217.2940 C   0  0  0  0  0  0  0  0  0  0  0  0
  143.7980   74.7770  217.2010 C   0  0  0  0  0  0  0  0  0  0  0  0
  143.7130   76.0860  217.6650 C   0  0  0  0  0  0  0  0  0  0  0  0
  141.9340   78.2380  219.9110 N   0  0  0  0  0  0  0  0  0  0  0  0
  141.7120   74.1210  221.2750 C   0  0  0  0  0  0  0  0  0  0  0  0
  141.4560   72.8070  220.9320 C   0  0  0  0  0  0  0  0  0  0  0  0
  142.4270   71.9590  220.4490 C   0  0  0  0  0  0  0  0  0  0  0  0
  143.6940   72.4580  220.3080 C   0  0  0  0  0  0  0  0  0  0  0  0
  144.6770   71.6210  219.8240 C   0  0  0  0  0  0  0  0  0  0  0  0
  145.9480   72.1390  219.6890 C   0  0  0  0  0  0  0  0  0  0  0  0
  146.2410   73.4540  220.0230 C   0  0  0  0  0  0  0  0  0  0  0  0
  145.2450   74.2720  220.5020 C   0  0  0  0  0  0  0  0  0  0  0  0
  143.9650   73.7720  220.6460 C   0  0  0  0  0  0  0  0  0  0  0  0
  142.9730   74.5680  221.1190 N   0  0  0  0  0  0  0  0  0  0  0  0
  141.7500   76.7440  221.5540 H   0  0  0  0  0  0  0  0  0  0  0  0
  138.7990   76.6672  222.1858 H   0  0  0  0  0  0  0  0  0  0  0  0
  139.9440   77.3493  223.4348 H   0  0  0  0  0  0  0  0  0  0  0  0
  139.7275   80.8307  223.6061 H   0  0  0  0  0  0  0  0  0  0  0  0
  140.4973   79.3677  224.2284 H   0  0  0  0  0  0  0  0  0  0  0  0
  141.7184   81.9845  223.5042 H   0  0  0  0  0  0  0  0  0  0  0  0
  142.4256   80.7090  224.4807 H   0  0  0  0  0  0  0  0  0  0  0  0
  143.3857   81.1735  221.9902 H   0  0  0  0  0  0  0  0  0  0  0  0
  143.2439   79.5159  222.4737 H   0  0  0  0  0  0  0  0  0  0  0  0
  141.0726   81.2166  220.9137 H   0  0  0  0  0  0  0  0  0  0  0  0
  142.6921   81.1503  218.7309 H   0  0  0  0  0  0  0  0  0  0  0  0
  143.2110   79.1220  217.1510 H   0  0  0  0  0  0  0  0  0  0  0  0
  140.4979   76.0013  218.7586 H   0  0  0  0  0  0  0  0  0  0  0  0
  140.6532   73.6719  217.9249 H   0  0  0  0  0  0  0  0  0  0  0  0
  142.7934   72.8889  216.9204 H   0  0  0  0  0  0  0  0  0  0  0  0
  144.7374   74.4169  216.7561 H   0  0  0  0  0  0  0  0  0  0  0  0
  144.5772   76.7622  217.5875 H   0  0  0  0  0  0  0  0  0  0  0  0
  140.4323   72.4221  221.0500 H   0  0  0  0  0  0  0  0  0  0  0  0
  142.1930   70.9170  220.1856 H   0  0  0  0  0  0  0  0  0  0  0  0
  144.4554   70.5776  219.5552 H   0  0  0  0  0  0  0  0  0  0  0  0
  146.7514   71.4925  219.3062 H   0  0  0  0  0  0  0  0  0  0  0  0
  147.2644   73.8396  219.9051 H   0  0  0  0  0  0  0  0  0  0  0  0
  145.4655   75.3162  220.7685 H   0  0  0  0  0  0  0  0  0  0  0  0
  1  2  2  0
  2  3  1  0
  3  4  1  0
  4  5  1  0
  5  6  2  0
  5  7  1  0
  7  8  1  0
  8  9  1  0
  9 10  1  0
 10 11  1  0
 11 12  1  0
 12 13  2  0
 13 14  1  0
 14 15  1  0
 15 16  1  0
 16 17  2  0
 17 18  1  0
 18 19  2  0
 19 20  1  0
 20 21  2  0
 15 22  2  0
  2 23  1  0
 23 24  2  0
 24 25  1  0
 25 26  2  0
 26 27  1  0
 27 28  2  0
 28 29  1  0
 29 30  2  0
 30 31  1  0
 31 32  2  0
 11  7  1  0
 22 12  1  0
 32 23  1  0
 21 16  1  0
 31 26  1  0
  3 33  1  0
  4 34  1  0
  4 35  1  0
  8 36  1  0
  8 37  1  0
  9 38  1  0
  9 39  1  0
 10 40  1  0
 10 41  1  0
 11 42  1  6
 13 43  1  0
 14 44  1  0
 17 45  1  0
 18 46  1  0
 19 47  1  0
 20 48  1  0
 21 49  1  0
 24 50  1  0
 25 51  1  0
 27 52  1  0
 28 53  1  0
 29 54  1  0
 30 55  1  0
M  END
>  <smiles>  (38) 
O=C(NCC(=O)N1CCC[C@H]1c1c[nH]c(-c2ccccc2)n1)c1ccc2ccccc2n1

>  <score_type>  (38) 
oracle

>  <origin>  (38) 
autodockgpu

>  <m_score__min__energy>  (38) 
-9.75

>  <m_primary>  (38) 
energy

>  <rmsd>  (38) 
6.827734975688483

>  <m_score__min__rmsd>  (38) 
6.827734975688483

>  <meeko>  (38) 
{"free_energy": -7.25, "intermolecular_energy": -9.04, "internal_energy": -4.05, "cluster_size": 6, "cluster_id": 6, "rank_in_cluster": 3}

>  <energy>  (38) 
-7.37

>  <cluster_rmsd>  (38) 
0.49

>  <cluster>  (38) 
5

$$$$

     RDKit          3D

 55 59  0  0  0  0  0  0  0  0999 V2000
  138.1540   75.6450  222.4560 O   0  0  0  0  0  0  0  0  0  0  0  0
  139.3300   76.0110  222.2180 C   0  0  0  0  0  0  0  0  0  0  0  0
  140.2380   75.1260  221.5770 N   0  0  0  0  0  0  0  0  0  0  0  0
  139.8030   73.8190  221.2050 C   0  0  0  0  0  0  0  0  0  0  0  0
  140.6170   72.7330  221.8060 C   0  0  0  0  0  0  0  0  0  0  0  0
  140.7050   72.7530  223.0800 O   0  0  0  0  0  0  0  0  0  0  0  0
  141.2490   71.7470  221.0250 N   0  0  0  0  0  0  0  0  0  0  0  0
  140.6100   70.4720  220.6580 C   0  0  0  0  0  0  0  0  0  0  0  0
  141.4170   69.9420  219.4910 C   0  0  0  0  0  0  0  0  0  0  0  0
  142.2660   71.1240  219.0790 C   0  0  0  0  0  0  0  0  0  0  0  0
  142.5470   71.7500  220.4550 C   0  0  1  0  0  0  0  0  0  0  0  0
  143.1600   73.0970  220.2850 C   0  0  0  0  0  0  0  0  0  0  0  0
  144.4410   73.5170  220.5660 C   0  0  0  0  0  0  0  0  0  0  0  0
  144.5350   74.8370  220.2450 N   0  0  0  0  0  0  0  0  0  0  0  0
  143.3400   75.2410  219.7730 C   0  0  0  0  0  0  0  0  0  0  0  0
  142.9430   76.5710  219.3000 C   0  0  0  0  0  0  0  0  0  0  0  0
  142.2000   77.4360  220.1100 C   0  0  0  0  0  0  0  0  0  0  0  0
  141.8200   78.6910  219.6780 C   0  0  0  0  0  0  0  0  0  0  0  0
  142.1910   79.0880  218.4060 C   0  0  0  0  0  0  0  0  0  0  0  0
  142.9280   78.2440  217.5850 C   0  0  0  0  0  0  0  0  0  0  0  0
  143.3100   76.9810  218.0260 C   0  0  0  0  0  0  0  0  0  0  0  0
  142.5290   74.1860  219.8040 N   0  0  0  0  0  0  0  0  0  0  0  0
  139.7760   77.3490  222.5990 C   0  0  0  0  0  0  0  0  0  0  0  0
  138.8400   78.3210  222.9010 C   0  0  0  0  0  0  0  0  0  0  0  0
  139.1870   79.6020  223.2670 C   0  0  0  0  0  0  0  0  0  0  0  0
  140.5200   79.9070  223.3290 C   0  0  0  0  0  0  0  0  0  0  0  0
  140.8820   81.1870  223.6940 C   0  0  0  0  0  0  0  0  0  0  0  0
  142.2290   81.4770  223.7510 C   0  0  0  0  0  0  0  0  0  0  0  0
  143.1950   80.5270  223.4540 C   0  0  0  0  0  0  0  0  0  0  0  0
  142.8120   79.2570  223.0930 C   0  0  0  0  0  0  0  0  0  0  0  0
  141.4680   78.9450  223.0290 C   0  0  0  0  0  0  0  0  0  0  0  0
  141.0750   77.6960  222.6740 N   0  0  0  0  0  0  0  0  0  0  0  0
  141.2170   75.4930  221.4020 H   0  0  0  0  0  0  0  0  0  0  0  0
  138.7596   73.6932  221.5299 H   0  0  0  0  0  0  0  0  0  0  0  0
  139.9112   73.7394  220.1132 H   0  0  0  0  0  0  0  0  0  0  0  0
  140.6440   69.7671  221.5018 H   0  0  0  0  0  0  0  0  0  0  0  0
  139.5497   70.6048  220.3968 H   0  0  0  0  0  0  0  0  0  0  0  0
  142.0469   69.0953  219.8015 H   0  0  0  0  0  0  0  0  0  0  0  0
  140.7869   69.5628  218.6730 H   0  0  0  0  0  0  0  0  0  0  0  0
  143.1928   70.8055  218.5794 H   0  0  0  0  0  0  0  0  0  0  0  0
  141.7931   71.8007  218.3521 H   0  0  0  0  0  0  0  0  0  0  0  0
  143.2723   71.2273  221.0959 H   0  0  0  0  0  0  0  0  0  0  0  0
  145.2484   72.8941  220.9783 H   0  0  0  0  0  0  0  0  0  0  0  0
  145.3880   75.4350  220.3470 H   0  0  0  0  0  0  0  0  0  0  0  0
  141.9105   77.1073  221.1190 H   0  0  0  0  0  0  0  0  0  0  0  0
  141.2367   79.3586  220.3292 H   0  0  0  0  0  0  0  0  0  0  0  0
  141.8990   80.0835  218.0404 H   0  0  0  0  0  0  0  0  0  0  0  0
  143.2124   78.5776  216.5761 H   0  0  0  0  0  0  0  0  0  0  0  0
  143.8951   76.3162  217.3735 H   0  0  0  0  0  0  0  0  0  0  0  0
  137.7729   78.0596  222.8465 H   0  0  0  0  0  0  0  0  0  0  0  0
  138.4196   80.3544  223.5015 H   0  0  0  0  0  0  0  0  0  0  0  0
  140.1242   81.9483  223.9309 H   0  0  0  0  0  0  0  0  0  0  0  0
  142.5462   82.4898  224.0401 H   0  0  0  0  0  0  0  0  0  0  0  0
  144.2622   80.7885  223.5070 H   0  0  0  0  0  0  0  0  0  0  0  0
  143.5698   78.4954  222.8570 H   0  0  0  0  0  0  0  0  0  0  0  0
  1  2  2  0
  2  3  1  0
  3  4  1  0
  4  5  1  0
  5  6  2  0
  5  7  1  0
  7  8  1  0
  8  9  1  0
  9 10  1  0
 10 11  1  0
 11 12  1  0
 12 13  2  0
 13 14  1  0
 14 15  1  0
 15 16  1  0
 16 17  2  0
 17 18  1  0
 18 19  2  0
 19 20  1  0
 20 21  2  0
 15 22  2  0
  2 23  1  0
 23 24  2  0
 24 25  1  0
 25 26  2  0
 26 27  1  0
 27 28  2  0
 28 29  1  0
 29 30  2  0
 30 31  1  0
 31 32  2  0
 11  7  1  0
 22 12  1  0
 32 23  1  0
 21 16  1  0
 31 26  1  0
  3 33  1  0
  4 34  1  0
  4 35  1  0
  8 36  1  0
  8 37  1  0
  9 38  1  0
  9 39  1  0
 10 40  1  0
 10 41  1  0
 11 42  1  1
 13 43  1  0
 14 44  1  0
 17 45  1  0
 18 46  1  0
 19 47  1  0
 20 48  1  0
 21 49  1  0
 24 50  1  0
 25 51  1  0
 27 52  1  0
 28 53  1  0
 29 54  1  0
 30 55  1  0
M  END
>  <smiles>  (39) 
O=C(NCC(=O)N1CCC[C@H]1c1c[nH]c(-c2ccccc2)n1)c1ccc2ccccc2n1

>  <score_type>  (39) 
oracle

>  <origin>  (39) 
autodockgpu

>  <m_score__min__energy>  (39) 
-9.75

>  <m_primary>  (39) 
energy

>  <rmsd>  (39) 
7.332871433385829

>  <m_score__min__rmsd>  (39) 
7.332871433385829

>  <meeko>  (39) 
{"free_energy": -7.75, "intermolecular_energy": -9.54, "internal_energy": -2.97, "cluster_size": 19, "cluster_id": 5, "rank_in_cluster": 2}

>  <energy>  (39) 
-7.32

>  <cluster_rmsd>  (39) 
0.5

>  <cluster>  (39) 
5

$$$$

     RDKit          3D

 55 59  0  0  0  0  0  0  0  0999 V2000
  139.4730   74.5310  221.9490 O   0  0  0  0  0  0  0  0  0  0  0  0
  140.5720   75.0590  221.6540 C   0  0  0  0  0  0  0  0  0  0  0  0
  140.7430   76.4650  221.7650 N   0  0  0  0  0  0  0  0  0  0  0  0
  139.6560   77.2730  222.2150 C   0  0  0  0  0  0  0  0  0  0  0  0
  139.7450   78.6860  221.7670 C   0  0  0  0  0  0  0  0  0  0  0  0
  138.8530   79.0550  220.9310 O   0  0  0  0  0  0  0  0  0  0  0  0
  140.7470   79.5590  222.2310 N   0  0  0  0  0  0  0  0  0  0  0  0
  140.8890   79.9490  223.6440 C   0  0  0  0  0  0  0  0  0  0  0  0
  142.2960   80.4970  223.7670 C   0  0  0  0  0  0  0  0  0  0  0  0
  142.9560   80.0760  222.4730 C   0  0  0  0  0  0  0  0  0  0  0  0
  141.7710   80.2180  221.5050 C   0  0  1  0  0  0  0  0  0  0  0  0
  142.1110   79.6010  220.1910 C   0  0  0  0  0  0  0  0  0  0  0  0
  142.4650   80.2060  219.0070 C   0  0  0  0  0  0  0  0  0  0  0  0
  142.6820   79.2320  218.0810 N   0  0  0  0  0  0  0  0  0  0  0  0
  142.4700   78.0390  218.6680 C   0  0  0  0  0  0  0  0  0  0  0  0
  142.5770   76.6980  218.0850 C   0  0  0  0  0  0  0  0  0  0  0  0
  141.5550   75.7560  218.2420 C   0  0  0  0  0  0  0  0  0  0  0  0
  141.6420   74.4900  217.6990 C   0  0  0  0  0  0  0  0  0  0  0  0
  142.7780   74.1590  216.9820 C   0  0  0  0  0  0  0  0  0  0  0  0
  143.8050   75.0800  216.8150 C   0  0  0  0  0  0  0  0  0  0  0  0
  143.7120   76.3540  217.3630 C   0  0  0  0  0  0  0  0  0  0  0  0
  142.1290   78.2790  219.9320 N   0  0  0  0  0  0  0  0  0  0  0  0
  141.6840   74.2320  221.1920 C   0  0  0  0  0  0  0  0  0  0  0  0
  141.4650   72.9040  220.8780 C   0  0  0  0  0  0  0  0  0  0  0  0
  142.4650   72.0660  220.4380 C   0  0  0  0  0  0  0  0  0  0  0  0
  143.7230   72.5890  220.3130 C   0  0  0  0  0  0  0  0  0  0  0  0
  144.7350   71.7610  219.8740 C   0  0  0  0  0  0  0  0  0  0  0  0
  145.9970   72.3040  219.7540 C   0  0  0  0  0  0  0  0  0  0  0  0
  146.2550   73.6320  220.0610 C   0  0  0  0  0  0  0  0  0  0  0  0
  145.2310   74.4400  220.4970 C   0  0  0  0  0  0  0  0  0  0  0  0
  143.9590   73.9160  220.6240 C   0  0  0  0  0  0  0  0  0  0  0  0
  142.9390   74.7020  221.0540 N   0  0  0  0  0  0  0  0  0  0  0  0
  141.6940   76.8510  221.5010 H   0  0  0  0  0  0  0  0  0  0  0  0
  138.7196   76.8435  221.8294 H   0  0  0  0  0  0  0  0  0  0  0  0
  139.6898   77.2788  223.3145 H   0  0  0  0  0  0  0  0  0  0  0  0
  140.1505   80.7206  223.9070 H   0  0  0  0  0  0  0  0  0  0  0  0
  140.7181   79.1007  224.3231 H   0  0  0  0  0  0  0  0  0  0  0  0
  142.2837   81.5927  223.8633 H   0  0  0  0  0  0  0  0  0  0  0  0
  142.8237   80.1239  224.6571 H   0  0  0  0  0  0  0  0  0  0  0  0
  143.7858   80.7454  222.2022 H   0  0  0  0  0  0  0  0  0  0  0  0
  143.4179   79.0779  222.4939 H   0  0  0  0  0  0  0  0  0  0  0  0
  141.4789   81.2423  221.2300 H   0  0  0  0  0  0  0  0  0  0  0  0
  142.5568   81.2891  218.8380 H   0  0  0  0  0  0  0  0  0  0  0  0
  142.9660   79.3830  217.0840 H   0  0  0  0  0  0  0  0  0  0  0  0
  140.6569   76.0318  218.8142 H   0  0  0  0  0  0  0  0  0  0  0  0
  140.8282   73.7622  217.8330 H   0  0  0  0  0  0  0  0  0  0  0  0
  142.8692   73.1561  216.5394 H   0  0  0  0  0  0  0  0  0  0  0  0
  144.7012   74.7978  216.2430 H   0  0  0  0  0  0  0  0  0  0  0  0
  144.5269   77.0801  217.2265 H   0  0  0  0  0  0  0  0  0  0  0  0
  140.4478   72.4990  220.9842 H   0  0  0  0  0  0  0  0  0  0  0  0
  142.2596   71.0129  220.1955 H   0  0  0  0  0  0  0  0  0  0  0  0
  144.5425   70.7061  219.6286 H   0  0  0  0  0  0  0  0  0  0  0  0
  146.8223   71.6660  219.4050 H   0  0  0  0  0  0  0  0  0  0  0  0
  147.2726   74.0364  219.9564 H   0  0  0  0  0  0  0  0  0  0  0  0
  145.4232   75.4949  220.7426 H   0  0  0  0  0  0  0  0  0  0  0  0
  1  2  2  0
  2  3  1  0
  3  4  1  0
  4  5  1  0
  5  6  2  0
  5  7  1  0
  7  8  1  0
  8  9  1  0
  9 10  1  0
 10 11  1  0
 11 12  1  0
 12 13  2  0
 13 14  1  0
 14 15  1  0
 15 16  1  0
 16 17  2  0
 17 18  1  0
 18 19  2  0
 19 20  1  0
 20 21  2  0
 15 22  2  0
  2 23  1  0
 23 24  2  0
 24 25  1  0
 25 26  2  0
 26 27  1  0
 27 28  2  0
 28 29  1  0
 29 30  2  0
 30 31  1  0
 31 32  2  0
 11  7  1  0
 22 12  1  0
 32 23  1  0
 21 16  1  0
 31 26  1  0
  3 33  1  0
  4 34  1  0
  4 35  1  0
  8 36  1  0
  8 37  1  0
  9 38  1  0
  9 39  1  0
 10 40  1  0
 10 41  1  0
 11 42  1  6
 13 43  1  0
 14 44  1  0
 17 45  1  0
 18 46  1  0
 19 47  1  0
 20 48  1  0
 21 49  1  0
 24 50  1  0
 25 51  1  0
 27 52  1  0
 28 53  1  0
 29 54  1  0
 30 55  1  0
M  END
>  <smiles>  (40) 
O=C(NCC(=O)N1CCC[C@H]1c1c[nH]c(-c2ccccc2)n1)c1ccc2ccccc2n1

>  <score_type>  (40) 
oracle

>  <origin>  (40) 
autodockgpu

>  <m_score__min__energy>  (40) 
-9.75

>  <m_primary>  (40) 
energy

>  <rmsd>  (40) 
6.854231628082304

>  <m_score__min__rmsd>  (40) 
6.854231628082304

>  <meeko>  (40) 
{"free_energy": -7.13, "intermolecular_energy": -8.92, "internal_energy": -4.12, "cluster_size": 6, "cluster_id": 6, "rank_in_cluster": 5}

>  <energy>  (40) 
-7.28

>  <cluster_rmsd>  (40) 
0.96

>  <cluster>  (40) 
5

$$$$

     RDKit          3D

 55 59  0  0  0  0  0  0  0  0999 V2000
  137.6310   75.9270  222.3090 O   0  0  0  0  0  0  0  0  0  0  0  0
  138.8720   76.1130  222.3290 C   0  0  0  0  0  0  0  0  0  0  0  0
  139.7600   75.0480  222.0190 N   0  0  0  0  0  0  0  0  0  0  0  0
  139.2320   73.7660  221.6840 C   0  0  0  0  0  0  0  0  0  0  0  0
  140.2780   72.7620  221.3620 C   0  0  0  0  0  0  0  0  0  0  0  0
  141.4580   73.0530  221.7520 O   0  0  0  0  0  0  0  0  0  0  0  0
  139.9870   71.5710  220.6710 N   0  0  0  0  0  0  0  0  0  0  0  0
  140.5430   71.2470  219.3460 C   0  0  0  0  0  0  0  0  0  0  0  0
  140.3550   69.7520  219.1890 C   0  0  0  0  0  0  0  0  0  0  0  0
  139.9920   69.2910  220.5820 C   0  0  0  0  0  0  0  0  0  0  0  0
  139.1560   70.4890  221.0570 C   0  0  1  0  0  0  0  0  0  0  0  0
  138.8980   70.3820  222.5210 C   0  0  0  0  0  0  0  0  0  0  0  0
  137.7560   69.9870  223.1810 C   0  0  0  0  0  0  0  0  0  0  0  0
  137.9960   70.0500  224.5200 N   0  0  0  0  0  0  0  0  0  0  0  0
  139.2620   70.4750  224.7000 C   0  0  0  0  0  0  0  0  0  0  0  0
  139.9820   70.7020  225.9570 C   0  0  0  0  0  0  0  0  0  0  0  0
  140.7270   71.8670  226.1650 C   0  0  0  0  0  0  0  0  0  0  0  0
  141.4110   72.0940  227.3430 C   0  0  0  0  0  0  0  0  0  0  0  0
  141.3480   71.1310  228.3350 C   0  0  0  0  0  0  0  0  0  0  0  0
  140.6140   69.9660  228.1480 C   0  0  0  0  0  0  0  0  0  0  0  0
  139.9270   69.7440  226.9600 C   0  0  0  0  0  0  0  0  0  0  0  0
  139.7860   70.6690  223.4930 N   0  0  0  0  0  0  0  0  0  0  0  0
  139.4130   77.4260  222.6730 C   0  0  0  0  0  0  0  0  0  0  0  0
  138.5500   78.4640  222.9710 C   0  0  0  0  0  0  0  0  0  0  0  0
  138.9880   79.7270  223.3020 C   0  0  0  0  0  0  0  0  0  0  0  0
  140.3390   79.9430  223.3330 C   0  0  0  0  0  0  0  0  0  0  0  0
  140.7930   81.2030  223.6640 C   0  0  0  0  0  0  0  0  0  0  0  0
  142.1560   81.4040  223.6900 C   0  0  0  0  0  0  0  0  0  0  0  0
  143.0520   80.3860  223.3960 C   0  0  0  0  0  0  0  0  0  0  0  0
  142.5780   79.1370  223.0700 C   0  0  0  0  0  0  0  0  0  0  0  0
  141.2150   78.9140  223.0370 C   0  0  0  0  0  0  0  0  0  0  0  0
  140.7330   77.6870  222.7160 N   0  0  0  0  0  0  0  0  0  0  0  0
  140.7960   75.2680  222.0530 H   0  0  0  0  0  0  0  0  0  0  0  0
  138.6456   73.3966  222.5382 H   0  0  0  0  0  0  0  0  0  0  0  0
  138.6169   73.8944  220.7811 H   0  0  0  0  0  0  0  0  0  0  0  0
  140.0002   71.7886  218.5573 H   0  0  0  0  0  0  0  0  0  0  0  0
  141.6003   71.5387  219.2621 H   0  0  0  0  0  0  0  0  0  0  0  0
  139.5450   69.5305  218.4785 H   0  0  0  0  0  0  0  0  0  0  0  0
  141.2485   69.2483  218.7914 H   0  0  0  0  0  0  0  0  0  0  0  0
  139.4006   68.3637  220.5629 H   0  0  0  0  0  0  0  0  0  0  0  0
  140.8504   69.0443  221.2242 H   0  0  0  0  0  0  0  0  0  0  0  0
  138.1450   70.5825  220.6337 H   0  0  0  0  0  0  0  0  0  0  0  0
  136.8130   69.6746  222.7085 H   0  0  0  0  0  0  0  0  0  0  0  0
  137.3160   69.8090  225.2790 H   0  0  0  0  0  0  0  0  0  0  0  0
  140.7694   72.6238  225.3679 H   0  0  0  0  0  0  0  0  0  0  0  0
  141.9913   73.0170  227.4892 H   0  0  0  0  0  0  0  0  0  0  0  0
  141.8849   71.2895  229.2819 H   0  0  0  0  0  0  0  0  0  0  0  0
  140.5762   69.2119  228.9480 H   0  0  0  0  0  0  0  0  0  0  0  0
  139.3469   68.8205  226.8166 H   0  0  0  0  0  0  0  0  0  0  0  0
  137.4671   78.2730  222.9425 H   0  0  0  0  0  0  0  0  0  0  0  0
  138.2770   80.5338  223.5333 H   0  0  0  0  0  0  0  0  0  0  0  0
  140.0922   82.0178  223.8987 H   0  0  0  0  0  0  0  0  0  0  0  0
  142.5447   82.3994  223.9511 H   0  0  0  0  0  0  0  0  0  0  0  0
  144.1349   80.5770  223.4235 H   0  0  0  0  0  0  0  0  0  0  0  0
  143.2788   78.3217  222.8373 H   0  0  0  0  0  0  0  0  0  0  0  0
  1  2  2  0
  2  3  1  0
  3  4  1  0
  4  5  1  0
  5  6  2  0
  5  7  1  0
  7  8  1  0
  8  9  1  0
  9 10  1  0
 10 11  1  0
 11 12  1  0
 12 13  2  0
 13 14  1  0
 14 15  1  0
 15 16  1  0
 16 17  2  0
 17 18  1  0
 18 19  2  0
 19 20  1  0
 20 21  2  0
 15 22  2  0
  2 23  1  0
 23 24  2  0
 24 25  1  0
 25 26  2  0
 26 27  1  0
 27 28  2  0
 28 29  1  0
 29 30  2  0
 30 31  1  0
 31 32  2  0
 11  7  1  0
 22 12  1  0
 32 23  1  0
 21 16  1  0
 31 26  1  0
  3 33  1  0
  4 34  1  0
  4 35  1  0
  8 36  1  0
  8 37  1  0
  9 38  1  0
  9 39  1  0
 10 40  1  0
 10 41  1  0
 11 42  1  6
 13 43  1  0
 14 44  1  0
 17 45  1  0
 18 46  1  0
 19 47  1  0
 20 48  1  0
 21 49  1  0
 24 50  1  0
 25 51  1  0
 27 52  1  0
 28 53  1  0
 29 54  1  0
 30 55  1  0
M  END
>  <smiles>  (41) 
O=C(NCC(=O)N1CCC[C@H]1c1c[nH]c(-c2ccccc2)n1)c1ccc2ccccc2n1

>  <score_type>  (41) 
oracle

>  <origin>  (41) 
autodockgpu

>  <m_score__min__energy>  (41) 
-9.75

>  <m_primary>  (41) 
energy

>  <rmsd>  (41) 
9.293080453281473

>  <m_score__min__rmsd>  (41) 
9.293080453281473

>  <meeko>  (41) 
{"free_energy": -8.47, "intermolecular_energy": -10.26, "internal_energy": -2.16, "cluster_size": 10, "cluster_id": 3, "rank_in_cluster": 10}

>  <energy>  (41) 
-7.23

>  <cluster_rmsd>  (41) 
0.57

>  <cluster>  (41) 
5

$$$$

     RDKit          3D

 55 59  0  0  0  0  0  0  0  0999 V2000
  138.0000   75.8720  222.3770 O   0  0  0  0  0  0  0  0  0  0  0  0
  139.2260   76.1330  222.3260 C   0  0  0  0  0  0  0  0  0  0  0  0
  140.1500   75.1420  221.8960 N   0  0  0  0  0  0  0  0  0  0  0  0
  139.6740   73.8500  221.5230 C   0  0  0  0  0  0  0  0  0  0  0  0
  140.7490   72.9340  221.0650 C   0  0  0  0  0  0  0  0  0  0  0  0
  141.9420   73.3490  221.2520 O   0  0  0  0  0  0  0  0  0  0  0  0
  140.4720   71.6920  220.4640 N   0  0  0  0  0  0  0  0  0  0  0  0
  141.1500   71.2110  219.2480 C   0  0  0  0  0  0  0  0  0  0  0  0
  140.9000   69.7180  219.2150 C   0  0  0  0  0  0  0  0  0  0  0  0
  140.3630   69.4160  220.5960 C   0  0  0  0  0  0  0  0  0  0  0  0
  139.5450   70.6920  220.8550 C   0  0  1  0  0  0  0  0  0  0  0  0
  139.1240   70.7450  222.2830 C   0  0  0  0  0  0  0  0  0  0  0  0
  137.8580   70.8070  222.8200 C   0  0  0  0  0  0  0  0  0  0  0  0
  137.9720   70.8390  224.1760 N   0  0  0  0  0  0  0  0  0  0  0  0
  139.2820   70.7980  224.4890 C   0  0  0  0  0  0  0  0  0  0  0  0
  139.9090   70.8090  225.8140 C   0  0  0  0  0  0  0  0  0  0  0  0
  140.7140   71.8770  226.2250 C   0  0  0  0  0  0  0  0  0  0  0  0
  141.3110   71.9010  227.4700 C   0  0  0  0  0  0  0  0  0  0  0  0
  141.0980   70.8320  228.3210 C   0  0  0  0  0  0  0  0  0  0  0  0
  140.3020   69.7610  227.9320 C   0  0  0  0  0  0  0  0  0  0  0  0
  139.7020   69.7430  226.6770 C   0  0  0  0  0  0  0  0  0  0  0  0
  139.9570   70.7420  223.3430 N   0  0  0  0  0  0  0  0  0  0  0  0
  139.7140   77.4550  222.7080 C   0  0  0  0  0  0  0  0  0  0  0  0
  138.8120   78.4390  223.0690 C   0  0  0  0  0  0  0  0  0  0  0  0
  139.1990   79.7070  223.4390 C   0  0  0  0  0  0  0  0  0  0  0  0
  140.5380   79.9870  223.4450 C   0  0  0  0  0  0  0  0  0  0  0  0
  140.9410   81.2530  223.8150 C   0  0  0  0  0  0  0  0  0  0  0  0
  142.2940   81.5180  223.8150 C   0  0  0  0  0  0  0  0  0  0  0  0
  143.2280   80.5560  223.4590 C   0  0  0  0  0  0  0  0  0  0  0  0
  142.8050   79.2990  223.0950 C   0  0  0  0  0  0  0  0  0  0  0  0
  141.4540   79.0130  223.0870 C   0  0  0  0  0  0  0  0  0  0  0  0
  141.0210   77.7770  222.7290 N   0  0  0  0  0  0  0  0  0  0  0  0
  141.1720   75.4220  221.8730 H   0  0  0  0  0  0  0  0  0  0  0  0
  139.1775   73.3968  222.3937 H   0  0  0  0  0  0  0  0  0  0  0  0
  138.9850   73.9900  220.6770 H   0  0  0  0  0  0  0  0  0  0  0  0
  140.7260   71.6925  218.3545 H   0  0  0  0  0  0  0  0  0  0  0  0
  142.2244   71.4467  219.2571 H   0  0  0  0  0  0  0  0  0  0  0  0
  140.1614   69.4606  218.4416 H   0  0  0  0  0  0  0  0  0  0  0  0
  141.8031   69.1390  218.9718 H   0  0  0  0  0  0  0  0  0  0  0  0
  139.7283   68.5176  220.5988 H   0  0  0  0  0  0  0  0  0  0  0  0
  141.1315   69.1991  221.3526 H   0  0  0  0  0  0  0  0  0  0  0  0
  138.5928   70.7862  220.3124 H   0  0  0  0  0  0  0  0  0  0  0  0
  136.9166   70.8272  222.2514 H   0  0  0  0  0  0  0  0  0  0  0  0
  137.1800   70.8860  224.8600 H   0  0  0  0  0  0  0  0  0  0  0  0
  140.8758   72.7205  225.5377 H   0  0  0  0  0  0  0  0  0  0  0  0
  141.9403   72.7493  227.7771 H   0  0  0  0  0  0  0  0  0  0  0  0
  141.5640   70.8292  229.3174 H   0  0  0  0  0  0  0  0  0  0  0  0
  140.1450   68.9197  228.6230 H   0  0  0  0  0  0  0  0  0  0  0  0
  139.0716   68.8944  226.3730 H   0  0  0  0  0  0  0  0  0  0  0  0
  137.7388   78.1980  223.0601 H   0  0  0  0  0  0  0  0  0  0  0  0
  138.4571   80.4690  223.7202 H   0  0  0  0  0  0  0  0  0  0  0  0
  140.2094   82.0235  224.0998 H   0  0  0  0  0  0  0  0  0  0  0  0
  142.6426   82.5201  224.1054 H   0  0  0  0  0  0  0  0  0  0  0  0
  144.3012   80.7973  223.4678 H   0  0  0  0  0  0  0  0  0  0  0  0
  143.5368   78.5278  222.8126 H   0  0  0  0  0  0  0  0  0  0  0  0
  1  2  2  0
  2  3  1  0
  3  4  1  0
  4  5  1  0
  5  6  2  0
  5  7  1  0
  7  8  1  0
  8  9  1  0
  9 10  1  0
 10 11  1  0
 11 12  1  0
 12 13  2  0
 13 14  1  0
 14 15  1  0
 15 16  1  0
 16 17  2  0
 17 18  1  0
 18 19  2  0
 19 20  1  0
 20 21  2  0
 15 22  2  0
  2 23  1  0
 23 24  2  0
 24 25  1  0
 25 26  2  0
 26 27  1  0
 27 28  2  0
 28 29  1  0
 29 30  2  0
 30 31  1  0
 31 32  2  0
 11  7  1  0
 22 12  1  0
 32 23  1  0
 21 16  1  0
 31 26  1  0
  3 33  1  0
  4 34  1  0
  4 35  1  0
  8 36  1  0
  8 37  1  0
  9 38  1  0
  9 39  1  0
 10 40  1  0
 10 41  1  0
 11 42  1  6
 13 43  1  0
 14 44  1  0
 17 45  1  0
 18 46  1  0
 19 47  1  0
 20 48  1  0
 21 49  1  0
 24 50  1  0
 25 51  1  0
 27 52  1  0
 28 53  1  0
 29 54  1  0
 30 55  1  0
M  END
>  <smiles>  (42) 
O=C(NCC(=O)N1CCC[C@H]1c1c[nH]c(-c2ccccc2)n1)c1ccc2ccccc2n1

>  <score_type>  (42) 
oracle

>  <origin>  (42) 
autodockgpu

>  <m_score__min__energy>  (42) 
-9.75

>  <m_primary>  (42) 
energy

>  <rmsd>  (42) 
9.30518178191052

>  <m_score__min__rmsd>  (42) 
9.30518178191052

>  <meeko>  (42) 
{"free_energy": -8.48, "intermolecular_energy": -10.27, "internal_energy": -2.2, "cluster_size": 10, "cluster_id": 3, "rank_in_cluster": 9}

>  <energy>  (42) 
-7.46

>  <cluster_rmsd>  (42) 
0.0

>  <cluster>  (42) 
6

$$$$

     RDKit          3D

 55 59  0  0  0  0  0  0  0  0999 V2000
  138.2070   75.6050  222.4670 O   0  0  0  0  0  0  0  0  0  0  0  0
  139.3560   76.0040  222.1570 C   0  0  0  0  0  0  0  0  0  0  0  0
  140.2460   75.1450  221.4570 N   0  0  0  0  0  0  0  0  0  0  0  0
  139.8240   73.8270  221.1090 C   0  0  0  0  0  0  0  0  0  0  0  0
  140.6200   72.7590  221.7650 C   0  0  0  0  0  0  0  0  0  0  0  0
  140.6600   72.8080  223.0400 O   0  0  0  0  0  0  0  0  0  0  0  0
  141.2870   71.7610  221.0300 N   0  0  0  0  0  0  0  0  0  0  0  0
  140.6770   70.4670  220.6820 C   0  0  0  0  0  0  0  0  0  0  0  0
  141.5240   69.9160  219.5540 C   0  0  0  0  0  0  0  0  0  0  0  0
  142.3670   71.0980  219.1320 C   0  0  0  0  0  0  0  0  0  0  0  0
  142.6010   71.7670  220.4960 C   0  0  1  0  0  0  0  0  0  0  0  0
  143.2000   73.1180  220.3040 C   0  0  0  0  0  0  0  0  0  0  0  0
  144.4760   73.5550  220.5760 C   0  0  0  0  0  0  0  0  0  0  0  0
  144.5560   74.8710  220.2350 N   0  0  0  0  0  0  0  0  0  0  0  0
  143.3560   75.2550  219.7580 C   0  0  0  0  0  0  0  0  0  0  0  0
  142.9450   76.5730  219.2640 C   0  0  0  0  0  0  0  0  0  0  0  0
  143.2740   76.9990  217.9730 C   0  0  0  0  0  0  0  0  0  0  0  0
  142.8940   78.2370  217.4960 C   0  0  0  0  0  0  0  0  0  0  0  0
  142.1670   79.0680  218.3300 C   0  0  0  0  0  0  0  0  0  0  0  0
  141.8310   78.6650  219.6160 C   0  0  0  0  0  0  0  0  0  0  0  0
  142.2160   77.4160  220.0920 C   0  0  0  0  0  0  0  0  0  0  0  0
  142.5570   74.1930  219.8070 N   0  0  0  0  0  0  0  0  0  0  0  0
  139.7880   77.3530  222.5140 C   0  0  0  0  0  0  0  0  0  0  0  0
  138.8430   78.3370  222.7350 C   0  0  0  0  0  0  0  0  0  0  0  0
  139.1780   79.6290  223.0730 C   0  0  0  0  0  0  0  0  0  0  0  0
  140.5070   79.9330  223.1920 C   0  0  0  0  0  0  0  0  0  0  0  0
  140.8560   81.2230  223.5310 C   0  0  0  0  0  0  0  0  0  0  0  0
  142.2000   81.5110  223.6450 C   0  0  0  0  0  0  0  0  0  0  0  0
  143.1760   80.5480  223.4310 C   0  0  0  0  0  0  0  0  0  0  0  0
  142.8050   79.2670  223.0950 C   0  0  0  0  0  0  0  0  0  0  0  0
  141.4640   78.9580  222.9740 C   0  0  0  0  0  0  0  0  0  0  0  0
  141.0840   77.6980  222.6420 N   0  0  0  0  0  0  0  0  0  0  0  0
  141.2010   75.5380  221.2230 H   0  0  0  0  0  0  0  0  0  0  0  0
  138.7713   73.7087  221.4051 H   0  0  0  0  0  0  0  0  0  0  0  0
  139.9663   73.7171  220.0238 H   0  0  0  0  0  0  0  0  0  0  0  0
  140.6969   69.7869  221.5463 H   0  0  0  0  0  0  0  0  0  0  0  0
  139.6229   70.5767  220.3873 H   0  0  0  0  0  0  0  0  0  0  0  0
  142.1568   69.0881  219.9064 H   0  0  0  0  0  0  0  0  0  0  0  0
  140.9228   69.5040  218.7301 H   0  0  0  0  0  0  0  0  0  0  0  0
  143.3117   70.7793  218.6673 H   0  0  0  0  0  0  0  0  0  0  0  0
  141.9047   71.7467  218.3735 H   0  0  0  0  0  0  0  0  0  0  0  0
  143.3155   71.2738  221.1715 H   0  0  0  0  0  0  0  0  0  0  0  0
  145.2905   72.9467  220.9962 H   0  0  0  0  0  0  0  0  0  0  0  0
  145.4030   75.4800  220.3260 H   0  0  0  0  0  0  0  0  0  0  0  0
  143.8517   76.3286  217.3197 H   0  0  0  0  0  0  0  0  0  0  0  0
  143.1624   78.5553  216.4779 H   0  0  0  0  0  0  0  0  0  0  0  0
  141.8517   80.0587  217.9706 H   0  0  0  0  0  0  0  0  0  0  0  0
  141.2544   79.3406  220.2649 H   0  0  0  0  0  0  0  0  0  0  0  0
  141.9465   77.1004  221.1107 H   0  0  0  0  0  0  0  0  0  0  0  0
  137.7787   78.0771  222.6367 H   0  0  0  0  0  0  0  0  0  0  0  0
  138.4032   80.3914  223.2417 H   0  0  0  0  0  0  0  0  0  0  0  0
  140.0908   81.9940  223.7042 H   0  0  0  0  0  0  0  0  0  0  0  0
  142.5069   82.5327  223.9131 H   0  0  0  0  0  0  0  0  0  0  0  0
  144.2403   80.8077  223.5295 H   0  0  0  0  0  0  0  0  0  0  0  0
  143.5697   78.4949  222.9240 H   0  0  0  0  0  0  0  0  0  0  0  0
  1  2  2  0
  2  3  1  0
  3  4  1  0
  4  5  1  0
  5  6  2  0
  5  7  1  0
  7  8  1  0
  8  9  1  0
  9 10  1  0
 10 11  1  0
 11 12  1  0
 12 13  2  0
 13 14  1  0
 14 15  1  0
 15 16  1  0
 16 17  2  0
 17 18  1  0
 18 19  2  0
 19 20  1  0
 20 21  2  0
 15 22  2  0
  2 23  1  0
 23 24  2  0
 24 25  1  0
 25 26  2  0
 26 27  1  0
 27 28  2  0
 28 29  1  0
 29 30  2  0
 30 31  1  0
 31 32  2  0
 11  7  1  0
 22 12  1  0
 32 23  1  0
 21 16  1  0
 31 26  1  0
  3 33  1  0
  4 34  1  0
  4 35  1  0
  8 36  1  0
  8 37  1  0
  9 38  1  0
  9 39  1  0
 10 40  1  0
 10 41  1  0
 11 42  1  1
 13 43  1  0
 14 44  1  0
 17 45  1  0
 18 46  1  0
 19 47  1  0
 20 48  1  0
 21 49  1  0
 24 50  1  0
 25 51  1  0
 27 52  1  0
 28 53  1  0
 29 54  1  0
 30 55  1  0
M  END
>  <smiles>  (43) 
O=C(NCC(=O)N1CCC[C@H]1c1c[nH]c(-c2ccccc2)n1)c1ccc2ccccc2n1

>  <score_type>  (43) 
oracle

>  <origin>  (43) 
autodockgpu

>  <m_score__min__energy>  (43) 
-9.75

>  <m_primary>  (43) 
energy

>  <rmsd>  (43) 
7.4176757756222935

>  <m_score__min__rmsd>  (43) 
7.4176757756222935

>  <meeko>  (43) 
{"free_energy": -7.71, "intermolecular_energy": -9.5, "internal_energy": -3.0, "cluster_size": 19, "cluster_id": 5, "rank_in_cluster": 4}

>  <energy>  (43) 
-7.42

>  <cluster_rmsd>  (43) 
0.67

>  <cluster>  (43) 
6

$$$$

     RDKit          3D

 55 59  0  0  0  0  0  0  0  0999 V2000
  138.8990   75.2590  222.2520 O   0  0  0  0  0  0  0  0  0  0  0  0
  140.0240   75.7950  222.1000 C   0  0  0  0  0  0  0  0  0  0  0  0
  141.1050   75.0480  221.5590 N   0  0  0  0  0  0  0  0  0  0  0  0
  140.9030   73.6850  221.1890 C   0  0  0  0  0  0  0  0  0  0  0  0
  141.7480   73.2510  220.0470 C   0  0  0  0  0  0  0  0  0  0  0  0
  141.1160   72.9370  218.9840 O   0  0  0  0  0  0  0  0  0  0  0  0
  143.1520   73.1900  220.1330 N   0  0  0  0  0  0  0  0  0  0  0  0
  143.8920   71.9530  220.4340 C   0  0  0  0  0  0  0  0  0  0  0  0
  145.3150   72.2220  219.9930 C   0  0  0  0  0  0  0  0  0  0  0  0
  145.2010   73.4890  219.1760 C   0  0  0  0  0  0  0  0  0  0  0  0
  144.1070   74.2250  219.9650 C   0  0  1  0  0  0  0  0  0  0  0  0
  143.6300   75.4070  219.1930 C   0  0  0  0  0  0  0  0  0  0  0  0
  143.7350   75.6720  217.8470 C   0  0  0  0  0  0  0  0  0  0  0  0
  143.1500   76.8780  217.6050 N   0  0  0  0  0  0  0  0  0  0  0  0
  142.6850   77.3610  218.7730 C   0  0  0  0  0  0  0  0  0  0  0  0
  141.9810   78.6220  219.0280 C   0  0  0  0  0  0  0  0  0  0  0  0
  142.5410   79.8510  218.6660 C   0  0  0  0  0  0  0  0  0  0  0  0
  141.8900   81.0460  218.9000 C   0  0  0  0  0  0  0  0  0  0  0  0
  140.6500   81.0090  219.5110 C   0  0  0  0  0  0  0  0  0  0  0  0
  140.0760   79.7980  219.8800 C   0  0  0  0  0  0  0  0  0  0  0  0
  140.7360   78.5980  219.6410 C   0  0  0  0  0  0  0  0  0  0  0  0
  142.9810   76.4670  219.7130 N   0  0  0  0  0  0  0  0  0  0  0  0
  140.2310   77.1900  222.4790 C   0  0  0  0  0  0  0  0  0  0  0  0
  139.1380   77.9990  222.7330 C   0  0  0  0  0  0  0  0  0  0  0  0
  139.2580   79.3220  223.0940 C   0  0  0  0  0  0  0  0  0  0  0  0
  140.5190   79.8410  223.2010 C   0  0  0  0  0  0  0  0  0  0  0  0
  140.6540   81.1650  223.5630 C   0  0  0  0  0  0  0  0  0  0  0  0
  141.9320   81.6720  223.6650 C   0  0  0  0  0  0  0  0  0  0  0  0
  143.0510   80.8900  223.4180 C   0  0  0  0  0  0  0  0  0  0  0  0
  142.8940   79.5710  223.0600 C   0  0  0  0  0  0  0  0  0  0  0  0
  141.6220   79.0440  222.9500 C   0  0  0  0  0  0  0  0  0  0  0  0
  141.4520   77.7450  222.5970 N   0  0  0  0  0  0  0  0  0  0  0  0
  142.0290   75.5550  221.4550 H   0  0  0  0  0  0  0  0  0  0  0  0
  141.1367   73.0502  222.0564 H   0  0  0  0  0  0  0  0  0  0  0  0
  139.8543   73.5872  220.8718 H   0  0  0  0  0  0  0  0  0  0  0  0
  143.8571   71.7356  221.5117 H   0  0  0  0  0  0  0  0  0  0  0  0
  143.4608   71.0815  219.9196 H   0  0  0  0  0  0  0  0  0  0  0  0
  145.9734   72.3726  220.8613 H   0  0  0  0  0  0  0  0  0  0  0  0
  145.7520   71.3863  219.4267 H   0  0  0  0  0  0  0  0  0  0  0  0
  146.1452   74.0533  219.1657 H   0  0  0  0  0  0  0  0  0  0  0  0
  144.9749   73.3320  218.1110 H   0  0  0  0  0  0  0  0  0  0  0  0
  144.4042   74.6637  220.9290 H   0  0  0  0  0  0  0  0  0  0  0  0
  144.2092   75.0225  217.0964 H   0  0  0  0  0  0  0  0  0  0  0  0
  143.0730   77.3480  216.6720 H   0  0  0  0  0  0  0  0  0  0  0  0
  143.5282   79.8663  218.1810 H   0  0  0  0  0  0  0  0  0  0  0  0
  142.3463   82.0033  218.6077 H   0  0  0  0  0  0  0  0  0  0  0  0
  140.1120   81.9482  219.7072 H   0  0  0  0  0  0  0  0  0  0  0  0
  139.0893   79.7891  220.3662 H   0  0  0  0  0  0  0  0  0  0  0  0
  140.2775   77.6420  219.9339 H   0  0  0  0  0  0  0  0  0  0  0  0
  138.1305   77.5669  222.6427 H   0  0  0  0  0  0  0  0  0  0  0  0
  138.3699   79.9408  223.2898 H   0  0  0  0  0  0  0  0  0  0  0  0
  139.7738   81.7937  223.7631 H   0  0  0  0  0  0  0  0  0  0  0  0
  142.0682   82.7256  223.9501 H   0  0  0  0  0  0  0  0  0  0  0  0
  144.0585   81.3223  223.5079 H   0  0  0  0  0  0  0  0  0  0  0  0
  143.7741   78.9413  222.8630 H   0  0  0  0  0  0  0  0  0  0  0  0
  1  2  2  0
  2  3  1  0
  3  4  1  0
  4  5  1  0
  5  6  2  0
  5  7  1  0
  7  8  1  0
  8  9  1  0
  9 10  1  0
 10 11  1  0
 11 12  1  0
 12 13  2  0
 13 14  1  0
 14 15  1  0
 15 16  1  0
 16 17  2  0
 17 18  1  0
 18 19  2  0
 19 20  1  0
 20 21  2  0
 15 22  2  0
  2 23  1  0
 23 24  2  0
 24 25  1  0
 25 26  2  0
 26 27  1  0
 27 28  2  0
 28 29  1  0
 29 30  2  0
 30 31  1  0
 31 32  2  0
 11  7  1  0
 22 12  1  0
 32 23  1  0
 21 16  1  0
 31 26  1  0
  3 33  1  0
  4 34  1  0
  4 35  1  0
  8 36  1  0
  8 37  1  0
  9 38  1  0
  9 39  1  0
 10 40  1  0
 10 41  1  0
 11 42  1  1
 13 43  1  0
 14 44  1  0
 17 45  1  0
 18 46  1  0
 19 47  1  0
 20 48  1  0
 21 49  1  0
 24 50  1  0
 25 51  1  0
 27 52  1  0
 28 53  1  0
 29 54  1  0
 30 55  1  0
M  END
>  <smiles>  (44) 
O=C(NCC(=O)N1CCC[C@H]1c1c[nH]c(-c2ccccc2)n1)c1ccc2ccccc2n1

>  <score_type>  (44) 
oracle

>  <origin>  (44) 
autodockgpu

>  <m_score__min__energy>  (44) 
-9.75

>  <m_primary>  (44) 
energy

>  <rmsd>  (44) 
7.141765472578743

>  <m_score__min__rmsd>  (44) 
7.141765472578743

>  <meeko>  (44) 
{"free_energy": -7.48, "intermolecular_energy": -9.27, "internal_energy": -3.94, "cluster_size": 19, "cluster_id": 5, "rank_in_cluster": 13}

>  <energy>  (44) 
-7.25

>  <cluster_rmsd>  (44) 
0.15

>  <cluster>  (44) 
6

$$$$

     RDKit          3D

 55 59  0  0  0  0  0  0  0  0999 V2000
  136.4440   77.2710  222.2220 O   0  0  0  0  0  0  0  0  0  0  0  0
  137.6310   77.0190  222.5390 C   0  0  0  0  0  0  0  0  0  0  0  0
  138.0810   75.6730  222.6170 N   0  0  0  0  0  0  0  0  0  0  0  0
  137.1730   74.6100  222.3320 C   0  0  0  0  0  0  0  0  0  0  0  0
  137.7260   73.5930  221.4040 C   0  0  0  0  0  0  0  0  0  0  0  0
  136.9380   72.6350  221.1040 O   0  0  0  0  0  0  0  0  0  0  0  0
  139.0340   73.6780  220.8900 N   0  0  0  0  0  0  0  0  0  0  0  0
  139.5260   74.8300  220.1130 C   0  0  0  0  0  0  0  0  0  0  0  0
  141.0360   74.7240  220.1560 C   0  0  0  0  0  0  0  0  0  0  0  0
  141.2910   73.6910  221.2310 C   0  0  0  0  0  0  0  0  0  0  0  0
  140.1000   72.7490  220.9900 C   0  0  1  0  0  0  0  0  0  0  0  0
  139.9870   71.7750  222.1120 C   0  0  0  0  0  0  0  0  0  0  0  0
  139.5040   70.4860  222.1060 C   0  0  0  0  0  0  0  0  0  0  0  0
  139.6010   69.9900  223.3710 N   0  0  0  0  0  0  0  0  0  0  0  0
  140.1330   70.9460  224.1570 C   0  0  0  0  0  0  0  0  0  0  0  0
  140.4310   70.8910  225.5910 C   0  0  0  0  0  0  0  0  0  0  0  0
  141.1300   71.9230  226.2260 C   0  0  0  0  0  0  0  0  0  0  0  0
  141.4180   71.8860  227.5750 C   0  0  0  0  0  0  0  0  0  0  0  0
  140.9980   70.7890  228.3060 C   0  0  0  0  0  0  0  0  0  0  0  0
  140.3040   69.7520  227.6950 C   0  0  0  0  0  0  0  0  0  0  0  0
  140.0150   69.7960  226.3360 C   0  0  0  0  0  0  0  0  0  0  0  0
  140.3570   72.0070  223.3870 N   0  0  0  0  0  0  0  0  0  0  0  0
  138.5610   78.1070  222.8310 C   0  0  0  0  0  0  0  0  0  0  0  0
  138.0700   79.3660  223.1270 C   0  0  0  0  0  0  0  0  0  0  0  0
  138.8870   80.4370  223.4100 C   0  0  0  0  0  0  0  0  0  0  0  0
  140.2390   80.2280  223.3960 C   0  0  0  0  0  0  0  0  0  0  0  0
  141.0690   81.2920  223.6790 C   0  0  0  0  0  0  0  0  0  0  0  0
  142.4290   81.0650  223.6590 C   0  0  0  0  0  0  0  0  0  0  0  0
  142.9570   79.8150  223.3670 C   0  0  0  0  0  0  0  0  0  0  0  0
  142.1110   78.7680  223.0890 C   0  0  0  0  0  0  0  0  0  0  0  0
  140.7450   78.9750  223.1020 C   0  0  0  0  0  0  0  0  0  0  0  0
  139.8990   77.9500  222.8290 N   0  0  0  0  0  0  0  0  0  0  0  0
  139.0940   75.5250  222.8890 H   0  0  0  0  0  0  0  0  0  0  0  0
  136.9110   74.1128  223.2776 H   0  0  0  0  0  0  0  0  0  0  0  0
  136.2968   75.0560  221.8388 H   0  0  0  0  0  0  0  0  0  0  0  0
  139.1653   74.7773  219.0752 H   0  0  0  0  0  0  0  0  0  0  0  0
  139.1696   75.7856  220.5252 H   0  0  0  0  0  0  0  0  0  0  0  0
  141.4336   74.3883  219.1869 H   0  0  0  0  0  0  0  0  0  0  0  0
  141.5257   75.6867  220.3643 H   0  0  0  0  0  0  0  0  0  0  0  0
  142.2528   73.1780  221.0833 H   0  0  0  0  0  0  0  0  0  0  0  0
  141.3612   74.0947  222.2519 H   0  0  0  0  0  0  0  0  0  0  0  0
  140.1562   72.1000  220.1036 H   0  0  0  0  0  0  0  0  0  0  0  0
  139.1082   69.9494  221.2311 H   0  0  0  0  0  0  0  0  0  0  0  0
  139.3120   69.0320  223.6800 H   0  0  0  0  0  0  0  0  0  0  0  0
  141.4595   72.7888  225.6329 H   0  0  0  0  0  0  0  0  0  0  0  0
  141.9676   72.7079  228.0570 H   0  0  0  0  0  0  0  0  0  0  0  0
  141.2160   70.7373  229.3829 H   0  0  0  0  0  0  0  0  0  0  0  0
  139.9799   68.8873  228.2928 H   0  0  0  0  0  0  0  0  0  0  0  0
  139.4636   68.9735  225.8570 H   0  0  0  0  0  0  0  0  0  0  0  0
  136.9805   79.5176  223.1366 H   0  0  0  0  0  0  0  0  0  0  0  0
  138.4671   81.4274  223.6397 H   0  0  0  0  0  0  0  0  0  0  0  0
  140.6609   82.2865  223.9124 H   0  0  0  0  0  0  0  0  0  0  0  0
  143.1138   81.8969  223.8804 H   0  0  0  0  0  0  0  0  0  0  0  0
  144.0464   79.6631  223.3581 H   0  0  0  0  0  0  0  0  0  0  0  0
  142.5184   77.7727  222.8579 H   0  0  0  0  0  0  0  0  0  0  0  0
  1  2  2  0
  2  3  1  0
  3  4  1  0
  4  5  1  0
  5  6  2  0
  5  7  1  0
  7  8  1  0
  8  9  1  0
  9 10  1  0
 10 11  1  0
 11 12  1  0
 12 13  2  0
 13 14  1  0
 14 15  1  0
 15 16  1  0
 16 17  2  0
 17 18  1  0
 18 19  2  0
 19 20  1  0
 20 21  2  0
 15 22  2  0
  2 23  1  0
 23 24  2  0
 24 25  1  0
 25 26  2  0
 26 27  1  0
 27 28  2  0
 28 29  1  0
 29 30  2  0
 30 31  1  0
 31 32  2  0
 11  7  1  0
 22 12  1  0
 32 23  1  0
 21 16  1  0
 31 26  1  0
  3 33  1  0
  4 34  1  0
  4 35  1  0
  8 36  1  0
  8 37  1  0
  9 38  1  0
  9 39  1  0
 10 40  1  0
 10 41  1  0
 11 42  1  6
 13 43  1  0
 14 44  1  0
 17 45  1  0
 18 46  1  0
 19 47  1  0
 20 48  1  0
 21 49  1  0
 24 50  1  0
 25 51  1  0
 27 52  1  0
 28 53  1  0
 29 54  1  0
 30 55  1  0
M  END
>  <smiles>  (45) 
O=C(NCC(=O)N1CCC[C@H]1c1c[nH]c(-c2ccccc2)n1)c1ccc2ccccc2n1

>  <score_type>  (45) 
oracle

>  <origin>  (45) 
autodockgpu

>  <m_score__min__energy>  (45) 
-9.75

>  <m_primary>  (45) 
energy

>  <rmsd>  (45) 
8.976647830155356

>  <m_score__min__rmsd>  (45) 
8.976647830155356

>  <meeko>  (45) 
{"free_energy": -8.58, "intermolecular_energy": -10.37, "internal_energy": -2.0, "cluster_size": 10, "cluster_id": 3, "rank_in_cluster": 8}

>  <energy>  (45) 
-7.22

>  <cluster_rmsd>  (45) 
0.23

>  <cluster>  (45) 
6

$$$$

     RDKit          3D

 55 59  0  0  0  0  0  0  0  0999 V2000
  136.0990   75.2270  221.5710 O   0  0  0  0  0  0  0  0  0  0  0  0
  136.7530   74.4860  222.3440 C   0  0  0  0  0  0  0  0  0  0  0  0
  138.1740   74.4960  222.3120 N   0  0  0  0  0  0  0  0  0  0  0  0
  138.8510   75.3540  221.3960 C   0  0  0  0  0  0  0  0  0  0  0  0
  140.3220   75.3870  221.5950 C   0  0  0  0  0  0  0  0  0  0  0  0
  140.7430   76.2370  222.4500 O   0  0  0  0  0  0  0  0  0  0  0  0
  141.1950   74.5380  220.8880 N   0  0  0  0  0  0  0  0  0  0  0  0
  142.3740   75.0220  220.1490 C   0  0  0  0  0  0  0  0  0  0  0  0
  143.2430   73.8000  219.9400 C   0  0  0  0  0  0  0  0  0  0  0  0
  142.6340   72.7670  220.8620 C   0  0  0  0  0  0  0  0  0  0  0  0
  141.1460   73.1300  220.7320 C   0  0  1  0  0  0  0  0  0  0  0  0
  140.3530   72.4060  221.7650 C   0  0  0  0  0  0  0  0  0  0  0  0
  139.1090   71.8260  221.6660 C   0  0  0  0  0  0  0  0  0  0  0  0
  138.7960   71.2820  222.8740 N   0  0  0  0  0  0  0  0  0  0  0  0
  139.8210   71.5130  223.7170 C   0  0  0  0  0  0  0  0  0  0  0  0
  139.9560   71.1250  225.1250 C   0  0  0  0  0  0  0  0  0  0  0  0
  139.2850   70.0100  225.6370 C   0  0  0  0  0  0  0  0  0  0  0  0
  139.4020   69.6330  226.9590 C   0  0  0  0  0  0  0  0  0  0  0  0
  140.2100   70.3900  227.7890 C   0  0  0  0  0  0  0  0  0  0  0  0
  140.8840   71.5030  227.3010 C   0  0  0  0  0  0  0  0  0  0  0  0
  140.7630   71.8770  225.9670 C   0  0  0  0  0  0  0  0  0  0  0  0
  140.7440   72.1870  223.0360 N   0  0  0  0  0  0  0  0  0  0  0  0
  136.0590   73.6070  223.2820 C   0  0  0  0  0  0  0  0  0  0  0  0
  135.0770   74.1240  224.1050 C   0  0  0  0  0  0  0  0  0  0  0  0
  134.3830   73.3560  225.0130 C   0  0  0  0  0  0  0  0  0  0  0  0
  134.6930   72.0250  225.0890 C   0  0  0  0  0  0  0  0  0  0  0  0
  134.0060   71.2430  225.9930 C   0  0  0  0  0  0  0  0  0  0  0  0
  134.3310   69.9050  226.0570 C   0  0  0  0  0  0  0  0  0  0  0  0
  135.3110   69.3510  225.2460 C   0  0  0  0  0  0  0  0  0  0  0  0
  135.9840   70.1490  224.3500 C   0  0  0  0  0  0  0  0  0  0  0  0
  135.6740   71.4930  224.2710 C   0  0  0  0  0  0  0  0  0  0  0  0
  136.3300   72.2920  223.3920 N   0  0  0  0  0  0  0  0  0  0  0  0
  138.6690   73.8490  222.9900 H   0  0  0  0  0  0  0  0  0  0  0  0
  138.6454   75.0040  220.3736 H   0  0  0  0  0  0  0  0  0  0  0  0
  138.4772   76.3738  221.5699 H   0  0  0  0  0  0  0  0  0  0  0  0
  142.0732   75.4510  219.1818 H   0  0  0  0  0  0  0  0  0  0  0  0
  142.9050   75.8143  220.6970 H   0  0  0  0  0  0  0  0  0  0  0  0
  143.2029   73.4642  218.8933 H   0  0  0  0  0  0  0  0  0  0  0  0
  144.3052   73.9898  220.1539 H   0  0  0  0  0  0  0  0  0  0  0  0
  142.8352   71.7426  220.5155 H   0  0  0  0  0  0  0  0  0  0  0  0
  143.0239   72.7795  221.8905 H   0  0  0  0  0  0  0  0  0  0  0  0
  140.6488   72.8433  219.7936 H   0  0  0  0  0  0  0  0  0  0  0  0
  138.4767   71.8055  220.7661 H   0  0  0  0  0  0  0  0  0  0  0  0
  137.9120   70.7720  223.1090 H   0  0  0  0  0  0  0  0  0  0  0  0
  138.6458   69.4167  224.9667 H   0  0  0  0  0  0  0  0  0  0  0  0
  138.8663   68.7526  227.3436 H   0  0  0  0  0  0  0  0  0  0  0  0
  140.3200   70.1077  228.8465 H   0  0  0  0  0  0  0  0  0  0  0  0
  141.5196   72.0941  227.9767 H   0  0  0  0  0  0  0  0  0  0  0  0
  141.3000   72.7574  225.5843 H   0  0  0  0  0  0  0  0  0  0  0  0
  134.8393   75.1955  224.0317 H   0  0  0  0  0  0  0  0  0  0  0  0
  133.6063   73.7969  225.6551 H   0  0  0  0  0  0  0  0  0  0  0  0
  133.2264   71.6715  226.6400 H   0  0  0  0  0  0  0  0  0  0  0  0
  133.7988   69.2588  226.7706 H   0  0  0  0  0  0  0  0  0  0  0  0
  135.5486   68.2794  225.3191 H   0  0  0  0  0  0  0  0  0  0  0  0
  136.7626   69.7205  223.7018 H   0  0  0  0  0  0  0  0  0  0  0  0
  1  2  2  0
  2  3  1  0
  3  4  1  0
  4  5  1  0
  5  6  2  0
  5  7  1  0
  7  8  1  0
  8  9  1  0
  9 10  1  0
 10 11  1  0
 11 12  1  0
 12 13  2  0
 13 14  1  0
 14 15  1  0
 15 16  1  0
 16 17  2  0
 17 18  1  0
 18 19  2  0
 19 20  1  0
 20 21  2  0
 15 22  2  0
  2 23  1  0
 23 24  2  0
 24 25  1  0
 25 26  2  0
 26 27  1  0
 27 28  2  0
 28 29  1  0
 29 30  2  0
 30 31  1  0
 31 32  2  0
 11  7  1  0
 22 12  1  0
 32 23  1  0
 21 16  1  0
 31 26  1  0
  3 33  1  0
  4 34  1  0
  4 35  1  0
  8 36  1  0
  8 37  1  0
  9 38  1  0
  9 39  1  0
 10 40  1  0
 10 41  1  0
 11 42  1  6
 13 43  1  0
 14 44  1  0
 17 45  1  0
 18 46  1  0
 19 47  1  0
 20 48  1  0
 21 49  1  0
 24 50  1  0
 25 51  1  0
 27 52  1  0
 28 53  1  0
 29 54  1  0
 30 55  1  0
M  END
>  <smiles>  (46) 
O=C(NCC(=O)N1CCC[C@H]1c1c[nH]c(-c2ccccc2)n1)c1ccc2ccccc2n1

>  <score_type>  (46) 
oracle

>  <origin>  (46) 
autodockgpu

>  <m_score__min__energy>  (46) 
-9.75

>  <m_primary>  (46) 
energy

>  <rmsd>  (46) 
7.22866751992554

>  <m_score__min__rmsd>  (46) 
7.22866751992554

>  <meeko>  (46) 
{"free_energy": -7.44, "intermolecular_energy": -9.23, "internal_energy": -3.27, "cluster_size": 1, "cluster_id": 7, "rank_in_cluster": 1}

>  <energy>  (46) 
-7.13

>  <cluster_rmsd>  (46) 
0.27

>  <cluster>  (46) 
6

$$$$

     RDKit          3D

 55 59  0  0  0  0  0  0  0  0999 V2000
  138.8130   75.2220  222.1540 O   0  0  0  0  0  0  0  0  0  0  0  0
  139.9370   75.7490  221.9690 C   0  0  0  0  0  0  0  0  0  0  0  0
  140.9700   75.0210  221.3190 N   0  0  0  0  0  0  0  0  0  0  0  0
  140.7200   73.6870  220.8780 C   0  0  0  0  0  0  0  0  0  0  0  0
  141.8380   73.1050  220.0930 C   0  0  0  0  0  0  0  0  0  0  0  0
  141.4950   72.4400  219.0590 O   0  0  0  0  0  0  0  0  0  0  0  0
  143.1850   73.2760  220.4650 N   0  0  0  0  0  0  0  0  0  0  0  0
  144.0290   72.1820  220.9760 C   0  0  0  0  0  0  0  0  0  0  0  0
  145.4530   72.6700  220.8180 C   0  0  0  0  0  0  0  0  0  0  0  0
  145.3170   73.8850  219.9280 C   0  0  0  0  0  0  0  0  0  0  0  0
  143.9820   74.4480  220.4380 C   0  0  1  0  0  0  0  0  0  0  0  0
  143.4990   75.5210  219.5230 C   0  0  0  0  0  0  0  0  0  0  0  0
  143.3850   75.5140  218.1520 C   0  0  0  0  0  0  0  0  0  0  0  0
  142.8950   76.7230  217.7600 N   0  0  0  0  0  0  0  0  0  0  0  0
  142.7040   77.4750  218.8610 C   0  0  0  0  0  0  0  0  0  0  0  0
  142.1940   78.8460  218.9570 C   0  0  0  0  0  0  0  0  0  0  0  0
  142.7700   79.8870  218.2210 C   0  0  0  0  0  0  0  0  0  0  0  0
  142.3010   81.1830  218.3020 C   0  0  0  0  0  0  0  0  0  0  0  0
  141.2300   81.4430  219.1390 C   0  0  0  0  0  0  0  0  0  0  0  0
  140.6440   80.4230  219.8800 C   0  0  0  0  0  0  0  0  0  0  0  0
  141.1200   79.1200  219.7930 C   0  0  0  0  0  0  0  0  0  0  0  0
  143.0710   76.7390  219.9080 N   0  0  0  0  0  0  0  0  0  0  0  0
  140.1930   77.1140  222.4210 C   0  0  0  0  0  0  0  0  0  0  0  0
  139.1310   77.9360  222.7510 C   0  0  0  0  0  0  0  0  0  0  0  0
  139.2970   79.2320  223.1830 C   0  0  0  0  0  0  0  0  0  0  0  0
  140.5760   79.7110  223.2840 C   0  0  0  0  0  0  0  0  0  0  0  0
  140.7570   81.0080  223.7160 C   0  0  0  0  0  0  0  0  0  0  0  0
  142.0520   81.4740  223.8110 C   0  0  0  0  0  0  0  0  0  0  0  0
  143.1410   80.6780  223.4880 C   0  0  0  0  0  0  0  0  0  0  0  0
  142.9370   79.3870  223.0600 C   0  0  0  0  0  0  0  0  0  0  0  0
  141.6490   78.9010  222.9570 C   0  0  0  0  0  0  0  0  0  0  0  0
  141.4330   77.6290  222.5360 N   0  0  0  0  0  0  0  0  0  0  0  0
  141.8960   75.5190  221.1920 H   0  0  0  0  0  0  0  0  0  0  0  0
  140.5481   73.0544  221.7613 H   0  0  0  0  0  0  0  0  0  0  0  0
  139.8430   73.7236  220.2151 H   0  0  0  0  0  0  0  0  0  0  0  0
  143.8046   71.9843  222.0345 H   0  0  0  0  0  0  0  0  0  0  0  0
  143.8549   71.2414  220.4330 H   0  0  0  0  0  0  0  0  0  0  0  0
  145.8847   72.9433  221.7921 H   0  0  0  0  0  0  0  0  0  0  0  0
  146.1222   71.9052  220.3971 H   0  0  0  0  0  0  0  0  0  0  0  0
  146.1431   74.5954  220.0794 H   0  0  0  0  0  0  0  0  0  0  0  0
  145.3458   73.6721  218.8492 H   0  0  0  0  0  0  0  0  0  0  0  0
  144.0001   74.9483  221.4175 H   0  0  0  0  0  0  0  0  0  0  0  0
  143.6446   74.6769  217.4873 H   0  0  0  0  0  0  0  0  0  0  0  0
  142.6990   77.0170  216.7750 H   0  0  0  0  0  0  0  0  0  0  0  0
  143.6205   79.6668  217.5591 H   0  0  0  0  0  0  0  0  0  0  0  0
  142.7670   81.9888  217.7159 H   0  0  0  0  0  0  0  0  0  0  0  0
  140.8381   82.4677  219.2189 H   0  0  0  0  0  0  0  0  0  0  0  0
  139.7951   80.6494  220.5418 H   0  0  0  0  0  0  0  0  0  0  0  0
  140.6515   78.3158  220.3793 H   0  0  0  0  0  0  0  0  0  0  0  0
  138.1097   77.5367  222.6645 H   0  0  0  0  0  0  0  0  0  0  0  0
  138.4320   79.8617  223.4384 H   0  0  0  0  0  0  0  0  0  0  0  0
  139.9004   81.6475  223.9753 H   0  0  0  0  0  0  0  0  0  0  0  0
  142.2257   82.5052  224.1523 H   0  0  0  0  0  0  0  0  0  0  0  0
  144.1624   81.0772  223.5737 H   0  0  0  0  0  0  0  0  0  0  0  0
  143.7934   78.7467  222.8018 H   0  0  0  0  0  0  0  0  0  0  0  0
  1  2  2  0
  2  3  1  0
  3  4  1  0
  4  5  1  0
  5  6  2  0
  5  7  1  0
  7  8  1  0
  8  9  1  0
  9 10  1  0
 10 11  1  0
 11 12  1  0
 12 13  2  0
 13 14  1  0
 14 15  1  0
 15 16  1  0
 16 17  2  0
 17 18  1  0
 18 19  2  0
 19 20  1  0
 20 21  2  0
 15 22  2  0
  2 23  1  0
 23 24  2  0
 24 25  1  0
 25 26  2  0
 26 27  1  0
 27 28  2  0
 28 29  1  0
 29 30  2  0
 30 31  1  0
 31 32  2  0
 11  7  1  0
 22 12  1  0
 32 23  1  0
 21 16  1  0
 31 26  1  0
  3 33  1  0
  4 34  1  0
  4 35  1  0
  8 36  1  0
  8 37  1  0
  9 38  1  0
  9 39  1  0
 10 40  1  0
 10 41  1  0
 11 42  1  1
 13 43  1  0
 14 44  1  0
 17 45  1  0
 18 46  1  0
 19 47  1  0
 20 48  1  0
 21 49  1  0
 24 50  1  0
 25 51  1  0
 27 52  1  0
 28 53  1  0
 29 54  1  0
 30 55  1  0
M  END
>  <smiles>  (47) 
O=C(NCC(=O)N1CCC[C@H]1c1c[nH]c(-c2ccccc2)n1)c1ccc2ccccc2n1

>  <score_type>  (47) 
oracle

>  <origin>  (47) 
autodockgpu

>  <m_score__min__energy>  (47) 
-9.75

>  <m_primary>  (47) 
energy

>  <rmsd>  (47) 
7.095421073907893

>  <m_score__min__rmsd>  (47) 
7.095421073907893

>  <meeko>  (47) 
{"free_energy": -7.67, "intermolecular_energy": -9.46, "internal_energy": -3.81, "cluster_size": 19, "cluster_id": 5, "rank_in_cluster": 6}

>  <energy>  (47) 
-6.62

>  <cluster_rmsd>  (47) 
0.84

>  <cluster>  (47) 
6

$$$$

     RDKit          3D

 55 59  0  0  0  0  0  0  0  0999 V2000
  138.7730   75.3970  222.2830 O   0  0  0  0  0  0  0  0  0  0  0  0
  139.9370   75.8650  222.2540 C   0  0  0  0  0  0  0  0  0  0  0  0
  141.0230   75.0530  221.8280 N   0  0  0  0  0  0  0  0  0  0  0  0
  140.7810   73.7040  221.4330 C   0  0  0  0  0  0  0  0  0  0  0  0
  141.5400   73.2970  220.2240 C   0  0  0  0  0  0  0  0  0  0  0  0
  140.8350   73.0590  219.1860 O   0  0  0  0  0  0  0  0  0  0  0  0
  142.9430   73.1800  220.2220 N   0  0  0  0  0  0  0  0  0  0  0  0
  143.6490   71.8990  220.3950 C   0  0  0  0  0  0  0  0  0  0  0  0
  145.0550   72.1460  219.8890 C   0  0  0  0  0  0  0  0  0  0  0  0
  144.9450   73.4710  219.1670 C   0  0  0  0  0  0  0  0  0  0  0  0
  143.9270   74.1890  220.0680 C   0  0  1  0  0  0  0  0  0  0  0  0
  143.4550   75.4370  219.4060 C   0  0  0  0  0  0  0  0  0  0  0  0
  143.6970   75.8970  218.1310 C   0  0  0  0  0  0  0  0  0  0  0  0
  143.0530   77.0870  217.9800 N   0  0  0  0  0  0  0  0  0  0  0  0
  142.4190   77.3720  219.1340 C   0  0  0  0  0  0  0  0  0  0  0  0
  141.5950   78.5390  219.4640 C   0  0  0  0  0  0  0  0  0  0  0  0
  140.2100   78.4270  219.6230 C   0  0  0  0  0  0  0  0  0  0  0  0
  139.4220   79.5170  219.9340 C   0  0  0  0  0  0  0  0  0  0  0  0
  140.0350   80.7480  220.0870 C   0  0  0  0  0  0  0  0  0  0  0  0
  141.4090   80.8820  219.9320 C   0  0  0  0  0  0  0  0  0  0  0  0
  142.1980   79.7800  219.6200 C   0  0  0  0  0  0  0  0  0  0  0  0
  142.6700   76.3730  219.9760 N   0  0  0  0  0  0  0  0  0  0  0  0
  140.1860   77.2460  222.6590 C   0  0  0  0  0  0  0  0  0  0  0  0
  139.1200   78.0690  222.9740 C   0  0  0  0  0  0  0  0  0  0  0  0
  139.2790   79.3800  223.3620 C   0  0  0  0  0  0  0  0  0  0  0  0
  140.5540   79.8720  223.4340 C   0  0  0  0  0  0  0  0  0  0  0  0
  140.7280   81.1840  223.8220 C   0  0  0  0  0  0  0  0  0  0  0  0
  142.0190   81.6630  223.8890 C   0  0  0  0  0  0  0  0  0  0  0  0
  143.1130   80.8670  223.5810 C   0  0  0  0  0  0  0  0  0  0  0  0
  142.9160   79.5610  223.1970 C   0  0  0  0  0  0  0  0  0  0  0  0
  141.6310   79.0610  223.1220 C   0  0  0  0  0  0  0  0  0  0  0  0
  141.4220   77.7740  222.7450 N   0  0  0  0  0  0  0  0  0  0  0  0
  141.9820   75.5040  221.8250 H   0  0  0  0  0  0  0  0  0  0  0  0
  141.0667   73.0413  222.2632 H   0  0  0  0  0  0  0  0  0  0  0  0
  139.7119   73.6254  221.1862 H   0  0  0  0  0  0  0  0  0  0  0  0
  143.6667   71.6091  221.4560 H   0  0  0  0  0  0  0  0  0  0  0  0
  143.1547   71.0814  219.8498 H   0  0  0  0  0  0  0  0  0  0  0  0
  145.7673   72.2119  220.7246 H   0  0  0  0  0  0  0  0  0  0  0  0
  145.4254   71.3364  219.2430 H   0  0  0  0  0  0  0  0  0  0  0  0
  145.9087   74.0007  219.1388 H   0  0  0  0  0  0  0  0  0  0  0  0
  144.6528   73.3968  218.1091 H   0  0  0  0  0  0  0  0  0  0  0  0
  144.2949   74.5485  221.0403 H   0  0  0  0  0  0  0  0  0  0  0  0
  144.3052   75.3908  217.3669 H   0  0  0  0  0  0  0  0  0  0  0  0
  143.0500   77.6800  217.1160 H   0  0  0  0  0  0  0  0  0  0  0  0
  139.7353   77.4428  219.4967 H   0  0  0  0  0  0  0  0  0  0  0  0
  138.3342   79.4096  220.0571 H   0  0  0  0  0  0  0  0  0  0  0  0
  139.4272   81.6309  220.3343 H   0  0  0  0  0  0  0  0  0  0  0  0
  141.8775   81.8693  220.0573 H   0  0  0  0  0  0  0  0  0  0  0  0
  143.2857   79.8901  219.4984 H   0  0  0  0  0  0  0  0  0  0  0  0
  138.1015   77.6582  222.9118 H   0  0  0  0  0  0  0  0  0  0  0  0
  138.4112   80.0105  223.6058 H   0  0  0  0  0  0  0  0  0  0  0  0
  139.8685   81.8245  224.0689 H   0  0  0  0  0  0  0  0  0  0  0  0
  142.1866   82.7061  224.1954 H   0  0  0  0  0  0  0  0  0  0  0  0
  144.1315   81.2778  223.6435 H   0  0  0  0  0  0  0  0  0  0  0  0
  143.7754   78.9198  222.9516 H   0  0  0  0  0  0  0  0  0  0  0  0
  1  2  2  0
  2  3  1  0
  3  4  1  0
  4  5  1  0
  5  6  2  0
  5  7  1  0
  7  8  1  0
  8  9  1  0
  9 10  1  0
 10 11  1  0
 11 12  1  0
 12 13  2  0
 13 14  1  0
 14 15  1  0
 15 16  1  0
 16 17  2  0
 17 18  1  0
 18 19  2  0
 19 20  1  0
 20 21  2  0
 15 22  2  0
  2 23  1  0
 23 24  2  0
 24 25  1  0
 25 26  2  0
 26 27  1  0
 27 28  2  0
 28 29  1  0
 29 30  2  0
 30 31  1  0
 31 32  2  0
 11  7  1  0
 22 12  1  0
 32 23  1  0
 21 16  1  0
 31 26  1  0
  3 33  1  0
  4 34  1  0
  4 35  1  0
  8 36  1  0
  8 37  1  0
  9 38  1  0
  9 39  1  0
 10 40  1  0
 10 41  1  0
 11 42  1  1
 13 43  1  0
 14 44  1  0
 17 45  1  0
 18 46  1  0
 19 47  1  0
 20 48  1  0
 21 49  1  0
 24 50  1  0
 25 51  1  0
 27 52  1  0
 28 53  1  0
 29 54  1  0
 30 55  1  0
M  END
>  <smiles>  (48) 
O=C(NCC(=O)N1CCC[C@H]1c1c[nH]c(-c2ccccc2)n1)c1ccc2ccccc2n1

>  <score_type>  (48) 
oracle

>  <origin>  (48) 
autodockgpu

>  <m_score__min__energy>  (48) 
-9.75

>  <m_primary>  (48) 
energy

>  <rmsd>  (48) 
6.982960997469694

>  <m_score__min__rmsd>  (48) 
6.982960997469694

>  <meeko>  (48) 
{"free_energy": -7.23, "intermolecular_energy": -9.02, "internal_energy": -4.24, "cluster_size": 19, "cluster_id": 5, "rank_in_cluster": 19}

>  <energy>  (48) 
-7.44

>  <cluster_rmsd>  (48) 
0.0

>  <cluster>  (48) 
7

$$$$

     RDKit          3D

 55 59  0  0  0  0  0  0  0  0999 V2000
  139.5680   74.9250  222.3370 O   0  0  0  0  0  0  0  0  0  0  0  0
  139.9460   75.8720  221.6060 C   0  0  0  0  0  0  0  0  0  0  0  0
  140.1380   75.6670  220.2130 N   0  0  0  0  0  0  0  0  0  0  0  0
  139.8970   74.3780  219.6510 C   0  0  0  0  0  0  0  0  0  0  0  0
  141.1310   73.6990  219.1820 C   0  0  0  0  0  0  0  0  0  0  0  0
  141.0380   73.1070  218.0540 O   0  0  0  0  0  0  0  0  0  0  0  0
  142.3230   73.7060  219.9300 N   0  0  0  0  0  0  0  0  0  0  0  0
  142.9000   72.4990  220.5470 C   0  0  0  0  0  0  0  0  0  0  0  0
  144.3420   72.8520  220.8420 C   0  0  0  0  0  0  0  0  0  0  0  0
  144.5590   74.1360  220.0740 C   0  0  0  0  0  0  0  0  0  0  0  0
  143.1800   74.7920  220.2430 C   0  0  1  0  0  0  0  0  0  0  0  0
  143.0620   75.9710  219.3390 C   0  0  0  0  0  0  0  0  0  0  0  0
  143.4420   76.1050  218.0230 C   0  0  0  0  0  0  0  0  0  0  0  0
  143.1330   77.3680  217.6190 N   0  0  0  0  0  0  0  0  0  0  0  0
  142.5710   78.0160  218.6570 C   0  0  0  0  0  0  0  0  0  0  0  0
  142.0730   79.3940  218.7170 C   0  0  0  0  0  0  0  0  0  0  0  0
  141.7470   79.9950  219.9370 C   0  0  0  0  0  0  0  0  0  0  0  0
  141.2770   81.2900  220.0090 C   0  0  0  0  0  0  0  0  0  0  0  0
  141.1290   82.0010  218.8310 C   0  0  0  0  0  0  0  0  0  0  0  0
  141.4450   81.4230  217.6080 C   0  0  0  0  0  0  0  0  0  0  0  0
  141.9200   80.1170  217.5420 C   0  0  0  0  0  0  0  0  0  0  0  0
  142.5370   77.1640  219.6790 N   0  0  0  0  0  0  0  0  0  0  0  0
  140.1930   77.1920  222.1810 C   0  0  0  0  0  0  0  0  0  0  0  0
  139.1250   77.9850  222.5580 C   0  0  0  0  0  0  0  0  0  0  0  0
  139.2820   79.2380  223.1040 C   0  0  0  0  0  0  0  0  0  0  0  0
  140.5580   79.7030  223.2750 C   0  0  0  0  0  0  0  0  0  0  0  0
  140.7310   80.9560  223.8220 C   0  0  0  0  0  0  0  0  0  0  0  0
  142.0230   81.4090  223.9850 C   0  0  0  0  0  0  0  0  0  0  0  0
  143.1190   80.6410  223.6190 C   0  0  0  0  0  0  0  0  0  0  0  0
  142.9240   79.3930  223.0760 C   0  0  0  0  0  0  0  0  0  0  0  0
  141.6380   78.9210  222.9020 C   0  0  0  0  0  0  0  0  0  0  0  0
  141.4300   77.6910  222.3670 N   0  0  0  0  0  0  0  0  0  0  0  0
  140.4570   76.5050  219.6480 H   0  0  0  0  0  0  0  0  0  0  0  0
  139.4215   73.7473  220.4165 H   0  0  0  0  0  0  0  0  0  0  0  0
  139.2519   74.5226  218.7718 H   0  0  0  0  0  0  0  0  0  0  0  0
  142.3668   72.2486  221.4760 H   0  0  0  0  0  0  0  0  0  0  0  0
  142.8189   71.6224  219.8875 H   0  0  0  0  0  0  0  0  0  0  0  0
  144.4952   73.0086  221.9200 H   0  0  0  0  0  0  0  0  0  0  0  0
  145.0443   72.0568  220.5515 H   0  0  0  0  0  0  0  0  0  0  0  0
  145.3579   74.7469  220.5196 H   0  0  0  0  0  0  0  0  0  0  0  0
  144.8801   74.0003  219.0307 H   0  0  0  0  0  0  0  0  0  0  0  0
  142.9539   75.2159  221.2325 H   0  0  0  0  0  0  0  0  0  0  0  0
  143.9135   75.3268  217.4049 H   0  0  0  0  0  0  0  0  0  0  0  0
  143.3020   77.7680  216.6660 H   0  0  0  0  0  0  0  0  0  0  0  0
  141.8689   79.4185  220.8659 H   0  0  0  0  0  0  0  0  0  0  0  0
  141.0262   81.7459  220.9782 H   0  0  0  0  0  0  0  0  0  0  0  0
  140.7569   83.0356  218.8635 H   0  0  0  0  0  0  0  0  0  0  0  0
  141.3184   82.0037  216.6824 H   0  0  0  0  0  0  0  0  0  0  0  0
  142.1709   79.6635  216.5718 H   0  0  0  0  0  0  0  0  0  0  0  0
  138.1056   77.5973  222.4152 H   0  0  0  0  0  0  0  0  0  0  0  0
  138.4118   79.8454  223.3933 H   0  0  0  0  0  0  0  0  0  0  0  0
  139.8694   81.5725  224.1179 H   0  0  0  0  0  0  0  0  0  0  0  0
  142.1894   82.4068  224.4171 H   0  0  0  0  0  0  0  0  0  0  0  0
  144.1384   81.0285  223.7625 H   0  0  0  0  0  0  0  0  0  0  0  0
  143.7856   78.7754  222.7825 H   0  0  0  0  0  0  0  0  0  0  0  0
  1  2  2  0
  2  3  1  0
  3  4  1  0
  4  5  1  0
  5  6  2  0
  5  7  1  0
  7  8  1  0
  8  9  1  0
  9 10  1  0
 10 11  1  0
 11 12  1  0
 12 13  2  0
 13 14  1  0
 14 15  1  0
 15 16  1  0
 16 17  2  0
 17 18  1  0
 18 19  2  0
 19 20  1  0
 20 21  2  0
 15 22  2  0
  2 23  1  0
 23 24  2  0
 24 25  1  0
 25 26  2  0
 26 27  1  0
 27 28  2  0
 28 29  1  0
 29 30  2  0
 30 31  1  0
 31 32  2  0
 11  7  1  0
 22 12  1  0
 32 23  1  0
 21 16  1  0
 31 26  1  0
  3 33  1  0
  4 34  1  0
  4 35  1  0
  8 36  1  0
  8 37  1  0
  9 38  1  0
  9 39  1  0
 10 40  1  0
 10 41  1  0
 11 42  1  1
 13 43  1  0
 14 44  1  0
 17 45  1  0
 18 46  1  0
 19 47  1  0
 20 48  1  0
 21 49  1  0
 24 50  1  0
 25 51  1  0
 27 52  1  0
 28 53  1  0
 29 54  1  0
 30 55  1  0
M  END
>  <smiles>  (49) 
O=C(NCC(=O)N1CCC[C@H]1c1c[nH]c(-c2ccccc2)n1)c1ccc2ccccc2n1

>  <score_type>  (49) 
oracle

>  <origin>  (49) 
autodockgpu

>  <m_score__min__energy>  (49) 
-9.75

>  <m_primary>  (49) 
energy

>  <rmsd>  (49) 
6.8445403616582565

>  <m_score__min__rmsd>  (49) 
6.8445403616582565

>  <meeko>  (49) 
{"free_energy": -7.61, "intermolecular_energy": -9.4, "internal_energy": -3.62, "cluster_size": 19, "cluster_id": 5, "rank_in_cluster": 10}

>  <energy>  (49) 
-6.53

>  <cluster_rmsd>  (49) 
0.0

>  <cluster>  (49) 
8

$$$$

     RDKit          3D

 55 59  0  0  0  0  0  0  0  0999 V2000
  139.9540   74.4740  222.3450 O   0  0  0  0  0  0  0  0  0  0  0  0
  140.1340   75.4340  221.5570 C   0  0  0  0  0  0  0  0  0  0  0  0
  140.2920   75.1960  220.1640 N   0  0  0  0  0  0  0  0  0  0  0  0
  140.2440   73.8590  219.6690 C   0  0  0  0  0  0  0  0  0  0  0  0
  141.5470   73.3750  219.1480 C   0  0  0  0  0  0  0  0  0  0  0  0
  141.5170   72.8680  217.9760 O   0  0  0  0  0  0  0  0  0  0  0  0
  142.7360   73.4670  219.8960 N   0  0  0  0  0  0  0  0  0  0  0  0
  143.4840   72.2930  220.3760 C   0  0  0  0  0  0  0  0  0  0  0  0
  144.8660   72.8110  220.7130 C   0  0  0  0  0  0  0  0  0  0  0  0
  144.8910   74.1900  220.0930 C   0  0  0  0  0  0  0  0  0  0  0  0
  143.4350   74.6220  220.3300 C   0  0  1  0  0  0  0  0  0  0  0  0
  143.1410   75.8650  219.5640 C   0  0  0  0  0  0  0  0  0  0  0  0
  143.5480   76.2290  218.3000 C   0  0  0  0  0  0  0  0  0  0  0  0
  143.0290   77.4580  218.0250 N   0  0  0  0  0  0  0  0  0  0  0  0
  142.3110   77.8590  219.0910 C   0  0  0  0  0  0  0  0  0  0  0  0
  141.5630   79.1070  219.2770 C   0  0  0  0  0  0  0  0  0  0  0  0
  142.1900   80.2630  219.7520 C   0  0  0  0  0  0  0  0  0  0  0  0
  141.4990   81.4450  219.9310 C   0  0  0  0  0  0  0  0  0  0  0  0
  140.1490   81.4690  219.6280 C   0  0  0  0  0  0  0  0  0  0  0  0
  139.5070   80.3310  219.1560 C   0  0  0  0  0  0  0  0  0  0  0  0
  140.2090   79.1430  218.9760 C   0  0  0  0  0  0  0  0  0  0  0  0
  142.3890   76.8930  220.0030 N   0  0  0  0  0  0  0  0  0  0  0  0
  140.1840   76.8030  222.0640 C   0  0  0  0  0  0  0  0  0  0  0  0
  139.0100   77.5110  222.2360 C   0  0  0  0  0  0  0  0  0  0  0  0
  138.9810   78.8040  222.7070 C   0  0  0  0  0  0  0  0  0  0  0  0
  140.1760   79.3960  223.0150 C   0  0  0  0  0  0  0  0  0  0  0  0
  140.1630   80.6910  223.4890 C   0  0  0  0  0  0  0  0  0  0  0  0
  141.3760   81.2720  223.7930 C   0  0  0  0  0  0  0  0  0  0  0  0
  142.5740   80.5910  223.6330 C   0  0  0  0  0  0  0  0  0  0  0  0
  142.5640   79.3000  223.1600 C   0  0  0  0  0  0  0  0  0  0  0  0
  141.3600   78.7000  222.8480 C   0  0  0  0  0  0  0  0  0  0  0  0
  141.3360   77.4260  222.3790 N   0  0  0  0  0  0  0  0  0  0  0  0
  140.4400   76.0460  219.5500 H   0  0  0  0  0  0  0  0  0  0  0  0
  139.9278   73.1955  220.4875 H   0  0  0  0  0  0  0  0  0  0  0  0
  139.5350   73.8498  218.8281 H   0  0  0  0  0  0  0  0  0  0  0  0
  143.0030   71.8685  221.2696 H   0  0  0  0  0  0  0  0  0  0  0  0
  143.5184   71.4922  219.6226 H   0  0  0  0  0  0  0  0  0  0  0  0
  145.0092   72.8676  221.8022 H   0  0  0  0  0  0  0  0  0  0  0  0
  145.6693   72.1597  220.3381 H   0  0  0  0  0  0  0  0  0  0  0  0
  145.6017   74.8545  220.6062 H   0  0  0  0  0  0  0  0  0  0  0  0
  145.2149   74.2173  219.0421 H   0  0  0  0  0  0  0  0  0  0  0  0
  143.1635   74.8977  221.3597 H   0  0  0  0  0  0  0  0  0  0  0  0
  144.1821   75.6311  217.6288 H   0  0  0  0  0  0  0  0  0  0  0  0
  143.1630   77.9980  217.1380 H   0  0  0  0  0  0  0  0  0  0  0  0
  143.2635   80.2299  219.9897 H   0  0  0  0  0  0  0  0  0  0  0  0
  142.0089   82.3450  220.3051 H   0  0  0  0  0  0  0  0  0  0  0  0
  139.5779   82.3995  219.7624 H   0  0  0  0  0  0  0  0  0  0  0  0
  138.4328   80.3694  218.9222 H   0  0  0  0  0  0  0  0  0  0  0  0
  139.6974   78.2446  218.6002 H   0  0  0  0  0  0  0  0  0  0  0  0
  138.0578   77.0203  221.9858 H   0  0  0  0  0  0  0  0  0  0  0  0
  138.0302   79.3430  222.8316 H   0  0  0  0  0  0  0  0  0  0  0  0
  139.2191   81.2406  223.6198 H   0  0  0  0  0  0  0  0  0  0  0  0
  141.3943   82.3041  224.1729 H   0  0  0  0  0  0  0  0  0  0  0  0
  143.5265   81.0811  223.8831 H   0  0  0  0  0  0  0  0  0  0  0  0
  143.5076   78.7495  223.0311 H   0  0  0  0  0  0  0  0  0  0  0  0
  1  2  2  0
  2  3  1  0
  3  4  1  0
  4  5  1  0
  5  6  2  0
  5  7  1  0
  7  8  1  0
  8  9  1  0
  9 10  1  0
 10 11  1  0
 11 12  1  0
 12 13  2  0
 13 14  1  0
 14 15  1  0
 15 16  1  0
 16 17  2  0
 17 18  1  0
 18 19  2  0
 19 20  1  0
 20 21  2  0
 15 22  2  0
  2 23  1  0
 23 24  2  0
 24 25  1  0
 25 26  2  0
 26 27  1  0
 27 28  2  0
 28 29  1  0
 29 30  2  0
 30 31  1  0
 31 32  2  0
 11  7  1  0
 22 12  1  0
 32 23  1  0
 21 16  1  0
 31 26  1  0
  3 33  1  0
  4 34  1  0
  4 35  1  0
  8 36  1  0
  8 37  1  0
  9 38  1  0
  9 39  1  0
 10 40  1  0
 10 41  1  0
 11 42  1  1
 13 43  1  0
 14 44  1  0
 17 45  1  0
 18 46  1  0
 19 47  1  0
 20 48  1  0
 21 49  1  0
 24 50  1  0
 25 51  1  0
 27 52  1  0
 28 53  1  0
 29 54  1  0
 30 55  1  0
M  END
>  <smiles>  (50) 
O=C(NCC(=O)N1CCC[C@H]1c1c[nH]c(-c2ccccc2)n1)c1ccc2ccccc2n1

>  <score_type>  (50) 
oracle

>  <origin>  (50) 
autodockgpu

>  <m_score__min__energy>  (50) 
-9.75

>  <m_primary>  (50) 
energy

>  <rmsd>  (50) 
6.7657698940121165

>  <m_score__min__rmsd>  (50) 
6.7657698940121165

>  <meeko>  (50) 
{"free_energy": -7.28, "intermolecular_energy": -9.07, "internal_energy": -4.01, "cluster_size": 19, "cluster_id": 5, "rank_in_cluster": 18}

>  <energy>  (50) 
-6.52

>  <cluster_rmsd>  (50) 
0.0

>  <cluster>  (50) 
9

$$$$
