
     RDKit          3D

 59 62  0  0  0  0  0  0  0  0999 V2000
  140.6590   71.6980  221.1420 O   0  0  0  0  0  0  0  0  0  0  0  0
  140.2470   72.1780  222.2060 C   0  0  0  0  0  0  0  0  0  0  0  0
  139.9120   73.5680  222.2160 N   0  0  0  0  0  0  0  0  0  0  0  0
  140.0060   74.4430  221.1100 C   0  0  0  0  0  0  0  0  0  0  0  0
  140.7370   75.6920  221.2160 C   0  0  0  0  0  0  0  0  0  0  0  0
  141.0500   76.0200  222.4500 O   0  0  0  0  0  0  0  0  0  0  0  0
  141.1750   76.6220  220.2740 N   0  0  0  0  0  0  0  0  0  0  0  0
  140.5390   76.6720  218.9250 C   0  0  0  0  0  0  0  0  0  0  0  0
  141.7660   76.7950  218.0200 C   0  0  2  0  0  0  0  0  0  0  0  0
  141.9620   75.5760  217.3670 O   0  0  0  0  0  0  0  0  0  0  0  0
  142.9390   77.0910  218.9270 C   0  0  0  0  0  0  0  0  0  0  0  0
  142.1860   77.6350  220.1820 C   0  0  1  0  0  0  0  0  0  0  0  0
  141.6750   78.9820  219.7210 C   0  0  0  0  0  0  0  0  0  0  0  0
  140.4520   79.3300  220.2180 O   0  0  0  0  0  0  0  0  0  0  0  0
  140.5790   80.0130  221.4340 C   0  0  0  0  0  0  0  0  0  0  0  0
  141.9280   80.6610  221.4510 C   0  0  0  0  0  0  0  0  0  0  0  0
  142.8140   80.0020  222.4850 C   0  0  0  0  0  0  0  0  0  0  0  0
  142.1910   80.1310  223.8450 C   0  0  0  0  0  0  0  0  0  0  0  0
  140.8390   79.4540  223.8680 C   0  0  0  0  0  0  0  0  0  0  0  0
  140.4170   78.9690  222.5120 C   0  0  0  0  0  0  0  0  0  0  0  0
  140.1040   71.3600  223.4160 C   0  0  0  0  0  0  0  0  0  0  0  0
  139.5120   70.1220  223.3030 C   0  0  0  0  0  0  0  0  0  0  0  0
  139.3400   69.2890  224.4050 C   0  0  0  0  0  0  0  0  0  0  0  0
  139.8000   69.7780  225.6170 C   0  0  0  0  0  0  0  0  0  0  0  0
  139.6690   69.0160  226.7560 C   0  0  0  0  0  0  0  0  0  0  0  0
  140.1300   69.5070  227.9720 C   0  0  0  0  0  0  0  0  0  0  0  0
  140.0220   68.7910  229.1180 F   0  0  0  0  0  0  0  0  0  0  0  0
  140.7210   70.7670  228.0220 C   0  0  0  0  0  0  0  0  0  0  0  0
  140.8630   71.5450  226.9000 C   0  0  0  0  0  0  0  0  0  0  0  0
  140.3990   71.0390  225.7090 C   0  0  0  0  0  0  0  0  0  0  0  0
  140.5340   71.7920  224.6120 N   0  0  0  0  0  0  0  0  0  0  0  0
  139.5690   73.9240  223.1540 H   0  0  0  0  0  0  0  0  0  0  0  0
  140.4758   73.8716  220.2959 H   0  0  0  0  0  0  0  0  0  0  0  0
  138.9671   74.7768  220.9713 H   0  0  0  0  0  0  0  0  0  0  0  0
  139.9723   75.7534  218.7126 H   0  0  0  0  0  0  0  0  0  0  0  0
  139.8055   77.4825  218.8024 H   0  0  0  0  0  0  0  0  0  0  0  0
  141.6471   77.5855  217.2644 H   0  0  0  0  0  0  0  0  0  0  0  0
  142.1500   74.8990  218.0640 H   0  0  0  0  0  0  0  0  0  0  0  0
  143.5143   76.1826  219.1589 H   0  0  0  0  0  0  0  0  0  0  0  0
  143.6879   77.7770  218.5044 H   0  0  0  0  0  0  0  0  0  0  0  0
  142.7013   77.7860  221.1421 H   0  0  0  0  0  0  0  0  0  0  0  0
  142.4011   79.7480  220.0309 H   0  0  0  0  0  0  0  0  0  0  0  0
  141.5578   78.9122  218.6295 H   0  0  0  0  0  0  0  0  0  0  0  0
  139.8318   80.8059  221.5856 H   0  0  0  0  0  0  0  0  0  0  0  0
  142.3916   80.5601  220.4586 H   0  0  0  0  0  0  0  0  0  0  0  0
  141.8108   81.7247  221.7058 H   0  0  0  0  0  0  0  0  0  0  0  0
  142.9338   78.9369  222.2377 H   0  0  0  0  0  0  0  0  0  0  0  0
  143.7975   80.4947  222.4878 H   0  0  0  0  0  0  0  0  0  0  0  0
  142.8466   79.6581  224.5910 H   0  0  0  0  0  0  0  0  0  0  0  0
  142.0616   81.1978  224.0801 H   0  0  0  0  0  0  0  0  0  0  0  0
  140.8868   78.5935  224.5515 H   0  0  0  0  0  0  0  0  0  0  0  0
  140.0991   80.1956  224.2033 H   0  0  0  0  0  0  0  0  0  0  0  0
  141.0287   78.0940  222.2470 H   0  0  0  0  0  0  0  0  0  0  0  0
  139.3470   78.7205  222.5704 H   0  0  0  0  0  0  0  0  0  0  0  0
  139.1658   69.7822  222.3157 H   0  0  0  0  0  0  0  0  0  0  0  0
  138.8664   68.3000  224.3186 H   0  0  0  0  0  0  0  0  0  0  0  0
  139.2011   68.0218  226.7040 H   0  0  0  0  0  0  0  0  0  0  0  0
  141.0841   71.1494  228.9874 H   0  0  0  0  0  0  0  0  0  0  0  0
  141.3318   72.5387  226.9521 H   0  0  0  0  0  0  0  0  0  0  0  0
  1  2  2  0
  2  3  1  0
  3  4  1  0
  4  5  1  0
  5  6  2  0
  5  7  1  0
  7  8  1  0
  8  9  1  0
  9 10  1  0
  9 11  1  0
 11 12  1  0
 12 13  1  0
 13 14  1  0
 14 15  1  0
 15 16  1  0
 16 17  1  0
 17 18  1  0
 18 19  1  0
 19 20  1  0
  2 21  1  0
 21 22  2  0
 22 23  1  0
 23 24  2  0
 24 25  1  0
 25 26  2  0
 26 27  1  0
 26 28  1  0
 28 29  2  0
 29 30  1  0
 30 31  2  0
 12  7  1  0
 20 15  1  0
 31 21  1  0
 30 24  1  0
  3 32  1  0
  4 33  1  0
  4 34  1  0
  8 35  1  0
  8 36  1  0
  9 37  1  6
 10 38  1  0
 11 39  1  0
 11 40  1  0
 12 41  1  1
 13 42  1  0
 13 43  1  0
 15 44  1  0
 16 45  1  0
 16 46  1  0
 17 47  1  0
 17 48  1  0
 18 49  1  0
 18 50  1  0
 19 51  1  0
 19 52  1  0
 20 53  1  0
 20 54  1  0
 22 55  1  0
 23 56  1  0
 25 57  1  0
 28 58  1  0
 29 59  1  0
M  END
>  <smiles>  (1) 
O=C(NCC(=O)N1C[C@H](O)C[C@H]1COC1CCCCC1)c1ccc2cc(F)ccc2n1

>  <score_type>  (1) 
oracle

>  <origin>  (1) 
autodockgpu

>  <m_score__min__energy>  (1) 
-8.2599999999999998

>  <m_primary>  (1) 
energy

>  <rmsd>  (1) 
1.6490037151796608

>  <m_score__min__rmsd>  (1) 
1.6490037151796608

>  <meeko>  (1) 
{"free_energy": -7.81, "intermolecular_energy": -10.2, "internal_energy": -1.88, "cluster_size": 43, "cluster_id": 1, "rank_in_cluster": 10}

>  <energy>  (1) 
-8.26

>  <cluster_rmsd>  (1) 
0.0

>  <cluster>  (1) 
1

$$$$

     RDKit          3D

 59 62  0  0  0  0  0  0  0  0999 V2000
  141.4060   72.5710  221.9100 O   0  0  0  0  0  0  0  0  0  0  0  0
  140.3950   72.5470  222.6220 C   0  0  0  0  0  0  0  0  0  0  0  0
  139.3570   73.4840  222.3260 N   0  0  0  0  0  0  0  0  0  0  0  0
  139.3860   74.4370  221.2820 C   0  0  0  0  0  0  0  0  0  0  0  0
  140.1540   75.6610  221.4200 C   0  0  0  0  0  0  0  0  0  0  0  0
  140.4170   75.9840  222.6660 O   0  0  0  0  0  0  0  0  0  0  0  0
  140.6680   76.5710  220.4980 N   0  0  0  0  0  0  0  0  0  0  0  0
  139.9100   76.8780  219.2490 C   0  0  0  0  0  0  0  0  0  0  0  0
  141.0250   76.8390  218.2040 C   0  0  2  0  0  0  0  0  0  0  0  0
  140.8860   75.6740  217.4460 O   0  0  0  0  0  0  0  0  0  0  0  0
  142.3290   76.8060  218.9700 C   0  0  0  0  0  0  0  0  0  0  0  0
  141.8530   77.3660  220.3470 C   0  0  1  0  0  0  0  0  0  0  0  0
  141.5880   78.8260  220.0540 C   0  0  0  0  0  0  0  0  0  0  0  0
  140.4090   79.3040  220.5490 O   0  0  0  0  0  0  0  0  0  0  0  0
  140.6080   79.9740  221.7630 C   0  0  0  0  0  0  0  0  0  0  0  0
  141.7580   80.9150  221.5780 C   0  0  0  0  0  0  0  0  0  0  0  0
  142.9470   80.4570  222.3920 C   0  0  0  0  0  0  0  0  0  0  0  0
  142.5790   80.4110  223.8480 C   0  0  0  0  0  0  0  0  0  0  0  0
  141.4420   79.4400  224.0710 C   0  0  0  0  0  0  0  0  0  0  0  0
  140.8900   78.8990  222.7850 C   0  0  0  0  0  0  0  0  0  0  0  0
  140.2550   71.5950  223.7310 C   0  0  0  0  0  0  0  0  0  0  0  0
  139.6350   70.3900  223.4850 C   0  0  0  0  0  0  0  0  0  0  0  0
  139.4650   69.4370  224.4850 C   0  0  0  0  0  0  0  0  0  0  0  0
  139.9560   69.7720  225.7370 C   0  0  0  0  0  0  0  0  0  0  0  0
  139.8280   68.8840  226.7810 C   0  0  0  0  0  0  0  0  0  0  0  0
  140.3210   69.2200  228.0370 C   0  0  0  0  0  0  0  0  0  0  0  0
  140.2170   68.3760  229.0930 F   0  0  0  0  0  0  0  0  0  0  0  0
  140.9390   70.4530  228.2220 C   0  0  0  0  0  0  0  0  0  0  0  0
  141.0780   71.3550  227.1980 C   0  0  0  0  0  0  0  0  0  0  0  0
  140.5830   71.0010  225.9640 C   0  0  0  0  0  0  0  0  0  0  0  0
  140.7150   71.8760  224.9610 N   0  0  0  0  0  0  0  0  0  0  0  0
  138.5180   73.4210  222.9710 H   0  0  0  0  0  0  0  0  0  0  0  0
  139.7766   73.9189  220.3938 H   0  0  0  0  0  0  0  0  0  0  0  0
  138.3480   74.7997  221.2508 H   0  0  0  0  0  0  0  0  0  0  0  0
  139.1420   76.1169  219.0468 H   0  0  0  0  0  0  0  0  0  0  0  0
  139.3556   77.8276  219.2807 H   0  0  0  0  0  0  0  0  0  0  0  0
  140.9904   77.7061  217.5280 H   0  0  0  0  0  0  0  0  0  0  0  0
  141.4590   74.9840  217.8650 H   0  0  0  0  0  0  0  0  0  0  0  0
  142.7230   75.7830  219.0602 H   0  0  0  0  0  0  0  0  0  0  0  0
  143.1530   77.3658  218.5036 H   0  0  0  0  0  0  0  0  0  0  0  0
  142.4934   77.3177  221.2401 H   0  0  0  0  0  0  0  0  0  0  0  0
  142.4070   79.4168  220.4902 H   0  0  0  0  0  0  0  0  0  0  0  0
  141.5236   78.9157  218.9596 H   0  0  0  0  0  0  0  0  0  0  0  0
  139.7455   80.5703  222.0955 H   0  0  0  0  0  0  0  0  0  0  0  0
  142.0359   80.9436  220.5141 H   0  0  0  0  0  0  0  0  0  0  0  0
  141.4578   81.9178  221.9161 H   0  0  0  0  0  0  0  0  0  0  0  0
  143.2520   79.4535  222.0604 H   0  0  0  0  0  0  0  0  0  0  0  0
  143.7786   81.1628  222.2494 H   0  0  0  0  0  0  0  0  0  0  0  0
  143.4525   80.0876  224.4331 H   0  0  0  0  0  0  0  0  0  0  0  0
  142.2612   81.4141  224.1688 H   0  0  0  0  0  0  0  0  0  0  0  0
  141.8092   78.5999  224.6787 H   0  0  0  0  0  0  0  0  0  0  0  0
  140.6326   79.9833  224.5806 H   0  0  0  0  0  0  0  0  0  0  0  0
  141.6198   78.1944  222.3597 H   0  0  0  0  0  0  0  0  0  0  0  0
  139.9331   78.4096  223.0189 H   0  0  0  0  0  0  0  0  0  0  0  0
  139.2645   70.1752  222.4718 H   0  0  0  0  0  0  0  0  0  0  0  0
  138.9697   68.4738  224.2928 H   0  0  0  0  0  0  0  0  0  0  0  0
  139.3376   67.9123  226.6223 H   0  0  0  0  0  0  0  0  0  0  0  0
  141.3272   70.7118  229.2181 H   0  0  0  0  0  0  0  0  0  0  0  0
  141.5678   72.3269  227.3577 H   0  0  0  0  0  0  0  0  0  0  0  0
  1  2  2  0
  2  3  1  0
  3  4  1  0
  4  5  1  0
  5  6  2  0
  5  7  1  0
  7  8  1  0
  8  9  1  0
  9 10  1  0
  9 11  1  0
 11 12  1  0
 12 13  1  0
 13 14  1  0
 14 15  1  0
 15 16  1  0
 16 17  1  0
 17 18  1  0
 18 19  1  0
 19 20  1  0
  2 21  1  0
 21 22  2  0
 22 23  1  0
 23 24  2  0
 24 25  1  0
 25 26  2  0
 26 27  1  0
 26 28  1  0
 28 29  2  0
 29 30  1  0
 30 31  2  0
 12  7  1  0
 20 15  1  0
 31 21  1  0
 30 24  1  0
  3 32  1  0
  4 33  1  0
  4 34  1  0
  8 35  1  0
  8 36  1  0
  9 37  1  6
 10 38  1  0
 11 39  1  0
 11 40  1  0
 12 41  1  1
 13 42  1  0
 13 43  1  0
 15 44  1  0
 16 45  1  0
 16 46  1  0
 17 47  1  0
 17 48  1  0
 18 49  1  0
 18 50  1  0
 19 51  1  0
 19 52  1  0
 20 53  1  0
 20 54  1  0
 22 55  1  0
 23 56  1  0
 25 57  1  0
 28 58  1  0
 29 59  1  0
M  END
>  <smiles>  (2) 
O=C(NCC(=O)N1C[C@H](O)C[C@H]1COC1CCCCC1)c1ccc2cc(F)ccc2n1

>  <score_type>  (2) 
oracle

>  <origin>  (2) 
autodockgpu

>  <m_score__min__energy>  (2) 
-8.2599999999999998

>  <m_primary>  (2) 
energy

>  <rmsd>  (2) 
1.5709627948789373

>  <m_score__min__rmsd>  (2) 
1.5709627948789373

>  <meeko>  (2) 
{"free_energy": -8.02, "intermolecular_energy": -10.41, "internal_energy": -1.5, "cluster_size": 43, "cluster_id": 1, "rank_in_cluster": 5}

>  <energy>  (2) 
-8.26

>  <cluster_rmsd>  (2) 
1.58

>  <cluster>  (2) 
1

$$$$

     RDKit          3D

 59 62  0  0  0  0  0  0  0  0999 V2000
  140.7320   73.2710  222.3900 O   0  0  0  0  0  0  0  0  0  0  0  0
  139.8080   72.4960  222.6660 C   0  0  0  0  0  0  0  0  0  0  0  0
  138.6260   72.5670  221.8650 N   0  0  0  0  0  0  0  0  0  0  0  0
  138.4240   73.4460  220.7760 C   0  0  0  0  0  0  0  0  0  0  0  0
  138.1650   74.8560  221.0040 C   0  0  0  0  0  0  0  0  0  0  0  0
  136.8890   75.1700  220.9840 O   0  0  0  0  0  0  0  0  0  0  0  0
  138.9960   75.9510  221.2370 N   0  0  0  0  0  0  0  0  0  0  0  0
  139.8610   76.4770  220.1400 C   0  0  0  0  0  0  0  0  0  0  0  0
  141.1830   76.6900  220.8780 C   0  0  2  0  0  0  0  0  0  0  0  0
  142.0820   75.6980  220.4770 O   0  0  0  0  0  0  0  0  0  0  0  0
  140.8790   76.5480  222.3530 C   0  0  0  0  0  0  0  0  0  0  0  0
  139.3380   76.8010  222.3410 C   0  0  1  0  0  0  0  0  0  0  0  0
  139.2330   78.2800  222.0410 C   0  0  0  0  0  0  0  0  0  0  0  0
  139.0970   79.0770  223.1410 O   0  0  0  0  0  0  0  0  0  0  0  0
  140.1210   80.0310  223.2000 C   0  0  0  0  0  0  0  0  0  0  0  0
  140.4630   80.4170  221.7940 C   0  0  0  0  0  0  0  0  0  0  0  0
  141.8450   79.9190  221.4340 C   0  0  0  0  0  0  0  0  0  0  0  0
  142.8590   80.5170  222.3680 C   0  0  0  0  0  0  0  0  0  0  0  0
  142.5600   80.1150  223.7940 C   0  0  0  0  0  0  0  0  0  0  0  0
  141.2670   79.3620  223.9190 C   0  0  0  0  0  0  0  0  0  0  0  0
  139.9110   71.5360  223.7720 C   0  0  0  0  0  0  0  0  0  0  0  0
  139.4790   70.2460  223.5610 C   0  0  0  0  0  0  0  0  0  0  0  0
  139.5440   69.2790  224.5600 C   0  0  0  0  0  0  0  0  0  0  0  0
  140.0680   69.6920  225.7750 C   0  0  0  0  0  0  0  0  0  0  0  0
  140.1670   68.7970  226.8160 C   0  0  0  0  0  0  0  0  0  0  0  0
  140.6940   69.2110  228.0340 C   0  0  0  0  0  0  0  0  0  0  0  0
  140.8100   68.3640  229.0860 F   0  0  0  0  0  0  0  0  0  0  0  0
  141.1140   70.5300  228.1860 C   0  0  0  0  0  0  0  0  0  0  0  0
  141.0250   71.4410  227.1630 C   0  0  0  0  0  0  0  0  0  0  0  0
  140.5010   71.0080  225.9670 C   0  0  0  0  0  0  0  0  0  0  0  0
  140.4110   71.8900  224.9660 N   0  0  0  0  0  0  0  0  0  0  0  0
  137.8670   71.8830  222.1500 H   0  0  0  0  0  0  0  0  0  0  0  0
  139.3288   73.3888  220.1531 H   0  0  0  0  0  0  0  0  0  0  0  0
  137.4785   73.0884  220.3423 H   0  0  0  0  0  0  0  0  0  0  0  0
  139.9677   75.7456  219.3253 H   0  0  0  0  0  0  0  0  0  0  0  0
  139.4680   77.3798  219.6495 H   0  0  0  0  0  0  0  0  0  0  0  0
  141.6240   77.6746  220.6635 H   0  0  0  0  0  0  0  0  0  0  0  0
  142.6480   75.4850  221.2610 H   0  0  0  0  0  0  0  0  0  0  0  0
  141.1242   75.5422  222.7249 H   0  0  0  0  0  0  0  0  0  0  0  0
  141.4524   77.2187  223.0097 H   0  0  0  0  0  0  0  0  0  0  0  0
  138.7140   76.5959  223.2234 H   0  0  0  0  0  0  0  0  0  0  0  0
  140.1440   78.5866  221.5062 H   0  0  0  0  0  0  0  0  0  0  0  0
  138.3170   78.4121  221.4465 H   0  0  0  0  0  0  0  0  0  0  0  0
  139.8483   80.9519  223.7362 H   0  0  0  0  0  0  0  0  0  0  0  0
  139.7272   79.9737  221.1069 H   0  0  0  0  0  0  0  0  0  0  0  0
  140.4447   81.5136  221.7096 H   0  0  0  0  0  0  0  0  0  0  0  0
  141.8720   78.8226  221.5187 H   0  0  0  0  0  0  0  0  0  0  0  0
  142.0814   80.2161  220.4016 H   0  0  0  0  0  0  0  0  0  0  0  0
  143.8618   80.1585  222.0926 H   0  0  0  0  0  0  0  0  0  0  0  0
  142.8157   81.6133  222.2887 H   0  0  0  0  0  0  0  0  0  0  0  0
  143.3774   79.4759  224.1593 H   0  0  0  0  0  0  0  0  0  0  0  0
  142.4701   81.0356  224.3894 H   0  0  0  0  0  0  0  0  0  0  0  0
  141.4056   78.3557  223.4969 H   0  0  0  0  0  0  0  0  0  0  0  0
  141.0089   79.3281  224.9878 H   0  0  0  0  0  0  0  0  0  0  0  0
  139.0716   69.9722  222.5766 H   0  0  0  0  0  0  0  0  0  0  0  0
  139.1997   68.2474  224.3950 H   0  0  0  0  0  0  0  0  0  0  0  0
  139.8304   67.7580  226.6847 H   0  0  0  0  0  0  0  0  0  0  0  0
  141.5287   70.8509  229.1530 H   0  0  0  0  0  0  0  0  0  0  0  0
  141.3607   72.4802  227.2949 H   0  0  0  0  0  0  0  0  0  0  0  0
  1  2  2  0
  2  3  1  0
  3  4  1  0
  4  5  1  0
  5  6  2  0
  5  7  1  0
  7  8  1  0
  8  9  1  0
  9 10  1  0
  9 11  1  0
 11 12  1  0
 12 13  1  0
 13 14  1  0
 14 15  1  0
 15 16  1  0
 16 17  1  0
 17 18  1  0
 18 19  1  0
 19 20  1  0
  2 21  1  0
 21 22  2  0
 22 23  1  0
 23 24  2  0
 24 25  1  0
 25 26  2  0
 26 27  1  0
 26 28  1  0
 28 29  2  0
 29 30  1  0
 30 31  2  0
 12  7  1  0
 20 15  1  0
 31 21  1  0
 30 24  1  0
  3 32  1  0
  4 33  1  0
  4 34  1  0
  8 35  1  0
  8 36  1  0
  9 37  1  1
 10 38  1  0
 11 39  1  0
 11 40  1  0
 12 41  1  1
 13 42  1  0
 13 43  1  0
 15 44  1  0
 16 45  1  0
 16 46  1  0
 17 47  1  0
 17 48  1  0
 18 49  1  0
 18 50  1  0
 19 51  1  0
 19 52  1  0
 20 53  1  0
 20 54  1  0
 22 55  1  0
 23 56  1  0
 25 57  1  0
 28 58  1  0
 29 59  1  0
M  END
>  <smiles>  (3) 
O=C(NCC(=O)N1C[C@H](O)C[C@H]1COC1CCCCC1)c1ccc2cc(F)ccc2n1

>  <score_type>  (3) 
oracle

>  <origin>  (3) 
autodockgpu

>  <m_score__min__energy>  (3) 
-8.2599999999999998

>  <m_primary>  (3) 
energy

>  <rmsd>  (3) 
2.301098491641221

>  <m_score__min__rmsd>  (3) 
2.301098491641221

>  <meeko>  (3) 
{"free_energy": -8.26, "intermolecular_energy": -10.65, "internal_energy": -1.74, "cluster_size": 43, "cluster_id": 1, "rank_in_cluster": 1}

>  <energy>  (3) 
-8.23

>  <cluster_rmsd>  (3) 
0.96

>  <cluster>  (3) 
1

$$$$

     RDKit          3D

 59 62  0  0  0  0  0  0  0  0999 V2000
  138.8440   72.4870  221.3910 O   0  0  0  0  0  0  0  0  0  0  0  0
  139.7650   72.4560  222.2160 C   0  0  0  0  0  0  0  0  0  0  0  0
  140.8900   73.3060  221.9810 N   0  0  0  0  0  0  0  0  0  0  0  0
  141.0390   74.1850  220.8840 C   0  0  0  0  0  0  0  0  0  0  0  0
  140.6000   75.5650  220.9770 C   0  0  0  0  0  0  0  0  0  0  0  0
  141.4950   76.4350  220.5650 O   0  0  0  0  0  0  0  0  0  0  0  0
  139.4200   76.1610  221.4210 N   0  0  0  0  0  0  0  0  0  0  0  0
  138.8180   75.7450  222.7220 C   0  0  0  0  0  0  0  0  0  0  0  0
  137.3410   75.6250  222.3430 C   0  0  2  0  0  0  0  0  0  0  0  0
  137.0040   74.2700  222.2890 O   0  0  0  0  0  0  0  0  0  0  0  0
  137.1980   76.2500  220.9740 C   0  0  0  0  0  0  0  0  0  0  0  0
  138.4840   77.1350  220.9400 C   0  0  1  0  0  0  0  0  0  0  0  0
  138.1720   78.2370  221.9280 C   0  0  0  0  0  0  0  0  0  0  0  0
  139.1120   78.4160  222.9010 O   0  0  0  0  0  0  0  0  0  0  0  0
  140.2860   78.9670  222.3700 C   0  0  0  0  0  0  0  0  0  0  0  0
  141.4440   78.3220  223.0660 C   0  0  0  0  0  0  0  0  0  0  0  0
  142.1540   79.3280  223.9460 C   0  0  0  0  0  0  0  0  0  0  0  0
  142.6570   80.4700  223.1090 C   0  0  0  0  0  0  0  0  0  0  0  0
  141.5030   81.1630  222.4210 C   0  0  0  0  0  0  0  0  0  0  0  0
  140.1980   80.4510  222.6300 C   0  0  0  0  0  0  0  0  0  0  0  0
  139.7130   71.5850  223.3970 C   0  0  0  0  0  0  0  0  0  0  0  0
  138.9060   70.4700  223.3520 C   0  0  0  0  0  0  0  0  0  0  0  0
  138.8040   69.5970  224.4310 C   0  0  0  0  0  0  0  0  0  0  0  0
  139.5610   69.9140  225.5470 C   0  0  0  0  0  0  0  0  0  0  0  0
  139.5170   69.1020  226.6570 C   0  0  0  0  0  0  0  0  0  0  0  0
  140.2770   69.4210  227.7770 C   0  0  0  0  0  0  0  0  0  0  0  0
  140.2640   68.6490  228.8910 F   0  0  0  0  0  0  0  0  0  0  0  0
  141.0740   70.5620  227.7610 C   0  0  0  0  0  0  0  0  0  0  0  0
  141.1350   71.3880  226.6660 C   0  0  0  0  0  0  0  0  0  0  0  0
  140.3750   71.0520  225.5700 C   0  0  0  0  0  0  0  0  0  0  0  0
  140.4290   71.8530  224.5000 N   0  0  0  0  0  0  0  0  0  0  0  0
  141.6490   73.2350  222.7180 H   0  0  0  0  0  0  0  0  0  0  0  0
  142.1127   74.2119  220.6462 H   0  0  0  0  0  0  0  0  0  0  0  0
  140.3560   73.7598  220.1339 H   0  0  0  0  0  0  0  0  0  0  0  0
  139.2254   74.7825  223.0649 H   0  0  0  0  0  0  0  0  0  0  0  0
  139.0154   76.4388  223.5524 H   0  0  0  0  0  0  0  0  0  0  0  0
  136.6834   76.1239  223.0701 H   0  0  0  0  0  0  0  0  0  0  0  0
  137.7380   73.7700  222.7270 H   0  0  0  0  0  0  0  0  0  0  0  0
  137.2038   75.4917  220.1771 H   0  0  0  0  0  0  0  0  0  0  0  0
  136.2571   76.7961  220.8116 H   0  0  0  0  0  0  0  0  0  0  0  0
  138.8308   77.6109  220.0109 H   0  0  0  0  0  0  0  0  0  0  0  0
  138.0737   79.1796  221.3695 H   0  0  0  0  0  0  0  0  0  0  0  0
  137.2465   77.9389  222.4424 H   0  0  0  0  0  0  0  0  0  0  0  0
  140.4162   78.7978  221.2909 H   0  0  0  0  0  0  0  0  0  0  0  0
  141.0773   77.4915  223.6871 H   0  0  0  0  0  0  0  0  0  0  0  0
  142.1502   77.9449  222.3116 H   0  0  0  0  0  0  0  0  0  0  0  0
  141.4530   79.7106  224.7025 H   0  0  0  0  0  0  0  0  0  0  0  0
  143.0049   78.8394  224.4431 H   0  0  0  0  0  0  0  0  0  0  0  0
  143.1803   81.1905  223.7548 H   0  0  0  0  0  0  0  0  0  0  0  0
  143.3461   80.0787  222.3461 H   0  0  0  0  0  0  0  0  0  0  0  0
  141.4158   82.1841  222.8207 H   0  0  0  0  0  0  0  0  0  0  0  0
  141.7119   81.1680  221.3410 H   0  0  0  0  0  0  0  0  0  0  0  0
  139.8773   80.6058  223.6708 H   0  0  0  0  0  0  0  0  0  0  0  0
  139.4775   80.8682  221.9111 H   0  0  0  0  0  0  0  0  0  0  0  0
  138.3271   70.2641  222.4396 H   0  0  0  0  0  0  0  0  0  0  0  0
  138.1592   68.7063  224.3995 H   0  0  0  0  0  0  0  0  0  0  0  0
  138.8826   68.2033  226.6584 H   0  0  0  0  0  0  0  0  0  0  0  0
  141.6719   70.8089  228.6507 H   0  0  0  0  0  0  0  0  0  0  0  0
  141.7693   72.2867  226.6653 H   0  0  0  0  0  0  0  0  0  0  0  0
  1  2  2  0
  2  3  1  0
  3  4  1  0
  4  5  1  0
  5  6  2  0
  5  7  1  0
  7  8  1  0
  8  9  1  0
  9 10  1  0
  9 11  1  0
 11 12  1  0
 12 13  1  0
 13 14  1  0
 14 15  1  0
 15 16  1  0
 16 17  1  0
 17 18  1  0
 18 19  1  0
 19 20  1  0
  2 21  1  0
 21 22  2  0
 22 23  1  0
 23 24  2  0
 24 25  1  0
 25 26  2  0
 26 27  1  0
 26 28  1  0
 28 29  2  0
 29 30  1  0
 30 31  2  0
 12  7  1  0
 20 15  1  0
 31 21  1  0
 30 24  1  0
  3 32  1  0
  4 33  1  0
  4 34  1  0
  8 35  1  0
  8 36  1  0
  9 37  1  1
 10 38  1  0
 11 39  1  0
 11 40  1  0
 12 41  1  6
 13 42  1  0
 13 43  1  0
 15 44  1  0
 16 45  1  0
 16 46  1  0
 17 47  1  0
 17 48  1  0
 18 49  1  0
 18 50  1  0
 19 51  1  0
 19 52  1  0
 20 53  1  0
 20 54  1  0
 22 55  1  0
 23 56  1  0
 25 57  1  0
 28 58  1  0
 29 59  1  0
M  END
>  <smiles>  (4) 
O=C(NCC(=O)N1C[C@H](O)C[C@H]1COC1CCCCC1)c1ccc2cc(F)ccc2n1

>  <score_type>  (4) 
oracle

>  <origin>  (4) 
autodockgpu

>  <m_score__min__energy>  (4) 
-8.2599999999999998

>  <m_primary>  (4) 
energy

>  <rmsd>  (4) 
2.9641424005616357

>  <m_score__min__rmsd>  (4) 
2.9641424005616357

>  <meeko>  (4) 
{"free_energy": -7.31, "intermolecular_energy": -9.69, "internal_energy": -2.69, "cluster_size": 43, "cluster_id": 1, "rank_in_cluster": 27}

>  <energy>  (4) 
-8.07

>  <cluster_rmsd>  (4) 
1.68

>  <cluster>  (4) 
1

$$$$

     RDKit          3D

 59 62  0  0  0  0  0  0  0  0999 V2000
  139.2420   70.6920  221.5570 O   0  0  0  0  0  0  0  0  0  0  0  0
  139.5150   71.1920  222.6550 C   0  0  0  0  0  0  0  0  0  0  0  0
  139.6970   72.6090  222.7080 N   0  0  0  0  0  0  0  0  0  0  0  0
  139.5880   73.4920  221.6100 C   0  0  0  0  0  0  0  0  0  0  0  0
  139.7290   74.9240  221.7960 C   0  0  0  0  0  0  0  0  0  0  0  0
  140.9690   75.3120  221.9980 O   0  0  0  0  0  0  0  0  0  0  0  0
  138.8170   75.9780  221.8080 N   0  0  0  0  0  0  0  0  0  0  0  0
  138.2150   76.4270  223.0980 C   0  0  0  0  0  0  0  0  0  0  0  0
  136.7460   76.5860  222.7030 C   0  0  2  0  0  0  0  0  0  0  0  0
  136.0170   75.5370  223.2690 O   0  0  0  0  0  0  0  0  0  0  0  0
  136.6960   76.4980  221.1950 C   0  0  0  0  0  0  0  0  0  0  0  0
  138.1810   76.8340  220.8500 C   0  0  1  0  0  0  0  0  0  0  0  0
  138.2840   78.3090  221.1710 C   0  0  0  0  0  0  0  0  0  0  0  0
  139.5340   78.8400  221.0230 O   0  0  0  0  0  0  0  0  0  0  0  0
  140.0080   79.3550  222.2360 C   0  0  0  0  0  0  0  0  0  0  0  0
  140.6610   80.6710  221.9470 C   0  0  0  0  0  0  0  0  0  0  0  0
  142.1550   80.5740  222.1620 C   0  0  0  0  0  0  0  0  0  0  0  0
  142.4390   80.1880  223.5850 C   0  0  0  0  0  0  0  0  0  0  0  0
  141.8210   78.8440  223.8970 C   0  0  0  0  0  0  0  0  0  0  0  0
  140.9750   78.3270  222.7710 C   0  0  0  0  0  0  0  0  0  0  0  0
  139.6480   70.3700  223.8640 C   0  0  0  0  0  0  0  0  0  0  0  0
  139.1580   69.0830  223.8380 C   0  0  0  0  0  0  0  0  0  0  0  0
  139.2460   68.2430  224.9440 C   0  0  0  0  0  0  0  0  0  0  0  0
  139.8550   68.7770  226.0680 C   0  0  0  0  0  0  0  0  0  0  0  0
  139.9820   68.0110  227.2050 C   0  0  0  0  0  0  0  0  0  0  0  0
  140.5940   68.5480  228.3330 C   0  0  0  0  0  0  0  0  0  0  0  0
  140.7410   67.8300  229.4740 F   0  0  0  0  0  0  0  0  0  0  0  0
  141.0700   69.8550  228.2970 C   0  0  0  0  0  0  0  0  0  0  0  0
  140.9540   70.6380  227.1760 C   0  0  0  0  0  0  0  0  0  0  0  0
  140.3460   70.0870  226.0730 C   0  0  0  0  0  0  0  0  0  0  0  0
  140.2300   70.8440  224.9760 N   0  0  0  0  0  0  0  0  0  0  0  0
  139.9330   72.9800  223.6730 H   0  0  0  0  0  0  0  0  0  0  0  0
  140.3603   73.1913  220.8867 H   0  0  0  0  0  0  0  0  0  0  0  0
  138.5344   73.3853  221.3123 H   0  0  0  0  0  0  0  0  0  0  0  0
  138.3405   75.6700  223.8862 H   0  0  0  0  0  0  0  0  0  0  0  0
  138.6706   77.3371  223.5155 H   0  0  0  0  0  0  0  0  0  0  0  0
  136.3225   77.5393  223.0522 H   0  0  0  0  0  0  0  0  0  0  0  0
  136.6720   74.8970  223.6440 H   0  0  0  0  0  0  0  0  0  0  0  0
  136.4166   75.4900  220.8547 H   0  0  0  0  0  0  0  0  0  0  0  0
  135.9518   77.1532  220.7187 H   0  0  0  0  0  0  0  0  0  0  0  0
  138.5849   76.6847  219.8378 H   0  0  0  0  0  0  0  0  0  0  0  0
  137.5994   78.8533  220.5039 H   0  0  0  0  0  0  0  0  0  0  0  0
  138.0262   78.4138  222.2352 H   0  0  0  0  0  0  0  0  0  0  0  0
  139.2231   79.5356  222.9852 H   0  0  0  0  0  0  0  0  0  0  0  0
  140.4622   80.9531  220.9026 H   0  0  0  0  0  0  0  0  0  0  0  0
  140.2502   81.4314  222.6274 H   0  0  0  0  0  0  0  0  0  0  0  0
  142.5727   79.8128  221.4866 H   0  0  0  0  0  0  0  0  0  0  0  0
  142.6169   81.5497  221.9508 H   0  0  0  0  0  0  0  0  0  0  0  0
  143.5272   80.1308  223.7353 H   0  0  0  0  0  0  0  0  0  0  0  0
  142.0056   80.9454  224.2547 H   0  0  0  0  0  0  0  0  0  0  0  0
  142.6271   78.1218  224.0933 H   0  0  0  0  0  0  0  0  0  0  0  0
  141.1698   78.9704  224.7744 H   0  0  0  0  0  0  0  0  0  0  0  0
  141.6377   78.0104  221.9521 H   0  0  0  0  0  0  0  0  0  0  0  0
  140.3793   77.4908  223.1658 H   0  0  0  0  0  0  0  0  0  0  0  0
  138.6844   68.7091  222.9183 H   0  0  0  0  0  0  0  0  0  0  0  0
  138.8549   67.2150  224.9268 H   0  0  0  0  0  0  0  0  0  0  0  0
  139.6013   66.9791  227.2214 H   0  0  0  0  0  0  0  0  0  0  0  0
  141.5531   70.2725  229.1927 H   0  0  0  0  0  0  0  0  0  0  0  0
  141.3341   71.6701  227.1605 H   0  0  0  0  0  0  0  0  0  0  0  0
  1  2  2  0
  2  3  1  0
  3  4  1  0
  4  5  1  0
  5  6  2  0
  5  7  1  0
  7  8  1  0
  8  9  1  0
  9 10  1  0
  9 11  1  0
 11 12  1  0
 12 13  1  0
 13 14  1  0
 14 15  1  0
 15 16  1  0
 16 17  1  0
 17 18  1  0
 18 19  1  0
 19 20  1  0
  2 21  1  0
 21 22  2  0
 22 23  1  0
 23 24  2  0
 24 25  1  0
 25 26  2  0
 26 27  1  0
 26 28  1  0
 28 29  2  0
 29 30  1  0
 30 31  2  0
 12  7  1  0
 20 15  1  0
 31 21  1  0
 30 24  1  0
  3 32  1  0
  4 33  1  0
  4 34  1  0
  8 35  1  0
  8 36  1  0
  9 37  1  6
 10 38  1  0
 11 39  1  0
 11 40  1  0
 12 41  1  6
 13 42  1  0
 13 43  1  0
 15 44  1  0
 16 45  1  0
 16 46  1  0
 17 47  1  0
 17 48  1  0
 18 49  1  0
 18 50  1  0
 19 51  1  0
 19 52  1  0
 20 53  1  0
 20 54  1  0
 22 55  1  0
 23 56  1  0
 25 57  1  0
 28 58  1  0
 29 59  1  0
M  END
>  <smiles>  (5) 
O=C(NCC(=O)N1C[C@H](O)C[C@H]1COC1CCCCC1)c1ccc2cc(F)ccc2n1

>  <score_type>  (5) 
oracle

>  <origin>  (5) 
autodockgpu

>  <m_score__min__energy>  (5) 
-8.2599999999999998

>  <m_primary>  (5) 
energy

>  <rmsd>  (5) 
2.962634896400673

>  <m_score__min__rmsd>  (5) 
2.962634896400673

>  <meeko>  (5) 
{"free_energy": -7.9, "intermolecular_energy": -10.29, "internal_energy": -1.79, "cluster_size": 43, "cluster_id": 1, "rank_in_cluster": 9}

>  <energy>  (5) 
-8.02

>  <cluster_rmsd>  (5) 
1.49

>  <cluster>  (5) 
1

$$$$

     RDKit          3D

 59 62  0  0  0  0  0  0  0  0999 V2000
  139.5020   70.7160  221.5310 O   0  0  0  0  0  0  0  0  0  0  0  0
  139.4860   71.4800  222.5050 C   0  0  0  0  0  0  0  0  0  0  0  0
  139.0510   72.8230  222.2840 N   0  0  0  0  0  0  0  0  0  0  0  0
  138.6300   73.3550  221.0430 C   0  0  0  0  0  0  0  0  0  0  0  0
  138.4300   74.7830  220.8810 C   0  0  0  0  0  0  0  0  0  0  0  0
  137.3000   75.0960  220.2860 O   0  0  0  0  0  0  0  0  0  0  0  0
  139.1940   75.8970  221.2250 N   0  0  0  0  0  0  0  0  0  0  0  0
  139.9790   76.6150  220.1770 C   0  0  0  0  0  0  0  0  0  0  0  0
  141.3120   76.8280  220.8950 C   0  0  2  0  0  0  0  0  0  0  0  0
  142.2580   75.9590  220.3440 O   0  0  0  0  0  0  0  0  0  0  0  0
  141.0760   76.4820  222.3480 C   0  0  0  0  0  0  0  0  0  0  0  0
  139.5230   76.6250  222.4160 C   0  0  1  0  0  0  0  0  0  0  0  0
  139.3080   78.1190  222.3100 C   0  0  0  0  0  0  0  0  0  0  0  0
  139.2260   78.7710  223.5070 O   0  0  0  0  0  0  0  0  0  0  0  0
  140.1320   79.8370  223.5620 C   0  0  0  0  0  0  0  0  0  0  0  0
  140.1860   80.4580  222.2000 C   0  0  0  0  0  0  0  0  0  0  0  0
  141.5340   80.2070  221.5620 C   0  0  0  0  0  0  0  0  0  0  0  0
  142.6180   80.8010  222.4160 C   0  0  0  0  0  0  0  0  0  0  0  0
  142.6110   80.1670  223.7890 C   0  0  0  0  0  0  0  0  0  0  0  0
  141.4500   79.2360  223.9840 C   0  0  0  0  0  0  0  0  0  0  0  0
  139.8980   71.0320  223.8410 C   0  0  0  0  0  0  0  0  0  0  0  0
  140.6520   71.8870  224.6140 C   0  0  0  0  0  0  0  0  0  0  0  0
  141.0800   71.5350  225.8910 C   0  0  0  0  0  0  0  0  0  0  0  0
  140.7020   70.2780  226.3360 C   0  0  0  0  0  0  0  0  0  0  0  0
  141.0850   69.8520  227.5880 C   0  0  0  0  0  0  0  0  0  0  0  0
  140.7050   68.5910  228.0330 C   0  0  0  0  0  0  0  0  0  0  0  0
  141.0590   68.1310  229.2590 F   0  0  0  0  0  0  0  0  0  0  0  0
  139.9410   67.7730  227.2050 C   0  0  0  0  0  0  0  0  0  0  0  0
  139.5480   68.1750  225.9530 C   0  0  0  0  0  0  0  0  0  0  0  0
  139.9350   69.4260  225.5340 C   0  0  0  0  0  0  0  0  0  0  0  0
  139.5560   69.8240  224.3140 N   0  0  0  0  0  0  0  0  0  0  0  0
  139.0630   73.4320  223.1520 H   0  0  0  0  0  0  0  0  0  0  0  0
  139.3849   73.0568  220.3005 H   0  0  0  0  0  0  0  0  0  0  0  0
  137.6131   72.9501  220.9338 H   0  0  0  0  0  0  0  0  0  0  0  0
  140.1020   75.9996  219.2736 H   0  0  0  0  0  0  0  0  0  0  0  0
  139.5080   77.5416  219.8169 H   0  0  0  0  0  0  0  0  0  0  0  0
  141.6781   77.8603  220.7938 H   0  0  0  0  0  0  0  0  0  0  0  0
  142.9860   75.8620  221.0090 H   0  0  0  0  0  0  0  0  0  0  0  0
  141.4016   75.4575  222.5811 H   0  0  0  0  0  0  0  0  0  0  0  0
  141.6291   77.1045  223.0668 H   0  0  0  0  0  0  0  0  0  0  0  0
  138.9497   76.2680  223.2843 H   0  0  0  0  0  0  0  0  0  0  0  0
  140.1487   78.5466  221.7440 H   0  0  0  0  0  0  0  0  0  0  0  0
  138.3362   78.2581  221.8138 H   0  0  0  0  0  0  0  0  0  0  0  0
  139.8531   80.6288  224.2728 H   0  0  0  0  0  0  0  0  0  0  0  0
  139.3987   80.0190  221.5695 H   0  0  0  0  0  0  0  0  0  0  0  0
  140.0314   81.5429  222.2949 H   0  0  0  0  0  0  0  0  0  0  0  0
  141.6968   79.1234  221.4661 H   0  0  0  0  0  0  0  0  0  0  0  0
  141.5580   80.6742  220.5664 H   0  0  0  0  0  0  0  0  0  0  0  0
  143.5935   80.6239  221.9395 H   0  0  0  0  0  0  0  0  0  0  0  0
  142.4401   81.8815  222.5199 H   0  0  0  0  0  0  0  0  0  0  0  0
  143.5443   79.6000  223.9209 H   0  0  0  0  0  0  0  0  0  0  0  0
  142.5213   80.9745  224.5306 H   0  0  0  0  0  0  0  0  0  0  0  0
  141.6265   78.3271  223.3900 H   0  0  0  0  0  0  0  0  0  0  0  0
  141.3815   79.0180  225.0600 H   0  0  0  0  0  0  0  0  0  0  0  0
  140.9232   72.8742  224.2116 H   0  0  0  0  0  0  0  0  0  0  0  0
  141.6831   72.2149  226.5108 H   0  0  0  0  0  0  0  0  0  0  0  0
  141.6891   70.5066  228.2334 H   0  0  0  0  0  0  0  0  0  0  0  0
  139.6441   66.7767  227.5643 H   0  0  0  0  0  0  0  0  0  0  0  0
  138.9448   67.5196  225.3076 H   0  0  0  0  0  0  0  0  0  0  0  0
  1  2  2  0
  2  3  1  0
  3  4  1  0
  4  5  1  0
  5  6  2  0
  5  7  1  0
  7  8  1  0
  8  9  1  0
  9 10  1  0
  9 11  1  0
 11 12  1  0
 12 13  1  0
 13 14  1  0
 14 15  1  0
 15 16  1  0
 16 17  1  0
 17 18  1  0
 18 19  1  0
 19 20  1  0
  2 21  1  0
 21 22  2  0
 22 23  1  0
 23 24  2  0
 24 25  1  0
 25 26  2  0
 26 27  1  0
 26 28  1  0
 28 29  2  0
 29 30  1  0
 30 31  2  0
 12  7  1  0
 20 15  1  0
 31 21  1  0
 30 24  1  0
  3 32  1  0
  4 33  1  0
  4 34  1  0
  8 35  1  0
  8 36  1  0
  9 37  1  1
 10 38  1  0
 11 39  1  0
 11 40  1  0
 12 41  1  1
 13 42  1  0
 13 43  1  0
 15 44  1  0
 16 45  1  0
 16 46  1  0
 17 47  1  0
 17 48  1  0
 18 49  1  0
 18 50  1  0
 19 51  1  0
 19 52  1  0
 20 53  1  0
 20 54  1  0
 22 55  1  0
 23 56  1  0
 25 57  1  0
 28 58  1  0
 29 59  1  0
M  END
>  <smiles>  (6) 
O=C(NCC(=O)N1C[C@H](O)C[C@H]1COC1CCCCC1)c1ccc2cc(F)ccc2n1

>  <score_type>  (6) 
oracle

>  <origin>  (6) 
autodockgpu

>  <m_score__min__energy>  (6) 
-8.2599999999999998

>  <m_primary>  (6) 
energy

>  <rmsd>  (6) 
3.103927671559053

>  <m_score__min__rmsd>  (6) 
3.103927671559053

>  <meeko>  (6) 
{"free_energy": -8.23, "intermolecular_energy": -10.61, "internal_energy": -1.46, "cluster_size": 43, "cluster_id": 1, "rank_in_cluster": 3}

>  <energy>  (6) 
-7.99

>  <cluster_rmsd>  (6) 
1.52

>  <cluster>  (6) 
1

$$$$

     RDKit          3D

 59 62  0  0  0  0  0  0  0  0999 V2000
  138.3420   72.2830  221.0370 O   0  0  0  0  0  0  0  0  0  0  0  0
  137.9110   72.3840  222.1930 C   0  0  0  0  0  0  0  0  0  0  0  0
  136.9180   73.3810  222.4420 N   0  0  0  0  0  0  0  0  0  0  0  0
  136.3790   74.2620  221.4750 C   0  0  0  0  0  0  0  0  0  0  0  0
  137.2510   75.0860  220.6590 C   0  0  0  0  0  0  0  0  0  0  0  0
  136.7250   75.4330  219.5060 O   0  0  0  0  0  0  0  0  0  0  0  0
  138.5400   75.5840  220.8460 N   0  0  0  0  0  0  0  0  0  0  0  0
  139.7200   74.7840  220.4030 C   0  0  0  0  0  0  0  0  0  0  0  0
  140.6530   74.9370  221.6050 C   0  0  2  0  0  0  0  0  0  0  0  0
  140.6840   73.7260  222.3020 O   0  0  0  0  0  0  0  0  0  0  0  0
  140.0570   76.0200  222.4750 C   0  0  0  0  0  0  0  0  0  0  0  0
  139.1490   76.7430  221.4310 C   0  0  1  0  0  0  0  0  0  0  0  0
  140.1450   77.4420  220.5310 C   0  0  0  0  0  0  0  0  0  0  0  0
  140.3410   78.7630  220.8120 O   0  0  0  0  0  0  0  0  0  0  0  0
  141.1690   78.9220  221.9310 C   0  0  0  0  0  0  0  0  0  0  0  0
  140.3100   79.3760  223.0700 C   0  0  0  0  0  0  0  0  0  0  0  0
  140.6430   80.8040  223.4420 C   0  0  0  0  0  0  0  0  0  0  0  0
  142.0870   80.9000  223.8470 C   0  0  0  0  0  0  0  0  0  0  0  0
  142.9810   80.4800  222.7020 C   0  0  0  0  0  0  0  0  0  0  0  0
  142.2050   79.9460  221.5350 C   0  0  0  0  0  0  0  0  0  0  0  0
  138.3960   71.5180  223.2740 C   0  0  0  0  0  0  0  0  0  0  0  0
  137.7200   70.3440  223.5240 C   0  0  0  0  0  0  0  0  0  0  0  0
  138.1190   69.4710  224.5320 C   0  0  0  0  0  0  0  0  0  0  0  0
  139.2310   69.8520  225.2660 C   0  0  0  0  0  0  0  0  0  0  0  0
  139.6900   69.0440  226.2810 C   0  0  0  0  0  0  0  0  0  0  0  0
  140.8060   69.4270  227.0160 C   0  0  0  0  0  0  0  0  0  0  0  0
  141.2930   68.6620  228.0250 F   0  0  0  0  0  0  0  0  0  0  0  0
  141.4460   70.6260  226.7150 C   0  0  0  0  0  0  0  0  0  0  0  0
  141.0080   71.4480  225.7080 C   0  0  0  0  0  0  0  0  0  0  0  0
  139.9020   71.0490  224.9940 C   0  0  0  0  0  0  0  0  0  0  0  0
  139.4680   71.8460  224.0110 N   0  0  0  0  0  0  0  0  0  0  0  0
  136.5900   73.4250  223.4490 H   0  0  0  0  0  0  0  0  0  0  0  0
  135.7892   73.6449  220.7812 H   0  0  0  0  0  0  0  0  0  0  0  0
  135.8432   75.0020  222.0876 H   0  0  0  0  0  0  0  0  0  0  0  0
  139.4517   73.7309  220.2328 H   0  0  0  0  0  0  0  0  0  0  0  0
  140.1562   75.1145  219.4488 H   0  0  0  0  0  0  0  0  0  0  0  0
  141.6783   75.1981  221.3041 H   0  0  0  0  0  0  0  0  0  0  0  0
  139.7470   73.4200  222.3940 H   0  0  0  0  0  0  0  0  0  0  0  0
  139.4693   75.5993  223.3043 H   0  0  0  0  0  0  0  0  0  0  0  0
  140.7923   76.6678  222.9747 H   0  0  0  0  0  0  0  0  0  0  0  0
  138.3995   77.4874  221.7380 H   0  0  0  0  0  0  0  0  0  0  0  0
  141.1116   76.9253  220.6238 H   0  0  0  0  0  0  0  0  0  0  0  0
  139.7266   77.4002  219.5145 H   0  0  0  0  0  0  0  0  0  0  0  0
  141.6772   78.0000  222.2498 H   0  0  0  0  0  0  0  0  0  0  0  0
  139.2524   79.3154  222.7735 H   0  0  0  0  0  0  0  0  0  0  0  0
  140.4955   78.7273  223.9388 H   0  0  0  0  0  0  0  0  0  0  0  0
  140.4619   81.4587  222.5768 H   0  0  0  0  0  0  0  0  0  0  0  0
  140.0078   81.1182  224.2833 H   0  0  0  0  0  0  0  0  0  0  0  0
  142.3177   81.9388  224.1256 H   0  0  0  0  0  0  0  0  0  0  0  0
  142.2641   80.2326  224.7033 H   0  0  0  0  0  0  0  0  0  0  0  0
  143.5624   81.3527  222.3697 H   0  0  0  0  0  0  0  0  0  0  0  0
  143.6349   79.6739  223.0662 H   0  0  0  0  0  0  0  0  0  0  0  0
  141.6956   80.7857  221.0396 H   0  0  0  0  0  0  0  0  0  0  0  0
  142.9211   79.4461  220.8662 H   0  0  0  0  0  0  0  0  0  0  0  0
  136.8424   70.0900  222.9113 H   0  0  0  0  0  0  0  0  0  0  0  0
  137.5824   68.5324  224.7344 H   0  0  0  0  0  0  0  0  0  0  0  0
  139.1759   68.0988  226.5098 H   0  0  0  0  0  0  0  0  0  0  0  0
  142.3281   70.9227  227.3014 H   0  0  0  0  0  0  0  0  0  0  0  0
  141.5229   72.3928  225.4795 H   0  0  0  0  0  0  0  0  0  0  0  0
  1  2  2  0
  2  3  1  0
  3  4  1  0
  4  5  1  0
  5  6  2  0
  5  7  1  0
  7  8  1  0
  8  9  1  0
  9 10  1  0
  9 11  1  0
 11 12  1  0
 12 13  1  0
 13 14  1  0
 14 15  1  0
 15 16  1  0
 16 17  1  0
 17 18  1  0
 18 19  1  0
 19 20  1  0
  2 21  1  0
 21 22  2  0
 22 23  1  0
 23 24  2  0
 24 25  1  0
 25 26  2  0
 26 27  1  0
 26 28  1  0
 28 29  2  0
 29 30  1  0
 30 31  2  0
 12  7  1  0
 20 15  1  0
 31 21  1  0
 30 24  1  0
  3 32  1  0
  4 33  1  0
  4 34  1  0
  8 35  1  0
  8 36  1  0
  9 37  1  6
 10 38  1  0
 11 39  1  0
 11 40  1  0
 12 41  1  1
 13 42  1  0
 13 43  1  0
 15 44  1  0
 16 45  1  0
 16 46  1  0
 17 47  1  0
 17 48  1  0
 18 49  1  0
 18 50  1  0
 19 51  1  0
 19 52  1  0
 20 53  1  0
 20 54  1  0
 22 55  1  0
 23 56  1  0
 25 57  1  0
 28 58  1  0
 29 59  1  0
M  END
>  <smiles>  (7) 
O=C(NCC(=O)N1C[C@H](O)C[C@H]1COC1CCCCC1)c1ccc2cc(F)ccc2n1

>  <score_type>  (7) 
oracle

>  <origin>  (7) 
autodockgpu

>  <m_score__min__energy>  (7) 
-8.2599999999999998

>  <m_primary>  (7) 
energy

>  <rmsd>  (7) 
2.4965345625630513

>  <m_score__min__rmsd>  (7) 
2.4965345625630513

>  <meeko>  (7) 
{"free_energy": -6.74, "intermolecular_energy": -9.13, "internal_energy": -2.7, "cluster_size": 43, "cluster_id": 1, "rank_in_cluster": 42}

>  <energy>  (7) 
-7.96

>  <cluster_rmsd>  (7) 
1.57

>  <cluster>  (7) 
1

$$$$

     RDKit          3D

 59 62  0  0  0  0  0  0  0  0999 V2000
  139.2110   70.6670  221.5080 O   0  0  0  0  0  0  0  0  0  0  0  0
  139.3230   71.1830  222.6270 C   0  0  0  0  0  0  0  0  0  0  0  0
  139.2600   72.6090  222.7050 N   0  0  0  0  0  0  0  0  0  0  0  0
  139.0740   73.4830  221.6090 C   0  0  0  0  0  0  0  0  0  0  0  0
  140.2040   74.1720  221.0140 C   0  0  0  0  0  0  0  0  0  0  0  0
  141.2030   73.3780  220.7010 O   0  0  0  0  0  0  0  0  0  0  0  0
  140.4510   75.5090  220.7080 N   0  0  0  0  0  0  0  0  0  0  0  0
  139.4740   76.2780  219.8820 C   0  0  0  0  0  0  0  0  0  0  0  0
  140.4070   77.0080  218.9160 C   0  0  2  0  0  0  0  0  0  0  0  0
  140.2950   76.4170  217.6550 O   0  0  0  0  0  0  0  0  0  0  0  0
  141.8090   76.8240  219.4520 C   0  0  0  0  0  0  0  0  0  0  0  0
  141.4890   76.4710  220.9390 C   0  0  1  0  0  0  0  0  0  0  0  0
  141.0030   77.7850  221.5090 C   0  0  0  0  0  0  0  0  0  0  0  0
  140.5720   77.7230  222.8030 O   0  0  0  0  0  0  0  0  0  0  0  0
  140.7400   78.9540  223.4490 C   0  0  0  0  0  0  0  0  0  0  0  0
  140.0030   79.9870  222.6530 C   0  0  0  0  0  0  0  0  0  0  0  0
  140.9800   80.9420  222.0020 C   0  0  0  0  0  0  0  0  0  0  0  0
  141.8000   81.6280  223.0580 C   0  0  0  0  0  0  0  0  0  0  0  0
  142.5830   80.6100  223.8560 C   0  0  0  0  0  0  0  0  0  0  0  0
  142.2280   79.1990  223.4910 C   0  0  0  0  0  0  0  0  0  0  0  0
  139.5140   70.3710  223.8340 C   0  0  0  0  0  0  0  0  0  0  0  0
  139.0900   69.0600  223.8150 C   0  0  0  0  0  0  0  0  0  0  0  0
  139.2360   68.2280  224.9210 C   0  0  0  0  0  0  0  0  0  0  0  0
  139.8320   68.7940  226.0370 C   0  0  0  0  0  0  0  0  0  0  0  0
  140.0130   68.0370  227.1730 C   0  0  0  0  0  0  0  0  0  0  0  0
  140.6110   68.6060  228.2920 C   0  0  0  0  0  0  0  0  0  0  0  0
  140.8100   67.8980  229.4310 F   0  0  0  0  0  0  0  0  0  0  0  0
  141.0190   69.9360  228.2490 C   0  0  0  0  0  0  0  0  0  0  0  0
  140.8480   70.7110  227.1290 C   0  0  0  0  0  0  0  0  0  0  0  0
  140.2550   70.1270  226.0340 C   0  0  0  0  0  0  0  0  0  0  0  0
  140.0850   70.8760  224.9390 N   0  0  0  0  0  0  0  0  0  0  0  0
  139.3660   72.9950  223.6870 H   0  0  0  0  0  0  0  0  0  0  0  0
  138.6103   72.8888  220.8078 H   0  0  0  0  0  0  0  0  0  0  0  0
  138.4867   74.3043  222.0456 H   0  0  0  0  0  0  0  0  0  0  0  0
  138.7843   75.6086  219.3471 H   0  0  0  0  0  0  0  0  0  0  0  0
  138.8179   76.9427  220.4631 H   0  0  0  0  0  0  0  0  0  0  0  0
  140.1598   78.0763  218.8284 H   0  0  0  0  0  0  0  0  0  0  0  0
  140.0630   75.4650  217.8000 H   0  0  0  0  0  0  0  0  0  0  0  0
  142.3361   76.0039  218.9425 H   0  0  0  0  0  0  0  0  0  0  0  0
  142.4739   77.6895  219.3149 H   0  0  0  0  0  0  0  0  0  0  0  0
  142.2624   76.0808  221.6169 H   0  0  0  0  0  0  0  0  0  0  0  0
  141.8311   78.5072  221.4583 H   0  0  0  0  0  0  0  0  0  0  0  0
  140.1318   78.0809  220.9061 H   0  0  0  0  0  0  0  0  0  0  0  0
  140.3423   78.9828  224.4742 H   0  0  0  0  0  0  0  0  0  0  0  0
  139.4083   79.4885  221.8734 H   0  0  0  0  0  0  0  0  0  0  0  0
  139.3422   80.5535  223.3256 H   0  0  0  0  0  0  0  0  0  0  0  0
  141.6457   80.3814  221.3293 H   0  0  0  0  0  0  0  0  0  0  0  0
  140.4228   81.6964  221.4271 H   0  0  0  0  0  0  0  0  0  0  0  0
  142.4990   82.3281  222.5771 H   0  0  0  0  0  0  0  0  0  0  0  0
  141.1273   82.1742  223.7356 H   0  0  0  0  0  0  0  0  0  0  0  0
  143.6559   80.7638  223.6683 H   0  0  0  0  0  0  0  0  0  0  0  0
  142.3340   80.7538  224.9178 H   0  0  0  0  0  0  0  0  0  0  0  0
  142.6471   78.9784  222.4982 H   0  0  0  0  0  0  0  0  0  0  0  0
  142.6459   78.5442  224.2698 H   0  0  0  0  0  0  0  0  0  0  0  0
  138.6241   68.6608  222.9020 H   0  0  0  0  0  0  0  0  0  0  0  0
  138.8978   67.1813  224.9101 H   0  0  0  0  0  0  0  0  0  0  0  0
  139.6860   66.9870  227.1951 H   0  0  0  0  0  0  0  0  0  0  0  0
  141.4920   70.3787  229.1379 H   0  0  0  0  0  0  0  0  0  0  0  0
  141.1736   71.7615  227.1080 H   0  0  0  0  0  0  0  0  0  0  0  0
  1  2  2  0
  2  3  1  0
  3  4  1  0
  4  5  1  0
  5  6  2  0
  5  7  1  0
  7  8  1  0
  8  9  1  0
  9 10  1  0
  9 11  1  0
 11 12  1  0
 12 13  1  0
 13 14  1  0
 14 15  1  0
 15 16  1  0
 16 17  1  0
 17 18  1  0
 18 19  1  0
 19 20  1  0
  2 21  1  0
 21 22  2  0
 22 23  1  0
 23 24  2  0
 24 25  1  0
 25 26  2  0
 26 27  1  0
 26 28  1  0
 28 29  2  0
 29 30  1  0
 30 31  2  0
 12  7  1  0
 20 15  1  0
 31 21  1  0
 30 24  1  0
  3 32  1  0
  4 33  1  0
  4 34  1  0
  8 35  1  0
  8 36  1  0
  9 37  1  6
 10 38  1  0
 11 39  1  0
 11 40  1  0
 12 41  1  1
 13 42  1  0
 13 43  1  0
 15 44  1  0
 16 45  1  0
 16 46  1  0
 17 47  1  0
 17 48  1  0
 18 49  1  0
 18 50  1  0
 19 51  1  0
 19 52  1  0
 20 53  1  0
 20 54  1  0
 22 55  1  0
 23 56  1  0
 25 57  1  0
 28 58  1  0
 29 59  1  0
M  END
>  <smiles>  (8) 
O=C(NCC(=O)N1C[C@H](O)C[C@H]1COC1CCCCC1)c1ccc2cc(F)ccc2n1

>  <score_type>  (8) 
oracle

>  <origin>  (8) 
autodockgpu

>  <m_score__min__energy>  (8) 
-8.2599999999999998

>  <m_primary>  (8) 
energy

>  <rmsd>  (8) 
1.3345498843325845

>  <m_score__min__rmsd>  (8) 
1.3345498843325845

>  <meeko>  (8) 
{"free_energy": -7.55, "intermolecular_energy": -9.94, "internal_energy": -1.58, "cluster_size": 43, "cluster_id": 1, "rank_in_cluster": 15}

>  <energy>  (8) 
-7.92

>  <cluster_rmsd>  (8) 
1.54

>  <cluster>  (8) 
1

$$$$

     RDKit          3D

 59 62  0  0  0  0  0  0  0  0999 V2000
  138.7220   72.5840  221.5820 O   0  0  0  0  0  0  0  0  0  0  0  0
  139.7050   72.4870  222.3260 C   0  0  0  0  0  0  0  0  0  0  0  0
  140.8530   73.2780  222.0100 N   0  0  0  0  0  0  0  0  0  0  0  0
  140.9600   74.1690  220.9180 C   0  0  0  0  0  0  0  0  0  0  0  0
  140.6550   75.5790  221.0820 C   0  0  0  0  0  0  0  0  0  0  0  0
  141.6850   76.3700  220.8830 O   0  0  0  0  0  0  0  0  0  0  0  0
  139.4900   76.2690  221.4140 N   0  0  0  0  0  0  0  0  0  0  0  0
  138.8160   76.0090  222.7200 C   0  0  0  0  0  0  0  0  0  0  0  0
  137.3510   75.9220  222.2890 C   0  0  2  0  0  0  0  0  0  0  0  0
  136.9480   74.5850  222.3480 O   0  0  0  0  0  0  0  0  0  0  0  0
  137.2950   76.4170  220.8610 C   0  0  0  0  0  0  0  0  0  0  0  0
  138.6240   77.2330  220.8010 C   0  0  1  0  0  0  0  0  0  0  0  0
  138.3280   78.4400  221.6650 C   0  0  0  0  0  0  0  0  0  0  0  0
  139.2200   78.6500  222.6770 O   0  0  0  0  0  0  0  0  0  0  0  0
  140.4710   79.0280  222.1740 C   0  0  0  0  0  0  0  0  0  0  0  0
  141.5160   78.4630  223.0840 C   0  0  0  0  0  0  0  0  0  0  0  0
  142.2170   79.5750  223.8340 C   0  0  0  0  0  0  0  0  0  0  0  0
  142.8710   80.5120  222.8580 C   0  0  0  0  0  0  0  0  0  0  0  0
  141.8330   81.1260  221.9460 C   0  0  0  0  0  0  0  0  0  0  0  0
  140.4680   80.5380  222.1520 C   0  0  0  0  0  0  0  0  0  0  0  0
  139.7030   71.5960  223.4930 C   0  0  0  0  0  0  0  0  0  0  0  0
  138.9820   70.4240  223.4210 C   0  0  0  0  0  0  0  0  0  0  0  0
  138.9310   69.5290  224.4850 C   0  0  0  0  0  0  0  0  0  0  0  0
  139.6470   69.8850  225.6170 C   0  0  0  0  0  0  0  0  0  0  0  0
  139.6490   69.0540  226.7140 C   0  0  0  0  0  0  0  0  0  0  0  0
  140.3680   69.4110  227.8490 C   0  0  0  0  0  0  0  0  0  0  0  0
  140.3980   68.6240  228.9520 F   0  0  0  0  0  0  0  0  0  0  0  0
  141.0780   70.6090  227.8610 C   0  0  0  0  0  0  0  0  0  0  0  0
  141.0920   71.4540  226.7800 C   0  0  0  0  0  0  0  0  0  0  0  0
  140.3740   71.0790  225.6680 C   0  0  0  0  0  0  0  0  0  0  0  0
  140.3810   71.8980  224.6110 N   0  0  0  0  0  0  0  0  0  0  0  0
  141.6660   73.1500  222.6790 H   0  0  0  0  0  0  0  0  0  0  0  0
  142.0003   74.1110  220.5654 H   0  0  0  0  0  0  0  0  0  0  0  0
  140.1668   73.8228  220.2390 H   0  0  0  0  0  0  0  0  0  0  0  0
  139.1600   75.0661  223.1700 H   0  0  0  0  0  0  0  0  0  0  0  0
  139.0149   76.7700  223.4890 H   0  0  0  0  0  0  0  0  0  0  0  0
  136.6914   76.5190  222.9359 H   0  0  0  0  0  0  0  0  0  0  0  0
  137.6980   74.0720  222.7420 H   0  0  0  0  0  0  0  0  0  0  0  0
  137.2944   75.5854  220.1410 H   0  0  0  0  0  0  0  0  0  0  0  0
  136.3903   76.9880  220.6051 H   0  0  0  0  0  0  0  0  0  0  0  0
  139.0315   77.5990  219.8471 H   0  0  0  0  0  0  0  0  0  0  0  0
  138.3259   79.3309  221.0198 H   0  0  0  0  0  0  0  0  0  0  0  0
  137.3557   78.2491  222.1427 H   0  0  0  0  0  0  0  0  0  0  0  0
  140.6804   78.6534  221.1612 H   0  0  0  0  0  0  0  0  0  0  0  0
  141.0396   77.7830  223.8055 H   0  0  0  0  0  0  0  0  0  0  0  0
  142.2563   77.9156  222.4821 H   0  0  0  0  0  0  0  0  0  0  0  0
  141.4822   80.1293  224.4364 H   0  0  0  0  0  0  0  0  0  0  0  0
  142.9843   79.1421  224.4927 H   0  0  0  0  0  0  0  0  0  0  0  0
  143.3864   81.3109  223.4113 H   0  0  0  0  0  0  0  0  0  0  0  0
  143.5941   79.9487  222.2499 H   0  0  0  0  0  0  0  0  0  0  0  0
  141.7850   82.2071  222.1434 H   0  0  0  0  0  0  0  0  0  0  0  0
  142.1339   80.9176  220.9087 H   0  0  0  0  0  0  0  0  0  0  0  0
  140.0714   80.9014  223.1115 H   0  0  0  0  0  0  0  0  0  0  0  0
  139.8436   80.8526  221.3028 H   0  0  0  0  0  0  0  0  0  0  0  0
  138.4320   70.1897  222.4976 H   0  0  0  0  0  0  0  0  0  0  0  0
  138.3557   68.5930  224.4309 H   0  0  0  0  0  0  0  0  0  0  0  0
  139.0837   68.1106  226.6928 H   0  0  0  0  0  0  0  0  0  0  0  0
  141.6438   70.8858  228.7628 H   0  0  0  0  0  0  0  0  0  0  0  0
  141.6571   72.3975  226.8017 H   0  0  0  0  0  0  0  0  0  0  0  0
  1  2  2  0
  2  3  1  0
  3  4  1  0
  4  5  1  0
  5  6  2  0
  5  7  1  0
  7  8  1  0
  8  9  1  0
  9 10  1  0
  9 11  1  0
 11 12  1  0
 12 13  1  0
 13 14  1  0
 14 15  1  0
 15 16  1  0
 16 17  1  0
 17 18  1  0
 18 19  1  0
 19 20  1  0
  2 21  1  0
 21 22  2  0
 22 23  1  0
 23 24  2  0
 24 25  1  0
 25 26  2  0
 26 27  1  0
 26 28  1  0
 28 29  2  0
 29 30  1  0
 30 31  2  0
 12  7  1  0
 20 15  1  0
 31 21  1  0
 30 24  1  0
  3 32  1  0
  4 33  1  0
  4 34  1  0
  8 35  1  0
  8 36  1  0
  9 37  1  1
 10 38  1  0
 11 39  1  0
 11 40  1  0
 12 41  1  6
 13 42  1  0
 13 43  1  0
 15 44  1  0
 16 45  1  0
 16 46  1  0
 17 47  1  0
 17 48  1  0
 18 49  1  0
 18 50  1  0
 19 51  1  0
 19 52  1  0
 20 53  1  0
 20 54  1  0
 22 55  1  0
 23 56  1  0
 25 57  1  0
 28 58  1  0
 29 59  1  0
M  END
>  <smiles>  (9) 
O=C(NCC(=O)N1C[C@H](O)C[C@H]1COC1CCCCC1)c1ccc2cc(F)ccc2n1

>  <score_type>  (9) 
oracle

>  <origin>  (9) 
autodockgpu

>  <m_score__min__energy>  (9) 
-8.2599999999999998

>  <m_primary>  (9) 
energy

>  <rmsd>  (9) 
2.907857779579347

>  <m_score__min__rmsd>  (9) 
2.907857779579347

>  <meeko>  (9) 
{"free_energy": -7.46, "intermolecular_energy": -9.85, "internal_energy": -2.58, "cluster_size": 43, "cluster_id": 1, "rank_in_cluster": 21}

>  <energy>  (9) 
-7.9

>  <cluster_rmsd>  (9) 
1.6

>  <cluster>  (9) 
1

$$$$

     RDKit          3D

 59 62  0  0  0  0  0  0  0  0999 V2000
  140.6020   71.6590  221.2080 O   0  0  0  0  0  0  0  0  0  0  0  0
  140.2260   72.0870  222.3070 C   0  0  0  0  0  0  0  0  0  0  0  0
  139.8810   73.4710  222.3930 N   0  0  0  0  0  0  0  0  0  0  0  0
  139.9280   74.3970  221.3250 C   0  0  0  0  0  0  0  0  0  0  0  0
  139.9480   75.8240  221.5850 C   0  0  0  0  0  0  0  0  0  0  0  0
  139.4270   76.1590  222.7450 O   0  0  0  0  0  0  0  0  0  0  0  0
  140.4030   76.9190  220.8530 N   0  0  0  0  0  0  0  0  0  0  0  0
  139.4240   77.8430  220.2060 C   0  0  0  0  0  0  0  0  0  0  0  0
  140.0550   78.0290  218.8260 C   0  0  2  0  0  0  0  0  0  0  0  0
  139.2950   77.3230  217.8900 O   0  0  0  0  0  0  0  0  0  0  0  0
  141.4470   77.4470  218.9090 C   0  0  0  0  0  0  0  0  0  0  0  0
  141.6640   77.4730  220.4550 C   0  0  1  0  0  0  0  0  0  0  0  0
  141.8190   78.9470  220.7570 C   0  0  0  0  0  0  0  0  0  0  0  0
  142.4610   79.2260  221.9290 O   0  0  0  0  0  0  0  0  0  0  0  0
  141.7420   80.1590  222.6870 C   0  0  0  0  0  0  0  0  0  0  0  0
  141.0460   79.4130  223.7830 C   0  0  0  0  0  0  0  0  0  0  0  0
  139.5500   79.4270  223.5590 C   0  0  0  0  0  0  0  0  0  0  0  0
  139.0530   80.8450  223.5370 C   0  0  0  0  0  0  0  0  0  0  0  0
  139.7140   81.6150  222.4160 C   0  0  0  0  0  0  0  0  0  0  0  0
  140.7830   80.8190  221.7260 C   0  0  0  0  0  0  0  0  0  0  0  0
  140.1340   71.2130  223.4830 C   0  0  0  0  0  0  0  0  0  0  0  0
  139.5430   69.9780  223.3360 C   0  0  0  0  0  0  0  0  0  0  0  0
  139.4190   69.0940  224.4030 C   0  0  0  0  0  0  0  0  0  0  0  0
  139.9230   69.5290  225.6180 C   0  0  0  0  0  0  0  0  0  0  0  0
  139.8400   68.7150  226.7250 C   0  0  0  0  0  0  0  0  0  0  0  0
  140.3470   69.1530  227.9430 C   0  0  0  0  0  0  0  0  0  0  0  0
  140.2860   68.3840  229.0580 F   0  0  0  0  0  0  0  0  0  0  0  0
  140.9330   70.4120  228.0280 C   0  0  0  0  0  0  0  0  0  0  0  0
  141.0280   71.2420  226.9400 C   0  0  0  0  0  0  0  0  0  0  0  0
  140.5200   70.7880  225.7450 C   0  0  0  0  0  0  0  0  0  0  0  0
  140.6080   71.5920  224.6800 N   0  0  0  0  0  0  0  0  0  0  0  0
  139.5710   73.7810  223.3590 H   0  0  0  0  0  0  0  0  0  0  0  0
  140.8381   74.1690  220.7508 H   0  0  0  0  0  0  0  0  0  0  0  0
  138.9569   74.2507  220.8294 H   0  0  0  0  0  0  0  0  0  0  0  0
  138.4259   77.3862  220.1342 H   0  0  0  0  0  0  0  0  0  0  0  0
  139.2586   78.7812  220.7560 H   0  0  0  0  0  0  0  0  0  0  0  0
  140.0921   79.0865  218.5254 H   0  0  0  0  0  0  0  0  0  0  0  0
  138.7360   77.9850  217.4100 H   0  0  0  0  0  0  0  0  0  0  0  0
  141.4852   76.4230  218.5092 H   0  0  0  0  0  0  0  0  0  0  0  0
  142.2086   77.9861  218.3265 H   0  0  0  0  0  0  0  0  0  0  0  0
  142.5070   76.9471  220.9270 H   0  0  0  0  0  0  0  0  0  0  0  0
  142.3894   79.4065  219.9364 H   0  0  0  0  0  0  0  0  0  0  0  0
  140.8011   79.3517  220.8571 H   0  0  0  0  0  0  0  0  0  0  0  0
  142.3655   80.9316  223.1607 H   0  0  0  0  0  0  0  0  0  0  0  0
  141.4014   78.3721  223.7961 H   0  0  0  0  0  0  0  0  0  0  0  0
  141.2687   79.8990  224.7444 H   0  0  0  0  0  0  0  0  0  0  0  0
  139.3199   78.9442  222.5978 H   0  0  0  0  0  0  0  0  0  0  0  0
  139.0549   78.8807  224.3754 H   0  0  0  0  0  0  0  0  0  0  0  0
  137.9636   80.8454  223.3845 H   0  0  0  0  0  0  0  0  0  0  0  0
  139.2994   81.3256  224.4953 H   0  0  0  0  0  0  0  0  0  0  0  0
  138.9471   81.8910  221.6773 H   0  0  0  0  0  0  0  0  0  0  0  0
  140.1897   82.5040  222.8556 H   0  0  0  0  0  0  0  0  0  0  0  0
  140.3015   80.0376  221.1196 H   0  0  0  0  0  0  0  0  0  0  0  0
  141.3660   81.5181  221.1085 H   0  0  0  0  0  0  0  0  0  0  0  0
  139.1587   69.6825  222.3486 H   0  0  0  0  0  0  0  0  0  0  0  0
  138.9480   68.1066  224.2886 H   0  0  0  0  0  0  0  0  0  0  0  0
  139.3742   67.7216  226.6461 H   0  0  0  0  0  0  0  0  0  0  0  0
  141.3315   70.7516  228.9954 H   0  0  0  0  0  0  0  0  0  0  0  0
  141.4938   72.2353  227.0203 H   0  0  0  0  0  0  0  0  0  0  0  0
  1  2  2  0
  2  3  1  0
  3  4  1  0
  4  5  1  0
  5  6  2  0
  5  7  1  0
  7  8  1  0
  8  9  1  0
  9 10  1  0
  9 11  1  0
 11 12  1  0
 12 13  1  0
 13 14  1  0
 14 15  1  0
 15 16  1  0
 16 17  1  0
 17 18  1  0
 18 19  1  0
 19 20  1  0
  2 21  1  0
 21 22  2  0
 22 23  1  0
 23 24  2  0
 24 25  1  0
 25 26  2  0
 26 27  1  0
 26 28  1  0
 28 29  2  0
 29 30  1  0
 30 31  2  0
 12  7  1  0
 20 15  1  0
 31 21  1  0
 30 24  1  0
  3 32  1  0
  4 33  1  0
  4 34  1  0
  8 35  1  0
  8 36  1  0
  9 37  1  6
 10 38  1  0
 11 39  1  0
 11 40  1  0
 12 41  1  6
 13 42  1  0
 13 43  1  0
 15 44  1  0
 16 45  1  0
 16 46  1  0
 17 47  1  0
 17 48  1  0
 18 49  1  0
 18 50  1  0
 19 51  1  0
 19 52  1  0
 20 53  1  0
 20 54  1  0
 22 55  1  0
 23 56  1  0
 25 57  1  0
 28 58  1  0
 29 59  1  0
M  END
>  <smiles>  (10) 
O=C(NCC(=O)N1C[C@H](O)C[C@H]1COC1CCCCC1)c1ccc2cc(F)ccc2n1

>  <score_type>  (10) 
oracle

>  <origin>  (10) 
autodockgpu

>  <m_score__min__energy>  (10) 
-8.2599999999999998

>  <m_primary>  (10) 
energy

>  <rmsd>  (10) 
1.7649183664349184

>  <m_score__min__rmsd>  (10) 
1.7649183664349184

>  <meeko>  (10) 
{"free_energy": -7.42, "intermolecular_energy": -9.81, "internal_energy": -2.1, "cluster_size": 43, "cluster_id": 1, "rank_in_cluster": 23}

>  <energy>  (10) 
-7.81

>  <cluster_rmsd>  (10) 
1.67

>  <cluster>  (10) 
1

$$$$

     RDKit          3D

 59 62  0  0  0  0  0  0  0  0999 V2000
  139.1460   71.4520  221.3740 O   0  0  0  0  0  0  0  0  0  0  0  0
  138.6830   71.6540  222.5040 C   0  0  0  0  0  0  0  0  0  0  0  0
  137.6770   72.6600  222.6360 N   0  0  0  0  0  0  0  0  0  0  0  0
  137.1590   73.4450  221.5800 C   0  0  0  0  0  0  0  0  0  0  0  0
  137.8500   74.6450  221.1440 C   0  0  0  0  0  0  0  0  0  0  0  0
  137.0440   75.6160  220.7750 O   0  0  0  0  0  0  0  0  0  0  0  0
  139.1980   74.9800  221.0320 N   0  0  0  0  0  0  0  0  0  0  0  0
  139.8770   74.9060  219.7040 C   0  0  0  0  0  0  0  0  0  0  0  0
  141.1920   74.2220  220.0780 C   0  0  2  0  0  0  0  0  0  0  0  0
  141.1590   72.9060  219.6100 O   0  0  0  0  0  0  0  0  0  0  0  0
  141.2670   74.2340  221.5880 C   0  0  0  0  0  0  0  0  0  0  0  0
  140.2620   75.3850  221.9050 C   0  0  1  0  0  0  0  0  0  0  0  0
  141.0010   76.6240  221.4490 C   0  0  0  0  0  0  0  0  0  0  0  0
  140.2220   77.5620  220.8340 O   0  0  0  0  0  0  0  0  0  0  0  0
  140.3630   78.8130  221.4470 C   0  0  0  0  0  0  0  0  0  0  0  0
  141.7830   79.2500  221.2610 C   0  0  0  0  0  0  0  0  0  0  0  0
  142.5090   79.2530  222.5890 C   0  0  0  0  0  0  0  0  0  0  0  0
  141.8250   80.1940  223.5400 C   0  0  0  0  0  0  0  0  0  0  0  0
  140.3970   79.7570  223.7730 C   0  0  0  0  0  0  0  0  0  0  0  0
  139.9990   78.6060  222.8960 C   0  0  0  0  0  0  0  0  0  0  0  0
  139.1440   70.8920  223.6720 C   0  0  0  0  0  0  0  0  0  0  0  0
  139.0020   69.5220  223.6570 C   0  0  0  0  0  0  0  0  0  0  0  0
  139.4140   68.7320  224.7260 C   0  0  0  0  0  0  0  0  0  0  0  0
  139.9730   69.4040  225.8020 C   0  0  0  0  0  0  0  0  0  0  0  0
  140.4060   68.6960  226.9000 C   0  0  0  0  0  0  0  0  0  0  0  0
  140.9680   69.3710  227.9780 C   0  0  0  0  0  0  0  0  0  0  0  0
  141.4070   68.7140  229.0790 F   0  0  0  0  0  0  0  0  0  0  0  0
  141.0840   70.7570  227.9330 C   0  0  0  0  0  0  0  0  0  0  0  0
  140.6590   71.4850  226.8500 C   0  0  0  0  0  0  0  0  0  0  0  0
  140.1080   70.7960  225.7950 C   0  0  0  0  0  0  0  0  0  0  0  0
  139.6910   71.4990  224.7360 N   0  0  0  0  0  0  0  0  0  0  0  0
  137.3220   72.7920  223.6260 H   0  0  0  0  0  0  0  0  0  0  0  0
  137.0893   72.7855  220.7024 H   0  0  0  0  0  0  0  0  0  0  0  0
  136.2229   73.8393  222.0022 H   0  0  0  0  0  0  0  0  0  0  0  0
  139.2984   74.3028  218.9889 H   0  0  0  0  0  0  0  0  0  0  0  0
  140.0009   75.8792  219.2064 H   0  0  0  0  0  0  0  0  0  0  0  0
  142.0637   74.7304  219.6401 H   0  0  0  0  0  0  0  0  0  0  0  0
  140.3520   72.4810  219.9950 H   0  0  0  0  0  0  0  0  0  0  0  0
  140.9396   73.2768  222.0198 H   0  0  0  0  0  0  0  0  0  0  0  0
  142.2773   74.3773  221.9988 H   0  0  0  0  0  0  0  0  0  0  0  0
  139.9027   75.5697  222.9281 H   0  0  0  0  0  0  0  0  0  0  0  0
  141.4651   77.0896  222.3310 H   0  0  0  0  0  0  0  0  0  0  0  0
  141.7328   76.2894  220.6990 H   0  0  0  0  0  0  0  0  0  0  0  0
  139.7190   79.5978  221.0235 H   0  0  0  0  0  0  0  0  0  0  0  0
  142.2888   78.5572  220.5723 H   0  0  0  0  0  0  0  0  0  0  0  0
  141.7928   80.2683  220.8451 H   0  0  0  0  0  0  0  0  0  0  0  0
  142.5019   78.2374  223.0116 H   0  0  0  0  0  0  0  0  0  0  0  0
  143.5471   79.5827  222.4351 H   0  0  0  0  0  0  0  0  0  0  0  0
  142.3646   80.1972  224.4985 H   0  0  0  0  0  0  0  0  0  0  0  0
  141.8239   81.2044  223.1052 H   0  0  0  0  0  0  0  0  0  0  0  0
  140.2878   79.4536  224.8247 H   0  0  0  0  0  0  0  0  0  0  0  0
  139.7427   80.6066  223.5277 H   0  0  0  0  0  0  0  0  0  0  0  0
  140.5049   77.6988  223.2579 H   0  0  0  0  0  0  0  0  0  0  0  0
  138.9040   78.5160  222.9496 H   0  0  0  0  0  0  0  0  0  0  0  0
  138.5512   69.0398  222.7771 H   0  0  0  0  0  0  0  0  0  0  0  0
  139.3026   67.6377  224.7177 H   0  0  0  0  0  0  0  0  0  0  0  0
  140.3079   67.6007  226.9247 H   0  0  0  0  0  0  0  0  0  0  0  0
  141.5290   71.2841  228.7898 H   0  0  0  0  0  0  0  0  0  0  0  0
  140.7556   72.5805  226.8266 H   0  0  0  0  0  0  0  0  0  0  0  0
  1  2  2  0
  2  3  1  0
  3  4  1  0
  4  5  1  0
  5  6  2  0
  5  7  1  0
  7  8  1  0
  8  9  1  0
  9 10  1  0
  9 11  1  0
 11 12  1  0
 12 13  1  0
 13 14  1  0
 14 15  1  0
 15 16  1  0
 16 17  1  0
 17 18  1  0
 18 19  1  0
 19 20  1  0
  2 21  1  0
 21 22  2  0
 22 23  1  0
 23 24  2  0
 24 25  1  0
 25 26  2  0
 26 27  1  0
 26 28  1  0
 28 29  2  0
 29 30  1  0
 30 31  2  0
 12  7  1  0
 20 15  1  0
 31 21  1  0
 30 24  1  0
  3 32  1  0
  4 33  1  0
  4 34  1  0
  8 35  1  0
  8 36  1  0
  9 37  1  6
 10 38  1  0
 11 39  1  0
 11 40  1  0
 12 41  1  1
 13 42  1  0
 13 43  1  0
 15 44  1  0
 16 45  1  0
 16 46  1  0
 17 47  1  0
 17 48  1  0
 18 49  1  0
 18 50  1  0
 19 51  1  0
 19 52  1  0
 20 53  1  0
 20 54  1  0
 22 55  1  0
 23 56  1  0
 25 57  1  0
 28 58  1  0
 29 59  1  0
M  END
>  <smiles>  (11) 
O=C(NCC(=O)N1C[C@H](O)C[C@H]1COC1CCCCC1)c1ccc2cc(F)ccc2n1

>  <score_type>  (11) 
oracle

>  <origin>  (11) 
autodockgpu

>  <m_score__min__energy>  (11) 
-8.2599999999999998

>  <m_primary>  (11) 
energy

>  <rmsd>  (11) 
2.0888515391841747

>  <m_score__min__rmsd>  (11) 
2.0888515391841747

>  <meeko>  (11) 
{"free_energy": -6.79, "intermolecular_energy": -9.18, "internal_energy": -2.53, "cluster_size": 43, "cluster_id": 1, "rank_in_cluster": 41}

>  <energy>  (11) 
-7.72

>  <cluster_rmsd>  (11) 
1.55

>  <cluster>  (11) 
1

$$$$

     RDKit          3D

 59 62  0  0  0  0  0  0  0  0999 V2000
  138.7690   72.5980  221.6000 O   0  0  0  0  0  0  0  0  0  0  0  0
  139.7810   72.3940  222.2820 C   0  0  0  0  0  0  0  0  0  0  0  0
  140.9970   73.0160  221.8590 N   0  0  0  0  0  0  0  0  0  0  0  0
  141.1410   73.8510  220.7270 C   0  0  0  0  0  0  0  0  0  0  0  0
  141.0230   75.2920  220.8520 C   0  0  0  0  0  0  0  0  0  0  0  0
  142.0470   75.9520  220.3570 O   0  0  0  0  0  0  0  0  0  0  0  0
  140.0450   76.1240  221.3940 N   0  0  0  0  0  0  0  0  0  0  0  0
  139.4090   75.7760  222.6990 C   0  0  0  0  0  0  0  0  0  0  0  0
  137.9350   76.0460  222.3950 C   0  0  2  0  0  0  0  0  0  0  0  0
  137.2720   74.8220  222.2790 O   0  0  0  0  0  0  0  0  0  0  0  0
  137.8980   76.7840  221.0760 C   0  0  0  0  0  0  0  0  0  0  0  0
  139.3600   77.3280  221.0240 C   0  0  1  0  0  0  0  0  0  0  0  0
  139.3670   78.4000  222.0920 C   0  0  0  0  0  0  0  0  0  0  0  0
  139.4710   79.6770  221.6190 O   0  0  0  0  0  0  0  0  0  0  0  0
  140.7610   80.1840  221.8210 C   0  0  0  0  0  0  0  0  0  0  0  0
  141.6450   79.0370  222.2030 C   0  0  0  0  0  0  0  0  0  0  0  0
  142.0800   79.1680  223.6460 C   0  0  0  0  0  0  0  0  0  0  0  0
  142.8340   80.4530  223.8350 C   0  0  0  0  0  0  0  0  0  0  0  0
  141.9540   81.6330  223.4900 C   0  0  0  0  0  0  0  0  0  0  0  0
  140.6320   81.2140  222.9170 C   0  0  0  0  0  0  0  0  0  0  0  0
  139.7450   71.5490  223.4810 C   0  0  0  0  0  0  0  0  0  0  0  0
  139.0020   70.3900  223.4430 C   0  0  0  0  0  0  0  0  0  0  0  0
  138.9190   69.5370  224.5390 C   0  0  0  0  0  0  0  0  0  0  0  0
  139.6260   69.9220  225.6670 C   0  0  0  0  0  0  0  0  0  0  0  0
  139.5960   69.1340  226.7950 C   0  0  0  0  0  0  0  0  0  0  0  0
  140.3070   69.5210  227.9260 C   0  0  0  0  0  0  0  0  0  0  0  0
  140.3060   68.7760  229.0580 F   0  0  0  0  0  0  0  0  0  0  0  0
  141.0400   70.7040  227.9030 C   0  0  0  0  0  0  0  0  0  0  0  0
  141.0850   71.5070  226.7910 C   0  0  0  0  0  0  0  0  0  0  0  0
  140.3750   71.1040  225.6840 C   0  0  0  0  0  0  0  0  0  0  0  0
  140.4140   71.8810  224.5960 N   0  0  0  0  0  0  0  0  0  0  0  0
  141.8310   72.8040  222.4780 H   0  0  0  0  0  0  0  0  0  0  0  0
  142.1410   73.6518  220.3143 H   0  0  0  0  0  0  0  0  0  0  0  0
  140.2685   73.5849  220.1122 H   0  0  0  0  0  0  0  0  0  0  0  0
  139.5795   74.7215  222.9616 H   0  0  0  0  0  0  0  0  0  0  0  0
  139.8029   76.3406  223.5570 H   0  0  0  0  0  0  0  0  0  0  0  0
  137.4491   76.6362  223.1859 H   0  0  0  0  0  0  0  0  0  0  0  0
  137.8230   74.1470  222.7500 H   0  0  0  0  0  0  0  0  0  0  0  0
  137.6850   76.1067  220.2358 H   0  0  0  0  0  0  0  0  0  0  0  0
  137.1159   77.5537  220.9993 H   0  0  0  0  0  0  0  0  0  0  0  0
  139.7778   77.7693  220.1071 H   0  0  0  0  0  0  0  0  0  0  0  0
  138.4298   78.3213  222.6624 H   0  0  0  0  0  0  0  0  0  0  0  0
  140.2631   78.2220  222.7046 H   0  0  0  0  0  0  0  0  0  0  0  0
  141.2031   80.6573  220.9319 H   0  0  0  0  0  0  0  0  0  0  0  0
  141.0926   78.0945  222.0746 H   0  0  0  0  0  0  0  0  0  0  0  0
  142.5364   79.0418  221.5585 H   0  0  0  0  0  0  0  0  0  0  0  0
  141.1930   79.1659  224.2965 H   0  0  0  0  0  0  0  0  0  0  0  0
  142.7328   78.3219  223.9070 H   0  0  0  0  0  0  0  0  0  0  0  0
  143.1554   80.5343  224.8839 H   0  0  0  0  0  0  0  0  0  0  0  0
  143.7111   80.4544  223.1711 H   0  0  0  0  0  0  0  0  0  0  0  0
  141.7732   82.2177  224.4040 H   0  0  0  0  0  0  0  0  0  0  0  0
  142.4763   82.2283  222.7266 H   0  0  0  0  0  0  0  0  0  0  0  0
  140.0187   80.7897  223.7256 H   0  0  0  0  0  0  0  0  0  0  0  0
  140.1686   82.1079  222.4740 H   0  0  0  0  0  0  0  0  0  0  0  0
  138.4597   70.1318  222.5215 H   0  0  0  0  0  0  0  0  0  0  0  0
  138.3265   68.6106  224.5117 H   0  0  0  0  0  0  0  0  0  0  0  0
  139.0120   68.2018  226.8020 H   0  0  0  0  0  0  0  0  0  0  0  0
  141.5991   71.0038  228.8016 H   0  0  0  0  0  0  0  0  0  0  0  0
  141.6681   72.4397  226.7852 H   0  0  0  0  0  0  0  0  0  0  0  0
  1  2  2  0
  2  3  1  0
  3  4  1  0
  4  5  1  0
  5  6  2  0
  5  7  1  0
  7  8  1  0
  8  9  1  0
  9 10  1  0
  9 11  1  0
 11 12  1  0
 12 13  1  0
 13 14  1  0
 14 15  1  0
 15 16  1  0
 16 17  1  0
 17 18  1  0
 18 19  1  0
 19 20  1  0
  2 21  1  0
 21 22  2  0
 22 23  1  0
 23 24  2  0
 24 25  1  0
 25 26  2  0
 26 27  1  0
 26 28  1  0
 28 29  2  0
 29 30  1  0
 30 31  2  0
 12  7  1  0
 20 15  1  0
 31 21  1  0
 30 24  1  0
  3 32  1  0
  4 33  1  0
  4 34  1  0
  8 35  1  0
  8 36  1  0
  9 37  1  1
 10 38  1  0
 11 39  1  0
 11 40  1  0
 12 41  1  6
 13 42  1  0
 13 43  1  0
 15 44  1  0
 16 45  1  0
 16 46  1  0
 17 47  1  0
 17 48  1  0
 18 49  1  0
 18 50  1  0
 19 51  1  0
 19 52  1  0
 20 53  1  0
 20 54  1  0
 22 55  1  0
 23 56  1  0
 25 57  1  0
 28 58  1  0
 29 59  1  0
M  END
>  <smiles>  (12) 
O=C(NCC(=O)N1C[C@H](O)C[C@H]1COC1CCCCC1)c1ccc2cc(F)ccc2n1

>  <score_type>  (12) 
oracle

>  <origin>  (12) 
autodockgpu

>  <m_score__min__energy>  (12) 
-8.2599999999999998

>  <m_primary>  (12) 
energy

>  <rmsd>  (12) 
2.8188560424735587

>  <m_score__min__rmsd>  (12) 
2.8188560424735587

>  <meeko>  (12) 
{"free_energy": -7.53, "intermolecular_energy": -9.92, "internal_energy": -2.43, "cluster_size": 43, "cluster_id": 1, "rank_in_cluster": 17}

>  <energy>  (12) 
-7.67

>  <cluster_rmsd>  (12) 
1.44

>  <cluster>  (12) 
1

$$$$

     RDKit          3D

 59 62  0  0  0  0  0  0  0  0999 V2000
  140.9700   71.6620  221.3570 O   0  0  0  0  0  0  0  0  0  0  0  0
  140.3090   72.0570  222.3260 C   0  0  0  0  0  0  0  0  0  0  0  0
  139.7090   73.3510  222.2330 N   0  0  0  0  0  0  0  0  0  0  0  0
  139.8040   74.2210  221.1220 C   0  0  0  0  0  0  0  0  0  0  0  0
  141.0330   74.9450  220.8530 C   0  0  0  0  0  0  0  0  0  0  0  0
  141.4950   75.6070  221.8900 O   0  0  0  0  0  0  0  0  0  0  0  0
  141.8250   75.0860  219.7150 N   0  0  0  0  0  0  0  0  0  0  0  0
  143.0660   75.9140  219.7690 C   0  0  0  0  0  0  0  0  0  0  0  0
  142.9510   76.7100  218.4680 C   0  0  2  0  0  0  0  0  0  0  0  0
  142.6180   78.0310  218.7810 O   0  0  0  0  0  0  0  0  0  0  0  0
  141.8370   76.0700  217.6710 C   0  0  0  0  0  0  0  0  0  0  0  0
  141.7900   74.6630  218.3450 C   0  0  1  0  0  0  0  0  0  0  0  0
  143.0660   74.0070  217.8660 C   0  0  0  0  0  0  0  0  0  0  0  0
  143.1100   72.6520  218.0320 O   0  0  0  0  0  0  0  0  0  0  0  0
  144.1840   72.2800  218.8500 C   0  0  0  0  0  0  0  0  0  0  0  0
  143.6660   72.1530  220.2490 C   0  0  0  0  0  0  0  0  0  0  0  0
  144.2370   73.2490  221.1210 C   0  0  0  0  0  0  0  0  0  0  0  0
  145.7360   73.1520  221.1420 C   0  0  0  0  0  0  0  0  0  0  0  0
  146.2910   73.3120  219.7440 C   0  0  0  0  0  0  0  0  0  0  0  0
  145.2120   73.3740  218.7030 C   0  0  0  0  0  0  0  0  0  0  0  0
  140.1400   71.2340  223.5300 C   0  0  0  0  0  0  0  0  0  0  0  0
  139.4800   70.0300  223.4120 C   0  0  0  0  0  0  0  0  0  0  0  0
  139.2800   69.1950  224.5070 C   0  0  0  0  0  0  0  0  0  0  0  0
  139.7830   69.6450  225.7180 C   0  0  0  0  0  0  0  0  0  0  0  0
  139.6280   68.8780  226.8500 C   0  0  0  0  0  0  0  0  0  0  0  0
  140.1330   69.3290  228.0640 C   0  0  0  0  0  0  0  0  0  0  0  0
  140.0030   68.6070  229.2040 F   0  0  0  0  0  0  0  0  0  0  0  0
  140.7910   70.5550  228.1190 C   0  0  0  0  0  0  0  0  0  0  0  0
  140.9580   71.3380  227.0040 C   0  0  0  0  0  0  0  0  0  0  0  0
  140.4500   70.8700  225.8140 C   0  0  0  0  0  0  0  0  0  0  0  0
  140.6090   71.6280  224.7230 N   0  0  0  0  0  0  0  0  0  0  0  0
  139.1590   73.6370  223.0930 H   0  0  0  0  0  0  0  0  0  0  0  0
  139.5942   73.6145  220.2286 H   0  0  0  0  0  0  0  0  0  0  0  0
  139.0963   75.0236  221.3767 H   0  0  0  0  0  0  0  0  0  0  0  0
  143.0705   76.5762  220.6473 H   0  0  0  0  0  0  0  0  0  0  0  0
  143.9939   75.3302  219.8598 H   0  0  0  0  0  0  0  0  0  0  0  0
  143.8908   76.7086  217.8964 H   0  0  0  0  0  0  0  0  0  0  0  0
  143.1260   78.2730  219.5960 H   0  0  0  0  0  0  0  0  0  0  0  0
  140.8870   76.6114  217.7909 H   0  0  0  0  0  0  0  0  0  0  0  0
  141.9969   76.0557  216.5828 H   0  0  0  0  0  0  0  0  0  0  0  0
  140.9642   73.9617  218.1549 H   0  0  0  0  0  0  0  0  0  0  0  0
  143.1811   74.2245  216.7939 H   0  0  0  0  0  0  0  0  0  0  0  0
  143.8777   74.4213  218.4821 H   0  0  0  0  0  0  0  0  0  0  0  0
  144.6425   71.3169  218.5813 H   0  0  0  0  0  0  0  0  0  0  0  0
  142.5689   72.2321  220.2384 H   0  0  0  0  0  0  0  0  0  0  0  0
  143.9693   71.1771  220.6559 H   0  0  0  0  0  0  0  0  0  0  0  0
  143.9398   74.2285  220.7182 H   0  0  0  0  0  0  0  0  0  0  0  0
  143.8509   73.1373  222.1450 H   0  0  0  0  0  0  0  0  0  0  0  0
  146.1421   73.9452  221.7869 H   0  0  0  0  0  0  0  0  0  0  0  0
  146.0257   72.1650  221.5317 H   0  0  0  0  0  0  0  0  0  0  0  0
  146.8770   74.2419  219.7010 H   0  0  0  0  0  0  0  0  0  0  0  0
  146.9145   72.4318  219.5283 H   0  0  0  0  0  0  0  0  0  0  0  0
  144.7030   74.3458  218.7839 H   0  0  0  0  0  0  0  0  0  0  0  0
  145.6939   73.2416  217.7231 H   0  0  0  0  0  0  0  0  0  0  0  0
  139.1014   69.7210  222.4265 H   0  0  0  0  0  0  0  0  0  0  0  0
  138.7533   68.2335  224.4170 H   0  0  0  0  0  0  0  0  0  0  0  0
  139.1062   67.9112  226.7944 H   0  0  0  0  0  0  0  0  0  0  0  0
  141.1881   70.9058  229.0830 H   0  0  0  0  0  0  0  0  0  0  0  0
  141.4793   72.3050  227.0598 H   0  0  0  0  0  0  0  0  0  0  0  0
  1  2  2  0
  2  3  1  0
  3  4  1  0
  4  5  1  0
  5  6  2  0
  5  7  1  0
  7  8  1  0
  8  9  1  0
  9 10  1  0
  9 11  1  0
 11 12  1  0
 12 13  1  0
 13 14  1  0
 14 15  1  0
 15 16  1  0
 16 17  1  0
 17 18  1  0
 18 19  1  0
 19 20  1  0
  2 21  1  0
 21 22  2  0
 22 23  1  0
 23 24  2  0
 24 25  1  0
 25 26  2  0
 26 27  1  0
 26 28  1  0
 28 29  2  0
 29 30  1  0
 30 31  2  0
 12  7  1  0
 20 15  1  0
 31 21  1  0
 30 24  1  0
  3 32  1  0
  4 33  1  0
  4 34  1  0
  8 35  1  0
  8 36  1  0
  9 37  1  6
 10 38  1  0
 11 39  1  0
 11 40  1  0
 12 41  1  1
 13 42  1  0
 13 43  1  0
 15 44  1  0
 16 45  1  0
 16 46  1  0
 17 47  1  0
 17 48  1  0
 18 49  1  0
 18 50  1  0
 19 51  1  0
 19 52  1  0
 20 53  1  0
 20 54  1  0
 22 55  1  0
 23 56  1  0
 25 57  1  0
 28 58  1  0
 29 59  1  0
M  END
>  <smiles>  (13) 
O=C(NCC(=O)N1C[C@H](O)C[C@H]1COC1CCCCC1)c1ccc2cc(F)ccc2n1

>  <score_type>  (13) 
oracle

>  <origin>  (13) 
autodockgpu

>  <m_score__min__energy>  (13) 
-8.2599999999999998

>  <m_primary>  (13) 
energy

>  <rmsd>  (13) 
2.2652641739069868

>  <m_score__min__rmsd>  (13) 
2.2652641739069868

>  <meeko>  (13) 
{"free_energy": -7.3, "intermolecular_energy": -9.69, "internal_energy": -2.21, "cluster_size": 2, "cluster_id": 3, "rank_in_cluster": 2}

>  <energy>  (13) 
-7.62

>  <cluster_rmsd>  (13) 
1.45

>  <cluster>  (13) 
1

$$$$

     RDKit          3D

 59 62  0  0  0  0  0  0  0  0999 V2000
  138.7210   72.5320  221.7350 O   0  0  0  0  0  0  0  0  0  0  0  0
  139.7440   72.3920  222.4170 C   0  0  0  0  0  0  0  0  0  0  0  0
  140.9030   73.1330  222.0290 N   0  0  0  0  0  0  0  0  0  0  0  0
  140.9790   74.0210  220.9310 C   0  0  0  0  0  0  0  0  0  0  0  0
  140.7300   75.4400  221.1090 C   0  0  0  0  0  0  0  0  0  0  0  0
  141.8020   76.1870  220.9660 O   0  0  0  0  0  0  0  0  0  0  0  0
  139.5840   76.1760  221.4060 N   0  0  0  0  0  0  0  0  0  0  0  0
  138.9040   75.9970  222.7230 C   0  0  0  0  0  0  0  0  0  0  0  0
  137.4380   75.9280  222.2960 C   0  0  2  0  0  0  0  0  0  0  0  0
  137.0000   74.6070  222.4200 O   0  0  0  0  0  0  0  0  0  0  0  0
  137.3930   76.3550  220.8460 C   0  0  0  0  0  0  0  0  0  0  0  0
  138.7430   77.1320  220.7470 C   0  0  1  0  0  0  0  0  0  0  0  0
  138.4800   78.3860  221.5510 C   0  0  0  0  0  0  0  0  0  0  0  0
  139.4230   79.3630  221.4110 O   0  0  0  0  0  0  0  0  0  0  0  0
  140.2340   79.4460  222.5500 C   0  0  0  0  0  0  0  0  0  0  0  0
  140.1350   80.8440  223.0760 C   0  0  0  0  0  0  0  0  0  0  0  0
  141.4510   81.5680  222.8940 C   0  0  0  0  0  0  0  0  0  0  0  0
  142.5380   80.8410  223.6330 C   0  0  0  0  0  0  0  0  0  0  0  0
  142.6850   79.4350  223.0970 C   0  0  0  0  0  0  0  0  0  0  0  0
  141.6270   79.0910  222.0900 C   0  0  0  0  0  0  0  0  0  0  0  0
  139.7760   71.5000  223.5820 C   0  0  0  0  0  0  0  0  0  0  0  0
  139.1770   70.2640  223.4770 C   0  0  0  0  0  0  0  0  0  0  0  0
  139.1670   69.3630  224.5380 C   0  0  0  0  0  0  0  0  0  0  0  0
  139.7920   69.7830  225.7010 C   0  0  0  0  0  0  0  0  0  0  0  0
  139.8250   68.9520  226.7980 C   0  0  0  0  0  0  0  0  0  0  0  0
  140.4530   69.3730  227.9640 C   0  0  0  0  0  0  0  0  0  0  0  0
  140.5100   68.5880  229.0680 F   0  0  0  0  0  0  0  0  0  0  0  0
  141.0410   70.6350  228.0090 C   0  0  0  0  0  0  0  0  0  0  0  0
  141.0210   71.4810  226.9290 C   0  0  0  0  0  0  0  0  0  0  0  0
  140.3940   71.0430  225.7860 C   0  0  0  0  0  0  0  0  0  0  0  0
  140.3700   71.8630  224.7300 N   0  0  0  0  0  0  0  0  0  0  0  0
  141.7490   72.9700  222.6460 H   0  0  0  0  0  0  0  0  0  0  0  0
  141.9959   73.9290  220.5218 H   0  0  0  0  0  0  0  0  0  0  0  0
  140.1385   73.7013  220.2974 H   0  0  0  0  0  0  0  0  0  0  0  0
  139.2234   75.0681  223.2182 H   0  0  0  0  0  0  0  0  0  0  0  0
  139.1234   76.7886  223.4546 H   0  0  0  0  0  0  0  0  0  0  0  0
  136.7950   76.5731  222.9127 H   0  0  0  0  0  0  0  0  0  0  0  0
  137.7430   74.0910  222.8230 H   0  0  0  0  0  0  0  0  0  0  0  0
  137.3696   75.4901  220.1668 H   0  0  0  0  0  0  0  0  0  0  0  0
  136.5032   76.9365  220.5629 H   0  0  0  0  0  0  0  0  0  0  0  0
  139.1591   77.4408  219.7767 H   0  0  0  0  0  0  0  0  0  0  0  0
  137.5104   78.7982  221.2350 H   0  0  0  0  0  0  0  0  0  0  0  0
  138.4993   78.0857  222.6090 H   0  0  0  0  0  0  0  0  0  0  0  0
  139.9391   78.7672  223.3638 H   0  0  0  0  0  0  0  0  0  0  0  0
  139.3462   81.3822  222.5299 H   0  0  0  0  0  0  0  0  0  0  0  0
  139.8926   80.8065  224.1483 H   0  0  0  0  0  0  0  0  0  0  0  0
  141.7008   81.6079  221.8235 H   0  0  0  0  0  0  0  0  0  0  0  0
  141.3617   82.5896  223.2921 H   0  0  0  0  0  0  0  0  0  0  0  0
  143.4881   81.3801  223.5039 H   0  0  0  0  0  0  0  0  0  0  0  0
  142.2753   80.7922  224.7000 H   0  0  0  0  0  0  0  0  0  0  0  0
  143.6712   79.3409  222.6189 H   0  0  0  0  0  0  0  0  0  0  0  0
  142.5788   78.7413  223.9440 H   0  0  0  0  0  0  0  0  0  0  0  0
  141.8384   79.6380  221.1594 H   0  0  0  0  0  0  0  0  0  0  0  0
  141.6561   78.0013  221.9429 H   0  0  0  0  0  0  0  0  0  0  0  0
  138.6939   69.9816  222.5300 H   0  0  0  0  0  0  0  0  0  0  0  0
  138.6905   68.3748  224.4577 H   0  0  0  0  0  0  0  0  0  0  0  0
  139.3559   67.9581  226.7518 H   0  0  0  0  0  0  0  0  0  0  0  0
  141.5349   70.9623  228.9358 H   0  0  0  0  0  0  0  0  0  0  0  0
  141.4901   72.4749  226.9757 H   0  0  0  0  0  0  0  0  0  0  0  0
  1  2  2  0
  2  3  1  0
  3  4  1  0
  4  5  1  0
  5  6  2  0
  5  7  1  0
  7  8  1  0
  8  9  1  0
  9 10  1  0
  9 11  1  0
 11 12  1  0
 12 13  1  0
 13 14  1  0
 14 15  1  0
 15 16  1  0
 16 17  1  0
 17 18  1  0
 18 19  1  0
 19 20  1  0
  2 21  1  0
 21 22  2  0
 22 23  1  0
 23 24  2  0
 24 25  1  0
 25 26  2  0
 26 27  1  0
 26 28  1  0
 28 29  2  0
 29 30  1  0
 30 31  2  0
 12  7  1  0
 20 15  1  0
 31 21  1  0
 30 24  1  0
  3 32  1  0
  4 33  1  0
  4 34  1  0
  8 35  1  0
  8 36  1  0
  9 37  1  1
 10 38  1  0
 11 39  1  0
 11 40  1  0
 12 41  1  6
 13 42  1  0
 13 43  1  0
 15 44  1  0
 16 45  1  0
 16 46  1  0
 17 47  1  0
 17 48  1  0
 18 49  1  0
 18 50  1  0
 19 51  1  0
 19 52  1  0
 20 53  1  0
 20 54  1  0
 22 55  1  0
 23 56  1  0
 25 57  1  0
 28 58  1  0
 29 59  1  0
M  END
>  <smiles>  (14) 
O=C(NCC(=O)N1C[C@H](O)C[C@H]1COC1CCCCC1)c1ccc2cc(F)ccc2n1

>  <score_type>  (14) 
oracle

>  <origin>  (14) 
autodockgpu

>  <m_score__min__energy>  (14) 
-8.2599999999999998

>  <m_primary>  (14) 
energy

>  <rmsd>  (14) 
2.8665559291120095

>  <m_score__min__rmsd>  (14) 
2.8665559291120095

>  <meeko>  (14) 
{"free_energy": -7.48, "intermolecular_energy": -9.87, "internal_energy": -2.57, "cluster_size": 43, "cluster_id": 1, "rank_in_cluster": 20}

>  <energy>  (14) 
-7.59

>  <cluster_rmsd>  (14) 
1.64

>  <cluster>  (14) 
1

$$$$

     RDKit          3D

 59 62  0  0  0  0  0  0  0  0999 V2000
  138.2780   72.5050  222.2680 O   0  0  0  0  0  0  0  0  0  0  0  0
  139.3940   72.2470  222.7370 C   0  0  0  0  0  0  0  0  0  0  0  0
  140.5190   72.9280  222.1770 N   0  0  0  0  0  0  0  0  0  0  0  0
  140.4660   73.8790  221.1320 C   0  0  0  0  0  0  0  0  0  0  0  0
  140.3590   75.2960  221.4270 C   0  0  0  0  0  0  0  0  0  0  0  0
  141.5140   75.9220  221.4460 O   0  0  0  0  0  0  0  0  0  0  0  0
  139.2780   76.1330  221.6990 N   0  0  0  0  0  0  0  0  0  0  0  0
  138.5650   76.0290  223.0070 C   0  0  0  0  0  0  0  0  0  0  0  0
  137.1050   76.0840  222.5580 C   0  0  2  0  0  0  0  0  0  0  0  0
  136.5500   74.8080  222.6860 O   0  0  0  0  0  0  0  0  0  0  0  0
  137.1190   76.4980  221.1030 C   0  0  0  0  0  0  0  0  0  0  0  0
  138.5340   77.1530  221.0180 C   0  0  1  0  0  0  0  0  0  0  0  0
  138.3710   78.4330  221.8070 C   0  0  0  0  0  0  0  0  0  0  0  0
  139.3670   79.3490  221.6240 O   0  0  0  0  0  0  0  0  0  0  0  0
  140.3460   79.2330  222.6180 C   0  0  0  0  0  0  0  0  0  0  0  0
  140.2100   80.4130  223.5290 C   0  0  0  0  0  0  0  0  0  0  0  0
  141.4050   81.3290  223.3830 C   0  0  0  0  0  0  0  0  0  0  0  0
  142.6620   80.5830  223.7310 C   0  0  0  0  0  0  0  0  0  0  0  0
  142.8450   79.4040  222.8030 C   0  0  0  0  0  0  0  0  0  0  0  0
  141.6690   79.2030  221.8920 C   0  0  0  0  0  0  0  0  0  0  0  0
  139.5660   71.2800  223.8280 C   0  0  0  0  0  0  0  0  0  0  0  0
  139.0930   69.9990  223.6470 C   0  0  0  0  0  0  0  0  0  0  0  0
  139.2190   69.0260  224.6350 C   0  0  0  0  0  0  0  0  0  0  0  0
  139.8450   69.4230  225.8060 C   0  0  0  0  0  0  0  0  0  0  0  0
  140.0090   68.5210  226.8330 C   0  0  0  0  0  0  0  0  0  0  0  0
  140.6380   68.9190  228.0070 C   0  0  0  0  0  0  0  0  0  0  0  0
  140.8210   68.0650  229.0430 F   0  0  0  0  0  0  0  0  0  0  0  0
  141.0940   70.2290  228.1290 C   0  0  0  0  0  0  0  0  0  0  0  0
  140.9420   71.1460  227.1200 C   0  0  0  0  0  0  0  0  0  0  0  0
  140.3180   70.7290  225.9680 C   0  0  0  0  0  0  0  0  0  0  0  0
  140.1660   71.6180  224.9800 N   0  0  0  0  0  0  0  0  0  0  0  0
  141.4480   72.6640  222.6150 H   0  0  0  0  0  0  0  0  0  0  0  0
  141.3849   73.7491  220.5415 H   0  0  0  0  0  0  0  0  0  0  0  0
  139.5055   73.6558  220.6446 H   0  0  0  0  0  0  0  0  0  0  0  0
  138.7942   75.0813  223.5162 H   0  0  0  0  0  0  0  0  0  0  0  0
  138.8421   76.8066  223.7340 H   0  0  0  0  0  0  0  0  0  0  0  0
  136.5128   76.7891  223.1597 H   0  0  0  0  0  0  0  0  0  0  0  0
  137.2480   74.2260  223.0800 H   0  0  0  0  0  0  0  0  0  0  0  0
  137.0299   75.6313  220.4316 H   0  0  0  0  0  0  0  0  0  0  0  0
  136.2879   77.1521  220.8005 H   0  0  0  0  0  0  0  0  0  0  0  0
  138.9895   77.4144  220.0515 H   0  0  0  0  0  0  0  0  0  0  0  0
  137.4193   78.8985  221.5112 H   0  0  0  0  0  0  0  0  0  0  0  0
  138.4032   78.1484  222.8691 H   0  0  0  0  0  0  0  0  0  0  0  0
  140.2542   78.3283  223.2370 H   0  0  0  0  0  0  0  0  0  0  0  0
  139.2949   80.9665  223.2718 H   0  0  0  0  0  0  0  0  0  0  0  0
  140.1559   80.0581  224.5688 H   0  0  0  0  0  0  0  0  0  0  0  0
  141.4674   81.6855  222.3442 H   0  0  0  0  0  0  0  0  0  0  0  0
  141.2911   82.1866  224.0623 H   0  0  0  0  0  0  0  0  0  0  0  0
  143.5242   81.2591  223.6335 H   0  0  0  0  0  0  0  0  0  0  0  0
  142.5863   80.2164  224.7654 H   0  0  0  0  0  0  0  0  0  0  0  0
  143.7420   79.5738  222.1893 H   0  0  0  0  0  0  0  0  0  0  0  0
  142.9454   78.5016  223.4240 H   0  0  0  0  0  0  0  0  0  0  0  0
  141.6715   80.0017  221.1356 H   0  0  0  0  0  0  0  0  0  0  0  0
  141.7719   78.2061  221.4385 H   0  0  0  0  0  0  0  0  0  0  0  0
  138.6031   69.7380  222.6974 H   0  0  0  0  0  0  0  0  0  0  0  0
  138.8435   68.0017  224.4943 H   0  0  0  0  0  0  0  0  0  0  0  0
  139.6436   67.4891  226.7250 H   0  0  0  0  0  0  0  0  0  0  0  0
  141.5902   70.5374  229.0610 H   0  0  0  0  0  0  0  0  0  0  0  0
  141.3064   72.1782  227.2288 H   0  0  0  0  0  0  0  0  0  0  0  0
  1  2  2  0
  2  3  1  0
  3  4  1  0
  4  5  1  0
  5  6  2  0
  5  7  1  0
  7  8  1  0
  8  9  1  0
  9 10  1  0
  9 11  1  0
 11 12  1  0
 12 13  1  0
 13 14  1  0
 14 15  1  0
 15 16  1  0
 16 17  1  0
 17 18  1  0
 18 19  1  0
 19 20  1  0
  2 21  1  0
 21 22  2  0
 22 23  1  0
 23 24  2  0
 24 25  1  0
 25 26  2  0
 26 27  1  0
 26 28  1  0
 28 29  2  0
 29 30  1  0
 30 31  2  0
 12  7  1  0
 20 15  1  0
 31 21  1  0
 30 24  1  0
  3 32  1  0
  4 33  1  0
  4 34  1  0
  8 35  1  0
  8 36  1  0
  9 37  1  1
 10 38  1  0
 11 39  1  0
 11 40  1  0
 12 41  1  6
 13 42  1  0
 13 43  1  0
 15 44  1  0
 16 45  1  0
 16 46  1  0
 17 47  1  0
 17 48  1  0
 18 49  1  0
 18 50  1  0
 19 51  1  0
 19 52  1  0
 20 53  1  0
 20 54  1  0
 22 55  1  0
 23 56  1  0
 25 57  1  0
 28 58  1  0
 29 59  1  0
M  END
>  <smiles>  (15) 
O=C(NCC(=O)N1C[C@H](O)C[C@H]1COC1CCCCC1)c1ccc2cc(F)ccc2n1

>  <score_type>  (15) 
oracle

>  <origin>  (15) 
autodockgpu

>  <m_score__min__energy>  (15) 
-8.2599999999999998

>  <m_primary>  (15) 
energy

>  <rmsd>  (15) 
2.9319634386469975

>  <m_score__min__rmsd>  (15) 
2.9319634386469975

>  <meeko>  (15) 
{"free_energy": -7.4, "intermolecular_energy": -9.79, "internal_energy": -2.47, "cluster_size": 43, "cluster_id": 1, "rank_in_cluster": 24}

>  <energy>  (15) 
-7.55

>  <cluster_rmsd>  (15) 
1.58

>  <cluster>  (15) 
1

$$$$

     RDKit          3D

 59 62  0  0  0  0  0  0  0  0999 V2000
  139.6700   72.1870  220.6010 O   0  0  0  0  0  0  0  0  0  0  0  0
  140.5640   71.9530  221.4240 C   0  0  0  0  0  0  0  0  0  0  0  0
  141.9070   72.2620  221.0450 N   0  0  0  0  0  0  0  0  0  0  0  0
  142.3020   72.8180  219.8060 C   0  0  0  0  0  0  0  0  0  0  0  0
  142.1820   74.2440  219.5640 C   0  0  0  0  0  0  0  0  0  0  0  0
  142.8190   74.6550  218.4900 O   0  0  0  0  0  0  0  0  0  0  0  0
  141.5300   75.2730  220.2410 N   0  0  0  0  0  0  0  0  0  0  0  0
  141.4330   75.2420  221.7300 C   0  0  0  0  0  0  0  0  0  0  0  0
  139.9710   75.6350  221.9440 C   0  0  2  0  0  0  0  0  0  0  0  0
  139.2580   74.5010  222.3410 O   0  0  0  0  0  0  0  0  0  0  0  0
  139.4600   76.1270  220.6080 C   0  0  0  0  0  0  0  0  0  0  0  0
  140.8120   76.4680  219.9060 C   0  0  1  0  0  0  0  0  0  0  0  0
  141.2820   77.7030  220.6440 C   0  0  0  0  0  0  0  0  0  0  0  0
  140.3360   78.6750  220.7930 O   0  0  0  0  0  0  0  0  0  0  0  0
  140.4880   79.3430  222.0140 C   0  0  0  0  0  0  0  0  0  0  0  0
  141.2000   80.6310  221.7410 C   0  0  0  0  0  0  0  0  0  0  0  0
  142.5900   80.5990  222.3370 C   0  0  0  0  0  0  0  0  0  0  0  0
  142.5020   80.3930  223.8230 C   0  0  0  0  0  0  0  0  0  0  0  0
  141.8170   79.0800  224.1290 C   0  0  0  0  0  0  0  0  0  0  0  0
  141.2820   78.4110  222.8970 C   0  0  0  0  0  0  0  0  0  0  0  0
  140.2670   71.3820  222.7430 C   0  0  0  0  0  0  0  0  0  0  0  0
  139.3800   70.3310  222.8160 C   0  0  0  0  0  0  0  0  0  0  0  0
  139.0480   69.7360  224.0300 C   0  0  0  0  0  0  0  0  0  0  0  0
  139.6610   70.2630  225.1560 C   0  0  0  0  0  0  0  0  0  0  0  0
  139.3860   69.7320  226.3960 C   0  0  0  0  0  0  0  0  0  0  0  0
  140.0020   70.2620  227.5240 C   0  0  0  0  0  0  0  0  0  0  0  0
  139.7610   69.7700  228.7650 F   0  0  0  0  0  0  0  0  0  0  0  0
  140.8900   71.3250  227.3860 C   0  0  0  0  0  0  0  0  0  0  0  0
  141.1790   71.8720  226.1610 C   0  0  0  0  0  0  0  0  0  0  0  0
  140.5590   71.3320  225.0580 C   0  0  0  0  0  0  0  0  0  0  0  0
  140.8360   71.8600  223.8610 N   0  0  0  0  0  0  0  0  0  0  0  0
  142.6300   72.0380  221.7870 H   0  0  0  0  0  0  0  0  0  0  0  0
  143.3639   72.5644  219.6716 H   0  0  0  0  0  0  0  0  0  0  0  0
  141.5768   72.3867  219.1003 H   0  0  0  0  0  0  0  0  0  0  0  0
  141.6419   74.2373  222.1262 H   0  0  0  0  0  0  0  0  0  0  0  0
  142.1545   75.8958  222.2418 H   0  0  0  0  0  0  0  0  0  0  0  0
  139.8582   76.4110  222.7154 H   0  0  0  0  0  0  0  0  0  0  0  0
  139.1530   73.9280  221.5400 H   0  0  0  0  0  0  0  0  0  0  0  0
  138.9071   75.3434  220.0692 H   0  0  0  0  0  0  0  0  0  0  0  0
  138.7456   76.9615  220.6653 H   0  0  0  0  0  0  0  0  0  0  0  0
  140.8624   76.6850  218.8288 H   0  0  0  0  0  0  0  0  0  0  0  0
  141.6180   77.3961  221.6454 H   0  0  0  0  0  0  0  0  0  0  0  0
  142.0841   78.1425  220.0329 H   0  0  0  0  0  0  0  0  0  0  0  0
  139.5396   79.5915  222.5127 H   0  0  0  0  0  0  0  0  0  0  0  0
  141.2747   80.7810  220.6538 H   0  0  0  0  0  0  0  0  0  0  0  0
  140.6339   81.4565  222.1972 H   0  0  0  0  0  0  0  0  0  0  0  0
  143.1613   79.7737  221.8871 H   0  0  0  0  0  0  0  0  0  0  0  0
  143.0952   81.5544  222.1320 H   0  0  0  0  0  0  0  0  0  0  0  0
  143.5162   80.3815  224.2488 H   0  0  0  0  0  0  0  0  0  0  0  0
  141.9181   81.2138  224.2650 H   0  0  0  0  0  0  0  0  0  0  0  0
  142.5425   78.4070  224.6092 H   0  0  0  0  0  0  0  0  0  0  0  0
  140.9646   79.2936  224.7906 H   0  0  0  0  0  0  0  0  0  0  0  0
  142.1293   78.0164  222.3170 H   0  0  0  0  0  0  0  0  0  0  0  0
  140.6011   77.6126  223.2270 H   0  0  0  0  0  0  0  0  0  0  0  0
  138.9218   69.9517  221.8907 H   0  0  0  0  0  0  0  0  0  0  0  0
  138.3402   68.8963  224.0921 H   0  0  0  0  0  0  0  0  0  0  0  0
  138.6822   68.8923  226.4938 H   0  0  0  0  0  0  0  0  0  0  0  0
  141.3734   71.7380  228.2836 H   0  0  0  0  0  0  0  0  0  0  0  0
  141.8817   72.7127  226.0644 H   0  0  0  0  0  0  0  0  0  0  0  0
  1  2  2  0
  2  3  1  0
  3  4  1  0
  4  5  1  0
  5  6  2  0
  5  7  1  0
  7  8  1  0
  8  9  1  0
  9 10  1  0
  9 11  1  0
 11 12  1  0
 12 13  1  0
 13 14  1  0
 14 15  1  0
 15 16  1  0
 16 17  1  0
 17 18  1  0
 18 19  1  0
 19 20  1  0
  2 21  1  0
 21 22  2  0
 22 23  1  0
 23 24  2  0
 24 25  1  0
 25 26  2  0
 26 27  1  0
 26 28  1  0
 28 29  2  0
 29 30  1  0
 30 31  2  0
 12  7  1  0
 20 15  1  0
 31 21  1  0
 30 24  1  0
  3 32  1  0
  4 33  1  0
  4 34  1  0
  8 35  1  0
  8 36  1  0
  9 37  1  1
 10 38  1  0
 11 39  1  0
 11 40  1  0
 12 41  1  6
 13 42  1  0
 13 43  1  0
 15 44  1  0
 16 45  1  0
 16 46  1  0
 17 47  1  0
 17 48  1  0
 18 49  1  0
 18 50  1  0
 19 51  1  0
 19 52  1  0
 20 53  1  0
 20 54  1  0
 22 55  1  0
 23 56  1  0
 25 57  1  0
 28 58  1  0
 29 59  1  0
M  END
>  <smiles>  (16) 
O=C(NCC(=O)N1C[C@H](O)C[C@H]1COC1CCCCC1)c1ccc2cc(F)ccc2n1

>  <score_type>  (16) 
oracle

>  <origin>  (16) 
autodockgpu

>  <m_score__min__energy>  (16) 
-8.2599999999999998

>  <m_primary>  (16) 
energy

>  <rmsd>  (16) 
2.917690387480779

>  <m_score__min__rmsd>  (16) 
2.917690387480779

>  <meeko>  (16) 
{"free_energy": -6.83, "intermolecular_energy": -9.21, "internal_energy": -2.69, "cluster_size": 43, "cluster_id": 1, "rank_in_cluster": 40}

>  <energy>  (16) 
-7.55

>  <cluster_rmsd>  (16) 
1.36

>  <cluster>  (16) 
1

$$$$

     RDKit          3D

 59 62  0  0  0  0  0  0  0  0999 V2000
  139.3710   71.8670  221.5770 O   0  0  0  0  0  0  0  0  0  0  0  0
  138.7420   71.8400  222.6420 C   0  0  0  0  0  0  0  0  0  0  0  0
  137.5680   72.6510  222.7360 N   0  0  0  0  0  0  0  0  0  0  0  0
  137.0600   73.4800  221.7100 C   0  0  0  0  0  0  0  0  0  0  0  0
  137.6080   74.8070  221.4930 C   0  0  0  0  0  0  0  0  0  0  0  0
  136.6950   75.7480  221.4020 O   0  0  0  0  0  0  0  0  0  0  0  0
  138.9080   75.2890  221.3550 N   0  0  0  0  0  0  0  0  0  0  0  0
  139.4880   75.4930  219.9940 C   0  0  0  0  0  0  0  0  0  0  0  0
  140.8840   74.8950  220.1710 C   0  0  2  0  0  0  0  0  0  0  0  0
  140.9330   73.6720  219.4960 O   0  0  0  0  0  0  0  0  0  0  0  0
  141.0720   74.6760  221.6550 C   0  0  0  0  0  0  0  0  0  0  0  0
  139.9940   75.6570  222.2160 C   0  0  1  0  0  0  0  0  0  0  0  0
  140.5830   77.0200  221.9250 C   0  0  0  0  0  0  0  0  0  0  0  0
  139.6850   78.0480  221.9500 O   0  0  0  0  0  0  0  0  0  0  0  0
  140.2000   79.1480  222.6470 C   0  0  0  0  0  0  0  0  0  0  0  0
  140.5230   80.2100  221.6420 C   0  0  0  0  0  0  0  0  0  0  0  0
  142.0200   80.4050  221.5470 C   0  0  0  0  0  0  0  0  0  0  0  0
  142.5640   80.8140  222.8860 C   0  0  0  0  0  0  0  0  0  0  0  0
  142.2830   79.7430  223.9160 C   0  0  0  0  0  0  0  0  0  0  0  0
  141.4200   78.6410  223.3760 C   0  0  0  0  0  0  0  0  0  0  0  0
  139.1760   71.0100  223.7720 C   0  0  0  0  0  0  0  0  0  0  0  0
  139.0170   69.6450  223.6810 C   0  0  0  0  0  0  0  0  0  0  0  0
  139.4040   68.7930  224.7110 C   0  0  0  0  0  0  0  0  0  0  0  0
  139.9560   69.3970  225.8280 C   0  0  0  0  0  0  0  0  0  0  0  0
  140.3650   68.6240  226.8920 C   0  0  0  0  0  0  0  0  0  0  0  0
  140.9190   69.2310  228.0130 C   0  0  0  0  0  0  0  0  0  0  0  0
  141.3350   68.5100  229.0820 F   0  0  0  0  0  0  0  0  0  0  0  0
  141.0540   70.6170  228.0460 C   0  0  0  0  0  0  0  0  0  0  0  0
  140.6540   71.4080  226.9980 C   0  0  0  0  0  0  0  0  0  0  0  0
  140.1090   70.7860  225.9000 C   0  0  0  0  0  0  0  0  0  0  0  0
  139.7160   71.5510  224.8760 N   0  0  0  0  0  0  0  0  0  0  0  0
  137.0730   72.5910  223.6720 H   0  0  0  0  0  0  0  0  0  0  0  0
  137.1885   72.9284  220.7671 H   0  0  0  0  0  0  0  0  0  0  0  0
  136.0342   73.6892  222.0475 H   0  0  0  0  0  0  0  0  0  0  0  0
  138.9133   74.9540  219.2264 H   0  0  0  0  0  0  0  0  0  0  0  0
  139.4857   76.5396  219.6554 H   0  0  0  0  0  0  0  0  0  0  0  0
  141.6709   75.5515  219.7712 H   0  0  0  0  0  0  0  0  0  0  0  0
  140.4460   73.0130  220.0530 H   0  0  0  0  0  0  0  0  0  0  0  0
  140.8649   73.6347  221.9429 H   0  0  0  0  0  0  0  0  0  0  0  0
  142.0936   74.8529  222.0224 H   0  0  0  0  0  0  0  0  0  0  0  0
  139.6978   75.6422  223.2753 H   0  0  0  0  0  0  0  0  0  0  0  0
  141.3593   77.2251  222.6769 H   0  0  0  0  0  0  0  0  0  0  0  0
  140.9750   76.9756  220.8982 H   0  0  0  0  0  0  0  0  0  0  0  0
  139.5023   79.5862  223.3759 H   0  0  0  0  0  0  0  0  0  0  0  0
  140.1331   79.9094  220.6583 H   0  0  0  0  0  0  0  0  0  0  0  0
  140.0584   81.1555  221.9586 H   0  0  0  0  0  0  0  0  0  0  0  0
  142.4922   79.4624  221.2331 H   0  0  0  0  0  0  0  0  0  0  0  0
  142.2385   81.1915  220.8097 H   0  0  0  0  0  0  0  0  0  0  0  0
  143.6508   80.9641  222.8057 H   0  0  0  0  0  0  0  0  0  0  0  0
  142.0767   81.7489  223.1998 H   0  0  0  0  0  0  0  0  0  0  0  0
  143.2394   79.3123  224.2474 H   0  0  0  0  0  0  0  0  0  0  0  0
  141.7419   80.2140  224.7499 H   0  0  0  0  0  0  0  0  0  0  0  0
  142.0189   78.0371  222.6784 H   0  0  0  0  0  0  0  0  0  0  0  0
  141.0674   78.0500  224.2341 H   0  0  0  0  0  0  0  0  0  0  0  0
  138.5725   69.2171  222.7704 H   0  0  0  0  0  0  0  0  0  0  0  0
  139.2786   67.7024  224.6418 H   0  0  0  0  0  0  0  0  0  0  0  0
  140.2537   67.5303  226.8548 H   0  0  0  0  0  0  0  0  0  0  0  0
  141.4932   71.0906  228.9364 H   0  0  0  0  0  0  0  0  0  0  0  0
  140.7657   72.5017  227.0355 H   0  0  0  0  0  0  0  0  0  0  0  0
  1  2  2  0
  2  3  1  0
  3  4  1  0
  4  5  1  0
  5  6  2  0
  5  7  1  0
  7  8  1  0
  8  9  1  0
  9 10  1  0
  9 11  1  0
 11 12  1  0
 12 13  1  0
 13 14  1  0
 14 15  1  0
 15 16  1  0
 16 17  1  0
 17 18  1  0
 18 19  1  0
 19 20  1  0
  2 21  1  0
 21 22  2  0
 22 23  1  0
 23 24  2  0
 24 25  1  0
 25 26  2  0
 26 27  1  0
 26 28  1  0
 28 29  2  0
 29 30  1  0
 30 31  2  0
 12  7  1  0
 20 15  1  0
 31 21  1  0
 30 24  1  0
  3 32  1  0
  4 33  1  0
  4 34  1  0
  8 35  1  0
  8 36  1  0
  9 37  1  6
 10 38  1  0
 11 39  1  0
 11 40  1  0
 12 41  1  1
 13 42  1  0
 13 43  1  0
 15 44  1  0
 16 45  1  0
 16 46  1  0
 17 47  1  0
 17 48  1  0
 18 49  1  0
 18 50  1  0
 19 51  1  0
 19 52  1  0
 20 53  1  0
 20 54  1  0
 22 55  1  0
 23 56  1  0
 25 57  1  0
 28 58  1  0
 29 59  1  0
M  END
>  <smiles>  (17) 
O=C(NCC(=O)N1C[C@H](O)C[C@H]1COC1CCCCC1)c1ccc2cc(F)ccc2n1

>  <score_type>  (17) 
oracle

>  <origin>  (17) 
autodockgpu

>  <m_score__min__energy>  (17) 
-8.2599999999999998

>  <m_primary>  (17) 
energy

>  <rmsd>  (17) 
2.1003366733990863

>  <m_score__min__rmsd>  (17) 
2.1003366733990863

>  <meeko>  (17) 
{"free_energy": -7.07, "intermolecular_energy": -9.45, "internal_energy": -2.41, "cluster_size": 43, "cluster_id": 1, "rank_in_cluster": 32}

>  <energy>  (17) 
-7.53

>  <cluster_rmsd>  (17) 
1.35

>  <cluster>  (17) 
1

$$$$

     RDKit          3D

 59 62  0  0  0  0  0  0  0  0999 V2000
  139.3070   72.6870  221.3560 O   0  0  0  0  0  0  0  0  0  0  0  0
  140.2490   72.1540  221.9540 C   0  0  0  0  0  0  0  0  0  0  0  0
  141.5470   72.2500  221.3620 N   0  0  0  0  0  0  0  0  0  0  0  0
  141.8470   72.9090  220.1470 C   0  0  0  0  0  0  0  0  0  0  0  0
  142.1270   74.3330  220.1290 C   0  0  0  0  0  0  0  0  0  0  0  0
  143.2910   74.6370  219.6020 O   0  0  0  0  0  0  0  0  0  0  0  0
  141.4130   75.4500  220.5620 N   0  0  0  0  0  0  0  0  0  0  0  0
  140.9970   75.5610  221.9920 C   0  0  0  0  0  0  0  0  0  0  0  0
  139.5520   76.0390  221.8470 C   0  0  2  0  0  0  0  0  0  0  0  0
  138.6980   74.9800  222.1690 O   0  0  0  0  0  0  0  0  0  0  0  0
  139.3720   76.4270  220.3970 C   0  0  0  0  0  0  0  0  0  0  0  0
  140.8620   76.6400  219.9830 C   0  0  1  0  0  0  0  0  0  0  0  0
  141.2430   77.9150  220.7040 C   0  0  0  0  0  0  0  0  0  0  0  0
  140.2140   78.7920  220.8950 O   0  0  0  0  0  0  0  0  0  0  0  0
  140.3640   79.4870  222.1020 C   0  0  0  0  0  0  0  0  0  0  0  0
  140.9660   80.8210  221.7850 C   0  0  0  0  0  0  0  0  0  0  0  0
  142.3770   80.9020  222.3250 C   0  0  0  0  0  0  0  0  0  0  0  0
  142.3620   80.7110  223.8150 C   0  0  0  0  0  0  0  0  0  0  0  0
  141.7910   79.3550  224.1640 C   0  0  0  0  0  0  0  0  0  0  0  0
  141.2600   78.6300  222.9630 C   0  0  0  0  0  0  0  0  0  0  0  0
  140.0530   71.4470  223.2260 C   0  0  0  0  0  0  0  0  0  0  0  0
  139.2650   70.3170  223.2320 C   0  0  0  0  0  0  0  0  0  0  0  0
  139.0320   69.5940  224.3980 C   0  0  0  0  0  0  0  0  0  0  0  0
  139.6390   70.0750  225.5470 C   0  0  0  0  0  0  0  0  0  0  0  0
  139.4590   69.4170  226.7430 C   0  0  0  0  0  0  0  0  0  0  0  0
  140.0680   69.9010  227.8950 C   0  0  0  0  0  0  0  0  0  0  0  0
  139.9180   69.2850  229.0930 F   0  0  0  0  0  0  0  0  0  0  0  0
  140.8540   71.0480  227.8240 C   0  0  0  0  0  0  0  0  0  0  0  0
  141.0480   71.7220  226.6440 C   0  0  0  0  0  0  0  0  0  0  0  0
  140.4360   71.2250  225.5170 C   0  0  0  0  0  0  0  0  0  0  0  0
  140.6200   71.8760  224.3640 N   0  0  0  0  0  0  0  0  0  0  0  0
  142.3130   71.7710  221.9160 H   0  0  0  0  0  0  0  0  0  0  0  0
  142.7325   72.4088  219.7279 H   0  0  0  0  0  0  0  0  0  0  0  0
  140.9027   72.8363  219.5875 H   0  0  0  0  0  0  0  0  0  0  0  0
  141.0501   74.5886  222.5035 H   0  0  0  0  0  0  0  0  0  0  0  0
  141.6328   76.2250  222.5960 H   0  0  0  0  0  0  0  0  0  0  0  0
  139.3273   76.8883  222.5089 H   0  0  0  0  0  0  0  0  0  0  0  0
  139.2120   74.3550  222.7400 H   0  0  0  0  0  0  0  0  0  0  0  0
  138.8983   75.6224  219.8154 H   0  0  0  0  0  0  0  0  0  0  0  0
  138.7171   77.2946  220.2287 H   0  0  0  0  0  0  0  0  0  0  0  0
  141.1550   76.7542  218.9289 H   0  0  0  0  0  0  0  0  0  0  0  0
  141.6488   77.6431  221.6896 H   0  0  0  0  0  0  0  0  0  0  0  0
  141.9736   78.4285  220.0617 H   0  0  0  0  0  0  0  0  0  0  0  0
  139.4202   79.6708  222.6362 H   0  0  0  0  0  0  0  0  0  0  0  0
  140.9865   80.9599  220.6940 H   0  0  0  0  0  0  0  0  0  0  0  0
  140.3577   81.6086  222.2538 H   0  0  0  0  0  0  0  0  0  0  0  0
  142.9912   80.1156  221.8620 H   0  0  0  0  0  0  0  0  0  0  0  0
  142.8006   81.8894  222.0891 H   0  0  0  0  0  0  0  0  0  0  0  0
  143.3898   80.7822  224.2004 H   0  0  0  0  0  0  0  0  0  0  0  0
  141.7344   81.4916  224.2697 H   0  0  0  0  0  0  0  0  0  0  0  0
  142.5838   78.7455  224.6222 H   0  0  0  0  0  0  0  0  0  0  0  0
  140.9518   79.5136  224.8573 H   0  0  0  0  0  0  0  0  0  0  0  0
  142.1111   78.2914  222.3539 H   0  0  0  0  0  0  0  0  0  0  0  0
  140.6547   77.7878  223.3295 H   0  0  0  0  0  0  0  0  0  0  0  0
  138.8081   69.9774  222.2907 H   0  0  0  0  0  0  0  0  0  0  0  0
  138.4020   68.6923  224.4070 H   0  0  0  0  0  0  0  0  0  0  0  0
  138.8356   68.5117  226.7867 H   0  0  0  0  0  0  0  0  0  0  0  0
  141.3332   71.4249  228.7396 H   0  0  0  0  0  0  0  0  0  0  0  0
  141.6709   72.6276  226.6013 H   0  0  0  0  0  0  0  0  0  0  0  0
  1  2  2  0
  2  3  1  0
  3  4  1  0
  4  5  1  0
  5  6  2  0
  5  7  1  0
  7  8  1  0
  8  9  1  0
  9 10  1  0
  9 11  1  0
 11 12  1  0
 12 13  1  0
 13 14  1  0
 14 15  1  0
 15 16  1  0
 16 17  1  0
 17 18  1  0
 18 19  1  0
 19 20  1  0
  2 21  1  0
 21 22  2  0
 22 23  1  0
 23 24  2  0
 24 25  1  0
 25 26  2  0
 26 27  1  0
 26 28  1  0
 28 29  2  0
 29 30  1  0
 30 31  2  0
 12  7  1  0
 20 15  1  0
 31 21  1  0
 30 24  1  0
  3 32  1  0
  4 33  1  0
  4 34  1  0
  8 35  1  0
  8 36  1  0
  9 37  1  1
 10 38  1  0
 11 39  1  0
 11 40  1  0
 12 41  1  6
 13 42  1  0
 13 43  1  0
 15 44  1  0
 16 45  1  0
 16 46  1  0
 17 47  1  0
 17 48  1  0
 18 49  1  0
 18 50  1  0
 19 51  1  0
 19 52  1  0
 20 53  1  0
 20 54  1  0
 22 55  1  0
 23 56  1  0
 25 57  1  0
 28 58  1  0
 29 59  1  0
M  END
>  <smiles>  (18) 
O=C(NCC(=O)N1C[C@H](O)C[C@H]1COC1CCCCC1)c1ccc2cc(F)ccc2n1

>  <score_type>  (18) 
oracle

>  <origin>  (18) 
autodockgpu

>  <m_score__min__energy>  (18) 
-8.2599999999999998

>  <m_primary>  (18) 
energy

>  <rmsd>  (18) 
2.6998768682477414

>  <m_score__min__rmsd>  (18) 
2.6998768682477414

>  <meeko>  (18) 
{"free_energy": -7.59, "intermolecular_energy": -9.98, "internal_energy": -2.37, "cluster_size": 43, "cluster_id": 1, "rank_in_cluster": 14}

>  <energy>  (18) 
-7.49

>  <cluster_rmsd>  (18) 
1.31

>  <cluster>  (18) 
1

$$$$

     RDKit          3D

 59 62  0  0  0  0  0  0  0  0999 V2000
  139.4820   71.5860  221.4870 O   0  0  0  0  0  0  0  0  0  0  0  0
  138.9380   71.7630  222.5840 C   0  0  0  0  0  0  0  0  0  0  0  0
  137.7490   72.5560  222.6110 N   0  0  0  0  0  0  0  0  0  0  0  0
  137.1360   73.1540  221.4860 C   0  0  0  0  0  0  0  0  0  0  0  0
  137.9170   73.9420  220.5510 C   0  0  0  0  0  0  0  0  0  0  0  0
  137.4530   73.9200  219.3210 O   0  0  0  0  0  0  0  0  0  0  0  0
  139.0670   74.7190  220.6880 N   0  0  0  0  0  0  0  0  0  0  0  0
  140.1410   74.6500  219.6540 C   0  0  0  0  0  0  0  0  0  0  0  0
  141.3940   74.5760  220.5280 C   0  0  2  0  0  0  0  0  0  0  0  0
  141.9020   73.2760  220.4680 O   0  0  0  0  0  0  0  0  0  0  0  0
  140.9520   74.8960  221.9380 C   0  0  0  0  0  0  0  0  0  0  0  0
  139.6110   75.6390  221.6440 C   0  0  1  0  0  0  0  0  0  0  0  0
  140.0680   76.9540  221.0490 C   0  0  0  0  0  0  0  0  0  0  0  0
  141.2680   77.4060  221.5170 O   0  0  0  0  0  0  0  0  0  0  0  0
  141.0950   78.2070  222.6530 C   0  0  0  0  0  0  0  0  0  0  0  0
  139.8230   78.9770  222.4760 C   0  0  0  0  0  0  0  0  0  0  0  0
  140.1220   80.4490  222.2940 C   0  0  0  0  0  0  0  0  0  0  0  0
  140.8500   80.9720  223.5000 C   0  0  0  0  0  0  0  0  0  0  0  0
  142.1580   80.2350  223.6830 C   0  0  0  0  0  0  0  0  0  0  0  0
  142.3130   79.0950  222.7210 C   0  0  0  0  0  0  0  0  0  0  0  0
  139.4850   71.1840  223.8170 C   0  0  0  0  0  0  0  0  0  0  0  0
  140.4520   71.8890  224.4980 C   0  0  0  0  0  0  0  0  0  0  0  0
  141.0180   71.4060  225.6740 C   0  0  0  0  0  0  0  0  0  0  0  0
  140.5520   70.1780  226.1170 C   0  0  0  0  0  0  0  0  0  0  0  0
  141.0610   69.6290  227.2720 C   0  0  0  0  0  0  0  0  0  0  0  0
  140.5920   68.3980  227.7150 C   0  0  0  0  0  0  0  0  0  0  0  0
  141.0650   67.8200  228.8470 F   0  0  0  0  0  0  0  0  0  0  0  0
  139.6130   67.7330  226.9820 C   0  0  0  0  0  0  0  0  0  0  0  0
  139.0900   68.2590  225.8270 C   0  0  0  0  0  0  0  0  0  0  0  0
  139.5680   69.4790  225.4090 C   0  0  0  0  0  0  0  0  0  0  0  0
  139.0640   69.9980  224.2840 N   0  0  0  0  0  0  0  0  0  0  0  0
  137.3300   72.6760  223.5770 H   0  0  0  0  0  0  0  0  0  0  0  0
  136.6796   72.3385  220.9057 H   0  0  0  0  0  0  0  0  0  0  0  0
  136.4666   73.9006  221.9382 H   0  0  0  0  0  0  0  0  0  0  0  0
  140.0362   73.7546  219.0237 H   0  0  0  0  0  0  0  0  0  0  0  0
  140.1365   75.4894  218.9431 H   0  0  0  0  0  0  0  0  0  0  0  0
  142.1748   75.2760  220.1958 H   0  0  0  0  0  0  0  0  0  0  0  0
  141.1430   72.6600  220.6260 H   0  0  0  0  0  0  0  0  0  0  0  0
  140.7910   73.9840  222.5316 H   0  0  0  0  0  0  0  0  0  0  0  0
  141.6786   75.4715  222.5304 H   0  0  0  0  0  0  0  0  0  0  0  0
  138.8926   75.8679  222.4449 H   0  0  0  0  0  0  0  0  0  0  0  0
  140.1513   76.8265  219.9596 H   0  0  0  0  0  0  0  0  0  0  0  0
  139.3184   77.7041  221.3412 H   0  0  0  0  0  0  0  0  0  0  0  0
  141.0086   77.6425  223.5931 H   0  0  0  0  0  0  0  0  0  0  0  0
  139.2922   78.6020  221.5885 H   0  0  0  0  0  0  0  0  0  0  0  0
  139.1979   78.8466  223.3717 H   0  0  0  0  0  0  0  0  0  0  0  0
  140.7487   80.5869  221.4006 H   0  0  0  0  0  0  0  0  0  0  0  0
  139.1776   80.9997  222.1720 H   0  0  0  0  0  0  0  0  0  0  0  0
  141.0535   82.0445  223.3644 H   0  0  0  0  0  0  0  0  0  0  0  0
  140.2240   80.8174  224.3912 H   0  0  0  0  0  0  0  0  0  0  0  0
  142.9863   80.9422  223.5286 H   0  0  0  0  0  0  0  0  0  0  0  0
  142.1676   79.8178  224.7008 H   0  0  0  0  0  0  0  0  0  0  0  0
  142.5025   79.5064  221.7186 H   0  0  0  0  0  0  0  0  0  0  0  0
  143.1498   78.4766  223.0779 H   0  0  0  0  0  0  0  0  0  0  0  0
  140.7859   72.8595  224.1021 H   0  0  0  0  0  0  0  0  0  0  0  0
  141.7908   71.9665  226.2206 H   0  0  0  0  0  0  0  0  0  0  0  0
  141.8359   70.1624  227.8421 H   0  0  0  0  0  0  0  0  0  0  0  0
  139.2482   66.7584  227.3385 H   0  0  0  0  0  0  0  0  0  0  0  0
  138.3165   67.7241  225.2564 H   0  0  0  0  0  0  0  0  0  0  0  0
  1  2  2  0
  2  3  1  0
  3  4  1  0
  4  5  1  0
  5  6  2  0
  5  7  1  0
  7  8  1  0
  8  9  1  0
  9 10  1  0
  9 11  1  0
 11 12  1  0
 12 13  1  0
 13 14  1  0
 14 15  1  0
 15 16  1  0
 16 17  1  0
 17 18  1  0
 18 19  1  0
 19 20  1  0
  2 21  1  0
 21 22  2  0
 22 23  1  0
 23 24  2  0
 24 25  1  0
 25 26  2  0
 26 27  1  0
 26 28  1  0
 28 29  2  0
 29 30  1  0
 30 31  2  0
 12  7  1  0
 20 15  1  0
 31 21  1  0
 30 24  1  0
  3 32  1  0
  4 33  1  0
  4 34  1  0
  8 35  1  0
  8 36  1  0
  9 37  1  6
 10 38  1  0
 11 39  1  0
 11 40  1  0
 12 41  1  1
 13 42  1  0
 13 43  1  0
 15 44  1  0
 16 45  1  0
 16 46  1  0
 17 47  1  0
 17 48  1  0
 18 49  1  0
 18 50  1  0
 19 51  1  0
 19 52  1  0
 20 53  1  0
 20 54  1  0
 22 55  1  0
 23 56  1  0
 25 57  1  0
 28 58  1  0
 29 59  1  0
M  END
>  <smiles>  (19) 
O=C(NCC(=O)N1C[C@H](O)C[C@H]1COC1CCCCC1)c1ccc2cc(F)ccc2n1

>  <score_type>  (19) 
oracle

>  <origin>  (19) 
autodockgpu

>  <m_score__min__energy>  (19) 
-8.2599999999999998

>  <m_primary>  (19) 
energy

>  <rmsd>  (19) 
3.0403553411629693

>  <m_score__min__rmsd>  (19) 
3.0403553411629693

>  <meeko>  (19) 
{"free_energy": -6.89, "intermolecular_energy": -9.28, "internal_energy": -2.4, "cluster_size": 43, "cluster_id": 1, "rank_in_cluster": 38}

>  <energy>  (19) 
-7.49

>  <cluster_rmsd>  (19) 
1.25

>  <cluster>  (19) 
1

$$$$

     RDKit          3D

 59 62  0  0  0  0  0  0  0  0999 V2000
  138.8890   72.7390  221.3160 O   0  0  0  0  0  0  0  0  0  0  0  0
  139.8000   72.6490  222.1490 C   0  0  0  0  0  0  0  0  0  0  0  0
  140.9680   73.4460  221.9390 N   0  0  0  0  0  0  0  0  0  0  0  0
  141.1710   74.3350  220.8590 C   0  0  0  0  0  0  0  0  0  0  0  0
  140.1430   75.2890  220.4840 C   0  0  0  0  0  0  0  0  0  0  0  0
  140.0860   75.5260  219.1930 O   0  0  0  0  0  0  0  0  0  0  0  0
  139.2030   76.0130  221.2160 N   0  0  0  0  0  0  0  0  0  0  0  0
  138.9140   75.6410  222.6320 C   0  0  0  0  0  0  0  0  0  0  0  0
  137.3860   75.7100  222.6540 C   0  0  2  0  0  0  0  0  0  0  0  0
  136.8820   74.4080  222.7010 O   0  0  0  0  0  0  0  0  0  0  0  0
  136.9690   76.3810  221.3650 C   0  0  0  0  0  0  0  0  0  0  0  0
  138.3010   77.1040  220.9880 C   0  0  1  0  0  0  0  0  0  0  0  0
  138.3950   78.2120  222.0150 C   0  0  0  0  0  0  0  0  0  0  0  0
  139.5440   78.2110  222.7530 O   0  0  0  0  0  0  0  0  0  0  0  0
  140.4470   79.1700  222.2780 C   0  0  0  0  0  0  0  0  0  0  0  0
  141.7950   78.8410  222.8410 C   0  0  0  0  0  0  0  0  0  0  0  0
  142.2190   79.8950  223.8400 C   0  0  0  0  0  0  0  0  0  0  0  0
  142.2820   81.2370  223.1670 C   0  0  0  0  0  0  0  0  0  0  0  0
  140.9230   81.6120  222.6190 C   0  0  0  0  0  0  0  0  0  0  0  0
  139.9230   80.5020  222.7560 C   0  0  0  0  0  0  0  0  0  0  0  0
  139.6930   71.7610  223.3130 C   0  0  0  0  0  0  0  0  0  0  0  0
  138.8000   70.7150  223.2590 C   0  0  0  0  0  0  0  0  0  0  0  0
  138.6420   69.8300  224.3220 C   0  0  0  0  0  0  0  0  0  0  0  0
  139.4350   70.0650  225.4340 C   0  0  0  0  0  0  0  0  0  0  0  0
  139.3400   69.2360  226.5290 C   0  0  0  0  0  0  0  0  0  0  0  0
  140.1360   69.4720  227.6430 C   0  0  0  0  0  0  0  0  0  0  0  0
  140.0760   68.6820  228.7430 F   0  0  0  0  0  0  0  0  0  0  0  0
  141.0210   70.5470  227.6380 C   0  0  0  0  0  0  0  0  0  0  0  0
  141.1340   71.3870  226.5590 C   0  0  0  0  0  0  0  0  0  0  0  0
  140.3370   71.1340  225.4670 C   0  0  0  0  0  0  0  0  0  0  0  0
  140.4410   71.9490  224.4120 N   0  0  0  0  0  0  0  0  0  0  0  0
  141.7150   73.3240  222.6820 H   0  0  0  0  0  0  0  0  0  0  0  0
  142.0712   74.9202  221.0980 H   0  0  0  0  0  0  0  0  0  0  0  0
  141.2111   73.6618  219.9900 H   0  0  0  0  0  0  0  0  0  0  0  0
  139.2748   74.6280  222.8639 H   0  0  0  0  0  0  0  0  0  0  0  0
  139.4049   76.2853  223.3763 H   0  0  0  0  0  0  0  0  0  0  0  0
  137.0078   76.2668  223.5240 H   0  0  0  0  0  0  0  0  0  0  0  0
  137.6590   73.7970  222.7550 H   0  0  0  0  0  0  0  0  0  0  0  0
  136.6730   75.6473  220.6007 H   0  0  0  0  0  0  0  0  0  0  0  0
  136.0932   77.0411  221.4502 H   0  0  0  0  0  0  0  0  0  0  0  0
  138.4496   77.5561  219.9963 H   0  0  0  0  0  0  0  0  0  0  0  0
  138.3278   79.1748  221.4872 H   0  0  0  0  0  0  0  0  0  0  0  0
  137.5704   78.0484  222.7244 H   0  0  0  0  0  0  0  0  0  0  0  0
  140.5446   79.1933  221.1826 H   0  0  0  0  0  0  0  0  0  0  0  0
  141.7498   77.8631  223.3426 H   0  0  0  0  0  0  0  0  0  0  0  0
  142.5273   78.8107  222.0208 H   0  0  0  0  0  0  0  0  0  0  0  0
  141.4899   79.9328  224.6628 H   0  0  0  0  0  0  0  0  0  0  0  0
  143.2127   79.6405  224.2372 H   0  0  0  0  0  0  0  0  0  0  0  0
  142.6008   81.9950  223.8976 H   0  0  0  0  0  0  0  0  0  0  0  0
  143.0023   81.1884  222.3370 H   0  0  0  0  0  0  0  0  0  0  0  0
  140.5519   82.4909  223.1666 H   0  0  0  0  0  0  0  0  0  0  0  0
  141.0418   81.8248  221.5464 H   0  0  0  0  0  0  0  0  0  0  0  0
  139.6464   80.4091  223.8166 H   0  0  0  0  0  0  0  0  0  0  0  0
  139.0591   80.7596  222.1257 H   0  0  0  0  0  0  0  0  0  0  0  0
  138.1948   70.5745  222.3513 H   0  0  0  0  0  0  0  0  0  0  0  0
  137.9293   68.9931  224.2816 H   0  0  0  0  0  0  0  0  0  0  0  0
  138.6367   68.3902  226.5220 H   0  0  0  0  0  0  0  0  0  0  0  0
  141.6472   70.7279  228.5241 H   0  0  0  0  0  0  0  0  0  0  0  0
  141.8372   72.2329  226.5670 H   0  0  0  0  0  0  0  0  0  0  0  0
  1  2  2  0
  2  3  1  0
  3  4  1  0
  4  5  1  0
  5  6  2  0
  5  7  1  0
  7  8  1  0
  8  9  1  0
  9 10  1  0
  9 11  1  0
 11 12  1  0
 12 13  1  0
 13 14  1  0
 14 15  1  0
 15 16  1  0
 16 17  1  0
 17 18  1  0
 18 19  1  0
 19 20  1  0
  2 21  1  0
 21 22  2  0
 22 23  1  0
 23 24  2  0
 24 25  1  0
 25 26  2  0
 26 27  1  0
 26 28  1  0
 28 29  2  0
 29 30  1  0
 30 31  2  0
 12  7  1  0
 20 15  1  0
 31 21  1  0
 30 24  1  0
  3 32  1  0
  4 33  1  0
  4 34  1  0
  8 35  1  0
  8 36  1  0
  9 37  1  1
 10 38  1  0
 11 39  1  0
 11 40  1  0
 12 41  1  6
 13 42  1  0
 13 43  1  0
 15 44  1  0
 16 45  1  0
 16 46  1  0
 17 47  1  0
 17 48  1  0
 18 49  1  0
 18 50  1  0
 19 51  1  0
 19 52  1  0
 20 53  1  0
 20 54  1  0
 22 55  1  0
 23 56  1  0
 25 57  1  0
 28 58  1  0
 29 59  1  0
M  END
>  <smiles>  (20) 
O=C(NCC(=O)N1C[C@H](O)C[C@H]1COC1CCCCC1)c1ccc2cc(F)ccc2n1

>  <score_type>  (20) 
oracle

>  <origin>  (20) 
autodockgpu

>  <m_score__min__energy>  (20) 
-8.2599999999999998

>  <m_primary>  (20) 
energy

>  <rmsd>  (20) 
3.129167859994788

>  <m_score__min__rmsd>  (20) 
3.129167859994788

>  <meeko>  (20) 
{"free_energy": -6.83, "intermolecular_energy": -9.22, "internal_energy": -2.52, "cluster_size": 43, "cluster_id": 1, "rank_in_cluster": 39}

>  <energy>  (20) 
-7.48

>  <cluster_rmsd>  (20) 
1.33

>  <cluster>  (20) 
1

$$$$

     RDKit          3D

 59 62  0  0  0  0  0  0  0  0999 V2000
  139.7660   71.5400  221.6360 O   0  0  0  0  0  0  0  0  0  0  0  0
  139.1720   71.7420  222.7020 C   0  0  0  0  0  0  0  0  0  0  0  0
  137.9950   72.5520  222.6580 N   0  0  0  0  0  0  0  0  0  0  0  0
  137.4470   73.1410  221.4950 C   0  0  0  0  0  0  0  0  0  0  0  0
  137.7870   74.5020  221.1250 C   0  0  0  0  0  0  0  0  0  0  0  0
  136.7450   75.2510  220.8440 O   0  0  0  0  0  0  0  0  0  0  0  0
  138.9990   75.1810  221.0020 N   0  0  0  0  0  0  0  0  0  0  0  0
  139.9090   74.8810  219.8570 C   0  0  0  0  0  0  0  0  0  0  0  0
  141.2630   74.8060  220.5630 C   0  0  2  0  0  0  0  0  0  0  0  0
  141.6610   73.4680  220.6220 O   0  0  0  0  0  0  0  0  0  0  0  0
  141.0490   75.3450  221.9590 C   0  0  0  0  0  0  0  0  0  0  0  0
  139.7380   76.1640  221.7390 C   0  0  1  0  0  0  0  0  0  0  0  0
  140.2010   77.3430  220.9120 C   0  0  0  0  0  0  0  0  0  0  0  0
  139.7580   78.5580  221.3490 O   0  0  0  0  0  0  0  0  0  0  0  0
  140.8290   79.4250  221.5960 C   0  0  0  0  0  0  0  0  0  0  0  0
  141.7900   78.7120  222.4960 C   0  0  0  0  0  0  0  0  0  0  0  0
  141.8080   79.3610  223.8630 C   0  0  0  0  0  0  0  0  0  0  0  0
  142.2260   80.7990  223.7380 C   0  0  0  0  0  0  0  0  0  0  0  0
  141.2520   81.5530  222.8610 C   0  0  0  0  0  0  0  0  0  0  0  0
  140.2280   80.6520  222.2360 C   0  0  0  0  0  0  0  0  0  0  0  0
  139.6490   71.1760  223.9690 C   0  0  0  0  0  0  0  0  0  0  0  0
  140.5750   71.8890  224.6980 C   0  0  0  0  0  0  0  0  0  0  0  0
  141.0740   71.4180  225.9080 C   0  0  0  0  0  0  0  0  0  0  0  0
  140.5850   70.1930  226.3350 C   0  0  0  0  0  0  0  0  0  0  0  0
  141.0290   69.6560  227.5220 C   0  0  0  0  0  0  0  0  0  0  0  0
  140.5370   68.4280  227.9500 C   0  0  0  0  0  0  0  0  0  0  0  0
  140.9460   67.8620  229.1120 F   0  0  0  0  0  0  0  0  0  0  0  0
  139.6020   67.7550  227.1690 C   0  0  0  0  0  0  0  0  0  0  0  0
  139.1450   68.2700  225.9820 C   0  0  0  0  0  0  0  0  0  0  0  0
  139.6440   69.4860  225.5790 C   0  0  0  0  0  0  0  0  0  0  0  0
  139.2040   69.9930  224.4230 N   0  0  0  0  0  0  0  0  0  0  0  0
  137.5310   72.6950  223.6000 H   0  0  0  0  0  0  0  0  0  0  0  0
  137.7427   72.5021  220.6498 H   0  0  0  0  0  0  0  0  0  0  0  0
  136.3762   73.2121  221.7367 H   0  0  0  0  0  0  0  0  0  0  0  0
  139.6513   73.9252  219.3774 H   0  0  0  0  0  0  0  0  0  0  0  0
  139.8659   75.6183  219.0418 H   0  0  0  0  0  0  0  0  0  0  0  0
  142.0382   75.3824  220.0368 H   0  0  0  0  0  0  0  0  0  0  0  0
  140.8370   72.9210  220.6550 H   0  0  0  0  0  0  0  0  0  0  0  0
  140.9065   74.5363  222.6909 H   0  0  0  0  0  0  0  0  0  0  0  0
  141.8921   75.9229  222.3655 H   0  0  0  0  0  0  0  0  0  0  0  0
  139.1580   76.5604  222.5854 H   0  0  0  0  0  0  0  0  0  0  0  0
  141.3009   77.3564  220.9209 H   0  0  0  0  0  0  0  0  0  0  0  0
  139.7768   77.2019  219.9070 H   0  0  0  0  0  0  0  0  0  0  0  0
  141.3831   79.7249  220.6943 H   0  0  0  0  0  0  0  0  0  0  0  0
  141.4813   77.6611  222.5971 H   0  0  0  0  0  0  0  0  0  0  0  0
  142.7982   78.7677  222.0596 H   0  0  0  0  0  0  0  0  0  0  0  0
  140.8019   79.3102  224.3047 H   0  0  0  0  0  0  0  0  0  0  0  0
  142.5231   78.8295  224.5081 H   0  0  0  0  0  0  0  0  0  0  0  0
  142.2466   81.2593  224.7369 H   0  0  0  0  0  0  0  0  0  0  0  0
  143.2264   80.8431  223.2827 H   0  0  0  0  0  0  0  0  0  0  0  0
  140.7336   82.3047  223.4743 H   0  0  0  0  0  0  0  0  0  0  0  0
  141.8265   82.0217  222.0484 H   0  0  0  0  0  0  0  0  0  0  0  0
  139.5228   80.3297  223.0163 H   0  0  0  0  0  0  0  0  0  0  0  0
  139.7295   81.2253  221.4405 H   0  0  0  0  0  0  0  0  0  0  0  0
  140.9293   72.8566  224.3131 H   0  0  0  0  0  0  0  0  0  0  0  0
  141.8139   71.9848  226.4923 H   0  0  0  0  0  0  0  0  0  0  0  0
  141.7701   70.1961  228.1295 H   0  0  0  0  0  0  0  0  0  0  0  0
  139.2186   66.7830  227.5129 H   0  0  0  0  0  0  0  0  0  0  0  0
  138.4051   67.7287  225.3741 H   0  0  0  0  0  0  0  0  0  0  0  0
  1  2  2  0
  2  3  1  0
  3  4  1  0
  4  5  1  0
  5  6  2  0
  5  7  1  0
  7  8  1  0
  8  9  1  0
  9 10  1  0
  9 11  1  0
 11 12  1  0
 12 13  1  0
 13 14  1  0
 14 15  1  0
 15 16  1  0
 16 17  1  0
 17 18  1  0
 18 19  1  0
 19 20  1  0
  2 21  1  0
 21 22  2  0
 22 23  1  0
 23 24  2  0
 24 25  1  0
 25 26  2  0
 26 27  1  0
 26 28  1  0
 28 29  2  0
 29 30  1  0
 30 31  2  0
 12  7  1  0
 20 15  1  0
 31 21  1  0
 30 24  1  0
  3 32  1  0
  4 33  1  0
  4 34  1  0
  8 35  1  0
  8 36  1  0
  9 37  1  6
 10 38  1  0
 11 39  1  0
 11 40  1  0
 12 41  1  1
 13 42  1  0
 13 43  1  0
 15 44  1  0
 16 45  1  0
 16 46  1  0
 17 47  1  0
 17 48  1  0
 18 49  1  0
 18 50  1  0
 19 51  1  0
 19 52  1  0
 20 53  1  0
 20 54  1  0
 22 55  1  0
 23 56  1  0
 25 57  1  0
 28 58  1  0
 29 59  1  0
M  END
>  <smiles>  (21) 
O=C(NCC(=O)N1C[C@H](O)C[C@H]1COC1CCCCC1)c1ccc2cc(F)ccc2n1

>  <score_type>  (21) 
oracle

>  <origin>  (21) 
autodockgpu

>  <m_score__min__energy>  (21) 
-8.2599999999999998

>  <m_primary>  (21) 
energy

>  <rmsd>  (21) 
2.9827514685920384

>  <m_score__min__rmsd>  (21) 
2.9827514685920384

>  <meeko>  (21) 
{"free_energy": -7.28, "intermolecular_energy": -9.67, "internal_energy": -2.33, "cluster_size": 43, "cluster_id": 1, "rank_in_cluster": 28}

>  <energy>  (21) 
-7.46

>  <cluster_rmsd>  (21) 
1.3

>  <cluster>  (21) 
1

$$$$

     RDKit          3D

 59 62  0  0  0  0  0  0  0  0999 V2000
  139.1960   73.3240  222.3440 O   0  0  0  0  0  0  0  0  0  0  0  0
  140.1090   72.5170  222.5580 C   0  0  0  0  0  0  0  0  0  0  0  0
  141.2240   72.5310  221.6640 N   0  0  0  0  0  0  0  0  0  0  0  0
  141.3760   73.3950  220.5550 C   0  0  0  0  0  0  0  0  0  0  0  0
  141.7250   74.7910  220.7480 C   0  0  0  0  0  0  0  0  0  0  0  0
  143.0170   75.0250  220.7000 O   0  0  0  0  0  0  0  0  0  0  0  0
  140.9680   75.9380  220.9800 N   0  0  0  0  0  0  0  0  0  0  0  0
  140.7020   76.3870  222.3790 C   0  0  0  0  0  0  0  0  0  0  0  0
  139.2140   76.7290  222.3060 C   0  0  2  0  0  0  0  0  0  0  0  0
  138.4960   75.7410  222.9840 O   0  0  0  0  0  0  0  0  0  0  0  0
  138.8440   76.7240  220.8400 C   0  0  0  0  0  0  0  0  0  0  0  0
  140.2560   76.9080  220.2000 C   0  0  1  0  0  0  0  0  0  0  0  0
  140.6010   78.3440  220.5300 C   0  0  0  0  0  0  0  0  0  0  0  0
  141.9380   78.6060  220.6180 O   0  0  0  0  0  0  0  0  0  0  0  0
  142.1760   79.7550  221.3820 C   0  0  0  0  0  0  0  0  0  0  0  0
  142.6250   79.3120  222.7400 C   0  0  0  0  0  0  0  0  0  0  0  0
  141.5720   79.6430  223.7750 C   0  0  0  0  0  0  0  0  0  0  0  0
  141.3290   81.1250  223.7970 C   0  0  0  0  0  0  0  0  0  0  0  0
  140.8400   81.5960  222.4460 C   0  0  0  0  0  0  0  0  0  0  0  0
  140.8680   80.5070  221.4140 C   0  0  0  0  0  0  0  0  0  0  0  0
  140.0580   71.5770  223.6840 C   0  0  0  0  0  0  0  0  0  0  0  0
  139.4310   70.3650  223.4970 C   0  0  0  0  0  0  0  0  0  0  0  0
  139.3430   69.4210  224.5160 C   0  0  0  0  0  0  0  0  0  0  0  0
  139.9200   69.7740  225.7260 C   0  0  0  0  0  0  0  0  0  0  0  0
  139.8760   68.8970  226.7860 C   0  0  0  0  0  0  0  0  0  0  0  0
  140.4570   69.2500  227.9980 C   0  0  0  0  0  0  0  0  0  0  0  0
  140.4370   68.4180  229.0680 F   0  0  0  0  0  0  0  0  0  0  0  0
  141.0760   70.4900  228.1250 C   0  0  0  0  0  0  0  0  0  0  0  0
  141.1330   71.3820  227.0830 C   0  0  0  0  0  0  0  0  0  0  0  0
  140.5520   71.0100  225.8930 C   0  0  0  0  0  0  0  0  0  0  0  0
  140.6030   71.8740  224.8730 N   0  0  0  0  0  0  0  0  0  0  0  0
  141.9730   71.8160  221.8930 H   0  0  0  0  0  0  0  0  0  0  0  0
  142.1625   72.9587  219.9217 H   0  0  0  0  0  0  0  0  0  0  0  0
  140.3570   73.4504  220.1445 H   0  0  0  0  0  0  0  0  0  0  0  0
  140.8952   75.5824  223.1037 H   0  0  0  0  0  0  0  0  0  0  0  0
  141.3394   77.2185  222.7141 H   0  0  0  0  0  0  0  0  0  0  0  0
  138.9897   77.7047  222.7618 H   0  0  0  0  0  0  0  0  0  0  0  0
  138.9500   74.8780  222.8070 H   0  0  0  0  0  0  0  0  0  0  0  0
  138.3811   75.7724  220.5396 H   0  0  0  0  0  0  0  0  0  0  0  0
  138.1020   77.4818  220.5481 H   0  0  0  0  0  0  0  0  0  0  0  0
  140.4215   76.7658  219.1219 H   0  0  0  0  0  0  0  0  0  0  0  0
  140.1773   78.9869  219.7444 H   0  0  0  0  0  0  0  0  0  0  0  0
  140.1804   78.5422  221.5269 H   0  0  0  0  0  0  0  0  0  0  0  0
  142.9591   80.4119  220.9755 H   0  0  0  0  0  0  0  0  0  0  0  0
  142.7946   78.2252  222.7295 H   0  0  0  0  0  0  0  0  0  0  0  0
  143.5571   79.8363  222.9974 H   0  0  0  0  0  0  0  0  0  0  0  0
  140.6360   79.1231  223.5229 H   0  0  0  0  0  0  0  0  0  0  0  0
  141.9214   79.3173  224.7659 H   0  0  0  0  0  0  0  0  0  0  0  0
  140.5702   81.3572  224.5588 H   0  0  0  0  0  0  0  0  0  0  0  0
  142.2718   81.6390  224.0357 H   0  0  0  0  0  0  0  0  0  0  0  0
  139.8060   81.9563  222.5509 H   0  0  0  0  0  0  0  0  0  0  0  0
  141.5142   82.3961  222.1065 H   0  0  0  0  0  0  0  0  0  0  0  0
  140.0598   79.7943  221.6351 H   0  0  0  0  0  0  0  0  0  0  0  0
  140.7396   80.9835  220.4309 H   0  0  0  0  0  0  0  0  0  0  0  0
  138.9880   70.1370  222.5163 H   0  0  0  0  0  0  0  0  0  0  0  0
  138.8446   68.4513  224.3697 H   0  0  0  0  0  0  0  0  0  0  0  0
  139.3827   67.9202  226.6741 H   0  0  0  0  0  0  0  0  0  0  0  0
  141.5326   70.7631  229.0878 H   0  0  0  0  0  0  0  0  0  0  0  0
  141.6256   72.3591  227.1957 H   0  0  0  0  0  0  0  0  0  0  0  0
  1  2  2  0
  2  3  1  0
  3  4  1  0
  4  5  1  0
  5  6  2  0
  5  7  1  0
  7  8  1  0
  8  9  1  0
  9 10  1  0
  9 11  1  0
 11 12  1  0
 12 13  1  0
 13 14  1  0
 14 15  1  0
 15 16  1  0
 16 17  1  0
 17 18  1  0
 18 19  1  0
 19 20  1  0
  2 21  1  0
 21 22  2  0
 22 23  1  0
 23 24  2  0
 24 25  1  0
 25 26  2  0
 26 27  1  0
 26 28  1  0
 28 29  2  0
 29 30  1  0
 30 31  2  0
 12  7  1  0
 20 15  1  0
 31 21  1  0
 30 24  1  0
  3 32  1  0
  4 33  1  0
  4 34  1  0
  8 35  1  0
  8 36  1  0
  9 37  1  1
 10 38  1  0
 11 39  1  0
 11 40  1  0
 12 41  1  6
 13 42  1  0
 13 43  1  0
 15 44  1  0
 16 45  1  0
 16 46  1  0
 17 47  1  0
 17 48  1  0
 18 49  1  0
 18 50  1  0
 19 51  1  0
 19 52  1  0
 20 53  1  0
 20 54  1  0
 22 55  1  0
 23 56  1  0
 25 57  1  0
 28 58  1  0
 29 59  1  0
M  END
>  <smiles>  (22) 
O=C(NCC(=O)N1C[C@H](O)C[C@H]1COC1CCCCC1)c1ccc2cc(F)ccc2n1

>  <score_type>  (22) 
oracle

>  <origin>  (22) 
autodockgpu

>  <m_score__min__energy>  (22) 
-8.2599999999999998

>  <m_primary>  (22) 
energy

>  <rmsd>  (22) 
2.7500170371691097

>  <m_score__min__rmsd>  (22) 
2.7500170371691097

>  <meeko>  (22) 
{"free_energy": -7.72, "intermolecular_energy": -10.1, "internal_energy": -2.61, "cluster_size": 43, "cluster_id": 1, "rank_in_cluster": 11}

>  <energy>  (22) 
-7.42

>  <cluster_rmsd>  (22) 
1.39

>  <cluster>  (22) 
1

$$$$

     RDKit          3D

 59 62  0  0  0  0  0  0  0  0999 V2000
  138.8310   71.4660  221.4640 O   0  0  0  0  0  0  0  0  0  0  0  0
  138.4020   71.6530  222.6100 C   0  0  0  0  0  0  0  0  0  0  0  0
  137.3700   72.6280  222.7760 N   0  0  0  0  0  0  0  0  0  0  0  0
  136.7920   73.3960  221.7390 C   0  0  0  0  0  0  0  0  0  0  0  0
  137.5170   74.5080  221.1520 C   0  0  0  0  0  0  0  0  0  0  0  0
  136.7420   75.3990  220.5740 O   0  0  0  0  0  0  0  0  0  0  0  0
  138.8720   74.8250  221.0690 N   0  0  0  0  0  0  0  0  0  0  0  0
  139.5600   74.8170  219.7450 C   0  0  0  0  0  0  0  0  0  0  0  0
  140.8600   74.0890  220.0870 C   0  0  2  0  0  0  0  0  0  0  0  0
  140.8080   72.8030  219.5410 O   0  0  0  0  0  0  0  0  0  0  0  0
  140.9220   74.0080  221.5960 C   0  0  0  0  0  0  0  0  0  0  0  0
  139.9350   75.1570  221.9730 C   0  0  1  0  0  0  0  0  0  0  0  0
  140.7000   76.4080  221.5970 C   0  0  0  0  0  0  0  0  0  0  0  0
  141.0670   77.1920  222.6530 O   0  0  0  0  0  0  0  0  0  0  0  0
  140.9140   78.5500  222.3470 C   0  0  0  0  0  0  0  0  0  0  0  0
  142.2800   79.1600  222.2980 C   0  0  0  0  0  0  0  0  0  0  0  0
  142.4690   80.1190  223.4530 C   0  0  0  0  0  0  0  0  0  0  0  0
  141.4400   81.2110  223.3810 C   0  0  0  0  0  0  0  0  0  0  0  0
  140.0480   80.6260  223.4640 C   0  0  0  0  0  0  0  0  0  0  0  0
  140.0550   79.1250  223.4470 C   0  0  0  0  0  0  0  0  0  0  0  0
  138.9260   70.9070  223.7600 C   0  0  0  0  0  0  0  0  0  0  0  0
  138.7840   69.5370  223.7710 C   0  0  0  0  0  0  0  0  0  0  0  0
  139.2540   68.7610  224.8270 C   0  0  0  0  0  0  0  0  0  0  0  0
  139.8710   69.4470  225.8610 C   0  0  0  0  0  0  0  0  0  0  0  0
  140.3640   68.7530  226.9430 C   0  0  0  0  0  0  0  0  0  0  0  0
  140.9820   69.4420  227.9800 C   0  0  0  0  0  0  0  0  0  0  0  0
  141.4820   68.8000  229.0650 F   0  0  0  0  0  0  0  0  0  0  0  0
  141.0950   70.8280  227.9110 C   0  0  0  0  0  0  0  0  0  0  0  0
  140.6120   71.5420  226.8430 C   0  0  0  0  0  0  0  0  0  0  0  0
  140.0040   70.8390  225.8290 C   0  0  0  0  0  0  0  0  0  0  0  0
  139.5300   71.5280  224.7850 N   0  0  0  0  0  0  0  0  0  0  0  0
  137.0450   72.7490  223.7780 H   0  0  0  0  0  0  0  0  0  0  0  0
  136.5671   72.6986  220.9186 H   0  0  0  0  0  0  0  0  0  0  0  0
  135.9463   73.8899  222.2399 H   0  0  0  0  0  0  0  0  0  0  0  0
  138.9769   74.2672  218.9915 H   0  0  0  0  0  0  0  0  0  0  0  0
  139.7049   75.8155  219.3067 H   0  0  0  0  0  0  0  0  0  0  0  0
  141.7435   74.6079  219.6868 H   0  0  0  0  0  0  0  0  0  0  0  0
  140.0190   72.3520  219.9350 H   0  0  0  0  0  0  0  0  0  0  0  0
  140.5732   73.0328  221.9666 H   0  0  0  0  0  0  0  0  0  0  0  0
  141.9309   74.1067  222.0231 H   0  0  0  0  0  0  0  0  0  0  0  0
  139.5705   75.2868  223.0027 H   0  0  0  0  0  0  0  0  0  0  0  0
  141.6122   76.1041  221.0627 H   0  0  0  0  0  0  0  0  0  0  0  0
  140.0195   77.0148  220.9816 H   0  0  0  0  0  0  0  0  0  0  0  0
  140.4334   78.7424  221.3764 H   0  0  0  0  0  0  0  0  0  0  0  0
  143.0357   78.3631  222.3607 H   0  0  0  0  0  0  0  0  0  0  0  0
  142.3916   79.7118  221.3530 H   0  0  0  0  0  0  0  0  0  0  0  0
  142.3575   79.5742  224.4021 H   0  0  0  0  0  0  0  0  0  0  0  0
  143.4740   80.5625  223.3962 H   0  0  0  0  0  0  0  0  0  0  0  0
  141.5913   81.9081  224.2184 H   0  0  0  0  0  0  0  0  0  0  0  0
  141.5485   81.7426  222.4241 H   0  0  0  0  0  0  0  0  0  0  0  0
  139.5771   80.9663  224.3981 H   0  0  0  0  0  0  0  0  0  0  0  0
  139.4877   80.9683  222.5815 H   0  0  0  0  0  0  0  0  0  0  0  0
  140.4371   78.7656  224.4139 H   0  0  0  0  0  0  0  0  0  0  0  0
  139.0221   78.7939  223.2640 H   0  0  0  0  0  0  0  0  0  0  0  0
  138.2863   69.0432  222.9234 H   0  0  0  0  0  0  0  0  0  0  0  0
  139.1421   67.6668  224.8399 H   0  0  0  0  0  0  0  0  0  0  0  0
  140.2692   67.6580  226.9866 H   0  0  0  0  0  0  0  0  0  0  0  0
  141.5853   71.3660  228.7358 H   0  0  0  0  0  0  0  0  0  0  0  0
  140.7077   72.6370  226.7995 H   0  0  0  0  0  0  0  0  0  0  0  0
  1  2  2  0
  2  3  1  0
  3  4  1  0
  4  5  1  0
  5  6  2  0
  5  7  1  0
  7  8  1  0
  8  9  1  0
  9 10  1  0
  9 11  1  0
 11 12  1  0
 12 13  1  0
 13 14  1  0
 14 15  1  0
 15 16  1  0
 16 17  1  0
 17 18  1  0
 18 19  1  0
 19 20  1  0
  2 21  1  0
 21 22  2  0
 22 23  1  0
 23 24  2  0
 24 25  1  0
 25 26  2  0
 26 27  1  0
 26 28  1  0
 28 29  2  0
 29 30  1  0
 30 31  2  0
 12  7  1  0
 20 15  1  0
 31 21  1  0
 30 24  1  0
  3 32  1  0
  4 33  1  0
  4 34  1  0
  8 35  1  0
  8 36  1  0
  9 37  1  6
 10 38  1  0
 11 39  1  0
 11 40  1  0
 12 41  1  1
 13 42  1  0
 13 43  1  0
 15 44  1  0
 16 45  1  0
 16 46  1  0
 17 47  1  0
 17 48  1  0
 18 49  1  0
 18 50  1  0
 19 51  1  0
 19 52  1  0
 20 53  1  0
 20 54  1  0
 22 55  1  0
 23 56  1  0
 25 57  1  0
 28 58  1  0
 29 59  1  0
M  END
>  <smiles>  (23) 
O=C(NCC(=O)N1C[C@H](O)C[C@H]1COC1CCCCC1)c1ccc2cc(F)ccc2n1

>  <score_type>  (23) 
oracle

>  <origin>  (23) 
autodockgpu

>  <m_score__min__energy>  (23) 
-8.2599999999999998

>  <m_primary>  (23) 
energy

>  <rmsd>  (23) 
2.2086452850964005

>  <m_score__min__rmsd>  (23) 
2.2086452850964005

>  <meeko>  (23) 
{"free_energy": -7.27, "intermolecular_energy": -9.65, "internal_energy": -2.34, "cluster_size": 43, "cluster_id": 1, "rank_in_cluster": 30}

>  <energy>  (23) 
-7.42

>  <cluster_rmsd>  (23) 
1.91

>  <cluster>  (23) 
1

$$$$

     RDKit          3D

 59 62  0  0  0  0  0  0  0  0999 V2000
  138.8180   72.7370  221.0980 O   0  0  0  0  0  0  0  0  0  0  0  0
  139.7040   72.7870  221.9600 C   0  0  0  0  0  0  0  0  0  0  0  0
  140.7750   73.7110  221.7540 N   0  0  0  0  0  0  0  0  0  0  0  0
  140.9060   74.5800  220.6460 C   0  0  0  0  0  0  0  0  0  0  0  0
  140.1080   75.7890  220.5560 C   0  0  0  0  0  0  0  0  0  0  0  0
  140.4160   76.5520  219.5310 O   0  0  0  0  0  0  0  0  0  0  0  0
  139.0810   76.3120  221.3390 N   0  0  0  0  0  0  0  0  0  0  0  0
  138.8280   75.7600  222.7030 C   0  0  0  0  0  0  0  0  0  0  0  0
  137.3030   75.6420  222.7000 C   0  0  2  0  0  0  0  0  0  0  0  0
  136.9610   74.2910  222.6000 O   0  0  0  0  0  0  0  0  0  0  0  0
  136.8180   76.3910  221.4790 C   0  0  0  0  0  0  0  0  0  0  0  0
  138.0540   77.3050  221.2080 C   0  0  1  0  0  0  0  0  0  0  0  0
  138.0040   78.3000  222.3460 C   0  0  0  0  0  0  0  0  0  0  0  0
  138.8130   79.3890  222.1890 O   0  0  0  0  0  0  0  0  0  0  0  0
  139.7790   79.4470  223.2010 C   0  0  0  0  0  0  0  0  0  0  0  0
  140.1000   80.8900  223.4390 C   0  0  0  0  0  0  0  0  0  0  0  0
  141.5100   81.1970  222.9840 C   0  0  0  0  0  0  0  0  0  0  0  0
  142.4860   80.3450  223.7440 C   0  0  0  0  0  0  0  0  0  0  0  0
  142.2080   78.8800  223.4950 C   0  0  0  0  0  0  0  0  0  0  0  0
  140.9620   78.6620  222.6880 C   0  0  0  0  0  0  0  0  0  0  0  0
  139.6650   71.9340  223.1540 C   0  0  0  0  0  0  0  0  0  0  0  0
  138.8590   70.8170  223.1350 C   0  0  0  0  0  0  0  0  0  0  0  0
  138.7700   69.9600  224.2280 C   0  0  0  0  0  0  0  0  0  0  0  0
  139.5360   70.2970  225.3320 C   0  0  0  0  0  0  0  0  0  0  0  0
  139.5040   69.5010  226.4550 C   0  0  0  0  0  0  0  0  0  0  0  0
  140.2740   69.8390  227.5620 C   0  0  0  0  0  0  0  0  0  0  0  0
  140.2740   69.0850  228.6880 F   0  0  0  0  0  0  0  0  0  0  0  0
  141.0690   70.9810  227.5200 C   0  0  0  0  0  0  0  0  0  0  0  0
  141.1180   71.7900  226.4130 C   0  0  0  0  0  0  0  0  0  0  0  0
  140.3480   71.4360  225.3290 C   0  0  0  0  0  0  0  0  0  0  0  0
  140.3900   72.2200  224.2470 N   0  0  0  0  0  0  0  0  0  0  0  0
  141.5060   73.7070  222.5220 H   0  0  0  0  0  0  0  0  0  0  0  0
  141.9594   74.8955  220.6166 H   0  0  0  0  0  0  0  0  0  0  0  0
  140.5272   73.9725  219.8109 H   0  0  0  0  0  0  0  0  0  0  0  0
  139.3076   74.7790  222.8358 H   0  0  0  0  0  0  0  0  0  0  0  0
  139.2307   76.3763  223.5204 H   0  0  0  0  0  0  0  0  0  0  0  0
  136.8526   76.0537  223.6152 H   0  0  0  0  0  0  0  0  0  0  0  0
  137.7950   73.7700  222.7210 H   0  0  0  0  0  0  0  0  0  0  0  0
  136.6204   75.7122  220.6363 H   0  0  0  0  0  0  0  0  0  0  0  0
  135.8674   76.9278  221.6139 H   0  0  0  0  0  0  0  0  0  0  0  0
  138.1542   77.8750  220.2725 H   0  0  0  0  0  0  0  0  0  0  0  0
  136.9676   78.6548  222.4453 H   0  0  0  0  0  0  0  0  0  0  0  0
  138.3677   77.7694  223.2383 H   0  0  0  0  0  0  0  0  0  0  0  0
  139.4518   79.0198  224.1604 H   0  0  0  0  0  0  0  0  0  0  0  0
  139.3926   81.5166  222.8760 H   0  0  0  0  0  0  0  0  0  0  0  0
  140.0176   81.1018  224.5153 H   0  0  0  0  0  0  0  0  0  0  0  0
  141.6009   80.9856  221.9083 H   0  0  0  0  0  0  0  0  0  0  0  0
  141.7299   82.2581  223.1727 H   0  0  0  0  0  0  0  0  0  0  0  0
  143.5082   80.5817  223.4138 H   0  0  0  0  0  0  0  0  0  0  0  0
  142.3801   80.5517  224.8192 H   0  0  0  0  0  0  0  0  0  0  0  0
  143.0606   78.4462  222.9520 H   0  0  0  0  0  0  0  0  0  0  0  0
  142.0630   78.3959  224.4721 H   0  0  0  0  0  0  0  0  0  0  0  0
  141.1599   78.9658  221.6495 H   0  0  0  0  0  0  0  0  0  0  0  0
  140.7051   77.5951  222.7633 H   0  0  0  0  0  0  0  0  0  0  0  0
  138.2703   70.5966  222.2323 H   0  0  0  0  0  0  0  0  0  0  0  0
  138.1284   69.0666  224.2159 H   0  0  0  0  0  0  0  0  0  0  0  0
  138.8717   68.6012  226.4762 H   0  0  0  0  0  0  0  0  0  0  0  0
  141.6754   71.2423  228.3998 H   0  0  0  0  0  0  0  0  0  0  0  0
  141.7505   72.6898  226.3928 H   0  0  0  0  0  0  0  0  0  0  0  0
  1  2  2  0
  2  3  1  0
  3  4  1  0
  4  5  1  0
  5  6  2  0
  5  7  1  0
  7  8  1  0
  8  9  1  0
  9 10  1  0
  9 11  1  0
 11 12  1  0
 12 13  1  0
 13 14  1  0
 14 15  1  0
 15 16  1  0
 16 17  1  0
 17 18  1  0
 18 19  1  0
 19 20  1  0
  2 21  1  0
 21 22  2  0
 22 23  1  0
 23 24  2  0
 24 25  1  0
 25 26  2  0
 26 27  1  0
 26 28  1  0
 28 29  2  0
 29 30  1  0
 30 31  2  0
 12  7  1  0
 20 15  1  0
 31 21  1  0
 30 24  1  0
  3 32  1  0
  4 33  1  0
  4 34  1  0
  8 35  1  0
  8 36  1  0
  9 37  1  1
 10 38  1  0
 11 39  1  0
 11 40  1  0
 12 41  1  6
 13 42  1  0
 13 43  1  0
 15 44  1  0
 16 45  1  0
 16 46  1  0
 17 47  1  0
 17 48  1  0
 18 49  1  0
 18 50  1  0
 19 51  1  0
 19 52  1  0
 20 53  1  0
 20 54  1  0
 22 55  1  0
 23 56  1  0
 25 57  1  0
 28 58  1  0
 29 59  1  0
M  END
>  <smiles>  (24) 
O=C(NCC(=O)N1C[C@H](O)C[C@H]1COC1CCCCC1)c1ccc2cc(F)ccc2n1

>  <score_type>  (24) 
oracle

>  <origin>  (24) 
autodockgpu

>  <m_score__min__energy>  (24) 
-8.2599999999999998

>  <m_primary>  (24) 
energy

>  <rmsd>  (24) 
3.20210277990434

>  <m_score__min__rmsd>  (24) 
3.20210277990434

>  <meeko>  (24) 
{"free_energy": -6.89, "intermolecular_energy": -9.28, "internal_energy": -2.75, "cluster_size": 43, "cluster_id": 1, "rank_in_cluster": 37}

>  <energy>  (24) 
-7.4

>  <cluster_rmsd>  (24) 
1.4

>  <cluster>  (24) 
1

$$$$

     RDKit          3D

 59 62  0  0  0  0  0  0  0  0999 V2000
  139.4780   72.5170  220.7910 O   0  0  0  0  0  0  0  0  0  0  0  0
  140.3850   71.9590  221.4200 C   0  0  0  0  0  0  0  0  0  0  0  0
  141.6800   71.9200  220.8170 N   0  0  0  0  0  0  0  0  0  0  0  0
  142.0150   72.4710  219.5580 C   0  0  0  0  0  0  0  0  0  0  0  0
  141.7000   73.8530  219.2500 C   0  0  0  0  0  0  0  0  0  0  0  0
  141.7630   74.1380  217.9680 O   0  0  0  0  0  0  0  0  0  0  0  0
  141.3470   74.9480  220.0370 N   0  0  0  0  0  0  0  0  0  0  0  0
  141.4300   74.8550  221.5240 C   0  0  0  0  0  0  0  0  0  0  0  0
  140.1090   75.5030  221.9390 C   0  0  2  0  0  0  0  0  0  0  0  0
  139.2450   74.5020  222.3930 O   0  0  0  0  0  0  0  0  0  0  0  0
  139.5420   76.1530  220.6980 C   0  0  0  0  0  0  0  0  0  0  0  0
  140.8370   76.2730  219.8350 C   0  0  1  0  0  0  0  0  0  0  0  0
  141.6240   77.3560  220.5410 C   0  0  0  0  0  0  0  0  0  0  0  0
  141.2030   78.6290  220.2840 O   0  0  0  0  0  0  0  0  0  0  0  0
  140.9850   79.3360  221.4730 C   0  0  0  0  0  0  0  0  0  0  0  0
  141.8260   80.5740  221.4240 C   0  0  0  0  0  0  0  0  0  0  0  0
  142.9370   80.4940  222.4480 C   0  0  0  0  0  0  0  0  0  0  0  0
  142.3510   80.3530  223.8240 C   0  0  0  0  0  0  0  0  0  0  0  0
  141.5230   79.0900  223.9130 C   0  0  0  0  0  0  0  0  0  0  0  0
  141.3840   78.4010  222.5880 C   0  0  0  0  0  0  0  0  0  0  0  0
  140.1510   71.3570  222.7380 C   0  0  0  0  0  0  0  0  0  0  0  0
  139.3810   70.2170  222.8100 C   0  0  0  0  0  0  0  0  0  0  0  0
  139.1140   69.5880  224.0230 C   0  0  0  0  0  0  0  0  0  0  0  0
  139.6670   70.1760  225.1490 C   0  0  0  0  0  0  0  0  0  0  0  0
  139.4510   69.6160  226.3880 C   0  0  0  0  0  0  0  0  0  0  0  0
  140.0070   70.2060  227.5180 C   0  0  0  0  0  0  0  0  0  0  0  0
  139.8200   69.6890  228.7570 F   0  0  0  0  0  0  0  0  0  0  0  0
  140.7770   71.3580  227.3810 C   0  0  0  0  0  0  0  0  0  0  0  0
  141.0060   71.9340  226.1570 C   0  0  0  0  0  0  0  0  0  0  0  0
  140.4470   71.3340  225.0530 C   0  0  0  0  0  0  0  0  0  0  0  0
  140.6660   71.8900  223.8570 N   0  0  0  0  0  0  0  0  0  0  0  0
  142.4150   71.4250  221.3990 H   0  0  0  0  0  0  0  0  0  0  0  0
  143.1042   72.3642  219.4474 H   0  0  0  0  0  0  0  0  0  0  0  0
  141.3707   71.9108  218.8644 H   0  0  0  0  0  0  0  0  0  0  0  0
  141.4883   73.8090  221.8594 H   0  0  0  0  0  0  0  0  0  0  0  0
  142.3215   75.3330  221.9561 H   0  0  0  0  0  0  0  0  0  0  0  0
  140.2437   76.2440  222.7407 H   0  0  0  0  0  0  0  0  0  0  0  0
  139.8040   73.7190  222.6260 H   0  0  0  0  0  0  0  0  0  0  0  0
  138.7867   75.5169  220.2134 H   0  0  0  0  0  0  0  0  0  0  0  0
  139.0141   77.1020  220.8735 H   0  0  0  0  0  0  0  0  0  0  0  0
  140.7948   76.5355  218.7676 H   0  0  0  0  0  0  0  0  0  0  0  0
  141.5485   77.1828  221.6246 H   0  0  0  0  0  0  0  0  0  0  0  0
  142.6542   77.2878  220.1615 H   0  0  0  0  0  0  0  0  0  0  0  0
  139.9424   79.6522  221.6247 H   0  0  0  0  0  0  0  0  0  0  0  0
  142.2642   80.6757  220.4202 H   0  0  0  0  0  0  0  0  0  0  0  0
  141.1938   81.4456  221.6488 H   0  0  0  0  0  0  0  0  0  0  0  0
  143.5722   79.6227  222.2305 H   0  0  0  0  0  0  0  0  0  0  0  0
  143.5401   81.4128  222.4023 H   0  0  0  0  0  0  0  0  0  0  0  0
  143.1650   80.3065  224.5624 H   0  0  0  0  0  0  0  0  0  0  0  0
  141.7060   81.2200  224.0297 H   0  0  0  0  0  0  0  0  0  0  0  0
  142.0063   78.4002  224.6205 H   0  0  0  0  0  0  0  0  0  0  0  0
  140.5151   79.3736  224.2501 H   0  0  0  0  0  0  0  0  0  0  0  0
  142.3491   77.9405  222.3301 H   0  0  0  0  0  0  0  0  0  0  0  0
  140.5844   77.6526  222.6901 H   0  0  0  0  0  0  0  0  0  0  0  0
  138.9659   69.7922  221.8841 H   0  0  0  0  0  0  0  0  0  0  0  0
  138.4999   68.6774  224.0838 H   0  0  0  0  0  0  0  0  0  0  0  0
  138.8411   68.7056  226.4838 H   0  0  0  0  0  0  0  0  0  0  0  0
  141.2138   71.8191  228.2791 H   0  0  0  0  0  0  0  0  0  0  0  0
  141.6158   72.8445  226.0620 H   0  0  0  0  0  0  0  0  0  0  0  0
  1  2  2  0
  2  3  1  0
  3  4  1  0
  4  5  1  0
  5  6  2  0
  5  7  1  0
  7  8  1  0
  8  9  1  0
  9 10  1  0
  9 11  1  0
 11 12  1  0
 12 13  1  0
 13 14  1  0
 14 15  1  0
 15 16  1  0
 16 17  1  0
 17 18  1  0
 18 19  1  0
 19 20  1  0
  2 21  1  0
 21 22  2  0
 22 23  1  0
 23 24  2  0
 24 25  1  0
 25 26  2  0
 26 27  1  0
 26 28  1  0
 28 29  2  0
 29 30  1  0
 30 31  2  0
 12  7  1  0
 20 15  1  0
 31 21  1  0
 30 24  1  0
  3 32  1  0
  4 33  1  0
  4 34  1  0
  8 35  1  0
  8 36  1  0
  9 37  1  1
 10 38  1  0
 11 39  1  0
 11 40  1  0
 12 41  1  6
 13 42  1  0
 13 43  1  0
 15 44  1  0
 16 45  1  0
 16 46  1  0
 17 47  1  0
 17 48  1  0
 18 49  1  0
 18 50  1  0
 19 51  1  0
 19 52  1  0
 20 53  1  0
 20 54  1  0
 22 55  1  0
 23 56  1  0
 25 57  1  0
 28 58  1  0
 29 59  1  0
M  END
>  <smiles>  (25) 
O=C(NCC(=O)N1C[C@H](O)C[C@H]1COC1CCCCC1)c1ccc2cc(F)ccc2n1

>  <score_type>  (25) 
oracle

>  <origin>  (25) 
autodockgpu

>  <m_score__min__energy>  (25) 
-8.2599999999999998

>  <m_primary>  (25) 
energy

>  <rmsd>  (25) 
2.8712552463821557

>  <m_score__min__rmsd>  (25) 
2.8712552463821557

>  <meeko>  (25) 
{"free_energy": -6.96, "intermolecular_energy": -9.34, "internal_energy": -2.66, "cluster_size": 43, "cluster_id": 1, "rank_in_cluster": 36}

>  <energy>  (25) 
-7.32

>  <cluster_rmsd>  (25) 
1.31

>  <cluster>  (25) 
1

$$$$

     RDKit          3D

 59 62  0  0  0  0  0  0  0  0999 V2000
  139.2240   71.6370  221.5140 O   0  0  0  0  0  0  0  0  0  0  0  0
  138.7280   71.7960  222.6360 C   0  0  0  0  0  0  0  0  0  0  0  0
  137.5410   72.5870  222.7260 N   0  0  0  0  0  0  0  0  0  0  0  0
  136.8810   73.2030  221.6380 C   0  0  0  0  0  0  0  0  0  0  0  0
  137.0780   74.6120  221.3560 C   0  0  0  0  0  0  0  0  0  0  0  0
  135.9780   75.2430  221.0100 O   0  0  0  0  0  0  0  0  0  0  0  0
  138.2010   75.4390  221.3710 N   0  0  0  0  0  0  0  0  0  0  0  0
  139.3950   75.0900  220.5460 C   0  0  0  0  0  0  0  0  0  0  0  0
  140.5300   75.3480  221.5380 C   0  0  2  0  0  0  0  0  0  0  0  0
  141.0430   74.1170  221.9570 O   0  0  0  0  0  0  0  0  0  0  0  0
  139.9160   76.0800  222.7100 C   0  0  0  0  0  0  0  0  0  0  0  0
  138.6210   76.6360  222.0400 C   0  0  1  0  0  0  0  0  0  0  0  0
  139.1460   77.7120  221.1140 C   0  0  0  0  0  0  0  0  0  0  0  0
  139.1560   78.9690  221.6460 O   0  0  0  0  0  0  0  0  0  0  0  0
  140.1220   79.0790  222.6550 C   0  0  0  0  0  0  0  0  0  0  0  0
  139.9110   80.3930  223.3420 C   0  0  0  0  0  0  0  0  0  0  0  0
  141.0630   81.3290  223.0480 C   0  0  0  0  0  0  0  0  0  0  0  0
  142.3480   80.7210  223.5340 C   0  0  0  0  0  0  0  0  0  0  0  0
  142.6050   79.4070  222.8310 C   0  0  0  0  0  0  0  0  0  0  0  0
  141.4580   78.9900  221.9590 C   0  0  0  0  0  0  0  0  0  0  0  0
  139.3270   71.1970  223.8350 C   0  0  0  0  0  0  0  0  0  0  0  0
  140.3300   71.8870  224.4790 C   0  0  0  0  0  0  0  0  0  0  0  0
  140.9470   71.3850  225.6210 C   0  0  0  0  0  0  0  0  0  0  0  0
  140.4920   70.1550  226.0700 C   0  0  0  0  0  0  0  0  0  0  0  0
  141.0500   69.5890  227.1940 C   0  0  0  0  0  0  0  0  0  0  0  0
  140.5930   68.3550  227.6430 C   0  0  0  0  0  0  0  0  0  0  0  0
  141.1130   67.7600  228.7450 F   0  0  0  0  0  0  0  0  0  0  0  0
  139.5760   67.7070  226.9490 C   0  0  0  0  0  0  0  0  0  0  0  0
  139.0040   68.2510  225.8260 C   0  0  0  0  0  0  0  0  0  0  0  0
  139.4720   69.4720  225.4000 C   0  0  0  0  0  0  0  0  0  0  0  0
  138.9200   70.0090  224.3060 N   0  0  0  0  0  0  0  0  0  0  0  0
  137.1640   72.6920  223.7110 H   0  0  0  0  0  0  0  0  0  0  0  0
  137.1865   72.6556  220.7341 H   0  0  0  0  0  0  0  0  0  0  0  0
  135.8227   73.1572  221.9345 H   0  0  0  0  0  0  0  0  0  0  0  0
  139.3704   74.0376  220.2270 H   0  0  0  0  0  0  0  0  0  0  0  0
  139.4774   75.6600  219.6088 H   0  0  0  0  0  0  0  0  0  0  0  0
  141.3451   75.9378  221.0933 H   0  0  0  0  0  0  0  0  0  0  0  0
  140.4060   73.4200  221.6600 H   0  0  0  0  0  0  0  0  0  0  0  0
  139.6841   75.3972  223.5407 H   0  0  0  0  0  0  0  0  0  0  0  0
  140.5628   76.8429  223.1679 H   0  0  0  0  0  0  0  0  0  0  0  0
  137.8087   77.0771  222.6363 H   0  0  0  0  0  0  0  0  0  0  0  0
  140.1773   77.4502  220.8348 H   0  0  0  0  0  0  0  0  0  0  0  0
  138.4593   77.7442  220.2553 H   0  0  0  0  0  0  0  0  0  0  0  0
  140.0635   78.2932  223.4225 H   0  0  0  0  0  0  0  0  0  0  0  0
  138.9750   80.8449  222.9818 H   0  0  0  0  0  0  0  0  0  0  0  0
  139.8542   80.2247  224.4276 H   0  0  0  0  0  0  0  0  0  0  0  0
  141.1270   81.5002  221.9633 H   0  0  0  0  0  0  0  0  0  0  0  0
  140.8952   82.2857  223.5644 H   0  0  0  0  0  0  0  0  0  0  0  0
  143.1781   81.4123  223.3262 H   0  0  0  0  0  0  0  0  0  0  0  0
  142.2714   80.5392  224.6162 H   0  0  0  0  0  0  0  0  0  0  0  0
  143.5041   79.5109  222.2059 H   0  0  0  0  0  0  0  0  0  0  0  0
  142.7371   78.6344  223.6028 H   0  0  0  0  0  0  0  0  0  0  0  0
  141.4358   79.6428  221.0739 H   0  0  0  0  0  0  0  0  0  0  0  0
  141.6176   77.9356  221.6893 H   0  0  0  0  0  0  0  0  0  0  0  0
  140.6518   72.8604  224.0803 H   0  0  0  0  0  0  0  0  0  0  0  0
  141.7492   71.9325  226.1374 H   0  0  0  0  0  0  0  0  0  0  0  0
  141.8537   70.1106  227.7344 H   0  0  0  0  0  0  0  0  0  0  0  0
  139.2202   66.7309  227.3105 H   0  0  0  0  0  0  0  0  0  0  0  0
  138.2001   67.7291  225.2862 H   0  0  0  0  0  0  0  0  0  0  0  0
  1  2  2  0
  2  3  1  0
  3  4  1  0
  4  5  1  0
  5  6  2  0
  5  7  1  0
  7  8  1  0
  8  9  1  0
  9 10  1  0
  9 11  1  0
 11 12  1  0
 12 13  1  0
 13 14  1  0
 14 15  1  0
 15 16  1  0
 16 17  1  0
 17 18  1  0
 18 19  1  0
 19 20  1  0
  2 21  1  0
 21 22  2  0
 22 23  1  0
 23 24  2  0
 24 25  1  0
 25 26  2  0
 26 27  1  0
 26 28  1  0
 28 29  2  0
 29 30  1  0
 30 31  2  0
 12  7  1  0
 20 15  1  0
 31 21  1  0
 30 24  1  0
  3 32  1  0
  4 33  1  0
  4 34  1  0
  8 35  1  0
  8 36  1  0
  9 37  1  6
 10 38  1  0
 11 39  1  0
 11 40  1  0
 12 41  1  1
 13 42  1  0
 13 43  1  0
 15 44  1  0
 16 45  1  0
 16 46  1  0
 17 47  1  0
 17 48  1  0
 18 49  1  0
 18 50  1  0
 19 51  1  0
 19 52  1  0
 20 53  1  0
 20 54  1  0
 22 55  1  0
 23 56  1  0
 25 57  1  0
 28 58  1  0
 29 59  1  0
M  END
>  <smiles>  (26) 
O=C(NCC(=O)N1C[C@H](O)C[C@H]1COC1CCCCC1)c1ccc2cc(F)ccc2n1

>  <score_type>  (26) 
oracle

>  <origin>  (26) 
autodockgpu

>  <m_score__min__energy>  (26) 
-8.2599999999999998

>  <m_primary>  (26) 
energy

>  <rmsd>  (26) 
3.2299714913338637

>  <m_score__min__rmsd>  (26) 
3.2299714913338637

>  <meeko>  (26) 
{"free_energy": -7.55, "intermolecular_energy": -9.94, "internal_energy": -2.3, "cluster_size": 43, "cluster_id": 1, "rank_in_cluster": 16}

>  <energy>  (26) 
-7.32

>  <cluster_rmsd>  (26) 
1.29

>  <cluster>  (26) 
1

$$$$

     RDKit          3D

 59 62  0  0  0  0  0  0  0  0999 V2000
  138.9200   72.4500  221.4330 O   0  0  0  0  0  0  0  0  0  0  0  0
  139.8470   72.4090  222.2510 C   0  0  0  0  0  0  0  0  0  0  0  0
  141.0070   73.1980  221.9760 N   0  0  0  0  0  0  0  0  0  0  0  0
  141.1840   74.0280  220.8450 C   0  0  0  0  0  0  0  0  0  0  0  0
  140.8020   75.4280  220.8890 C   0  0  0  0  0  0  0  0  0  0  0  0
  141.7150   76.2420  220.4090 O   0  0  0  0  0  0  0  0  0  0  0  0
  139.6620   76.0900  221.3430 N   0  0  0  0  0  0  0  0  0  0  0  0
  139.0790   75.7450  222.6730 C   0  0  0  0  0  0  0  0  0  0  0  0
  137.5890   75.6780  222.3390 C   0  0  2  0  0  0  0  0  0  0  0  0
  137.1920   74.3380  222.3410 O   0  0  0  0  0  0  0  0  0  0  0  0
  137.4340   76.2620  220.9530 C   0  0  0  0  0  0  0  0  0  0  0  0
  138.7560   77.0870  220.8530 C   0  0  1  0  0  0  0  0  0  0  0  0
  138.5190   78.2350  221.8100 C   0  0  0  0  0  0  0  0  0  0  0  0
  139.1910   79.3830  221.5020 O   0  0  0  0  0  0  0  0  0  0  0  0
  139.9180   79.8500  222.6040 C   0  0  0  0  0  0  0  0  0  0  0  0
  140.7330   81.0200  222.1460 C   0  0  0  0  0  0  0  0  0  0  0  0
  142.2050   80.6710  222.1570 C   0  0  0  0  0  0  0  0  0  0  0  0
  142.6270   80.2930  223.5490 C   0  0  0  0  0  0  0  0  0  0  0  0
  141.8440   79.0900  224.0250 C   0  0  0  0  0  0  0  0  0  0  0  0
  140.7660   78.6890  223.0610 C   0  0  0  0  0  0  0  0  0  0  0  0
  139.7680   71.5840  223.4630 C   0  0  0  0  0  0  0  0  0  0  0  0
  138.9710   70.4620  223.4400 C   0  0  0  0  0  0  0  0  0  0  0  0
  138.8450   69.6300  224.5490 C   0  0  0  0  0  0  0  0  0  0  0  0
  139.5670   69.9980  225.6730 C   0  0  0  0  0  0  0  0  0  0  0  0
  139.4970   69.2300  226.8130 C   0  0  0  0  0  0  0  0  0  0  0  0
  140.2230   69.5990  227.9400 C   0  0  0  0  0  0  0  0  0  0  0  0
  140.1840   68.8720  229.0830 F   0  0  0  0  0  0  0  0  0  0  0  0
  141.0120   70.7460  227.9010 C   0  0  0  0  0  0  0  0  0  0  0  0
  141.0980   71.5280  226.7770 C   0  0  0  0  0  0  0  0  0  0  0  0
  140.3720   71.1430  225.6740 C   0  0  0  0  0  0  0  0  0  0  0  0
  140.4500   71.9010  224.5750 N   0  0  0  0  0  0  0  0  0  0  0  0
  141.7690   73.1190  222.7080 H   0  0  0  0  0  0  0  0  0  0  0  0
  142.2561   74.0018  220.6001 H   0  0  0  0  0  0  0  0  0  0  0  0
  140.4794   73.6032  220.1149 H   0  0  0  0  0  0  0  0  0  0  0  0
  139.4537   74.7774  223.0381 H   0  0  0  0  0  0  0  0  0  0  0  0
  139.3296   76.4572  223.4730 H   0  0  0  0  0  0  0  0  0  0  0  0
  136.9751   76.2298  223.0661 H   0  0  0  0  0  0  0  0  0  0  0  0
  137.9210   73.8190  222.7660 H   0  0  0  0  0  0  0  0  0  0  0  0
  137.3838   75.4776  220.1834 H   0  0  0  0  0  0  0  0  0  0  0  0
  136.5135   76.8437  220.7971 H   0  0  0  0  0  0  0  0  0  0  0  0
  139.0972   77.5146  219.8987 H   0  0  0  0  0  0  0  0  0  0  0  0
  137.4422   78.4594  221.8158 H   0  0  0  0  0  0  0  0  0  0  0  0
  138.8980   77.9065  222.7890 H   0  0  0  0  0  0  0  0  0  0  0  0
  139.2942   80.1919  223.4431 H   0  0  0  0  0  0  0  0  0  0  0  0
  140.4326   81.2936  221.1238 H   0  0  0  0  0  0  0  0  0  0  0  0
  140.5606   81.8653  222.8285 H   0  0  0  0  0  0  0  0  0  0  0  0
  142.3849   79.8244  221.4781 H   0  0  0  0  0  0  0  0  0  0  0  0
  142.7879   81.5425  221.8243 H   0  0  0  0  0  0  0  0  0  0  0  0
  143.7001   80.0514  223.5501 H   0  0  0  0  0  0  0  0  0  0  0  0
  142.4310   81.1384  224.2249 H   0  0  0  0  0  0  0  0  0  0  0  0
  142.5370   78.2451  224.1509 H   0  0  0  0  0  0  0  0  0  0  0  0
  141.3598   79.3603  224.9750 H   0  0  0  0  0  0  0  0  0  0  0  0
  141.2378   78.2317  222.1788 H   0  0  0  0  0  0  0  0  0  0  0  0
  140.1028   77.9852  223.5852 H   0  0  0  0  0  0  0  0  0  0  0  0
  138.4189   70.2162  222.5209 H   0  0  0  0  0  0  0  0  0  0  0  0
  138.2092   68.7325  224.5339 H   0  0  0  0  0  0  0  0  0  0  0  0
  138.8688   68.3273  226.8325 H   0  0  0  0  0  0  0  0  0  0  0  0
  141.5823   71.0331  228.7967 H   0  0  0  0  0  0  0  0  0  0  0  0
  141.7256   72.4312  226.7585 H   0  0  0  0  0  0  0  0  0  0  0  0
  1  2  2  0
  2  3  1  0
  3  4  1  0
  4  5  1  0
  5  6  2  0
  5  7  1  0
  7  8  1  0
  8  9  1  0
  9 10  1  0
  9 11  1  0
 11 12  1  0
 12 13  1  0
 13 14  1  0
 14 15  1  0
 15 16  1  0
 16 17  1  0
 17 18  1  0
 18 19  1  0
 19 20  1  0
  2 21  1  0
 21 22  2  0
 22 23  1  0
 23 24  2  0
 24 25  1  0
 25 26  2  0
 26 27  1  0
 26 28  1  0
 28 29  2  0
 29 30  1  0
 30 31  2  0
 12  7  1  0
 20 15  1  0
 31 21  1  0
 30 24  1  0
  3 32  1  0
  4 33  1  0
  4 34  1  0
  8 35  1  0
  8 36  1  0
  9 37  1  1
 10 38  1  0
 11 39  1  0
 11 40  1  0
 12 41  1  6
 13 42  1  0
 13 43  1  0
 15 44  1  0
 16 45  1  0
 16 46  1  0
 17 47  1  0
 17 48  1  0
 18 49  1  0
 18 50  1  0
 19 51  1  0
 19 52  1  0
 20 53  1  0
 20 54  1  0
 22 55  1  0
 23 56  1  0
 25 57  1  0
 28 58  1  0
 29 59  1  0
M  END
>  <smiles>  (27) 
O=C(NCC(=O)N1C[C@H](O)C[C@H]1COC1CCCCC1)c1ccc2cc(F)ccc2n1

>  <score_type>  (27) 
oracle

>  <origin>  (27) 
autodockgpu

>  <m_score__min__energy>  (27) 
-8.2599999999999998

>  <m_primary>  (27) 
energy

>  <rmsd>  (27) 
2.9191666256026547

>  <m_score__min__rmsd>  (27) 
2.9191666256026547

>  <meeko>  (27) 
{"free_energy": -7.32, "intermolecular_energy": -9.71, "internal_energy": -2.7, "cluster_size": 43, "cluster_id": 1, "rank_in_cluster": 26}

>  <energy>  (27) 
-7.31

>  <cluster_rmsd>  (27) 
1.32

>  <cluster>  (27) 
1

$$$$

     RDKit          3D

 59 62  0  0  0  0  0  0  0  0999 V2000
  138.8430   72.4970  221.3060 O   0  0  0  0  0  0  0  0  0  0  0  0
  139.7340   72.4970  222.1640 C   0  0  0  0  0  0  0  0  0  0  0  0
  140.8520   73.3620  221.9550 N   0  0  0  0  0  0  0  0  0  0  0  0
  141.0250   74.2260  220.8490 C   0  0  0  0  0  0  0  0  0  0  0  0
  140.5390   75.5920  220.8950 C   0  0  0  0  0  0  0  0  0  0  0  0
  141.3680   76.4670  220.3690 O   0  0  0  0  0  0  0  0  0  0  0  0
  139.3720   76.1720  221.3890 N   0  0  0  0  0  0  0  0  0  0  0  0
  138.8170   75.7280  222.7020 C   0  0  0  0  0  0  0  0  0  0  0  0
  137.3290   75.6050  222.3720 C   0  0  2  0  0  0  0  0  0  0  0  0
  136.9990   74.2490  222.3040 O   0  0  0  0  0  0  0  0  0  0  0  0
  137.1350   76.2530  221.0200 C   0  0  0  0  0  0  0  0  0  0  0  0
  138.4130   77.1470  220.9570 C   0  0  1  0  0  0  0  0  0  0  0  0
  138.1270   78.2300  221.9750 C   0  0  0  0  0  0  0  0  0  0  0  0
  139.0990   78.3960  222.9200 O   0  0  0  0  0  0  0  0  0  0  0  0
  140.1980   79.0850  222.3940 C   0  0  0  0  0  0  0  0  0  0  0  0
  141.4370   78.3760  222.8470 C   0  0  0  0  0  0  0  0  0  0  0  0
  142.2040   79.2350  223.8290 C   0  0  0  0  0  0  0  0  0  0  0  0
  142.5920   80.5310  223.1750 C   0  0  0  0  0  0  0  0  0  0  0  0
  141.3570   81.2870  222.7380 C   0  0  0  0  0  0  0  0  0  0  0  0
  140.0990   80.4920  222.9320 C   0  0  0  0  0  0  0  0  0  0  0  0
  139.6550   71.6440  223.3570 C   0  0  0  0  0  0  0  0  0  0  0  0
  138.8150   70.5530  223.3270 C   0  0  0  0  0  0  0  0  0  0  0  0
  138.6860   69.6980  224.4170 C   0  0  0  0  0  0  0  0  0  0  0  0
  139.4510   70.0090  225.5300 C   0  0  0  0  0  0  0  0  0  0  0  0
  139.3820   69.2130  226.6510 C   0  0  0  0  0  0  0  0  0  0  0  0
  140.1500   69.5250  227.7670 C   0  0  0  0  0  0  0  0  0  0  0  0
  140.1130   68.7700  228.8920 F   0  0  0  0  0  0  0  0  0  0  0  0
  140.9810   70.6420  227.7360 C   0  0  0  0  0  0  0  0  0  0  0  0
  141.0670   71.4500  226.6310 C   0  0  0  0  0  0  0  0  0  0  0  0
  140.2990   71.1220  225.5380 C   0  0  0  0  0  0  0  0  0  0  0  0
  140.3770   71.9050  224.4570 N   0  0  0  0  0  0  0  0  0  0  0  0
  141.5850   73.3160  222.7190 H   0  0  0  0  0  0  0  0  0  0  0  0
  142.1073   74.2834  220.6610 H   0  0  0  0  0  0  0  0  0  0  0  0
  140.3920   73.7657  220.0760 H   0  0  0  0  0  0  0  0  0  0  0  0
  139.2417   74.7621  223.0128 H   0  0  0  0  0  0  0  0  0  0  0  0
  139.0384   76.4080  223.5378 H   0  0  0  0  0  0  0  0  0  0  0  0
  136.6942   76.0863  223.1305 H   0  0  0  0  0  0  0  0  0  0  0  0
  137.7410   73.7470  222.7270 H   0  0  0  0  0  0  0  0  0  0  0  0
  137.1179   75.5088  220.2101 H   0  0  0  0  0  0  0  0  0  0  0  0
  136.1857   76.7956  220.9001 H   0  0  0  0  0  0  0  0  0  0  0  0
  138.7247   77.6407  220.0247 H   0  0  0  0  0  0  0  0  0  0  0  0
  138.0055   79.1820  221.4375 H   0  0  0  0  0  0  0  0  0  0  0  0
  137.2200   77.9183  222.5137 H   0  0  0  0  0  0  0  0  0  0  0  0
  140.2229   79.1207  221.2949 H   0  0  0  0  0  0  0  0  0  0  0  0
  141.1565   77.4303  223.3339 H   0  0  0  0  0  0  0  0  0  0  0  0
  142.0743   78.1752  221.9732 H   0  0  0  0  0  0  0  0  0  0  0  0
  141.5714   79.4426  224.7046 H   0  0  0  0  0  0  0  0  0  0  0  0
  143.1122   78.7017  224.1466 H   0  0  0  0  0  0  0  0  0  0  0  0
  143.1585   81.1440  223.8915 H   0  0  0  0  0  0  0  0  0  0  0  0
  143.2116   80.3156  222.2920 H   0  0  0  0  0  0  0  0  0  0  0  0
  141.2835   82.2133  223.3267 H   0  0  0  0  0  0  0  0  0  0  0  0
  141.4569   81.4984  221.6631 H   0  0  0  0  0  0  0  0  0  0  0  0
  139.8802   80.4403  224.0088 H   0  0  0  0  0  0  0  0  0  0  0  0
  139.3001   81.0011  222.3730 H   0  0  0  0  0  0  0  0  0  0  0  0
  138.2305   70.3522  222.4170 H   0  0  0  0  0  0  0  0  0  0  0  0
  138.0158   68.8259  224.3966 H   0  0  0  0  0  0  0  0  0  0  0  0
  138.7217   68.3333  226.6637 H   0  0  0  0  0  0  0  0  0  0  0  0
  141.5856   70.8831  228.6228 H   0  0  0  0  0  0  0  0  0  0  0  0
  141.7272   72.3298  226.6193 H   0  0  0  0  0  0  0  0  0  0  0  0
  1  2  2  0
  2  3  1  0
  3  4  1  0
  4  5  1  0
  5  6  2  0
  5  7  1  0
  7  8  1  0
  8  9  1  0
  9 10  1  0
  9 11  1  0
 11 12  1  0
 12 13  1  0
 13 14  1  0
 14 15  1  0
 15 16  1  0
 16 17  1  0
 17 18  1  0
 18 19  1  0
 19 20  1  0
  2 21  1  0
 21 22  2  0
 22 23  1  0
 23 24  2  0
 24 25  1  0
 25 26  2  0
 26 27  1  0
 26 28  1  0
 28 29  2  0
 29 30  1  0
 30 31  2  0
 12  7  1  0
 20 15  1  0
 31 21  1  0
 30 24  1  0
  3 32  1  0
  4 33  1  0
  4 34  1  0
  8 35  1  0
  8 36  1  0
  9 37  1  1
 10 38  1  0
 11 39  1  0
 11 40  1  0
 12 41  1  6
 13 42  1  0
 13 43  1  0
 15 44  1  0
 16 45  1  0
 16 46  1  0
 17 47  1  0
 17 48  1  0
 18 49  1  0
 18 50  1  0
 19 51  1  0
 19 52  1  0
 20 53  1  0
 20 54  1  0
 22 55  1  0
 23 56  1  0
 25 57  1  0
 28 58  1  0
 29 59  1  0
M  END
>  <smiles>  (28) 
O=C(NCC(=O)N1C[C@H](O)C[C@H]1COC1CCCCC1)c1ccc2cc(F)ccc2n1

>  <score_type>  (28) 
oracle

>  <origin>  (28) 
autodockgpu

>  <m_score__min__energy>  (28) 
-8.2599999999999998

>  <m_primary>  (28) 
energy

>  <rmsd>  (28) 
2.9960247564013476

>  <m_score__min__rmsd>  (28) 
2.9960247564013476

>  <meeko>  (28) 
{"free_energy": -7.28, "intermolecular_energy": -9.67, "internal_energy": -2.7, "cluster_size": 43, "cluster_id": 1, "rank_in_cluster": 29}

>  <energy>  (28) 
-7.28

>  <cluster_rmsd>  (28) 
1.37

>  <cluster>  (28) 
1

$$$$

     RDKit          3D

 59 62  0  0  0  0  0  0  0  0999 V2000
  139.0300   72.7020  221.0650 O   0  0  0  0  0  0  0  0  0  0  0  0
  139.9300   72.6900  221.9130 C   0  0  0  0  0  0  0  0  0  0  0  0
  141.0780   73.5060  221.6690 N   0  0  0  0  0  0  0  0  0  0  0  0
  141.2700   74.3340  220.5390 C   0  0  0  0  0  0  0  0  0  0  0  0
  140.6580   75.6490  220.4730 C   0  0  0  0  0  0  0  0  0  0  0  0
  141.2650   76.4750  219.6510 O   0  0  0  0  0  0  0  0  0  0  0  0
  139.5570   76.2190  221.1090 N   0  0  0  0  0  0  0  0  0  0  0  0
  139.1940   75.7970  222.4940 C   0  0  0  0  0  0  0  0  0  0  0  0
  137.6770   75.6400  222.3710 C   0  0  2  0  0  0  0  0  0  0  0  0
  137.3690   74.2770  222.3780 O   0  0  0  0  0  0  0  0  0  0  0  0
  137.2890   76.2530  221.0450 C   0  0  0  0  0  0  0  0  0  0  0  0
  138.5290   77.1670  220.7910 C   0  0  1  0  0  0  0  0  0  0  0  0
  138.3610   78.2680  221.8160 C   0  0  0  0  0  0  0  0  0  0  0  0
  139.2160   79.3220  221.6670 O   0  0  0  0  0  0  0  0  0  0  0  0
  139.9420   79.5510  222.8430 C   0  0  0  0  0  0  0  0  0  0  0  0
  140.3210   80.9990  222.8680 C   0  0  0  0  0  0  0  0  0  0  0  0
  141.8160   81.1540  222.6960 C   0  0  0  0  0  0  0  0  0  0  0  0
  142.5310   80.4400  223.8080 C   0  0  0  0  0  0  0  0  0  0  0  0
  142.1950   78.9660  223.7850 C   0  0  0  0  0  0  0  0  0  0  0  0
  141.1390   78.6340  222.7730 C   0  0  0  0  0  0  0  0  0  0  0  0
  139.8330   71.8710  223.1280 C   0  0  0  0  0  0  0  0  0  0  0  0
  139.0030   70.7720  223.1120 C   0  0  0  0  0  0  0  0  0  0  0  0
  138.8580   69.9480  224.2240 C   0  0  0  0  0  0  0  0  0  0  0  0
  139.5960   70.2980  225.3430 C   0  0  0  0  0  0  0  0  0  0  0  0
  139.5100   69.5340  226.4850 C   0  0  0  0  0  0  0  0  0  0  0  0
  140.2510   69.8860  227.6070 C   0  0  0  0  0  0  0  0  0  0  0  0
  140.1960   69.1630  228.7530 F   0  0  0  0  0  0  0  0  0  0  0  0
  141.0730   71.0080  227.5620 C   0  0  0  0  0  0  0  0  0  0  0  0
  141.1760   71.7850  226.4350 C   0  0  0  0  0  0  0  0  0  0  0  0
  140.4340   71.4180  225.3370 C   0  0  0  0  0  0  0  0  0  0  0  0
  140.5290   72.1710  224.2350 N   0  0  0  0  0  0  0  0  0  0  0  0
  141.8180   73.4520  222.4270 H   0  0  0  0  0  0  0  0  0  0  0  0
  142.3550   74.4868  220.4417 H   0  0  0  0  0  0  0  0  0  0  0  0
  140.7542   73.7822  219.7393 H   0  0  0  0  0  0  0  0  0  0  0  0
  139.6767   74.8464  222.7650 H   0  0  0  0  0  0  0  0  0  0  0  0
  139.5123   76.5004  223.2775 H   0  0  0  0  0  0  0  0  0  0  0  0
  137.1400   76.1278  223.1978 H   0  0  0  0  0  0  0  0  0  0  0  0
  138.1610   73.8010  222.7330 H   0  0  0  0  0  0  0  0  0  0  0  0
  137.1774   75.4901  220.2604 H   0  0  0  0  0  0  0  0  0  0  0  0
  136.3215   76.7764  221.0437 H   0  0  0  0  0  0  0  0  0  0  0  0
  138.7022   77.6442  219.8151 H   0  0  0  0  0  0  0  0  0  0  0  0
  137.3316   78.6491  221.7438 H   0  0  0  0  0  0  0  0  0  0  0  0
  138.5889   77.8191  222.7940 H   0  0  0  0  0  0  0  0  0  0  0  0
  139.3813   79.3425  223.7661 H   0  0  0  0  0  0  0  0  0  0  0  0
  139.8054   81.5231  222.0498 H   0  0  0  0  0  0  0  0  0  0  0  0
  140.0260   81.4292  223.8364 H   0  0  0  0  0  0  0  0  0  0  0  0
  142.1195   80.7233  221.7304 H   0  0  0  0  0  0  0  0  0  0  0  0
  142.0766   82.2223  222.7225 H   0  0  0  0  0  0  0  0  0  0  0  0
  143.6164   80.5670  223.6823 H   0  0  0  0  0  0  0  0  0  0  0  0
  142.2115   80.8654  224.7708 H   0  0  0  0  0  0  0  0  0  0  0  0
  143.1065   78.4000  223.5425 H   0  0  0  0  0  0  0  0  0  0  0  0
  141.8040   78.6965  224.7772 H   0  0  0  0  0  0  0  0  0  0  0  0
  141.5805   78.7108  221.7684 H   0  0  0  0  0  0  0  0  0  0  0  0
  140.7849   77.6156  222.9907 H   0  0  0  0  0  0  0  0  0  0  0  0
  138.4399   70.5395  222.1961 H   0  0  0  0  0  0  0  0  0  0  0  0
  138.1958   69.0697  224.2150 H   0  0  0  0  0  0  0  0  0  0  0  0
  138.8576   68.6487  226.5094 H   0  0  0  0  0  0  0  0  0  0  0  0
  141.6563   71.2798  228.4541 H   0  0  0  0  0  0  0  0  0  0  0  0
  141.8290   72.6699  226.4111 H   0  0  0  0  0  0  0  0  0  0  0  0
  1  2  2  0
  2  3  1  0
  3  4  1  0
  4  5  1  0
  5  6  2  0
  5  7  1  0
  7  8  1  0
  8  9  1  0
  9 10  1  0
  9 11  1  0
 11 12  1  0
 12 13  1  0
 13 14  1  0
 14 15  1  0
 15 16  1  0
 16 17  1  0
 17 18  1  0
 18 19  1  0
 19 20  1  0
  2 21  1  0
 21 22  2  0
 22 23  1  0
 23 24  2  0
 24 25  1  0
 25 26  2  0
 26 27  1  0
 26 28  1  0
 28 29  2  0
 29 30  1  0
 30 31  2  0
 12  7  1  0
 20 15  1  0
 31 21  1  0
 30 24  1  0
  3 32  1  0
  4 33  1  0
  4 34  1  0
  8 35  1  0
  8 36  1  0
  9 37  1  1
 10 38  1  0
 11 39  1  0
 11 40  1  0
 12 41  1  6
 13 42  1  0
 13 43  1  0
 15 44  1  0
 16 45  1  0
 16 46  1  0
 17 47  1  0
 17 48  1  0
 18 49  1  0
 18 50  1  0
 19 51  1  0
 19 52  1  0
 20 53  1  0
 20 54  1  0
 22 55  1  0
 23 56  1  0
 25 57  1  0
 28 58  1  0
 29 59  1  0
M  END
>  <smiles>  (29) 
O=C(NCC(=O)N1C[C@H](O)C[C@H]1COC1CCCCC1)c1ccc2cc(F)ccc2n1

>  <score_type>  (29) 
oracle

>  <origin>  (29) 
autodockgpu

>  <m_score__min__energy>  (29) 
-8.2599999999999998

>  <m_primary>  (29) 
energy

>  <rmsd>  (29) 
3.035214819295124

>  <m_score__min__rmsd>  (29) 
3.035214819295124

>  <meeko>  (29) 
{"free_energy": -6.99, "intermolecular_energy": -9.38, "internal_energy": -2.72, "cluster_size": 43, "cluster_id": 1, "rank_in_cluster": 34}

>  <energy>  (29) 
-7.28

>  <cluster_rmsd>  (29) 
1.35

>  <cluster>  (29) 
1

$$$$

     RDKit          3D

 59 62  0  0  0  0  0  0  0  0999 V2000
  140.3370   73.5570  222.2940 O   0  0  0  0  0  0  0  0  0  0  0  0
  140.3070   72.3210  222.2470 C   0  0  0  0  0  0  0  0  0  0  0  0
  140.4430   71.7050  220.9650 N   0  0  0  0  0  0  0  0  0  0  0  0
  140.6140   72.3900  219.7400 C   0  0  0  0  0  0  0  0  0  0  0  0
  141.7720   73.2380  219.5230 C   0  0  0  0  0  0  0  0  0  0  0  0
  142.8770   72.5720  219.2710 O   0  0  0  0  0  0  0  0  0  0  0  0
  141.9550   74.6200  219.5320 N   0  0  0  0  0  0  0  0  0  0  0  0
  141.7340   75.4090  218.2840 C   0  0  0  0  0  0  0  0  0  0  0  0
  142.9510   76.3350  218.2960 C   0  0  2  0  0  0  0  0  0  0  0  0
  143.8450   75.9090  217.3100 O   0  0  0  0  0  0  0  0  0  0  0  0
  143.5820   76.1950  219.6630 C   0  0  0  0  0  0  0  0  0  0  0  0
  142.3730   75.6230  220.4670 C   0  0  1  0  0  0  0  0  0  0  0  0
  141.4350   76.8060  220.5680 C   0  0  0  0  0  0  0  0  0  0  0  0
  140.3000   76.5760  221.2920 O   0  0  0  0  0  0  0  0  0  0  0  0
  140.3310   77.2700  222.5080 C   0  0  0  0  0  0  0  0  0  0  0  0
  138.9970   77.9240  222.6920 C   0  0  0  0  0  0  0  0  0  0  0  0
  139.1290   79.4270  222.5860 C   0  0  0  0  0  0  0  0  0  0  0  0
  140.0710   79.9290  223.6430 C   0  0  0  0  0  0  0  0  0  0  0  0
  141.4400   79.3120  223.4620 C   0  0  0  0  0  0  0  0  0  0  0  0
  141.4590   78.2660  222.3860 C   0  0  0  0  0  0  0  0  0  0  0  0
  140.1390   71.5090  223.4590 C   0  0  0  0  0  0  0  0  0  0  0  0
  139.4180   70.3380  223.3670 C   0  0  0  0  0  0  0  0  0  0  0  0
  139.2160   69.5150  224.4710 C   0  0  0  0  0  0  0  0  0  0  0  0
  139.7800   69.9420  225.6620 C   0  0  0  0  0  0  0  0  0  0  0  0
  139.6260   69.1850  226.8020 C   0  0  0  0  0  0  0  0  0  0  0  0
  140.1940   69.6130  227.9960 C   0  0  0  0  0  0  0  0  0  0  0  0
  140.0670   68.9000  229.1420 F   0  0  0  0  0  0  0  0  0  0  0  0
  140.9110   70.8060  228.0250 C   0  0  0  0  0  0  0  0  0  0  0  0
  141.0780   71.5780  226.9030 C   0  0  0  0  0  0  0  0  0  0  0  0
  140.5090   71.1340  225.7320 C   0  0  0  0  0  0  0  0  0  0  0  0
  140.6670   71.8820  224.6350 N   0  0  0  0  0  0  0  0  0  0  0  0
  140.4050   70.6460  220.9860 H   0  0  0  0  0  0  0  0  0  0  0  0
  140.6328   71.6238  218.9510 H   0  0  0  0  0  0  0  0  0  0  0  0
  139.7801   73.1073  219.7405 H   0  0  0  0  0  0  0  0  0  0  0  0
  141.7288   74.7622  217.3942 H   0  0  0  0  0  0  0  0  0  0  0  0
  140.7683   75.9344  218.2481 H   0  0  0  0  0  0  0  0  0  0  0  0
  142.6783   77.3819  218.0970 H   0  0  0  0  0  0  0  0  0  0  0  0
  144.6900   75.6700  217.7670 H   0  0  0  0  0  0  0  0  0  0  0  0
  144.4307   75.4953  219.6504 H   0  0  0  0  0  0  0  0  0  0  0  0
  144.0105   77.1224  220.0709 H   0  0  0  0  0  0  0  0  0  0  0  0
  142.4987   75.2105  221.4789 H   0  0  0  0  0  0  0  0  0  0  0  0
  141.9804   77.6360  221.0409 H   0  0  0  0  0  0  0  0  0  0  0  0
  141.1080   77.0308  219.5421 H   0  0  0  0  0  0  0  0  0  0  0  0
  140.5075   76.6313  223.3860 H   0  0  0  0  0  0  0  0  0  0  0  0
  138.3067   77.5648  221.9146 H   0  0  0  0  0  0  0  0  0  0  0  0
  138.6083   77.6688  223.6889 H   0  0  0  0  0  0  0  0  0  0  0  0
  139.5207   79.6904  221.5924 H   0  0  0  0  0  0  0  0  0  0  0  0
  138.1415   79.8901  222.7288 H   0  0  0  0  0  0  0  0  0  0  0  0
  140.1531   81.0232  223.5659 H   0  0  0  0  0  0  0  0  0  0  0  0
  139.6804   79.6492  224.6325 H   0  0  0  0  0  0  0  0  0  0  0  0
  142.1528   80.1062  223.1951 H   0  0  0  0  0  0  0  0  0  0  0  0
  141.7155   78.8241  224.4086 H   0  0  0  0  0  0  0  0  0  0  0  0
  141.3799   78.7666  221.4097 H   0  0  0  0  0  0  0  0  0  0  0  0
  142.4015   77.7080  222.4877 H   0  0  0  0  0  0  0  0  0  0  0  0
  138.9912   70.0464  222.3960 H   0  0  0  0  0  0  0  0  0  0  0  0
  138.6416   68.5794  224.4018 H   0  0  0  0  0  0  0  0  0  0  0  0
  139.0556   68.2451  226.7677 H   0  0  0  0  0  0  0  0  0  0  0  0
  141.3562   71.1391  228.9741 H   0  0  0  0  0  0  0  0  0  0  0  0
  141.6469   72.5188  226.9387 H   0  0  0  0  0  0  0  0  0  0  0  0
  1  2  2  0
  2  3  1  0
  3  4  1  0
  4  5  1  0
  5  6  2  0
  5  7  1  0
  7  8  1  0
  8  9  1  0
  9 10  1  0
  9 11  1  0
 11 12  1  0
 12 13  1  0
 13 14  1  0
 14 15  1  0
 15 16  1  0
 16 17  1  0
 17 18  1  0
 18 19  1  0
 19 20  1  0
  2 21  1  0
 21 22  2  0
 22 23  1  0
 23 24  2  0
 24 25  1  0
 25 26  2  0
 26 27  1  0
 26 28  1  0
 28 29  2  0
 29 30  1  0
 30 31  2  0
 12  7  1  0
 20 15  1  0
 31 21  1  0
 30 24  1  0
  3 32  1  0
  4 33  1  0
  4 34  1  0
  8 35  1  0
  8 36  1  0
  9 37  1  6
 10 38  1  0
 11 39  1  0
 11 40  1  0
 12 41  1  1
 13 42  1  0
 13 43  1  0
 15 44  1  0
 16 45  1  0
 16 46  1  0
 17 47  1  0
 17 48  1  0
 18 49  1  0
 18 50  1  0
 19 51  1  0
 19 52  1  0
 20 53  1  0
 20 54  1  0
 22 55  1  0
 23 56  1  0
 25 57  1  0
 28 58  1  0
 29 59  1  0
M  END
>  <smiles>  (30) 
O=C(NCC(=O)N1C[C@H](O)C[C@H]1COC1CCCCC1)c1ccc2cc(F)ccc2n1

>  <score_type>  (30) 
oracle

>  <origin>  (30) 
autodockgpu

>  <m_score__min__energy>  (30) 
-8.2599999999999998

>  <m_primary>  (30) 
energy

>  <rmsd>  (30) 
2.3249754866837904

>  <m_score__min__rmsd>  (30) 
2.3249754866837904

>  <meeko>  (30) 
{"free_energy": -7.85, "intermolecular_energy": -10.24, "internal_energy": -1.6, "cluster_size": 2, "cluster_id": 3, "rank_in_cluster": 1}

>  <energy>  (30) 
-7.27

>  <cluster_rmsd>  (30) 
1.56

>  <cluster>  (30) 
1

$$$$

     RDKit          3D

 59 62  0  0  0  0  0  0  0  0999 V2000
  133.5790   70.2860  226.2590 O   0  0  0  0  0  0  0  0  0  0  0  0
  133.5260   71.3740  225.6710 C   0  0  0  0  0  0  0  0  0  0  0  0
  133.9330   71.4030  224.3010 N   0  0  0  0  0  0  0  0  0  0  0  0
  134.3870   70.2910  223.5560 C   0  0  0  0  0  0  0  0  0  0  0  0
  135.5320   69.5200  224.0050 C   0  0  0  0  0  0  0  0  0  0  0  0
  135.2110   68.4530  224.7030 O   0  0  0  0  0  0  0  0  0  0  0  0
  136.9080   69.6790  223.8500 N   0  0  0  0  0  0  0  0  0  0  0  0
  137.5710   70.9310  224.3210 C   0  0  0  0  0  0  0  0  0  0  0  0
  138.4940   71.2430  223.1420 C   0  0  2  0  0  0  0  0  0  0  0  0
  137.9730   72.3370  222.4460 O   0  0  0  0  0  0  0  0  0  0  0  0
  138.4900   70.0160  222.2590 C   0  0  0  0  0  0  0  0  0  0  0  0
  137.9990   68.9430  223.2810 C   0  0  1  0  0  0  0  0  0  0  0  0
  139.1860   68.7780  224.2050 C   0  0  0  0  0  0  0  0  0  0  0  0
  139.1280   67.6840  225.0200 O   0  0  0  0  0  0  0  0  0  0  0  0
  139.2740   68.0500  226.3640 C   0  0  0  0  0  0  0  0  0  0  0  0
  139.1980   69.5440  226.4380 C   0  0  0  0  0  0  0  0  0  0  0  0
  140.5440   70.1200  226.8180 C   0  0  0  0  0  0  0  0  0  0  0  0
  140.9670   69.5830  228.1560 C   0  0  0  0  0  0  0  0  0  0  0  0
  141.0870   68.0770  228.1010 C   0  0  0  0  0  0  0  0  0  0  0  0
  140.6170   67.5110  226.7940 C   0  0  0  0  0  0  0  0  0  0  0  0
  133.0640   72.5930  226.3460 C   0  0  0  0  0  0  0  0  0  0  0  0
  131.9940   72.4980  227.2080 C   0  0  0  0  0  0  0  0  0  0  0  0
  131.4990   73.6090  227.8850 C   0  0  0  0  0  0  0  0  0  0  0  0
  132.1440   74.8110  227.6400 C   0  0  0  0  0  0  0  0  0  0  0  0
  131.7160   75.9580  228.2690 C   0  0  0  0  0  0  0  0  0  0  0  0
  132.3640   77.1630  228.0230 C   0  0  0  0  0  0  0  0  0  0  0  0
  131.9760   78.3160  228.6210 F   0  0  0  0  0  0  0  0  0  0  0  0
  133.4400   77.1940  227.1410 C   0  0  0  0  0  0  0  0  0  0  0  0
  133.8860   76.0640  226.5010 C   0  0  0  0  0  0  0  0  0  0  0  0
  133.2290   74.8840  226.7600 C   0  0  0  0  0  0  0  0  0  0  0  0
  133.6580   73.7790  226.1400 N   0  0  0  0  0  0  0  0  0  0  0  0
  133.8710   72.3610  223.8510 H   0  0  0  0  0  0  0  0  0  0  0  0
  133.5418   69.5901  223.4897 H   0  0  0  0  0  0  0  0  0  0  0  0
  134.7483   70.7494  222.6236 H   0  0  0  0  0  0  0  0  0  0  0  0
  136.8402   71.7367  224.4845 H   0  0  0  0  0  0  0  0  0  0  0  0
  138.0904   70.8304  225.2854 H   0  0  0  0  0  0  0  0  0  0  0  0
  139.5164   71.4861  223.4671 H   0  0  0  0  0  0  0  0  0  0  0  0
  137.7300   73.0210  223.1190 H   0  0  0  0  0  0  0  0  0  0  0  0
  137.7931   70.1237  221.4147 H   0  0  0  0  0  0  0  0  0  0  0  0
  139.4534   69.7895  221.7788 H   0  0  0  0  0  0  0  0  0  0  0  0
  137.6881   67.9390  222.9566 H   0  0  0  0  0  0  0  0  0  0  0  0
  140.0924   68.6970  223.5870 H   0  0  0  0  0  0  0  0  0  0  0  0
  139.1893   69.6574  224.8659 H   0  0  0  0  0  0  0  0  0  0  0  0
  138.4944   67.6477  227.0276 H   0  0  0  0  0  0  0  0  0  0  0  0
  138.8972   69.9411  225.4573 H   0  0  0  0  0  0  0  0  0  0  0  0
  138.4590   69.8272  227.2020 H   0  0  0  0  0  0  0  0  0  0  0  0
  141.2891   69.8387  226.0593 H   0  0  0  0  0  0  0  0  0  0  0  0
  140.4679   71.2160  226.8736 H   0  0  0  0  0  0  0  0  0  0  0  0
  141.9409   70.0152  228.4294 H   0  0  0  0  0  0  0  0  0  0  0  0
  140.2107   69.8552  228.9069 H   0  0  0  0  0  0  0  0  0  0  0  0
  142.1421   67.8016  228.2457 H   0  0  0  0  0  0  0  0  0  0  0  0
  140.4483   67.6615  228.8943 H   0  0  0  0  0  0  0  0  0  0  0  0
  141.3577   67.7577  226.0191 H   0  0  0  0  0  0  0  0  0  0  0  0
  140.5070   66.4247  226.9276 H   0  0  0  0  0  0  0  0  0  0  0  0
  131.5183   71.5188  227.3655 H   0  0  0  0  0  0  0  0  0  0  0  0
  130.6451   73.5371  228.5747 H   0  0  0  0  0  0  0  0  0  0  0  0
  130.8641   75.9213  228.9640 H   0  0  0  0  0  0  0  0  0  0  0  0
  133.9478   78.1511  226.9511 H   0  0  0  0  0  0  0  0  0  0  0  0
  134.7380   76.1013  225.8063 H   0  0  0  0  0  0  0  0  0  0  0  0
  1  2  2  0
  2  3  1  0
  3  4  1  0
  4  5  1  0
  5  6  2  0
  5  7  1  0
  7  8  1  0
  8  9  1  0
  9 10  1  0
  9 11  1  0
 11 12  1  0
 12 13  1  0
 13 14  1  0
 14 15  1  0
 15 16  1  0
 16 17  1  0
 17 18  1  0
 18 19  1  0
 19 20  1  0
  2 21  1  0
 21 22  2  0
 22 23  1  0
 23 24  2  0
 24 25  1  0
 25 26  2  0
 26 27  1  0
 26 28  1  0
 28 29  2  0
 29 30  1  0
 30 31  2  0
 12  7  1  0
 20 15  1  0
 31 21  1  0
 30 24  1  0
  3 32  1  0
  4 33  1  0
  4 34  1  0
  8 35  1  0
  8 36  1  0
  9 37  1  1
 10 38  1  0
 11 39  1  0
 11 40  1  0
 12 41  1  6
 13 42  1  0
 13 43  1  0
 15 44  1  0
 16 45  1  0
 16 46  1  0
 17 47  1  0
 17 48  1  0
 18 49  1  0
 18 50  1  0
 19 51  1  0
 19 52  1  0
 20 53  1  0
 20 54  1  0
 22 55  1  0
 23 56  1  0
 25 57  1  0
 28 58  1  0
 29 59  1  0
M  END
>  <smiles>  (31) 
O=C(NCC(=O)N1C[C@H](O)C[C@H]1COC1CCCCC1)c1ccc2cc(F)ccc2n1

>  <score_type>  (31) 
oracle

>  <origin>  (31) 
autodockgpu

>  <m_score__min__energy>  (31) 
-8.2599999999999998

>  <m_primary>  (31) 
energy

>  <rmsd>  (31) 
8.643469802033543

>  <m_score__min__rmsd>  (31) 
8.643469802033543

>  <meeko>  (31) 
{"free_energy": -8.17, "intermolecular_energy": -10.56, "internal_energy": -1.57, "cluster_size": 2, "cluster_id": 2, "rank_in_cluster": 1}

>  <energy>  (31) 
-7.16

>  <cluster_rmsd>  (31) 
1.35

>  <cluster>  (31) 
1

$$$$

     RDKit          3D

 59 62  0  0  0  0  0  0  0  0999 V2000
  139.6510   73.4890  222.6810 O   0  0  0  0  0  0  0  0  0  0  0  0
  140.3550   72.4720  222.7180 C   0  0  0  0  0  0  0  0  0  0  0  0
  141.2810   72.2710  221.6480 N   0  0  0  0  0  0  0  0  0  0  0  0
  141.4660   73.1410  220.5490 C   0  0  0  0  0  0  0  0  0  0  0  0
  141.9490   74.4950  220.7510 C   0  0  0  0  0  0  0  0  0  0  0  0
  143.2590   74.5880  220.8050 O   0  0  0  0  0  0  0  0  0  0  0  0
  141.3050   75.7220  220.9050 N   0  0  0  0  0  0  0  0  0  0  0  0
  141.0000   76.2370  222.2720 C   0  0  0  0  0  0  0  0  0  0  0  0
  139.5640   76.7320  222.0920 C   0  0  2  0  0  0  0  0  0  0  0  0
  138.7020   75.8450  222.7430 O   0  0  0  0  0  0  0  0  0  0  0  0
  139.2910   76.7220  220.6050 C   0  0  0  0  0  0  0  0  0  0  0  0
  140.7530   76.7380  220.0570 C   0  0  1  0  0  0  0  0  0  0  0  0
  141.2270   78.1390  220.3770 C   0  0  0  0  0  0  0  0  0  0  0  0
  140.2290   79.0390  220.6170 O   0  0  0  0  0  0  0  0  0  0  0  0
  140.6970   80.1170  221.3780 C   0  0  0  0  0  0  0  0  0  0  0  0
  142.1890   80.0170  221.4380 C   0  0  0  0  0  0  0  0  0  0  0  0
  142.6370   79.6830  222.8440 C   0  0  0  0  0  0  0  0  0  0  0  0
  142.1790   80.7550  223.7910 C   0  0  0  0  0  0  0  0  0  0  0  0
  140.6700   80.8560  223.7780 C   0  0  0  0  0  0  0  0  0  0  0  0
  140.0460   79.9790  222.7330 C   0  0  0  0  0  0  0  0  0  0  0  0
  140.2500   71.5030  223.8160 C   0  0  0  0  0  0  0  0  0  0  0  0
  139.6770   70.2780  223.5540 C   0  0  0  0  0  0  0  0  0  0  0  0
  139.5430   69.3070  224.5420 C   0  0  0  0  0  0  0  0  0  0  0  0
  140.0180   69.6450  225.7990 C   0  0  0  0  0  0  0  0  0  0  0  0
  139.9230   68.7410  226.8330 C   0  0  0  0  0  0  0  0  0  0  0  0
  140.4010   69.0810  228.0930 C   0  0  0  0  0  0  0  0  0  0  0  0
  140.3280   68.2220  229.1390 F   0  0  0  0  0  0  0  0  0  0  0  0
  140.9710   70.3350  228.2940 C   0  0  0  0  0  0  0  0  0  0  0  0
  141.0770   71.2540  227.2800 C   0  0  0  0  0  0  0  0  0  0  0  0
  140.5980   70.8950  226.0420 C   0  0  0  0  0  0  0  0  0  0  0  0
  140.6970   71.7860  225.0490 N   0  0  0  0  0  0  0  0  0  0  0  0
  141.8530   71.3820  221.7310 H   0  0  0  0  0  0  0  0  0  0  0  0
  142.1826   72.6486  219.8752 H   0  0  0  0  0  0  0  0  0  0  0  0
  140.4403   73.2976  220.1837 H   0  0  0  0  0  0  0  0  0  0  0  0
  141.0591   75.4381  223.0258 H   0  0  0  0  0  0  0  0  0  0  0  0
  141.7001   77.0060  222.6304 H   0  0  0  0  0  0  0  0  0  0  0  0
  139.4163   77.7389  222.5095 H   0  0  0  0  0  0  0  0  0  0  0  0
  139.2600   75.1130  223.1080 H   0  0  0  0  0  0  0  0  0  0  0  0
  138.7498   75.8156  220.2960 H   0  0  0  0  0  0  0  0  0  0  0  0
  138.6544   77.5444  220.2467 H   0  0  0  0  0  0  0  0  0  0  0  0
  140.9720   76.5476  218.9960 H   0  0  0  0  0  0  0  0  0  0  0  0
  141.8651   78.0886  221.2716 H   0  0  0  0  0  0  0  0  0  0  0  0
  141.7600   78.4977  219.4841 H   0  0  0  0  0  0  0  0  0  0  0  0
  140.4509   81.1038  220.9590 H   0  0  0  0  0  0  0  0  0  0  0  0
  142.5275   79.2266  220.7519 H   0  0  0  0  0  0  0  0  0  0  0  0
  142.6244   80.9834  221.1439 H   0  0  0  0  0  0  0  0  0  0  0  0
  142.2029   78.7186  223.1464 H   0  0  0  0  0  0  0  0  0  0  0  0
  143.7348   79.6193  222.8703 H   0  0  0  0  0  0  0  0  0  0  0  0
  142.5177   80.5096  224.8084 H   0  0  0  0  0  0  0  0  0  0  0  0
  142.6052   81.7184  223.4746 H   0  0  0  0  0  0  0  0  0  0  0  0
  140.2876   80.5561  224.7648 H   0  0  0  0  0  0  0  0  0  0  0  0
  140.4061   81.8975  223.5423 H   0  0  0  0  0  0  0  0  0  0  0  0
  140.1325   78.9316  223.0579 H   0  0  0  0  0  0  0  0  0  0  0  0
  138.9969   80.2919  222.6261 H   0  0  0  0  0  0  0  0  0  0  0  0
  139.3160   70.0617  222.5377 H   0  0  0  0  0  0  0  0  0  0  0  0
  139.0863   68.3276  224.3368 H   0  0  0  0  0  0  0  0  0  0  0  0
  139.4704   67.7530  226.6625 H   0  0  0  0  0  0  0  0  0  0  0  0
  141.3472   70.5969  229.2940 H   0  0  0  0  0  0  0  0  0  0  0  0
  141.5289   72.2421  227.4515 H   0  0  0  0  0  0  0  0  0  0  0  0
  1  2  2  0
  2  3  1  0
  3  4  1  0
  4  5  1  0
  5  6  2  0
  5  7  1  0
  7  8  1  0
  8  9  1  0
  9 10  1  0
  9 11  1  0
 11 12  1  0
 12 13  1  0
 13 14  1  0
 14 15  1  0
 15 16  1  0
 16 17  1  0
 17 18  1  0
 18 19  1  0
 19 20  1  0
  2 21  1  0
 21 22  2  0
 22 23  1  0
 23 24  2  0
 24 25  1  0
 25 26  2  0
 26 27  1  0
 26 28  1  0
 28 29  2  0
 29 30  1  0
 30 31  2  0
 12  7  1  0
 20 15  1  0
 31 21  1  0
 30 24  1  0
  3 32  1  0
  4 33  1  0
  4 34  1  0
  8 35  1  0
  8 36  1  0
  9 37  1  1
 10 38  1  0
 11 39  1  0
 11 40  1  0
 12 41  1  6
 13 42  1  0
 13 43  1  0
 15 44  1  0
 16 45  1  0
 16 46  1  0
 17 47  1  0
 17 48  1  0
 18 49  1  0
 18 50  1  0
 19 51  1  0
 19 52  1  0
 20 53  1  0
 20 54  1  0
 22 55  1  0
 23 56  1  0
 25 57  1  0
 28 58  1  0
 29 59  1  0
M  END
>  <smiles>  (32) 
O=C(NCC(=O)N1C[C@H](O)C[C@H]1COC1CCCCC1)c1ccc2cc(F)ccc2n1

>  <score_type>  (32) 
oracle

>  <origin>  (32) 
autodockgpu

>  <m_score__min__energy>  (32) 
-8.2599999999999998

>  <m_primary>  (32) 
energy

>  <rmsd>  (32) 
2.7161799614477924

>  <m_score__min__rmsd>  (32) 
2.7161799614477924

>  <meeko>  (32) 
{"free_energy": -8.26, "intermolecular_energy": -10.64, "internal_energy": -2.37, "cluster_size": 43, "cluster_id": 1, "rank_in_cluster": 2}

>  <energy>  (32) 
-7.07

>  <cluster_rmsd>  (32) 
1.28

>  <cluster>  (32) 
1

$$$$

     RDKit          3D

 59 62  0  0  0  0  0  0  0  0999 V2000
  139.5510   73.4580  222.4770 O   0  0  0  0  0  0  0  0  0  0  0  0
  140.3200   72.4940  222.5830 C   0  0  0  0  0  0  0  0  0  0  0  0
  141.3120   72.3270  221.5670 N   0  0  0  0  0  0  0  0  0  0  0  0
  141.4930   73.1740  220.4500 C   0  0  0  0  0  0  0  0  0  0  0  0
  142.0700   74.4960  220.6110 C   0  0  0  0  0  0  0  0  0  0  0  0
  143.3760   74.5250  220.4700 O   0  0  0  0  0  0  0  0  0  0  0  0
  141.5220   75.7470  220.8910 N   0  0  0  0  0  0  0  0  0  0  0  0
  141.0830   76.0740  222.2800 C   0  0  0  0  0  0  0  0  0  0  0  0
  139.7330   76.7430  222.0180 C   0  0  2  0  0  0  0  0  0  0  0  0
  138.7180   75.8640  222.4060 O   0  0  0  0  0  0  0  0  0  0  0  0
  139.6610   76.9920  220.5280 C   0  0  0  0  0  0  0  0  0  0  0  0
  141.1780   76.9350  220.1660 C   0  0  1  0  0  0  0  0  0  0  0  0
  141.7260   78.2100  220.7690 C   0  0  0  0  0  0  0  0  0  0  0  0
  141.3500   79.3540  220.1250 O   0  0  0  0  0  0  0  0  0  0  0  0
  141.3460   80.4460  221.0020 C   0  0  0  0  0  0  0  0  0  0  0  0
  142.5740   80.3490  221.8530 C   0  0  0  0  0  0  0  0  0  0  0  0
  142.1960   80.0390  223.2850 C   0  0  0  0  0  0  0  0  0  0  0  0
  141.3100   81.1270  223.8230 C   0  0  0  0  0  0  0  0  0  0  0  0
  140.0440   81.2250  223.0030 C   0  0  0  0  0  0  0  0  0  0  0  0
  140.0700   80.3300  221.7990 C   0  0  0  0  0  0  0  0  0  0  0  0
  140.2250   71.5530  223.7050 C   0  0  0  0  0  0  0  0  0  0  0  0
  139.6270   70.3320  223.4870 C   0  0  0  0  0  0  0  0  0  0  0  0
  139.5000   69.3870  224.5010 C   0  0  0  0  0  0  0  0  0  0  0  0
  140.0100   69.7480  225.7380 C   0  0  0  0  0  0  0  0  0  0  0  0
  139.9240   68.8700  226.7950 C   0  0  0  0  0  0  0  0  0  0  0  0
  140.4360   69.2320  228.0360 C   0  0  0  0  0  0  0  0  0  0  0  0
  140.3730   68.4000  229.1040 F   0  0  0  0  0  0  0  0  0  0  0  0
  141.0290   70.4820  228.1940 C   0  0  0  0  0  0  0  0  0  0  0  0
  141.1260   71.3740  227.1560 C   0  0  0  0  0  0  0  0  0  0  0  0
  140.6130   70.9940  225.9370 C   0  0  0  0  0  0  0  0  0  0  0  0
  140.7040   71.8590  224.9210 N   0  0  0  0  0  0  0  0  0  0  0  0
  141.9380   71.4830  221.7080 H   0  0  0  0  0  0  0  0  0  0  0  0
  142.1407   72.6316  219.7455 H   0  0  0  0  0  0  0  0  0  0  0  0
  140.4614   73.3921  220.1366 H   0  0  0  0  0  0  0  0  0  0  0  0
  140.9707   75.1662  222.8910 H   0  0  0  0  0  0  0  0  0  0  0  0
  141.7935   76.6981  222.8418 H   0  0  0  0  0  0  0  0  0  0  0  0
  139.6194   77.6834  222.5773 H   0  0  0  0  0  0  0  0  0  0  0  0
  139.1080   75.2470  223.0750 H   0  0  0  0  0  0  0  0  0  0  0  0
  139.0888   76.2077  220.0109 H   0  0  0  0  0  0  0  0  0  0  0  0
  139.1520   77.9235  220.2395 H   0  0  0  0  0  0  0  0  0  0  0  0
  141.5182   76.8886  219.1210 H   0  0  0  0  0  0  0  0  0  0  0  0
  141.3783   78.2733  221.8107 H   0  0  0  0  0  0  0  0  0  0  0  0
  142.8208   78.1496  220.6807 H   0  0  0  0  0  0  0  0  0  0  0  0
  141.3700   81.4255  220.5019 H   0  0  0  0  0  0  0  0  0  0  0  0
  143.2211   79.5477  221.4667 H   0  0  0  0  0  0  0  0  0  0  0  0
  143.1074   81.3106  221.8233 H   0  0  0  0  0  0  0  0  0  0  0  0
  141.6597   79.0793  223.3218 H   0  0  0  0  0  0  0  0  0  0  0  0
  143.1081   79.9768  223.8967 H   0  0  0  0  0  0  0  0  0  0  0  0
  141.0495   80.8998  224.8673 H   0  0  0  0  0  0  0  0  0  0  0  0
  141.8468   82.0856  223.7689 H   0  0  0  0  0  0  0  0  0  0  0  0
  139.1905   80.9405  223.6360 H   0  0  0  0  0  0  0  0  0  0  0  0
  139.9549   82.2621  222.6474 H   0  0  0  0  0  0  0  0  0  0  0  0
  139.9606   79.2883  222.1349 H   0  0  0  0  0  0  0  0  0  0  0  0
  139.2440   80.6402  221.1422 H   0  0  0  0  0  0  0  0  0  0  0  0
  139.2393   70.0971  222.4847 H   0  0  0  0  0  0  0  0  0  0  0  0
  139.0227   68.4107  224.3305 H   0  0  0  0  0  0  0  0  0  0  0  0
  139.4520   67.8859  226.6582 H   0  0  0  0  0  0  0  0  0  0  0  0
  141.4310   70.7622  229.1788 H   0  0  0  0  0  0  0  0  0  0  0  0
  141.5973   72.3584  227.2935 H   0  0  0  0  0  0  0  0  0  0  0  0
  1  2  2  0
  2  3  1  0
  3  4  1  0
  4  5  1  0
  5  6  2  0
  5  7  1  0
  7  8  1  0
  8  9  1  0
  9 10  1  0
  9 11  1  0
 11 12  1  0
 12 13  1  0
 13 14  1  0
 14 15  1  0
 15 16  1  0
 16 17  1  0
 17 18  1  0
 18 19  1  0
 19 20  1  0
  2 21  1  0
 21 22  2  0
 22 23  1  0
 23 24  2  0
 24 25  1  0
 25 26  2  0
 26 27  1  0
 26 28  1  0
 28 29  2  0
 29 30  1  0
 30 31  2  0
 12  7  1  0
 20 15  1  0
 31 21  1  0
 30 24  1  0
  3 32  1  0
  4 33  1  0
  4 34  1  0
  8 35  1  0
  8 36  1  0
  9 37  1  1
 10 38  1  0
 11 39  1  0
 11 40  1  0
 12 41  1  6
 13 42  1  0
 13 43  1  0
 15 44  1  0
 16 45  1  0
 16 46  1  0
 17 47  1  0
 17 48  1  0
 18 49  1  0
 18 50  1  0
 19 51  1  0
 19 52  1  0
 20 53  1  0
 20 54  1  0
 22 55  1  0
 23 56  1  0
 25 57  1  0
 28 58  1  0
 29 59  1  0
M  END
>  <smiles>  (33) 
O=C(NCC(=O)N1C[C@H](O)C[C@H]1COC1CCCCC1)c1ccc2cc(F)ccc2n1

>  <score_type>  (33) 
oracle

>  <origin>  (33) 
autodockgpu

>  <m_score__min__energy>  (33) 
-8.2599999999999998

>  <m_primary>  (33) 
energy

>  <rmsd>  (33) 
2.6872398495626633

>  <m_score__min__rmsd>  (33) 
2.6872398495626633

>  <meeko>  (33) 
{"free_energy": -8.07, "intermolecular_energy": -10.46, "internal_energy": -2.29, "cluster_size": 43, "cluster_id": 1, "rank_in_cluster": 4}

>  <energy>  (33) 
-7.0

>  <cluster_rmsd>  (33) 
1.28

>  <cluster>  (33) 
1

$$$$

     RDKit          3D

 59 62  0  0  0  0  0  0  0  0999 V2000
  140.0870   71.5640  221.7400 O   0  0  0  0  0  0  0  0  0  0  0  0
  139.4210   71.7230  222.7710 C   0  0  0  0  0  0  0  0  0  0  0  0
  138.2170   72.4860  222.6680 N   0  0  0  0  0  0  0  0  0  0  0  0
  137.7160   73.0730  221.4830 C   0  0  0  0  0  0  0  0  0  0  0  0
  138.0830   74.4290  221.1190 C   0  0  0  0  0  0  0  0  0  0  0  0
  137.0640   75.2570  221.0610 O   0  0  0  0  0  0  0  0  0  0  0  0
  139.2990   75.0370  220.8110 N   0  0  0  0  0  0  0  0  0  0  0  0
  140.1010   74.5540  219.6470 C   0  0  0  0  0  0  0  0  0  0  0  0
  141.5070   74.5160  220.2470 C   0  0  2  0  0  0  0  0  0  0  0  0
  141.8680   73.1820  220.4510 O   0  0  0  0  0  0  0  0  0  0  0  0
  141.4270   75.2400  221.5720 C   0  0  0  0  0  0  0  0  0  0  0  0
  140.1270   76.0760  221.3510 C   0  0  1  0  0  0  0  0  0  0  0  0
  140.5540   77.1180  220.3400 C   0  0  0  0  0  0  0  0  0  0  0  0
  141.5830   77.9190  220.7450 O   0  0  0  0  0  0  0  0  0  0  0  0
  141.1480   78.8570  221.6900 C   0  0  0  0  0  0  0  0  0  0  0  0
  141.8220   80.1580  221.3810 C   0  0  0  0  0  0  0  0  0  0  0  0
  142.8160   80.5050  222.4670 C   0  0  0  0  0  0  0  0  0  0  0  0
  142.1070   80.6200  223.7870 C   0  0  0  0  0  0  0  0  0  0  0  0
  141.4450   79.3080  224.1420 C   0  0  0  0  0  0  0  0  0  0  0  0
  141.5410   78.2990  223.0360 C   0  0  0  0  0  0  0  0  0  0  0  0
  139.8440   71.1530  224.0560 C   0  0  0  0  0  0  0  0  0  0  0  0
  140.7080   71.8820  224.8420 C   0  0  0  0  0  0  0  0  0  0  0  0
  141.1540   71.4080  226.0730 C   0  0  0  0  0  0  0  0  0  0  0  0
  140.6770   70.1650  226.4580 C   0  0  0  0  0  0  0  0  0  0  0  0
  141.0700   69.6250  227.6610 C   0  0  0  0  0  0  0  0  0  0  0  0
  140.5910   68.3780  228.0470 C   0  0  0  0  0  0  0  0  0  0  0  0
  140.9510   67.8080  229.2230 F   0  0  0  0  0  0  0  0  0  0  0  0
  139.7190   67.6900  227.2080 C   0  0  0  0  0  0  0  0  0  0  0  0
  139.3130   68.2070  226.0030 C   0  0  0  0  0  0  0  0  0  0  0  0
  139.7990   69.4420  225.6430 C   0  0  0  0  0  0  0  0  0  0  0  0
  139.4090   69.9530  224.4700 N   0  0  0  0  0  0  0  0  0  0  0  0
  137.6910   72.5920  223.5830 H   0  0  0  0  0  0  0  0  0  0  0  0
  138.0352   72.4266  220.6521 H   0  0  0  0  0  0  0  0  0  0  0  0
  136.6378   73.1550  221.6851 H   0  0  0  0  0  0  0  0  0  0  0  0
  139.7755   73.5553  219.3203 H   0  0  0  0  0  0  0  0  0  0  0  0
  140.0119   75.1808  218.7474 H   0  0  0  0  0  0  0  0  0  0  0  0
  142.2524   74.9871  219.5893 H   0  0  0  0  0  0  0  0  0  0  0  0
  141.0680   72.7140  220.7980 H   0  0  0  0  0  0  0  0  0  0  0  0
  141.3229   74.5394  222.4136 H   0  0  0  0  0  0  0  0  0  0  0  0
  142.3180   75.8313  221.8296 H   0  0  0  0  0  0  0  0  0  0  0  0
  139.6328   76.6014  222.1814 H   0  0  0  0  0  0  0  0  0  0  0  0
  140.8659   76.5974  219.4225 H   0  0  0  0  0  0  0  0  0  0  0  0
  139.6872   77.7784  220.1900 H   0  0  0  0  0  0  0  0  0  0  0  0
  140.0631   79.0382  221.6784 H   0  0  0  0  0  0  0  0  0  0  0  0
  142.3496   80.0740  220.4195 H   0  0  0  0  0  0  0  0  0  0  0  0
  141.0614   80.9507  221.3254 H   0  0  0  0  0  0  0  0  0  0  0  0
  143.5791   79.7152  222.5298 H   0  0  0  0  0  0  0  0  0  0  0  0
  143.2959   81.4653  222.2272 H   0  0  0  0  0  0  0  0  0  0  0  0
  142.8352   80.8824  224.5686 H   0  0  0  0  0  0  0  0  0  0  0  0
  141.3364   81.4015  223.7129 H   0  0  0  0  0  0  0  0  0  0  0  0
  141.9337   78.8972  225.0378 H   0  0  0  0  0  0  0  0  0  0  0  0
  140.3782   79.5089  224.3198 H   0  0  0  0  0  0  0  0  0  0  0  0
  142.5797   77.9418  222.9772 H   0  0  0  0  0  0  0  0  0  0  0  0
  140.8386   77.4859  223.2718 H   0  0  0  0  0  0  0  0  0  0  0  0
  141.0549   72.8642  224.4884 H   0  0  0  0  0  0  0  0  0  0  0  0
  141.8451   71.9867  226.7035 H   0  0  0  0  0  0  0  0  0  0  0  0
  141.7606   70.1777  228.3149 H   0  0  0  0  0  0  0  0  0  0  0  0
  139.3445   66.7037  227.5196 H   0  0  0  0  0  0  0  0  0  0  0  0
  138.6236   67.6532  225.3487 H   0  0  0  0  0  0  0  0  0  0  0  0
  1  2  2  0
  2  3  1  0
  3  4  1  0
  4  5  1  0
  5  6  2  0
  5  7  1  0
  7  8  1  0
  8  9  1  0
  9 10  1  0
  9 11  1  0
 11 12  1  0
 12 13  1  0
 13 14  1  0
 14 15  1  0
 15 16  1  0
 16 17  1  0
 17 18  1  0
 18 19  1  0
 19 20  1  0
  2 21  1  0
 21 22  2  0
 22 23  1  0
 23 24  2  0
 24 25  1  0
 25 26  2  0
 26 27  1  0
 26 28  1  0
 28 29  2  0
 29 30  1  0
 30 31  2  0
 12  7  1  0
 20 15  1  0
 31 21  1  0
 30 24  1  0
  3 32  1  0
  4 33  1  0
  4 34  1  0
  8 35  1  0
  8 36  1  0
  9 37  1  6
 10 38  1  0
 11 39  1  0
 11 40  1  0
 12 41  1  1
 13 42  1  0
 13 43  1  0
 15 44  1  0
 16 45  1  0
 16 46  1  0
 17 47  1  0
 17 48  1  0
 18 49  1  0
 18 50  1  0
 19 51  1  0
 19 52  1  0
 20 53  1  0
 20 54  1  0
 22 55  1  0
 23 56  1  0
 25 57  1  0
 28 58  1  0
 29 59  1  0
M  END
>  <smiles>  (34) 
O=C(NCC(=O)N1C[C@H](O)C[C@H]1COC1CCCCC1)c1ccc2cc(F)ccc2n1

>  <score_type>  (34) 
oracle

>  <origin>  (34) 
autodockgpu

>  <m_score__min__energy>  (34) 
-8.2599999999999998

>  <m_primary>  (34) 
energy

>  <rmsd>  (34) 
2.9205620671842945

>  <m_score__min__rmsd>  (34) 
2.9205620671842945

>  <meeko>  (34) 
{"free_energy": -7.42, "intermolecular_energy": -9.81, "internal_energy": -2.28, "cluster_size": 43, "cluster_id": 1, "rank_in_cluster": 22}

>  <energy>  (34) 
-6.99

>  <cluster_rmsd>  (34) 
1.37

>  <cluster>  (34) 
1

$$$$

     RDKit          3D

 59 62  0  0  0  0  0  0  0  0999 V2000
  138.7910   72.6260  221.3020 O   0  0  0  0  0  0  0  0  0  0  0  0
  139.6890   72.6020  222.1540 C   0  0  0  0  0  0  0  0  0  0  0  0
  140.8080   73.4690  221.9570 N   0  0  0  0  0  0  0  0  0  0  0  0
  140.9760   74.3590  220.8710 C   0  0  0  0  0  0  0  0  0  0  0  0
  140.5050   75.7280  220.9580 C   0  0  0  0  0  0  0  0  0  0  0  0
  141.3510   76.6110  220.4760 O   0  0  0  0  0  0  0  0  0  0  0  0
  139.3360   76.3040  221.4540 N   0  0  0  0  0  0  0  0  0  0  0  0
  138.7730   75.8420  222.7570 C   0  0  0  0  0  0  0  0  0  0  0  0
  137.2860   75.7270  222.4170 C   0  0  2  0  0  0  0  0  0  0  0  0
  136.9530   74.3730  222.3280 O   0  0  0  0  0  0  0  0  0  0  0  0
  137.1010   76.3960  221.0730 C   0  0  0  0  0  0  0  0  0  0  0  0
  138.3820   77.2880  221.0310 C   0  0  1  0  0  0  0  0  0  0  0  0
  138.0940   78.3560  222.0640 C   0  0  0  0  0  0  0  0  0  0  0  0
  139.0920   78.5560  222.9740 O   0  0  0  0  0  0  0  0  0  0  0  0
  140.2350   79.0810  222.3580 C   0  0  0  0  0  0  0  0  0  0  0  0
  141.4280   78.4250  222.9820 C   0  0  0  0  0  0  0  0  0  0  0  0
  142.2110   79.4280  223.7990 C   0  0  0  0  0  0  0  0  0  0  0  0
  142.6740   80.5520  222.9160 C   0  0  0  0  0  0  0  0  0  0  0  0
  141.4880   81.2560  222.2990 C   0  0  0  0  0  0  0  0  0  0  0  0
  140.1890   80.5690  222.6050 C   0  0  0  0  0  0  0  0  0  0  0  0
  139.6160   71.7210  223.3250 C   0  0  0  0  0  0  0  0  0  0  0  0
  138.7130   70.6810  223.3070 C   0  0  0  0  0  0  0  0  0  0  0  0
  138.5850   69.8040  224.3800 C   0  0  0  0  0  0  0  0  0  0  0  0
  139.4180   70.0380  225.4630 C   0  0  0  0  0  0  0  0  0  0  0  0
  139.3540   69.2160  226.5650 C   0  0  0  0  0  0  0  0  0  0  0  0
  140.1900   69.4510  227.6500 C   0  0  0  0  0  0  0  0  0  0  0  0
  140.1620   68.6670  228.7550 F   0  0  0  0  0  0  0  0  0  0  0  0
  141.0830   70.5180  227.6080 C   0  0  0  0  0  0  0  0  0  0  0  0
  141.1650   71.3520  226.5220 C   0  0  0  0  0  0  0  0  0  0  0  0
  140.3280   71.1000  225.4590 C   0  0  0  0  0  0  0  0  0  0  0  0
  140.4020   71.9090  224.3970 N   0  0  0  0  0  0  0  0  0  0  0  0
  141.5470   73.4030  222.7150 H   0  0  0  0  0  0  0  0  0  0  0  0
  142.0564   74.4102  220.6705 H   0  0  0  0  0  0  0  0  0  0  0  0
  140.3286   73.9250  220.0948 H   0  0  0  0  0  0  0  0  0  0  0  0
  139.1940   74.8707  223.0559 H   0  0  0  0  0  0  0  0  0  0  0  0
  138.9912   76.5092  223.6039 H   0  0  0  0  0  0  0  0  0  0  0  0
  136.6478   76.1984  223.1789 H   0  0  0  0  0  0  0  0  0  0  0  0
  137.7050   73.8620  222.7200 H   0  0  0  0  0  0  0  0  0  0  0  0
  137.0868   75.6641  220.2519 H   0  0  0  0  0  0  0  0  0  0  0  0
  136.1536   76.9425  220.9556 H   0  0  0  0  0  0  0  0  0  0  0  0
  138.6996   77.7950  220.1079 H   0  0  0  0  0  0  0  0  0  0  0  0
  137.9175   79.3045  221.5356 H   0  0  0  0  0  0  0  0  0  0  0  0
  137.2201   78.0079  222.6342 H   0  0  0  0  0  0  0  0  0  0  0  0
  140.2881   78.8971  221.2748 H   0  0  0  0  0  0  0  0  0  0  0  0
  141.0916   77.6074  223.6365 H   0  0  0  0  0  0  0  0  0  0  0  0
  142.0755   78.0285  222.1860 H   0  0  0  0  0  0  0  0  0  0  0  0
  141.5689   79.8305  224.5963 H   0  0  0  0  0  0  0  0  0  0  0  0
  143.0858   78.9310  224.2435 H   0  0  0  0  0  0  0  0  0  0  0  0
  143.2510   81.2710  223.5161 H   0  0  0  0  0  0  0  0  0  0  0  0
  143.3036   80.1407  222.1133 H   0  0  0  0  0  0  0  0  0  0  0  0
  141.4446   82.2831  222.6903 H   0  0  0  0  0  0  0  0  0  0  0  0
  141.6232   81.2446  221.2074 H   0  0  0  0  0  0  0  0  0  0  0  0
  139.9425   80.7410  223.6631 H   0  0  0  0  0  0  0  0  0  0  0  0
  139.4280   80.9904  221.9317 H   0  0  0  0  0  0  0  0  0  0  0  0
  138.0763   70.5399  222.4212 H   0  0  0  0  0  0  0  0  0  0  0  0
  137.8644   68.9730  224.3693 H   0  0  0  0  0  0  0  0  0  0  0  0
  138.6439   68.3762  226.5869 H   0  0  0  0  0  0  0  0  0  0  0  0
  141.7418   70.6975  228.4704 H   0  0  0  0  0  0  0  0  0  0  0  0
  141.8745   72.1923  226.5015 H   0  0  0  0  0  0  0  0  0  0  0  0
  1  2  2  0
  2  3  1  0
  3  4  1  0
  4  5  1  0
  5  6  2  0
  5  7  1  0
  7  8  1  0
  8  9  1  0
  9 10  1  0
  9 11  1  0
 11 12  1  0
 12 13  1  0
 13 14  1  0
 14 15  1  0
 15 16  1  0
 16 17  1  0
 17 18  1  0
 18 19  1  0
 19 20  1  0
  2 21  1  0
 21 22  2  0
 22 23  1  0
 23 24  2  0
 24 25  1  0
 25 26  2  0
 26 27  1  0
 26 28  1  0
 28 29  2  0
 29 30  1  0
 30 31  2  0
 12  7  1  0
 20 15  1  0
 31 21  1  0
 30 24  1  0
  3 32  1  0
  4 33  1  0
  4 34  1  0
  8 35  1  0
  8 36  1  0
  9 37  1  1
 10 38  1  0
 11 39  1  0
 11 40  1  0
 12 41  1  6
 13 42  1  0
 13 43  1  0
 15 44  1  0
 16 45  1  0
 16 46  1  0
 17 47  1  0
 17 48  1  0
 18 49  1  0
 18 50  1  0
 19 51  1  0
 19 52  1  0
 20 53  1  0
 20 54  1  0
 22 55  1  0
 23 56  1  0
 25 57  1  0
 28 58  1  0
 29 59  1  0
M  END
>  <smiles>  (35) 
O=C(NCC(=O)N1C[C@H](O)C[C@H]1COC1CCCCC1)c1ccc2cc(F)ccc2n1

>  <score_type>  (35) 
oracle

>  <origin>  (35) 
autodockgpu

>  <m_score__min__energy>  (35) 
-8.2599999999999998

>  <m_primary>  (35) 
energy

>  <rmsd>  (35) 
3.0381345748083994

>  <m_score__min__rmsd>  (35) 
3.0381345748083994

>  <meeko>  (35) 
{"free_energy": -7.16, "intermolecular_energy": -9.54, "internal_energy": -2.77, "cluster_size": 43, "cluster_id": 1, "rank_in_cluster": 31}

>  <energy>  (35) 
-6.97

>  <cluster_rmsd>  (35) 
1.3

>  <cluster>  (35) 
1

$$$$

     RDKit          3D

 59 62  0  0  0  0  0  0  0  0999 V2000
  138.8370   72.9590  221.1970 O   0  0  0  0  0  0  0  0  0  0  0  0
  139.8020   72.7900  221.9540 C   0  0  0  0  0  0  0  0  0  0  0  0
  140.9910   73.5360  221.6850 N   0  0  0  0  0  0  0  0  0  0  0  0
  141.1580   74.4590  220.6260 C   0  0  0  0  0  0  0  0  0  0  0  0
  140.8090   75.8560  220.8020 C   0  0  0  0  0  0  0  0  0  0  0  0
  141.6550   76.6890  220.2370 O   0  0  0  0  0  0  0  0  0  0  0  0
  139.7600   76.5010  221.4540 N   0  0  0  0  0  0  0  0  0  0  0  0
  139.1980   75.9270  222.7120 C   0  0  0  0  0  0  0  0  0  0  0  0
  137.6960   76.0660  222.4610 C   0  0  2  0  0  0  0  0  0  0  0  0
  137.1690   74.7990  222.2010 O   0  0  0  0  0  0  0  0  0  0  0  0
  137.5460   76.9500  221.2430 C   0  0  0  0  0  0  0  0  0  0  0  0
  138.9370   77.6570  221.2430 C   0  0  1  0  0  0  0  0  0  0  0  0
  138.8540   78.5850  222.4360 C   0  0  0  0  0  0  0  0  0  0  0  0
  138.9090   79.9150  222.1310 O   0  0  0  0  0  0  0  0  0  0  0  0
  140.0910   80.4920  222.6130 C   0  0  0  0  0  0  0  0  0  0  0  0
  140.9350   80.8540  221.4310 C   0  0  0  0  0  0  0  0  0  0  0  0
  142.1650   79.9750  221.3760 C   0  0  0  0  0  0  0  0  0  0  0  0
  142.9740   80.1540  222.6290 C   0  0  0  0  0  0  0  0  0  0  0  0
  142.1570   79.7620  223.8400 C   0  0  0  0  0  0  0  0  0  0  0  0
  140.7320   79.4460  223.4930 C   0  0  0  0  0  0  0  0  0  0  0  0
  139.7370   71.8610  223.0880 C   0  0  0  0  0  0  0  0  0  0  0  0
  138.9080   70.7640  222.9900 C   0  0  0  0  0  0  0  0  0  0  0  0
  138.7930   69.8390  224.0230 C   0  0  0  0  0  0  0  0  0  0  0  0
  139.5590   70.0850  225.1510 C   0  0  0  0  0  0  0  0  0  0  0  0
  139.5030   69.2180  226.2190 C   0  0  0  0  0  0  0  0  0  0  0  0
  140.2720   69.4660  227.3500 C   0  0  0  0  0  0  0  0  0  0  0  0
  140.2480   68.6380  228.4240 F   0  0  0  0  0  0  0  0  0  0  0  0
  141.0910   70.5910  227.3890 C   0  0  0  0  0  0  0  0  0  0  0  0
  141.1640   71.4700  226.3380 C   0  0  0  0  0  0  0  0  0  0  0  0
  140.3940   71.2050  225.2290 C   0  0  0  0  0  0  0  0  0  0  0  0
  140.4600   72.0580  224.2010 N   0  0  0  0  0  0  0  0  0  0  0  0
  141.7840   73.3470  222.3620 H   0  0  0  0  0  0  0  0  0  0  0  0
  142.2227   74.4329  220.3509 H   0  0  0  0  0  0  0  0  0  0  0  0
  140.4257   74.1142  219.8811 H   0  0  0  0  0  0  0  0  0  0  0  0
  139.4891   74.8739  222.8391 H   0  0  0  0  0  0  0  0  0  0  0  0
  139.5489   76.4228  223.6291 H   0  0  0  0  0  0  0  0  0  0  0  0
  137.1683   76.4976  223.3243 H   0  0  0  0  0  0  0  0  0  0  0  0
  137.7610   74.1410  222.6450 H   0  0  0  0  0  0  0  0  0  0  0  0
  137.3887   76.3599  220.3281 H   0  0  0  0  0  0  0  0  0  0  0  0
  136.6822   77.6305  221.2699 H   0  0  0  0  0  0  0  0  0  0  0  0
  139.2797   78.2510  220.3829 H   0  0  0  0  0  0  0  0  0  0  0  0
  137.9034   78.3917  222.9546 H   0  0  0  0  0  0  0  0  0  0  0  0
  139.7373   78.3724  223.0562 H   0  0  0  0  0  0  0  0  0  0  0  0
  139.9371   81.4100  223.1991 H   0  0  0  0  0  0  0  0  0  0  0  0
  140.3488   80.7160  220.5105 H   0  0  0  0  0  0  0  0  0  0  0  0
  141.2492   81.9041  221.5235 H   0  0  0  0  0  0  0  0  0  0  0  0
  141.8581   78.9225  221.2866 H   0  0  0  0  0  0  0  0  0  0  0  0
  142.7754   80.2580  220.5057 H   0  0  0  0  0  0  0  0  0  0  0  0
  143.8713   79.5200  222.5756 H   0  0  0  0  0  0  0  0  0  0  0  0
  143.2651   81.2109  222.7198 H   0  0  0  0  0  0  0  0  0  0  0  0
  142.6133   78.8736  224.3010 H   0  0  0  0  0  0  0  0  0  0  0  0
  142.1512   80.6179  224.5310 H   0  0  0  0  0  0  0  0  0  0  0  0
  140.7058   78.4810  222.9657 H   0  0  0  0  0  0  0  0  0  0  0  0
  140.1639   79.4164  224.4345 H   0  0  0  0  0  0  0  0  0  0  0  0
  138.3220   70.6160  222.0709 H   0  0  0  0  0  0  0  0  0  0  0  0
  138.1320   68.9629  223.9484 H   0  0  0  0  0  0  0  0  0  0  0  0
  138.8521   68.3323  226.1774 H   0  0  0  0  0  0  0  0  0  0  0  0
  141.6966   70.7806  228.2875 H   0  0  0  0  0  0  0  0  0  0  0  0
  141.8153   72.3555  226.3805 H   0  0  0  0  0  0  0  0  0  0  0  0
  1  2  2  0
  2  3  1  0
  3  4  1  0
  4  5  1  0
  5  6  2  0
  5  7  1  0
  7  8  1  0
  8  9  1  0
  9 10  1  0
  9 11  1  0
 11 12  1  0
 12 13  1  0
 13 14  1  0
 14 15  1  0
 15 16  1  0
 16 17  1  0
 17 18  1  0
 18 19  1  0
 19 20  1  0
  2 21  1  0
 21 22  2  0
 22 23  1  0
 23 24  2  0
 24 25  1  0
 25 26  2  0
 26 27  1  0
 26 28  1  0
 28 29  2  0
 29 30  1  0
 30 31  2  0
 12  7  1  0
 20 15  1  0
 31 21  1  0
 30 24  1  0
  3 32  1  0
  4 33  1  0
  4 34  1  0
  8 35  1  0
  8 36  1  0
  9 37  1  1
 10 38  1  0
 11 39  1  0
 11 40  1  0
 12 41  1  6
 13 42  1  0
 13 43  1  0
 15 44  1  0
 16 45  1  0
 16 46  1  0
 17 47  1  0
 17 48  1  0
 18 49  1  0
 18 50  1  0
 19 51  1  0
 19 52  1  0
 20 53  1  0
 20 54  1  0
 22 55  1  0
 23 56  1  0
 25 57  1  0
 28 58  1  0
 29 59  1  0
M  END
>  <smiles>  (36) 
O=C(NCC(=O)N1C[C@H](O)C[C@H]1COC1CCCCC1)c1ccc2cc(F)ccc2n1

>  <score_type>  (36) 
oracle

>  <origin>  (36) 
autodockgpu

>  <m_score__min__energy>  (36) 
-8.2599999999999998

>  <m_primary>  (36) 
energy

>  <rmsd>  (36) 
3.0092711941919585

>  <m_score__min__rmsd>  (36) 
3.0092711941919585

>  <meeko>  (36) 
{"free_energy": -6.97, "intermolecular_energy": -9.36, "internal_energy": -2.77, "cluster_size": 43, "cluster_id": 1, "rank_in_cluster": 35}

>  <energy>  (36) 
-6.96

>  <cluster_rmsd>  (36) 
1.92

>  <cluster>  (36) 
1

$$$$

     RDKit          3D

 59 62  0  0  0  0  0  0  0  0999 V2000
  138.8270   72.9180  221.1260 O   0  0  0  0  0  0  0  0  0  0  0  0
  139.6770   72.8330  222.0210 C   0  0  0  0  0  0  0  0  0  0  0  0
  140.8200   73.6870  221.9280 N   0  0  0  0  0  0  0  0  0  0  0  0
  141.0610   74.6270  220.9000 C   0  0  0  0  0  0  0  0  0  0  0  0
  140.0450   75.5970  220.5330 C   0  0  0  0  0  0  0  0  0  0  0  0
  140.0960   75.9670  219.2730 O   0  0  0  0  0  0  0  0  0  0  0  0
  139.0240   76.2230  221.2470 N   0  0  0  0  0  0  0  0  0  0  0  0
  138.7600   75.8360  222.6640 C   0  0  0  0  0  0  0  0  0  0  0  0
  137.2340   75.7420  222.6690 C   0  0  2  0  0  0  0  0  0  0  0  0
  136.8700   74.3940  222.7250 O   0  0  0  0  0  0  0  0  0  0  0  0
  136.7630   76.3530  221.3690 C   0  0  0  0  0  0  0  0  0  0  0  0
  138.0140   77.2100  220.9990 C   0  0  1  0  0  0  0  0  0  0  0  0
  137.9780   78.3310  222.0140 C   0  0  0  0  0  0  0  0  0  0  0  0
  138.9350   79.2900  221.8410 O   0  0  0  0  0  0  0  0  0  0  0  0
  140.0820   78.9960  222.5890 C   0  0  0  0  0  0  0  0  0  0  0  0
  140.0330   79.8200  223.8380 C   0  0  0  0  0  0  0  0  0  0  0  0
  141.1190   80.8730  223.8140 C   0  0  0  0  0  0  0  0  0  0  0  0
  142.4650   80.2130  223.7140 C   0  0  0  0  0  0  0  0  0  0  0  0
  142.5560   79.4000  222.4420 C   0  0  0  0  0  0  0  0  0  0  0  0
  141.2520   79.3450  221.7020 C   0  0  0  0  0  0  0  0  0  0  0  0
  139.5280   71.8950  223.1390 C   0  0  0  0  0  0  0  0  0  0  0  0
  138.5200   70.9570  223.0770 C   0  0  0  0  0  0  0  0  0  0  0  0
  138.3150   70.0340  224.0980 C   0  0  0  0  0  0  0  0  0  0  0  0
  139.1810   70.1140  225.1760 C   0  0  0  0  0  0  0  0  0  0  0  0
  139.0460   69.2370  226.2290 C   0  0  0  0  0  0  0  0  0  0  0  0
  139.9160   69.3180  227.3100 C   0  0  0  0  0  0  0  0  0  0  0  0
  139.8200   68.4750  228.3670 F   0  0  0  0  0  0  0  0  0  0  0  0
  140.9150   70.2870  227.3150 C   0  0  0  0  0  0  0  0  0  0  0  0
  141.0700   71.1730  226.2780 C   0  0  0  0  0  0  0  0  0  0  0  0
  140.1980   71.0740  225.2190 C   0  0  0  0  0  0  0  0  0  0  0  0
  140.3430   71.9340  224.2050 N   0  0  0  0  0  0  0  0  0  0  0  0
  141.5170   73.5660  222.7180 H   0  0  0  0  0  0  0  0  0  0  0  0
  141.9501   75.2008  221.2003 H   0  0  0  0  0  0  0  0  0  0  0  0
  141.1355   73.9963  220.0018 H   0  0  0  0  0  0  0  0  0  0  0  0
  139.2239   74.8696  222.9107 H   0  0  0  0  0  0  0  0  0  0  0  0
  139.1708   76.5360  223.4064 H   0  0  0  0  0  0  0  0  0  0  0  0
  136.7888   76.2634  223.5292 H   0  0  0  0  0  0  0  0  0  0  0  0
  137.7080   73.8680  222.7530 H   0  0  0  0  0  0  0  0  0  0  0  0
  136.5557   75.5851  220.6092 H   0  0  0  0  0  0  0  0  0  0  0  0
  135.8209   76.9167  221.4381 H   0  0  0  0  0  0  0  0  0  0  0  0
  138.1252   77.6666  220.0045 H   0  0  0  0  0  0  0  0  0  0  0  0
  136.9925   78.8159  221.9538 H   0  0  0  0  0  0  0  0  0  0  0  0
  138.1749   77.8695  222.9929 H   0  0  0  0  0  0  0  0  0  0  0  0
  140.1632   77.9424  222.8946 H   0  0  0  0  0  0  0  0  0  0  0  0
  139.0518   80.3120  223.9101 H   0  0  0  0  0  0  0  0  0  0  0  0
  140.1896   79.1636  224.7067 H   0  0  0  0  0  0  0  0  0  0  0  0
  140.9698   81.5318  222.9458 H   0  0  0  0  0  0  0  0  0  0  0  0
  141.0722   81.4645  224.7402 H   0  0  0  0  0  0  0  0  0  0  0  0
  143.2485   80.9850  223.7084 H   0  0  0  0  0  0  0  0  0  0  0  0
  142.6016   79.5448  224.5771 H   0  0  0  0  0  0  0  0  0  0  0  0
  143.3147   79.8531  221.7870 H   0  0  0  0  0  0  0  0  0  0  0  0
  142.8261   78.3709  222.7211 H   0  0  0  0  0  0  0  0  0  0  0  0
  141.0655   80.3293  221.2477 H   0  0  0  0  0  0  0  0  0  0  0  0
  141.3378   78.5515  220.9450 H   0  0  0  0  0  0  0  0  0  0  0  0
  137.8601   70.9375  222.1971 H   0  0  0  0  0  0  0  0  0  0  0  0
  137.5116   69.2841  224.0517 H   0  0  0  0  0  0  0  0  0  0  0  0
  138.2526   68.4752  226.2147 H   0  0  0  0  0  0  0  0  0  0  0  0
  141.5996   70.3445  228.1741 H   0  0  0  0  0  0  0  0  0  0  0  0
  141.8633   71.9349  226.2934 H   0  0  0  0  0  0  0  0  0  0  0  0
  1  2  2  0
  2  3  1  0
  3  4  1  0
  4  5  1  0
  5  6  2  0
  5  7  1  0
  7  8  1  0
  8  9  1  0
  9 10  1  0
  9 11  1  0
 11 12  1  0
 12 13  1  0
 13 14  1  0
 14 15  1  0
 15 16  1  0
 16 17  1  0
 17 18  1  0
 18 19  1  0
 19 20  1  0
  2 21  1  0
 21 22  2  0
 22 23  1  0
 23 24  2  0
 24 25  1  0
 25 26  2  0
 26 27  1  0
 26 28  1  0
 28 29  2  0
 29 30  1  0
 30 31  2  0
 12  7  1  0
 20 15  1  0
 31 21  1  0
 30 24  1  0
  3 32  1  0
  4 33  1  0
  4 34  1  0
  8 35  1  0
  8 36  1  0
  9 37  1  1
 10 38  1  0
 11 39  1  0
 11 40  1  0
 12 41  1  6
 13 42  1  0
 13 43  1  0
 15 44  1  0
 16 45  1  0
 16 46  1  0
 17 47  1  0
 17 48  1  0
 18 49  1  0
 18 50  1  0
 19 51  1  0
 19 52  1  0
 20 53  1  0
 20 54  1  0
 22 55  1  0
 23 56  1  0
 25 57  1  0
 28 58  1  0
 29 59  1  0
M  END
>  <smiles>  (37) 
O=C(NCC(=O)N1C[C@H](O)C[C@H]1COC1CCCCC1)c1ccc2cc(F)ccc2n1

>  <score_type>  (37) 
oracle

>  <origin>  (37) 
autodockgpu

>  <m_score__min__energy>  (37) 
-8.2599999999999998

>  <m_primary>  (37) 
energy

>  <rmsd>  (37) 
3.2439283879633782

>  <m_score__min__rmsd>  (37) 
3.2439283879633782

>  <meeko>  (37) 
{"free_energy": -6.54, "intermolecular_energy": -8.92, "internal_energy": -2.81, "cluster_size": 43, "cluster_id": 1, "rank_in_cluster": 43}

>  <energy>  (37) 
-6.89

>  <cluster_rmsd>  (37) 
1.42

>  <cluster>  (37) 
1

$$$$

     RDKit          3D

 59 62  0  0  0  0  0  0  0  0999 V2000
  139.4540   71.2200  221.8170 O   0  0  0  0  0  0  0  0  0  0  0  0
  138.8630   71.3000  222.9010 C   0  0  0  0  0  0  0  0  0  0  0  0
  137.8040   72.2540  223.0060 N   0  0  0  0  0  0  0  0  0  0  0  0
  137.3700   73.1150  221.9720 C   0  0  0  0  0  0  0  0  0  0  0  0
  137.8900   74.4660  221.8690 C   0  0  0  0  0  0  0  0  0  0  0  0
  137.0560   75.3890  222.2940 O   0  0  0  0  0  0  0  0  0  0  0  0
  139.0960   74.9890  221.4040 N   0  0  0  0  0  0  0  0  0  0  0  0
  139.5080   74.7670  219.9870 C   0  0  0  0  0  0  0  0  0  0  0  0
  140.9820   74.3960  220.1590 C   0  0  2  0  0  0  0  0  0  0  0  0
  141.1270   73.0260  219.9250 O   0  0  0  0  0  0  0  0  0  0  0  0
  141.3400   74.7170  221.5920 C   0  0  0  0  0  0  0  0  0  0  0  0
  140.2020   75.7280  221.9400 C   0  0  1  0  0  0  0  0  0  0  0  0
  140.5740   76.9570  221.1400 C   0  0  0  0  0  0  0  0  0  0  0  0
  140.1610   78.1390  221.6820 O   0  0  0  0  0  0  0  0  0  0  0  0
  141.0330   78.5600  222.6940 C   0  0  0  0  0  0  0  0  0  0  0  0
  140.2600   79.4480  223.6190 C   0  0  0  0  0  0  0  0  0  0  0  0
  140.7520   80.8750  223.5100 C   0  0  0  0  0  0  0  0  0  0  0  0
  142.2090   80.9390  223.8710 C   0  0  0  0  0  0  0  0  0  0  0  0
  143.0210   80.0770  222.9300 C   0  0  0  0  0  0  0  0  0  0  0  0
  142.1590   79.2820  221.9930 C   0  0  0  0  0  0  0  0  0  0  0  0
  139.2270   70.4500  224.0410 C   0  0  0  0  0  0  0  0  0  0  0  0
  138.9770   69.0980  223.9560 C   0  0  0  0  0  0  0  0  0  0  0  0
  139.2940   68.2290  224.9960 C   0  0  0  0  0  0  0  0  0  0  0  0
  139.8730   68.8020  226.1160 C   0  0  0  0  0  0  0  0  0  0  0  0
  140.2170   68.0110  227.1890 C   0  0  0  0  0  0  0  0  0  0  0  0
  140.7990   68.5870  228.3120 C   0  0  0  0  0  0  0  0  0  0  0  0
  141.1530   67.8460  229.3910 F   0  0  0  0  0  0  0  0  0  0  0  0
  141.0270   69.9600  228.3380 C   0  0  0  0  0  0  0  0  0  0  0  0
  140.6930   70.7700  227.2810 C   0  0  0  0  0  0  0  0  0  0  0  0
  140.1190   70.1780  226.1800 C   0  0  0  0  0  0  0  0  0  0  0  0
  139.7900   70.9610  225.1470 N   0  0  0  0  0  0  0  0  0  0  0  0
  137.3380   72.2810  223.9580 H   0  0  0  0  0  0  0  0  0  0  0  0
  137.6089   72.6126  221.0230 H   0  0  0  0  0  0  0  0  0  0  0  0
  136.3095   73.2770  222.2151 H   0  0  0  0  0  0  0  0  0  0  0  0
  138.9376   73.9476  219.5253 H   0  0  0  0  0  0  0  0  0  0  0  0
  139.3343   75.6294  219.3266 H   0  0  0  0  0  0  0  0  0  0  0  0
  141.6322   74.9445  219.4616 H   0  0  0  0  0  0  0  0  0  0  0  0
  140.4250   72.5660  220.4500 H   0  0  0  0  0  0  0  0  0  0  0  0
  141.3009   73.8232  222.2319 H   0  0  0  0  0  0  0  0  0  0  0  0
  142.3601   75.1016  221.7381 H   0  0  0  0  0  0  0  0  0  0  0  0
  140.0149   76.0502  222.9750 H   0  0  0  0  0  0  0  0  0  0  0  0
  141.6698   76.9869  221.0483 H   0  0  0  0  0  0  0  0  0  0  0  0
  140.0599   76.8638  220.1720 H   0  0  0  0  0  0  0  0  0  0  0  0
  141.4508   77.7413  223.2984 H   0  0  0  0  0  0  0  0  0  0  0  0
  139.1937   79.4103  223.3515 H   0  0  0  0  0  0  0  0  0  0  0  0
  140.4017   79.0985  224.6523 H   0  0  0  0  0  0  0  0  0  0  0  0
  140.6153   81.2308  222.4781 H   0  0  0  0  0  0  0  0  0  0  0  0
  140.1782   81.5111  224.2000 H   0  0  0  0  0  0  0  0  0  0  0  0
  142.5553   81.9806  223.7991 H   0  0  0  0  0  0  0  0  0  0  0  0
  142.3398   80.5687  224.8985 H   0  0  0  0  0  0  0  0  0  0  0  0
  143.6812   80.7269  222.3368 H   0  0  0  0  0  0  0  0  0  0  0  0
  143.5969   79.3657  223.5402 H   0  0  0  0  0  0  0  0  0  0  0  0
  141.7263   79.9669  221.2488 H   0  0  0  0  0  0  0  0  0  0  0  0
  142.7986   78.5184  221.5264 H   0  0  0  0  0  0  0  0  0  0  0  0
  138.5150   68.6948  223.0428 H   0  0  0  0  0  0  0  0  0  0  0  0
  139.0960   67.1489  224.9320 H   0  0  0  0  0  0  0  0  0  0  0  0
  140.0319   66.9271  227.1576 H   0  0  0  0  0  0  0  0  0  0  0  0
  141.4877   70.4086  229.2305 H   0  0  0  0  0  0  0  0  0  0  0  0
  140.8778   71.8539  227.3134 H   0  0  0  0  0  0  0  0  0  0  0  0
  1  2  2  0
  2  3  1  0
  3  4  1  0
  4  5  1  0
  5  6  2  0
  5  7  1  0
  7  8  1  0
  8  9  1  0
  9 10  1  0
  9 11  1  0
 11 12  1  0
 12 13  1  0
 13 14  1  0
 14 15  1  0
 15 16  1  0
 16 17  1  0
 17 18  1  0
 18 19  1  0
 19 20  1  0
  2 21  1  0
 21 22  2  0
 22 23  1  0
 23 24  2  0
 24 25  1  0
 25 26  2  0
 26 27  1  0
 26 28  1  0
 28 29  2  0
 29 30  1  0
 30 31  2  0
 12  7  1  0
 20 15  1  0
 31 21  1  0
 30 24  1  0
  3 32  1  0
  4 33  1  0
  4 34  1  0
  8 35  1  0
  8 36  1  0
  9 37  1  6
 10 38  1  0
 11 39  1  0
 11 40  1  0
 12 41  1  1
 13 42  1  0
 13 43  1  0
 15 44  1  0
 16 45  1  0
 16 46  1  0
 17 47  1  0
 17 48  1  0
 18 49  1  0
 18 50  1  0
 19 51  1  0
 19 52  1  0
 20 53  1  0
 20 54  1  0
 22 55  1  0
 23 56  1  0
 25 57  1  0
 28 58  1  0
 29 59  1  0
M  END
>  <smiles>  (38) 
O=C(NCC(=O)N1C[C@H](O)C[C@H]1COC1CCCCC1)c1ccc2cc(F)ccc2n1

>  <score_type>  (38) 
oracle

>  <origin>  (38) 
autodockgpu

>  <m_score__min__energy>  (38) 
-8.2599999999999998

>  <m_primary>  (38) 
energy

>  <rmsd>  (38) 
2.039994681509051

>  <m_score__min__rmsd>  (38) 
2.039994681509051

>  <meeko>  (38) 
{"free_energy": -7.67, "intermolecular_energy": -10.06, "internal_energy": -2.21, "cluster_size": 43, "cluster_id": 1, "rank_in_cluster": 12}

>  <energy>  (38) 
-6.89

>  <cluster_rmsd>  (38) 
1.53

>  <cluster>  (38) 
1

$$$$

     RDKit          3D

 59 62  0  0  0  0  0  0  0  0999 V2000
  134.0330   71.4690  224.2200 O   0  0  0  0  0  0  0  0  0  0  0  0
  134.0930   71.8100  225.4080 C   0  0  0  0  0  0  0  0  0  0  0  0
  134.3260   70.7850  226.3770 N   0  0  0  0  0  0  0  0  0  0  0  0
  134.4990   69.4110  226.0920 C   0  0  0  0  0  0  0  0  0  0  0  0
  135.1300   68.9860  224.8560 C   0  0  0  0  0  0  0  0  0  0  0  0
  134.4150   68.1270  224.1640 O   0  0  0  0  0  0  0  0  0  0  0  0
  136.3470   69.2990  224.2520 N   0  0  0  0  0  0  0  0  0  0  0  0
  136.8810   70.6910  224.3290 C   0  0  0  0  0  0  0  0  0  0  0  0
  137.3430   70.9150  222.8880 C   0  0  2  0  0  0  0  0  0  0  0  0
  136.4510   71.7920  222.2650 O   0  0  0  0  0  0  0  0  0  0  0  0
  137.3000   69.5640  222.2110 C   0  0  0  0  0  0  0  0  0  0  0  0
  137.3360   68.6280  223.4600 C   0  0  1  0  0  0  0  0  0  0  0  0
  138.7510   68.7860  223.9700 C   0  0  0  0  0  0  0  0  0  0  0  0
  139.1120   67.8970  224.9410 O   0  0  0  0  0  0  0  0  0  0  0  0
  139.1940   68.5230  226.1910 C   0  0  0  0  0  0  0  0  0  0  0  0
  139.5740   69.9530  225.9570 C   0  0  0  0  0  0  0  0  0  0  0  0
  140.9740   70.2140  226.4680 C   0  0  0  0  0  0  0  0  0  0  0  0
  141.0390   69.9230  227.9410 C   0  0  0  0  0  0  0  0  0  0  0  0
  140.6930   68.4750  228.2050 C   0  0  0  0  0  0  0  0  0  0  0  0
  140.2390   67.7590  226.9670 C   0  0  0  0  0  0  0  0  0  0  0  0
  133.9330   73.2100  225.8170 C   0  0  0  0  0  0  0  0  0  0  0  0
  134.7890   74.1490  225.2850 C   0  0  0  0  0  0  0  0  0  0  0  0
  134.7000   75.4960  225.6250 C   0  0  0  0  0  0  0  0  0  0  0  0
  133.7030   75.8340  226.5250 C   0  0  0  0  0  0  0  0  0  0  0  0
  133.5480   77.1460  226.9130 C   0  0  0  0  0  0  0  0  0  0  0  0
  132.5460   77.4840  227.8160 C   0  0  0  0  0  0  0  0  0  0  0  0
  132.3580   78.7630  228.2260 F   0  0  0  0  0  0  0  0  0  0  0  0
  131.7120   76.4890  228.3180 C   0  0  0  0  0  0  0  0  0  0  0  0
  131.8470   75.1750  227.9470 C   0  0  0  0  0  0  0  0  0  0  0  0
  132.8440   74.8640  227.0520 C   0  0  0  0  0  0  0  0  0  0  0  0
  132.9810   73.5850  226.6860 N   0  0  0  0  0  0  0  0  0  0  0  0
  134.3620   71.1340  227.3770 H   0  0  0  0  0  0  0  0  0  0  0  0
  135.1009   68.9930  226.9124 H   0  0  0  0  0  0  0  0  0  0  0  0
  133.4657   69.0517  225.9769 H   0  0  0  0  0  0  0  0  0  0  0  0
  136.0975   71.4075  224.6166 H   0  0  0  0  0  0  0  0  0  0  0  0
  137.6709   70.8295  225.0820 H   0  0  0  0  0  0  0  0  0  0  0  0
  138.3540   71.3455  222.8375 H   0  0  0  0  0  0  0  0  0  0  0  0
  135.5940   71.7340  222.7590 H   0  0  0  0  0  0  0  0  0  0  0  0
  136.3771   69.4298  221.6277 H   0  0  0  0  0  0  0  0  0  0  0  0
  138.1027   69.3886  221.4796 H   0  0  0  0  0  0  0  0  0  0  0  0
  137.1312   67.5504  223.3776 H   0  0  0  0  0  0  0  0  0  0  0  0
  139.4373   68.6612  223.1194 H   0  0  0  0  0  0  0  0  0  0  0  0
  138.8053   69.7844  224.4285 H   0  0  0  0  0  0  0  0  0  0  0  0
  138.2518   68.5215  226.7586 H   0  0  0  0  0  0  0  0  0  0  0  0
  139.5354   70.1671  224.8787 H   0  0  0  0  0  0  0  0  0  0  0  0
  138.8692   70.6035  226.4955 H   0  0  0  0  0  0  0  0  0  0  0  0
  141.6844   69.5646  225.9355 H   0  0  0  0  0  0  0  0  0  0  0  0
  141.2344   71.2684  226.2935 H   0  0  0  0  0  0  0  0  0  0  0  0
  142.0566   70.1255  228.3064 H   0  0  0  0  0  0  0  0  0  0  0  0
  140.3159   70.5652  228.4651 H   0  0  0  0  0  0  0  0  0  0  0  0
  141.5841   67.9656  228.6007 H   0  0  0  0  0  0  0  0  0  0  0  0
  139.8629   68.4554  228.9265 H   0  0  0  0  0  0  0  0  0  0  0  0
  141.1109   67.5984  226.3158 H   0  0  0  0  0  0  0  0  0  0  0  0
  139.7826   66.8102  227.2855 H   0  0  0  0  0  0  0  0  0  0  0  0
  135.5629   73.8261  224.5731 H   0  0  0  0  0  0  0  0  0  0  0  0
  135.3823   76.2487  225.2031 H   0  0  0  0  0  0  0  0  0  0  0  0
  134.2140   77.9234  226.5104 H   0  0  0  0  0  0  0  0  0  0  0  0
  130.9222   76.7640  229.0325 H   0  0  0  0  0  0  0  0  0  0  0  0
  131.1815   74.3979  228.3510 H   0  0  0  0  0  0  0  0  0  0  0  0
  1  2  2  0
  2  3  1  0
  3  4  1  0
  4  5  1  0
  5  6  2  0
  5  7  1  0
  7  8  1  0
  8  9  1  0
  9 10  1  0
  9 11  1  0
 11 12  1  0
 12 13  1  0
 13 14  1  0
 14 15  1  0
 15 16  1  0
 16 17  1  0
 17 18  1  0
 18 19  1  0
 19 20  1  0
  2 21  1  0
 21 22  2  0
 22 23  1  0
 23 24  2  0
 24 25  1  0
 25 26  2  0
 26 27  1  0
 26 28  1  0
 28 29  2  0
 29 30  1  0
 30 31  2  0
 12  7  1  0
 20 15  1  0
 31 21  1  0
 30 24  1  0
  3 32  1  0
  4 33  1  0
  4 34  1  0
  8 35  1  0
  8 36  1  0
  9 37  1  1
 10 38  1  0
 11 39  1  0
 11 40  1  0
 12 41  1  6
 13 42  1  0
 13 43  1  0
 15 44  1  0
 16 45  1  0
 16 46  1  0
 17 47  1  0
 17 48  1  0
 18 49  1  0
 18 50  1  0
 19 51  1  0
 19 52  1  0
 20 53  1  0
 20 54  1  0
 22 55  1  0
 23 56  1  0
 25 57  1  0
 28 58  1  0
 29 59  1  0
M  END
>  <smiles>  (39) 
O=C(NCC(=O)N1C[C@H](O)C[C@H]1COC1CCCCC1)c1ccc2cc(F)ccc2n1

>  <score_type>  (39) 
oracle

>  <origin>  (39) 
autodockgpu

>  <m_score__min__energy>  (39) 
-8.2599999999999998

>  <m_primary>  (39) 
energy

>  <rmsd>  (39) 
8.928978230696865

>  <m_score__min__rmsd>  (39) 
8.928978230696865

>  <meeko>  (39) 
{"free_energy": -7.32, "intermolecular_energy": -9.71, "internal_energy": -2.44, "cluster_size": 2, "cluster_id": 2, "rank_in_cluster": 2}

>  <energy>  (39) 
-6.83

>  <cluster_rmsd>  (39) 
1.44

>  <cluster>  (39) 
1

$$$$

     RDKit          3D

 59 62  0  0  0  0  0  0  0  0999 V2000
  138.2700   72.8420  220.9990 O   0  0  0  0  0  0  0  0  0  0  0  0
  137.5280   73.6300  221.5970 C   0  0  0  0  0  0  0  0  0  0  0  0
  136.2010   73.1900  221.8970 N   0  0  0  0  0  0  0  0  0  0  0  0
  135.6640   71.9240  221.5710 C   0  0  0  0  0  0  0  0  0  0  0  0
  136.3270   70.7070  222.0010 C   0  0  0  0  0  0  0  0  0  0  0  0
  135.8730   69.6210  221.4150 O   0  0  0  0  0  0  0  0  0  0  0  0
  137.3470   70.4500  222.9160 N   0  0  0  0  0  0  0  0  0  0  0  0
  137.7960   71.5230  223.8520 C   0  0  0  0  0  0  0  0  0  0  0  0
  139.3160   71.3830  223.7600 C   0  0  2  0  0  0  0  0  0  0  0  0
  139.8190   72.4610  223.0270 O   0  0  0  0  0  0  0  0  0  0  0  0
  139.5840   70.0880  223.0270 C   0  0  0  0  0  0  0  0  0  0  0  0
  138.2200   69.3610  223.2460 C   0  0  1  0  0  0  0  0  0  0  0  0
  138.2470   69.0120  224.7180 C   0  0  0  0  0  0  0  0  0  0  0  0
  139.2130   68.1150  225.0750 O   0  0  0  0  0  0  0  0  0  0  0  0
  140.2590   68.7500  225.7560 C   0  0  0  0  0  0  0  0  0  0  0  0
  140.8710   67.7460  226.6830 C   0  0  0  0  0  0  0  0  0  0  0  0
  140.5870   68.1190  228.1220 C   0  0  0  0  0  0  0  0  0  0  0  0
  141.1620   69.4750  228.4180 C   0  0  0  0  0  0  0  0  0  0  0  0
  140.5360   70.5170  227.5190 C   0  0  0  0  0  0  0  0  0  0  0  0
  139.6320   69.9130  226.4840 C   0  0  0  0  0  0  0  0  0  0  0  0
  137.9840   74.9690  221.9900 C   0  0  0  0  0  0  0  0  0  0  0  0
  137.0380   75.9510  222.1860 C   0  0  0  0  0  0  0  0  0  0  0  0
  137.3920   77.2440  222.5590 C   0  0  0  0  0  0  0  0  0  0  0  0
  138.7470   77.4840  222.7210 C   0  0  0  0  0  0  0  0  0  0  0  0
  139.1810   78.7380  223.0880 C   0  0  0  0  0  0  0  0  0  0  0  0
  140.5410   78.9770  223.2510 C   0  0  0  0  0  0  0  0  0  0  0  0
  141.0120   80.1950  223.6120 F   0  0  0  0  0  0  0  0  0  0  0  0
  141.4480   77.9430  223.0380 C   0  0  0  0  0  0  0  0  0  0  0  0
  141.0400   76.6850  222.6700 C   0  0  0  0  0  0  0  0  0  0  0  0
  139.6900   76.4720  222.5160 C   0  0  0  0  0  0  0  0  0  0  0  0
  139.2860   75.2480  222.1580 N   0  0  0  0  0  0  0  0  0  0  0  0
  135.6110   73.9090  222.4060 H   0  0  0  0  0  0  0  0  0  0  0  0
  134.6485   71.8949  221.9929 H   0  0  0  0  0  0  0  0  0  0  0  0
  135.7677   71.8872  220.4765 H   0  0  0  0  0  0  0  0  0  0  0  0
  137.4619   72.5159  223.5166 H   0  0  0  0  0  0  0  0  0  0  0  0
  137.3955   71.4280  224.8721 H   0  0  0  0  0  0  0  0  0  0  0  0
  139.7929   71.3761  224.7512 H   0  0  0  0  0  0  0  0  0  0  0  0
  139.1160   73.1590  223.0170 H   0  0  0  0  0  0  0  0  0  0  0  0
  139.7883   70.2585  221.9597 H   0  0  0  0  0  0  0  0  0  0  0  0
  140.4655   69.5320  223.3787 H   0  0  0  0  0  0  0  0  0  0  0  0
  137.9599   68.4469  222.6921 H   0  0  0  0  0  0  0  0  0  0  0  0
  138.4132   69.9388  225.2867 H   0  0  0  0  0  0  0  0  0  0  0  0
  137.2818   68.5339  224.9413 H   0  0  0  0  0  0  0  0  0  0  0  0
  141.0600   69.1251  225.1021 H   0  0  0  0  0  0  0  0  0  0  0  0
  140.4458   66.7531  226.4747 H   0  0  0  0  0  0  0  0  0  0  0  0
  141.9595   67.7301  226.5254 H   0  0  0  0  0  0  0  0  0  0  0  0
  139.4995   68.1394  228.2864 H   0  0  0  0  0  0  0  0  0  0  0  0
  141.0481   67.3751  228.7883 H   0  0  0  0  0  0  0  0  0  0  0  0
  140.9607   69.7333  229.4681 H   0  0  0  0  0  0  0  0  0  0  0  0
  142.2468   69.4513  228.2375 H   0  0  0  0  0  0  0  0  0  0  0  0
  139.9491   71.2111  228.1385 H   0  0  0  0  0  0  0  0  0  0  0  0
  141.3495   71.0361  226.9911 H   0  0  0  0  0  0  0  0  0  0  0  0
  138.7160   69.5617  226.9815 H   0  0  0  0  0  0  0  0  0  0  0  0
  139.4222   70.6927  225.7369 H   0  0  0  0  0  0  0  0  0  0  0  0
  135.9749   75.7066  222.0439 H   0  0  0  0  0  0  0  0  0  0  0  0
  136.6392   78.0305  222.7163 H   0  0  0  0  0  0  0  0  0  0  0  0
  138.4546   79.5477  223.2516 H   0  0  0  0  0  0  0  0  0  0  0  0
  142.5224   78.1395  223.1682 H   0  0  0  0  0  0  0  0  0  0  0  0
  141.7668   75.8762  222.5042 H   0  0  0  0  0  0  0  0  0  0  0  0
  1  2  2  0
  2  3  1  0
  3  4  1  0
  4  5  1  0
  5  6  2  0
  5  7  1  0
  7  8  1  0
  8  9  1  0
  9 10  1  0
  9 11  1  0
 11 12  1  0
 12 13  1  0
 13 14  1  0
 14 15  1  0
 15 16  1  0
 16 17  1  0
 17 18  1  0
 18 19  1  0
 19 20  1  0
  2 21  1  0
 21 22  2  0
 22 23  1  0
 23 24  2  0
 24 25  1  0
 25 26  2  0
 26 27  1  0
 26 28  1  0
 28 29  2  0
 29 30  1  0
 30 31  2  0
 12  7  1  0
 20 15  1  0
 31 21  1  0
 30 24  1  0
  3 32  1  0
  4 33  1  0
  4 34  1  0
  8 35  1  0
  8 36  1  0
  9 37  1  1
 10 38  1  0
 11 39  1  0
 11 40  1  0
 12 41  1  6
 13 42  1  0
 13 43  1  0
 15 44  1  0
 16 45  1  0
 16 46  1  0
 17 47  1  0
 17 48  1  0
 18 49  1  0
 18 50  1  0
 19 51  1  0
 19 52  1  0
 20 53  1  0
 20 54  1  0
 22 55  1  0
 23 56  1  0
 25 57  1  0
 28 58  1  0
 29 59  1  0
M  END
>  <smiles>  (40) 
O=C(NCC(=O)N1C[C@H](O)C[C@H]1COC1CCCCC1)c1ccc2cc(F)ccc2n1

>  <score_type>  (40) 
oracle

>  <origin>  (40) 
autodockgpu

>  <m_score__min__energy>  (40) 
-8.2599999999999998

>  <m_primary>  (40) 
energy

>  <rmsd>  (40) 
7.7151926534162225

>  <m_score__min__rmsd>  (40) 
7.7151926534162225

>  <meeko>  (40) 
{"free_energy": -6.81, "intermolecular_energy": -9.19, "internal_energy": -2.62, "cluster_size": 3, "cluster_id": 4, "rank_in_cluster": 3}

>  <energy>  (40) 
-6.83

>  <cluster_rmsd>  (40) 
1.82

>  <cluster>  (40) 
1

$$$$

     RDKit          3D

 59 62  0  0  0  0  0  0  0  0999 V2000
  140.0530   72.1540  222.0940 O   0  0  0  0  0  0  0  0  0  0  0  0
  139.1980   71.8570  222.9370 C   0  0  0  0  0  0  0  0  0  0  0  0
  137.9040   72.4510  222.8030 N   0  0  0  0  0  0  0  0  0  0  0  0
  137.5160   73.3490  221.7830 C   0  0  0  0  0  0  0  0  0  0  0  0
  137.9910   74.7200  221.7850 C   0  0  0  0  0  0  0  0  0  0  0  0
  137.1320   75.5770  222.2910 O   0  0  0  0  0  0  0  0  0  0  0  0
  139.1740   75.3190  221.3550 N   0  0  0  0  0  0  0  0  0  0  0  0
  139.6380   75.1280  219.9500 C   0  0  0  0  0  0  0  0  0  0  0  0
  141.1270   74.8480  220.1610 C   0  0  2  0  0  0  0  0  0  0  0  0
  141.3630   73.4910  219.9280 O   0  0  0  0  0  0  0  0  0  0  0  0
  141.4250   75.1860  221.6050 C   0  0  0  0  0  0  0  0  0  0  0  0
  140.2170   76.1220  221.9230 C   0  0  1  0  0  0  0  0  0  0  0  0
  140.5340   77.3750  221.1360 C   0  0  0  0  0  0  0  0  0  0  0  0
  140.1490   78.5400  221.7350 O   0  0  0  0  0  0  0  0  0  0  0  0
  141.0190   78.8790  222.7790 C   0  0  0  0  0  0  0  0  0  0  0  0
  140.3170   79.8760  223.6480 C   0  0  0  0  0  0  0  0  0  0  0  0
  140.9810   81.2310  223.5350 C   0  0  0  0  0  0  0  0  0  0  0  0
  142.4170   81.1300  223.9650 C   0  0  0  0  0  0  0  0  0  0  0  0
  143.1610   80.1550  223.0810 C   0  0  0  0  0  0  0  0  0  0  0  0
  142.2540   79.4440  222.1200 C   0  0  0  0  0  0  0  0  0  0  0  0
  139.4900   70.9300  224.0370 C   0  0  0  0  0  0  0  0  0  0  0  0
  139.1810   69.5980  223.8700 C   0  0  0  0  0  0  0  0  0  0  0  0
  139.4280   68.6580  224.8660 C   0  0  0  0  0  0  0  0  0  0  0  0
  140.0020   69.1410  226.0320 C   0  0  0  0  0  0  0  0  0  0  0  0
  140.2780   68.2770  227.0670 C   0  0  0  0  0  0  0  0  0  0  0  0
  140.8540   68.7620  228.2350 C   0  0  0  0  0  0  0  0  0  0  0  0
  141.1430   67.9480  229.2800 F   0  0  0  0  0  0  0  0  0  0  0  0
  141.1430   70.1200  228.3440 C   0  0  0  0  0  0  0  0  0  0  0  0
  140.8770   71.0010  227.3270 C   0  0  0  0  0  0  0  0  0  0  0  0
  140.3080   70.4980  226.1800 C   0  0  0  0  0  0  0  0  0  0  0  0
  140.0450   71.3520  225.1840 N   0  0  0  0  0  0  0  0  0  0  0  0
  137.2150   72.1630  223.5560 H   0  0  0  0  0  0  0  0  0  0  0  0
  137.8428   72.9043  220.8314 H   0  0  0  0  0  0  0  0  0  0  0  0
  136.4353   73.4629  221.9537 H   0  0  0  0  0  0  0  0  0  0  0  0
  139.1321   74.2766  219.4712 H   0  0  0  0  0  0  0  0  0  0  0  0
  139.4297   75.9808  219.2871 H   0  0  0  0  0  0  0  0  0  0  0  0
  141.7611   75.4377  219.4826 H   0  0  0  0  0  0  0  0  0  0  0  0
  140.8860   72.9870  220.6350 H   0  0  0  0  0  0  0  0  0  0  0  0
  141.4246   74.2892  222.2420 H   0  0  0  0  0  0  0  0  0  0  0  0
  142.4146   75.6333  221.7800 H   0  0  0  0  0  0  0  0  0  0  0  0
  139.9816   76.4272  222.9533 H   0  0  0  0  0  0  0  0  0  0  0  0
  141.6220   77.4143  220.9788 H   0  0  0  0  0  0  0  0  0  0  0  0
  139.9624   77.3050  220.1988 H   0  0  0  0  0  0  0  0  0  0  0  0
  141.3077   78.0314  223.4179 H   0  0  0  0  0  0  0  0  0  0  0  0
  139.2672   79.9588  223.3302 H   0  0  0  0  0  0  0  0  0  0  0  0
  140.3688   79.5383  224.6936 H   0  0  0  0  0  0  0  0  0  0  0  0
  140.9355   81.5743  222.4910 H   0  0  0  0  0  0  0  0  0  0  0  0
  140.4567   81.9483  224.1836 H   0  0  0  0  0  0  0  0  0  0  0  0
  142.8889   82.1208  223.8903 H   0  0  0  0  0  0  0  0  0  0  0  0
  142.4554   80.7723  225.0045 H   0  0  0  0  0  0  0  0  0  0  0  0
  143.9199   80.7072  222.5072 H   0  0  0  0  0  0  0  0  0  0  0  0
  143.6195   79.3961  223.7320 H   0  0  0  0  0  0  0  0  0  0  0  0
  141.9411   80.1559  221.3420 H   0  0  0  0  0  0  0  0  0  0  0  0
  142.8185   78.5979  221.7011 H   0  0  0  0  0  0  0  0  0  0  0  0
  138.7268   69.2685  222.9239 H   0  0  0  0  0  0  0  0  0  0  0  0
  139.1821   67.5938  224.7358 H   0  0  0  0  0  0  0  0  0  0  0  0
  140.0436   67.2066  226.9701 H   0  0  0  0  0  0  0  0  0  0  0  0
  141.5975   70.4968  229.2721 H   0  0  0  0  0  0  0  0  0  0  0  0
  141.1103   72.0715  227.4250 H   0  0  0  0  0  0  0  0  0  0  0  0
  1  2  2  0
  2  3  1  0
  3  4  1  0
  4  5  1  0
  5  6  2  0
  5  7  1  0
  7  8  1  0
  8  9  1  0
  9 10  1  0
  9 11  1  0
 11 12  1  0
 12 13  1  0
 13 14  1  0
 14 15  1  0
 15 16  1  0
 16 17  1  0
 17 18  1  0
 18 19  1  0
 19 20  1  0
  2 21  1  0
 21 22  2  0
 22 23  1  0
 23 24  2  0
 24 25  1  0
 25 26  2  0
 26 27  1  0
 26 28  1  0
 28 29  2  0
 29 30  1  0
 30 31  2  0
 12  7  1  0
 20 15  1  0
 31 21  1  0
 30 24  1  0
  3 32  1  0
  4 33  1  0
  4 34  1  0
  8 35  1  0
  8 36  1  0
  9 37  1  6
 10 38  1  0
 11 39  1  0
 11 40  1  0
 12 41  1  1
 13 42  1  0
 13 43  1  0
 15 44  1  0
 16 45  1  0
 16 46  1  0
 17 47  1  0
 17 48  1  0
 18 49  1  0
 18 50  1  0
 19 51  1  0
 19 52  1  0
 20 53  1  0
 20 54  1  0
 22 55  1  0
 23 56  1  0
 25 57  1  0
 28 58  1  0
 29 59  1  0
M  END
>  <smiles>  (41) 
O=C(NCC(=O)N1C[C@H](O)C[C@H]1COC1CCCCC1)c1ccc2cc(F)ccc2n1

>  <score_type>  (41) 
oracle

>  <origin>  (41) 
autodockgpu

>  <m_score__min__energy>  (41) 
-8.2599999999999998

>  <m_primary>  (41) 
energy

>  <rmsd>  (41) 
1.9663085267619291

>  <m_score__min__rmsd>  (41) 
1.9663085267619291

>  <meeko>  (41) 
{"free_energy": -7.49, "intermolecular_energy": -9.87, "internal_energy": -2.25, "cluster_size": 43, "cluster_id": 1, "rank_in_cluster": 19}

>  <energy>  (41) 
-6.79

>  <cluster_rmsd>  (41) 
1.48

>  <cluster>  (41) 
1

$$$$

     RDKit          3D

 59 62  0  0  0  0  0  0  0  0999 V2000
  138.8360   72.4780  221.5820 O   0  0  0  0  0  0  0  0  0  0  0  0
  139.8170   72.3710  222.3280 C   0  0  0  0  0  0  0  0  0  0  0  0
  140.9860   73.1220  221.9920 N   0  0  0  0  0  0  0  0  0  0  0  0
  141.1160   73.9830  220.8780 C   0  0  0  0  0  0  0  0  0  0  0  0
  140.8140   75.3970  220.9990 C   0  0  0  0  0  0  0  0  0  0  0  0
  141.8200   76.1830  220.6850 O   0  0  0  0  0  0  0  0  0  0  0  0
  139.6720   76.0980  221.3850 N   0  0  0  0  0  0  0  0  0  0  0  0
  139.0460   75.8280  222.7130 C   0  0  0  0  0  0  0  0  0  0  0  0
  137.5650   75.7660  222.3390 C   0  0  2  0  0  0  0  0  0  0  0  0
  137.1470   74.4330  222.3950 O   0  0  0  0  0  0  0  0  0  0  0  0
  137.4590   76.2820  220.9220 C   0  0  0  0  0  0  0  0  0  0  0  0
  138.7960   77.0820  220.8200 C   0  0  1  0  0  0  0  0  0  0  0  0
  138.5500   78.2800  221.7120 C   0  0  0  0  0  0  0  0  0  0  0  0
  139.4800   79.2730  221.6040 O   0  0  0  0  0  0  0  0  0  0  0  0
  140.4570   79.1580  222.6000 C   0  0  0  0  0  0  0  0  0  0  0  0
  140.2390   80.2690  223.5800 C   0  0  0  0  0  0  0  0  0  0  0  0
  141.3750   81.2660  223.5040 C   0  0  0  0  0  0  0  0  0  0  0  0
  142.6740   80.5810  223.8200 C   0  0  0  0  0  0  0  0  0  0  0  0
  142.9390   79.4750  222.8240 C   0  0  0  0  0  0  0  0  0  0  0  0
  141.7850   79.2570  221.8890 C   0  0  0  0  0  0  0  0  0  0  0  0
  139.7910   71.5090  223.5160 C   0  0  0  0  0  0  0  0  0  0  0  0
  139.0960   70.3220  223.4480 C   0  0  0  0  0  0  0  0  0  0  0  0
  139.0260   69.4520  224.5320 C   0  0  0  0  0  0  0  0  0  0  0  0
  139.6950   69.8500  225.6780 C   0  0  0  0  0  0  0  0  0  0  0  0
  139.6740   69.0460  226.7960 C   0  0  0  0  0  0  0  0  0  0  0  0
  140.3460   69.4460  227.9450 C   0  0  0  0  0  0  0  0  0  0  0  0
  140.3520   68.6860  229.0680 F   0  0  0  0  0  0  0  0  0  0  0  0
  141.0310   70.6580  227.9520 C   0  0  0  0  0  0  0  0  0  0  0  0
  141.0660   71.4760  226.8510 C   0  0  0  0  0  0  0  0  0  0  0  0
  140.3950   71.0600  225.7250 C   0  0  0  0  0  0  0  0  0  0  0  0
  140.4240   71.8530  224.6480 N   0  0  0  0  0  0  0  0  0  0  0  0
  141.7960   72.9870  222.6630 H   0  0  0  0  0  0  0  0  0  0  0  0
  142.1621   73.9119  220.5455 H   0  0  0  0  0  0  0  0  0  0  0  0
  140.3338   73.6214  220.1943 H   0  0  0  0  0  0  0  0  0  0  0  0
  139.3947   74.8744  223.1361 H   0  0  0  0  0  0  0  0  0  0  0  0
  139.2850   76.5753  223.4840 H   0  0  0  0  0  0  0  0  0  0  0  0
  136.9395   76.3621  223.0197 H   0  0  0  0  0  0  0  0  0  0  0  0
  137.8700   73.9200  222.8360 H   0  0  0  0  0  0  0  0  0  0  0  0
  137.4185   75.4609  220.1911 H   0  0  0  0  0  0  0  0  0  0  0  0
  136.5526   76.8683  220.7105 H   0  0  0  0  0  0  0  0  0  0  0  0
  139.1708   77.4565  219.8560 H   0  0  0  0  0  0  0  0  0  0  0  0
  137.5671   78.7020  221.4554 H   0  0  0  0  0  0  0  0  0  0  0  0
  138.6070   77.9128  222.7474 H   0  0  0  0  0  0  0  0  0  0  0  0
  140.4185   78.2126  223.1611 H   0  0  0  0  0  0  0  0  0  0  0  0
  139.2926   80.7786  223.3464 H   0  0  0  0  0  0  0  0  0  0  0  0
  140.1993   79.8481  224.5955 H   0  0  0  0  0  0  0  0  0  0  0  0
  141.4224   81.6892  222.4898 H   0  0  0  0  0  0  0  0  0  0  0  0
  141.2016   82.0710  224.2333 H   0  0  0  0  0  0  0  0  0  0  0  0
  143.4921   81.3149  223.7737 H   0  0  0  0  0  0  0  0  0  0  0  0
  142.6139   80.1474  224.8291 H   0  0  0  0  0  0  0  0  0  0  0  0
  143.8280   79.7384  222.2322 H   0  0  0  0  0  0  0  0  0  0  0  0
  143.0921   78.5442  223.3899 H   0  0  0  0  0  0  0  0  0  0  0  0
  141.7423   80.0997  221.1833 H   0  0  0  0  0  0  0  0  0  0  0  0
  141.9548   78.2986  221.3765 H   0  0  0  0  0  0  0  0  0  0  0  0
  138.5828   70.0546  222.5125 H   0  0  0  0  0  0  0  0  0  0  0  0
  138.4716   68.5033  224.4818 H   0  0  0  0  0  0  0  0  0  0  0  0
  139.1277   68.0914  226.7797 H   0  0  0  0  0  0  0  0  0  0  0  0
  141.5589   70.9685  228.8657 H   0  0  0  0  0  0  0  0  0  0  0  0
  141.6116   72.4310  226.8684 H   0  0  0  0  0  0  0  0  0  0  0  0
  1  2  2  0
  2  3  1  0
  3  4  1  0
  4  5  1  0
  5  6  2  0
  5  7  1  0
  7  8  1  0
  8  9  1  0
  9 10  1  0
  9 11  1  0
 11 12  1  0
 12 13  1  0
 13 14  1  0
 14 15  1  0
 15 16  1  0
 16 17  1  0
 17 18  1  0
 18 19  1  0
 19 20  1  0
  2 21  1  0
 21 22  2  0
 22 23  1  0
 23 24  2  0
 24 25  1  0
 25 26  2  0
 26 27  1  0
 26 28  1  0
 28 29  2  0
 29 30  1  0
 30 31  2  0
 12  7  1  0
 20 15  1  0
 31 21  1  0
 30 24  1  0
  3 32  1  0
  4 33  1  0
  4 34  1  0
  8 35  1  0
  8 36  1  0
  9 37  1  1
 10 38  1  0
 11 39  1  0
 11 40  1  0
 12 41  1  6
 13 42  1  0
 13 43  1  0
 15 44  1  0
 16 45  1  0
 16 46  1  0
 17 47  1  0
 17 48  1  0
 18 49  1  0
 18 50  1  0
 19 51  1  0
 19 52  1  0
 20 53  1  0
 20 54  1  0
 22 55  1  0
 23 56  1  0
 25 57  1  0
 28 58  1  0
 29 59  1  0
M  END
>  <smiles>  (42) 
O=C(NCC(=O)N1C[C@H](O)C[C@H]1COC1CCCCC1)c1ccc2cc(F)ccc2n1

>  <score_type>  (42) 
oracle

>  <origin>  (42) 
autodockgpu

>  <m_score__min__energy>  (42) 
-8.2599999999999998

>  <m_primary>  (42) 
energy

>  <rmsd>  (42) 
2.8843364956223603

>  <m_score__min__rmsd>  (42) 
2.8843364956223603

>  <meeko>  (42) 
{"free_energy": -7.49, "intermolecular_energy": -9.88, "internal_energy": -2.64, "cluster_size": 43, "cluster_id": 1, "rank_in_cluster": 18}

>  <energy>  (42) 
-6.74

>  <cluster_rmsd>  (42) 
1.47

>  <cluster>  (42) 
1

$$$$

     RDKit          3D

 59 62  0  0  0  0  0  0  0  0999 V2000
  140.3010   71.7080  221.8960 O   0  0  0  0  0  0  0  0  0  0  0  0
  139.4720   71.6670  222.8140 C   0  0  0  0  0  0  0  0  0  0  0  0
  138.3440   72.5410  222.7240 N   0  0  0  0  0  0  0  0  0  0  0  0
  138.0910   73.4490  221.6700 C   0  0  0  0  0  0  0  0  0  0  0  0
  138.7840   74.7230  221.6100 C   0  0  0  0  0  0  0  0  0  0  0  0
  138.1940   75.6790  222.2920 O   0  0  0  0  0  0  0  0  0  0  0  0
  139.9490   75.1440  220.9720 N   0  0  0  0  0  0  0  0  0  0  0  0
  140.1660   74.8280  219.5300 C   0  0  0  0  0  0  0  0  0  0  0  0
  141.6250   74.3720  219.5380 C   0  0  2  0  0  0  0  0  0  0  0  0
  141.6590   72.9860  219.3650 O   0  0  0  0  0  0  0  0  0  0  0  0
  142.1800   74.7380  220.8970 C   0  0  0  0  0  0  0  0  0  0  0  0
  141.1560   75.8350  221.3260 C   0  0  1  0  0  0  0  0  0  0  0  0
  141.4940   76.9970  220.4180 C   0  0  0  0  0  0  0  0  0  0  0  0
  140.9560   78.1940  220.7970 O   0  0  0  0  0  0  0  0  0  0  0  0
  141.8250   78.8900  221.6460 C   0  0  0  0  0  0  0  0  0  0  0  0
  141.5040   78.4890  223.0520 C   0  0  0  0  0  0  0  0  0  0  0  0
  140.8960   79.6520  223.8040 C   0  0  0  0  0  0  0  0  0  0  0  0
  141.8630   80.8010  223.8300 C   0  0  0  0  0  0  0  0  0  0  0  0
  142.1800   81.2520  222.4220 C   0  0  0  0  0  0  0  0  0  0  0  0
  141.5740   80.3540  221.3830 C   0  0  0  0  0  0  0  0  0  0  0  0
  139.6300   70.7580  223.9550 C   0  0  0  0  0  0  0  0  0  0  0  0
  139.1890   69.4600  223.8250 C   0  0  0  0  0  0  0  0  0  0  0  0
  139.3050   68.5390  224.8620 C   0  0  0  0  0  0  0  0  0  0  0  0
  139.8880   69.0050  226.0290 C   0  0  0  0  0  0  0  0  0  0  0  0
  140.0400   68.1580  227.1040 C   0  0  0  0  0  0  0  0  0  0  0  0
  140.6250   68.6260  228.2740 C   0  0  0  0  0  0  0  0  0  0  0  0
  140.7950   67.8270  229.3560 F   0  0  0  0  0  0  0  0  0  0  0  0
  141.0520   69.9500  228.3450 C   0  0  0  0  0  0  0  0  0  0  0  0
  140.9110   70.8140  227.2880 C   0  0  0  0  0  0  0  0  0  0  0  0
  140.3290   70.3280  226.1400 C   0  0  0  0  0  0  0  0  0  0  0  0
  140.1890   71.1650  225.1060 N   0  0  0  0  0  0  0  0  0  0  0  0
  137.6700   72.4650  223.5390 H   0  0  0  0  0  0  0  0  0  0  0  0
  138.3253   72.9190  220.7350 H   0  0  0  0  0  0  0  0  0  0  0  0
  137.0462   73.7450  221.8454 H   0  0  0  0  0  0  0  0  0  0  0  0
  139.4955   74.0257  219.1885 H   0  0  0  0  0  0  0  0  0  0  0  0
  139.9608   75.6676  218.8496 H   0  0  0  0  0  0  0  0  0  0  0  0
  142.2123   74.8430  218.7360 H   0  0  0  0  0  0  0  0  0  0  0  0
  141.1490   72.5860  220.1130 H   0  0  0  0  0  0  0  0  0  0  0  0
  142.1707   73.8802  221.5855 H   0  0  0  0  0  0  0  0  0  0  0  0
  143.2309   75.0629  220.8944 H   0  0  0  0  0  0  0  0  0  0  0  0
  141.1207   76.2175  222.3567 H   0  0  0  0  0  0  0  0  0  0  0  0
  142.5884   77.1057  220.3939 H   0  0  0  0  0  0  0  0  0  0  0  0
  141.0604   76.7592  219.4354 H   0  0  0  0  0  0  0  0  0  0  0  0
  142.8898   78.6715  221.4774 H   0  0  0  0  0  0  0  0  0  0  0  0
  140.7890   77.6532  223.0367 H   0  0  0  0  0  0  0  0  0  0  0  0
  142.4317   78.1822  223.5571 H   0  0  0  0  0  0  0  0  0  0  0  0
  139.9685   79.9663  223.3030 H   0  0  0  0  0  0  0  0  0  0  0  0
  140.6726   79.3413  224.8353 H   0  0  0  0  0  0  0  0  0  0  0  0
  141.4172   81.6380  224.3874 H   0  0  0  0  0  0  0  0  0  0  0  0
  142.7928   80.4752  224.3193 H   0  0  0  0  0  0  0  0  0  0  0  0
  141.7884   82.2702  222.2807 H   0  0  0  0  0  0  0  0  0  0  0  0
  143.2724   81.2192  222.2975 H   0  0  0  0  0  0  0  0  0  0  0  0
  140.4875   80.5248  221.3635 H   0  0  0  0  0  0  0  0  0  0  0  0
  142.0473   80.5999  220.4210 H   0  0  0  0  0  0  0  0  0  0  0  0
  138.7327   69.1424  222.8758 H   0  0  0  0  0  0  0  0  0  0  0  0
  138.9541   67.5014  224.7608 H   0  0  0  0  0  0  0  0  0  0  0  0
  139.6993   67.1142  227.0366 H   0  0  0  0  0  0  0  0  0  0  0  0
  141.5152   70.3132  229.2743 H   0  0  0  0  0  0  0  0  0  0  0  0
  141.2512   71.8578  227.3563 H   0  0  0  0  0  0  0  0  0  0  0  0
  1  2  2  0
  2  3  1  0
  3  4  1  0
  4  5  1  0
  5  6  2  0
  5  7  1  0
  7  8  1  0
  8  9  1  0
  9 10  1  0
  9 11  1  0
 11 12  1  0
 12 13  1  0
 13 14  1  0
 14 15  1  0
 15 16  1  0
 16 17  1  0
 17 18  1  0
 18 19  1  0
 19 20  1  0
  2 21  1  0
 21 22  2  0
 22 23  1  0
 23 24  2  0
 24 25  1  0
 25 26  2  0
 26 27  1  0
 26 28  1  0
 28 29  2  0
 29 30  1  0
 30 31  2  0
 12  7  1  0
 20 15  1  0
 31 21  1  0
 30 24  1  0
  3 32  1  0
  4 33  1  0
  4 34  1  0
  8 35  1  0
  8 36  1  0
  9 37  1  6
 10 38  1  0
 11 39  1  0
 11 40  1  0
 12 41  1  1
 13 42  1  0
 13 43  1  0
 15 44  1  0
 16 45  1  0
 16 46  1  0
 17 47  1  0
 17 48  1  0
 18 49  1  0
 18 50  1  0
 19 51  1  0
 19 52  1  0
 20 53  1  0
 20 54  1  0
 22 55  1  0
 23 56  1  0
 25 57  1  0
 28 58  1  0
 29 59  1  0
M  END
>  <smiles>  (43) 
O=C(NCC(=O)N1C[C@H](O)C[C@H]1COC1CCCCC1)c1ccc2cc(F)ccc2n1

>  <score_type>  (43) 
oracle

>  <origin>  (43) 
autodockgpu

>  <m_score__min__energy>  (43) 
-8.2599999999999998

>  <m_primary>  (43) 
energy

>  <rmsd>  (43) 
1.7922899428699

>  <m_score__min__rmsd>  (43) 
1.7922899428699

>  <meeko>  (43) 
{"free_energy": -7.62, "intermolecular_energy": -10.01, "internal_energy": -2.21, "cluster_size": 43, "cluster_id": 1, "rank_in_cluster": 13}

>  <energy>  (43) 
-6.54

>  <cluster_rmsd>  (43) 
1.48

>  <cluster>  (43) 
1

$$$$

     RDKit          3D

 59 62  0  0  0  0  0  0  0  0999 V2000
  139.1080   73.1860  222.3270 O   0  0  0  0  0  0  0  0  0  0  0  0
  140.0770   72.4540  222.5630 C   0  0  0  0  0  0  0  0  0  0  0  0
  141.2050   72.5490  221.6900 N   0  0  0  0  0  0  0  0  0  0  0  0
  141.3090   73.4160  220.5780 C   0  0  0  0  0  0  0  0  0  0  0  0
  141.5820   74.8290  220.7660 C   0  0  0  0  0  0  0  0  0  0  0  0
  142.8610   75.1290  220.7550 O   0  0  0  0  0  0  0  0  0  0  0  0
  140.7610   75.9400  220.9600 N   0  0  0  0  0  0  0  0  0  0  0  0
  140.2580   76.2640  222.3280 C   0  0  0  0  0  0  0  0  0  0  0  0
  138.7910   76.5840  222.0390 C   0  0  2  0  0  0  0  0  0  0  0  0
  138.0040   75.5300  222.5090 O   0  0  0  0  0  0  0  0  0  0  0  0
  138.6650   76.6960  220.5360 C   0  0  0  0  0  0  0  0  0  0  0  0
  140.1560   76.9590  220.1540 C   0  0  1  0  0  0  0  0  0  0  0  0
  140.3960   78.3680  220.6510 C   0  0  0  0  0  0  0  0  0  0  0  0
  141.6480   78.5930  221.1460 O   0  0  0  0  0  0  0  0  0  0  0  0
  141.5880   79.1360  222.4360 C   0  0  0  0  0  0  0  0  0  0  0  0
  140.5480   80.2130  222.4270 C   0  0  0  0  0  0  0  0  0  0  0  0
  141.1950   81.5690  222.5990 C   0  0  0  0  0  0  0  0  0  0  0  0
  141.9380   81.6160  223.9040 C   0  0  0  0  0  0  0  0  0  0  0  0
  143.0210   80.5600  223.9270 C   0  0  0  0  0  0  0  0  0  0  0  0
  142.9730   79.6620  222.7270 C   0  0  0  0  0  0  0  0  0  0  0  0
  140.0790   71.5190  223.6950 C   0  0  0  0  0  0  0  0  0  0  0  0
  139.5310   70.2680  223.5120 C   0  0  0  0  0  0  0  0  0  0  0  0
  139.4960   69.3270  224.5370 C   0  0  0  0  0  0  0  0  0  0  0  0
  140.0430   69.7230  225.7470 C   0  0  0  0  0  0  0  0  0  0  0  0
  140.0470   68.8510  226.8120 C   0  0  0  0  0  0  0  0  0  0  0  0
  140.5970   69.2480  228.0260 C   0  0  0  0  0  0  0  0  0  0  0  0
  140.6220   68.4220  229.1010 F   0  0  0  0  0  0  0  0  0  0  0  0
  141.1350   70.5250  228.1490 C   0  0  0  0  0  0  0  0  0  0  0  0
  141.1420   71.4120  227.1020 C   0  0  0  0  0  0  0  0  0  0  0  0
  140.5940   70.9980  225.9110 C   0  0  0  0  0  0  0  0  0  0  0  0
  140.5970   71.8570  224.8860 N   0  0  0  0  0  0  0  0  0  0  0  0
  142.0020   71.8960  221.9370 H   0  0  0  0  0  0  0  0  0  0  0  0
  142.1174   73.0208  219.9453 H   0  0  0  0  0  0  0  0  0  0  0  0
  140.2881   73.4147  220.1683 H   0  0  0  0  0  0  0  0  0  0  0  0
  140.3565   75.4045  223.0074 H   0  0  0  0  0  0  0  0  0  0  0  0
  140.8060   77.0754  222.8293 H   0  0  0  0  0  0  0  0  0  0  0  0
  138.4644   77.5135  222.5282 H   0  0  0  0  0  0  0  0  0  0  0  0
  138.6220   74.8260  222.8300 H   0  0  0  0  0  0  0  0  0  0  0  0
  138.2876   75.7649  220.0881 H   0  0  0  0  0  0  0  0  0  0  0  0
  137.9568   77.4622  220.1876 H   0  0  0  0  0  0  0  0  0  0  0  0
  140.4999   76.9115  219.1102 H   0  0  0  0  0  0  0  0  0  0  0  0
  140.2297   79.0601  219.8123 H   0  0  0  0  0  0  0  0  0  0  0  0
  139.6986   78.5254  221.4870 H   0  0  0  0  0  0  0  0  0  0  0  0
  141.3059   78.4134  223.2159 H   0  0  0  0  0  0  0  0  0  0  0  0
  140.0077   80.1876  221.4692 H   0  0  0  0  0  0  0  0  0  0  0  0
  139.8488   80.0421  223.2588 H   0  0  0  0  0  0  0  0  0  0  0  0
  141.8982   81.7458  221.7718 H   0  0  0  0  0  0  0  0  0  0  0  0
  140.4165   82.3461  222.5959 H   0  0  0  0  0  0  0  0  0  0  0  0
  142.3959   82.6087  224.0259 H   0  0  0  0  0  0  0  0  0  0  0  0
  141.2324   81.4244  224.7258 H   0  0  0  0  0  0  0  0  0  0  0  0
  144.0005   81.0598  223.9546 H   0  0  0  0  0  0  0  0  0  0  0  0
  142.8602   79.9357  224.8183 H   0  0  0  0  0  0  0  0  0  0  0  0
  143.3235   80.2284  221.8516 H   0  0  0  0  0  0  0  0  0  0  0  0
  143.6151   78.7947  222.9404 H   0  0  0  0  0  0  0  0  0  0  0  0
  139.1101   70.0061  222.5300 H   0  0  0  0  0  0  0  0  0  0  0  0
  139.0596   68.3273  224.3948 H   0  0  0  0  0  0  0  0  0  0  0  0
  139.6170   67.8444  226.7033 H   0  0  0  0  0  0  0  0  0  0  0  0
  141.5670   70.8324  229.1128 H   0  0  0  0  0  0  0  0  0  0  0  0
  141.5710   72.4189  227.2118 H   0  0  0  0  0  0  0  0  0  0  0  0
  1  2  2  0
  2  3  1  0
  3  4  1  0
  4  5  1  0
  5  6  2  0
  5  7  1  0
  7  8  1  0
  8  9  1  0
  9 10  1  0
  9 11  1  0
 11 12  1  0
 12 13  1  0
 13 14  1  0
 14 15  1  0
 15 16  1  0
 16 17  1  0
 17 18  1  0
 18 19  1  0
 19 20  1  0
  2 21  1  0
 21 22  2  0
 22 23  1  0
 23 24  2  0
 24 25  1  0
 25 26  2  0
 26 27  1  0
 26 28  1  0
 28 29  2  0
 29 30  1  0
 30 31  2  0
 12  7  1  0
 20 15  1  0
 31 21  1  0
 30 24  1  0
  3 32  1  0
  4 33  1  0
  4 34  1  0
  8 35  1  0
  8 36  1  0
  9 37  1  1
 10 38  1  0
 11 39  1  0
 11 40  1  0
 12 41  1  6
 13 42  1  0
 13 43  1  0
 15 44  1  0
 16 45  1  0
 16 46  1  0
 17 47  1  0
 17 48  1  0
 18 49  1  0
 18 50  1  0
 19 51  1  0
 19 52  1  0
 20 53  1  0
 20 54  1  0
 22 55  1  0
 23 56  1  0
 25 57  1  0
 28 58  1  0
 29 59  1  0
M  END
>  <smiles>  (44) 
O=C(NCC(=O)N1C[C@H](O)C[C@H]1COC1CCCCC1)c1ccc2cc(F)ccc2n1

>  <score_type>  (44) 
oracle

>  <origin>  (44) 
autodockgpu

>  <m_score__min__energy>  (44) 
-8.2599999999999998

>  <m_primary>  (44) 
energy

>  <rmsd>  (44) 
2.6586764307335002

>  <m_score__min__rmsd>  (44) 
2.6586764307335002

>  <meeko>  (44) 
{"free_energy": -7.99, "intermolecular_energy": -10.38, "internal_energy": -2.32, "cluster_size": 43, "cluster_id": 1, "rank_in_cluster": 6}

>  <energy>  (44) 
-8.17

>  <cluster_rmsd>  (44) 
0.0

>  <cluster>  (44) 
2

$$$$

     RDKit          3D

 59 62  0  0  0  0  0  0  0  0999 V2000
  139.4970   71.9880  221.4710 O   0  0  0  0  0  0  0  0  0  0  0  0
  138.8350   71.9440  222.5160 C   0  0  0  0  0  0  0  0  0  0  0  0
  137.6160   72.6890  222.5570 N   0  0  0  0  0  0  0  0  0  0  0  0
  137.0980   73.4730  221.5010 C   0  0  0  0  0  0  0  0  0  0  0  0
  137.6480   74.7850  221.2150 C   0  0  0  0  0  0  0  0  0  0  0  0
  136.7380   75.6910  220.9330 O   0  0  0  0  0  0  0  0  0  0  0  0
  138.9490   75.2840  221.1730 N   0  0  0  0  0  0  0  0  0  0  0  0
  139.6100   75.5310  219.8580 C   0  0  0  0  0  0  0  0  0  0  0  0
  140.9990   74.9420  220.1060 C   0  0  2  0  0  0  0  0  0  0  0  0
  141.1050   73.7380  219.4040 O   0  0  0  0  0  0  0  0  0  0  0  0
  141.0960   74.6840  221.5930 C   0  0  0  0  0  0  0  0  0  0  0  0
  139.9740   75.6380  222.1110 C   0  0  1  0  0  0  0  0  0  0  0  0
  140.5640   77.0150  221.8940 C   0  0  0  0  0  0  0  0  0  0  0  0
  139.7880   78.0460  222.3410 O   0  0  0  0  0  0  0  0  0  0  0  0
  140.4290   79.2760  222.1490 C   0  0  0  0  0  0  0  0  0  0  0  0
  141.8760   78.9970  221.8830 C   0  0  0  0  0  0  0  0  0  0  0  0
  142.7250   79.4830  223.0380 C   0  0  0  0  0  0  0  0  0  0  0  0
  142.5350   80.9620  223.2210 C   0  0  0  0  0  0  0  0  0  0  0  0
  141.0870   81.2700  223.5260 C   0  0  0  0  0  0  0  0  0  0  0  0
  140.2070   80.0590  223.4200 C   0  0  0  0  0  0  0  0  0  0  0  0
  139.2760   71.1570  223.6740 C   0  0  0  0  0  0  0  0  0  0  0  0
  139.1410   69.7870  223.6250 C   0  0  0  0  0  0  0  0  0  0  0  0
  139.5360   68.9750  224.6840 C   0  0  0  0  0  0  0  0  0  0  0  0
  140.0720   69.6230  225.7840 C   0  0  0  0  0  0  0  0  0  0  0  0
  140.4870   68.8920  226.8740 C   0  0  0  0  0  0  0  0  0  0  0  0
  141.0250   69.5430  227.9780 C   0  0  0  0  0  0  0  0  0  0  0  0
  141.4470   68.8630  229.0720 F   0  0  0  0  0  0  0  0  0  0  0  0
  141.1370   70.9310  227.9670 C   0  0  0  0  0  0  0  0  0  0  0  0
  140.7300   71.6820  226.8930 C   0  0  0  0  0  0  0  0  0  0  0  0
  140.2010   71.0160  225.8120 C   0  0  0  0  0  0  0  0  0  0  0  0
  139.8010   71.7420  224.7620 N   0  0  0  0  0  0  0  0  0  0  0  0
  137.0950   72.6170  223.4770 H   0  0  0  0  0  0  0  0  0  0  0  0
  137.2109   72.8778  220.5829 H   0  0  0  0  0  0  0  0  0  0  0  0
  136.0783   73.7033  221.8433 H   0  0  0  0  0  0  0  0  0  0  0  0
  139.0906   75.0078  219.0416 H   0  0  0  0  0  0  0  0  0  0  0  0
  139.6168   76.5865  219.5483 H   0  0  0  0  0  0  0  0  0  0  0  0
  141.8012   75.6171  219.7732 H   0  0  0  0  0  0  0  0  0  0  0  0
  140.5830   73.0620  219.9050 H   0  0  0  0  0  0  0  0  0  0  0  0
  140.8834   73.6332  221.8392 H   0  0  0  0  0  0  0  0  0  0  0  0
  142.0904   74.8609  222.0287 H   0  0  0  0  0  0  0  0  0  0  0  0
  139.6124   75.5905  223.1488 H   0  0  0  0  0  0  0  0  0  0  0  0
  141.5296   77.0605  222.4190 H   0  0  0  0  0  0  0  0  0  0  0  0
  140.6561   77.1452  220.8056 H   0  0  0  0  0  0  0  0  0  0  0  0
  140.0449   79.8562  221.2971 H   0  0  0  0  0  0  0  0  0  0  0  0
  142.0197   77.9137  221.7575 H   0  0  0  0  0  0  0  0  0  0  0  0
  142.1802   79.5257  220.9676 H   0  0  0  0  0  0  0  0  0  0  0  0
  142.4248   78.9595  223.9577 H   0  0  0  0  0  0  0  0  0  0  0  0
  143.7838   79.2763  222.8232 H   0  0  0  0  0  0  0  0  0  0  0  0
  143.1633   81.3083  224.0548 H   0  0  0  0  0  0  0  0  0  0  0  0
  142.8233   81.4778  222.2931 H   0  0  0  0  0  0  0  0  0  0  0  0
  141.0189   81.6670  224.5496 H   0  0  0  0  0  0  0  0  0  0  0  0
  140.7377   82.0029  222.7838 H   0  0  0  0  0  0  0  0  0  0  0  0
  140.4122   79.4008  224.2771 H   0  0  0  0  0  0  0  0  0  0  0  0
  139.1647   80.4104  223.4113 H   0  0  0  0  0  0  0  0  0  0  0  0
  138.7099   69.3229  222.7257 H   0  0  0  0  0  0  0  0  0  0  0  0
  139.4285   67.8808  224.6492 H   0  0  0  0  0  0  0  0  0  0  0  0
  140.3932   67.7960  226.8714 H   0  0  0  0  0  0  0  0  0  0  0  0
  141.5637   71.4398  228.8439 H   0  0  0  0  0  0  0  0  0  0  0  0
  140.8235   72.7780  226.8965 H   0  0  0  0  0  0  0  0  0  0  0  0
  1  2  2  0
  2  3  1  0
  3  4  1  0
  4  5  1  0
  5  6  2  0
  5  7  1  0
  7  8  1  0
  8  9  1  0
  9 10  1  0
  9 11  1  0
 11 12  1  0
 12 13  1  0
 13 14  1  0
 14 15  1  0
 15 16  1  0
 16 17  1  0
 17 18  1  0
 18 19  1  0
 19 20  1  0
  2 21  1  0
 21 22  2  0
 22 23  1  0
 23 24  2  0
 24 25  1  0
 25 26  2  0
 26 27  1  0
 26 28  1  0
 28 29  2  0
 29 30  1  0
 30 31  2  0
 12  7  1  0
 20 15  1  0
 31 21  1  0
 30 24  1  0
  3 32  1  0
  4 33  1  0
  4 34  1  0
  8 35  1  0
  8 36  1  0
  9 37  1  6
 10 38  1  0
 11 39  1  0
 11 40  1  0
 12 41  1  1
 13 42  1  0
 13 43  1  0
 15 44  1  0
 16 45  1  0
 16 46  1  0
 17 47  1  0
 17 48  1  0
 18 49  1  0
 18 50  1  0
 19 51  1  0
 19 52  1  0
 20 53  1  0
 20 54  1  0
 22 55  1  0
 23 56  1  0
 25 57  1  0
 28 58  1  0
 29 59  1  0
M  END
>  <smiles>  (45) 
O=C(NCC(=O)N1C[C@H](O)C[C@H]1COC1CCCCC1)c1ccc2cc(F)ccc2n1

>  <score_type>  (45) 
oracle

>  <origin>  (45) 
autodockgpu

>  <m_score__min__energy>  (45) 
-8.2599999999999998

>  <m_primary>  (45) 
energy

>  <rmsd>  (45) 
2.0906044832979047

>  <m_score__min__rmsd>  (45) 
2.0906044832979047

>  <meeko>  (45) 
{"free_energy": -7.0, "intermolecular_energy": -9.39, "internal_energy": -2.37, "cluster_size": 43, "cluster_id": 1, "rank_in_cluster": 33}

>  <energy>  (45) 
-7.32

>  <cluster_rmsd>  (45) 
1.32

>  <cluster>  (45) 
2

$$$$

     RDKit          3D

 59 62  0  0  0  0  0  0  0  0999 V2000
  137.2260   73.0230  221.3560 O   0  0  0  0  0  0  0  0  0  0  0  0
  137.0440   73.7400  222.3470 C   0  0  0  0  0  0  0  0  0  0  0  0
  136.2420   73.2120  223.4060 N   0  0  0  0  0  0  0  0  0  0  0  0
  135.6390   71.9330  223.4190 C   0  0  0  0  0  0  0  0  0  0  0  0
  136.4460   70.7350  223.2760 C   0  0  0  0  0  0  0  0  0  0  0  0
  135.7590   69.6750  222.9150 O   0  0  0  0  0  0  0  0  0  0  0  0
  137.8040   70.4760  223.4490 N   0  0  0  0  0  0  0  0  0  0  0  0
  138.6550   71.4340  224.2140 C   0  0  0  0  0  0  0  0  0  0  0  0
  139.8910   71.5190  223.3180 C   0  0  2  0  0  0  0  0  0  0  0  0
  139.8910   72.7600  222.6750 O   0  0  0  0  0  0  0  0  0  0  0  0
  139.7600   70.4080  222.3010 C   0  0  0  0  0  0  0  0  0  0  0  0
  138.7480   69.4770  223.0400 C   0  0  1  0  0  0  0  0  0  0  0  0
  139.5720   68.9010  224.1710 C   0  0  0  0  0  0  0  0  0  0  0  0
  139.0230   67.8090  224.7790 O   0  0  0  0  0  0  0  0  0  0  0  0
  139.1890   67.8710  226.1690 C   0  0  0  0  0  0  0  0  0  0  0  0
  138.8880   69.2730  226.5990 C   0  0  0  0  0  0  0  0  0  0  0  0
  140.1500   69.9570  227.0790 C   0  0  0  0  0  0  0  0  0  0  0  0
  140.7270   69.2000  228.2410 C   0  0  0  0  0  0  0  0  0  0  0  0
  141.0740   67.7880  227.8260 C   0  0  0  0  0  0  0  0  0  0  0  0
  140.6210   67.4730  226.4310 C   0  0  0  0  0  0  0  0  0  0  0  0
  137.6270   75.0840  222.4430 C   0  0  0  0  0  0  0  0  0  0  0  0
  136.7770   76.1550  222.6120 C   0  0  0  0  0  0  0  0  0  0  0  0
  137.2540   77.4590  222.7100 C   0  0  0  0  0  0  0  0  0  0  0  0
  138.6290   77.6140  222.6290 C   0  0  0  0  0  0  0  0  0  0  0  0
  139.1820   78.8720  222.7180 C   0  0  0  0  0  0  0  0  0  0  0  0
  140.5610   79.0260  222.6370 C   0  0  0  0  0  0  0  0  0  0  0  0
  141.1480   80.2450  222.7190 F   0  0  0  0  0  0  0  0  0  0  0  0
  141.3670   77.9040  222.4670 C   0  0  0  0  0  0  0  0  0  0  0  0
  140.8400   76.6400  222.3750 C   0  0  0  0  0  0  0  0  0  0  0  0
  139.4730   76.5120  222.4580 C   0  0  0  0  0  0  0  0  0  0  0  0
  138.9520   75.2830  222.3700 N   0  0  0  0  0  0  0  0  0  0  0  0
  136.1170   73.8720  224.2270 H   0  0  0  0  0  0  0  0  0  0  0  0
  135.1106   71.8438  224.3796 H   0  0  0  0  0  0  0  0  0  0  0  0
  135.0358   71.9353  222.4991 H   0  0  0  0  0  0  0  0  0  0  0  0
  138.1650   72.4133  224.3180 H   0  0  0  0  0  0  0  0  0  0  0  0
  138.8682   71.1213  225.2468 H   0  0  0  0  0  0  0  0  0  0  0  0
  140.8257   71.4172  223.8889 H   0  0  0  0  0  0  0  0  0  0  0  0
  138.9880   73.1480  222.7940 H   0  0  0  0  0  0  0  0  0  0  0  0
  139.3544   70.7748  221.3465 H   0  0  0  0  0  0  0  0  0  0  0  0
  140.7078   69.9272  222.0174 H   0  0  0  0  0  0  0  0  0  0  0  0
  138.2565   68.6380  222.5257 H   0  0  0  0  0  0  0  0  0  0  0  0
  140.5530   68.6109  223.7667 H   0  0  0  0  0  0  0  0  0  0  0  0
  139.6350   69.6853  224.9397 H   0  0  0  0  0  0  0  0  0  0  0  0
  138.5208   67.2036  226.7330 H   0  0  0  0  0  0  0  0  0  0  0  0
  138.4731   69.8326  225.7477 H   0  0  0  0  0  0  0  0  0  0  0  0
  138.1597   69.2463  227.4229 H   0  0  0  0  0  0  0  0  0  0  0  0
  140.8843   69.9853  226.2604 H   0  0  0  0  0  0  0  0  0  0  0  0
  139.9098   70.9825  227.3962 H   0  0  0  0  0  0  0  0  0  0  0  0
  141.6370   69.7097  228.5905 H   0  0  0  0  0  0  0  0  0  0  0  0
  139.9823   69.1629  229.0497 H   0  0  0  0  0  0  0  0  0  0  0  0
  142.1655   67.6624  227.8796 H   0  0  0  0  0  0  0  0  0  0  0  0
  140.5546   67.1007  228.5100 H   0  0  0  0  0  0  0  0  0  0  0  0
  141.2688   68.0105  225.7229 H   0  0  0  0  0  0  0  0  0  0  0  0
  140.6867   66.3824  226.3034 H   0  0  0  0  0  0  0  0  0  0  0  0
  135.6934   75.9750  222.6710 H   0  0  0  0  0  0  0  0  0  0  0  0
  136.5787   78.3169  222.8440 H   0  0  0  0  0  0  0  0  0  0  0  0
  138.5351   79.7514  222.8527 H   0  0  0  0  0  0  0  0  0  0  0  0
  142.4575   78.0340  222.4046 H   0  0  0  0  0  0  0  0  0  0  0  0
  141.4875   75.7611  222.2398 H   0  0  0  0  0  0  0  0  0  0  0  0
  1  2  2  0
  2  3  1  0
  3  4  1  0
  4  5  1  0
  5  6  2  0
  5  7  1  0
  7  8  1  0
  8  9  1  0
  9 10  1  0
  9 11  1  0
 11 12  1  0
 12 13  1  0
 13 14  1  0
 14 15  1  0
 15 16  1  0
 16 17  1  0
 17 18  1  0
 18 19  1  0
 19 20  1  0
  2 21  1  0
 21 22  2  0
 22 23  1  0
 23 24  2  0
 24 25  1  0
 25 26  2  0
 26 27  1  0
 26 28  1  0
 28 29  2  0
 29 30  1  0
 30 31  2  0
 12  7  1  0
 20 15  1  0
 31 21  1  0
 30 24  1  0
  3 32  1  0
  4 33  1  0
  4 34  1  0
  8 35  1  0
  8 36  1  0
  9 37  1  1
 10 38  1  0
 11 39  1  0
 11 40  1  0
 12 41  1  6
 13 42  1  0
 13 43  1  0
 15 44  1  0
 16 45  1  0
 16 46  1  0
 17 47  1  0
 17 48  1  0
 18 49  1  0
 18 50  1  0
 19 51  1  0
 19 52  1  0
 20 53  1  0
 20 54  1  0
 22 55  1  0
 23 56  1  0
 25 57  1  0
 28 58  1  0
 29 59  1  0
M  END
>  <smiles>  (46) 
O=C(NCC(=O)N1C[C@H](O)C[C@H]1COC1CCCCC1)c1ccc2cc(F)ccc2n1

>  <score_type>  (46) 
oracle

>  <origin>  (46) 
autodockgpu

>  <m_score__min__energy>  (46) 
-8.2599999999999998

>  <m_primary>  (46) 
energy

>  <rmsd>  (46) 
7.782685172393874

>  <m_score__min__rmsd>  (46) 
7.782685172393874

>  <meeko>  (46) 
{"free_energy": -6.9, "intermolecular_energy": -9.29, "internal_energy": -2.94, "cluster_size": 3, "cluster_id": 4, "rank_in_cluster": 1}

>  <energy>  (46) 
-7.85

>  <cluster_rmsd>  (46) 
0.0

>  <cluster>  (46) 
3

$$$$

     RDKit          3D

 59 62  0  0  0  0  0  0  0  0999 V2000
  137.4070   73.1120  221.3370 O   0  0  0  0  0  0  0  0  0  0  0  0
  137.1510   73.8410  222.3040 C   0  0  0  0  0  0  0  0  0  0  0  0
  136.2800   73.3190  223.3110 N   0  0  0  0  0  0  0  0  0  0  0  0
  135.6880   72.0360  223.2980 C   0  0  0  0  0  0  0  0  0  0  0  0
  136.5000   70.8490  223.1040 C   0  0  0  0  0  0  0  0  0  0  0  0
  135.8320   69.8210  222.6300 O   0  0  0  0  0  0  0  0  0  0  0  0
  137.8490   70.5720  223.3220 N   0  0  0  0  0  0  0  0  0  0  0  0
  138.6830   71.5130  224.1260 C   0  0  0  0  0  0  0  0  0  0  0  0
  139.9500   71.5920  223.2750 C   0  0  2  0  0  0  0  0  0  0  0  0
  139.9870   72.8390  222.6450 O   0  0  0  0  0  0  0  0  0  0  0  0
  139.8430   70.4930  222.2430 C   0  0  0  0  0  0  0  0  0  0  0  0
  138.7950   69.5660  222.9360 C   0  0  1  0  0  0  0  0  0  0  0  0
  139.5720   68.9700  224.0900 C   0  0  0  0  0  0  0  0  0  0  0  0
  138.9030   68.0110  224.7940 O   0  0  0  0  0  0  0  0  0  0  0  0
  139.1480   68.1330  226.1680 C   0  0  0  0  0  0  0  0  0  0  0  0
  139.0470   69.5860  226.5190 C   0  0  0  0  0  0  0  0  0  0  0  0
  140.4070   70.1290  226.8970 C   0  0  0  0  0  0  0  0  0  0  0  0
  140.9450   69.3750  228.0790 C   0  0  0  0  0  0  0  0  0  0  0  0
  141.0910   67.9080  227.7420 C   0  0  0  0  0  0  0  0  0  0  0  0
  140.5300   67.5710  226.3920 C   0  0  0  0  0  0  0  0  0  0  0  0
  137.7150   75.1900  222.4220 C   0  0  0  0  0  0  0  0  0  0  0  0
  136.8510   76.2480  222.5990 C   0  0  0  0  0  0  0  0  0  0  0  0
  137.3100   77.5570  222.7200 C   0  0  0  0  0  0  0  0  0  0  0  0
  138.6830   77.7300  222.6510 C   0  0  0  0  0  0  0  0  0  0  0  0
  139.2190   78.9930  222.7620 C   0  0  0  0  0  0  0  0  0  0  0  0
  140.5970   79.1670  222.6940 C   0  0  0  0  0  0  0  0  0  0  0  0
  141.1670   80.3920  222.7970 F   0  0  0  0  0  0  0  0  0  0  0  0
  141.4180   78.0580  222.5140 C   0  0  0  0  0  0  0  0  0  0  0  0
  140.9080   76.7890  222.4010 C   0  0  0  0  0  0  0  0  0  0  0  0
  139.5430   76.6410  222.4720 C   0  0  0  0  0  0  0  0  0  0  0  0
  139.0380   75.4070  222.3620 N   0  0  0  0  0  0  0  0  0  0  0  0
  136.0930   73.9890  224.1120 H   0  0  0  0  0  0  0  0  0  0  0  0
  135.1794   71.9145  224.2658 H   0  0  0  0  0  0  0  0  0  0  0  0
  135.0675   72.0606  222.3900 H   0  0  0  0  0  0  0  0  0  0  0  0
  138.2006   72.4969  224.2224 H   0  0  0  0  0  0  0  0  0  0  0  0
  138.8561   71.1884  225.1627 H   0  0  0  0  0  0  0  0  0  0  0  0
  140.8626   71.4735  223.8777 H   0  0  0  0  0  0  0  0  0  0  0  0
  139.1030   73.2620  222.7870 H   0  0  0  0  0  0  0  0  0  0  0  0
  139.4757   70.8738  221.2786 H   0  0  0  0  0  0  0  0  0  0  0  0
  140.7950   70.0043  221.9883 H   0  0  0  0  0  0  0  0  0  0  0  0
  138.3128   68.7378  222.3960 H   0  0  0  0  0  0  0  0  0  0  0  0
  140.4918   68.5204  223.6877 H   0  0  0  0  0  0  0  0  0  0  0  0
  139.7642   69.7938  224.7931 H   0  0  0  0  0  0  0  0  0  0  0  0
  138.4321   67.5909  226.8033 H   0  0  0  0  0  0  0  0  0  0  0  0
  138.6617   70.1430  225.6522 H   0  0  0  0  0  0  0  0  0  0  0  0
  138.3646   69.7016  227.3740 H   0  0  0  0  0  0  0  0  0  0  0  0
  141.0953   70.0144  226.0466 H   0  0  0  0  0  0  0  0  0  0  0  0
  140.3136   71.1937  227.1572 H   0  0  0  0  0  0  0  0  0  0  0  0
  141.9285   69.7841  228.3536 H   0  0  0  0  0  0  0  0  0  0  0  0
  140.2449   69.4814  228.9208 H   0  0  0  0  0  0  0  0  0  0  0  0
  142.1596   67.6475  227.7552 H   0  0  0  0  0  0  0  0  0  0  0  0
  140.5262   67.3346  228.4918 H   0  0  0  0  0  0  0  0  0  0  0  0
  141.2023   67.9777  225.6221 H   0  0  0  0  0  0  0  0  0  0  0  0
  140.4518   66.4753  226.3337 H   0  0  0  0  0  0  0  0  0  0  0  0
  135.7693   76.0536  222.6460 H   0  0  0  0  0  0  0  0  0  0  0  0
  136.6228   78.4041  222.8621 H   0  0  0  0  0  0  0  0  0  0  0  0
  138.5594   79.8618  222.9040 H   0  0  0  0  0  0  0  0  0  0  0  0
  142.5071   78.2027  222.4608 H   0  0  0  0  0  0  0  0  0  0  0  0
  141.5682   75.9207  222.2586 H   0  0  0  0  0  0  0  0  0  0  0  0
  1  2  2  0
  2  3  1  0
  3  4  1  0
  4  5  1  0
  5  6  2  0
  5  7  1  0
  7  8  1  0
  8  9  1  0
  9 10  1  0
  9 11  1  0
 11 12  1  0
 12 13  1  0
 13 14  1  0
 14 15  1  0
 15 16  1  0
 16 17  1  0
 17 18  1  0
 18 19  1  0
 19 20  1  0
  2 21  1  0
 21 22  2  0
 22 23  1  0
 23 24  2  0
 24 25  1  0
 25 26  2  0
 26 27  1  0
 26 28  1  0
 28 29  2  0
 29 30  1  0
 30 31  2  0
 12  7  1  0
 20 15  1  0
 31 21  1  0
 30 24  1  0
  3 32  1  0
  4 33  1  0
  4 34  1  0
  8 35  1  0
  8 36  1  0
  9 37  1  1
 10 38  1  0
 11 39  1  0
 11 40  1  0
 12 41  1  6
 13 42  1  0
 13 43  1  0
 15 44  1  0
 16 45  1  0
 16 46  1  0
 17 47  1  0
 17 48  1  0
 18 49  1  0
 18 50  1  0
 19 51  1  0
 19 52  1  0
 20 53  1  0
 20 54  1  0
 22 55  1  0
 23 56  1  0
 25 57  1  0
 28 58  1  0
 29 59  1  0
M  END
>  <smiles>  (47) 
O=C(NCC(=O)N1C[C@H](O)C[C@H]1COC1CCCCC1)c1ccc2cc(F)ccc2n1

>  <score_type>  (47) 
oracle

>  <origin>  (47) 
autodockgpu

>  <m_score__min__energy>  (47) 
-8.2599999999999998

>  <m_primary>  (47) 
energy

>  <rmsd>  (47) 
7.7763591872411695

>  <m_score__min__rmsd>  (47) 
7.7763591872411695

>  <meeko>  (47) 
{"free_energy": -6.89, "intermolecular_energy": -9.28, "internal_energy": -2.94, "cluster_size": 3, "cluster_id": 4, "rank_in_cluster": 2}

>  <energy>  (47) 
-7.3

>  <cluster_rmsd>  (47) 
1.98

>  <cluster>  (47) 
3

$$$$

     RDKit          3D

 59 62  0  0  0  0  0  0  0  0999 V2000
  139.3350   73.3740  222.4720 O   0  0  0  0  0  0  0  0  0  0  0  0
  140.1940   72.4980  222.6300 C   0  0  0  0  0  0  0  0  0  0  0  0
  141.2620   72.4410  221.6820 N   0  0  0  0  0  0  0  0  0  0  0  0
  141.4250   73.3070  220.5770 C   0  0  0  0  0  0  0  0  0  0  0  0
  141.7600   74.7040  220.7760 C   0  0  0  0  0  0  0  0  0  0  0  0
  143.0530   74.9430  220.7850 O   0  0  0  0  0  0  0  0  0  0  0  0
  140.9900   75.8510  220.9650 N   0  0  0  0  0  0  0  0  0  0  0  0
  140.5890   76.2610  222.3440 C   0  0  0  0  0  0  0  0  0  0  0  0
  139.1170   76.6180  222.1330 C   0  0  2  0  0  0  0  0  0  0  0  0
  138.3290   75.6160  222.7070 O   0  0  0  0  0  0  0  0  0  0  0  0
  138.8960   76.6590  220.6380 C   0  0  0  0  0  0  0  0  0  0  0  0
  140.3660   76.8500  220.1480 C   0  0  1  0  0  0  0  0  0  0  0  0
  140.6830   78.2720  220.5540 C   0  0  0  0  0  0  0  0  0  0  0  0
  142.0100   78.5270  220.7530 O   0  0  0  0  0  0  0  0  0  0  0  0
  142.1880   79.6130  221.6200 C   0  0  0  0  0  0  0  0  0  0  0  0
  142.2220   79.0760  223.0170 C   0  0  0  0  0  0  0  0  0  0  0  0
  140.9910   79.5180  223.7780 C   0  0  0  0  0  0  0  0  0  0  0  0
  140.9370   81.0180  223.8290 C   0  0  0  0  0  0  0  0  0  0  0  0
  140.8670   81.5880  222.4300 C   0  0  0  0  0  0  0  0  0  0  0  0
  141.0190   80.5340  221.3730 C   0  0  0  0  0  0  0  0  0  0  0  0
  140.1270   71.5480  223.7480 C   0  0  0  0  0  0  0  0  0  0  0  0
  139.5610   70.3120  223.5230 C   0  0  0  0  0  0  0  0  0  0  0  0
  139.4620   69.3590  224.5320 C   0  0  0  0  0  0  0  0  0  0  0  0
  139.9650   69.7250  225.7700 C   0  0  0  0  0  0  0  0  0  0  0  0
  139.9050   68.8390  226.8220 C   0  0  0  0  0  0  0  0  0  0  0  0
  140.4110   69.2070  228.0640 C   0  0  0  0  0  0  0  0  0  0  0  0
  140.3730   68.3670  229.1270 F   0  0  0  0  0  0  0  0  0  0  0  0
  140.9710   70.4710  228.2280 C   0  0  0  0  0  0  0  0  0  0  0  0
  141.0420   71.3720  227.1950 C   0  0  0  0  0  0  0  0  0  0  0  0
  140.5360   70.9850  225.9750 C   0  0  0  0  0  0  0  0  0  0  0  0
  140.6010   71.8580  224.9640 N   0  0  0  0  0  0  0  0  0  0  0  0
  141.9640   71.6680  221.8660 H   0  0  0  0  0  0  0  0  0  0  0  0
  142.2247   72.8772  219.9559 H   0  0  0  0  0  0  0  0  0  0  0  0
  140.4120   73.3553  220.1509 H   0  0  0  0  0  0  0  0  0  0  0  0
  140.7043   75.4338  223.0598 H   0  0  0  0  0  0  0  0  0  0  0  0
  141.1948   77.0764  222.7661 H   0  0  0  0  0  0  0  0  0  0  0  0
  138.8532   77.5818  222.5928 H   0  0  0  0  0  0  0  0  0  0  0  0
  138.9420   74.8920  222.9920 H   0  0  0  0  0  0  0  0  0  0  0  0
  138.4605   75.7205  220.2644 H   0  0  0  0  0  0  0  0  0  0  0  0
  138.1911   77.4312  220.2963 H   0  0  0  0  0  0  0  0  0  0  0  0
  140.6388   76.7387  219.0882 H   0  0  0  0  0  0  0  0  0  0  0  0
  140.3203   78.9434  219.7617 H   0  0  0  0  0  0  0  0  0  0  0  0
  140.1868   78.4364  221.5219 H   0  0  0  0  0  0  0  0  0  0  0  0
  143.1231   80.1696  221.4598 H   0  0  0  0  0  0  0  0  0  0  0  0
  142.2527   77.9770  222.9829 H   0  0  0  0  0  0  0  0  0  0  0  0
  143.1168   79.4616  223.5276 H   0  0  0  0  0  0  0  0  0  0  0  0
  140.0919   79.1370  223.2715 H   0  0  0  0  0  0  0  0  0  0  0  0
  141.0349   79.1207  224.8028 H   0  0  0  0  0  0  0  0  0  0  0  0
  140.0458   81.3302  224.3931 H   0  0  0  0  0  0  0  0  0  0  0  0
  141.8457   81.3924  224.3231 H   0  0  0  0  0  0  0  0  0  0  0  0
  139.8930   82.0819  222.2984 H   0  0  0  0  0  0  0  0  0  0  0  0
  141.6989   82.2986  222.3161 H   0  0  0  0  0  0  0  0  0  0  0  0
  140.0989   79.9319  221.3440 H   0  0  0  0  0  0  0  0  0  0  0  0
  141.2035   81.0500  220.4192 H   0  0  0  0  0  0  0  0  0  0  0  0
  139.1777   70.0726  222.5201 H   0  0  0  0  0  0  0  0  0  0  0  0
  139.0102   68.3715  224.3568 H   0  0  0  0  0  0  0  0  0  0  0  0
  139.4585   67.8437  226.6807 H   0  0  0  0  0  0  0  0  0  0  0  0
  141.3679   70.7558  229.2136 H   0  0  0  0  0  0  0  0  0  0  0  0
  141.4874   72.3677  227.3371 H   0  0  0  0  0  0  0  0  0  0  0  0
  1  2  2  0
  2  3  1  0
  3  4  1  0
  4  5  1  0
  5  6  2  0
  5  7  1  0
  7  8  1  0
  8  9  1  0
  9 10  1  0
  9 11  1  0
 11 12  1  0
 12 13  1  0
 13 14  1  0
 14 15  1  0
 15 16  1  0
 16 17  1  0
 17 18  1  0
 18 19  1  0
 19 20  1  0
  2 21  1  0
 21 22  2  0
 22 23  1  0
 23 24  2  0
 24 25  1  0
 25 26  2  0
 26 27  1  0
 26 28  1  0
 28 29  2  0
 29 30  1  0
 30 31  2  0
 12  7  1  0
 20 15  1  0
 31 21  1  0
 30 24  1  0
  3 32  1  0
  4 33  1  0
  4 34  1  0
  8 35  1  0
  8 36  1  0
  9 37  1  1
 10 38  1  0
 11 39  1  0
 11 40  1  0
 12 41  1  6
 13 42  1  0
 13 43  1  0
 15 44  1  0
 16 45  1  0
 16 46  1  0
 17 47  1  0
 17 48  1  0
 18 49  1  0
 18 50  1  0
 19 51  1  0
 19 52  1  0
 20 53  1  0
 20 54  1  0
 22 55  1  0
 23 56  1  0
 25 57  1  0
 28 58  1  0
 29 59  1  0
M  END
>  <smiles>  (48) 
O=C(NCC(=O)N1C[C@H](O)C[C@H]1COC1CCCCC1)c1ccc2cc(F)ccc2n1

>  <score_type>  (48) 
oracle

>  <origin>  (48) 
autodockgpu

>  <m_score__min__energy>  (48) 
-8.2599999999999998

>  <m_primary>  (48) 
energy

>  <rmsd>  (48) 
2.7075573701244364

>  <m_score__min__rmsd>  (48) 
2.7075573701244364

>  <meeko>  (48) 
{"free_energy": -7.92, "intermolecular_energy": -10.31, "internal_energy": -2.51, "cluster_size": 43, "cluster_id": 1, "rank_in_cluster": 8}

>  <energy>  (48) 
-6.9

>  <cluster_rmsd>  (48) 
0.0

>  <cluster>  (48) 
4

$$$$

     RDKit          3D

 59 62  0  0  0  0  0  0  0  0999 V2000
  138.8980   72.4660  221.4130 O   0  0  0  0  0  0  0  0  0  0  0  0
  139.8260   72.4210  222.2310 C   0  0  0  0  0  0  0  0  0  0  0  0
  140.9770   73.2260  221.9670 N   0  0  0  0  0  0  0  0  0  0  0  0
  141.1450   74.0770  220.8510 C   0  0  0  0  0  0  0  0  0  0  0  0
  140.7360   75.4680  220.9140 C   0  0  0  0  0  0  0  0  0  0  0  0
  141.6350   76.3060  220.4460 O   0  0  0  0  0  0  0  0  0  0  0  0
  139.5840   76.1020  221.3750 N   0  0  0  0  0  0  0  0  0  0  0  0
  139.0050   75.7270  222.6990 C   0  0  0  0  0  0  0  0  0  0  0  0
  137.5170   75.6370  222.3610 C   0  0  2  0  0  0  0  0  0  0  0  0
  137.1450   74.2890  222.3430 O   0  0  0  0  0  0  0  0  0  0  0  0
  137.3530   76.2370  220.9830 C   0  0  0  0  0  0  0  0  0  0  0  0
  138.6590   77.0890  220.8970 C   0  0  1  0  0  0  0  0  0  0  0  0
  138.3990   78.2180  221.8700 C   0  0  0  0  0  0  0  0  0  0  0  0
  139.2020   79.3110  221.7050 O   0  0  0  0  0  0  0  0  0  0  0  0
  139.9430   79.5690  222.8650 C   0  0  0  0  0  0  0  0  0  0  0  0
  140.3660   81.0050  222.8230 C   0  0  0  0  0  0  0  0  0  0  0  0
  141.8630   81.1060  222.6350 C   0  0  0  0  0  0  0  0  0  0  0  0
  142.5660   80.4210  223.7720 C   0  0  0  0  0  0  0  0  0  0  0  0
  142.1850   78.9580  223.8190 C   0  0  0  0  0  0  0  0  0  0  0  0
  141.1110   78.6140  222.8280 C   0  0  0  0  0  0  0  0  0  0  0  0
  139.7570   71.5760  223.4290 C   0  0  0  0  0  0  0  0  0  0  0  0
  138.9790   70.4400  223.3840 C   0  0  0  0  0  0  0  0  0  0  0  0
  138.8620   69.5890  224.4790 C   0  0  0  0  0  0  0  0  0  0  0  0
  139.5740   69.9510  225.6120 C   0  0  0  0  0  0  0  0  0  0  0  0
  139.5120   69.1630  226.7390 C   0  0  0  0  0  0  0  0  0  0  0  0
  140.2270   69.5270  227.8750 C   0  0  0  0  0  0  0  0  0  0  0  0
  140.1960   68.7810  229.0060 F   0  0  0  0  0  0  0  0  0  0  0  0
  140.9960   70.6870  227.8580 C   0  0  0  0  0  0  0  0  0  0  0  0
  141.0720   71.4890  226.7470 C   0  0  0  0  0  0  0  0  0  0  0  0
  140.3580   71.1090  225.6350 C   0  0  0  0  0  0  0  0  0  0  0  0
  140.4280   71.8870  224.5490 N   0  0  0  0  0  0  0  0  0  0  0  0
  141.7410   73.1430  222.6980 H   0  0  0  0  0  0  0  0  0  0  0  0
  142.2189   74.0754  220.6130 H   0  0  0  0  0  0  0  0  0  0  0  0
  140.4531   73.6504  220.1099 H   0  0  0  0  0  0  0  0  0  0  0  0
  139.3971   74.7614  223.0509 H   0  0  0  0  0  0  0  0  0  0  0  0
  139.2408   76.4322  223.5096 H   0  0  0  0  0  0  0  0  0  0  0  0
  136.8920   76.1672  223.0947 H   0  0  0  0  0  0  0  0  0  0  0  0
  137.8730   73.7810  222.7830 H   0  0  0  0  0  0  0  0  0  0  0  0
  137.3194   75.4626  220.2025 H   0  0  0  0  0  0  0  0  0  0  0  0
  136.4216   76.8028  220.8334 H   0  0  0  0  0  0  0  0  0  0  0  0
  138.9929   77.5367  219.9493 H   0  0  0  0  0  0  0  0  0  0  0  0
  137.3539   78.5396  221.7502 H   0  0  0  0  0  0  0  0  0  0  0  0
  138.6177   77.8206  222.8721 H   0  0  0  0  0  0  0  0  0  0  0  0
  139.3834   79.4184  223.8000 H   0  0  0  0  0  0  0  0  0  0  0  0
  139.8604   81.5078  221.9855 H   0  0  0  0  0  0  0  0  0  0  0  0
  140.0914   81.4868  223.7730 H   0  0  0  0  0  0  0  0  0  0  0  0
  142.1454   80.6238  221.6875 H   0  0  0  0  0  0  0  0  0  0  0  0
  142.1556   82.1662  222.6130 H   0  0  0  0  0  0  0  0  0  0  0  0
  143.6535   80.5085  223.6318 H   0  0  0  0  0  0  0  0  0  0  0  0
  142.2684   80.8990  224.7170 H   0  0  0  0  0  0  0  0  0  0  0  0
  143.0769   78.3534  223.5974 H   0  0  0  0  0  0  0  0  0  0  0  0
  141.7937   78.7456  224.8248 H   0  0  0  0  0  0  0  0  0  0  0  0
  141.5471   78.6334  221.8183 H   0  0  0  0  0  0  0  0  0  0  0  0
  140.7280   77.6173  223.0923 H   0  0  0  0  0  0  0  0  0  0  0  0
  138.4359   70.1992  222.4582 H   0  0  0  0  0  0  0  0  0  0  0  0
  138.2406   68.6818  224.4473 H   0  0  0  0  0  0  0  0  0  0  0  0
  138.8995   68.2493  226.7411 H   0  0  0  0  0  0  0  0  0  0  0  0
  141.5585   70.9688  228.7603 H   0  0  0  0  0  0  0  0  0  0  0  0
  141.6828   72.4039  226.7461 H   0  0  0  0  0  0  0  0  0  0  0  0
  1  2  2  0
  2  3  1  0
  3  4  1  0
  4  5  1  0
  5  6  2  0
  5  7  1  0
  7  8  1  0
  8  9  1  0
  9 10  1  0
  9 11  1  0
 11 12  1  0
 12 13  1  0
 13 14  1  0
 14 15  1  0
 15 16  1  0
 16 17  1  0
 17 18  1  0
 18 19  1  0
 19 20  1  0
  2 21  1  0
 21 22  2  0
 22 23  1  0
 23 24  2  0
 24 25  1  0
 25 26  2  0
 26 27  1  0
 26 28  1  0
 28 29  2  0
 29 30  1  0
 30 31  2  0
 12  7  1  0
 20 15  1  0
 31 21  1  0
 30 24  1  0
  3 32  1  0
  4 33  1  0
  4 34  1  0
  8 35  1  0
  8 36  1  0
  9 37  1  1
 10 38  1  0
 11 39  1  0
 11 40  1  0
 12 41  1  6
 13 42  1  0
 13 43  1  0
 15 44  1  0
 16 45  1  0
 16 46  1  0
 17 47  1  0
 17 48  1  0
 18 49  1  0
 18 50  1  0
 19 51  1  0
 19 52  1  0
 20 53  1  0
 20 54  1  0
 22 55  1  0
 23 56  1  0
 25 57  1  0
 28 58  1  0
 29 59  1  0
M  END
>  <smiles>  (49) 
O=C(NCC(=O)N1C[C@H](O)C[C@H]1COC1CCCCC1)c1ccc2cc(F)ccc2n1

>  <score_type>  (49) 
oracle

>  <origin>  (49) 
autodockgpu

>  <m_score__min__energy>  (49) 
-8.2599999999999998

>  <m_primary>  (49) 
energy

>  <rmsd>  (49) 
2.9363858128747498

>  <m_score__min__rmsd>  (49) 
2.9363858128747498

>  <meeko>  (49) 
{"free_energy": -7.32, "intermolecular_energy": -9.71, "internal_energy": -2.7, "cluster_size": 43, "cluster_id": 1, "rank_in_cluster": 25}

>  <energy>  (49) 
-6.89

>  <cluster_rmsd>  (49) 
0.19

>  <cluster>  (49) 
4

$$$$

     RDKit          3D

 59 62  0  0  0  0  0  0  0  0999 V2000
  139.6260   73.4130  222.6970 O   0  0  0  0  0  0  0  0  0  0  0  0
  140.3220   72.3900  222.7240 C   0  0  0  0  0  0  0  0  0  0  0  0
  141.2330   72.1830  221.6430 N   0  0  0  0  0  0  0  0  0  0  0  0
  141.4120   73.0520  220.5420 C   0  0  0  0  0  0  0  0  0  0  0  0
  141.8470   74.4210  220.7450 C   0  0  0  0  0  0  0  0  0  0  0  0
  143.1520   74.5550  220.8320 O   0  0  0  0  0  0  0  0  0  0  0  0
  141.1630   75.6290  220.8730 N   0  0  0  0  0  0  0  0  0  0  0  0
  141.0350   76.2760  222.2130 C   0  0  0  0  0  0  0  0  0  0  0  0
  139.5620   76.6860  222.2080 C   0  0  2  0  0  0  0  0  0  0  0  0
  138.8610   75.8390  223.0700 O   0  0  0  0  0  0  0  0  0  0  0  0
  139.0720   76.5040  220.7890 C   0  0  0  0  0  0  0  0  0  0  0  0
  140.4320   76.5230  220.0230 C   0  0  1  0  0  0  0  0  0  0  0  0
  140.8650   77.9690  220.1240 C   0  0  0  0  0  0  0  0  0  0  0  0
  139.8810   78.8360  220.5050 O   0  0  0  0  0  0  0  0  0  0  0  0
  140.4150   79.9340  221.1900 C   0  0  0  0  0  0  0  0  0  0  0  0
  141.8960   79.7310  221.2870 C   0  0  0  0  0  0  0  0  0  0  0  0
  142.2980   79.4770  222.7230 C   0  0  0  0  0  0  0  0  0  0  0  0
  141.9060   80.6510  223.5750 C   0  0  0  0  0  0  0  0  0  0  0  0
  140.4090   80.8590  223.5250 C   0  0  0  0  0  0  0  0  0  0  0  0
  139.7370   79.9500  222.5380 C   0  0  0  0  0  0  0  0  0  0  0  0
  140.2230   71.4200  223.8220 C   0  0  0  0  0  0  0  0  0  0  0  0
  139.6550   70.1930  223.5620 C   0  0  0  0  0  0  0  0  0  0  0  0
  139.5260   69.2210  224.5500 C   0  0  0  0  0  0  0  0  0  0  0  0
  140.0020   69.5620  225.8060 C   0  0  0  0  0  0  0  0  0  0  0  0
  139.9120   68.6570  226.8400 C   0  0  0  0  0  0  0  0  0  0  0  0
  140.3890   69.0000  228.1000 C   0  0  0  0  0  0  0  0  0  0  0  0
  140.3210   68.1410  229.1460 F   0  0  0  0  0  0  0  0  0  0  0  0
  140.9530   70.2570  228.3000 C   0  0  0  0  0  0  0  0  0  0  0  0
  141.0540   71.1760  227.2860 C   0  0  0  0  0  0  0  0  0  0  0  0
  140.5750   70.8150  226.0480 C   0  0  0  0  0  0  0  0  0  0  0  0
  140.6690   71.7060  225.0550 N   0  0  0  0  0  0  0  0  0  0  0  0
  141.7990   71.2890  221.7170 H   0  0  0  0  0  0  0  0  0  0  0  0
  142.1574   72.5790  219.8857 H   0  0  0  0  0  0  0  0  0  0  0  0
  140.3895   73.1733  220.1551 H   0  0  0  0  0  0  0  0  0  0  0  0
  141.2529   75.5668  223.0251 H   0  0  0  0  0  0  0  0  0  0  0  0
  141.7340   77.1089  222.3798 H   0  0  0  0  0  0  0  0  0  0  0  0
  139.4183   77.7248  222.5401 H   0  0  0  0  0  0  0  0  0  0  0  0
  138.9860   74.9160  222.7350 H   0  0  0  0  0  0  0  0  0  0  0  0
  138.5448   75.5473  220.6595 H   0  0  0  0  0  0  0  0  0  0  0  0
  138.3423   77.2553  220.4527 H   0  0  0  0  0  0  0  0  0  0  0  0
  140.5012   76.2286  218.9654 H   0  0  0  0  0  0  0  0  0  0  0  0
  141.6801   78.0316  220.8600 H   0  0  0  0  0  0  0  0  0  0  0  0
  141.1702   78.2724  219.1117 H   0  0  0  0  0  0  0  0  0  0  0  0
  140.2472   80.9002  220.6918 H   0  0  0  0  0  0  0  0  0  0  0  0
  142.1849   78.8667  220.6710 H   0  0  0  0  0  0  0  0  0  0  0  0
  142.4057   80.6371  220.9276 H   0  0  0  0  0  0  0  0  0  0  0  0
  141.7900   78.5731  223.0903 H   0  0  0  0  0  0  0  0  0  0  0  0
  143.3877   79.3364  222.7764 H   0  0  0  0  0  0  0  0  0  0  0  0
  142.2117   80.4630  224.6148 H   0  0  0  0  0  0  0  0  0  0  0  0
  142.4057   81.5533  223.1927 H   0  0  0  0  0  0  0  0  0  0  0  0
  139.9920   80.6652  224.5243 H   0  0  0  0  0  0  0  0  0  0  0  0
  140.2252   81.8953  223.2051 H   0  0  0  0  0  0  0  0  0  0  0  0
  139.7417   78.9278  222.9442 H   0  0  0  0  0  0  0  0  0  0  0  0
  138.7154   80.3288  222.3865 H   0  0  0  0  0  0  0  0  0  0  0  0
  139.2934   69.9750  222.5462 H   0  0  0  0  0  0  0  0  0  0  0  0
  139.0728   68.2397  224.3458 H   0  0  0  0  0  0  0  0  0  0  0  0
  139.4645   67.6667  226.6697 H   0  0  0  0  0  0  0  0  0  0  0  0
  141.3285   70.5211  229.2996 H   0  0  0  0  0  0  0  0  0  0  0  0
  141.5020   72.1660  227.4570 H   0  0  0  0  0  0  0  0  0  0  0  0
  1  2  2  0
  2  3  1  0
  3  4  1  0
  4  5  1  0
  5  6  2  0
  5  7  1  0
  7  8  1  0
  8  9  1  0
  9 10  1  0
  9 11  1  0
 11 12  1  0
 12 13  1  0
 13 14  1  0
 14 15  1  0
 15 16  1  0
 16 17  1  0
 17 18  1  0
 18 19  1  0
 19 20  1  0
  2 21  1  0
 21 22  2  0
 22 23  1  0
 23 24  2  0
 24 25  1  0
 25 26  2  0
 26 27  1  0
 26 28  1  0
 28 29  2  0
 29 30  1  0
 30 31  2  0
 12  7  1  0
 20 15  1  0
 31 21  1  0
 30 24  1  0
  3 32  1  0
  4 33  1  0
  4 34  1  0
  8 35  1  0
  8 36  1  0
  9 37  1  1
 10 38  1  0
 11 39  1  0
 11 40  1  0
 12 41  1  6
 13 42  1  0
 13 43  1  0
 15 44  1  0
 16 45  1  0
 16 46  1  0
 17 47  1  0
 17 48  1  0
 18 49  1  0
 18 50  1  0
 19 51  1  0
 19 52  1  0
 20 53  1  0
 20 54  1  0
 22 55  1  0
 23 56  1  0
 25 57  1  0
 28 58  1  0
 29 59  1  0
M  END
>  <smiles>  (50) 
O=C(NCC(=O)N1C[C@H](O)C[C@H]1COC1CCCCC1)c1ccc2cc(F)ccc2n1

>  <score_type>  (50) 
oracle

>  <origin>  (50) 
autodockgpu

>  <m_score__min__energy>  (50) 
-8.2599999999999998

>  <m_primary>  (50) 
energy

>  <rmsd>  (50) 
2.7436323563177742

>  <m_score__min__rmsd>  (50) 
2.7436323563177742

>  <meeko>  (50) 
{"free_energy": -7.96, "intermolecular_energy": -10.35, "internal_energy": -2.43, "cluster_size": 43, "cluster_id": 1, "rank_in_cluster": 7}

>  <energy>  (50) 
-6.81

>  <cluster_rmsd>  (50) 
0.92

>  <cluster>  (50) 
4

$$$$
