
     RDKit          3D

 47 50  0  0  0  0  0  0  0  0999 V2000
  139.4820   71.0090  221.2230 O   0  0  0  0  0  0  0  0  0  0  0  0
  139.6230   71.5790  222.3360 C   0  0  0  0  0  0  0  0  0  0  0  0
  139.7240   73.0140  222.4480 N   0  0  0  0  0  0  0  0  0  0  0  0
  139.6600   73.8180  221.2110 C   0  0  0  0  0  0  0  0  0  0  0  0
  140.0950   75.1880  221.4550 C   0  0  0  0  0  0  0  0  0  0  0  0
  139.9720   75.6220  222.6600 O   0  0  0  0  0  0  0  0  0  0  0  0
  140.6350   76.1060  220.5350 N   0  0  0  0  0  0  0  0  0  0  0  0
  140.7700   75.6950  219.0960 C   0  0  0  0  0  0  0  0  0  0  0  0
  142.1520   76.2680  218.7880 C   0  0  0  0  0  0  0  0  0  0  0  0
  142.5500   77.1390  219.9610 C   0  0  0  0  0  0  0  0  0  0  0  0
  141.1550   77.4060  220.5540 C   0  0  2  0  0  0  0  0  0  0  0  0
  141.1420   78.3010  221.6510 C   0  0  0  0  0  0  0  0  0  0  0  0
  142.2000   79.0180  222.1180 C   0  0  0  0  0  0  0  0  0  0  0  0
  142.1380   79.8910  223.1940 C   0  0  0  0  0  0  0  0  0  0  0  0
  140.9230   80.0490  223.8390 C   0  0  0  0  0  0  0  0  0  0  0  0
  139.8600   79.3430  223.3880 N   0  0  0  0  0  0  0  0  0  0  0  0
  139.9270   78.5030  222.3490 C   0  0  0  0  0  0  0  0  0  0  0  0
  139.6880   70.8090  223.5720 C   0  0  0  0  0  0  0  0  0  0  0  0
  139.1800   69.5280  223.5920 C   0  0  0  0  0  0  0  0  0  0  0  0
  139.2050   68.7350  224.7240 C   0  0  0  0  0  0  0  0  0  0  0  0
  139.7680   69.2800  225.8570 C   0  0  0  0  0  0  0  0  0  0  0  0
  139.8010   68.4980  226.9990 C   0  0  0  0  0  0  0  0  0  0  0  0
  140.3610   69.0230  228.1430 C   0  0  0  0  0  0  0  0  0  0  0  0
  140.4190   68.3020  229.2850 F   0  0  0  0  0  0  0  0  0  0  0  0
  140.8810   70.3160  228.1430 C   0  0  0  0  0  0  0  0  0  0  0  0
  140.8330   71.0770  226.9800 C   0  0  0  0  0  0  0  0  0  0  0  0
  140.2740   70.5610  225.8260 C   0  0  0  0  0  0  0  0  0  0  0  0
  140.2300   71.3010  224.7020 N   0  0  0  0  0  0  0  0  0  0  0  0
  139.8410   73.4440  223.3870 H   0  0  0  0  0  0  0  0  0  0  0  0
  140.3134   73.3629  220.4520 H   0  0  0  0  0  0  0  0  0  0  0  0
  138.6177   73.8386  220.8600 H   0  0  0  0  0  0  0  0  0  0  0  0
  140.7457   74.6015  218.9793 H   0  0  0  0  0  0  0  0  0  0  0  0
  139.9638   76.0463  218.4351 H   0  0  0  0  0  0  0  0  0  0  0  0
  142.8784   75.4516  218.6618 H   0  0  0  0  0  0  0  0  0  0  0  0
  142.1321   76.8537  217.8571 H   0  0  0  0  0  0  0  0  0  0  0  0
  143.2023   76.6049  220.6676 H   0  0  0  0  0  0  0  0  0  0  0  0
  143.1327   78.0362  219.7052 H   0  0  0  0  0  0  0  0  0  0  0  0
  140.4311   78.0527  220.0364 H   0  0  0  0  0  0  0  0  0  0  0  0
  143.1676   78.8974  221.6089 H   0  0  0  0  0  0  0  0  0  0  0  0
  143.0298   80.4428  223.5259 H   0  0  0  0  0  0  0  0  0  0  0  0
  140.8242   80.7311  224.6963 H   0  0  0  0  0  0  0  0  0  0  0  0
  139.0239   77.9608  222.0321 H   0  0  0  0  0  0  0  0  0  0  0  0
  138.7373   69.1206  222.6711 H   0  0  0  0  0  0  0  0  0  0  0  0
  138.7939   67.7147  224.7202 H   0  0  0  0  0  0  0  0  0  0  0  0
  139.3885   67.4783  226.9930 H   0  0  0  0  0  0  0  0  0  0  0  0
  141.3271   70.7325  229.0582 H   0  0  0  0  0  0  0  0  0  0  0  0
  141.2431   72.0977  226.9785 H   0  0  0  0  0  0  0  0  0  0  0  0
  1  2  2  0
  2  3  1  0
  3  4  1  0
  4  5  1  0
  5  6  2  0
  5  7  1  0
  7  8  1  0
  8  9  1  0
  9 10  1  0
 10 11  1  0
 11 12  1  0
 12 13  2  0
 13 14  1  0
 14 15  2  0
 15 16  1  0
 16 17  2  0
  2 18  1  0
 18 19  2  0
 19 20  1  0
 20 21  2  0
 21 22  1  0
 22 23  2  0
 23 24  1  0
 23 25  1  0
 25 26  2  0
 26 27  1  0
 27 28  2  0
 11  7  1  0
 17 12  1  0
 28 18  1  0
 27 21  1  0
  3 29  1  0
  4 30  1  0
  4 31  1  0
  8 32  1  0
  8 33  1  0
  9 34  1  0
  9 35  1  0
 10 36  1  0
 10 37  1  0
 11 38  1  6
 13 39  1  0
 14 40  1  0
 15 41  1  0
 17 42  1  0
 19 43  1  0
 20 44  1  0
 22 45  1  0
 25 46  1  0
 26 47  1  0
M  END
>  <smiles>  (1) 
O=C(NCC(=O)N1CCCC1c1cccnc1)c1ccc2cc(F)ccc2n1

>  <score_type>  (1) 
oracle

>  <origin>  (1) 
autodockgpu

>  <m_score__min__energy>  (1) 
-8.7200000000000006

>  <m_primary>  (1) 
energy

>  <rmsd>  (1) 
1.4918857577069105

>  <m_score__min__rmsd>  (1) 
1.4918857577069105

>  <meeko>  (1) 
{"free_energy": -8.02, "intermolecular_energy": -9.51, "internal_energy": -1.76, "cluster_size": 25, "cluster_id": 2, "rank_in_cluster": 22}

>  <energy>  (1) 
-8.72

>  <cluster_rmsd>  (1) 
0.0

>  <cluster>  (1) 
1

$$$$

     RDKit          3D

 47 50  0  0  0  0  0  0  0  0999 V2000
  141.2700   71.8380  221.2910 O   0  0  0  0  0  0  0  0  0  0  0  0
  140.5250   72.2790  222.2040 C   0  0  0  0  0  0  0  0  0  0  0  0
  139.8930   73.5730  222.1090 N   0  0  0  0  0  0  0  0  0  0  0  0
  140.1390   74.3850  220.9000 C   0  0  0  0  0  0  0  0  0  0  0  0
  140.9630   75.5480  221.2110 C   0  0  0  0  0  0  0  0  0  0  0  0
  140.7890   76.0780  222.3710 O   0  0  0  0  0  0  0  0  0  0  0  0
  141.9290   76.1700  220.4010 N   0  0  0  0  0  0  0  0  0  0  0  0
  141.7360   77.6100  220.0190 C   0  0  0  0  0  0  0  0  0  0  0  0
  142.1500   77.5520  218.5500 C   0  0  0  0  0  0  0  0  0  0  0  0
  142.7610   76.1860  218.3100 C   0  0  0  0  0  0  0  0  0  0  0  0
  143.1240   75.8190  219.7600 C   0  0  2  0  0  0  0  0  0  0  0  0
  143.8270   74.6000  219.9000 C   0  0  0  0  0  0  0  0  0  0  0  0
  145.0400   74.4310  220.4960 C   0  0  0  0  0  0  0  0  0  0  0  0
  145.6880   73.2120  220.6180 C   0  0  0  0  0  0  0  0  0  0  0  0
  145.0670   72.0870  220.1020 C   0  0  0  0  0  0  0  0  0  0  0  0
  143.8610   72.2350  219.5060 N   0  0  0  0  0  0  0  0  0  0  0  0
  143.2410   73.4150  219.3920 C   0  0  0  0  0  0  0  0  0  0  0  0
  140.2650   71.4970  223.4050 C   0  0  0  0  0  0  0  0  0  0  0  0
  139.5580   70.3190  223.2990 C   0  0  0  0  0  0  0  0  0  0  0  0
  139.2710   69.5220  224.3920 C   0  0  0  0  0  0  0  0  0  0  0  0
  139.7260   69.9540  225.6180 C   0  0  0  0  0  0  0  0  0  0  0  0
  139.4470   69.1670  226.7220 C   0  0  0  0  0  0  0  0  0  0  0  0
  139.8930   69.5800  227.9580 C   0  0  0  0  0  0  0  0  0  0  0  0
  139.6490   68.8490  229.0680 F   0  0  0  0  0  0  0  0  0  0  0  0
  140.6100   70.7680  228.0870 C   0  0  0  0  0  0  0  0  0  0  0  0
  140.8750   71.5380  226.9590 C   0  0  0  0  0  0  0  0  0  0  0  0
  140.4320   71.1340  225.7130 C   0  0  0  0  0  0  0  0  0  0  0  0
  140.6900   71.8810  224.6240 N   0  0  0  0  0  0  0  0  0  0  0  0
  139.2850   73.9000  222.8860 H   0  0  0  0  0  0  0  0  0  0  0  0
  140.6562   73.7675  220.1509 H   0  0  0  0  0  0  0  0  0  0  0  0
  139.1719   74.7346  220.5095 H   0  0  0  0  0  0  0  0  0  0  0  0
  140.6891   77.9267  220.1360 H   0  0  0  0  0  0  0  0  0  0  0  0
  142.2979   78.3311  220.6308 H   0  0  0  0  0  0  0  0  0  0  0  0
  141.2699   77.6898  217.9047 H   0  0  0  0  0  0  0  0  0  0  0  0
  142.8712   78.3489  218.3159 H   0  0  0  0  0  0  0  0  0  0  0  0
  142.0360   75.4814  217.8765 H   0  0  0  0  0  0  0  0  0  0  0  0
  143.5970   76.1634  217.5955 H   0  0  0  0  0  0  0  0  0  0  0  0
  143.9391   76.3327  220.2909 H   0  0  0  0  0  0  0  0  0  0  0  0
  145.5383   75.3210  220.9078 H   0  0  0  0  0  0  0  0  0  0  0  0
  146.6686   73.1401  221.1111 H   0  0  0  0  0  0  0  0  0  0  0  0
  145.5421   71.0976  220.1747 H   0  0  0  0  0  0  0  0  0  0  0  0
  142.2606   73.4656  218.8958 H   0  0  0  0  0  0  0  0  0  0  0  0
  139.2082   70.0001  222.3060 H   0  0  0  0  0  0  0  0  0  0  0  0
  138.7046   68.5849  224.2869 H   0  0  0  0  0  0  0  0  0  0  0  0
  138.8804   68.2303  226.6144 H   0  0  0  0  0  0  0  0  0  0  0  0
  140.9646   71.0952  229.0755 H   0  0  0  0  0  0  0  0  0  0  0  0
  141.4414   72.4756  227.0591 H   0  0  0  0  0  0  0  0  0  0  0  0
  1  2  2  0
  2  3  1  0
  3  4  1  0
  4  5  1  0
  5  6  2  0
  5  7  1  0
  7  8  1  0
  8  9  1  0
  9 10  1  0
 10 11  1  0
 11 12  1  0
 12 13  2  0
 13 14  1  0
 14 15  2  0
 15 16  1  0
 16 17  2  0
  2 18  1  0
 18 19  2  0
 19 20  1  0
 20 21  2  0
 21 22  1  0
 22 23  2  0
 23 24  1  0
 23 25  1  0
 25 26  2  0
 26 27  1  0
 27 28  2  0
 11  7  1  0
 17 12  1  0
 28 18  1  0
 27 21  1  0
  3 29  1  0
  4 30  1  0
  4 31  1  0
  8 32  1  0
  8 33  1  0
  9 34  1  0
  9 35  1  0
 10 36  1  0
 10 37  1  0
 11 38  1  1
 13 39  1  0
 14 40  1  0
 15 41  1  0
 17 42  1  0
 19 43  1  0
 20 44  1  0
 22 45  1  0
 25 46  1  0
 26 47  1  0
M  END
>  <smiles>  (2) 
O=C(NCC(=O)N1CCCC1c1cccnc1)c1ccc2cc(F)ccc2n1

>  <score_type>  (2) 
oracle

>  <origin>  (2) 
autodockgpu

>  <m_score__min__energy>  (2) 
-8.7200000000000006

>  <m_primary>  (2) 
energy

>  <rmsd>  (2) 
2.2112165395522085

>  <m_score__min__rmsd>  (2) 
2.2112165395522085

>  <meeko>  (2) 
{"free_energy": -8.29, "intermolecular_energy": -9.78, "internal_energy": -1.56, "cluster_size": 12, "cluster_id": 1, "rank_in_cluster": 3}

>  <energy>  (2) 
-8.29

>  <cluster_rmsd>  (2) 
1.22

>  <cluster>  (2) 
1

$$$$

     RDKit          3D

 47 50  0  0  0  0  0  0  0  0999 V2000
  140.9270   71.7190  221.1910 O   0  0  0  0  0  0  0  0  0  0  0  0
  140.4100   72.2400  222.2130 C   0  0  0  0  0  0  0  0  0  0  0  0
  139.9830   73.6180  222.2300 N   0  0  0  0  0  0  0  0  0  0  0  0
  140.1660   74.4230  221.0060 C   0  0  0  0  0  0  0  0  0  0  0  0
  140.1280   75.8490  221.3070 C   0  0  0  0  0  0  0  0  0  0  0  0
  139.7730   76.1720  222.5010 O   0  0  0  0  0  0  0  0  0  0  0  0
  140.4280   76.9260  220.4530 N   0  0  0  0  0  0  0  0  0  0  0  0
  140.0390   76.8320  219.0050 C   0  0  0  0  0  0  0  0  0  0  0  0
  141.2950   77.4130  218.3570 C   0  0  0  0  0  0  0  0  0  0  0  0
  142.1450   77.9960  219.4680 C   0  0  0  0  0  0  0  0  0  0  0  0
  141.0580   78.1730  220.5430 C   0  0  2  0  0  0  0  0  0  0  0  0
  141.4990   78.8090  221.7280 C   0  0  0  0  0  0  0  0  0  0  0  0
  141.3750   78.3280  222.9960 C   0  0  0  0  0  0  0  0  0  0  0  0
  141.8320   78.9840  224.1280 C   0  0  0  0  0  0  0  0  0  0  0  0
  142.4570   80.2100  223.9670 C   0  0  0  0  0  0  0  0  0  0  0  0
  142.5900   80.7030  222.7140 N   0  0  0  0  0  0  0  0  0  0  0  0
  142.1470   80.0640  221.6250 C   0  0  0  0  0  0  0  0  0  0  0  0
  140.2180   71.4680  223.4340 C   0  0  0  0  0  0  0  0  0  0  0  0
  139.5570   70.2600  223.3670 C   0  0  0  0  0  0  0  0  0  0  0  0
  139.3360   69.4700  224.4800 C   0  0  0  0  0  0  0  0  0  0  0  0
  139.8080   69.9400  225.6850 C   0  0  0  0  0  0  0  0  0  0  0  0
  139.5940   69.1610  226.8090 C   0  0  0  0  0  0  0  0  0  0  0  0
  140.0590   69.6120  228.0240 C   0  0  0  0  0  0  0  0  0  0  0  0
  139.8770   68.8900  229.1520 F   0  0  0  0  0  0  0  0  0  0  0  0
  140.7290   70.8300  228.1130 C   0  0  0  0  0  0  0  0  0  0  0  0
  140.9290   71.5920  226.9670 C   0  0  0  0  0  0  0  0  0  0  0  0
  140.4670   71.1490  225.7410 C   0  0  0  0  0  0  0  0  0  0  0  0
  140.6620   71.8890  224.6330 N   0  0  0  0  0  0  0  0  0  0  0  0
  139.5610   74.0090  223.0970 H   0  0  0  0  0  0  0  0  0  0  0  0
  141.1388   74.1764  220.5555 H   0  0  0  0  0  0  0  0  0  0  0  0
  139.3478   74.1905  220.3085 H   0  0  0  0  0  0  0  0  0  0  0  0
  139.8639   75.7910  218.6957 H   0  0  0  0  0  0  0  0  0  0  0  0
  139.1017   77.3441  218.7420 H   0  0  0  0  0  0  0  0  0  0  0  0
  141.8503   76.6203  217.8343 H   0  0  0  0  0  0  0  0  0  0  0  0
  141.0318   78.1865  217.6205 H   0  0  0  0  0  0  0  0  0  0  0  0
  142.9337   77.3006  219.7909 H   0  0  0  0  0  0  0  0  0  0  0  0
  142.7014   78.9081  219.2062 H   0  0  0  0  0  0  0  0  0  0  0  0
  140.2757   78.9394  220.4404 H   0  0  0  0  0  0  0  0  0  0  0  0
  140.8797   77.3551  223.1305 H   0  0  0  0  0  0  0  0  0  0  0  0
  141.7020   78.5432  225.1274 H   0  0  0  0  0  0  0  0  0  0  0  0
  142.8355   80.7684  224.8358 H   0  0  0  0  0  0  0  0  0  0  0  0
  142.2884   80.5206  220.6343 H   0  0  0  0  0  0  0  0  0  0  0  0
  139.1912   69.9111  222.3900 H   0  0  0  0  0  0  0  0  0  0  0  0
  138.8066   68.5086  224.4060 H   0  0  0  0  0  0  0  0  0  0  0  0
  139.0630   68.2007  226.7331 H   0  0  0  0  0  0  0  0  0  0  0  0
  141.0983   71.1876  229.0855 H   0  0  0  0  0  0  0  0  0  0  0  0
  141.4583   72.5538  227.0361 H   0  0  0  0  0  0  0  0  0  0  0  0
  1  2  2  0
  2  3  1  0
  3  4  1  0
  4  5  1  0
  5  6  2  0
  5  7  1  0
  7  8  1  0
  8  9  1  0
  9 10  1  0
 10 11  1  0
 11 12  1  0
 12 13  2  0
 13 14  1  0
 14 15  2  0
 15 16  1  0
 16 17  2  0
  2 18  1  0
 18 19  2  0
 19 20  1  0
 20 21  2  0
 21 22  1  0
 22 23  2  0
 23 24  1  0
 23 25  1  0
 25 26  2  0
 26 27  1  0
 27 28  2  0
 11  7  1  0
 17 12  1  0
 28 18  1  0
 27 21  1  0
  3 29  1  0
  4 30  1  0
  4 31  1  0
  8 32  1  0
  8 33  1  0
  9 34  1  0
  9 35  1  0
 10 36  1  0
 10 37  1  0
 11 38  1  6
 13 39  1  0
 14 40  1  0
 15 41  1  0
 17 42  1  0
 19 43  1  0
 20 44  1  0
 22 45  1  0
 25 46  1  0
 26 47  1  0
M  END
>  <smiles>  (3) 
O=C(NCC(=O)N1CCCC1c1cccnc1)c1ccc2cc(F)ccc2n1

>  <score_type>  (3) 
oracle

>  <origin>  (3) 
autodockgpu

>  <m_score__min__energy>  (3) 
-8.7200000000000006

>  <m_primary>  (3) 
energy

>  <rmsd>  (3) 
1.721147060060186

>  <m_score__min__rmsd>  (3) 
1.721147060060186

>  <meeko>  (3) 
{"free_energy": -8.44, "intermolecular_energy": -9.93, "internal_energy": -1.56, "cluster_size": 25, "cluster_id": 2, "rank_in_cluster": 7}

>  <energy>  (3) 
-8.29

>  <cluster_rmsd>  (3) 
1.23

>  <cluster>  (3) 
1

$$$$

     RDKit          3D

 47 50  0  0  0  0  0  0  0  0999 V2000
  138.9360   70.7730  221.6050 O   0  0  0  0  0  0  0  0  0  0  0  0
  139.3710   71.2970  222.6630 C   0  0  0  0  0  0  0  0  0  0  0  0
  139.6990   72.7000  222.7370 N   0  0  0  0  0  0  0  0  0  0  0  0
  139.5140   73.5270  221.5280 C   0  0  0  0  0  0  0  0  0  0  0  0
  140.7220   73.5370  220.7110 C   0  0  0  0  0  0  0  0  0  0  0  0
  141.4730   74.5770  220.8140 O   0  0  0  0  0  0  0  0  0  0  0  0
  141.1750   72.5500  219.8170 N   0  0  0  0  0  0  0  0  0  0  0  0
  140.1620   71.7370  219.0620 C   0  0  0  0  0  0  0  0  0  0  0  0
  140.8000   70.3530  219.1730 C   0  0  0  0  0  0  0  0  0  0  0  0
  142.1920   70.5440  219.7400 C   0  0  0  0  0  0  0  0  0  0  0  0
  142.4010   72.0280  219.3870 C   0  0  2  0  0  0  0  0  0  0  0  0
  143.6860   72.5320  219.6990 C   0  0  0  0  0  0  0  0  0  0  0  0
  144.0600   73.1170  220.8700 C   0  0  0  0  0  0  0  0  0  0  0  0
  145.3370   73.5900  221.1330 C   0  0  0  0  0  0  0  0  0  0  0  0
  146.2990   73.4620  220.1460 C   0  0  0  0  0  0  0  0  0  0  0  0
  145.9450   72.8820  218.9750 N   0  0  0  0  0  0  0  0  0  0  0  0
  144.7110   72.4270  218.7280 C   0  0  0  0  0  0  0  0  0  0  0  0
  139.5620   70.5040  223.8710 C   0  0  0  0  0  0  0  0  0  0  0  0
  139.1350   69.1930  223.8880 C   0  0  0  0  0  0  0  0  0  0  0  0
  139.2810   68.3770  224.9940 C   0  0  0  0  0  0  0  0  0  0  0  0
  139.8810   68.9300  226.1040 C   0  0  0  0  0  0  0  0  0  0  0  0
  140.0350   68.1260  227.2210 C   0  0  0  0  0  0  0  0  0  0  0  0
  140.6320   68.6570  228.3410 C   0  0  0  0  0  0  0  0  0  0  0  0
  140.8080   67.9160  229.4570 F   0  0  0  0  0  0  0  0  0  0  0  0
  141.0720   69.9800  228.3440 C   0  0  0  0  0  0  0  0  0  0  0  0
  140.9030   70.7640  227.2080 C   0  0  0  0  0  0  0  0  0  0  0  0
  140.3040   70.2410  226.0760 C   0  0  0  0  0  0  0  0  0  0  0  0
  140.1430   71.0020  224.9790 N   0  0  0  0  0  0  0  0  0  0  0  0
  140.0550   73.0920  223.6320 H   0  0  0  0  0  0  0  0  0  0  0  0
  138.6827   73.1171  220.9357 H   0  0  0  0  0  0  0  0  0  0  0  0
  139.2936   74.5586  221.8398 H   0  0  0  0  0  0  0  0  0  0  0  0
  139.1723   71.7703  219.5409 H   0  0  0  0  0  0  0  0  0  0  0  0
  139.9667   72.0770  218.0343 H   0  0  0  0  0  0  0  0  0  0  0  0
  140.2042   69.7163  219.8436 H   0  0  0  0  0  0  0  0  0  0  0  0
  140.8436   69.8637  218.1888 H   0  0  0  0  0  0  0  0  0  0  0  0
  142.2212   70.3713  220.8260 H   0  0  0  0  0  0  0  0  0  0  0  0
  142.9570   69.8555  219.3519 H   0  0  0  0  0  0  0  0  0  0  0  0
  142.5432   72.3513  218.3452 H   0  0  0  0  0  0  0  0  0  0  0  0
  143.3002   73.2213  221.6586 H   0  0  0  0  0  0  0  0  0  0  0  0
  145.5789   74.0545  222.1003 H   0  0  0  0  0  0  0  0  0  0  0  0
  147.3254   73.8225  220.3090 H   0  0  0  0  0  0  0  0  0  0  0  0
  144.4895   71.9641  217.7551 H   0  0  0  0  0  0  0  0  0  0  0  0
  138.6595   68.7804  222.9860 H   0  0  0  0  0  0  0  0  0  0  0  0
  138.9338   67.3332  224.9882 H   0  0  0  0  0  0  0  0  0  0  0  0
  139.6866   67.0827  227.2129 H   0  0  0  0  0  0  0  0  0  0  0  0
  141.5504   70.4015  229.2404 H   0  0  0  0  0  0  0  0  0  0  0  0
  141.2484   71.8084  227.2095 H   0  0  0  0  0  0  0  0  0  0  0  0
  1  2  2  0
  2  3  1  0
  3  4  1  0
  4  5  1  0
  5  6  2  0
  5  7  1  0
  7  8  1  0
  8  9  1  0
  9 10  1  0
 10 11  1  0
 11 12  1  0
 12 13  2  0
 13 14  1  0
 14 15  2  0
 15 16  1  0
 16 17  2  0
  2 18  1  0
 18 19  2  0
 19 20  1  0
 20 21  2  0
 21 22  1  0
 22 23  2  0
 23 24  1  0
 23 25  1  0
 25 26  2  0
 26 27  1  0
 27 28  2  0
 11  7  1  0
 17 12  1  0
 28 18  1  0
 27 21  1  0
  3 29  1  0
  4 30  1  0
  4 31  1  0
  8 32  1  0
  8 33  1  0
  9 34  1  0
  9 35  1  0
 10 36  1  0
 10 37  1  0
 11 38  1  6
 13 39  1  0
 14 40  1  0
 15 41  1  0
 17 42  1  0
 19 43  1  0
 20 44  1  0
 22 45  1  0
 25 46  1  0
 26 47  1  0
M  END
>  <smiles>  (4) 
O=C(NCC(=O)N1CCCC1c1cccnc1)c1ccc2cc(F)ccc2n1

>  <score_type>  (4) 
oracle

>  <origin>  (4) 
autodockgpu

>  <m_score__min__energy>  (4) 
-8.7200000000000006

>  <m_primary>  (4) 
energy

>  <rmsd>  (4) 
3.2929233492300667

>  <m_score__min__rmsd>  (4) 
3.2929233492300667

>  <meeko>  (4) 
{"free_energy": -7.47, "intermolecular_energy": -8.96, "internal_energy": -1.76, "cluster_size": 12, "cluster_id": 1, "rank_in_cluster": 12}

>  <energy>  (4) 
-8.25

>  <cluster_rmsd>  (4) 
1.18

>  <cluster>  (4) 
1

$$$$

     RDKit          3D

 47 50  0  0  0  0  0  0  0  0999 V2000
  139.4860   71.3950  221.0630 O   0  0  0  0  0  0  0  0  0  0  0  0
  139.5750   71.9390  222.1930 C   0  0  0  0  0  0  0  0  0  0  0  0
  139.6140   73.3740  222.3440 N   0  0  0  0  0  0  0  0  0  0  0  0
  139.5500   74.2080  221.1270 C   0  0  0  0  0  0  0  0  0  0  0  0
  140.3810   75.3980  221.2640 C   0  0  0  0  0  0  0  0  0  0  0  0
  141.0720   75.4920  222.3460 O   0  0  0  0  0  0  0  0  0  0  0  0
  140.5250   76.4660  220.3600 N   0  0  0  0  0  0  0  0  0  0  0  0
  140.1390   76.2570  218.9240 C   0  0  0  0  0  0  0  0  0  0  0  0
  141.2990   76.9720  218.2330 C   0  0  0  0  0  0  0  0  0  0  0  0
  142.0720   77.7120  219.3040 C   0  0  0  0  0  0  0  0  0  0  0  0
  140.9810   77.7900  220.3870 C   0  0  2  0  0  0  0  0  0  0  0  0
  141.3440   78.5310  221.5370 C   0  0  0  0  0  0  0  0  0  0  0  0
  141.0160   78.2350  222.8240 C   0  0  0  0  0  0  0  0  0  0  0  0
  141.4020   78.9890  223.9220 C   0  0  0  0  0  0  0  0  0  0  0  0
  142.1720   80.1190  223.7020 C   0  0  0  0  0  0  0  0  0  0  0  0
  142.5080   80.4280  222.4280 N   0  0  0  0  0  0  0  0  0  0  0  0
  142.1320   79.6960  221.3730 C   0  0  0  0  0  0  0  0  0  0  0  0
  139.6390   71.1400  223.4100 C   0  0  0  0  0  0  0  0  0  0  0  0
  139.1800   69.8400  223.3840 C   0  0  0  0  0  0  0  0  0  0  0  0
  139.2080   69.0190  224.4960 C   0  0  0  0  0  0  0  0  0  0  0  0
  139.7220   69.5540  225.6560 C   0  0  0  0  0  0  0  0  0  0  0  0
  139.7570   68.7440  226.7790 C   0  0  0  0  0  0  0  0  0  0  0  0
  140.2670   69.2590  227.9490 C   0  0  0  0  0  0  0  0  0  0  0  0
  140.3250   68.5110  229.0730 F   0  0  0  0  0  0  0  0  0  0  0  0
  140.7380   70.5700  227.9960 C   0  0  0  0  0  0  0  0  0  0  0  0
  140.6890   71.3600  226.8520 C   0  0  0  0  0  0  0  0  0  0  0  0
  140.1790   70.8540  225.6700 C   0  0  0  0  0  0  0  0  0  0  0  0
  140.1340   71.6210  224.5660 N   0  0  0  0  0  0  0  0  0  0  0  0
  139.6880   73.7830  223.2970 H   0  0  0  0  0  0  0  0  0  0  0  0
  139.9044   73.6189  220.2683 H   0  0  0  0  0  0  0  0  0  0  0  0
  138.5077   74.5245  220.9738 H   0  0  0  0  0  0  0  0  0  0  0  0
  140.1028   75.1893  218.6619 H   0  0  0  0  0  0  0  0  0  0  0  0
  139.1389   76.6267  218.6537 H   0  0  0  0  0  0  0  0  0  0  0  0
  141.9513   76.2386  217.7364 H   0  0  0  0  0  0  0  0  0  0  0  0
  140.9271   77.6696  217.4681 H   0  0  0  0  0  0  0  0  0  0  0  0
  142.9500   77.1436  219.6447 H   0  0  0  0  0  0  0  0  0  0  0  0
  142.4980   78.6778  218.9946 H   0  0  0  0  0  0  0  0  0  0  0  0
  140.1018   78.4394  220.2638 H   0  0  0  0  0  0  0  0  0  0  0  0
  140.4045   77.3388  223.0054 H   0  0  0  0  0  0  0  0  0  0  0  0
  141.1047   78.6975  224.9401 H   0  0  0  0  0  0  0  0  0  0  0  0
  142.5019   80.7491  224.5411 H   0  0  0  0  0  0  0  0  0  0  0  0
  142.4397   80.0039  220.3628 H   0  0  0  0  0  0  0  0  0  0  0  0
  138.7759   69.4407  222.4420 H   0  0  0  0  0  0  0  0  0  0  0  0
  138.8362   67.9845  224.4559 H   0  0  0  0  0  0  0  0  0  0  0  0
  139.3846   67.7098  226.7366 H   0  0  0  0  0  0  0  0  0  0  0  0
  141.1462   70.9777  228.9325 H   0  0  0  0  0  0  0  0  0  0  0  0
  141.0588   72.3954  226.8877 H   0  0  0  0  0  0  0  0  0  0  0  0
  1  2  2  0
  2  3  1  0
  3  4  1  0
  4  5  1  0
  5  6  2  0
  5  7  1  0
  7  8  1  0
  8  9  1  0
  9 10  1  0
 10 11  1  0
 11 12  1  0
 12 13  2  0
 13 14  1  0
 14 15  2  0
 15 16  1  0
 16 17  2  0
  2 18  1  0
 18 19  2  0
 19 20  1  0
 20 21  2  0
 21 22  1  0
 22 23  2  0
 23 24  1  0
 23 25  1  0
 25 26  2  0
 26 27  1  0
 27 28  2  0
 11  7  1  0
 17 12  1  0
 28 18  1  0
 27 21  1  0
  3 29  1  0
  4 30  1  0
  4 31  1  0
  8 32  1  0
  8 33  1  0
  9 34  1  0
  9 35  1  0
 10 36  1  0
 10 37  1  0
 11 38  1  6
 13 39  1  0
 14 40  1  0
 15 41  1  0
 17 42  1  0
 19 43  1  0
 20 44  1  0
 22 45  1  0
 25 46  1  0
 26 47  1  0
M  END
>  <smiles>  (5) 
O=C(NCC(=O)N1CCCC1c1cccnc1)c1ccc2cc(F)ccc2n1

>  <score_type>  (5) 
oracle

>  <origin>  (5) 
autodockgpu

>  <m_score__min__energy>  (5) 
-8.7200000000000006

>  <m_primary>  (5) 
energy

>  <rmsd>  (5) 
1.3070053966506174

>  <m_score__min__rmsd>  (5) 
1.3070053966506174

>  <meeko>  (5) 
{"free_energy": -8.1, "intermolecular_energy": -9.59, "internal_energy": -1.6, "cluster_size": 25, "cluster_id": 2, "rank_in_cluster": 15}

>  <energy>  (5) 
-8.24

>  <cluster_rmsd>  (5) 
1.22

>  <cluster>  (5) 
1

$$$$

     RDKit          3D

 47 50  0  0  0  0  0  0  0  0999 V2000
  137.2900   75.5950  222.0780 O   0  0  0  0  0  0  0  0  0  0  0  0
  138.5160   75.7710  222.2990 C   0  0  0  0  0  0  0  0  0  0  0  0
  139.4560   74.6770  222.2820 N   0  0  0  0  0  0  0  0  0  0  0  0
  138.9450   73.3200  221.9980 C   0  0  0  0  0  0  0  0  0  0  0  0
  139.8420   72.3020  222.5300 C   0  0  0  0  0  0  0  0  0  0  0  0
  141.0720   72.6480  222.6900 O   0  0  0  0  0  0  0  0  0  0  0  0
  139.5370   70.9770  222.8930 N   0  0  0  0  0  0  0  0  0  0  0  0
  139.0630   70.0270  221.8310 C   0  0  0  0  0  0  0  0  0  0  0  0
  137.9430   69.3190  222.5910 C   0  0  0  0  0  0  0  0  0  0  0  0
  138.0480   69.7420  224.0420 C   0  0  0  0  0  0  0  0  0  0  0  0
  139.5170   70.2020  224.0590 C   0  0  2  0  0  0  0  0  0  0  0  0
  139.9990   70.5860  225.3330 C   0  0  0  0  0  0  0  0  0  0  0  0
  140.8150   71.6420  225.6020 C   0  0  0  0  0  0  0  0  0  0  0  0
  141.2560   71.9850  226.8710 C   0  0  0  0  0  0  0  0  0  0  0  0
  140.8430   71.2080  227.9390 C   0  0  0  0  0  0  0  0  0  0  0  0
  140.0310   70.1540  227.6910 N   0  0  0  0  0  0  0  0  0  0  0  0
  139.6090   69.8280  226.4640 C   0  0  0  0  0  0  0  0  0  0  0  0
  139.0450   77.0990  222.5820 C   0  0  0  0  0  0  0  0  0  0  0  0
  138.1700   78.1550  222.7210 C   0  0  0  0  0  0  0  0  0  0  0  0
  138.5950   79.4430  222.9900 C   0  0  0  0  0  0  0  0  0  0  0  0
  139.9520   79.6410  223.1170 C   0  0  0  0  0  0  0  0  0  0  0  0
  140.3940   80.9250  223.3860 C   0  0  0  0  0  0  0  0  0  0  0  0
  141.7460   81.1450  223.5170 C   0  0  0  0  0  0  0  0  0  0  0  0
  142.2300   82.3790  223.7810 F   0  0  0  0  0  0  0  0  0  0  0  0
  142.6480   80.0910  223.3800 C   0  0  0  0  0  0  0  0  0  0  0  0
  142.1740   78.8110  223.1090 C   0  0  0  0  0  0  0  0  0  0  0  0
  140.8180   78.5780  222.9760 C   0  0  0  0  0  0  0  0  0  0  0  0
  140.3640   77.3390  222.7140 N   0  0  0  0  0  0  0  0  0  0  0  0
  140.4610   74.8660  222.4710 H   0  0  0  0  0  0  0  0  0  0  0  0
  137.9543   73.2044  222.4618 H   0  0  0  0  0  0  0  0  0  0  0  0
  138.8774   73.1922  220.9075 H   0  0  0  0  0  0  0  0  0  0  0  0
  138.6833   70.5595  220.9466 H   0  0  0  0  0  0  0  0  0  0  0  0
  139.8390   69.3624  221.4233 H   0  0  0  0  0  0  0  0  0  0  0  0
  136.9653   69.6142  222.1824 H   0  0  0  0  0  0  0  0  0  0  0  0
  138.0362   68.2271  222.4952 H   0  0  0  0  0  0  0  0  0  0  0  0
  137.3568   70.5632  224.2823 H   0  0  0  0  0  0  0  0  0  0  0  0
  137.7886   68.9672  224.7784 H   0  0  0  0  0  0  0  0  0  0  0  0
  140.3417   69.4782  223.9814 H   0  0  0  0  0  0  0  0  0  0  0  0
  141.1462   72.2639  224.7573 H   0  0  0  0  0  0  0  0  0  0  0  0
  141.9163   72.8513  227.0246 H   0  0  0  0  0  0  0  0  0  0  0  0
  141.1666   71.4412  228.9641 H   0  0  0  0  0  0  0  0  0  0  0  0
  138.9490   68.9580  226.3316 H   0  0  0  0  0  0  0  0  0  0  0  0
  137.0917   77.9657  222.6137 H   0  0  0  0  0  0  0  0  0  0  0  0
  137.8809   80.2727  223.0978 H   0  0  0  0  0  0  0  0  0  0  0  0
  139.6782   81.7534  223.4930 H   0  0  0  0  0  0  0  0  0  0  0  0
  143.7282   80.2701  223.4855 H   0  0  0  0  0  0  0  0  0  0  0  0
  142.8840   77.9780  222.9997 H   0  0  0  0  0  0  0  0  0  0  0  0
  1  2  2  0
  2  3  1  0
  3  4  1  0
  4  5  1  0
  5  6  2  0
  5  7  1  0
  7  8  1  0
  8  9  1  0
  9 10  1  0
 10 11  1  0
 11 12  1  0
 12 13  2  0
 13 14  1  0
 14 15  2  0
 15 16  1  0
 16 17  2  0
  2 18  1  0
 18 19  2  0
 19 20  1  0
 20 21  2  0
 21 22  1  0
 22 23  2  0
 23 24  1  0
 23 25  1  0
 25 26  2  0
 26 27  1  0
 27 28  2  0
 11  7  1  0
 17 12  1  0
 28 18  1  0
 27 21  1  0
  3 29  1  0
  4 30  1  0
  4 31  1  0
  8 32  1  0
  8 33  1  0
  9 34  1  0
  9 35  1  0
 10 36  1  0
 10 37  1  0
 11 38  1  6
 13 39  1  0
 14 40  1  0
 15 41  1  0
 17 42  1  0
 19 43  1  0
 20 44  1  0
 22 45  1  0
 25 46  1  0
 26 47  1  0
M  END
>  <smiles>  (6) 
O=C(NCC(=O)N1CCCC1c1cccnc1)c1ccc2cc(F)ccc2n1

>  <score_type>  (6) 
oracle

>  <origin>  (6) 
autodockgpu

>  <m_score__min__energy>  (6) 
-8.7200000000000006

>  <m_primary>  (6) 
energy

>  <rmsd>  (6) 
8.567115085911272

>  <m_score__min__rmsd>  (6) 
8.567115085911272

>  <meeko>  (6) 
{"free_energy": -7.75, "intermolecular_energy": -9.24, "internal_energy": -1.84, "cluster_size": 11, "cluster_id": 3, "rank_in_cluster": 10}

>  <energy>  (6) 
-8.24

>  <cluster_rmsd>  (6) 
1.25

>  <cluster>  (6) 
1

$$$$

     RDKit          3D

 47 50  0  0  0  0  0  0  0  0999 V2000
  141.3370   72.1530  221.5490 O   0  0  0  0  0  0  0  0  0  0  0  0
  140.4820   72.4310  222.4290 C   0  0  0  0  0  0  0  0  0  0  0  0
  139.6550   73.6110  222.3380 N   0  0  0  0  0  0  0  0  0  0  0  0
  139.8340   74.5030  221.1740 C   0  0  0  0  0  0  0  0  0  0  0  0
  140.1800   75.8540  221.5990 C   0  0  0  0  0  0  0  0  0  0  0  0
  141.3710   76.2540  221.3190 O   0  0  0  0  0  0  0  0  0  0  0  0
  139.3760   76.7830  222.2830 N   0  0  0  0  0  0  0  0  0  0  0  0
  137.9910   76.3740  222.6990 C   0  0  0  0  0  0  0  0  0  0  0  0
  137.2220   77.6440  222.3420 C   0  0  0  0  0  0  0  0  0  0  0  0
  138.2460   78.7090  222.0040 C   0  0  0  0  0  0  0  0  0  0  0  0
  139.4700   78.1100  222.7200 C   0  0  2  0  0  0  0  0  0  0  0  0
  140.6270   78.9250  222.6900 C   0  0  0  0  0  0  0  0  0  0  0  0
  141.0450   79.6940  221.6470 C   0  0  0  0  0  0  0  0  0  0  0  0
  142.1830   80.4850  221.6670 C   0  0  0  0  0  0  0  0  0  0  0  0
  142.9510   80.4980  222.8200 C   0  0  0  0  0  0  0  0  0  0  0  0
  142.5500   79.7400  223.8670 N   0  0  0  0  0  0  0  0  0  0  0  0
  141.4500   78.9790  223.8410 C   0  0  0  0  0  0  0  0  0  0  0  0
  140.2840   71.5680  223.5860 C   0  0  0  0  0  0  0  0  0  0  0  0
  139.6300   70.3660  223.4230 C   0  0  0  0  0  0  0  0  0  0  0  0
  139.4050   69.4930  224.4710 C   0  0  0  0  0  0  0  0  0  0  0  0
  139.8670   69.8730  225.7120 C   0  0  0  0  0  0  0  0  0  0  0  0
  139.6490   69.0100  226.7720 C   0  0  0  0  0  0  0  0  0  0  0  0
  140.1030   69.3690  228.0210 C   0  0  0  0  0  0  0  0  0  0  0  0
  139.9180   68.5630  229.0900 F   0  0  0  0  0  0  0  0  0  0  0  0
  140.7670   70.5800  228.2070 C   0  0  0  0  0  0  0  0  0  0  0  0
  140.9710   71.4270  227.1230 C   0  0  0  0  0  0  0  0  0  0  0  0
  140.5200   71.0770  225.8630 C   0  0  0  0  0  0  0  0  0  0  0  0
  140.7190   71.8990  224.8170 N   0  0  0  0  0  0  0  0  0  0  0  0
  138.9610   73.8050  223.0870 H   0  0  0  0  0  0  0  0  0  0  0  0
  140.6407   74.1081  220.5389 H   0  0  0  0  0  0  0  0  0  0  0  0
  138.8877   74.5433  220.6147 H   0  0  0  0  0  0  0  0  0  0  0  0
  137.6327   75.5053  222.1272 H   0  0  0  0  0  0  0  0  0  0  0  0
  137.8972   76.0544  223.7474 H   0  0  0  0  0  0  0  0  0  0  0  0
  136.5708   77.4589  221.4750 H   0  0  0  0  0  0  0  0  0  0  0  0
  136.5878   77.9650  223.1815 H   0  0  0  0  0  0  0  0  0  0  0  0
  138.4059   78.7967  220.9192 H   0  0  0  0  0  0  0  0  0  0  0  0
  137.9782   79.7325  222.3054 H   0  0  0  0  0  0  0  0  0  0  0  0
  139.5318   78.0864  223.8180 H   0  0  0  0  0  0  0  0  0  0  0  0
  140.4399   79.6870  220.7284 H   0  0  0  0  0  0  0  0  0  0  0  0
  142.4686   81.0861  220.7912 H   0  0  0  0  0  0  0  0  0  0  0  0
  143.8636   81.1089  222.8829 H   0  0  0  0  0  0  0  0  0  0  0  0
  141.1807   78.3860  224.7275 H   0  0  0  0  0  0  0  0  0  0  0  0
  139.2730   70.0904  222.4197 H   0  0  0  0  0  0  0  0  0  0  0  0
  138.8806   68.5378  224.3207 H   0  0  0  0  0  0  0  0  0  0  0  0
  139.1232   68.0559  226.6193 H   0  0  0  0  0  0  0  0  0  0  0  0
  141.1280   70.8646  229.2063 H   0  0  0  0  0  0  0  0  0  0  0  0
  141.4952   72.3830  227.2687 H   0  0  0  0  0  0  0  0  0  0  0  0
  1  2  2  0
  2  3  1  0
  3  4  1  0
  4  5  1  0
  5  6  2  0
  5  7  1  0
  7  8  1  0
  8  9  1  0
  9 10  1  0
 10 11  1  0
 11 12  1  0
 12 13  2  0
 13 14  1  0
 14 15  2  0
 15 16  1  0
 16 17  2  0
  2 18  1  0
 18 19  2  0
 19 20  1  0
 20 21  2  0
 21 22  1  0
 22 23  2  0
 23 24  1  0
 23 25  1  0
 25 26  2  0
 26 27  1  0
 27 28  2  0
 11  7  1  0
 17 12  1  0
 28 18  1  0
 27 21  1  0
  3 29  1  0
  4 30  1  0
  4 31  1  0
  8 32  1  0
  8 33  1  0
  9 34  1  0
  9 35  1  0
 10 36  1  0
 10 37  1  0
 11 38  1  1
 13 39  1  0
 14 40  1  0
 15 41  1  0
 17 42  1  0
 19 43  1  0
 20 44  1  0
 22 45  1  0
 25 46  1  0
 26 47  1  0
M  END
>  <smiles>  (7) 
O=C(NCC(=O)N1CCCC1c1cccnc1)c1ccc2cc(F)ccc2n1

>  <score_type>  (7) 
oracle

>  <origin>  (7) 
autodockgpu

>  <m_score__min__energy>  (7) 
-8.7200000000000006

>  <m_primary>  (7) 
energy

>  <rmsd>  (7) 
2.8650078656449693

>  <m_score__min__rmsd>  (7) 
2.8650078656449693

>  <meeko>  (7) 
{"free_energy": -8.61, "intermolecular_energy": -10.1, "internal_energy": -1.14, "cluster_size": 25, "cluster_id": 2, "rank_in_cluster": 1}

>  <energy>  (7) 
-8.22

>  <cluster_rmsd>  (7) 
1.26

>  <cluster>  (7) 
1

$$$$

     RDKit          3D

 47 50  0  0  0  0  0  0  0  0999 V2000
  140.7890   71.6930  221.1220 O   0  0  0  0  0  0  0  0  0  0  0  0
  140.3320   72.2190  222.1700 C   0  0  0  0  0  0  0  0  0  0  0  0
  139.9420   73.6070  222.2150 N   0  0  0  0  0  0  0  0  0  0  0  0
  140.0940   74.4170  220.9890 C   0  0  0  0  0  0  0  0  0  0  0  0
  140.1460   75.8390  221.3050 C   0  0  0  0  0  0  0  0  0  0  0  0
  139.8810   76.1650  222.5220 O   0  0  0  0  0  0  0  0  0  0  0  0
  140.4490   76.9100  220.4450 N   0  0  0  0  0  0  0  0  0  0  0  0
  140.0830   76.7990  218.9920 C   0  0  0  0  0  0  0  0  0  0  0  0
  141.3430   77.3850  218.3570 C   0  0  0  0  0  0  0  0  0  0  0  0
  142.1710   77.9870  219.4750 C   0  0  0  0  0  0  0  0  0  0  0  0
  141.0660   78.1650  220.5320 C   0  0  2  0  0  0  0  0  0  0  0  0
  141.4840   78.8160  221.7160 C   0  0  0  0  0  0  0  0  0  0  0  0
  141.4070   78.3180  222.9810 C   0  0  0  0  0  0  0  0  0  0  0  0
  141.8380   78.9920  224.1130 C   0  0  0  0  0  0  0  0  0  0  0  0
  142.3840   80.2550  223.9550 C   0  0  0  0  0  0  0  0  0  0  0  0
  142.4690   80.7660  222.7050 N   0  0  0  0  0  0  0  0  0  0  0  0
  142.0510   80.1100  221.6160 C   0  0  0  0  0  0  0  0  0  0  0  0
  140.1710   71.4420  223.3920 C   0  0  0  0  0  0  0  0  0  0  0  0
  139.5550   70.2110  223.3290 C   0  0  0  0  0  0  0  0  0  0  0  0
  139.3660   69.4150  224.4440 C   0  0  0  0  0  0  0  0  0  0  0  0
  139.8250   69.9040  225.6470 C   0  0  0  0  0  0  0  0  0  0  0  0
  139.6430   69.1200  226.7730 C   0  0  0  0  0  0  0  0  0  0  0  0
  140.0950   69.5890  227.9860 C   0  0  0  0  0  0  0  0  0  0  0  0
  139.9440   68.8630  229.1150 F   0  0  0  0  0  0  0  0  0  0  0  0
  140.7210   70.8310  228.0710 C   0  0  0  0  0  0  0  0  0  0  0  0
  140.8890   71.5980  226.9220 C   0  0  0  0  0  0  0  0  0  0  0  0
  140.4400   71.1370  225.6980 C   0  0  0  0  0  0  0  0  0  0  0  0
  140.6040   71.8810  224.5890 N   0  0  0  0  0  0  0  0  0  0  0  0
  139.5690   74.0020  223.1010 H   0  0  0  0  0  0  0  0  0  0  0  0
  141.0251   74.1275  220.4798 H   0  0  0  0  0  0  0  0  0  0  0  0
  139.2259   74.2343  220.3386 H   0  0  0  0  0  0  0  0  0  0  0  0
  139.9218   75.7536  218.6901 H   0  0  0  0  0  0  0  0  0  0  0  0
  139.1454   77.3004  218.7102 H   0  0  0  0  0  0  0  0  0  0  0  0
  141.9133   76.5923  217.8507 H   0  0  0  0  0  0  0  0  0  0  0  0
  141.0839   78.1486  217.6088 H   0  0  0  0  0  0  0  0  0  0  0  0
  142.9609   77.3020  219.8168 H   0  0  0  0  0  0  0  0  0  0  0  0
  142.7231   78.9014  219.2123 H   0  0  0  0  0  0  0  0  0  0  0  0
  140.2780   78.9228  220.4103 H   0  0  0  0  0  0  0  0  0  0  0  0
  140.9745   77.3153  223.1132 H   0  0  0  0  0  0  0  0  0  0  0  0
  141.7488   78.5360  225.1100 H   0  0  0  0  0  0  0  0  0  0  0  0
  142.7396   80.8283  224.8239 H   0  0  0  0  0  0  0  0  0  0  0  0
  142.1493   80.5832  220.6278 H   0  0  0  0  0  0  0  0  0  0  0  0
  139.1996   69.8472  222.3536 H   0  0  0  0  0  0  0  0  0  0  0  0
  138.8712   68.4351  224.3733 H   0  0  0  0  0  0  0  0  0  0  0  0
  139.1468   68.1410  226.7002 H   0  0  0  0  0  0  0  0  0  0  0  0
  141.0806   71.2034  229.0416 H   0  0  0  0  0  0  0  0  0  0  0  0
  141.3829   72.5787  226.9880 H   0  0  0  0  0  0  0  0  0  0  0  0
  1  2  2  0
  2  3  1  0
  3  4  1  0
  4  5  1  0
  5  6  2  0
  5  7  1  0
  7  8  1  0
  8  9  1  0
  9 10  1  0
 10 11  1  0
 11 12  1  0
 12 13  2  0
 13 14  1  0
 14 15  2  0
 15 16  1  0
 16 17  2  0
  2 18  1  0
 18 19  2  0
 19 20  1  0
 20 21  2  0
 21 22  1  0
 22 23  2  0
 23 24  1  0
 23 25  1  0
 25 26  2  0
 26 27  1  0
 27 28  2  0
 11  7  1  0
 17 12  1  0
 28 18  1  0
 27 21  1  0
  3 29  1  0
  4 30  1  0
  4 31  1  0
  8 32  1  0
  8 33  1  0
  9 34  1  0
  9 35  1  0
 10 36  1  0
 10 37  1  0
 11 38  1  6
 13 39  1  0
 14 40  1  0
 15 41  1  0
 17 42  1  0
 19 43  1  0
 20 44  1  0
 22 45  1  0
 25 46  1  0
 26 47  1  0
M  END
>  <smiles>  (8) 
O=C(NCC(=O)N1CCCC1c1cccnc1)c1ccc2cc(F)ccc2n1

>  <score_type>  (8) 
oracle

>  <origin>  (8) 
autodockgpu

>  <m_score__min__energy>  (8) 
-8.7200000000000006

>  <m_primary>  (8) 
energy

>  <rmsd>  (8) 
1.6882132592979908

>  <m_score__min__rmsd>  (8) 
1.6882132592979908

>  <meeko>  (8) 
{"free_energy": -8.45, "intermolecular_energy": -9.94, "internal_energy": -1.52, "cluster_size": 25, "cluster_id": 2, "rank_in_cluster": 6}

>  <energy>  (8) 
-8.2

>  <cluster_rmsd>  (8) 
1.09

>  <cluster>  (8) 
1

$$$$

     RDKit          3D

 47 50  0  0  0  0  0  0  0  0999 V2000
  139.4150   71.4600  221.0800 O   0  0  0  0  0  0  0  0  0  0  0  0
  139.5240   72.0190  222.2020 C   0  0  0  0  0  0  0  0  0  0  0  0
  139.4790   73.4550  222.3420 N   0  0  0  0  0  0  0  0  0  0  0  0
  139.3000   74.2720  221.1250 C   0  0  0  0  0  0  0  0  0  0  0  0
  139.8150   75.6220  221.3210 C   0  0  0  0  0  0  0  0  0  0  0  0
  139.5540   76.1750  222.4540 O   0  0  0  0  0  0  0  0  0  0  0  0
  140.5640   76.4050  220.4250 N   0  0  0  0  0  0  0  0  0  0  0  0
  140.6810   75.9580  218.9950 C   0  0  0  0  0  0  0  0  0  0  0  0
  142.1610   76.2460  218.7490 C   0  0  0  0  0  0  0  0  0  0  0  0
  142.6680   77.0370  219.9370 C   0  0  0  0  0  0  0  0  0  0  0  0
  141.3280   77.5790  220.4640 C   0  0  2  0  0  0  0  0  0  0  0  0
  141.4420   78.4720  221.5560 C   0  0  0  0  0  0  0  0  0  0  0  0
  141.4850   79.8310  221.4850 C   0  0  0  0  0  0  0  0  0  0  0  0
  141.5890   80.6670  222.5860 C   0  0  0  0  0  0  0  0  0  0  0  0
  141.6530   80.0890  223.8430 C   0  0  0  0  0  0  0  0  0  0  0  0
  141.6110   78.7400  223.9320 N   0  0  0  0  0  0  0  0  0  0  0  0
  141.5100   77.9380  222.8660 C   0  0  0  0  0  0  0  0  0  0  0  0
  139.7010   71.2370  223.4180 C   0  0  0  0  0  0  0  0  0  0  0  0
  139.3530   69.9030  223.4140 C   0  0  0  0  0  0  0  0  0  0  0  0
  139.4920   69.0940  224.5270 C   0  0  0  0  0  0  0  0  0  0  0  0
  140.0000   69.6790  225.6660 C   0  0  0  0  0  0  0  0  0  0  0  0
  140.1450   68.8830  226.7890 C   0  0  0  0  0  0  0  0  0  0  0  0
  140.6520   69.4470  227.9380 C   0  0  0  0  0  0  0  0  0  0  0  0
  140.8150   68.7140  229.0620 F   0  0  0  0  0  0  0  0  0  0  0  0
  141.0110   70.7940  227.9630 C   0  0  0  0  0  0  0  0  0  0  0  0
  140.8530   71.5690  226.8180 C   0  0  0  0  0  0  0  0  0  0  0  0
  140.3450   71.0130  225.6580 C   0  0  0  0  0  0  0  0  0  0  0  0
  140.1950   71.7660  224.5530 N   0  0  0  0  0  0  0  0  0  0  0  0
  139.5740   73.8760  223.2880 H   0  0  0  0  0  0  0  0  0  0  0  0
  139.8397   73.7987  220.2915 H   0  0  0  0  0  0  0  0  0  0  0  0
  138.2249   74.3363  220.9013 H   0  0  0  0  0  0  0  0  0  0  0  0
  140.4484   74.8889  218.8808 H   0  0  0  0  0  0  0  0  0  0  0  0
  139.9898   76.4523  218.2964 H   0  0  0  0  0  0  0  0  0  0  0  0
  142.7186   75.3021  218.6593 H   0  0  0  0  0  0  0  0  0  0  0  0
  142.2983   76.8124  217.8161 H   0  0  0  0  0  0  0  0  0  0  0  0
  143.1705   76.3943  220.6749 H   0  0  0  0  0  0  0  0  0  0  0  0
  143.4257   77.8001  219.7053 H   0  0  0  0  0  0  0  0  0  0  0  0
  140.7688   78.3486  219.9117 H   0  0  0  0  0  0  0  0  0  0  0  0
  141.4339   80.2958  220.4893 H   0  0  0  0  0  0  0  0  0  0  0  0
  141.6199   81.7598  222.4645 H   0  0  0  0  0  0  0  0  0  0  0  0
  141.7359   80.7114  224.7462 H   0  0  0  0  0  0  0  0  0  0  0  0
  141.4793   76.8478  223.0090 H   0  0  0  0  0  0  0  0  0  0  0  0
  138.9490   69.4650  222.4894 H   0  0  0  0  0  0  0  0  0  0  0  0
  139.2096   68.0311  224.5038 H   0  0  0  0  0  0  0  0  0  0  0  0
  139.8607   67.8207  226.7639 H   0  0  0  0  0  0  0  0  0  0  0  0
  141.4167   71.2415  228.8823 H   0  0  0  0  0  0  0  0  0  0  0  0
  141.1344   72.6323  226.8357 H   0  0  0  0  0  0  0  0  0  0  0  0
  1  2  2  0
  2  3  1  0
  3  4  1  0
  4  5  1  0
  5  6  2  0
  5  7  1  0
  7  8  1  0
  8  9  1  0
  9 10  1  0
 10 11  1  0
 11 12  1  0
 12 13  2  0
 13 14  1  0
 14 15  2  0
 15 16  1  0
 16 17  2  0
  2 18  1  0
 18 19  2  0
 19 20  1  0
 20 21  2  0
 21 22  1  0
 22 23  2  0
 23 24  1  0
 23 25  1  0
 25 26  2  0
 26 27  1  0
 27 28  2  0
 11  7  1  0
 17 12  1  0
 28 18  1  0
 27 21  1  0
  3 29  1  0
  4 30  1  0
  4 31  1  0
  8 32  1  0
  8 33  1  0
  9 34  1  0
  9 35  1  0
 10 36  1  0
 10 37  1  0
 11 38  1  6
 13 39  1  0
 14 40  1  0
 15 41  1  0
 17 42  1  0
 19 43  1  0
 20 44  1  0
 22 45  1  0
 25 46  1  0
 26 47  1  0
M  END
>  <smiles>  (9) 
O=C(NCC(=O)N1CCCC1c1cccnc1)c1ccc2cc(F)ccc2n1

>  <score_type>  (9) 
oracle

>  <origin>  (9) 
autodockgpu

>  <m_score__min__energy>  (9) 
-8.7200000000000006

>  <m_primary>  (9) 
energy

>  <rmsd>  (9) 
1.5275827728959073

>  <m_score__min__rmsd>  (9) 
1.5275827728959073

>  <meeko>  (9) 
{"free_energy": -7.96, "intermolecular_energy": -9.45, "internal_energy": -1.45, "cluster_size": 25, "cluster_id": 2, "rank_in_cluster": 24}

>  <energy>  (9) 
-8.11

>  <cluster_rmsd>  (9) 
0.8

>  <cluster>  (9) 
1

$$$$

     RDKit          3D

 47 50  0  0  0  0  0  0  0  0999 V2000
  139.6820   71.3200  221.0790 O   0  0  0  0  0  0  0  0  0  0  0  0
  139.6620   71.8640  222.2130 C   0  0  0  0  0  0  0  0  0  0  0  0
  139.5870   73.2970  222.3660 N   0  0  0  0  0  0  0  0  0  0  0  0
  139.5350   74.1290  221.1460 C   0  0  0  0  0  0  0  0  0  0  0  0
  140.0800   75.4580  221.3970 C   0  0  0  0  0  0  0  0  0  0  0  0
  140.1960   75.8060  222.6310 O   0  0  0  0  0  0  0  0  0  0  0  0
  140.4970   76.4180  220.4570 N   0  0  0  0  0  0  0  0  0  0  0  0
  140.4690   76.0630  218.9980 C   0  0  0  0  0  0  0  0  0  0  0  0
  141.7980   76.6710  218.5530 C   0  0  0  0  0  0  0  0  0  0  0  0
  142.3180   77.5050  219.7060 C   0  0  0  0  0  0  0  0  0  0  0  0
  140.9980   77.7260  220.4660 C   0  0  2  0  0  0  0  0  0  0  0  0
  141.1020   78.5790  221.5900 C   0  0  0  0  0  0  0  0  0  0  0  0
  142.2220   79.2300  222.0080 C   0  0  0  0  0  0  0  0  0  0  0  0
  142.2740   80.0650  223.1140 C   0  0  0  0  0  0  0  0  0  0  0  0
  141.1130   80.2540  223.8460 C   0  0  0  0  0  0  0  0  0  0  0  0
  139.9900   79.6150  223.4450 N   0  0  0  0  0  0  0  0  0  0  0  0
  139.9470   78.8110  222.3760 C   0  0  0  0  0  0  0  0  0  0  0  0
  139.7110   71.0670  223.4310 C   0  0  0  0  0  0  0  0  0  0  0  0
  139.2120   69.7820  223.4130 C   0  0  0  0  0  0  0  0  0  0  0  0
  139.2230   68.9630  224.5270 C   0  0  0  0  0  0  0  0  0  0  0  0
  139.7620   69.4860  225.6820 C   0  0  0  0  0  0  0  0  0  0  0  0
  139.7800   68.6780  226.8070 C   0  0  0  0  0  0  0  0  0  0  0  0
  140.3150   69.1800  227.9720 C   0  0  0  0  0  0  0  0  0  0  0  0
  140.3580   68.4340  229.0980 F   0  0  0  0  0  0  0  0  0  0  0  0
  140.8250   70.4770  228.0110 C   0  0  0  0  0  0  0  0  0  0  0  0
  140.7920   71.2650  226.8650 C   0  0  0  0  0  0  0  0  0  0  0  0
  140.2580   70.7710  225.6890 C   0  0  0  0  0  0  0  0  0  0  0  0
  140.2280   71.5360  224.5830 N   0  0  0  0  0  0  0  0  0  0  0  0
  139.5720   73.7070  223.3210 H   0  0  0  0  0  0  0  0  0  0  0  0
  140.1229   73.6428  220.3535 H   0  0  0  0  0  0  0  0  0  0  0  0
  138.4844   74.2333  220.8371 H   0  0  0  0  0  0  0  0  0  0  0  0
  140.4456   74.9742  218.8429 H   0  0  0  0  0  0  0  0  0  0  0  0
  139.5867   76.4246  218.4495 H   0  0  0  0  0  0  0  0  0  0  0  0
  142.5155   75.8729  218.3116 H   0  0  0  0  0  0  0  0  0  0  0  0
  141.6625   77.2898  217.6537 H   0  0  0  0  0  0  0  0  0  0  0  0
  143.0545   76.9563  220.3114 H   0  0  0  0  0  0  0  0  0  0  0  0
  142.8554   78.4211  219.4196 H   0  0  0  0  0  0  0  0  0  0  0  0
  140.2098   78.3782  220.0617 H   0  0  0  0  0  0  0  0  0  0  0  0
  143.1467   79.0841  221.4304 H   0  0  0  0  0  0  0  0  0  0  0  0
  143.2112   80.5635  223.4022 H   0  0  0  0  0  0  0  0  0  0  0  0
  141.1045   80.9072  224.7310 H   0  0  0  0  0  0  0  0  0  0  0  0
  138.9997   78.3227  222.1036 H   0  0  0  0  0  0  0  0  0  0  0  0
  138.7884   69.3929  222.4754 H   0  0  0  0  0  0  0  0  0  0  0  0
  138.8197   67.9402  224.4926 H   0  0  0  0  0  0  0  0  0  0  0  0
  139.3750   67.6559  226.7703 H   0  0  0  0  0  0  0  0  0  0  0  0
  141.2514   70.8753  228.9435 H   0  0  0  0  0  0  0  0  0  0  0  0
  141.1937   72.2886  226.8946 H   0  0  0  0  0  0  0  0  0  0  0  0
  1  2  2  0
  2  3  1  0
  3  4  1  0
  4  5  1  0
  5  6  2  0
  5  7  1  0
  7  8  1  0
  8  9  1  0
  9 10  1  0
 10 11  1  0
 11 12  1  0
 12 13  2  0
 13 14  1  0
 14 15  2  0
 15 16  1  0
 16 17  2  0
  2 18  1  0
 18 19  2  0
 19 20  1  0
 20 21  2  0
 21 22  1  0
 22 23  2  0
 23 24  1  0
 23 25  1  0
 25 26  2  0
 26 27  1  0
 27 28  2  0
 11  7  1  0
 17 12  1  0
 28 18  1  0
 27 21  1  0
  3 29  1  0
  4 30  1  0
  4 31  1  0
  8 32  1  0
  8 33  1  0
  9 34  1  0
  9 35  1  0
 10 36  1  0
 10 37  1  0
 11 38  1  6
 13 39  1  0
 14 40  1  0
 15 41  1  0
 17 42  1  0
 19 43  1  0
 20 44  1  0
 22 45  1  0
 25 46  1  0
 26 47  1  0
M  END
>  <smiles>  (10) 
O=C(NCC(=O)N1CCCC1c1cccnc1)c1ccc2cc(F)ccc2n1

>  <score_type>  (10) 
oracle

>  <origin>  (10) 
autodockgpu

>  <m_score__min__energy>  (10) 
-8.7200000000000006

>  <m_primary>  (10) 
energy

>  <rmsd>  (10) 
1.4116835502371305

>  <m_score__min__rmsd>  (10) 
1.4116835502371305

>  <meeko>  (10) 
{"free_energy": -8.03, "intermolecular_energy": -9.52, "internal_energy": -1.75, "cluster_size": 25, "cluster_id": 2, "rank_in_cluster": 21}

>  <energy>  (10) 
-8.09

>  <cluster_rmsd>  (10) 
1.29

>  <cluster>  (10) 
1

$$$$

     RDKit          3D

 47 50  0  0  0  0  0  0  0  0999 V2000
  140.8850   73.7000  220.5180 O   0  0  0  0  0  0  0  0  0  0  0  0
  140.3940   74.4900  221.3660 C   0  0  0  0  0  0  0  0  0  0  0  0
  139.3810   74.0650  222.3020 N   0  0  0  0  0  0  0  0  0  0  0  0
  138.9190   72.6630  222.2460 C   0  0  0  0  0  0  0  0  0  0  0  0
  139.8560   71.7770  222.9270 C   0  0  0  0  0  0  0  0  0  0  0  0
  141.0560   72.2180  223.0750 O   0  0  0  0  0  0  0  0  0  0  0  0
  139.6160   70.4920  223.4450 N   0  0  0  0  0  0  0  0  0  0  0  0
  139.2000   69.3970  222.5040 C   0  0  0  0  0  0  0  0  0  0  0  0
  138.1120   68.7280  223.3420 C   0  0  0  0  0  0  0  0  0  0  0  0
  138.1850   69.3260  224.7320 C   0  0  0  0  0  0  0  0  0  0  0  0
  139.6270   69.8610  224.6960 C   0  0  2  0  0  0  0  0  0  0  0  0
  140.0790   70.4190  225.9150 C   0  0  0  0  0  0  0  0  0  0  0  0
  139.7360   70.0080  227.1670 C   0  0  0  0  0  0  0  0  0  0  0  0
  140.2130   70.5810  228.3350 C   0  0  0  0  0  0  0  0  0  0  0  0
  141.0950   71.6430  228.2300 C   0  0  0  0  0  0  0  0  0  0  0  0
  141.4480   72.0660  226.9940 N   0  0  0  0  0  0  0  0  0  0  0  0
  140.9850   71.5070  225.8700 C   0  0  0  0  0  0  0  0  0  0  0  0
  140.8320   75.8770  221.4430 C   0  0  0  0  0  0  0  0  0  0  0  0
  141.6650   76.3740  220.4630 C   0  0  0  0  0  0  0  0  0  0  0  0
  142.1220   77.6780  220.4660 C   0  0  0  0  0  0  0  0  0  0  0  0
  141.7090   78.4840  221.5040 C   0  0  0  0  0  0  0  0  0  0  0  0
  142.1580   79.7930  221.5210 C   0  0  0  0  0  0  0  0  0  0  0  0
  141.7570   80.6170  222.5490 C   0  0  0  0  0  0  0  0  0  0  0  0
  142.1660   81.9030  222.6130 F   0  0  0  0  0  0  0  0  0  0  0  0
  140.9150   80.1340  223.5490 C   0  0  0  0  0  0  0  0  0  0  0  0
  140.4800   78.8140  223.5050 C   0  0  0  0  0  0  0  0  0  0  0  0
  140.8760   77.9770  222.4780 C   0  0  0  0  0  0  0  0  0  0  0  0
  140.4530   76.7010  222.4390 N   0  0  0  0  0  0  0  0  0  0  0  0
  139.0010   74.7500  222.9860 H   0  0  0  0  0  0  0  0  0  0  0  0
  137.9352   72.5886  222.7324 H   0  0  0  0  0  0  0  0  0  0  0  0
  138.8512   72.3579  221.1913 H   0  0  0  0  0  0  0  0  0  0  0  0
  138.8003   69.7986  221.5612 H   0  0  0  0  0  0  0  0  0  0  0  0
  140.0125   68.7297  222.1808 H   0  0  0  0  0  0  0  0  0  0  0  0
  137.1235   68.9216  222.9000 H   0  0  0  0  0  0  0  0  0  0  0  0
  138.2613   67.6387  223.3775 H   0  0  0  0  0  0  0  0  0  0  0  0
  137.4503   70.1327  224.8719 H   0  0  0  0  0  0  0  0  0  0  0  0
  137.9612   68.6316  225.5553 H   0  0  0  0  0  0  0  0  0  0  0  0
  140.4883   69.1768  224.7068 H   0  0  0  0  0  0  0  0  0  0  0  0
  139.0341   69.1658  227.2571 H   0  0  0  0  0  0  0  0  0  0  0  0
  139.8994   70.2023  229.3190 H   0  0  0  0  0  0  0  0  0  0  0  0
  141.4989   72.1310  229.1293 H   0  0  0  0  0  0  0  0  0  0  0  0
  141.3130   71.8984  224.8957 H   0  0  0  0  0  0  0  0  0  0  0  0
  141.9780   75.7062  219.6468 H   0  0  0  0  0  0  0  0  0  0  0  0
  142.7861   78.0557  219.6746 H   0  0  0  0  0  0  0  0  0  0  0  0
  142.8224   80.1680  220.7286 H   0  0  0  0  0  0  0  0  0  0  0  0
  140.5960   80.7939  224.3692 H   0  0  0  0  0  0  0  0  0  0  0  0
  139.8152   78.4324  224.2939 H   0  0  0  0  0  0  0  0  0  0  0  0
  1  2  2  0
  2  3  1  0
  3  4  1  0
  4  5  1  0
  5  6  2  0
  5  7  1  0
  7  8  1  0
  8  9  1  0
  9 10  1  0
 10 11  1  0
 11 12  1  0
 12 13  2  0
 13 14  1  0
 14 15  2  0
 15 16  1  0
 16 17  2  0
  2 18  1  0
 18 19  2  0
 19 20  1  0
 20 21  2  0
 21 22  1  0
 22 23  2  0
 23 24  1  0
 23 25  1  0
 25 26  2  0
 26 27  1  0
 27 28  2  0
 11  7  1  0
 17 12  1  0
 28 18  1  0
 27 21  1  0
  3 29  1  0
  4 30  1  0
  4 31  1  0
  8 32  1  0
  8 33  1  0
  9 34  1  0
  9 35  1  0
 10 36  1  0
 10 37  1  0
 11 38  1  6
 13 39  1  0
 14 40  1  0
 15 41  1  0
 17 42  1  0
 19 43  1  0
 20 44  1  0
 22 45  1  0
 25 46  1  0
 26 47  1  0
M  END
>  <smiles>  (11) 
O=C(NCC(=O)N1CCCC1c1cccnc1)c1ccc2cc(F)ccc2n1

>  <score_type>  (11) 
oracle

>  <origin>  (11) 
autodockgpu

>  <m_score__min__energy>  (11) 
-8.7200000000000006

>  <m_primary>  (11) 
energy

>  <rmsd>  (11) 
8.565423238304467

>  <m_score__min__rmsd>  (11) 
8.565423238304467

>  <meeko>  (11) 
{"free_energy": -8.37, "intermolecular_energy": -9.87, "internal_energy": -1.32, "cluster_size": 11, "cluster_id": 3, "rank_in_cluster": 6}

>  <energy>  (11) 
-8.05

>  <cluster_rmsd>  (11) 
1.28

>  <cluster>  (11) 
1

$$$$

     RDKit          3D

 47 50  0  0  0  0  0  0  0  0999 V2000
  138.8540   72.7680  222.2790 O   0  0  0  0  0  0  0  0  0  0  0  0
  139.9040   72.1480  222.5880 C   0  0  0  0  0  0  0  0  0  0  0  0
  141.1200   72.2860  221.8230 N   0  0  0  0  0  0  0  0  0  0  0  0
  141.1100   73.1830  220.6490 C   0  0  0  0  0  0  0  0  0  0  0  0
  141.3620   74.5630  221.0440 C   0  0  0  0  0  0  0  0  0  0  0  0
  140.6820   75.0050  222.0440 O   0  0  0  0  0  0  0  0  0  0  0  0
  142.2550   75.4840  220.4680 N   0  0  0  0  0  0  0  0  0  0  0  0
  141.7930   76.8940  220.2340 C   0  0  0  0  0  0  0  0  0  0  0  0
  142.3850   77.1400  218.8480 C   0  0  0  0  0  0  0  0  0  0  0  0
  143.3100   75.9790  218.5420 C   0  0  0  0  0  0  0  0  0  0  0  0
  143.5670   75.4840  219.9760 C   0  0  2  0  0  0  0  0  0  0  0  0
  144.5020   74.4260  220.0760 C   0  0  0  0  0  0  0  0  0  0  0  0
  145.2180   74.0830  221.1820 C   0  0  0  0  0  0  0  0  0  0  0  0
  146.1190   73.0310  221.2340 C   0  0  0  0  0  0  0  0  0  0  0  0
  146.3090   72.2750  220.0890 C   0  0  0  0  0  0  0  0  0  0  0  0
  145.6060   72.6010  218.9800 N   0  0  0  0  0  0  0  0  0  0  0  0
  144.7370   73.6180  218.9370 C   0  0  0  0  0  0  0  0  0  0  0  0
  139.9400   71.2580  223.7410 C   0  0  0  0  0  0  0  0  0  0  0  0
  139.4050   69.9920  223.6300 C   0  0  0  0  0  0  0  0  0  0  0  0
  139.4020   69.0910  224.6770 C   0  0  0  0  0  0  0  0  0  0  0  0
  139.9640   69.5080  225.8640 C   0  0  0  0  0  0  0  0  0  0  0  0
  139.9690   68.6170  226.9230 C   0  0  0  0  0  0  0  0  0  0  0  0
  140.5270   69.0130  228.1180 C   0  0  0  0  0  0  0  0  0  0  0  0
  140.5580   68.1810  229.1830 F   0  0  0  0  0  0  0  0  0  0  0  0
  141.0730   70.2880  228.2510 C   0  0  0  0  0  0  0  0  0  0  0  0
  141.0530   71.1620  227.1690 C   0  0  0  0  0  0  0  0  0  0  0  0
  140.4970   70.7750  225.9640 C   0  0  0  0  0  0  0  0  0  0  0  0
  140.4800   71.6230  224.9200 N   0  0  0  0  0  0  0  0  0  0  0  0
  141.9660   71.7550  222.1130 H   0  0  0  0  0  0  0  0  0  0  0  0
  141.8914   72.8621  219.9444 H   0  0  0  0  0  0  0  0  0  0  0  0
  140.1186   73.1295  220.1755 H   0  0  0  0  0  0  0  0  0  0  0  0
  140.6955   76.9684  220.2283 H   0  0  0  0  0  0  0  0  0  0  0  0
  142.1008   77.6164  221.0043 H   0  0  0  0  0  0  0  0  0  0  0  0
  141.5814   77.1890  218.0985 H   0  0  0  0  0  0  0  0  0  0  0  0
  142.9335   78.0931  218.8218 H   0  0  0  0  0  0  0  0  0  0  0  0
  142.8185   75.2130  217.9241 H   0  0  0  0  0  0  0  0  0  0  0  0
  144.2101   76.2339  217.9634 H   0  0  0  0  0  0  0  0  0  0  0  0
  144.1770   76.0705  220.6788 H   0  0  0  0  0  0  0  0  0  0  0  0
  145.0719   74.6800  222.0943 H   0  0  0  0  0  0  0  0  0  0  0  0
  146.6682   72.8027  222.1593 H   0  0  0  0  0  0  0  0  0  0  0  0
  147.0139   71.4306  220.0816 H   0  0  0  0  0  0  0  0  0  0  0  0
  144.1969   73.8295  218.0024 H   0  0  0  0  0  0  0  0  0  0  0  0
  138.9631   69.6875  222.6698 H   0  0  0  0  0  0  0  0  0  0  0  0
  138.9701   68.0852  224.5680 H   0  0  0  0  0  0  0  0  0  0  0  0
  139.5356   67.6120  226.8123 H   0  0  0  0  0  0  0  0  0  0  0  0
  141.5177   70.6019  229.2069 H   0  0  0  0  0  0  0  0  0  0  0  0
  141.4830   72.1691  227.2731 H   0  0  0  0  0  0  0  0  0  0  0  0
  1  2  2  0
  2  3  1  0
  3  4  1  0
  4  5  1  0
  5  6  2  0
  5  7  1  0
  7  8  1  0
  8  9  1  0
  9 10  1  0
 10 11  1  0
 11 12  1  0
 12 13  2  0
 13 14  1  0
 14 15  2  0
 15 16  1  0
 16 17  2  0
  2 18  1  0
 18 19  2  0
 19 20  1  0
 20 21  2  0
 21 22  1  0
 22 23  2  0
 23 24  1  0
 23 25  1  0
 25 26  2  0
 26 27  1  0
 27 28  2  0
 11  7  1  0
 17 12  1  0
 28 18  1  0
 27 21  1  0
  3 29  1  0
  4 30  1  0
  4 31  1  0
  8 32  1  0
  8 33  1  0
  9 34  1  0
  9 35  1  0
 10 36  1  0
 10 37  1  0
 11 38  1  1
 13 39  1  0
 14 40  1  0
 15 41  1  0
 17 42  1  0
 19 43  1  0
 20 44  1  0
 22 45  1  0
 25 46  1  0
 26 47  1  0
M  END
>  <smiles>  (12) 
O=C(NCC(=O)N1CCCC1c1cccnc1)c1ccc2cc(F)ccc2n1

>  <score_type>  (12) 
oracle

>  <origin>  (12) 
autodockgpu

>  <m_score__min__energy>  (12) 
-8.7200000000000006

>  <m_primary>  (12) 
energy

>  <rmsd>  (12) 
2.4026940621209065

>  <m_score__min__rmsd>  (12) 
2.4026940621209065

>  <meeko>  (12) 
{"free_energy": -8.72, "intermolecular_energy": -10.21, "internal_energy": -1.17, "cluster_size": 12, "cluster_id": 1, "rank_in_cluster": 1}

>  <energy>  (12) 
-7.47

>  <cluster_rmsd>  (12) 
1.53

>  <cluster>  (12) 
1

$$$$

     RDKit          3D

 47 50  0  0  0  0  0  0  0  0999 V2000
  140.9640   71.8320  221.2340 O   0  0  0  0  0  0  0  0  0  0  0  0
  140.4380   72.3090  222.2730 C   0  0  0  0  0  0  0  0  0  0  0  0
  139.9860   73.6780  222.3350 N   0  0  0  0  0  0  0  0  0  0  0  0
  140.1540   74.5260  221.1370 C   0  0  0  0  0  0  0  0  0  0  0  0
  139.9620   75.9340  221.4630 C   0  0  0  0  0  0  0  0  0  0  0  0
  139.6040   76.1980  222.6700 O   0  0  0  0  0  0  0  0  0  0  0  0
  140.1160   77.0490  220.6200 N   0  0  0  0  0  0  0  0  0  0  0  0
  139.5530   76.9890  219.2280 C   0  0  0  0  0  0  0  0  0  0  0  0
  140.6970   77.6390  218.4530 C   0  0  0  0  0  0  0  0  0  0  0  0
  141.6590   78.2170  219.4710 C   0  0  0  0  0  0  0  0  0  0  0  0
  140.7100   78.3160  220.6780 C   0  0  2  0  0  0  0  0  0  0  0  0
  141.2740   78.9290  221.8220 C   0  0  0  0  0  0  0  0  0  0  0  0
  142.3320   79.7860  221.8390 C   0  0  0  0  0  0  0  0  0  0  0  0
  142.8460   80.3690  222.9870 C   0  0  0  0  0  0  0  0  0  0  0  0
  142.2510   80.0640  224.2000 C   0  0  0  0  0  0  0  0  0  0  0  0
  141.1980   79.2140  224.2020 N   0  0  0  0  0  0  0  0  0  0  0  0
  140.7060   78.6550  223.0900 C   0  0  0  0  0  0  0  0  0  0  0  0
  140.2600   71.4940  223.4670 C   0  0  0  0  0  0  0  0  0  0  0  0
  139.6350   70.2700  223.3580 C   0  0  0  0  0  0  0  0  0  0  0  0
  139.4290   69.4400  224.4440 C   0  0  0  0  0  0  0  0  0  0  0  0
  139.8790   69.8860  225.6670 C   0  0  0  0  0  0  0  0  0  0  0  0
  139.6810   69.0660  226.7650 C   0  0  0  0  0  0  0  0  0  0  0  0
  140.1230   69.4920  227.9970 C   0  0  0  0  0  0  0  0  0  0  0  0
  139.9560   68.7300  229.1000 F   0  0  0  0  0  0  0  0  0  0  0  0
  140.7580   70.7260  228.1290 C   0  0  0  0  0  0  0  0  0  0  0  0
  140.9430   71.5280  227.0080 C   0  0  0  0  0  0  0  0  0  0  0  0
  140.5030   71.1110  225.7650 C   0  0  0  0  0  0  0  0  0  0  0  0
  140.6840   71.8900  224.6830 N   0  0  0  0  0  0  0  0  0  0  0  0
  139.5570   74.0320  223.2130 H   0  0  0  0  0  0  0  0  0  0  0  0
  141.1683   74.3847  220.7355 H   0  0  0  0  0  0  0  0  0  0  0  0
  139.4004   74.2328  220.3913 H   0  0  0  0  0  0  0  0  0  0  0  0
  139.3762   75.9530  218.9031 H   0  0  0  0  0  0  0  0  0  0  0  0
  138.5734   77.4733  219.1024 H   0  0  0  0  0  0  0  0  0  0  0  0
  141.2093   76.8862  217.8359 H   0  0  0  0  0  0  0  0  0  0  0  0
  140.3173   78.4261  217.7849 H   0  0  0  0  0  0  0  0  0  0  0  0
  142.5053   77.5422  219.6671 H   0  0  0  0  0  0  0  0  0  0  0  0
  142.1468   79.1580  219.1769 H   0  0  0  0  0  0  0  0  0  0  0  0
  139.8951   79.0545  220.7021 H   0  0  0  0  0  0  0  0  0  0  0  0
  142.8100   80.0318  220.8793 H   0  0  0  0  0  0  0  0  0  0  0  0
  143.7038   81.0557  222.9359 H   0  0  0  0  0  0  0  0  0  0  0  0
  142.6248   80.5014  225.1375 H   0  0  0  0  0  0  0  0  0  0  0  0
  139.8468   77.9719  223.1621 H   0  0  0  0  0  0  0  0  0  0  0  0
  139.2865   69.9409  222.3679 H   0  0  0  0  0  0  0  0  0  0  0  0
  138.9280   68.4667  224.3363 H   0  0  0  0  0  0  0  0  0  0  0  0
  139.1801   68.0929  226.6549 H   0  0  0  0  0  0  0  0  0  0  0  0
  141.1109   71.0636  229.1147 H   0  0  0  0  0  0  0  0  0  0  0  0
  141.4435   72.5021  227.1109 H   0  0  0  0  0  0  0  0  0  0  0  0
  1  2  2  0
  2  3  1  0
  3  4  1  0
  4  5  1  0
  5  6  2  0
  5  7  1  0
  7  8  1  0
  8  9  1  0
  9 10  1  0
 10 11  1  0
 11 12  1  0
 12 13  2  0
 13 14  1  0
 14 15  2  0
 15 16  1  0
 16 17  2  0
  2 18  1  0
 18 19  2  0
 19 20  1  0
 20 21  2  0
 21 22  1  0
 22 23  2  0
 23 24  1  0
 23 25  1  0
 25 26  2  0
 26 27  1  0
 27 28  2  0
 11  7  1  0
 17 12  1  0
 28 18  1  0
 27 21  1  0
  3 29  1  0
  4 30  1  0
  4 31  1  0
  8 32  1  0
  8 33  1  0
  9 34  1  0
  9 35  1  0
 10 36  1  0
 10 37  1  0
 11 38  1  6
 13 39  1  0
 14 40  1  0
 15 41  1  0
 17 42  1  0
 19 43  1  0
 20 44  1  0
 22 45  1  0
 25 46  1  0
 26 47  1  0
M  END
>  <smiles>  (13) 
O=C(NCC(=O)N1CCCC1c1cccnc1)c1ccc2cc(F)ccc2n1

>  <score_type>  (13) 
oracle

>  <origin>  (13) 
autodockgpu

>  <m_score__min__energy>  (13) 
-8.7200000000000006

>  <m_primary>  (13) 
energy

>  <rmsd>  (13) 
1.7319453940188179

>  <m_score__min__rmsd>  (13) 
1.7319453940188179

>  <meeko>  (13) 
{"free_energy": -8.14, "intermolecular_energy": -9.63, "internal_energy": -1.55, "cluster_size": 25, "cluster_id": 2, "rank_in_cluster": 14}

>  <energy>  (13) 
-8.61

>  <cluster_rmsd>  (13) 
0.0

>  <cluster>  (13) 
2

$$$$

     RDKit          3D

 47 50  0  0  0  0  0  0  0  0999 V2000
  140.9360   71.7410  221.2010 O   0  0  0  0  0  0  0  0  0  0  0  0
  140.4230   72.2470  222.2320 C   0  0  0  0  0  0  0  0  0  0  0  0
  139.9900   73.6230  222.2680 N   0  0  0  0  0  0  0  0  0  0  0  0
  140.1640   74.4440  221.0520 C   0  0  0  0  0  0  0  0  0  0  0  0
  140.0960   75.8660  221.3670 C   0  0  0  0  0  0  0  0  0  0  0  0
  139.7440   76.1700  222.5670 O   0  0  0  0  0  0  0  0  0  0  0  0
  140.3640   76.9570  220.5210 N   0  0  0  0  0  0  0  0  0  0  0  0
  139.9280   76.8850  219.0850 C   0  0  0  0  0  0  0  0  0  0  0  0
  141.1600   77.4800  218.4060 C   0  0  0  0  0  0  0  0  0  0  0  0
  142.0440   78.0480  219.4970 C   0  0  0  0  0  0  0  0  0  0  0  0
  140.9930   78.2050  220.6100 C   0  0  2  0  0  0  0  0  0  0  0  0
  141.4720   78.8240  221.7900 C   0  0  0  0  0  0  0  0  0  0  0  0
  141.3290   78.3560  223.0610 C   0  0  0  0  0  0  0  0  0  0  0  0
  141.8240   78.9950  224.1880 C   0  0  0  0  0  0  0  0  0  0  0  0
  142.5090   80.1860  224.0170 C   0  0  0  0  0  0  0  0  0  0  0  0
  142.6620   80.6650  222.7610 N   0  0  0  0  0  0  0  0  0  0  0  0
  142.1820   80.0430  221.6770 C   0  0  0  0  0  0  0  0  0  0  0  0
  140.2390   71.4600  223.4440 C   0  0  0  0  0  0  0  0  0  0  0  0
  139.5920   70.2450  223.3650 C   0  0  0  0  0  0  0  0  0  0  0  0
  139.3800   69.4410  224.4690 C   0  0  0  0  0  0  0  0  0  0  0  0
  139.8480   69.9030  225.6790 C   0  0  0  0  0  0  0  0  0  0  0  0
  139.6430   69.1090  226.7940 C   0  0  0  0  0  0  0  0  0  0  0  0
  140.1040   69.5520  228.0140 C   0  0  0  0  0  0  0  0  0  0  0  0
  139.9310   68.8150  229.1340 F   0  0  0  0  0  0  0  0  0  0  0  0
  140.7610   70.7760  228.1160 C   0  0  0  0  0  0  0  0  0  0  0  0
  140.9510   71.5530  226.9780 C   0  0  0  0  0  0  0  0  0  0  0  0
  140.4940   71.1190  225.7470 C   0  0  0  0  0  0  0  0  0  0  0  0
  140.6800   71.8720  224.6480 N   0  0  0  0  0  0  0  0  0  0  0  0
  139.5710   74.0020  223.1410 H   0  0  0  0  0  0  0  0  0  0  0  0
  141.1440   74.2212  220.6048 H   0  0  0  0  0  0  0  0  0  0  0  0
  139.3547   74.2022  220.3474 H   0  0  0  0  0  0  0  0  0  0  0  0
  139.7455   75.8486  218.7649 H   0  0  0  0  0  0  0  0  0  0  0  0
  138.9812   77.3983  218.8611 H   0  0  0  0  0  0  0  0  0  0  0  0
  141.7001   76.6974  217.8529 H   0  0  0  0  0  0  0  0  0  0  0  0
  140.8706   78.2642  217.6909 H   0  0  0  0  0  0  0  0  0  0  0  0
  142.8448   77.3501  219.7828 H   0  0  0  0  0  0  0  0  0  0  0  0
  142.5888   78.9659  219.2312 H   0  0  0  0  0  0  0  0  0  0  0  0
  140.2055   78.9704  220.5460 H   0  0  0  0  0  0  0  0  0  0  0  0
  140.7858   77.4101  223.2029 H   0  0  0  0  0  0  0  0  0  0  0  0
  141.6764   78.5672  225.1906 H   0  0  0  0  0  0  0  0  0  0  0  0
  142.9188   80.7294  224.8811 H   0  0  0  0  0  0  0  0  0  0  0  0
  142.3420   80.4863  220.6831 H   0  0  0  0  0  0  0  0  0  0  0  0
  139.2302   69.9020  222.3845 H   0  0  0  0  0  0  0  0  0  0  0  0
  138.8606   68.4750  224.3849 H   0  0  0  0  0  0  0  0  0  0  0  0
  139.1225   68.1438  226.7076 H   0  0  0  0  0  0  0  0  0  0  0  0
  141.1279   71.1265  229.0920 H   0  0  0  0  0  0  0  0  0  0  0  0
  141.4688   72.5202  227.0578 H   0  0  0  0  0  0  0  0  0  0  0  0
  1  2  2  0
  2  3  1  0
  3  4  1  0
  4  5  1  0
  5  6  2  0
  5  7  1  0
  7  8  1  0
  8  9  1  0
  9 10  1  0
 10 11  1  0
 11 12  1  0
 12 13  2  0
 13 14  1  0
 14 15  2  0
 15 16  1  0
 16 17  2  0
  2 18  1  0
 18 19  2  0
 19 20  1  0
 20 21  2  0
 21 22  1  0
 22 23  2  0
 23 24  1  0
 23 25  1  0
 25 26  2  0
 26 27  1  0
 27 28  2  0
 11  7  1  0
 17 12  1  0
 28 18  1  0
 27 21  1  0
  3 29  1  0
  4 30  1  0
  4 31  1  0
  8 32  1  0
  8 33  1  0
  9 34  1  0
  9 35  1  0
 10 36  1  0
 10 37  1  0
 11 38  1  6
 13 39  1  0
 14 40  1  0
 15 41  1  0
 17 42  1  0
 19 43  1  0
 20 44  1  0
 22 45  1  0
 25 46  1  0
 26 47  1  0
M  END
>  <smiles>  (14) 
O=C(NCC(=O)N1CCCC1c1cccnc1)c1ccc2cc(F)ccc2n1

>  <score_type>  (14) 
oracle

>  <origin>  (14) 
autodockgpu

>  <m_score__min__energy>  (14) 
-8.7200000000000006

>  <m_primary>  (14) 
energy

>  <rmsd>  (14) 
1.7216477894829398

>  <m_score__min__rmsd>  (14) 
1.7216477894829398

>  <meeko>  (14) 
{"free_energy": -8.43, "intermolecular_energy": -9.92, "internal_energy": -1.57, "cluster_size": 25, "cluster_id": 2, "rank_in_cluster": 8}

>  <energy>  (14) 
-8.58

>  <cluster_rmsd>  (14) 
1.42

>  <cluster>  (14) 
2

$$$$

     RDKit          3D

 47 50  0  0  0  0  0  0  0  0999 V2000
  133.5630   70.0280  226.5810 O   0  0  0  0  0  0  0  0  0  0  0  0
  133.9590   71.1530  226.1810 C   0  0  0  0  0  0  0  0  0  0  0  0
  135.0750   71.2870  225.2770 N   0  0  0  0  0  0  0  0  0  0  0  0
  135.7600   70.0600  224.8230 C   0  0  0  0  0  0  0  0  0  0  0  0
  136.9970   70.3810  224.1210 C   0  0  0  0  0  0  0  0  0  0  0  0
  137.0540   71.5390  223.5610 O   0  0  0  0  0  0  0  0  0  0  0  0
  138.1440   69.5810  223.9720 N   0  0  0  0  0  0  0  0  0  0  0  0
  138.2460   68.6740  222.7780 C   0  0  0  0  0  0  0  0  0  0  0  0
  138.8160   67.4240  223.4450 C   0  0  0  0  0  0  0  0  0  0  0  0
  139.2090   67.8070  224.8570 C   0  0  0  0  0  0  0  0  0  0  0  0
  139.3300   69.3300  224.6750 C   0  0  2  0  0  0  0  0  0  0  0  0
  139.7930   70.0250  225.8170 C   0  0  0  0  0  0  0  0  0  0  0  0
  139.5610   69.6880  227.1150 C   0  0  0  0  0  0  0  0  0  0  0  0
  140.0440   70.3970  228.2050 C   0  0  0  0  0  0  0  0  0  0  0  0
  140.8140   71.5230  227.9640 C   0  0  0  0  0  0  0  0  0  0  0  0
  141.0550   71.8730  226.6790 N   0  0  0  0  0  0  0  0  0  0  0  0
  140.5860   71.1840  225.6320 C   0  0  0  0  0  0  0  0  0  0  0  0
  133.3010   72.3790  226.6130 C   0  0  0  0  0  0  0  0  0  0  0  0
  132.0690   72.2990  227.2270 C   0  0  0  0  0  0  0  0  0  0  0  0
  131.3820   73.4160  227.6660 C   0  0  0  0  0  0  0  0  0  0  0  0
  131.9830   74.6390  227.4630 C   0  0  0  0  0  0  0  0  0  0  0  0
  131.3080   75.7670  227.8970 C   0  0  0  0  0  0  0  0  0  0  0  0
  131.8900   77.0000  227.7050 C   0  0  0  0  0  0  0  0  0  0  0  0
  131.2740   78.1330  228.1100 F   0  0  0  0  0  0  0  0  0  0  0  0
  133.1350   77.1030  227.0870 C   0  0  0  0  0  0  0  0  0  0  0  0
  133.7890   75.9510  226.6610 C   0  0  0  0  0  0  0  0  0  0  0  0
  133.2140   74.7070  226.8480 C   0  0  0  0  0  0  0  0  0  0  0  0
  133.8500   73.5960  226.4360 N   0  0  0  0  0  0  0  0  0  0  0  0
  135.3700   72.2360  224.9700 H   0  0  0  0  0  0  0  0  0  0  0  0
  135.9944   69.4346  225.6970 H   0  0  0  0  0  0  0  0  0  0  0  0
  135.0943   69.5225  224.1317 H   0  0  0  0  0  0  0  0  0  0  0  0
  137.2620   68.4827  222.3250 H   0  0  0  0  0  0  0  0  0  0  0  0
  138.8452   69.0695  221.9446 H   0  0  0  0  0  0  0  0  0  0  0  0
  138.0555   66.6296  223.4682 H   0  0  0  0  0  0  0  0  0  0  0  0
  139.6858   67.0469  222.8871 H   0  0  0  0  0  0  0  0  0  0  0  0
  138.4309   67.5404  225.5874 H   0  0  0  0  0  0  0  0  0  0  0  0
  140.1073   67.3067  225.2478 H   0  0  0  0  0  0  0  0  0  0  0  0
  140.1525   69.7697  224.0918 H   0  0  0  0  0  0  0  0  0  0  0  0
  138.9503   68.7947  227.3127 H   0  0  0  0  0  0  0  0  0  0  0  0
  139.8217   70.0739  229.2327 H   0  0  0  0  0  0  0  0  0  0  0  0
  141.2193   72.1176  228.7959 H   0  0  0  0  0  0  0  0  0  0  0  0
  140.8199   71.5229  224.6120 H   0  0  0  0  0  0  0  0  0  0  0  0
  131.6148   71.3079  227.3734 H   0  0  0  0  0  0  0  0  0  0  0  0
  130.4003   73.3319  228.1551 H   0  0  0  0  0  0  0  0  0  0  0  0
  130.3263   75.6800  228.3855 H   0  0  0  0  0  0  0  0  0  0  0  0
  133.5980   78.0894  226.9369 H   0  0  0  0  0  0  0  0  0  0  0  0
  134.7710   76.0303  226.1717 H   0  0  0  0  0  0  0  0  0  0  0  0
  1  2  2  0
  2  3  1  0
  3  4  1  0
  4  5  1  0
  5  6  2  0
  5  7  1  0
  7  8  1  0
  8  9  1  0
  9 10  1  0
 10 11  1  0
 11 12  1  0
 12 13  2  0
 13 14  1  0
 14 15  2  0
 15 16  1  0
 16 17  2  0
  2 18  1  0
 18 19  2  0
 19 20  1  0
 20 21  2  0
 21 22  1  0
 22 23  2  0
 23 24  1  0
 23 25  1  0
 25 26  2  0
 26 27  1  0
 27 28  2  0
 11  7  1  0
 17 12  1  0
 28 18  1  0
 27 21  1  0
  3 29  1  0
  4 30  1  0
  4 31  1  0
  8 32  1  0
  8 33  1  0
  9 34  1  0
  9 35  1  0
 10 36  1  0
 10 37  1  0
 11 38  1  6
 13 39  1  0
 14 40  1  0
 15 41  1  0
 17 42  1  0
 19 43  1  0
 20 44  1  0
 22 45  1  0
 25 46  1  0
 26 47  1  0
M  END
>  <smiles>  (15) 
O=C(NCC(=O)N1CCCC1c1cccnc1)c1ccc2cc(F)ccc2n1

>  <score_type>  (15) 
oracle

>  <origin>  (15) 
autodockgpu

>  <m_score__min__energy>  (15) 
-8.7200000000000006

>  <m_primary>  (15) 
energy

>  <rmsd>  (15) 
9.032225036331713

>  <m_score__min__rmsd>  (15) 
9.032225036331713

>  <meeko>  (15) 
{"free_energy": -7.87, "intermolecular_energy": -9.36, "internal_energy": -1.84, "cluster_size": 2, "cluster_id": 4, "rank_in_cluster": 2}

>  <energy>  (15) 
-8.57

>  <cluster_rmsd>  (15) 
0.1

>  <cluster>  (15) 
2

$$$$

     RDKit          3D

 47 50  0  0  0  0  0  0  0  0999 V2000
  141.2230   71.6810  221.4220 O   0  0  0  0  0  0  0  0  0  0  0  0
  140.5800   72.1960  222.3730 C   0  0  0  0  0  0  0  0  0  0  0  0
  140.0890   73.5510  222.3130 N   0  0  0  0  0  0  0  0  0  0  0  0
  140.3590   74.3400  221.0940 C   0  0  0  0  0  0  0  0  0  0  0  0
  140.1610   75.7640  221.3380 C   0  0  0  0  0  0  0  0  0  0  0  0
  139.6520   76.0840  222.4760 O   0  0  0  0  0  0  0  0  0  0  0  0
  140.4530   76.8410  220.4820 N   0  0  0  0  0  0  0  0  0  0  0  0
  140.0750   76.7380  219.0320 C   0  0  0  0  0  0  0  0  0  0  0  0
  141.3270   77.3310  218.3900 C   0  0  0  0  0  0  0  0  0  0  0  0
  142.1630   77.9280  219.5030 C   0  0  0  0  0  0  0  0  0  0  0  0
  141.0670   78.0970  220.5710 C   0  0  2  0  0  0  0  0  0  0  0  0
  141.4940   78.7420  221.7560 C   0  0  0  0  0  0  0  0  0  0  0  0
  141.3860   78.2550  223.0230 C   0  0  0  0  0  0  0  0  0  0  0  0
  141.8280   78.9220  224.1560 C   0  0  0  0  0  0  0  0  0  0  0  0
  142.4180   80.1640  223.9960 C   0  0  0  0  0  0  0  0  0  0  0  0
  142.5350   80.6630  222.7430 N   0  0  0  0  0  0  0  0  0  0  0  0
  142.1070   80.0140  221.6540 C   0  0  0  0  0  0  0  0  0  0  0  0
  140.3000   71.4390  223.5870 C   0  0  0  0  0  0  0  0  0  0  0  0
  139.5950   70.2580  223.4930 C   0  0  0  0  0  0  0  0  0  0  0  0
  139.2910   69.4840  224.5980 C   0  0  0  0  0  0  0  0  0  0  0  0
  139.7240   69.9430  225.8220 C   0  0  0  0  0  0  0  0  0  0  0  0
  139.4260   69.1790  226.9380 C   0  0  0  0  0  0  0  0  0  0  0  0
  139.8500   69.6190  228.1720 C   0  0  0  0  0  0  0  0  0  0  0  0
  139.5870   68.9120  229.2930 F   0  0  0  0  0  0  0  0  0  0  0  0
  140.5640   70.8110  228.2880 C   0  0  0  0  0  0  0  0  0  0  0  0
  140.8470   71.5570  227.1490 C   0  0  0  0  0  0  0  0  0  0  0  0
  140.4270   71.1250  225.9040 C   0  0  0  0  0  0  0  0  0  0  0  0
  140.7030   71.8500  224.8040 N   0  0  0  0  0  0  0  0  0  0  0  0
  139.5630   73.9380  223.1220 H   0  0  0  0  0  0  0  0  0  0  0  0
  141.3991   74.1704  220.7789 H   0  0  0  0  0  0  0  0  0  0  0  0
  139.6604   74.0190  220.3072 H   0  0  0  0  0  0  0  0  0  0  0  0
  139.9140   75.6940  218.7251 H   0  0  0  0  0  0  0  0  0  0  0  0
  139.1336   77.2387  218.7615 H   0  0  0  0  0  0  0  0  0  0  0  0
  141.8948   76.5429  217.8737 H   0  0  0  0  0  0  0  0  0  0  0  0
  141.0590   78.0986  217.6491 H   0  0  0  0  0  0  0  0  0  0  0  0
  142.9577   77.2430  219.8336 H   0  0  0  0  0  0  0  0  0  0  0  0
  142.7105   78.8453  219.2407 H   0  0  0  0  0  0  0  0  0  0  0  0
  140.2763   78.8537  220.4608 H   0  0  0  0  0  0  0  0  0  0  0  0
  140.9178   77.2686  223.1567 H   0  0  0  0  0  0  0  0  0  0  0  0
  141.7128   78.4760  225.1549 H   0  0  0  0  0  0  0  0  0  0  0  0
  142.7826   80.7312  224.8651 H   0  0  0  0  0  0  0  0  0  0  0  0
  142.2334   80.4761  220.6638 H   0  0  0  0  0  0  0  0  0  0  0  0
  139.2616   69.9184  222.5013 H   0  0  0  0  0  0  0  0  0  0  0  0
  138.7283   68.5435  224.5034 H   0  0  0  0  0  0  0  0  0  0  0  0
  138.8620   68.2396  226.8406 H   0  0  0  0  0  0  0  0  0  0  0  0
  140.9016   71.1595  229.2752 H   0  0  0  0  0  0  0  0  0  0  0  0
  141.4093   72.4981  227.2389 H   0  0  0  0  0  0  0  0  0  0  0  0
  1  2  2  0
  2  3  1  0
  3  4  1  0
  4  5  1  0
  5  6  2  0
  5  7  1  0
  7  8  1  0
  8  9  1  0
  9 10  1  0
 10 11  1  0
 11 12  1  0
 12 13  2  0
 13 14  1  0
 14 15  2  0
 15 16  1  0
 16 17  2  0
  2 18  1  0
 18 19  2  0
 19 20  1  0
 20 21  2  0
 21 22  1  0
 22 23  2  0
 23 24  1  0
 23 25  1  0
 25 26  2  0
 26 27  1  0
 27 28  2  0
 11  7  1  0
 17 12  1  0
 28 18  1  0
 27 21  1  0
  3 29  1  0
  4 30  1  0
  4 31  1  0
  8 32  1  0
  8 33  1  0
  9 34  1  0
  9 35  1  0
 10 36  1  0
 10 37  1  0
 11 38  1  6
 13 39  1  0
 14 40  1  0
 15 41  1  0
 17 42  1  0
 19 43  1  0
 20 44  1  0
 22 45  1  0
 25 46  1  0
 26 47  1  0
M  END
>  <smiles>  (16) 
O=C(NCC(=O)N1CCCC1c1cccnc1)c1ccc2cc(F)ccc2n1

>  <score_type>  (16) 
oracle

>  <origin>  (16) 
autodockgpu

>  <m_score__min__energy>  (16) 
-8.7200000000000006

>  <m_primary>  (16) 
energy

>  <rmsd>  (16) 
1.7770080479262034

>  <m_score__min__rmsd>  (16) 
1.7770080479262034

>  <meeko>  (16) 
{"free_energy": -8.4, "intermolecular_energy": -9.89, "internal_energy": -1.6, "cluster_size": 25, "cluster_id": 2, "rank_in_cluster": 10}

>  <energy>  (16) 
-8.53

>  <cluster_rmsd>  (16) 
0.6

>  <cluster>  (16) 
2

$$$$

     RDKit          3D

 47 50  0  0  0  0  0  0  0  0999 V2000
  141.1740   71.3300  221.3890 O   0  0  0  0  0  0  0  0  0  0  0  0
  140.6270   71.9670  222.3250 C   0  0  0  0  0  0  0  0  0  0  0  0
  140.3060   73.3690  222.2050 N   0  0  0  0  0  0  0  0  0  0  0  0
  140.6380   74.0560  220.9400 C   0  0  0  0  0  0  0  0  0  0  0  0
  141.2800   75.3400  221.1960 C   0  0  0  0  0  0  0  0  0  0  0  0
  141.0020   75.9050  222.3180 O   0  0  0  0  0  0  0  0  0  0  0  0
  142.1690   76.0470  220.3670 N   0  0  0  0  0  0  0  0  0  0  0  0
  141.8220   77.4530  219.9640 C   0  0  0  0  0  0  0  0  0  0  0  0
  142.2300   77.4140  218.4930 C   0  0  0  0  0  0  0  0  0  0  0  0
  142.9800   76.1160  218.2690 C   0  0  0  0  0  0  0  0  0  0  0  0
  143.3900   75.8140  219.7210 C   0  0  2  0  0  0  0  0  0  0  0  0
  144.2190   74.6780  219.8750 C   0  0  0  0  0  0  0  0  0  0  0  0
  145.1530   74.4860  220.8460 C   0  0  0  0  0  0  0  0  0  0  0  0
  145.9380   73.3490  220.9610 C   0  0  0  0  0  0  0  0  0  0  0  0
  145.7660   72.3380  220.0310 C   0  0  0  0  0  0  0  0  0  0  0  0
  144.8410   72.5110  219.0590 N   0  0  0  0  0  0  0  0  0  0  0  0
  144.0860   73.6110  218.9530 C   0  0  0  0  0  0  0  0  0  0  0  0
  140.2890   71.3130  223.5820 C   0  0  0  0  0  0  0  0  0  0  0  0
  139.5810   70.1300  223.5540 C   0  0  0  0  0  0  0  0  0  0  0  0
  139.2240   69.4490  224.7030 C   0  0  0  0  0  0  0  0  0  0  0  0
  139.6060   70.0050  225.9040 C   0  0  0  0  0  0  0  0  0  0  0  0
  139.2560   69.3350  227.0640 C   0  0  0  0  0  0  0  0  0  0  0  0
  139.6290   69.8720  228.2760 C   0  0  0  0  0  0  0  0  0  0  0  0
  139.3130   69.2590  229.4380 F   0  0  0  0  0  0  0  0  0  0  0  0
  140.3450   71.0670  228.3260 C   0  0  0  0  0  0  0  0  0  0  0  0
  140.6830   71.7170  227.1440 C   0  0  0  0  0  0  0  0  0  0  0  0
  140.3140   71.1870  225.9210 C   0  0  0  0  0  0  0  0  0  0  0  0
  140.6430   71.8190  224.7790 N   0  0  0  0  0  0  0  0  0  0  0  0
  139.8540   73.8580  223.0030 H   0  0  0  0  0  0  0  0  0  0  0  0
  141.3210   73.4225  220.3550 H   0  0  0  0  0  0  0  0  0  0  0  0
  139.7064   74.2346  220.3830 H   0  0  0  0  0  0  0  0  0  0  0  0
  140.7483   77.6593  220.0848 H   0  0  0  0  0  0  0  0  0  0  0  0
  142.3083   78.2396  220.5595 H   0  0  0  0  0  0  0  0  0  0  0  0
  141.3359   77.4477  217.8531 H   0  0  0  0  0  0  0  0  0  0  0  0
  142.8620   78.2782  218.2405 H   0  0  0  0  0  0  0  0  0  0  0  0
  142.3302   75.3318  217.8533 H   0  0  0  0  0  0  0  0  0  0  0  0
  143.8084   76.1694  217.5473 H   0  0  0  0  0  0  0  0  0  0  0  0
  144.1501   76.4203  220.2354 H   0  0  0  0  0  0  0  0  0  0  0  0
  145.2944   75.2854  221.5883 H   0  0  0  0  0  0  0  0  0  0  0  0
  146.6776   73.2528  221.7695 H   0  0  0  0  0  0  0  0  0  0  0  0
  146.3661   71.4175  220.0811 H   0  0  0  0  0  0  0  0  0  0  0  0
  143.3514   73.6876  218.1379 H   0  0  0  0  0  0  0  0  0  0  0  0
  139.2889   69.7118  222.5794 H   0  0  0  0  0  0  0  0  0  0  0  0
  138.6602   68.5055  224.6601 H   0  0  0  0  0  0  0  0  0  0  0  0
  138.6911   68.3923  227.0184 H   0  0  0  0  0  0  0  0  0  0  0  0
  140.6412   71.4937  229.2956 H   0  0  0  0  0  0  0  0  0  0  0  0
  141.2482   72.6599  227.1820 H   0  0  0  0  0  0  0  0  0  0  0  0
  1  2  2  0
  2  3  1  0
  3  4  1  0
  4  5  1  0
  5  6  2  0
  5  7  1  0
  7  8  1  0
  8  9  1  0
  9 10  1  0
 10 11  1  0
 11 12  1  0
 12 13  2  0
 13 14  1  0
 14 15  2  0
 15 16  1  0
 16 17  2  0
  2 18  1  0
 18 19  2  0
 19 20  1  0
 20 21  2  0
 21 22  1  0
 22 23  2  0
 23 24  1  0
 23 25  1  0
 25 26  2  0
 26 27  1  0
 27 28  2  0
 11  7  1  0
 17 12  1  0
 28 18  1  0
 27 21  1  0
  3 29  1  0
  4 30  1  0
  4 31  1  0
  8 32  1  0
  8 33  1  0
  9 34  1  0
  9 35  1  0
 10 36  1  0
 10 37  1  0
 11 38  1  1
 13 39  1  0
 14 40  1  0
 15 41  1  0
 17 42  1  0
 19 43  1  0
 20 44  1  0
 22 45  1  0
 25 46  1  0
 26 47  1  0
M  END
>  <smiles>  (17) 
O=C(NCC(=O)N1CCCC1c1cccnc1)c1ccc2cc(F)ccc2n1

>  <score_type>  (17) 
oracle

>  <origin>  (17) 
autodockgpu

>  <m_score__min__energy>  (17) 
-8.7200000000000006

>  <m_primary>  (17) 
energy

>  <rmsd>  (17) 
2.322073467765219

>  <m_score__min__rmsd>  (17) 
2.322073467765219

>  <meeko>  (17) 
{"free_energy": -8.2, "intermolecular_energy": -9.69, "internal_energy": -1.62, "cluster_size": 12, "cluster_id": 1, "rank_in_cluster": 8}

>  <energy>  (17) 
-8.48

>  <cluster_rmsd>  (17) 
0.59

>  <cluster>  (17) 
2

$$$$

     RDKit          3D

 47 50  0  0  0  0  0  0  0  0999 V2000
  140.8240   73.7120  220.5220 O   0  0  0  0  0  0  0  0  0  0  0  0
  140.2990   74.4930  221.3560 C   0  0  0  0  0  0  0  0  0  0  0  0
  139.2840   74.0470  222.2800 N   0  0  0  0  0  0  0  0  0  0  0  0
  138.8640   72.6320  222.2280 C   0  0  0  0  0  0  0  0  0  0  0  0
  139.8200   71.7770  222.9200 C   0  0  0  0  0  0  0  0  0  0  0  0
  141.0070   72.2520  223.0730 O   0  0  0  0  0  0  0  0  0  0  0  0
  139.6130   70.4880  223.4450 N   0  0  0  0  0  0  0  0  0  0  0  0
  139.2170   69.3810  222.5100 C   0  0  0  0  0  0  0  0  0  0  0  0
  138.1500   68.6900  223.3580 C   0  0  0  0  0  0  0  0  0  0  0  0
  138.2170   69.2950  224.7450 C   0  0  0  0  0  0  0  0  0  0  0  0
  139.6470   69.8630  224.6980 C   0  0  2  0  0  0  0  0  0  0  0  0
  140.0940   70.4360  225.9120 C   0  0  0  0  0  0  0  0  0  0  0  0
  139.7530   70.0340  227.1670 C   0  0  0  0  0  0  0  0  0  0  0  0
  140.2240   70.6220  228.3310 C   0  0  0  0  0  0  0  0  0  0  0  0
  141.0980   71.6900  228.2170 C   0  0  0  0  0  0  0  0  0  0  0  0
  141.4490   72.1030  226.9760 N   0  0  0  0  0  0  0  0  0  0  0  0
  140.9910   71.5300  225.8580 C   0  0  0  0  0  0  0  0  0  0  0  0
  140.6960   75.8930  221.4290 C   0  0  0  0  0  0  0  0  0  0  0  0
  141.5540   76.3980  220.4750 C   0  0  0  0  0  0  0  0  0  0  0  0
  141.9760   77.7150  220.4760 C   0  0  0  0  0  0  0  0  0  0  0  0
  141.5000   78.5240  221.4840 C   0  0  0  0  0  0  0  0  0  0  0  0
  141.9130   79.8450  221.4990 C   0  0  0  0  0  0  0  0  0  0  0  0
  141.4490   80.6720  222.4970 C   0  0  0  0  0  0  0  0  0  0  0  0
  141.8210   81.9690  222.5570 F   0  0  0  0  0  0  0  0  0  0  0  0
  140.5810   80.1810  223.4710 C   0  0  0  0  0  0  0  0  0  0  0  0
  140.1840   78.8480  223.4300 C   0  0  0  0  0  0  0  0  0  0  0  0
  140.6430   78.0090  222.4320 C   0  0  0  0  0  0  0  0  0  0  0  0
  140.2560   76.7210  222.3960 N   0  0  0  0  0  0  0  0  0  0  0  0
  138.8750   74.7260  222.9540 H   0  0  0  0  0  0  0  0  0  0  0  0
  137.8790   72.5314  222.7072 H   0  0  0  0  0  0  0  0  0  0  0  0
  138.8140   72.3201  221.1743 H   0  0  0  0  0  0  0  0  0  0  0  0
  138.8020   69.7701  221.5685 H   0  0  0  0  0  0  0  0  0  0  0  0
  140.0426   68.7317  222.1831 H   0  0  0  0  0  0  0  0  0  0  0  0
  137.1545   68.8584  222.9213 H   0  0  0  0  0  0  0  0  0  0  0  0
  138.3255   67.6048  223.3971 H   0  0  0  0  0  0  0  0  0  0  0  0
  137.4648   70.0852  224.8860 H   0  0  0  0  0  0  0  0  0  0  0  0
  138.0138   68.5992  225.5724 H   0  0  0  0  0  0  0  0  0  0  0  0
  140.5242   69.1993  224.7063 H   0  0  0  0  0  0  0  0  0  0  0  0
  139.0580   69.1869  227.2641 H   0  0  0  0  0  0  0  0  0  0  0  0
  139.9119   70.2502  229.3181 H   0  0  0  0  0  0  0  0  0  0  0  0
  141.4970   72.1902  229.1117 H   0  0  0  0  0  0  0  0  0  0  0  0
  141.3165   71.9149  224.8803 H   0  0  0  0  0  0  0  0  0  0  0  0
  141.9169   75.7272  219.6823 H   0  0  0  0  0  0  0  0  0  0  0  0
  142.6612   78.0993  219.7061 H   0  0  0  0  0  0  0  0  0  0  0  0
  142.5988   80.2267  220.7283 H   0  0  0  0  0  0  0  0  0  0  0  0
  140.2119   80.8437  224.2676 H   0  0  0  0  0  0  0  0  0  0  0  0
  139.4994   78.4588  224.1980 H   0  0  0  0  0  0  0  0  0  0  0  0
  1  2  2  0
  2  3  1  0
  3  4  1  0
  4  5  1  0
  5  6  2  0
  5  7  1  0
  7  8  1  0
  8  9  1  0
  9 10  1  0
 10 11  1  0
 11 12  1  0
 12 13  2  0
 13 14  1  0
 14 15  2  0
 15 16  1  0
 16 17  2  0
  2 18  1  0
 18 19  2  0
 19 20  1  0
 20 21  2  0
 21 22  1  0
 22 23  2  0
 23 24  1  0
 23 25  1  0
 25 26  2  0
 26 27  1  0
 27 28  2  0
 11  7  1  0
 17 12  1  0
 28 18  1  0
 27 21  1  0
  3 29  1  0
  4 30  1  0
  4 31  1  0
  8 32  1  0
  8 33  1  0
  9 34  1  0
  9 35  1  0
 10 36  1  0
 10 37  1  0
 11 38  1  6
 13 39  1  0
 14 40  1  0
 15 41  1  0
 17 42  1  0
 19 43  1  0
 20 44  1  0
 22 45  1  0
 25 46  1  0
 26 47  1  0
M  END
>  <smiles>  (18) 
O=C(NCC(=O)N1CCCC1c1cccnc1)c1ccc2cc(F)ccc2n1

>  <score_type>  (18) 
oracle

>  <origin>  (18) 
autodockgpu

>  <m_score__min__energy>  (18) 
-8.7200000000000006

>  <m_primary>  (18) 
energy

>  <rmsd>  (18) 
8.58382963455135

>  <m_score__min__rmsd>  (18) 
8.58382963455135

>  <meeko>  (18) 
{"free_energy": -8.36, "intermolecular_energy": -9.85, "internal_energy": -1.32, "cluster_size": 11, "cluster_id": 3, "rank_in_cluster": 7}

>  <energy>  (18) 
-8.45

>  <cluster_rmsd>  (18) 
1.43

>  <cluster>  (18) 
2

$$$$

     RDKit          3D

 47 50  0  0  0  0  0  0  0  0999 V2000
  141.1860   71.9260  221.3510 O   0  0  0  0  0  0  0  0  0  0  0  0
  140.5250   72.3580  222.3300 C   0  0  0  0  0  0  0  0  0  0  0  0
  139.9490   73.6810  222.3340 N   0  0  0  0  0  0  0  0  0  0  0  0
  140.1520   74.5360  221.1470 C   0  0  0  0  0  0  0  0  0  0  0  0
  139.8040   75.9220  221.4360 C   0  0  0  0  0  0  0  0  0  0  0  0
  139.2990   76.1550  222.5970 O   0  0  0  0  0  0  0  0  0  0  0  0
  139.9490   77.0460  220.6030 N   0  0  0  0  0  0  0  0  0  0  0  0
  139.3440   77.0120  219.2280 C   0  0  0  0  0  0  0  0  0  0  0  0
  140.4730   77.6560  218.4270 C   0  0  0  0  0  0  0  0  0  0  0  0
  141.4730   78.2080  219.4230 C   0  0  0  0  0  0  0  0  0  0  0  0
  140.5610   78.3050  220.6600 C   0  0  2  0  0  0  0  0  0  0  0  0
  141.1680   78.8950  221.7940 C   0  0  0  0  0  0  0  0  0  0  0  0
  142.1950   79.7880  221.7860 C   0  0  0  0  0  0  0  0  0  0  0  0
  142.7530   80.3470  222.9260 C   0  0  0  0  0  0  0  0  0  0  0  0
  142.2360   79.9770  224.1560 C   0  0  0  0  0  0  0  0  0  0  0  0
  141.2140   79.0900  224.1830 N   0  0  0  0  0  0  0  0  0  0  0  0
  140.6800   78.5550  223.0790 C   0  0  0  0  0  0  0  0  0  0  0  0
  140.3090   71.5340  223.5130 C   0  0  0  0  0  0  0  0  0  0  0  0
  139.6240   70.3450  223.3860 C   0  0  0  0  0  0  0  0  0  0  0  0
  139.3800   69.5090  224.4600 C   0  0  0  0  0  0  0  0  0  0  0  0
  139.8540   69.9130  225.6880 C   0  0  0  0  0  0  0  0  0  0  0  0
  139.6170   69.0870  226.7730 C   0  0  0  0  0  0  0  0  0  0  0  0
  140.0830   69.4710  228.0110 C   0  0  0  0  0  0  0  0  0  0  0  0
  139.8800   68.7010  229.1030 F   0  0  0  0  0  0  0  0  0  0  0  0
  140.7780   70.6700  228.1600 C   0  0  0  0  0  0  0  0  0  0  0  0
  141.0000   71.4790  227.0510 C   0  0  0  0  0  0  0  0  0  0  0  0
  140.5380   71.1040  225.8030 C   0  0  0  0  0  0  0  0  0  0  0  0
  140.7550   71.8900  224.7330 N   0  0  0  0  0  0  0  0  0  0  0  0
  139.4100   73.9980  223.1640 H   0  0  0  0  0  0  0  0  0  0  0  0
  141.2082   74.4860  220.8440 H   0  0  0  0  0  0  0  0  0  0  0  0
  139.5014   74.1726  220.3379 H   0  0  0  0  0  0  0  0  0  0  0  0
  139.1429   75.9829  218.8956 H   0  0  0  0  0  0  0  0  0  0  0  0
  138.3681   77.5116  219.1382 H   0  0  0  0  0  0  0  0  0  0  0  0
  140.9561   76.9041  217.7857 H   0  0  0  0  0  0  0  0  0  0  0  0
  140.0846   78.4565  217.7802 H   0  0  0  0  0  0  0  0  0  0  0  0
  142.3151   77.5192  219.5855 H   0  0  0  0  0  0  0  0  0  0  0  0
  141.9650   79.1459  219.1259 H   0  0  0  0  0  0  0  0  0  0  0  0
  139.7575   79.0540  220.7186 H   0  0  0  0  0  0  0  0  0  0  0  0
  142.6096   80.0859  220.8116 H   0  0  0  0  0  0  0  0  0  0  0  0
  143.5836   81.0647  222.8549 H   0  0  0  0  0  0  0  0  0  0  0  0
  142.6456   80.3935  225.0880 H   0  0  0  0  0  0  0  0  0  0  0  0
  139.8491   77.8401  223.1710 H   0  0  0  0  0  0  0  0  0  0  0  0
  139.2572   70.0496  222.3919 H   0  0  0  0  0  0  0  0  0  0  0  0
  138.8316   68.5632  224.3388 H   0  0  0  0  0  0  0  0  0  0  0  0
  139.0673   68.1423  226.6490 H   0  0  0  0  0  0  0  0  0  0  0  0
  141.1489   70.9747  229.1497 H   0  0  0  0  0  0  0  0  0  0  0  0
  141.5480   72.4256  227.1677 H   0  0  0  0  0  0  0  0  0  0  0  0
  1  2  2  0
  2  3  1  0
  3  4  1  0
  4  5  1  0
  5  6  2  0
  5  7  1  0
  7  8  1  0
  8  9  1  0
  9 10  1  0
 10 11  1  0
 11 12  1  0
 12 13  2  0
 13 14  1  0
 14 15  2  0
 15 16  1  0
 16 17  2  0
  2 18  1  0
 18 19  2  0
 19 20  1  0
 20 21  2  0
 21 22  1  0
 22 23  2  0
 23 24  1  0
 23 25  1  0
 25 26  2  0
 26 27  1  0
 27 28  2  0
 11  7  1  0
 17 12  1  0
 28 18  1  0
 27 21  1  0
  3 29  1  0
  4 30  1  0
  4 31  1  0
  8 32  1  0
  8 33  1  0
  9 34  1  0
  9 35  1  0
 10 36  1  0
 10 37  1  0
 11 38  1  6
 13 39  1  0
 14 40  1  0
 15 41  1  0
 17 42  1  0
 19 43  1  0
 20 44  1  0
 22 45  1  0
 25 46  1  0
 26 47  1  0
M  END
>  <smiles>  (19) 
O=C(NCC(=O)N1CCCC1c1cccnc1)c1ccc2cc(F)ccc2n1

>  <score_type>  (19) 
oracle

>  <origin>  (19) 
autodockgpu

>  <m_score__min__energy>  (19) 
-8.7200000000000006

>  <m_primary>  (19) 
energy

>  <rmsd>  (19) 
1.7492672758332746

>  <m_score__min__rmsd>  (19) 
1.7492672758332746

>  <meeko>  (19) 
{"free_energy": -8.08, "intermolecular_energy": -9.57, "internal_energy": -1.56, "cluster_size": 25, "cluster_id": 2, "rank_in_cluster": 18}

>  <energy>  (19) 
-8.44

>  <cluster_rmsd>  (19) 
1.42

>  <cluster>  (19) 
2

$$$$

     RDKit          3D

 47 50  0  0  0  0  0  0  0  0999 V2000
  141.2930   71.9080  221.3950 O   0  0  0  0  0  0  0  0  0  0  0  0
  140.5940   72.3550  222.3400 C   0  0  0  0  0  0  0  0  0  0  0  0
  140.0300   73.6830  222.3050 N   0  0  0  0  0  0  0  0  0  0  0  0
  140.2940   74.5240  221.1200 C   0  0  0  0  0  0  0  0  0  0  0  0
  139.6300   75.8170  221.2390 C   0  0  0  0  0  0  0  0  0  0  0  0
  138.7720   75.9340  222.1910 O   0  0  0  0  0  0  0  0  0  0  0  0
  139.8040   76.9600  220.4390 N   0  0  0  0  0  0  0  0  0  0  0  0
  139.1600   77.0010  219.0820 C   0  0  0  0  0  0  0  0  0  0  0  0
  140.2960   77.6180  218.2690 C   0  0  0  0  0  0  0  0  0  0  0  0
  141.3490   78.0880  219.2520 C   0  0  0  0  0  0  0  0  0  0  0  0
  140.4780   78.1860  220.5180 C   0  0  2  0  0  0  0  0  0  0  0  0
  141.1440   78.7080  221.6520 C   0  0  0  0  0  0  0  0  0  0  0  0
  141.1390   78.1770  222.9060 C   0  0  0  0  0  0  0  0  0  0  0  0
  141.8150   78.7210  223.9870 C   0  0  0  0  0  0  0  0  0  0  0  0
  142.5460   79.8800  223.7860 C   0  0  0  0  0  0  0  0  0  0  0  0
  142.5630   80.4210  222.5450 N   0  0  0  0  0  0  0  0  0  0  0  0
  141.9080   79.8910  221.5060 C   0  0  0  0  0  0  0  0  0  0  0  0
  140.3180   71.5450  223.5200 C   0  0  0  0  0  0  0  0  0  0  0  0
  139.5970   70.3790  223.3800 C   0  0  0  0  0  0  0  0  0  0  0  0
  139.2950   69.5580  224.4500 C   0  0  0  0  0  0  0  0  0  0  0  0
  139.7500   69.9520  225.6890 C   0  0  0  0  0  0  0  0  0  0  0  0
  139.4560   69.1400  226.7710 C   0  0  0  0  0  0  0  0  0  0  0  0
  139.9020   69.5150  228.0190 C   0  0  0  0  0  0  0  0  0  0  0  0
  139.6430   68.7580  229.1090 F   0  0  0  0  0  0  0  0  0  0  0  0
  140.6330   70.6900  228.1820 C   0  0  0  0  0  0  0  0  0  0  0  0
  140.9120   71.4860  227.0760 C   0  0  0  0  0  0  0  0  0  0  0  0
  140.4700   71.1200  225.8170 C   0  0  0  0  0  0  0  0  0  0  0  0
  140.7430   71.8920  224.7500 N   0  0  0  0  0  0  0  0  0  0  0  0
  139.4580   74.0140  223.1080 H   0  0  0  0  0  0  0  0  0  0  0  0
  141.3783   74.6836  221.0264 H   0  0  0  0  0  0  0  0  0  0  0  0
  139.9023   74.0092  220.2303 H   0  0  0  0  0  0  0  0  0  0  0  0
  138.9005   75.9943  218.7225 H   0  0  0  0  0  0  0  0  0  0  0  0
  138.2072   77.5488  219.0373 H   0  0  0  0  0  0  0  0  0  0  0  0
  140.7241   76.8664  217.5894 H   0  0  0  0  0  0  0  0  0  0  0  0
  139.9285   78.4575  217.6605 H   0  0  0  0  0  0  0  0  0  0  0  0
  142.1611   77.3550  219.3669 H   0  0  0  0  0  0  0  0  0  0  0  0
  141.8771   79.0111  218.9710 H   0  0  0  0  0  0  0  0  0  0  0  0
  139.7137   78.9699  220.6241 H   0  0  0  0  0  0  0  0  0  0  0  0
  140.5607   77.2561  223.0720 H   0  0  0  0  0  0  0  0  0  0  0  0
  141.7720   78.2450  224.9777 H   0  0  0  0  0  0  0  0  0  0  0  0
  143.0986   80.3490  224.6134 H   0  0  0  0  0  0  0  0  0  0  0  0
  141.9638   80.3818  220.5232 H   0  0  0  0  0  0  0  0  0  0  0  0
  139.2482   70.0904  222.3775 H   0  0  0  0  0  0  0  0  0  0  0  0
  138.7171   68.6314  224.3181 H   0  0  0  0  0  0  0  0  0  0  0  0
  138.8778   68.2139  226.6367 H   0  0  0  0  0  0  0  0  0  0  0  0
  140.9876   70.9865  229.1802 H   0  0  0  0  0  0  0  0  0  0  0  0
  141.4887   72.4140  227.2033 H   0  0  0  0  0  0  0  0  0  0  0  0
  1  2  2  0
  2  3  1  0
  3  4  1  0
  4  5  1  0
  5  6  2  0
  5  7  1  0
  7  8  1  0
  8  9  1  0
  9 10  1  0
 10 11  1  0
 11 12  1  0
 12 13  2  0
 13 14  1  0
 14 15  2  0
 15 16  1  0
 16 17  2  0
  2 18  1  0
 18 19  2  0
 19 20  1  0
 20 21  2  0
 21 22  1  0
 22 23  2  0
 23 24  1  0
 23 25  1  0
 25 26  2  0
 26 27  1  0
 27 28  2  0
 11  7  1  0
 17 12  1  0
 28 18  1  0
 27 21  1  0
  3 29  1  0
  4 30  1  0
  4 31  1  0
  8 32  1  0
  8 33  1  0
  9 34  1  0
  9 35  1  0
 10 36  1  0
 10 37  1  0
 11 38  1  6
 13 39  1  0
 14 40  1  0
 15 41  1  0
 17 42  1  0
 19 43  1  0
 20 44  1  0
 22 45  1  0
 25 46  1  0
 26 47  1  0
M  END
>  <smiles>  (20) 
O=C(NCC(=O)N1CCCC1c1cccnc1)c1ccc2cc(F)ccc2n1

>  <score_type>  (20) 
oracle

>  <origin>  (20) 
autodockgpu

>  <m_score__min__energy>  (20) 
-8.7200000000000006

>  <m_primary>  (20) 
energy

>  <rmsd>  (20) 
1.759981212182411

>  <m_score__min__rmsd>  (20) 
1.759981212182411

>  <meeko>  (20) 
{"free_energy": -7.89, "intermolecular_energy": -9.38, "internal_energy": -1.65, "cluster_size": 25, "cluster_id": 2, "rank_in_cluster": 25}

>  <energy>  (20) 
-8.43

>  <cluster_rmsd>  (20) 
1.4

>  <cluster>  (20) 
2

$$$$

     RDKit          3D

 47 50  0  0  0  0  0  0  0  0999 V2000
  140.7380   71.2430  221.2880 O   0  0  0  0  0  0  0  0  0  0  0  0
  140.2990   71.7990  222.3270 C   0  0  0  0  0  0  0  0  0  0  0  0
  139.9300   73.1940  222.3440 N   0  0  0  0  0  0  0  0  0  0  0  0
  140.0810   73.9730  221.0980 C   0  0  0  0  0  0  0  0  0  0  0  0
  140.1010   75.4040  221.3750 C   0  0  0  0  0  0  0  0  0  0  0  0
  139.7690   75.7610  222.5670 O   0  0  0  0  0  0  0  0  0  0  0  0
  140.4360   76.4540  220.5020 N   0  0  0  0  0  0  0  0  0  0  0  0
  140.2400   76.2580  219.0250 C   0  0  0  0  0  0  0  0  0  0  0  0
  141.5270   76.8930  218.5020 C   0  0  0  0  0  0  0  0  0  0  0  0
  142.1910   77.5920  219.6710 C   0  0  0  0  0  0  0  0  0  0  0  0
  140.9680   77.7470  220.5930 C   0  0  2  0  0  0  0  0  0  0  0  0
  141.2140   78.4730  221.7820 C   0  0  0  0  0  0  0  0  0  0  0  0
  142.3910   79.0550  222.1420 C   0  0  0  0  0  0  0  0  0  0  0  0
  142.5840   79.7660  223.3170 C   0  0  0  0  0  0  0  0  0  0  0  0
  141.5140   79.8950  224.1860 C   0  0  0  0  0  0  0  0  0  0  0  0
  140.3360   79.3220  223.8450 N   0  0  0  0  0  0  0  0  0  0  0  0
  140.1570   78.6390  222.7090 C   0  0  0  0  0  0  0  0  0  0  0  0
  140.1400   71.0540  223.5690 C   0  0  0  0  0  0  0  0  0  0  0  0
  139.4890   69.8390  223.5440 C   0  0  0  0  0  0  0  0  0  0  0  0
  139.2990   69.0730  224.6790 C   0  0  0  0  0  0  0  0  0  0  0  0
  139.7940   69.5750  225.8630 C   0  0  0  0  0  0  0  0  0  0  0  0
  139.6120   68.8190  227.0090 C   0  0  0  0  0  0  0  0  0  0  0  0
  140.1000   69.3010  228.2030 C   0  0  0  0  0  0  0  0  0  0  0  0
  139.9500   68.6040  229.3500 F   0  0  0  0  0  0  0  0  0  0  0  0
  140.7620   70.5270  228.2490 C   0  0  0  0  0  0  0  0  0  0  0  0
  140.9300   71.2640  227.0810 C   0  0  0  0  0  0  0  0  0  0  0  0
  140.4440   70.7900  225.8760 C   0  0  0  0  0  0  0  0  0  0  0  0
  140.6080   71.5050  224.7480 N   0  0  0  0  0  0  0  0  0  0  0  0
  139.5720   73.6150  223.2250 H   0  0  0  0  0  0  0  0  0  0  0  0
  141.0238   73.6884  220.6080 H   0  0  0  0  0  0  0  0  0  0  0  0
  139.2247   73.7551  220.4429 H   0  0  0  0  0  0  0  0  0  0  0  0
  140.1730   75.1926  218.7596 H   0  0  0  0  0  0  0  0  0  0  0  0
  139.3123   76.6876  218.6190 H   0  0  0  0  0  0  0  0  0  0  0  0
  142.1938   76.1161  218.0997 H   0  0  0  0  0  0  0  0  0  0  0  0
  141.3090   77.6067  217.6938 H   0  0  0  0  0  0  0  0  0  0  0  0
  142.9758   76.9722  220.1292 H   0  0  0  0  0  0  0  0  0  0  0  0
  142.7161   78.5266  219.4242 H   0  0  0  0  0  0  0  0  0  0  0  0
  140.1574   78.4497  220.3498 H   0  0  0  0  0  0  0  0  0  0  0  0
  143.2449   78.9547  221.4559 H   0  0  0  0  0  0  0  0  0  0  0  0
  143.5603   80.2150  223.5520 H   0  0  0  0  0  0  0  0  0  0  0  0
  141.6186   80.4494  225.1303 H   0  0  0  0  0  0  0  0  0  0  0  0
  139.1725   78.1991  222.4915 H   0  0  0  0  0  0  0  0  0  0  0  0
  139.1058   69.4644  222.5834 H   0  0  0  0  0  0  0  0  0  0  0  0
  138.7761   68.1061  224.6388 H   0  0  0  0  0  0  0  0  0  0  0  0
  139.0880   67.8527  226.9663 H   0  0  0  0  0  0  0  0  0  0  0  0
  141.1498   70.9100  229.2045 H   0  0  0  0  0  0  0  0  0  0  0  0
  141.4533   72.2309  227.1162 H   0  0  0  0  0  0  0  0  0  0  0  0
  1  2  2  0
  2  3  1  0
  3  4  1  0
  4  5  1  0
  5  6  2  0
  5  7  1  0
  7  8  1  0
  8  9  1  0
  9 10  1  0
 10 11  1  0
 11 12  1  0
 12 13  2  0
 13 14  1  0
 14 15  2  0
 15 16  1  0
 16 17  2  0
  2 18  1  0
 18 19  2  0
 19 20  1  0
 20 21  2  0
 21 22  1  0
 22 23  2  0
 23 24  1  0
 23 25  1  0
 25 26  2  0
 26 27  1  0
 27 28  2  0
 11  7  1  0
 17 12  1  0
 28 18  1  0
 27 21  1  0
  3 29  1  0
  4 30  1  0
  4 31  1  0
  8 32  1  0
  8 33  1  0
  9 34  1  0
  9 35  1  0
 10 36  1  0
 10 37  1  0
 11 38  1  6
 13 39  1  0
 14 40  1  0
 15 41  1  0
 17 42  1  0
 19 43  1  0
 20 44  1  0
 22 45  1  0
 25 46  1  0
 26 47  1  0
M  END
>  <smiles>  (21) 
O=C(NCC(=O)N1CCCC1c1cccnc1)c1ccc2cc(F)ccc2n1

>  <score_type>  (21) 
oracle

>  <origin>  (21) 
autodockgpu

>  <m_score__min__energy>  (21) 
-8.7200000000000006

>  <m_primary>  (21) 
energy

>  <rmsd>  (21) 
1.551125168029354

>  <m_score__min__rmsd>  (21) 
1.551125168029354

>  <meeko>  (21) 
{"free_energy": -8.02, "intermolecular_energy": -9.51, "internal_energy": -1.66, "cluster_size": 25, "cluster_id": 2, "rank_in_cluster": 23}

>  <energy>  (21) 
-8.41

>  <cluster_rmsd>  (21) 
1.42

>  <cluster>  (21) 
2

$$$$

     RDKit          3D

 47 50  0  0  0  0  0  0  0  0999 V2000
  141.4470   72.6390  221.9690 O   0  0  0  0  0  0  0  0  0  0  0  0
  140.3810   72.5960  222.6360 C   0  0  0  0  0  0  0  0  0  0  0  0
  139.2700   73.4700  222.3480 N   0  0  0  0  0  0  0  0  0  0  0  0
  139.4080   74.4360  221.2390 C   0  0  0  0  0  0  0  0  0  0  0  0
  139.8580   75.7330  221.7290 C   0  0  0  0  0  0  0  0  0  0  0  0
  141.1050   76.0060  221.5630 O   0  0  0  0  0  0  0  0  0  0  0  0
  139.1010   76.7330  222.3660 N   0  0  0  0  0  0  0  0  0  0  0  0
  137.6760   76.4350  222.7370 C   0  0  0  0  0  0  0  0  0  0  0  0
  137.0170   77.7520  222.3300 C   0  0  0  0  0  0  0  0  0  0  0  0
  138.1290   78.7310  222.0130 C   0  0  0  0  0  0  0  0  0  0  0  0
  139.2780   78.0580  222.7830 C   0  0  2  0  0  0  0  0  0  0  0  0
  140.4930   78.7840  222.7830 C   0  0  0  0  0  0  0  0  0  0  0  0
  141.2290   79.1240  223.8770 C   0  0  0  0  0  0  0  0  0  0  0  0
  142.4210   79.8310  223.8270 C   0  0  0  0  0  0  0  0  0  0  0  0
  142.8990   80.2210  222.5870 C   0  0  0  0  0  0  0  0  0  0  0  0
  142.1800   79.8910  221.4890 N   0  0  0  0  0  0  0  0  0  0  0  0
  141.0310   79.2080  221.5440 C   0  0  0  0  0  0  0  0  0  0  0  0
  140.2190   71.6520  223.7340 C   0  0  0  0  0  0  0  0  0  0  0  0
  139.5350   70.4760  223.5140 C   0  0  0  0  0  0  0  0  0  0  0  0
  139.3400   69.5310  224.5040 C   0  0  0  0  0  0  0  0  0  0  0  0
  139.8640   69.8100  225.7470 C   0  0  0  0  0  0  0  0  0  0  0  0
  139.6770   68.8740  226.7500 C   0  0  0  0  0  0  0  0  0  0  0  0
  140.1930   69.1330  228.0000 C   0  0  0  0  0  0  0  0  0  0  0  0
  140.0400   68.2520  229.0130 F   0  0  0  0  0  0  0  0  0  0  0  0
  140.8890   70.3160  228.2430 C   0  0  0  0  0  0  0  0  0  0  0  0
  141.0600   71.2380  227.2160 C   0  0  0  0  0  0  0  0  0  0  0  0
  140.5460   70.9890  225.9560 C   0  0  0  0  0  0  0  0  0  0  0  0
  140.7140   71.8830  224.9650 N   0  0  0  0  0  0  0  0  0  0  0  0
  138.4070   73.4020  222.9240 H   0  0  0  0  0  0  0  0  0  0  0  0
  140.1414   74.0506  220.5154 H   0  0  0  0  0  0  0  0  0  0  0  0
  138.4255   74.5636  220.7610 H   0  0  0  0  0  0  0  0  0  0  0  0
  137.2748   75.5841  222.1669 H   0  0  0  0  0  0  0  0  0  0  0  0
  137.5209   76.1433  223.7862 H   0  0  0  0  0  0  0  0  0  0  0  0
  136.3855   77.5988  221.4424 H   0  0  0  0  0  0  0  0  0  0  0  0
  136.3786   78.1354  223.1396 H   0  0  0  0  0  0  0  0  0  0  0  0
  138.3337   78.7857  220.9336 H   0  0  0  0  0  0  0  0  0  0  0  0
  137.9276   79.7770  222.2876 H   0  0  0  0  0  0  0  0  0  0  0  0
  139.2986   78.0522  223.8828 H   0  0  0  0  0  0  0  0  0  0  0  0
  140.8537   78.8180  224.8647 H   0  0  0  0  0  0  0  0  0  0  0  0
  142.9719   80.0754  224.7472 H   0  0  0  0  0  0  0  0  0  0  0  0
  143.8393   80.7847  222.4969 H   0  0  0  0  0  0  0  0  0  0  0  0
  140.4960   78.9722  220.6122 H   0  0  0  0  0  0  0  0  0  0  0  0
  139.1280   70.2815  222.5107 H   0  0  0  0  0  0  0  0  0  0  0  0
  138.7910   68.5982  224.3079 H   0  0  0  0  0  0  0  0  0  0  0  0
  139.1272   67.9420  226.5522 H   0  0  0  0  0  0  0  0  0  0  0  0
  141.3011   70.5193  229.2424 H   0  0  0  0  0  0  0  0  0  0  0  0
  141.6081   72.1724  227.4070 H   0  0  0  0  0  0  0  0  0  0  0  0
  1  2  2  0
  2  3  1  0
  3  4  1  0
  4  5  1  0
  5  6  2  0
  5  7  1  0
  7  8  1  0
  8  9  1  0
  9 10  1  0
 10 11  1  0
 11 12  1  0
 12 13  2  0
 13 14  1  0
 14 15  2  0
 15 16  1  0
 16 17  2  0
  2 18  1  0
 18 19  2  0
 19 20  1  0
 20 21  2  0
 21 22  1  0
 22 23  2  0
 23 24  1  0
 23 25  1  0
 25 26  2  0
 26 27  1  0
 27 28  2  0
 11  7  1  0
 17 12  1  0
 28 18  1  0
 27 21  1  0
  3 29  1  0
  4 30  1  0
  4 31  1  0
  8 32  1  0
  8 33  1  0
  9 34  1  0
  9 35  1  0
 10 36  1  0
 10 37  1  0
 11 38  1  1
 13 39  1  0
 14 40  1  0
 15 41  1  0
 17 42  1  0
 19 43  1  0
 20 44  1  0
 22 45  1  0
 25 46  1  0
 26 47  1  0
M  END
>  <smiles>  (22) 
O=C(NCC(=O)N1CCCC1c1cccnc1)c1ccc2cc(F)ccc2n1

>  <score_type>  (22) 
oracle

>  <origin>  (22) 
autodockgpu

>  <m_score__min__energy>  (22) 
-8.7200000000000006

>  <m_primary>  (22) 
energy

>  <rmsd>  (22) 
2.903961624838252

>  <m_score__min__rmsd>  (22) 
2.903961624838252

>  <meeko>  (22) 
{"free_energy": -8.53, "intermolecular_energy": -10.02, "internal_energy": -1.15, "cluster_size": 25, "cluster_id": 2, "rank_in_cluster": 4}

>  <energy>  (22) 
-8.4

>  <cluster_rmsd>  (22) 
1.42

>  <cluster>  (22) 
2

$$$$

     RDKit          3D

 47 50  0  0  0  0  0  0  0  0999 V2000
  141.4960   74.7590  221.3180 O   0  0  0  0  0  0  0  0  0  0  0  0
  140.4350   75.0260  221.9390 C   0  0  0  0  0  0  0  0  0  0  0  0
  139.5180   73.9930  222.3550 N   0  0  0  0  0  0  0  0  0  0  0  0
  139.8510   72.5900  222.0330 C   0  0  0  0  0  0  0  0  0  0  0  0
  139.0200   71.6670  222.7970 C   0  0  0  0  0  0  0  0  0  0  0  0
  137.8350   72.0740  223.0920 O   0  0  0  0  0  0  0  0  0  0  0  0
  139.3500   70.3800  223.2580 N   0  0  0  0  0  0  0  0  0  0  0  0
  139.1970   69.2140  222.3230 C   0  0  0  0  0  0  0  0  0  0  0  0
  138.5830   68.1900  223.2750 C   0  0  0  0  0  0  0  0  0  0  0  0
  138.6760   68.7660  224.6740 C   0  0  0  0  0  0  0  0  0  0  0  0
  139.8020   69.7900  224.4450 C   0  0  2  0  0  0  0  0  0  0  0  0
  140.2270   70.4680  225.6120 C   0  0  0  0  0  0  0  0  0  0  0  0
  141.0340   71.5630  225.6600 C   0  0  0  0  0  0  0  0  0  0  0  0
  141.4180   72.2000  226.8300 C   0  0  0  0  0  0  0  0  0  0  0  0
  140.9540   71.6950  228.0330 C   0  0  0  0  0  0  0  0  0  0  0  0
  140.1500   70.6060  228.0050 N   0  0  0  0  0  0  0  0  0  0  0  0
  139.7830   69.9970  226.8720 C   0  0  0  0  0  0  0  0  0  0  0  0
  140.0830   76.4010  222.2700 C   0  0  0  0  0  0  0  0  0  0  0  0
  141.0830   77.3450  222.3670 C   0  0  0  0  0  0  0  0  0  0  0  0
  140.8300   78.6680  222.6760 C   0  0  0  0  0  0  0  0  0  0  0  0
  139.5150   79.0210  222.8880 C   0  0  0  0  0  0  0  0  0  0  0  0
  139.2450   80.3430  223.1990 C   0  0  0  0  0  0  0  0  0  0  0  0
  137.9370   80.7170  223.4140 C   0  0  0  0  0  0  0  0  0  0  0  0
  137.6190   81.9940  223.7200 F   0  0  0  0  0  0  0  0  0  0  0  0
  136.9110   79.7780  223.3200 C   0  0  0  0  0  0  0  0  0  0  0  0
  137.2140   78.4570  223.0070 C   0  0  0  0  0  0  0  0  0  0  0  0
  138.5230   78.0690  222.7880 C   0  0  0  0  0  0  0  0  0  0  0  0
  138.8120   76.7910  222.4850 N   0  0  0  0  0  0  0  0  0  0  0  0
  138.6520   74.2570  222.8660 H   0  0  0  0  0  0  0  0  0  0  0  0
  139.6855   72.4184  220.9592 H   0  0  0  0  0  0  0  0  0  0  0  0
  140.9045   72.4111  222.2941 H   0  0  0  0  0  0  0  0  0  0  0  0
  138.5235   69.4480  221.4854 H   0  0  0  0  0  0  0  0  0  0  0  0
  140.1256   68.8902  221.8302 H   0  0  0  0  0  0  0  0  0  0  0  0
  137.5303   68.0127  223.0097 H   0  0  0  0  0  0  0  0  0  0  0  0
  139.1159   67.2298  223.2120 H   0  0  0  0  0  0  0  0  0  0  0  0
  137.7373   69.2489  224.9834 H   0  0  0  0  0  0  0  0  0  0  0  0
  138.8612   68.0335  225.4734 H   0  0  0  0  0  0  0  0  0  0  0  0
  140.8390   69.4666  224.2718 H   0  0  0  0  0  0  0  0  0  0  0  0
  141.4060   71.9693  224.7079 H   0  0  0  0  0  0  0  0  0  0  0  0
  142.0737   73.0828  226.8034 H   0  0  0  0  0  0  0  0  0  0  0  0
  141.2316   72.1667  228.9872 H   0  0  0  0  0  0  0  0  0  0  0  0
  139.1258   69.1162  226.9195 H   0  0  0  0  0  0  0  0  0  0  0  0
  142.1231   77.0329  222.1916 H   0  0  0  0  0  0  0  0  0  0  0  0
  141.6421   79.4063  222.7494 H   0  0  0  0  0  0  0  0  0  0  0  0
  140.0586   81.0796  223.2729 H   0  0  0  0  0  0  0  0  0  0  0  0
  135.8674   80.0801  223.4924 H   0  0  0  0  0  0  0  0  0  0  0  0
  136.4055   77.7148  222.9331 H   0  0  0  0  0  0  0  0  0  0  0  0
  1  2  2  0
  2  3  1  0
  3  4  1  0
  4  5  1  0
  5  6  2  0
  5  7  1  0
  7  8  1  0
  8  9  1  0
  9 10  1  0
 10 11  1  0
 11 12  1  0
 12 13  2  0
 13 14  1  0
 14 15  2  0
 15 16  1  0
 16 17  2  0
  2 18  1  0
 18 19  2  0
 19 20  1  0
 20 21  2  0
 21 22  1  0
 22 23  2  0
 23 24  1  0
 23 25  1  0
 25 26  2  0
 26 27  1  0
 27 28  2  0
 11  7  1  0
 17 12  1  0
 28 18  1  0
 27 21  1  0
  3 29  1  0
  4 30  1  0
  4 31  1  0
  8 32  1  0
  8 33  1  0
  9 34  1  0
  9 35  1  0
 10 36  1  0
 10 37  1  0
 11 38  1  6
 13 39  1  0
 14 40  1  0
 15 41  1  0
 17 42  1  0
 19 43  1  0
 20 44  1  0
 22 45  1  0
 25 46  1  0
 26 47  1  0
M  END
>  <smiles>  (23) 
O=C(NCC(=O)N1CCCC1c1cccnc1)c1ccc2cc(F)ccc2n1

>  <score_type>  (23) 
oracle

>  <origin>  (23) 
autodockgpu

>  <m_score__min__energy>  (23) 
-8.7200000000000006

>  <m_primary>  (23) 
energy

>  <rmsd>  (23) 
8.755505592474591

>  <m_score__min__rmsd>  (23) 
8.755505592474591

>  <meeko>  (23) 
{"free_energy": -7.5, "intermolecular_energy": -8.99, "internal_energy": -1.79, "cluster_size": 11, "cluster_id": 3, "rank_in_cluster": 11}

>  <energy>  (23) 
-8.38

>  <cluster_rmsd>  (23) 
1.39

>  <cluster>  (23) 
2

$$$$

     RDKit          3D

 47 50  0  0  0  0  0  0  0  0999 V2000
  140.7800   71.7180  221.1290 O   0  0  0  0  0  0  0  0  0  0  0  0
  140.3410   72.2160  222.1970 C   0  0  0  0  0  0  0  0  0  0  0  0
  139.9330   73.5980  222.2790 N   0  0  0  0  0  0  0  0  0  0  0  0
  140.0410   74.4330  221.0660 C   0  0  0  0  0  0  0  0  0  0  0  0
  140.7410   75.6800  221.3500 C   0  0  0  0  0  0  0  0  0  0  0  0
  140.3150   76.3580  222.3580 O   0  0  0  0  0  0  0  0  0  0  0  0
  141.8280   76.2440  220.6580 N   0  0  0  0  0  0  0  0  0  0  0  0
  141.8240   77.7210  220.3840 C   0  0  0  0  0  0  0  0  0  0  0  0
  142.3390   77.7230  218.9460 C   0  0  0  0  0  0  0  0  0  0  0  0
  142.8100   76.3170  218.6350 C   0  0  0  0  0  0  0  0  0  0  0  0
  143.0210   75.8050  220.0710 C   0  0  2  0  0  0  0  0  0  0  0  0
  143.5720   74.5040  220.1580 C   0  0  0  0  0  0  0  0  0  0  0  0
  144.7270   74.1580  220.7910 C   0  0  0  0  0  0  0  0  0  0  0  0
  145.2240   72.8650  220.8560 C   0  0  0  0  0  0  0  0  0  0  0  0
  144.5040   71.8550  220.2400 C   0  0  0  0  0  0  0  0  0  0  0  0
  143.3540   72.1810  219.6070 N   0  0  0  0  0  0  0  0  0  0  0  0
  142.8790   73.4310  219.5470 C   0  0  0  0  0  0  0  0  0  0  0  0
  140.2240   71.4150  223.4080 C   0  0  0  0  0  0  0  0  0  0  0  0
  139.6360   70.1700  223.3350 C   0  0  0  0  0  0  0  0  0  0  0  0
  139.4880   69.3500  224.4380 C   0  0  0  0  0  0  0  0  0  0  0  0
  139.9590   69.8290  225.6410 C   0  0  0  0  0  0  0  0  0  0  0  0
  139.8190   69.0200  226.7550 C   0  0  0  0  0  0  0  0  0  0  0  0
  140.2830   69.4790  227.9680 C   0  0  0  0  0  0  0  0  0  0  0  0
  140.1710   68.7280  229.0860 F   0  0  0  0  0  0  0  0  0  0  0  0
  140.8810   70.7340  228.0630 C   0  0  0  0  0  0  0  0  0  0  0  0
  141.0070   71.5250  226.9260 C   0  0  0  0  0  0  0  0  0  0  0  0
  140.5450   71.0750  225.7030 C   0  0  0  0  0  0  0  0  0  0  0  0
  140.6700   71.8420  224.6050 N   0  0  0  0  0  0  0  0  0  0  0  0
  139.5760   73.9700  223.1820 H   0  0  0  0  0  0  0  0  0  0  0  0
  140.5948   73.8773  220.2950 H   0  0  0  0  0  0  0  0  0  0  0  0
  139.0266   74.6730  220.7146 H   0  0  0  0  0  0  0  0  0  0  0  0
  140.8125   78.1473  220.4564 H   0  0  0  0  0  0  0  0  0  0  0  0
  142.4135   78.3255  221.0890 H   0  0  0  0  0  0  0  0  0  0  0  0
  141.5311   78.0105  218.2571 H   0  0  0  0  0  0  0  0  0  0  0  0
  143.1608   78.4445  218.8273 H   0  0  0  0  0  0  0  0  0  0  0  0
  142.0452   75.7358  218.0990 H   0  0  0  0  0  0  0  0  0  0  0  0
  143.6887   76.2493  217.9767 H   0  0  0  0  0  0  0  0  0  0  0  0
  143.8465   76.1805  220.6935 H   0  0  0  0  0  0  0  0  0  0  0  0
  145.3031   74.9558  221.2826 H   0  0  0  0  0  0  0  0  0  0  0  0
  146.1649   72.6474  221.3827 H   0  0  0  0  0  0  0  0  0  0  0  0
  144.8584   70.8140  220.2649 H   0  0  0  0  0  0  0  0  0  0  0  0
  141.9364   73.6276  219.0152 H   0  0  0  0  0  0  0  0  0  0  0  0
  139.2701   69.8151  222.3602 H   0  0  0  0  0  0  0  0  0  0  0  0
  139.0156   68.3598  224.3589 H   0  0  0  0  0  0  0  0  0  0  0  0
  139.3465   68.0300  226.6734 H   0  0  0  0  0  0  0  0  0  0  0  0
  141.2517   71.0974  229.0328 H   0  0  0  0  0  0  0  0  0  0  0  0
  141.4779   72.5163  227.0003 H   0  0  0  0  0  0  0  0  0  0  0  0
  1  2  2  0
  2  3  1  0
  3  4  1  0
  4  5  1  0
  5  6  2  0
  5  7  1  0
  7  8  1  0
  8  9  1  0
  9 10  1  0
 10 11  1  0
 11 12  1  0
 12 13  2  0
 13 14  1  0
 14 15  2  0
 15 16  1  0
 16 17  2  0
  2 18  1  0
 18 19  2  0
 19 20  1  0
 20 21  2  0
 21 22  1  0
 22 23  2  0
 23 24  1  0
 23 25  1  0
 25 26  2  0
 26 27  1  0
 27 28  2  0
 11  7  1  0
 17 12  1  0
 28 18  1  0
 27 21  1  0
  3 29  1  0
  4 30  1  0
  4 31  1  0
  8 32  1  0
  8 33  1  0
  9 34  1  0
  9 35  1  0
 10 36  1  0
 10 37  1  0
 11 38  1  1
 13 39  1  0
 14 40  1  0
 15 41  1  0
 17 42  1  0
 19 43  1  0
 20 44  1  0
 22 45  1  0
 25 46  1  0
 26 47  1  0
M  END
>  <smiles>  (24) 
O=C(NCC(=O)N1CCCC1c1cccnc1)c1ccc2cc(F)ccc2n1

>  <score_type>  (24) 
oracle

>  <origin>  (24) 
autodockgpu

>  <m_score__min__energy>  (24) 
-8.7200000000000006

>  <m_primary>  (24) 
energy

>  <rmsd>  (24) 
2.2289750904767405

>  <m_score__min__rmsd>  (24) 
2.2289750904767405

>  <meeko>  (24) 
{"free_energy": -8.05, "intermolecular_energy": -9.54, "internal_energy": -1.72, "cluster_size": 12, "cluster_id": 1, "rank_in_cluster": 11}

>  <energy>  (24) 
-8.3

>  <cluster_rmsd>  (24) 
1.48

>  <cluster>  (24) 
2

$$$$

     RDKit          3D

 47 50  0  0  0  0  0  0  0  0999 V2000
  140.9440   71.7380  221.1440 O   0  0  0  0  0  0  0  0  0  0  0  0
  140.4290   72.2510  222.1700 C   0  0  0  0  0  0  0  0  0  0  0  0
  139.9920   73.6270  222.1940 N   0  0  0  0  0  0  0  0  0  0  0  0
  140.1650   74.4370  220.9710 C   0  0  0  0  0  0  0  0  0  0  0  0
  140.9190   75.6530  221.2520 C   0  0  0  0  0  0  0  0  0  0  0  0
  140.6650   76.2380  222.3700 O   0  0  0  0  0  0  0  0  0  0  0  0
  141.8940   76.2750  220.4520 N   0  0  0  0  0  0  0  0  0  0  0  0
  141.7090   77.7190  220.0760 C   0  0  0  0  0  0  0  0  0  0  0  0
  142.1340   77.6660  218.6100 C   0  0  0  0  0  0  0  0  0  0  0  0
  142.7410   76.2990  218.3670 C   0  0  0  0  0  0  0  0  0  0  0  0
  143.0920   75.9230  219.8170 C   0  0  2  0  0  0  0  0  0  0  0  0
  143.7880   74.6990  219.9560 C   0  0  0  0  0  0  0  0  0  0  0  0
  145.0380   74.5360  220.4730 C   0  0  0  0  0  0  0  0  0  0  0  0
  145.6780   73.3130  220.5970 C   0  0  0  0  0  0  0  0  0  0  0  0
  145.0100   72.1780  220.1700 C   0  0  0  0  0  0  0  0  0  0  0  0
  143.7670   72.3210  219.6540 N   0  0  0  0  0  0  0  0  0  0  0  0
  143.1540   73.5050  219.5370 C   0  0  0  0  0  0  0  0  0  0  0  0
  140.2460   71.4740  223.3890 C   0  0  0  0  0  0  0  0  0  0  0  0
  139.5950   70.2610  223.3200 C   0  0  0  0  0  0  0  0  0  0  0  0
  139.3830   69.4660  224.4310 C   0  0  0  0  0  0  0  0  0  0  0  0
  139.8560   69.9370  225.6370 C   0  0  0  0  0  0  0  0  0  0  0  0
  139.6520   69.1520  226.7590 C   0  0  0  0  0  0  0  0  0  0  0  0
  140.1160   69.6030  227.9740 C   0  0  0  0  0  0  0  0  0  0  0  0
  139.9440   68.8760  229.1000 F   0  0  0  0  0  0  0  0  0  0  0  0
  140.7780   70.8260  228.0650 C   0  0  0  0  0  0  0  0  0  0  0  0
  140.9670   71.5930  226.9200 C   0  0  0  0  0  0  0  0  0  0  0  0
  140.5050   71.1500  225.6940 C   0  0  0  0  0  0  0  0  0  0  0  0
  140.6910   71.8950  224.5890 N   0  0  0  0  0  0  0  0  0  0  0  0
  139.5710   74.0120  223.0630 H   0  0  0  0  0  0  0  0  0  0  0  0
  140.7067   73.8433  220.2199 H   0  0  0  0  0  0  0  0  0  0  0  0
  139.1709   74.7201  220.5946 H   0  0  0  0  0  0  0  0  0  0  0  0
  140.6624   78.0391  220.1866 H   0  0  0  0  0  0  0  0  0  0  0  0
  142.2685   78.4352  220.6957 H   0  0  0  0  0  0  0  0  0  0  0  0
  141.2593   77.8108  217.9588 H   0  0  0  0  0  0  0  0  0  0  0  0
  142.8608   78.4607  218.3858 H   0  0  0  0  0  0  0  0  0  0  0  0
  142.0162   75.5998  217.9246 H   0  0  0  0  0  0  0  0  0  0  0  0
  143.5820   76.2767  217.6583 H   0  0  0  0  0  0  0  0  0  0  0  0
  143.9058   76.4313  220.3549 H   0  0  0  0  0  0  0  0  0  0  0  0
  145.5742   75.4338  220.8143 H   0  0  0  0  0  0  0  0  0  0  0  0
  146.6898   73.2459  221.0233 H   0  0  0  0  0  0  0  0  0  0  0  0
  145.4776   71.1854  220.2481 H   0  0  0  0  0  0  0  0  0  0  0  0
  142.1419   73.5508  219.1086 H   0  0  0  0  0  0  0  0  0  0  0  0
  139.2299   69.9119  222.3428 H   0  0  0  0  0  0  0  0  0  0  0  0
  138.8604   68.5010  224.3559 H   0  0  0  0  0  0  0  0  0  0  0  0
  139.1295   68.1871  226.6811 H   0  0  0  0  0  0  0  0  0  0  0  0
  141.1491   71.1829  229.0371 H   0  0  0  0  0  0  0  0  0  0  0  0
  141.4879   72.5593  226.9902 H   0  0  0  0  0  0  0  0  0  0  0  0
  1  2  2  0
  2  3  1  0
  3  4  1  0
  4  5  1  0
  5  6  2  0
  5  7  1  0
  7  8  1  0
  8  9  1  0
  9 10  1  0
 10 11  1  0
 11 12  1  0
 12 13  2  0
 13 14  1  0
 14 15  2  0
 15 16  1  0
 16 17  2  0
  2 18  1  0
 18 19  2  0
 19 20  1  0
 20 21  2  0
 21 22  1  0
 22 23  2  0
 23 24  1  0
 23 25  1  0
 25 26  2  0
 26 27  1  0
 27 28  2  0
 11  7  1  0
 17 12  1  0
 28 18  1  0
 27 21  1  0
  3 29  1  0
  4 30  1  0
  4 31  1  0
  8 32  1  0
  8 33  1  0
  9 34  1  0
  9 35  1  0
 10 36  1  0
 10 37  1  0
 11 38  1  1
 13 39  1  0
 14 40  1  0
 15 41  1  0
 17 42  1  0
 19 43  1  0
 20 44  1  0
 22 45  1  0
 25 46  1  0
 26 47  1  0
M  END
>  <smiles>  (25) 
O=C(NCC(=O)N1CCCC1c1cccnc1)c1ccc2cc(F)ccc2n1

>  <score_type>  (25) 
oracle

>  <origin>  (25) 
autodockgpu

>  <m_score__min__energy>  (25) 
-8.7200000000000006

>  <m_primary>  (25) 
energy

>  <rmsd>  (25) 
2.202526037808547

>  <m_score__min__rmsd>  (25) 
2.202526037808547

>  <meeko>  (25) 
{"free_energy": -8.29, "intermolecular_energy": -9.78, "internal_energy": -1.64, "cluster_size": 12, "cluster_id": 1, "rank_in_cluster": 2}

>  <energy>  (25) 
-8.25

>  <cluster_rmsd>  (25) 
1.49

>  <cluster>  (25) 
2

$$$$

     RDKit          3D

 47 50  0  0  0  0  0  0  0  0999 V2000
  140.4810   71.6550  221.0800 O   0  0  0  0  0  0  0  0  0  0  0  0
  140.1520   72.1730  222.1780 C   0  0  0  0  0  0  0  0  0  0  0  0
  139.8450   73.5780  222.2940 N   0  0  0  0  0  0  0  0  0  0  0  0
  139.9260   74.4150  221.0790 C   0  0  0  0  0  0  0  0  0  0  0  0
  140.0580   75.8250  221.4230 C   0  0  0  0  0  0  0  0  0  0  0  0
  139.9300   76.1250  222.6680 O   0  0  0  0  0  0  0  0  0  0  0  0
  140.3060   76.9100  220.5630 N   0  0  0  0  0  0  0  0  0  0  0  0
  139.8350   76.8280  219.1390 C   0  0  0  0  0  0  0  0  0  0  0  0
  141.0500   77.4180  218.4250 C   0  0  0  0  0  0  0  0  0  0  0  0
  141.9610   77.9940  219.4900 C   0  0  0  0  0  0  0  0  0  0  0  0
  140.9370   78.1590  220.6280 C   0  0  2  0  0  0  0  0  0  0  0  0
  141.4440   78.7860  221.7900 C   0  0  0  0  0  0  0  0  0  0  0  0
  141.3000   78.3470  223.0710 C   0  0  0  0  0  0  0  0  0  0  0  0
  141.8230   78.9920  224.1810 C   0  0  0  0  0  0  0  0  0  0  0  0
  142.5400   80.1600  223.9820 C   0  0  0  0  0  0  0  0  0  0  0  0
  142.6940   80.6110  222.7150 N   0  0  0  0  0  0  0  0  0  0  0  0
  142.1870   79.9830  221.6480 C   0  0  0  0  0  0  0  0  0  0  0  0
  140.0640   71.3710  223.3910 C   0  0  0  0  0  0  0  0  0  0  0  0
  139.5400   70.0980  223.3180 C   0  0  0  0  0  0  0  0  0  0  0  0
  139.4240   69.2760  224.4230 C   0  0  0  0  0  0  0  0  0  0  0  0
  139.8590   69.7820  225.6280 C   0  0  0  0  0  0  0  0  0  0  0  0
  139.7500   68.9710  226.7450 C   0  0  0  0  0  0  0  0  0  0  0  0
  140.1800   69.4570  227.9590 C   0  0  0  0  0  0  0  0  0  0  0  0
  140.0960   68.7060  229.0800 F   0  0  0  0  0  0  0  0  0  0  0  0
  140.7130   70.7410  228.0550 C   0  0  0  0  0  0  0  0  0  0  0  0
  140.8100   71.5330  226.9150 C   0  0  0  0  0  0  0  0  0  0  0  0
  140.3820   71.0560  225.6900 C   0  0  0  0  0  0  0  0  0  0  0  0
  140.4780   71.8240  224.5900 N   0  0  0  0  0  0  0  0  0  0  0  0
  139.5780   73.9660  223.2210 H   0  0  0  0  0  0  0  0  0  0  0  0
  140.8001   74.1059  220.4871 H   0  0  0  0  0  0  0  0  0  0  0  0
  139.0007   74.2812  220.4994 H   0  0  0  0  0  0  0  0  0  0  0  0
  139.6447   75.7893  218.8309 H   0  0  0  0  0  0  0  0  0  0  0  0
  138.8831   77.3401  218.9350 H   0  0  0  0  0  0  0  0  0  0  0  0
  141.5762   76.6313  217.8644 H   0  0  0  0  0  0  0  0  0  0  0  0
  140.7429   78.1969  217.7115 H   0  0  0  0  0  0  0  0  0  0  0  0
  142.7687   77.2981  219.7609 H   0  0  0  0  0  0  0  0  0  0  0  0
  142.4990   78.9099  219.2043 H   0  0  0  0  0  0  0  0  0  0  0  0
  140.1479   78.9238  220.5783 H   0  0  0  0  0  0  0  0  0  0  0  0
  140.7314   77.4199  223.2357 H   0  0  0  0  0  0  0  0  0  0  0  0
  141.6726   78.5870  225.1926 H   0  0  0  0  0  0  0  0  0  0  0  0
  142.9734   80.7074  224.8320 H   0  0  0  0  0  0  0  0  0  0  0  0
  142.3499   80.4032  220.6445 H   0  0  0  0  0  0  0  0  0  0  0  0
  139.2008   69.7216  222.3417 H   0  0  0  0  0  0  0  0  0  0  0  0
  139.0030   68.2628  224.3437 H   0  0  0  0  0  0  0  0  0  0  0  0
  139.3281   67.9584  226.6639 H   0  0  0  0  0  0  0  0  0  0  0  0
  141.0552   71.1264  229.0268 H   0  0  0  0  0  0  0  0  0  0  0  0
  141.2306   72.5467  226.9891 H   0  0  0  0  0  0  0  0  0  0  0  0
  1  2  2  0
  2  3  1  0
  3  4  1  0
  4  5  1  0
  5  6  2  0
  5  7  1  0
  7  8  1  0
  8  9  1  0
  9 10  1  0
 10 11  1  0
 11 12  1  0
 12 13  2  0
 13 14  1  0
 14 15  2  0
 15 16  1  0
 16 17  2  0
  2 18  1  0
 18 19  2  0
 19 20  1  0
 20 21  2  0
 21 22  1  0
 22 23  2  0
 23 24  1  0
 23 25  1  0
 25 26  2  0
 26 27  1  0
 27 28  2  0
 11  7  1  0
 17 12  1  0
 28 18  1  0
 27 21  1  0
  3 29  1  0
  4 30  1  0
  4 31  1  0
  8 32  1  0
  8 33  1  0
  9 34  1  0
  9 35  1  0
 10 36  1  0
 10 37  1  0
 11 38  1  6
 13 39  1  0
 14 40  1  0
 15 41  1  0
 17 42  1  0
 19 43  1  0
 20 44  1  0
 22 45  1  0
 25 46  1  0
 26 47  1  0
M  END
>  <smiles>  (26) 
O=C(NCC(=O)N1CCCC1c1cccnc1)c1ccc2cc(F)ccc2n1

>  <score_type>  (26) 
oracle

>  <origin>  (26) 
autodockgpu

>  <m_score__min__energy>  (26) 
-8.7200000000000006

>  <m_primary>  (26) 
energy

>  <rmsd>  (26) 
1.5978491836563715

>  <m_score__min__rmsd>  (26) 
1.5978491836563715

>  <meeko>  (26) 
{"free_energy": -8.38, "intermolecular_energy": -9.88, "internal_energy": -1.52, "cluster_size": 25, "cluster_id": 2, "rank_in_cluster": 11}

>  <energy>  (26) 
-8.14

>  <cluster_rmsd>  (26) 
1.36

>  <cluster>  (26) 
2

$$$$

     RDKit          3D

 47 50  0  0  0  0  0  0  0  0999 V2000
  141.2110   71.6520  221.3940 O   0  0  0  0  0  0  0  0  0  0  0  0
  140.5720   72.1670  222.3470 C   0  0  0  0  0  0  0  0  0  0  0  0
  140.0740   73.5200  222.2830 N   0  0  0  0  0  0  0  0  0  0  0  0
  140.3330   74.3050  221.0590 C   0  0  0  0  0  0  0  0  0  0  0  0
  140.1640   75.7320  221.3070 C   0  0  0  0  0  0  0  0  0  0  0  0
  139.6910   76.0600  222.4590 O   0  0  0  0  0  0  0  0  0  0  0  0
  140.4510   76.8040  220.4440 N   0  0  0  0  0  0  0  0  0  0  0  0
  140.0630   76.6930  218.9970 C   0  0  0  0  0  0  0  0  0  0  0  0
  141.3110   77.2820  218.3430 C   0  0  0  0  0  0  0  0  0  0  0  0
  142.1550   77.8850  219.4480 C   0  0  0  0  0  0  0  0  0  0  0  0
  141.0670   78.0600  220.5220 C   0  0  2  0  0  0  0  0  0  0  0  0
  141.5020   78.7110  221.7000 C   0  0  0  0  0  0  0  0  0  0  0  0
  141.3630   78.2510  222.9740 C   0  0  0  0  0  0  0  0  0  0  0  0
  141.8140   78.9230  224.1000 C   0  0  0  0  0  0  0  0  0  0  0  0
  142.4470   80.1420  223.9260 C   0  0  0  0  0  0  0  0  0  0  0  0
  142.5940   80.6150  222.6660 N   0  0  0  0  0  0  0  0  0  0  0  0
  142.1570   79.9610  221.5840 C   0  0  0  0  0  0  0  0  0  0  0  0
  140.3020   71.4150  223.5650 C   0  0  0  0  0  0  0  0  0  0  0  0
  139.6250   70.2170  223.4780 C   0  0  0  0  0  0  0  0  0  0  0  0
  139.3320   69.4450  224.5870 C   0  0  0  0  0  0  0  0  0  0  0  0
  139.7480   69.9240  225.8100 C   0  0  0  0  0  0  0  0  0  0  0  0
  139.4620   69.1630  226.9300 C   0  0  0  0  0  0  0  0  0  0  0  0
  139.8690   69.6230  228.1630 C   0  0  0  0  0  0  0  0  0  0  0  0
  139.6160   68.9190  229.2880 F   0  0  0  0  0  0  0  0  0  0  0  0
  140.5540   70.8320  228.2730 C   0  0  0  0  0  0  0  0  0  0  0  0
  140.8260   71.5740  227.1280 C   0  0  0  0  0  0  0  0  0  0  0  0
  140.4230   71.1230  225.8850 C   0  0  0  0  0  0  0  0  0  0  0  0
  140.6890   71.8440  224.7810 N   0  0  0  0  0  0  0  0  0  0  0  0
  139.5500   73.9080  223.0940 H   0  0  0  0  0  0  0  0  0  0  0  0
  141.3637   74.1180  220.7232 H   0  0  0  0  0  0  0  0  0  0  0  0
  139.6135   73.9963  220.2863 H   0  0  0  0  0  0  0  0  0  0  0  0
  139.8996   75.6474  218.6970 H   0  0  0  0  0  0  0  0  0  0  0  0
  139.1200   77.1925  218.7301 H   0  0  0  0  0  0  0  0  0  0  0  0
  141.8750   76.4909  217.8272 H   0  0  0  0  0  0  0  0  0  0  0  0
  141.0384   78.0455  217.5995 H   0  0  0  0  0  0  0  0  0  0  0  0
  142.9517   77.2015  219.7769 H   0  0  0  0  0  0  0  0  0  0  0  0
  142.7008   78.8008  219.1771 H   0  0  0  0  0  0  0  0  0  0  0  0
  140.2760   78.8166  220.4130 H   0  0  0  0  0  0  0  0  0  0  0  0
  140.8603   77.2835  223.1194 H   0  0  0  0  0  0  0  0  0  0  0  0
  141.6726   78.4988  225.1050 H   0  0  0  0  0  0  0  0  0  0  0  0
  142.8210   80.7117  224.7895 H   0  0  0  0  0  0  0  0  0  0  0  0
  142.3090   80.4016  220.5876 H   0  0  0  0  0  0  0  0  0  0  0  0
  139.3054   69.8614  222.4873 H   0  0  0  0  0  0  0  0  0  0  0  0
  138.7912   68.4914  224.4969 H   0  0  0  0  0  0  0  0  0  0  0  0
  138.9206   68.2100  226.8375 H   0  0  0  0  0  0  0  0  0  0  0  0
  140.8775   71.1971  229.2589 H   0  0  0  0  0  0  0  0  0  0  0  0
  141.3667   72.5282  227.2126 H   0  0  0  0  0  0  0  0  0  0  0  0
  1  2  2  0
  2  3  1  0
  3  4  1  0
  4  5  1  0
  5  6  2  0
  5  7  1  0
  7  8  1  0
  8  9  1  0
  9 10  1  0
 10 11  1  0
 11 12  1  0
 12 13  2  0
 13 14  1  0
 14 15  2  0
 15 16  1  0
 16 17  2  0
  2 18  1  0
 18 19  2  0
 19 20  1  0
 20 21  2  0
 21 22  1  0
 22 23  2  0
 23 24  1  0
 23 25  1  0
 25 26  2  0
 26 27  1  0
 27 28  2  0
 11  7  1  0
 17 12  1  0
 28 18  1  0
 27 21  1  0
  3 29  1  0
  4 30  1  0
  4 31  1  0
  8 32  1  0
  8 33  1  0
  9 34  1  0
  9 35  1  0
 10 36  1  0
 10 37  1  0
 11 38  1  6
 13 39  1  0
 14 40  1  0
 15 41  1  0
 17 42  1  0
 19 43  1  0
 20 44  1  0
 22 45  1  0
 25 46  1  0
 26 47  1  0
M  END
>  <smiles>  (27) 
O=C(NCC(=O)N1CCCC1c1cccnc1)c1ccc2cc(F)ccc2n1

>  <score_type>  (27) 
oracle

>  <origin>  (27) 
autodockgpu

>  <m_score__min__energy>  (27) 
-8.7200000000000006

>  <m_primary>  (27) 
energy

>  <rmsd>  (27) 
1.741538582795093

>  <m_score__min__rmsd>  (27) 
1.741538582795093

>  <meeko>  (27) 
{"free_energy": -8.41, "intermolecular_energy": -9.9, "internal_energy": -1.58, "cluster_size": 25, "cluster_id": 2, "rank_in_cluster": 9}

>  <energy>  (27) 
-8.1

>  <cluster_rmsd>  (27) 
1.46

>  <cluster>  (27) 
2

$$$$

     RDKit          3D

 47 50  0  0  0  0  0  0  0  0999 V2000
  140.7590   73.9440  220.4250 O   0  0  0  0  0  0  0  0  0  0  0  0
  140.3370   74.6860  221.3490 C   0  0  0  0  0  0  0  0  0  0  0  0
  139.3980   74.2110  222.3360 N   0  0  0  0  0  0  0  0  0  0  0  0
  138.9300   72.8130  222.2420 C   0  0  0  0  0  0  0  0  0  0  0  0
  139.8550   71.9060  222.9100 C   0  0  0  0  0  0  0  0  0  0  0  0
  141.0790   72.2970  222.9960 O   0  0  0  0  0  0  0  0  0  0  0  0
  139.5820   70.6480  223.4770 N   0  0  0  0  0  0  0  0  0  0  0  0
  139.0650   69.5510  222.5890 C   0  0  0  0  0  0  0  0  0  0  0  0
  137.9920   68.9580  223.5010 C   0  0  0  0  0  0  0  0  0  0  0  0
  138.1660   69.5870  224.8680 C   0  0  0  0  0  0  0  0  0  0  0  0
  139.6290   70.0500  224.7420 C   0  0  2  0  0  0  0  0  0  0  0  0
  140.1700   70.6170  225.9210 C   0  0  0  0  0  0  0  0  0  0  0  0
  140.9420   71.7360  225.9960 C   0  0  0  0  0  0  0  0  0  0  0  0
  141.4440   72.2600  227.1780 C   0  0  0  0  0  0  0  0  0  0  0  0
  141.1460   71.6070  228.3620 C   0  0  0  0  0  0  0  0  0  0  0  0
  140.3800   70.4930  228.3060 N   0  0  0  0  0  0  0  0  0  0  0  0
  139.8980   69.9930  227.1620 C   0  0  0  0  0  0  0  0  0  0  0  0
  140.7830   76.0680  221.4650 C   0  0  0  0  0  0  0  0  0  0  0  0
  141.5760   76.6040  220.4720 C   0  0  0  0  0  0  0  0  0  0  0  0
  142.0380   77.9060  220.5110 C   0  0  0  0  0  0  0  0  0  0  0  0
  141.6720   78.6680  221.5980 C   0  0  0  0  0  0  0  0  0  0  0  0
  142.1270   79.9750  221.6510 C   0  0  0  0  0  0  0  0  0  0  0  0
  141.7730   80.7550  222.7290 C   0  0  0  0  0  0  0  0  0  0  0  0
  142.1890   82.0370  222.8290 F   0  0  0  0  0  0  0  0  0  0  0  0
  140.9720   80.2330  223.7430 C   0  0  0  0  0  0  0  0  0  0  0  0
  140.5300   78.9160  223.6620 C   0  0  0  0  0  0  0  0  0  0  0  0
  140.8790   78.1230  222.5840 C   0  0  0  0  0  0  0  0  0  0  0  0
  140.4500   76.8500  222.5100 N   0  0  0  0  0  0  0  0  0  0  0  0
  139.0750   74.8580  223.0830 H   0  0  0  0  0  0  0  0  0  0  0  0
  137.9411   72.7321  222.7169 H   0  0  0  0  0  0  0  0  0  0  0  0
  138.8716   72.5339  221.1796 H   0  0  0  0  0  0  0  0  0  0  0  0
  138.6356   69.9478  221.6572 H   0  0  0  0  0  0  0  0  0  0  0  0
  139.8264   68.8366  222.2426 H   0  0  0  0  0  0  0  0  0  0  0  0
  136.9919   69.1883  223.1050 H   0  0  0  0  0  0  0  0  0  0  0  0
  138.0915   67.8641  223.5598 H   0  0  0  0  0  0  0  0  0  0  0  0
  137.4788   70.4319  225.0227 H   0  0  0  0  0  0  0  0  0  0  0  0
  137.9530   68.9261  225.7211 H   0  0  0  0  0  0  0  0  0  0  0  0
  140.4564   69.3253  224.7268 H   0  0  0  0  0  0  0  0  0  0  0  0
  141.1832   72.2583  225.0584 H   0  0  0  0  0  0  0  0  0  0  0  0
  142.0622   73.1698  227.1749 H   0  0  0  0  0  0  0  0  0  0  0  0
  141.5226   71.9844  229.3242 H   0  0  0  0  0  0  0  0  0  0  0  0
  139.2808   69.0828  227.1865 H   0  0  0  0  0  0  0  0  0  0  0  0
  141.8514   75.9707  219.6158 H   0  0  0  0  0  0  0  0  0  0  0  0
  142.6701   78.3154  219.7092 H   0  0  0  0  0  0  0  0  0  0  0  0
  142.7588   80.3819  220.8477 H   0  0  0  0  0  0  0  0  0  0  0  0
  140.6907   80.8588  224.6028 H   0  0  0  0  0  0  0  0  0  0  0  0
  139.8980   78.5024  224.4617 H   0  0  0  0  0  0  0  0  0  0  0  0
  1  2  2  0
  2  3  1  0
  3  4  1  0
  4  5  1  0
  5  6  2  0
  5  7  1  0
  7  8  1  0
  8  9  1  0
  9 10  1  0
 10 11  1  0
 11 12  1  0
 12 13  2  0
 13 14  1  0
 14 15  2  0
 15 16  1  0
 16 17  2  0
  2 18  1  0
 18 19  2  0
 19 20  1  0
 20 21  2  0
 21 22  1  0
 22 23  2  0
 23 24  1  0
 23 25  1  0
 25 26  2  0
 26 27  1  0
 27 28  2  0
 11  7  1  0
 17 12  1  0
 28 18  1  0
 27 21  1  0
  3 29  1  0
  4 30  1  0
  4 31  1  0
  8 32  1  0
  8 33  1  0
  9 34  1  0
  9 35  1  0
 10 36  1  0
 10 37  1  0
 11 38  1  6
 13 39  1  0
 14 40  1  0
 15 41  1  0
 17 42  1  0
 19 43  1  0
 20 44  1  0
 22 45  1  0
 25 46  1  0
 26 47  1  0
M  END
>  <smiles>  (28) 
O=C(NCC(=O)N1CCCC1c1cccnc1)c1ccc2cc(F)ccc2n1

>  <score_type>  (28) 
oracle

>  <origin>  (28) 
autodockgpu

>  <m_score__min__energy>  (28) 
-8.7200000000000006

>  <m_primary>  (28) 
energy

>  <rmsd>  (28) 
8.583429235038937

>  <m_score__min__rmsd>  (28) 
8.583429235038937

>  <meeko>  (28) 
{"free_energy": -8.43, "intermolecular_energy": -9.92, "internal_energy": -1.43, "cluster_size": 11, "cluster_id": 3, "rank_in_cluster": 1}

>  <energy>  (28) 
-8.09

>  <cluster_rmsd>  (28) 
1.54

>  <cluster>  (28) 
2

$$$$

     RDKit          3D

 47 50  0  0  0  0  0  0  0  0999 V2000
  140.7950   73.8510  220.4870 O   0  0  0  0  0  0  0  0  0  0  0  0
  140.3420   74.6250  221.3700 C   0  0  0  0  0  0  0  0  0  0  0  0
  139.3650   74.1850  222.3360 N   0  0  0  0  0  0  0  0  0  0  0  0
  138.8960   72.7860  222.2700 C   0  0  0  0  0  0  0  0  0  0  0  0
  139.8600   71.8820  222.8870 C   0  0  0  0  0  0  0  0  0  0  0  0
  141.0800   72.2910  222.9330 O   0  0  0  0  0  0  0  0  0  0  0  0
  139.6280   70.6100  223.4410 N   0  0  0  0  0  0  0  0  0  0  0  0
  139.1640   69.5010  222.5400 C   0  0  0  0  0  0  0  0  0  0  0  0
  138.1030   68.8620  223.4340 C   0  0  0  0  0  0  0  0  0  0  0  0
  138.2370   69.4870  224.8080 C   0  0  0  0  0  0  0  0  0  0  0  0
  139.6820   70.0060  224.7030 C   0  0  2  0  0  0  0  0  0  0  0  0
  140.1880   70.5840  225.8920 C   0  0  0  0  0  0  0  0  0  0  0  0
  140.9730   71.6930  225.9790 C   0  0  0  0  0  0  0  0  0  0  0  0
  141.4390   72.2280  227.1700 C   0  0  0  0  0  0  0  0  0  0  0  0
  141.0860   71.6000  228.3520 C   0  0  0  0  0  0  0  0  0  0  0  0
  140.3060   70.4960  228.2850 N   0  0  0  0  0  0  0  0  0  0  0  0
  139.8590   69.9850  227.1320 C   0  0  0  0  0  0  0  0  0  0  0  0
  140.7880   76.0090  221.4570 C   0  0  0  0  0  0  0  0  0  0  0  0
  141.5940   76.5190  220.4610 C   0  0  0  0  0  0  0  0  0  0  0  0
  142.0570   77.8210  220.4730 C   0  0  0  0  0  0  0  0  0  0  0  0
  141.6780   78.6110  221.5350 C   0  0  0  0  0  0  0  0  0  0  0  0
  142.1330   79.9180  221.5610 C   0  0  0  0  0  0  0  0  0  0  0  0
  141.7650   80.7260  222.6140 C   0  0  0  0  0  0  0  0  0  0  0  0
  142.1820   82.0090  222.6870 F   0  0  0  0  0  0  0  0  0  0  0  0
  140.9500   80.2300  223.6300 C   0  0  0  0  0  0  0  0  0  0  0  0
  140.5090   78.9120  223.5770 C   0  0  0  0  0  0  0  0  0  0  0  0
  140.8710   78.0920  222.5250 C   0  0  0  0  0  0  0  0  0  0  0  0
  140.4410   76.8180  222.4770 N   0  0  0  0  0  0  0  0  0  0  0  0
  139.0160   74.8570  223.0480 H   0  0  0  0  0  0  0  0  0  0  0  0
  137.9353   72.7033  222.7994 H   0  0  0  0  0  0  0  0  0  0  0  0
  138.7788   72.5051  221.2129 H   0  0  0  0  0  0  0  0  0  0  0  0
  138.7317   69.8878  221.6054 H   0  0  0  0  0  0  0  0  0  0  0  0
  139.9560   68.8181  222.1989 H   0  0  0  0  0  0  0  0  0  0  0  0
  137.1000   69.0581  223.0273 H   0  0  0  0  0  0  0  0  0  0  0  0
  138.2422   67.7721  223.4862 H   0  0  0  0  0  0  0  0  0  0  0  0
  137.5164   70.3040  224.9605 H   0  0  0  0  0  0  0  0  0  0  0  0
  138.0394   68.8119  225.6537 H   0  0  0  0  0  0  0  0  0  0  0  0
  140.5366   69.3135  224.6936 H   0  0  0  0  0  0  0  0  0  0  0  0
  141.2559   72.1974  225.0433 H   0  0  0  0  0  0  0  0  0  0  0  0
  142.0723   73.1274  227.1756 H   0  0  0  0  0  0  0  0  0  0  0  0
  141.4309   71.9886  229.3216 H   0  0  0  0  0  0  0  0  0  0  0  0
  139.2260   69.0855  227.1477 H   0  0  0  0  0  0  0  0  0  0  0  0
  141.8794   75.8641  219.6246 H   0  0  0  0  0  0  0  0  0  0  0  0
  142.7001   78.2091  219.6694 H   0  0  0  0  0  0  0  0  0  0  0  0
  142.7760   80.3039  220.7563 H   0  0  0  0  0  0  0  0  0  0  0  0
  140.6570   80.8776  224.4695 H   0  0  0  0  0  0  0  0  0  0  0  0
  139.8668   78.5190  224.3790 H   0  0  0  0  0  0  0  0  0  0  0  0
  1  2  2  0
  2  3  1  0
  3  4  1  0
  4  5  1  0
  5  6  2  0
  5  7  1  0
  7  8  1  0
  8  9  1  0
  9 10  1  0
 10 11  1  0
 11 12  1  0
 12 13  2  0
 13 14  1  0
 14 15  2  0
 15 16  1  0
 16 17  2  0
  2 18  1  0
 18 19  2  0
 19 20  1  0
 20 21  2  0
 21 22  1  0
 22 23  2  0
 23 24  1  0
 23 25  1  0
 25 26  2  0
 26 27  1  0
 27 28  2  0
 11  7  1  0
 17 12  1  0
 28 18  1  0
 27 21  1  0
  3 29  1  0
  4 30  1  0
  4 31  1  0
  8 32  1  0
  8 33  1  0
  9 34  1  0
  9 35  1  0
 10 36  1  0
 10 37  1  0
 11 38  1  6
 13 39  1  0
 14 40  1  0
 15 41  1  0
 17 42  1  0
 19 43  1  0
 20 44  1  0
 22 45  1  0
 25 46  1  0
 26 47  1  0
M  END
>  <smiles>  (29) 
O=C(NCC(=O)N1CCCC1c1cccnc1)c1ccc2cc(F)ccc2n1

>  <score_type>  (29) 
oracle

>  <origin>  (29) 
autodockgpu

>  <m_score__min__energy>  (29) 
-8.7200000000000006

>  <m_primary>  (29) 
energy

>  <rmsd>  (29) 
8.580578022320662

>  <m_score__min__rmsd>  (29) 
8.580578022320662

>  <meeko>  (29) 
{"free_energy": -8.43, "intermolecular_energy": -9.92, "internal_energy": -1.41, "cluster_size": 11, "cluster_id": 3, "rank_in_cluster": 2}

>  <energy>  (29) 
-8.08

>  <cluster_rmsd>  (29) 
1.53

>  <cluster>  (29) 
2

$$$$

     RDKit          3D

 47 50  0  0  0  0  0  0  0  0999 V2000
  140.8330   71.7290  221.1280 O   0  0  0  0  0  0  0  0  0  0  0  0
  140.3560   72.2480  222.1700 C   0  0  0  0  0  0  0  0  0  0  0  0
  139.9600   73.6350  222.2140 N   0  0  0  0  0  0  0  0  0  0  0  0
  140.1280   74.4500  220.9940 C   0  0  0  0  0  0  0  0  0  0  0  0
  141.0180   75.5800  221.2370 C   0  0  0  0  0  0  0  0  0  0  0  0
  140.9560   76.1150  222.4060 O   0  0  0  0  0  0  0  0  0  0  0  0
  141.9400   76.1660  220.3530 N   0  0  0  0  0  0  0  0  0  0  0  0
  141.6600   77.5440  219.8220 C   0  0  0  0  0  0  0  0  0  0  0  0
  142.0670   77.3520  218.3620 C   0  0  0  0  0  0  0  0  0  0  0  0
  142.7550   76.0060  218.2610 C   0  0  0  0  0  0  0  0  0  0  0  0
  143.1490   75.8180  219.7370 C   0  0  2  0  0  0  0  0  0  0  0  0
  143.9240   74.6630  219.9980 C   0  0  0  0  0  0  0  0  0  0  0  0
  145.1580   74.6320  220.5720 C   0  0  0  0  0  0  0  0  0  0  0  0
  145.8770   73.4720  220.8160 C   0  0  0  0  0  0  0  0  0  0  0  0
  145.3090   72.2620  220.4550 C   0  0  0  0  0  0  0  0  0  0  0  0
  144.0820   72.2740  219.8830 N   0  0  0  0  0  0  0  0  0  0  0  0
  143.3940   73.3970  219.6510 C   0  0  0  0  0  0  0  0  0  0  0  0
  140.1800   71.4670  223.3870 C   0  0  0  0  0  0  0  0  0  0  0  0
  139.5480   70.2440  223.3140 C   0  0  0  0  0  0  0  0  0  0  0  0
  139.3430   69.4440  224.4220 C   0  0  0  0  0  0  0  0  0  0  0  0
  139.8020   69.9210  225.6310 C   0  0  0  0  0  0  0  0  0  0  0  0
  139.6040   69.1310  226.7510 C   0  0  0  0  0  0  0  0  0  0  0  0
  140.0560   69.5880  227.9690 C   0  0  0  0  0  0  0  0  0  0  0  0
  139.8890   68.8570  229.0930 F   0  0  0  0  0  0  0  0  0  0  0  0
  140.6980   70.8210  228.0650 C   0  0  0  0  0  0  0  0  0  0  0  0
  140.8810   71.5920  226.9220 C   0  0  0  0  0  0  0  0  0  0  0  0
  140.4320   71.1440  225.6930 C   0  0  0  0  0  0  0  0  0  0  0  0
  140.6120   71.8930  224.5890 N   0  0  0  0  0  0  0  0  0  0  0  0
  139.5710   74.0260  223.0960 H   0  0  0  0  0  0  0  0  0  0  0  0
  140.5539   73.8217  220.1978 H   0  0  0  0  0  0  0  0  0  0  0  0
  139.1434   74.8383  220.6943 H   0  0  0  0  0  0  0  0  0  0  0  0
  140.5971   77.8106  219.9181 H   0  0  0  0  0  0  0  0  0  0  0  0
  142.1825   78.3580  220.3459 H   0  0  0  0  0  0  0  0  0  0  0  0
  141.1760   77.3689  217.7172 H   0  0  0  0  0  0  0  0  0  0  0  0
  142.7391   78.1591  218.0350 H   0  0  0  0  0  0  0  0  0  0  0  0
  142.0695   75.2185  217.9147 H   0  0  0  0  0  0  0  0  0  0  0  0
  143.5859   75.9550  217.5420 H   0  0  0  0  0  0  0  0  0  0  0  0
  143.9365   76.4320  220.1983 H   0  0  0  0  0  0  0  0  0  0  0  0
  145.6146   75.5901  220.8612 H   0  0  0  0  0  0  0  0  0  0  0  0
  146.8718   73.5119  221.2837 H   0  0  0  0  0  0  0  0  0  0  0  0
  145.8411   71.3151  220.6285 H   0  0  0  0  0  0  0  0  0  0  0  0
  142.4004   73.3361  219.1831 H   0  0  0  0  0  0  0  0  0  0  0  0
  139.1927   69.8908  222.3347 H   0  0  0  0  0  0  0  0  0  0  0  0
  138.8365   68.4708  224.3427 H   0  0  0  0  0  0  0  0  0  0  0  0
  139.0962   68.1586  226.6695 H   0  0  0  0  0  0  0  0  0  0  0  0
  141.0581   71.1826  229.0395 H   0  0  0  0  0  0  0  0  0  0  0  0
  141.3869   72.5659  226.9961 H   0  0  0  0  0  0  0  0  0  0  0  0
  1  2  2  0
  2  3  1  0
  3  4  1  0
  4  5  1  0
  5  6  2  0
  5  7  1  0
  7  8  1  0
  8  9  1  0
  9 10  1  0
 10 11  1  0
 11 12  1  0
 12 13  2  0
 13 14  1  0
 14 15  2  0
 15 16  1  0
 16 17  2  0
  2 18  1  0
 18 19  2  0
 19 20  1  0
 20 21  2  0
 21 22  1  0
 22 23  2  0
 23 24  1  0
 23 25  1  0
 25 26  2  0
 26 27  1  0
 27 28  2  0
 11  7  1  0
 17 12  1  0
 28 18  1  0
 27 21  1  0
  3 29  1  0
  4 30  1  0
  4 31  1  0
  8 32  1  0
  8 33  1  0
  9 34  1  0
  9 35  1  0
 10 36  1  0
 10 37  1  0
 11 38  1  1
 13 39  1  0
 14 40  1  0
 15 41  1  0
 17 42  1  0
 19 43  1  0
 20 44  1  0
 22 45  1  0
 25 46  1  0
 26 47  1  0
M  END
>  <smiles>  (30) 
O=C(NCC(=O)N1CCCC1c1cccnc1)c1ccc2cc(F)ccc2n1

>  <score_type>  (30) 
oracle

>  <origin>  (30) 
autodockgpu

>  <m_score__min__energy>  (30) 
-8.7200000000000006

>  <m_primary>  (30) 
energy

>  <rmsd>  (30) 
2.152285150313893

>  <m_score__min__rmsd>  (30) 
2.152285150313893

>  <meeko>  (30) 
{"free_energy": -8.25, "intermolecular_energy": -9.74, "internal_energy": -1.63, "cluster_size": 12, "cluster_id": 1, "rank_in_cluster": 4}

>  <energy>  (30) 
-8.08

>  <cluster_rmsd>  (30) 
1.36

>  <cluster>  (30) 
2

$$$$

     RDKit          3D

 47 50  0  0  0  0  0  0  0  0999 V2000
  139.7170   71.6060  221.0670 O   0  0  0  0  0  0  0  0  0  0  0  0
  139.6950   72.1550  222.1980 C   0  0  0  0  0  0  0  0  0  0  0  0
  139.5740   73.5850  222.3460 N   0  0  0  0  0  0  0  0  0  0  0  0
  139.4770   74.4090  221.1250 C   0  0  0  0  0  0  0  0  0  0  0  0
  140.5220   75.4250  221.0950 C   0  0  0  0  0  0  0  0  0  0  0  0
  141.4530   75.3140  221.9770 O   0  0  0  0  0  0  0  0  0  0  0  0
  140.6440   76.5220  220.2230 N   0  0  0  0  0  0  0  0  0  0  0  0
  140.2380   76.3530  218.7860 C   0  0  0  0  0  0  0  0  0  0  0  0
  141.3810   77.0980  218.1000 C   0  0  0  0  0  0  0  0  0  0  0  0
  142.1660   77.8120  219.1820 C   0  0  0  0  0  0  0  0  0  0  0  0
  141.0910   77.8480  220.2830 C   0  0  2  0  0  0  0  0  0  0  0  0
  141.4660   78.5570  221.4490 C   0  0  0  0  0  0  0  0  0  0  0  0
  142.1790   79.7160  221.4940 C   0  0  0  0  0  0  0  0  0  0  0  0
  142.5160   80.3810  222.6630 C   0  0  0  0  0  0  0  0  0  0  0  0
  142.1050   79.8350  223.8680 C   0  0  0  0  0  0  0  0  0  0  0  0
  141.3950   78.6830  223.8420 N   0  0  0  0  0  0  0  0  0  0  0  0
  141.0730   78.0470  222.7100 C   0  0  0  0  0  0  0  0  0  0  0  0
  139.7880   71.3650  223.4190 C   0  0  0  0  0  0  0  0  0  0  0  0
  139.3160   70.0690  223.4180 C   0  0  0  0  0  0  0  0  0  0  0  0
  139.3700   69.2570  224.5350 C   0  0  0  0  0  0  0  0  0  0  0  0
  139.9230   69.7970  225.6750 C   0  0  0  0  0  0  0  0  0  0  0  0
  139.9840   68.9960  226.8030 C   0  0  0  0  0  0  0  0  0  0  0  0
  140.5330   69.5150  227.9540 C   0  0  0  0  0  0  0  0  0  0  0  0
  140.6180   68.7750  229.0820 F   0  0  0  0  0  0  0  0  0  0  0  0
  141.0160   70.8220  227.9760 C   0  0  0  0  0  0  0  0  0  0  0  0
  140.9410   71.6030  226.8270 C   0  0  0  0  0  0  0  0  0  0  0  0
  140.3910   71.0920  225.6650 C   0  0  0  0  0  0  0  0  0  0  0  0
  140.3210   71.8510  224.5560 N   0  0  0  0  0  0  0  0  0  0  0  0
  139.5590   73.9980  223.3000 H   0  0  0  0  0  0  0  0  0  0  0  0
  139.5817   73.7593  220.2435 H   0  0  0  0  0  0  0  0  0  0  0  0
  138.4990   74.9124  221.1192 H   0  0  0  0  0  0  0  0  0  0  0  0
  140.2066   75.2934  218.4923 H   0  0  0  0  0  0  0  0  0  0  0  0
  139.2310   76.7222  218.5419 H   0  0  0  0  0  0  0  0  0  0  0  0
  142.0311   76.3855  217.5711 H   0  0  0  0  0  0  0  0  0  0  0  0
  140.9916   77.8157  217.3630 H   0  0  0  0  0  0  0  0  0  0  0  0
  143.0534   77.2406  219.4918 H   0  0  0  0  0  0  0  0  0  0  0  0
  142.5802   78.7900  218.8959 H   0  0  0  0  0  0  0  0  0  0  0  0
  140.2048   78.4933  220.1926 H   0  0  0  0  0  0  0  0  0  0  0  0
  142.5094   80.1535  220.5404 H   0  0  0  0  0  0  0  0  0  0  0  0
  143.0939   81.3165  222.6344 H   0  0  0  0  0  0  0  0  0  0  0  0
  142.3495   80.3253  224.8218 H   0  0  0  0  0  0  0  0  0  0  0  0
  140.4938   77.1132  222.7597 H   0  0  0  0  0  0  0  0  0  0  0  0
  138.8796   69.6661  222.4921 H   0  0  0  0  0  0  0  0  0  0  0  0
  138.9884   68.2255  224.5145 H   0  0  0  0  0  0  0  0  0  0  0  0
  139.6012   67.9650  226.7798 H   0  0  0  0  0  0  0  0  0  0  0  0
  141.4543   71.2340  228.8969 H   0  0  0  0  0  0  0  0  0  0  0  0
  141.3220   72.6348  226.8426 H   0  0  0  0  0  0  0  0  0  0  0  0
  1  2  2  0
  2  3  1  0
  3  4  1  0
  4  5  1  0
  5  6  2  0
  5  7  1  0
  7  8  1  0
  8  9  1  0
  9 10  1  0
 10 11  1  0
 11 12  1  0
 12 13  2  0
 13 14  1  0
 14 15  2  0
 15 16  1  0
 16 17  2  0
  2 18  1  0
 18 19  2  0
 19 20  1  0
 20 21  2  0
 21 22  1  0
 22 23  2  0
 23 24  1  0
 23 25  1  0
 25 26  2  0
 26 27  1  0
 27 28  2  0
 11  7  1  0
 17 12  1  0
 28 18  1  0
 27 21  1  0
  3 29  1  0
  4 30  1  0
  4 31  1  0
  8 32  1  0
  8 33  1  0
  9 34  1  0
  9 35  1  0
 10 36  1  0
 10 37  1  0
 11 38  1  6
 13 39  1  0
 14 40  1  0
 15 41  1  0
 17 42  1  0
 19 43  1  0
 20 44  1  0
 22 45  1  0
 25 46  1  0
 26 47  1  0
M  END
>  <smiles>  (31) 
O=C(NCC(=O)N1CCCC1c1cccnc1)c1ccc2cc(F)ccc2n1

>  <score_type>  (31) 
oracle

>  <origin>  (31) 
autodockgpu

>  <m_score__min__energy>  (31) 
-8.7200000000000006

>  <m_primary>  (31) 
energy

>  <rmsd>  (31) 
1.3863798291937544

>  <m_score__min__rmsd>  (31) 
1.3863798291937544

>  <meeko>  (31) 
{"free_energy": -8.25, "intermolecular_energy": -9.74, "internal_energy": -1.34, "cluster_size": 25, "cluster_id": 2, "rank_in_cluster": 13}

>  <energy>  (31) 
-8.04

>  <cluster_rmsd>  (31) 
1.44

>  <cluster>  (31) 
2

$$$$

     RDKit          3D

 47 50  0  0  0  0  0  0  0  0999 V2000
  141.6040   72.0400  221.4920 O   0  0  0  0  0  0  0  0  0  0  0  0
  140.6800   72.3690  222.2810 C   0  0  0  0  0  0  0  0  0  0  0  0
  139.8680   73.5400  222.0530 N   0  0  0  0  0  0  0  0  0  0  0  0
  140.1450   74.3630  220.8580 C   0  0  0  0  0  0  0  0  0  0  0  0
  140.9660   75.5190  221.1980 C   0  0  0  0  0  0  0  0  0  0  0  0
  140.7710   76.0370  222.3600 O   0  0  0  0  0  0  0  0  0  0  0  0
  141.9490   76.1480  220.4130 N   0  0  0  0  0  0  0  0  0  0  0  0
  141.7930   77.6060  220.0880 C   0  0  0  0  0  0  0  0  0  0  0  0
  142.2090   77.5950  218.6190 C   0  0  0  0  0  0  0  0  0  0  0  0
  142.7850   76.2240  218.3260 C   0  0  0  0  0  0  0  0  0  0  0  0
  143.1360   75.7920  219.7600 C   0  0  2  0  0  0  0  0  0  0  0  0
  143.8080   74.5500  219.8540 C   0  0  0  0  0  0  0  0  0  0  0  0
  143.3590   73.3530  219.3850 C   0  0  0  0  0  0  0  0  0  0  0  0
  144.0580   72.1610  219.4920 C   0  0  0  0  0  0  0  0  0  0  0  0
  145.2940   72.1810  220.1160 C   0  0  0  0  0  0  0  0  0  0  0  0
  145.7560   73.3620  220.5880 N   0  0  0  0  0  0  0  0  0  0  0  0
  145.0770   74.5090  220.4800 C   0  0  0  0  0  0  0  0  0  0  0  0
  140.3850   71.5750  223.4660 C   0  0  0  0  0  0  0  0  0  0  0  0
  139.6080   70.4430  223.3400 C   0  0  0  0  0  0  0  0  0  0  0  0
  139.2860   69.6380  224.4160 C   0  0  0  0  0  0  0  0  0  0  0  0
  139.7780   70.0120  225.6470 C   0  0  0  0  0  0  0  0  0  0  0  0
  139.4630   69.2160  226.7360 C   0  0  0  0  0  0  0  0  0  0  0  0
  139.9450   69.5710  227.9760 C   0  0  0  0  0  0  0  0  0  0  0  0
  139.6690   68.8290  229.0700 F   0  0  0  0  0  0  0  0  0  0  0  0
  140.7330   70.7110  228.1250 C   0  0  0  0  0  0  0  0  0  0  0  0
  141.0320   71.4920  227.0130 C   0  0  0  0  0  0  0  0  0  0  0  0
  140.5540   71.1450  225.7620 C   0  0  0  0  0  0  0  0  0  0  0  0
  140.8450   71.9020  224.6890 N   0  0  0  0  0  0  0  0  0  0  0  0
  139.1150   73.7760  222.7300 H   0  0  0  0  0  0  0  0  0  0  0  0
  140.6765   73.7505  220.1148 H   0  0  0  0  0  0  0  0  0  0  0  0
  139.1883   74.7208  220.4497 H   0  0  0  0  0  0  0  0  0  0  0  0
  140.7540   77.9440  220.2157 H   0  0  0  0  0  0  0  0  0  0  0  0
  142.3710   78.2883  220.7286 H   0  0  0  0  0  0  0  0  0  0  0  0
  141.3344   77.7810  217.9783 H   0  0  0  0  0  0  0  0  0  0  0  0
  142.9514   78.3814  218.4177 H   0  0  0  0  0  0  0  0  0  0  0  0
  142.0427   75.5558  217.8650 H   0  0  0  0  0  0  0  0  0  0  0  0
  143.6211   76.2076  217.6114 H   0  0  0  0  0  0  0  0  0  0  0  0
  143.9634   76.2638  220.3104 H   0  0  0  0  0  0  0  0  0  0  0  0
  142.3775   73.3307  218.8888 H   0  0  0  0  0  0  0  0  0  0  0  0
  143.6422   71.2244  219.0921 H   0  0  0  0  0  0  0  0  0  0  0  0
  145.8854   71.2600  220.2252 H   0  0  0  0  0  0  0  0  0  0  0  0
  145.5114   75.4353  220.8840 H   0  0  0  0  0  0  0  0  0  0  0  0
  139.2296   70.1700  222.3439 H   0  0  0  0  0  0  0  0  0  0  0  0
  138.6644   68.7386  224.2949 H   0  0  0  0  0  0  0  0  0  0  0  0
  138.8400   68.3179  226.6126 H   0  0  0  0  0  0  0  0  0  0  0  0
  141.1166   70.9919  229.1169 H   0  0  0  0  0  0  0  0  0  0  0  0
  141.6532   72.3923  227.1295 H   0  0  0  0  0  0  0  0  0  0  0  0
  1  2  2  0
  2  3  1  0
  3  4  1  0
  4  5  1  0
  5  6  2  0
  5  7  1  0
  7  8  1  0
  8  9  1  0
  9 10  1  0
 10 11  1  0
 11 12  1  0
 12 13  2  0
 13 14  1  0
 14 15  2  0
 15 16  1  0
 16 17  2  0
  2 18  1  0
 18 19  2  0
 19 20  1  0
 20 21  2  0
 21 22  1  0
 22 23  2  0
 23 24  1  0
 23 25  1  0
 25 26  2  0
 26 27  1  0
 27 28  2  0
 11  7  1  0
 17 12  1  0
 28 18  1  0
 27 21  1  0
  3 29  1  0
  4 30  1  0
  4 31  1  0
  8 32  1  0
  8 33  1  0
  9 34  1  0
  9 35  1  0
 10 36  1  0
 10 37  1  0
 11 38  1  1
 13 39  1  0
 14 40  1  0
 15 41  1  0
 17 42  1  0
 19 43  1  0
 20 44  1  0
 22 45  1  0
 25 46  1  0
 26 47  1  0
M  END
>  <smiles>  (32) 
O=C(NCC(=O)N1CCCC1c1cccnc1)c1ccc2cc(F)ccc2n1

>  <score_type>  (32) 
oracle

>  <origin>  (32) 
autodockgpu

>  <m_score__min__energy>  (32) 
-8.7200000000000006

>  <m_primary>  (32) 
energy

>  <rmsd>  (32) 
2.263717481525246

>  <m_score__min__rmsd>  (32) 
2.263717481525246

>  <meeko>  (32) 
{"free_energy": -8.22, "intermolecular_energy": -9.71, "internal_energy": -1.52, "cluster_size": 12, "cluster_id": 1, "rank_in_cluster": 7}

>  <energy>  (32) 
-8.03

>  <cluster_rmsd>  (32) 
1.51

>  <cluster>  (32) 
2

$$$$

     RDKit          3D

 47 50  0  0  0  0  0  0  0  0999 V2000
  140.5320   71.6600  221.0830 O   0  0  0  0  0  0  0  0  0  0  0  0
  140.1820   72.1830  222.1730 C   0  0  0  0  0  0  0  0  0  0  0  0
  139.8640   73.5870  222.2740 N   0  0  0  0  0  0  0  0  0  0  0  0
  139.9600   74.4160  221.0560 C   0  0  0  0  0  0  0  0  0  0  0  0
  140.6330   75.6790  221.3350 C   0  0  0  0  0  0  0  0  0  0  0  0
  140.2030   76.3440  222.3500 O   0  0  0  0  0  0  0  0  0  0  0  0
  141.6970   76.2720  220.6310 N   0  0  0  0  0  0  0  0  0  0  0  0
  141.6260   77.7380  220.3100 C   0  0  0  0  0  0  0  0  0  0  0  0
  142.1490   77.7180  218.8750 C   0  0  0  0  0  0  0  0  0  0  0  0
  142.6880   76.3270  218.6120 C   0  0  0  0  0  0  0  0  0  0  0  0
  142.9130   75.8710  220.0650 C   0  0  2  0  0  0  0  0  0  0  0  0
  143.5240   74.6010  220.1950 C   0  0  0  0  0  0  0  0  0  0  0  0
  142.9050   73.3930  220.0880 C   0  0  0  0  0  0  0  0  0  0  0  0
  143.5480   72.1720  220.2150 C   0  0  0  0  0  0  0  0  0  0  0  0
  144.9090   72.1720  220.4690 C   0  0  0  0  0  0  0  0  0  0  0  0
  145.5420   73.3640  220.5790 N   0  0  0  0  0  0  0  0  0  0  0  0
  144.9150   74.5390  220.4540 C   0  0  0  0  0  0  0  0  0  0  0  0
  140.0790   71.3870  223.3890 C   0  0  0  0  0  0  0  0  0  0  0  0
  139.5450   70.1180  223.3180 C   0  0  0  0  0  0  0  0  0  0  0  0
  139.4140   69.3020  224.4260 C   0  0  0  0  0  0  0  0  0  0  0  0
  139.8450   69.8110  225.6310 C   0  0  0  0  0  0  0  0  0  0  0  0
  139.7210   69.0060  226.7510 C   0  0  0  0  0  0  0  0  0  0  0  0
  140.1460   69.4940  227.9660 C   0  0  0  0  0  0  0  0  0  0  0  0
  140.0480   68.7500  229.0900 F   0  0  0  0  0  0  0  0  0  0  0  0
  140.6890   70.7750  228.0600 C   0  0  0  0  0  0  0  0  0  0  0  0
  140.8000   71.5600  226.9170 C   0  0  0  0  0  0  0  0  0  0  0  0
  140.3770   71.0810  225.6910 C   0  0  0  0  0  0  0  0  0  0  0  0
  140.4870   71.8430  224.5880 N   0  0  0  0  0  0  0  0  0  0  0  0
  139.5800   73.9780  223.1940 H   0  0  0  0  0  0  0  0  0  0  0  0
  140.5285   73.8668  220.2910 H   0  0  0  0  0  0  0  0  0  0  0  0
  138.9425   74.6327  220.6986 H   0  0  0  0  0  0  0  0  0  0  0  0
  140.5954   78.1188  220.3641 H   0  0  0  0  0  0  0  0  0  0  0  0
  142.1824   78.3915  220.9980 H   0  0  0  0  0  0  0  0  0  0  0  0
  141.3325   77.9443  218.1735 H   0  0  0  0  0  0  0  0  0  0  0  0
  142.9363   78.4736  218.7366 H   0  0  0  0  0  0  0  0  0  0  0  0
  141.9553   75.6935  218.0906 H   0  0  0  0  0  0  0  0  0  0  0  0
  143.5736   76.2803  217.9612 H   0  0  0  0  0  0  0  0  0  0  0  0
  143.7151   76.3039  220.6809 H   0  0  0  0  0  0  0  0  0  0  0  0
  141.8234   73.3858  219.8876 H   0  0  0  0  0  0  0  0  0  0  0  0
  142.9919   71.2280  220.1166 H   0  0  0  0  0  0  0  0  0  0  0  0
  145.4621   71.2275  220.5787 H   0  0  0  0  0  0  0  0  0  0  0  0
  145.4890   75.4720  220.5540 H   0  0  0  0  0  0  0  0  0  0  0  0
  139.2099   69.7398  222.3409 H   0  0  0  0  0  0  0  0  0  0  0  0
  138.9850   68.2920  224.3488 H   0  0  0  0  0  0  0  0  0  0  0  0
  139.2913   67.9965  226.6713 H   0  0  0  0  0  0  0  0  0  0  0  0
  141.0275   71.1624  229.0323 H   0  0  0  0  0  0  0  0  0  0  0  0
  141.2281   72.5707  226.9892 H   0  0  0  0  0  0  0  0  0  0  0  0
  1  2  2  0
  2  3  1  0
  3  4  1  0
  4  5  1  0
  5  6  2  0
  5  7  1  0
  7  8  1  0
  8  9  1  0
  9 10  1  0
 10 11  1  0
 11 12  1  0
 12 13  2  0
 13 14  1  0
 14 15  2  0
 15 16  1  0
 16 17  2  0
  2 18  1  0
 18 19  2  0
 19 20  1  0
 20 21  2  0
 21 22  1  0
 22 23  2  0
 23 24  1  0
 23 25  1  0
 25 26  2  0
 26 27  1  0
 27 28  2  0
 11  7  1  0
 17 12  1  0
 28 18  1  0
 27 21  1  0
  3 29  1  0
  4 30  1  0
  4 31  1  0
  8 32  1  0
  8 33  1  0
  9 34  1  0
  9 35  1  0
 10 36  1  0
 10 37  1  0
 11 38  1  1
 13 39  1  0
 14 40  1  0
 15 41  1  0
 17 42  1  0
 19 43  1  0
 20 44  1  0
 22 45  1  0
 25 46  1  0
 26 47  1  0
M  END
>  <smiles>  (33) 
O=C(NCC(=O)N1CCCC1c1cccnc1)c1ccc2cc(F)ccc2n1

>  <score_type>  (33) 
oracle

>  <origin>  (33) 
autodockgpu

>  <m_score__min__energy>  (33) 
-8.7200000000000006

>  <m_primary>  (33) 
energy

>  <rmsd>  (33) 
2.1431084628597086

>  <m_score__min__rmsd>  (33) 
2.1431084628597086

>  <meeko>  (33) 
{"free_energy": -8.09, "intermolecular_energy": -9.58, "internal_energy": -1.71, "cluster_size": 12, "cluster_id": 1, "rank_in_cluster": 10}

>  <energy>  (33) 
-8.03

>  <cluster_rmsd>  (33) 
1.5

>  <cluster>  (33) 
2

$$$$

     RDKit          3D

 47 50  0  0  0  0  0  0  0  0999 V2000
  141.0030   71.7870  221.2010 O   0  0  0  0  0  0  0  0  0  0  0  0
  140.4340   72.2680  222.2150 C   0  0  0  0  0  0  0  0  0  0  0  0
  139.9320   73.6200  222.2330 N   0  0  0  0  0  0  0  0  0  0  0  0
  140.1000   74.4460  221.0200 C   0  0  0  0  0  0  0  0  0  0  0  0
  140.8850   75.6410  221.3050 C   0  0  0  0  0  0  0  0  0  0  0  0
  140.6470   76.2290  222.4250 O   0  0  0  0  0  0  0  0  0  0  0  0
  141.8770   76.2400  220.5070 N   0  0  0  0  0  0  0  0  0  0  0  0
  141.7310   77.6890  220.1380 C   0  0  0  0  0  0  0  0  0  0  0  0
  142.1550   77.6310  218.6720 C   0  0  0  0  0  0  0  0  0  0  0  0
  142.7250   76.2490  218.4230 C   0  0  0  0  0  0  0  0  0  0  0  0
  143.0650   75.8580  219.8720 C   0  0  2  0  0  0  0  0  0  0  0  0
  143.7290   74.6150  220.0070 C   0  0  0  0  0  0  0  0  0  0  0  0
  143.2110   73.3890  219.7200 C   0  0  0  0  0  0  0  0  0  0  0  0
  143.9040   72.1970  219.8600 C   0  0  0  0  0  0  0  0  0  0  0  0
  145.2090   72.2480  220.3210 C   0  0  0  0  0  0  0  0  0  0  0  0
  145.7400   73.4590  220.6100 N   0  0  0  0  0  0  0  0  0  0  0  0
  145.0660   74.6060  220.4720 C   0  0  0  0  0  0  0  0  0  0  0  0
  140.2550   71.4750  223.4240 C   0  0  0  0  0  0  0  0  0  0  0  0
  139.6090   70.2600  223.3400 C   0  0  0  0  0  0  0  0  0  0  0  0
  139.4010   69.4500  224.4410 C   0  0  0  0  0  0  0  0  0  0  0  0
  139.8720   69.9080  225.6520 C   0  0  0  0  0  0  0  0  0  0  0  0
  139.6710   69.1080  226.7640 C   0  0  0  0  0  0  0  0  0  0  0  0
  140.1340   69.5460  227.9850 C   0  0  0  0  0  0  0  0  0  0  0  0
  139.9650   68.8040  229.1020 F   0  0  0  0  0  0  0  0  0  0  0  0
  140.7900   70.7710  228.0910 C   0  0  0  0  0  0  0  0  0  0  0  0
  140.9760   71.5530  226.9560 C   0  0  0  0  0  0  0  0  0  0  0  0
  140.5160   71.1240  225.7240 C   0  0  0  0  0  0  0  0  0  0  0  0
  140.6980   71.8820  224.6280 N   0  0  0  0  0  0  0  0  0  0  0  0
  139.4680   73.9790  223.0920 H   0  0  0  0  0  0  0  0  0  0  0  0
  140.6147   73.8530  220.2497 H   0  0  0  0  0  0  0  0  0  0  0  0
  139.1054   74.7565  220.6675 H   0  0  0  0  0  0  0  0  0  0  0  0
  140.6934   78.0366  220.2498 H   0  0  0  0  0  0  0  0  0  0  0  0
  142.3092   78.3872  220.7611 H   0  0  0  0  0  0  0  0  0  0  0  0
  141.2848   77.8023  218.0212 H   0  0  0  0  0  0  0  0  0  0  0  0
  142.9031   78.4067  218.4516 H   0  0  0  0  0  0  0  0  0  0  0  0
  141.9818   75.5714  217.9775 H   0  0  0  0  0  0  0  0  0  0  0  0
  143.5652   76.2067  217.7142 H   0  0  0  0  0  0  0  0  0  0  0  0
  143.8918   76.3416  220.4128 H   0  0  0  0  0  0  0  0  0  0  0  0
  142.1751   73.3415  219.3531 H   0  0  0  0  0  0  0  0  0  0  0  0
  143.4301   71.2359  219.6116 H   0  0  0  0  0  0  0  0  0  0  0  0
  145.7986   71.3282  220.4489 H   0  0  0  0  0  0  0  0  0  0  0  0
  145.5582   75.5570  220.7237 H   0  0  0  0  0  0  0  0  0  0  0  0
  139.2448   69.9218  222.3587 H   0  0  0  0  0  0  0  0  0  0  0  0
  138.8829   68.4836  224.3540 H   0  0  0  0  0  0  0  0  0  0  0  0
  139.1521   68.1423  226.6742 H   0  0  0  0  0  0  0  0  0  0  0  0
  141.1589   71.1177  229.0676 H   0  0  0  0  0  0  0  0  0  0  0  0
  141.4930   72.5204  227.0387 H   0  0  0  0  0  0  0  0  0  0  0  0
  1  2  2  0
  2  3  1  0
  3  4  1  0
  4  5  1  0
  5  6  2  0
  5  7  1  0
  7  8  1  0
  8  9  1  0
  9 10  1  0
 10 11  1  0
 11 12  1  0
 12 13  2  0
 13 14  1  0
 14 15  2  0
 15 16  1  0
 16 17  2  0
  2 18  1  0
 18 19  2  0
 19 20  1  0
 20 21  2  0
 21 22  1  0
 22 23  2  0
 23 24  1  0
 23 25  1  0
 25 26  2  0
 26 27  1  0
 27 28  2  0
 11  7  1  0
 17 12  1  0
 28 18  1  0
 27 21  1  0
  3 29  1  0
  4 30  1  0
  4 31  1  0
  8 32  1  0
  8 33  1  0
  9 34  1  0
  9 35  1  0
 10 36  1  0
 10 37  1  0
 11 38  1  1
 13 39  1  0
 14 40  1  0
 15 41  1  0
 17 42  1  0
 19 43  1  0
 20 44  1  0
 22 45  1  0
 25 46  1  0
 26 47  1  0
M  END
>  <smiles>  (34) 
O=C(NCC(=O)N1CCCC1c1cccnc1)c1ccc2cc(F)ccc2n1

>  <score_type>  (34) 
oracle

>  <origin>  (34) 
autodockgpu

>  <m_score__min__energy>  (34) 
-8.7200000000000006

>  <m_primary>  (34) 
energy

>  <rmsd>  (34) 
2.200184147113689

>  <m_score__min__rmsd>  (34) 
2.200184147113689

>  <meeko>  (34) 
{"free_energy": -8.24, "intermolecular_energy": -9.73, "internal_energy": -1.64, "cluster_size": 12, "cluster_id": 1, "rank_in_cluster": 6}

>  <energy>  (34) 
-8.02

>  <cluster_rmsd>  (34) 
1.55

>  <cluster>  (34) 
2

$$$$

     RDKit          3D

 47 50  0  0  0  0  0  0  0  0999 V2000
  137.2840   75.5470  222.0840 O   0  0  0  0  0  0  0  0  0  0  0  0
  138.5140   75.7290  222.2770 C   0  0  0  0  0  0  0  0  0  0  0  0
  139.4590   74.6390  222.2270 N   0  0  0  0  0  0  0  0  0  0  0  0
  138.9490   73.2820  221.9420 C   0  0  0  0  0  0  0  0  0  0  0  0
  139.7900   72.2670  222.5660 C   0  0  0  0  0  0  0  0  0  0  0  0
  141.0250   72.5790  222.7470 O   0  0  0  0  0  0  0  0  0  0  0  0
  139.4220   70.9790  222.9950 N   0  0  0  0  0  0  0  0  0  0  0  0
  138.8460   70.0180  221.9950 C   0  0  0  0  0  0  0  0  0  0  0  0
  137.7210   69.4110  222.8300 C   0  0  0  0  0  0  0  0  0  0  0  0
  137.9160   69.8820  224.2570 C   0  0  0  0  0  0  0  0  0  0  0  0
  139.4090   70.2520  224.1930 C   0  0  2  0  0  0  0  0  0  0  0  0
  139.9690   70.6550  225.4280 C   0  0  0  0  0  0  0  0  0  0  0  0
  140.8170   71.7020  225.6250 C   0  0  0  0  0  0  0  0  0  0  0  0
  141.3360   72.0650  226.8590 C   0  0  0  0  0  0  0  0  0  0  0  0
  140.9720   71.3180  227.9670 C   0  0  0  0  0  0  0  0  0  0  0  0
  140.1290   70.2740  227.7890 N   0  0  0  0  0  0  0  0  0  0  0  0
  139.6320   69.9300  226.5960 C   0  0  0  0  0  0  0  0  0  0  0  0
  139.0430   77.0560  222.5580 C   0  0  0  0  0  0  0  0  0  0  0  0
  138.1680   78.1120  222.6970 C   0  0  0  0  0  0  0  0  0  0  0  0
  138.5920   79.4010  222.9650 C   0  0  0  0  0  0  0  0  0  0  0  0
  139.9490   79.5990  223.0910 C   0  0  0  0  0  0  0  0  0  0  0  0
  140.3900   80.8830  223.3600 C   0  0  0  0  0  0  0  0  0  0  0  0
  141.7430   81.1040  223.4910 C   0  0  0  0  0  0  0  0  0  0  0  0
  142.2260   82.3380  223.7530 F   0  0  0  0  0  0  0  0  0  0  0  0
  142.6450   80.0500  223.3550 C   0  0  0  0  0  0  0  0  0  0  0  0
  142.1720   78.7700  223.0840 C   0  0  0  0  0  0  0  0  0  0  0  0
  140.8150   78.5360  222.9510 C   0  0  0  0  0  0  0  0  0  0  0  0
  140.3620   77.2970  222.6900 N   0  0  0  0  0  0  0  0  0  0  0  0
  140.4680   74.8330  222.3920 H   0  0  0  0  0  0  0  0  0  0  0  0
  137.9254   73.1924  222.3346 H   0  0  0  0  0  0  0  0  0  0  0  0
  138.9587   73.1249  220.8533 H   0  0  0  0  0  0  0  0  0  0  0  0
  138.4599   70.5370  221.1053 H   0  0  0  0  0  0  0  0  0  0  0  0
  139.5624   69.2915  221.5841 H   0  0  0  0  0  0  0  0  0  0  0  0
  136.7456   69.7504  222.4513 H   0  0  0  0  0  0  0  0  0  0  0  0
  137.7439   68.3126  222.7754 H   0  0  0  0  0  0  0  0  0  0  0  0
  137.2861   70.7524  224.4928 H   0  0  0  0  0  0  0  0  0  0  0  0
  137.6445   69.1530  225.0347 H   0  0  0  0  0  0  0  0  0  0  0  0
  140.1856   69.4773  224.1109 H   0  0  0  0  0  0  0  0  0  0  0  0
  141.1095   72.2988  224.7485 H   0  0  0  0  0  0  0  0  0  0  0  0
  142.0180   72.9227  226.9550 H   0  0  0  0  0  0  0  0  0  0  0  0
  141.3582   71.5668  228.9665 H   0  0  0  0  0  0  0  0  0  0  0  0
  138.9504   69.0698  226.5213 H   0  0  0  0  0  0  0  0  0  0  0  0
  137.0898   77.9220  222.5906 H   0  0  0  0  0  0  0  0  0  0  0  0
  137.8776   80.2305  223.0726 H   0  0  0  0  0  0  0  0  0  0  0  0
  139.6737   81.7109  223.4671 H   0  0  0  0  0  0  0  0  0  0  0  0
  143.7251   80.2293  223.4614 H   0  0  0  0  0  0  0  0  0  0  0  0
  142.8826   77.9375  222.9746 H   0  0  0  0  0  0  0  0  0  0  0  0
  1  2  2  0
  2  3  1  0
  3  4  1  0
  4  5  1  0
  5  6  2  0
  5  7  1  0
  7  8  1  0
  8  9  1  0
  9 10  1  0
 10 11  1  0
 11 12  1  0
 12 13  2  0
 13 14  1  0
 14 15  2  0
 15 16  1  0
 16 17  2  0
  2 18  1  0
 18 19  2  0
 19 20  1  0
 20 21  2  0
 21 22  1  0
 22 23  2  0
 23 24  1  0
 23 25  1  0
 25 26  2  0
 26 27  1  0
 27 28  2  0
 11  7  1  0
 17 12  1  0
 28 18  1  0
 27 21  1  0
  3 29  1  0
  4 30  1  0
  4 31  1  0
  8 32  1  0
  8 33  1  0
  9 34  1  0
  9 35  1  0
 10 36  1  0
 10 37  1  0
 11 38  1  6
 13 39  1  0
 14 40  1  0
 15 41  1  0
 17 42  1  0
 19 43  1  0
 20 44  1  0
 22 45  1  0
 25 46  1  0
 26 47  1  0
M  END
>  <smiles>  (35) 
O=C(NCC(=O)N1CCCC1c1cccnc1)c1ccc2cc(F)ccc2n1

>  <score_type>  (35) 
oracle

>  <origin>  (35) 
autodockgpu

>  <m_score__min__energy>  (35) 
-8.7200000000000006

>  <m_primary>  (35) 
energy

>  <rmsd>  (35) 
8.571786291048399

>  <m_score__min__rmsd>  (35) 
8.571786291048399

>  <meeko>  (35) 
{"free_energy": -7.8, "intermolecular_energy": -9.29, "internal_energy": -1.8, "cluster_size": 11, "cluster_id": 3, "rank_in_cluster": 9}

>  <energy>  (35) 
-8.02

>  <cluster_rmsd>  (35) 
1.43

>  <cluster>  (35) 
2

$$$$

     RDKit          3D

 47 50  0  0  0  0  0  0  0  0999 V2000
  140.1020   70.9840  220.9460 O   0  0  0  0  0  0  0  0  0  0  0  0
  140.3260   71.5950  222.0230 C   0  0  0  0  0  0  0  0  0  0  0  0
  140.7700   72.9670  222.0400 N   0  0  0  0  0  0  0  0  0  0  0  0
  140.9630   73.6570  220.7480 C   0  0  0  0  0  0  0  0  0  0  0  0
  141.4330   75.0220  220.9480 C   0  0  0  0  0  0  0  0  0  0  0  0
  140.9810   75.6360  221.9860 O   0  0  0  0  0  0  0  0  0  0  0  0
  142.3210   75.7620  220.1480 N   0  0  0  0  0  0  0  0  0  0  0  0
  141.9230   77.1430  219.7090 C   0  0  0  0  0  0  0  0  0  0  0  0
  142.3960   77.1050  218.2580 C   0  0  0  0  0  0  0  0  0  0  0  0
  143.2180   75.8440  218.0850 C   0  0  0  0  0  0  0  0  0  0  0  0
  143.5790   75.5810  219.5580 C   0  0  2  0  0  0  0  0  0  0  0  0
  144.4550   74.4900  219.7640 C   0  0  0  0  0  0  0  0  0  0  0  0
  145.0450   74.1390  220.9400 C   0  0  0  0  0  0  0  0  0  0  0  0
  145.8920   73.0530  221.0960 C   0  0  0  0  0  0  0  0  0  0  0  0
  146.1610   72.2680  219.9870 C   0  0  0  0  0  0  0  0  0  0  0  0
  145.5840   72.6020  218.8090 N   0  0  0  0  0  0  0  0  0  0  0  0
  144.7660   73.6510  218.6660 C   0  0  0  0  0  0  0  0  0  0  0  0
  140.1430   70.9380  223.3110 C   0  0  0  0  0  0  0  0  0  0  0  0
  139.4780   69.7320  223.3610 C   0  0  0  0  0  0  0  0  0  0  0  0
  139.2650   69.0480  224.5440 C   0  0  0  0  0  0  0  0  0  0  0  0
  139.7510   69.6250  225.6960 C   0  0  0  0  0  0  0  0  0  0  0  0
  139.5460   68.9530  226.8890 C   0  0  0  0  0  0  0  0  0  0  0  0
  140.0240   69.5110  228.0530 C   0  0  0  0  0  0  0  0  0  0  0  0
  139.8520   68.8960  229.2440 F   0  0  0  0  0  0  0  0  0  0  0  0
  140.6990   70.7300  228.0240 C   0  0  0  0  0  0  0  0  0  0  0  0
  140.8890   71.3830  226.8100 C   0  0  0  0  0  0  0  0  0  0  0  0
  140.4140   70.8310  225.6340 C   0  0  0  0  0  0  0  0  0  0  0  0
  140.6010   71.4650  224.4630 N   0  0  0  0  0  0  0  0  0  0  0  0
  140.9440   73.4350  222.9520 H   0  0  0  0  0  0  0  0  0  0  0  0
  141.7054   73.1048  220.1531 H   0  0  0  0  0  0  0  0  0  0  0  0
  139.9970   73.6932  220.2232 H   0  0  0  0  0  0  0  0  0  0  0  0
  140.8362   77.2970  219.7804 H   0  0  0  0  0  0  0  0  0  0  0  0
  142.3435   77.9608  220.3127 H   0  0  0  0  0  0  0  0  0  0  0  0
  141.5299   77.0857  217.5801 H   0  0  0  0  0  0  0  0  0  0  0  0
  142.9953   77.9963  218.0202 H   0  0  0  0  0  0  0  0  0  0  0  0
  142.6265   75.0231  217.6534 H   0  0  0  0  0  0  0  0  0  0  0  0
  144.0733   75.9298  217.3986 H   0  0  0  0  0  0  0  0  0  0  0  0
  144.2856   76.2304  220.0956 H   0  0  0  0  0  0  0  0  0  0  0  0
  144.8356   74.7583  221.8247 H   0  0  0  0  0  0  0  0  0  0  0  0
  146.3385   72.8208  222.0741 H   0  0  0  0  0  0  0  0  0  0  0  0
  146.8266   71.3954  220.0617 H   0  0  0  0  0  0  0  0  0  0  0  0
  144.3280   73.8653  217.6800 H   0  0  0  0  0  0  0  0  0  0  0  0
  139.1020   69.2965  222.4235 H   0  0  0  0  0  0  0  0  0  0  0  0
  138.7314   68.0863  224.5638 H   0  0  0  0  0  0  0  0  0  0  0  0
  139.0115   67.9918  226.9063 H   0  0  0  0  0  0  0  0  0  0  0  0
  141.0796   71.1736  228.9559 H   0  0  0  0  0  0  0  0  0  0  0  0
  141.4210   72.3455  226.7853 H   0  0  0  0  0  0  0  0  0  0  0  0
  1  2  2  0
  2  3  1  0
  3  4  1  0
  4  5  1  0
  5  6  2  0
  5  7  1  0
  7  8  1  0
  8  9  1  0
  9 10  1  0
 10 11  1  0
 11 12  1  0
 12 13  2  0
 13 14  1  0
 14 15  2  0
 15 16  1  0
 16 17  2  0
  2 18  1  0
 18 19  2  0
 19 20  1  0
 20 21  2  0
 21 22  1  0
 22 23  2  0
 23 24  1  0
 23 25  1  0
 25 26  2  0
 26 27  1  0
 27 28  2  0
 11  7  1  0
 17 12  1  0
 28 18  1  0
 27 21  1  0
  3 29  1  0
  4 30  1  0
  4 31  1  0
  8 32  1  0
  8 33  1  0
  9 34  1  0
  9 35  1  0
 10 36  1  0
 10 37  1  0
 11 38  1  1
 13 39  1  0
 14 40  1  0
 15 41  1  0
 17 42  1  0
 19 43  1  0
 20 44  1  0
 22 45  1  0
 25 46  1  0
 26 47  1  0
M  END
>  <smiles>  (36) 
O=C(NCC(=O)N1CCCC1c1cccnc1)c1ccc2cc(F)ccc2n1

>  <score_type>  (36) 
oracle

>  <origin>  (36) 
autodockgpu

>  <m_score__min__energy>  (36) 
-8.7200000000000006

>  <m_primary>  (36) 
energy

>  <rmsd>  (36) 
2.2973759294608405

>  <m_score__min__rmsd>  (36) 
2.2973759294608405

>  <meeko>  (36) 
{"free_energy": -8.11, "intermolecular_energy": -9.6, "internal_energy": -1.78, "cluster_size": 12, "cluster_id": 1, "rank_in_cluster": 9}

>  <energy>  (36) 
-7.96

>  <cluster_rmsd>  (36) 
1.47

>  <cluster>  (36) 
2

$$$$

     RDKit          3D

 47 50  0  0  0  0  0  0  0  0999 V2000
  139.7820   71.0260  221.1560 O   0  0  0  0  0  0  0  0  0  0  0  0
  139.7440   71.5950  222.2780 C   0  0  0  0  0  0  0  0  0  0  0  0
  139.6700   73.0310  222.3990 N   0  0  0  0  0  0  0  0  0  0  0  0
  139.6410   73.8370  221.1610 C   0  0  0  0  0  0  0  0  0  0  0  0
  140.0800   75.2040  221.4170 C   0  0  0  0  0  0  0  0  0  0  0  0
  139.9530   75.6290  222.6250 O   0  0  0  0  0  0  0  0  0  0  0  0
  140.6250   76.1270  220.5060 N   0  0  0  0  0  0  0  0  0  0  0  0
  140.7610   75.7280  219.0640 C   0  0  0  0  0  0  0  0  0  0  0  0
  142.1460   76.2960  218.7620 C   0  0  0  0  0  0  0  0  0  0  0  0
  142.5470   77.1550  219.9440 C   0  0  0  0  0  0  0  0  0  0  0  0
  141.1520   77.4240  220.5380 C   0  0  2  0  0  0  0  0  0  0  0  0
  141.1430   78.3090  221.6420 C   0  0  0  0  0  0  0  0  0  0  0  0
  142.2090   79.0000  222.1310 C   0  0  0  0  0  0  0  0  0  0  0  0
  142.1500   79.8650  223.2130 C   0  0  0  0  0  0  0  0  0  0  0  0
  140.9290   80.0420  223.8430 C   0  0  0  0  0  0  0  0  0  0  0  0
  139.8580   79.3640  223.3700 N   0  0  0  0  0  0  0  0  0  0  0  0
  139.9220   78.5310  222.3250 C   0  0  0  0  0  0  0  0  0  0  0  0
  139.7710   70.8240  223.5130 C   0  0  0  0  0  0  0  0  0  0  0  0
  139.2270   69.5570  223.5260 C   0  0  0  0  0  0  0  0  0  0  0  0
  139.2150   68.7630  224.6580 C   0  0  0  0  0  0  0  0  0  0  0  0
  139.7770   69.2920  225.7990 C   0  0  0  0  0  0  0  0  0  0  0  0
  139.7730   68.5100  226.9410 C   0  0  0  0  0  0  0  0  0  0  0  0
  140.3300   69.0190  228.0930 C   0  0  0  0  0  0  0  0  0  0  0  0
  140.3530   68.2960  229.2350 F   0  0  0  0  0  0  0  0  0  0  0  0
  140.8860   70.2970  228.1010 C   0  0  0  0  0  0  0  0  0  0  0  0
  140.8750   71.0600  226.9380 C   0  0  0  0  0  0  0  0  0  0  0  0
  140.3180   70.5590  225.7750 C   0  0  0  0  0  0  0  0  0  0  0  0
  140.3100   71.3000  224.6520 N   0  0  0  0  0  0  0  0  0  0  0  0
  139.6410   73.4610  223.3450 H   0  0  0  0  0  0  0  0  0  0  0  0
  140.3089   73.3780  220.4172 H   0  0  0  0  0  0  0  0  0  0  0  0
  138.6075   73.8653  220.7853 H   0  0  0  0  0  0  0  0  0  0  0  0
  140.7313   74.6356  218.9380 H   0  0  0  0  0  0  0  0  0  0  0  0
  139.9578   76.0897  218.4052 H   0  0  0  0  0  0  0  0  0  0  0  0
  142.8682   75.4770  218.6294 H   0  0  0  0  0  0  0  0  0  0  0  0
  142.1306   76.8896  217.8360 H   0  0  0  0  0  0  0  0  0  0  0  0
  143.1956   76.6113  220.6466 H   0  0  0  0  0  0  0  0  0  0  0  0
  143.1345   78.0515  219.6968 H   0  0  0  0  0  0  0  0  0  0  0  0
  140.4314   78.0788  220.0262 H   0  0  0  0  0  0  0  0  0  0  0  0
  143.1813   78.8631  221.6351 H   0  0  0  0  0  0  0  0  0  0  0  0
  143.0480   80.3961  223.5616 H   0  0  0  0  0  0  0  0  0  0  0  0
  140.8326   80.7169  224.7063 H   0  0  0  0  0  0  0  0  0  0  0  0
  139.0123   78.0104  221.9910 H   0  0  0  0  0  0  0  0  0  0  0  0
  138.7851   69.1623  222.5992 H   0  0  0  0  0  0  0  0  0  0  0  0
  138.7764   67.7543  224.6479 H   0  0  0  0  0  0  0  0  0  0  0  0
  139.3335   67.5017  226.9286 H   0  0  0  0  0  0  0  0  0  0  0  0
  141.3313   70.7003  229.0224 H   0  0  0  0  0  0  0  0  0  0  0  0
  141.3125   72.0693  226.9431 H   0  0  0  0  0  0  0  0  0  0  0  0
  1  2  2  0
  2  3  1  0
  3  4  1  0
  4  5  1  0
  5  6  2  0
  5  7  1  0
  7  8  1  0
  8  9  1  0
  9 10  1  0
 10 11  1  0
 11 12  1  0
 12 13  2  0
 13 14  1  0
 14 15  2  0
 15 16  1  0
 16 17  2  0
  2 18  1  0
 18 19  2  0
 19 20  1  0
 20 21  2  0
 21 22  1  0
 22 23  2  0
 23 24  1  0
 23 25  1  0
 25 26  2  0
 26 27  1  0
 27 28  2  0
 11  7  1  0
 17 12  1  0
 28 18  1  0
 27 21  1  0
  3 29  1  0
  4 30  1  0
  4 31  1  0
  8 32  1  0
  8 33  1  0
  9 34  1  0
  9 35  1  0
 10 36  1  0
 10 37  1  0
 11 38  1  6
 13 39  1  0
 14 40  1  0
 15 41  1  0
 17 42  1  0
 19 43  1  0
 20 44  1  0
 22 45  1  0
 25 46  1  0
 26 47  1  0
M  END
>  <smiles>  (37) 
O=C(NCC(=O)N1CCCC1c1cccnc1)c1ccc2cc(F)ccc2n1

>  <score_type>  (37) 
oracle

>  <origin>  (37) 
autodockgpu

>  <m_score__min__energy>  (37) 
-8.7200000000000006

>  <m_primary>  (37) 
energy

>  <rmsd>  (37) 
1.4853200683547367

>  <m_score__min__rmsd>  (37) 
1.4853200683547367

>  <meeko>  (37) 
{"free_energy": -8.09, "intermolecular_energy": -9.58, "internal_energy": -1.7, "cluster_size": 25, "cluster_id": 2, "rank_in_cluster": 16}

>  <energy>  (37) 
-7.89

>  <cluster_rmsd>  (37) 
1.43

>  <cluster>  (37) 
2

$$$$

     RDKit          3D

 47 50  0  0  0  0  0  0  0  0999 V2000
  140.6570   73.7600  220.3980 O   0  0  0  0  0  0  0  0  0  0  0  0
  140.2630   74.5140  221.3250 C   0  0  0  0  0  0  0  0  0  0  0  0
  139.3480   74.0540  222.3410 N   0  0  0  0  0  0  0  0  0  0  0  0
  138.8710   72.6580  222.2740 C   0  0  0  0  0  0  0  0  0  0  0  0
  139.8430   71.7440  222.8600 C   0  0  0  0  0  0  0  0  0  0  0  0
  141.0740   72.1200  222.8280 O   0  0  0  0  0  0  0  0  0  0  0  0
  139.6090   70.4930  223.4580 N   0  0  0  0  0  0  0  0  0  0  0  0
  139.1460   69.3530  222.5970 C   0  0  0  0  0  0  0  0  0  0  0  0
  138.0840   68.7460  223.5110 C   0  0  0  0  0  0  0  0  0  0  0  0
  138.2160   69.4200  224.8620 C   0  0  0  0  0  0  0  0  0  0  0  0
  139.6620   69.9330  224.7410 C   0  0  2  0  0  0  0  0  0  0  0  0
  140.1660   70.5530  225.9090 C   0  0  0  0  0  0  0  0  0  0  0  0
  140.9640   71.6550  225.9570 C   0  0  0  0  0  0  0  0  0  0  0  0
  141.4280   72.2330  227.1290 C   0  0  0  0  0  0  0  0  0  0  0  0
  141.0590   71.6570  228.3330 C   0  0  0  0  0  0  0  0  0  0  0  0
  140.2660   70.5610  228.3050 N   0  0  0  0  0  0  0  0  0  0  0  0
  139.8220   70.0080  227.1700 C   0  0  0  0  0  0  0  0  0  0  0  0
  140.7190   75.8950  221.4150 C   0  0  0  0  0  0  0  0  0  0  0  0
  141.5800   76.3820  220.4550 C   0  0  0  0  0  0  0  0  0  0  0  0
  142.0560   77.6800  220.4710 C   0  0  0  0  0  0  0  0  0  0  0  0
  141.6320   78.4890  221.5030 C   0  0  0  0  0  0  0  0  0  0  0  0
  142.1000   79.7910  221.5340 C   0  0  0  0  0  0  0  0  0  0  0  0
  141.6890   80.6170  222.5560 C   0  0  0  0  0  0  0  0  0  0  0  0
  142.1150   81.8980  222.6320 F   0  0  0  0  0  0  0  0  0  0  0  0
  140.8190   80.1440  223.5370 C   0  0  0  0  0  0  0  0  0  0  0  0
  140.3670   78.8310  223.4790 C   0  0  0  0  0  0  0  0  0  0  0  0
  140.7720   77.9920  222.4580 C   0  0  0  0  0  0  0  0  0  0  0  0
  140.3310   76.7210  222.4060 N   0  0  0  0  0  0  0  0  0  0  0  0
  139.0470   74.7110  223.0900 H   0  0  0  0  0  0  0  0  0  0  0  0
  137.9224   72.5754  222.8247 H   0  0  0  0  0  0  0  0  0  0  0  0
  138.7288   72.3872  221.2174 H   0  0  0  0  0  0  0  0  0  0  0  0
  138.7150   69.7063  221.6486 H   0  0  0  0  0  0  0  0  0  0  0  0
  139.9385   68.6583  222.2819 H   0  0  0  0  0  0  0  0  0  0  0  0
  137.0815   68.9272  223.0959 H   0  0  0  0  0  0  0  0  0  0  0  0
  138.2230   67.6586  223.6022 H   0  0  0  0  0  0  0  0  0  0  0  0
  137.4962   70.2428  224.9835 H   0  0  0  0  0  0  0  0  0  0  0  0
  138.0157   68.7762  225.7312 H   0  0  0  0  0  0  0  0  0  0  0  0
  140.5158   69.2396  224.7573 H   0  0  0  0  0  0  0  0  0  0  0  0
  141.2601   72.1171  225.0037 H   0  0  0  0  0  0  0  0  0  0  0  0
  142.0716   73.1247  227.1030 H   0  0  0  0  0  0  0  0  0  0  0  0
  141.4021   72.0800  229.2887 H   0  0  0  0  0  0  0  0  0  0  0  0
  139.1798   69.1162  227.2174 H   0  0  0  0  0  0  0  0  0  0  0  0
  141.9011   75.7115  219.6442 H   0  0  0  0  0  0  0  0  0  0  0  0
  142.7421   78.0502  219.6950 H   0  0  0  0  0  0  0  0  0  0  0  0
  142.7868   80.1587  220.7574 H   0  0  0  0  0  0  0  0  0  0  0  0
  140.4921   80.8061  224.3523 H   0  0  0  0  0  0  0  0  0  0  0  0
  139.6808   78.4561  224.2527 H   0  0  0  0  0  0  0  0  0  0  0  0
  1  2  2  0
  2  3  1  0
  3  4  1  0
  4  5  1  0
  5  6  2  0
  5  7  1  0
  7  8  1  0
  8  9  1  0
  9 10  1  0
 10 11  1  0
 11 12  1  0
 12 13  2  0
 13 14  1  0
 14 15  2  0
 15 16  1  0
 16 17  2  0
  2 18  1  0
 18 19  2  0
 19 20  1  0
 20 21  2  0
 21 22  1  0
 22 23  2  0
 23 24  1  0
 23 25  1  0
 25 26  2  0
 26 27  1  0
 27 28  2  0
 11  7  1  0
 17 12  1  0
 28 18  1  0
 27 21  1  0
  3 29  1  0
  4 30  1  0
  4 31  1  0
  8 32  1  0
  8 33  1  0
  9 34  1  0
  9 35  1  0
 10 36  1  0
 10 37  1  0
 11 38  1  6
 13 39  1  0
 14 40  1  0
 15 41  1  0
 17 42  1  0
 19 43  1  0
 20 44  1  0
 22 45  1  0
 25 46  1  0
 26 47  1  0
M  END
>  <smiles>  (38) 
O=C(NCC(=O)N1CCCC1c1cccnc1)c1ccc2cc(F)ccc2n1

>  <score_type>  (38) 
oracle

>  <origin>  (38) 
autodockgpu

>  <m_score__min__energy>  (38) 
-8.7200000000000006

>  <m_primary>  (38) 
energy

>  <rmsd>  (38) 
8.570086680663657

>  <m_score__min__rmsd>  (38) 
8.570086680663657

>  <meeko>  (38) 
{"free_energy": -8.4, "intermolecular_energy": -9.89, "internal_energy": -1.44, "cluster_size": 11, "cluster_id": 3, "rank_in_cluster": 5}

>  <energy>  (38) 
-8.43

>  <cluster_rmsd>  (38) 
0.0

>  <cluster>  (38) 
3

$$$$

     RDKit          3D

 47 50  0  0  0  0  0  0  0  0999 V2000
  140.7490   73.7070  220.4470 O   0  0  0  0  0  0  0  0  0  0  0  0
  140.3220   74.4800  221.3420 C   0  0  0  0  0  0  0  0  0  0  0  0
  139.3650   74.0430  222.3300 N   0  0  0  0  0  0  0  0  0  0  0  0
  138.8860   72.6470  222.2710 C   0  0  0  0  0  0  0  0  0  0  0  0
  139.8480   71.7370  222.8810 C   0  0  0  0  0  0  0  0  0  0  0  0
  141.0790   72.1150  222.8710 O   0  0  0  0  0  0  0  0  0  0  0  0
  139.6050   70.4900  223.4830 N   0  0  0  0  0  0  0  0  0  0  0  0
  139.1280   69.3520  222.6250 C   0  0  0  0  0  0  0  0  0  0  0  0
  138.0630   68.7570  223.5440 C   0  0  0  0  0  0  0  0  0  0  0  0
  138.2050   69.4320  224.8920 C   0  0  0  0  0  0  0  0  0  0  0  0
  139.6550   69.9320  224.7670 C   0  0  2  0  0  0  0  0  0  0  0  0
  140.1680   70.5490  225.9320 C   0  0  0  0  0  0  0  0  0  0  0  0
  140.9590   71.6570  225.9770 C   0  0  0  0  0  0  0  0  0  0  0  0
  141.4320   72.2320  227.1460 C   0  0  0  0  0  0  0  0  0  0  0  0
  141.0820   71.6470  228.3510 C   0  0  0  0  0  0  0  0  0  0  0  0
  140.2960   70.5460  228.3260 N   0  0  0  0  0  0  0  0  0  0  0  0
  139.8420   69.9960  227.1940 C   0  0  0  0  0  0  0  0  0  0  0  0
  140.7780   75.8610  221.4240 C   0  0  0  0  0  0  0  0  0  0  0  0
  141.6210   76.3490  220.4480 C   0  0  0  0  0  0  0  0  0  0  0  0
  142.0960   77.6470  220.4550 C   0  0  0  0  0  0  0  0  0  0  0  0
  141.6910   78.4560  221.4940 C   0  0  0  0  0  0  0  0  0  0  0  0
  142.1580   79.7590  221.5160 C   0  0  0  0  0  0  0  0  0  0  0  0
  141.7650   80.5850  222.5440 C   0  0  0  0  0  0  0  0  0  0  0  0
  142.1910   81.8660  222.6130 F   0  0  0  0  0  0  0  0  0  0  0  0
  140.9130   80.1120  223.5410 C   0  0  0  0  0  0  0  0  0  0  0  0
  140.4600   78.7980  223.4920 C   0  0  0  0  0  0  0  0  0  0  0  0
  140.8480   77.9590  222.4640 C   0  0  0  0  0  0  0  0  0  0  0  0
  140.4070   76.6880  222.4200 N   0  0  0  0  0  0  0  0  0  0  0  0
  139.0370   74.7140  223.0530 H   0  0  0  0  0  0  0  0  0  0  0  0
  137.9294   72.5722  222.8088 H   0  0  0  0  0  0  0  0  0  0  0  0
  138.7585   72.3652  221.2154 H   0  0  0  0  0  0  0  0  0  0  0  0
  138.6973   69.7076  221.6773 H   0  0  0  0  0  0  0  0  0  0  0  0
  139.9128   68.6491  222.3085 H   0  0  0  0  0  0  0  0  0  0  0  0
  137.0610   68.9466  223.1315 H   0  0  0  0  0  0  0  0  0  0  0  0
  138.1924   67.6686  223.6374 H   0  0  0  0  0  0  0  0  0  0  0  0
  137.4929   70.2615  225.0137 H   0  0  0  0  0  0  0  0  0  0  0  0
  138.0016   68.7914  225.7628 H   0  0  0  0  0  0  0  0  0  0  0  0
  140.5021   69.2305  224.7832 H   0  0  0  0  0  0  0  0  0  0  0  0
  141.2409   72.1262  225.0229 H   0  0  0  0  0  0  0  0  0  0  0  0
  142.0683   73.1289  227.1172 H   0  0  0  0  0  0  0  0  0  0  0  0
  141.4341   72.0668  229.3048 H   0  0  0  0  0  0  0  0  0  0  0  0
  139.2055   69.1002  227.2445 H   0  0  0  0  0  0  0  0  0  0  0  0
  141.9276   75.6787  219.6315 H   0  0  0  0  0  0  0  0  0  0  0  0
  142.7673   78.0175  219.6663 H   0  0  0  0  0  0  0  0  0  0  0  0
  142.8303   80.1270  220.7269 H   0  0  0  0  0  0  0  0  0  0  0  0
  140.6008   80.7744  224.3618 H   0  0  0  0  0  0  0  0  0  0  0  0
  139.7875   78.4232  224.2776 H   0  0  0  0  0  0  0  0  0  0  0  0
  1  2  2  0
  2  3  1  0
  3  4  1  0
  4  5  1  0
  5  6  2  0
  5  7  1  0
  7  8  1  0
  8  9  1  0
  9 10  1  0
 10 11  1  0
 11 12  1  0
 12 13  2  0
 13 14  1  0
 14 15  2  0
 15 16  1  0
 16 17  2  0
  2 18  1  0
 18 19  2  0
 19 20  1  0
 20 21  2  0
 21 22  1  0
 22 23  2  0
 23 24  1  0
 23 25  1  0
 25 26  2  0
 26 27  1  0
 27 28  2  0
 11  7  1  0
 17 12  1  0
 28 18  1  0
 27 21  1  0
  3 29  1  0
  4 30  1  0
  4 31  1  0
  8 32  1  0
  8 33  1  0
  9 34  1  0
  9 35  1  0
 10 36  1  0
 10 37  1  0
 11 38  1  6
 13 39  1  0
 14 40  1  0
 15 41  1  0
 17 42  1  0
 19 43  1  0
 20 44  1  0
 22 45  1  0
 25 46  1  0
 26 47  1  0
M  END
>  <smiles>  (39) 
O=C(NCC(=O)N1CCCC1c1cccnc1)c1ccc2cc(F)ccc2n1

>  <score_type>  (39) 
oracle

>  <origin>  (39) 
autodockgpu

>  <m_score__min__energy>  (39) 
-8.7200000000000006

>  <m_primary>  (39) 
energy

>  <rmsd>  (39) 
8.56545225989839

>  <m_score__min__rmsd>  (39) 
8.56545225989839

>  <meeko>  (39) 
{"free_energy": -8.42, "intermolecular_energy": -9.91, "internal_energy": -1.43, "cluster_size": 11, "cluster_id": 3, "rank_in_cluster": 4}

>  <energy>  (39) 
-8.43

>  <cluster_rmsd>  (39) 
0.09

>  <cluster>  (39) 
3

$$$$

     RDKit          3D

 47 50  0  0  0  0  0  0  0  0999 V2000
  137.2850   75.5070  222.1700 O   0  0  0  0  0  0  0  0  0  0  0  0
  138.5190   75.7050  222.3190 C   0  0  0  0  0  0  0  0  0  0  0  0
  139.4750   74.6270  222.2490 N   0  0  0  0  0  0  0  0  0  0  0  0
  138.9720   73.2610  221.9950 C   0  0  0  0  0  0  0  0  0  0  0  0
  139.8270   72.2640  222.6280 C   0  0  0  0  0  0  0  0  0  0  0  0
  141.0660   72.5820  222.7730 O   0  0  0  0  0  0  0  0  0  0  0  0
  139.4720   70.9880  223.1010 N   0  0  0  0  0  0  0  0  0  0  0  0
  138.8910   69.9930  222.1370 C   0  0  0  0  0  0  0  0  0  0  0  0
  137.7780   69.4060  223.0020 C   0  0  0  0  0  0  0  0  0  0  0  0
  137.9830   69.9230  224.4110 C   0  0  0  0  0  0  0  0  0  0  0  0
  139.4730   70.2990  224.3210 C   0  0  2  0  0  0  0  0  0  0  0  0
  140.0430   70.7440  225.5370 C   0  0  0  0  0  0  0  0  0  0  0  0
  140.8460   71.8310  225.7020 C   0  0  0  0  0  0  0  0  0  0  0  0
  141.3750   72.2340  226.9180 C   0  0  0  0  0  0  0  0  0  0  0  0
  141.0720   71.4860  228.0440 C   0  0  0  0  0  0  0  0  0  0  0  0
  140.2750   70.4020  227.8990 N   0  0  0  0  0  0  0  0  0  0  0  0
  139.7670   70.0190  226.7220 C   0  0  0  0  0  0  0  0  0  0  0  0
  139.0400   77.0420  222.5690 C   0  0  0  0  0  0  0  0  0  0  0  0
  138.1590   78.0960  222.6880 C   0  0  0  0  0  0  0  0  0  0  0  0
  138.5760   79.3920  222.9260 C   0  0  0  0  0  0  0  0  0  0  0  0
  139.9330   79.6010  223.0430 C   0  0  0  0  0  0  0  0  0  0  0  0
  140.3670   80.8940  223.2810 C   0  0  0  0  0  0  0  0  0  0  0  0
  141.7190   81.1260  223.4020 C   0  0  0  0  0  0  0  0  0  0  0  0
  142.1950   82.3690  223.6350 F   0  0  0  0  0  0  0  0  0  0  0  0
  142.6260   80.0750  223.2850 C   0  0  0  0  0  0  0  0  0  0  0  0
  142.1600   78.7860  223.0460 C   0  0  0  0  0  0  0  0  0  0  0  0
  140.8050   78.5410  222.9220 C   0  0  0  0  0  0  0  0  0  0  0  0
  140.3580   77.2940  222.6910 N   0  0  0  0  0  0  0  0  0  0  0  0
  140.4860   74.8340  222.3780 H   0  0  0  0  0  0  0  0  0  0  0  0
  137.9535   73.1714  222.4007 H   0  0  0  0  0  0  0  0  0  0  0  0
  138.9710   73.0838  220.9094 H   0  0  0  0  0  0  0  0  0  0  0  0
  138.4929   70.4821  221.2357 H   0  0  0  0  0  0  0  0  0  0  0  0
  139.6074   69.2579  221.7414 H   0  0  0  0  0  0  0  0  0  0  0  0
  136.7969   69.7271  222.6221 H   0  0  0  0  0  0  0  0  0  0  0  0
  137.8079   68.3066  222.9822 H   0  0  0  0  0  0  0  0  0  0  0  0
  137.3502   70.7969  224.6249 H   0  0  0  0  0  0  0  0  0  0  0  0
  137.7228   69.2177  225.2141 H   0  0  0  0  0  0  0  0  0  0  0  0
  140.2520   69.5251  224.2560 H   0  0  0  0  0  0  0  0  0  0  0  0
  141.0910   72.4287  224.8117 H   0  0  0  0  0  0  0  0  0  0  0  0
  142.0181   73.1238  226.9872 H   0  0  0  0  0  0  0  0  0  0  0  0
  141.4692   71.7661  229.0308 H   0  0  0  0  0  0  0  0  0  0  0  0
  139.1250   69.1271  226.6739 H   0  0  0  0  0  0  0  0  0  0  0  0
  137.0815   77.8975  222.5896 H   0  0  0  0  0  0  0  0  0  0  0  0
  137.8570   80.2194  223.0179 H   0  0  0  0  0  0  0  0  0  0  0  0
  139.6460   81.7198  223.3717 H   0  0  0  0  0  0  0  0  0  0  0  0
  143.7055   80.2634  223.3811 H   0  0  0  0  0  0  0  0  0  0  0  0
  142.8753   77.9553  222.9550 H   0  0  0  0  0  0  0  0  0  0  0  0
  1  2  2  0
  2  3  1  0
  3  4  1  0
  4  5  1  0
  5  6  2  0
  5  7  1  0
  7  8  1  0
  8  9  1  0
  9 10  1  0
 10 11  1  0
 11 12  1  0
 12 13  2  0
 13 14  1  0
 14 15  2  0
 15 16  1  0
 16 17  2  0
  2 18  1  0
 18 19  2  0
 19 20  1  0
 20 21  2  0
 21 22  1  0
 22 23  2  0
 23 24  1  0
 23 25  1  0
 25 26  2  0
 26 27  1  0
 27 28  2  0
 11  7  1  0
 17 12  1  0
 28 18  1  0
 27 21  1  0
  3 29  1  0
  4 30  1  0
  4 31  1  0
  8 32  1  0
  8 33  1  0
  9 34  1  0
  9 35  1  0
 10 36  1  0
 10 37  1  0
 11 38  1  6
 13 39  1  0
 14 40  1  0
 15 41  1  0
 17 42  1  0
 19 43  1  0
 20 44  1  0
 22 45  1  0
 25 46  1  0
 26 47  1  0
M  END
>  <smiles>  (40) 
O=C(NCC(=O)N1CCCC1c1cccnc1)c1ccc2cc(F)ccc2n1

>  <score_type>  (40) 
oracle

>  <origin>  (40) 
autodockgpu

>  <m_score__min__energy>  (40) 
-8.7200000000000006

>  <m_primary>  (40) 
energy

>  <rmsd>  (40) 
8.601172784103875

>  <m_score__min__rmsd>  (40) 
8.601172784103875

>  <meeko>  (40) 
{"free_energy": -7.83, "intermolecular_energy": -9.32, "internal_energy": -1.79, "cluster_size": 11, "cluster_id": 3, "rank_in_cluster": 8}

>  <energy>  (40) 
-8.42

>  <cluster_rmsd>  (40) 
0.09

>  <cluster>  (40) 
3

$$$$

     RDKit          3D

 47 50  0  0  0  0  0  0  0  0999 V2000
  139.6130   71.3140  221.0920 O   0  0  0  0  0  0  0  0  0  0  0  0
  139.6200   71.8660  222.2220 C   0  0  0  0  0  0  0  0  0  0  0  0
  139.5640   73.3010  222.3670 N   0  0  0  0  0  0  0  0  0  0  0  0
  139.4990   74.1260  221.1430 C   0  0  0  0  0  0  0  0  0  0  0  0
  140.0530   75.4540  221.3780 C   0  0  0  0  0  0  0  0  0  0  0  0
  139.9810   75.8990  222.5830 O   0  0  0  0  0  0  0  0  0  0  0  0
  140.6590   76.3190  220.4490 N   0  0  0  0  0  0  0  0  0  0  0  0
  140.6730   75.9300  218.9980 C   0  0  0  0  0  0  0  0  0  0  0  0
  142.0990   76.3330  218.6300 C   0  0  0  0  0  0  0  0  0  0  0  0
  142.6600   77.1180  219.7980 C   0  0  0  0  0  0  0  0  0  0  0  0
  141.3400   77.5430  220.4660 C   0  0  2  0  0  0  0  0  0  0  0  0
  141.4920   78.4050  221.5780 C   0  0  0  0  0  0  0  0  0  0  0  0
  141.4640   78.0420  222.8900 C   0  0  0  0  0  0  0  0  0  0  0  0
  141.6270   78.9230  223.9480 C   0  0  0  0  0  0  0  0  0  0  0  0
  141.8330   80.2620  223.6590 C   0  0  0  0  0  0  0  0  0  0  0  0
  141.8650   80.6410  222.3600 N   0  0  0  0  0  0  0  0  0  0  0  0
  141.7070   79.7850  221.3440 C   0  0  0  0  0  0  0  0  0  0  0  0
  139.6830   71.0760  223.4450 C   0  0  0  0  0  0  0  0  0  0  0  0
  139.2040   69.7840  223.4340 C   0  0  0  0  0  0  0  0  0  0  0  0
  139.2300   68.9710  224.5520 C   0  0  0  0  0  0  0  0  0  0  0  0
  139.7620   69.5080  225.7040 C   0  0  0  0  0  0  0  0  0  0  0  0
  139.7950   68.7070  226.8330 C   0  0  0  0  0  0  0  0  0  0  0  0
  140.3240   69.2230  227.9940 C   0  0  0  0  0  0  0  0  0  0  0  0
  140.3800   68.4840  229.1240 F   0  0  0  0  0  0  0  0  0  0  0  0
  140.8140   70.5280  228.0260 C   0  0  0  0  0  0  0  0  0  0  0  0
  140.7670   71.3090  226.8760 C   0  0  0  0  0  0  0  0  0  0  0  0
  140.2390   70.8010  225.7030 C   0  0  0  0  0  0  0  0  0  0  0  0
  140.1960   71.5600  224.5930 N   0  0  0  0  0  0  0  0  0  0  0  0
  139.5730   73.7170  223.3200 H   0  0  0  0  0  0  0  0  0  0  0  0
  140.0738   73.6324  220.3455 H   0  0  0  0  0  0  0  0  0  0  0  0
  138.4447   74.2332  220.8482 H   0  0  0  0  0  0  0  0  0  0  0  0
  140.5058   74.8512  218.8628 H   0  0  0  0  0  0  0  0  0  0  0  0
  139.8869   76.3958  218.3856 H   0  0  0  0  0  0  0  0  0  0  0  0
  142.7097   75.4357  218.4513 H   0  0  0  0  0  0  0  0  0  0  0  0
  142.1082   76.9395  217.7124 H   0  0  0  0  0  0  0  0  0  0  0  0
  143.2726   76.4888  220.4605 H   0  0  0  0  0  0  0  0  0  0  0  0
  143.3385   77.9412  219.5298 H   0  0  0  0  0  0  0  0  0  0  0  0
  140.6801   78.2883  219.9979 H   0  0  0  0  0  0  0  0  0  0  0  0
  141.3014   76.9800  223.1260 H   0  0  0  0  0  0  0  0  0  0  0  0
  141.5937   78.5683  224.9887 H   0  0  0  0  0  0  0  0  0  0  0  0
  141.9672   80.9987  224.4648 H   0  0  0  0  0  0  0  0  0  0  0  0
  141.7447   80.1592  220.3103 H   0  0  0  0  0  0  0  0  0  0  0  0
  138.7845   69.3838  222.4992 H   0  0  0  0  0  0  0  0  0  0  0  0
  138.8433   67.9416  224.5231 H   0  0  0  0  0  0  0  0  0  0  0  0
  139.4061   67.6785  226.8025 H   0  0  0  0  0  0  0  0  0  0  0  0
  141.2355   70.9377  228.9558 H   0  0  0  0  0  0  0  0  0  0  0  0
  141.1528   72.3388  226.8997 H   0  0  0  0  0  0  0  0  0  0  0  0
  1  2  2  0
  2  3  1  0
  3  4  1  0
  4  5  1  0
  5  6  2  0
  5  7  1  0
  7  8  1  0
  8  9  1  0
  9 10  1  0
 10 11  1  0
 11 12  1  0
 12 13  2  0
 13 14  1  0
 14 15  2  0
 15 16  1  0
 16 17  2  0
  2 18  1  0
 18 19  2  0
 19 20  1  0
 20 21  2  0
 21 22  1  0
 22 23  2  0
 23 24  1  0
 23 25  1  0
 25 26  2  0
 26 27  1  0
 27 28  2  0
 11  7  1  0
 17 12  1  0
 28 18  1  0
 27 21  1  0
  3 29  1  0
  4 30  1  0
  4 31  1  0
  8 32  1  0
  8 33  1  0
  9 34  1  0
  9 35  1  0
 10 36  1  0
 10 37  1  0
 11 38  1  6
 13 39  1  0
 14 40  1  0
 15 41  1  0
 17 42  1  0
 19 43  1  0
 20 44  1  0
 22 45  1  0
 25 46  1  0
 26 47  1  0
M  END
>  <smiles>  (41) 
O=C(NCC(=O)N1CCCC1c1cccnc1)c1ccc2cc(F)ccc2n1

>  <score_type>  (41) 
oracle

>  <origin>  (41) 
autodockgpu

>  <m_score__min__energy>  (41) 
-8.7200000000000006

>  <m_primary>  (41) 
energy

>  <rmsd>  (41) 
1.4758187183300626

>  <m_score__min__rmsd>  (41) 
1.4758187183300626

>  <meeko>  (41) 
{"free_energy": -8.3, "intermolecular_energy": -9.79, "internal_energy": -1.49, "cluster_size": 25, "cluster_id": 2, "rank_in_cluster": 12}

>  <energy>  (41) 
-8.42

>  <cluster_rmsd>  (41) 
0.19

>  <cluster>  (41) 
3

$$$$

     RDKit          3D

 47 50  0  0  0  0  0  0  0  0999 V2000
  141.5740   72.0320  221.4570 O   0  0  0  0  0  0  0  0  0  0  0  0
  140.6640   72.3700  222.2570 C   0  0  0  0  0  0  0  0  0  0  0  0
  139.8710   73.5580  222.0480 N   0  0  0  0  0  0  0  0  0  0  0  0
  140.1520   74.3860  220.8570 C   0  0  0  0  0  0  0  0  0  0  0  0
  141.0400   75.4940  221.1890 C   0  0  0  0  0  0  0  0  0  0  0  0
  140.9230   75.9870  222.3720 O   0  0  0  0  0  0  0  0  0  0  0  0
  142.0140   76.1000  220.3750 N   0  0  0  0  0  0  0  0  0  0  0  0
  141.8440   77.5440  219.9950 C   0  0  0  0  0  0  0  0  0  0  0  0
  142.2520   77.4790  218.5250 C   0  0  0  0  0  0  0  0  0  0  0  0
  142.8390   76.1040  218.2820 C   0  0  0  0  0  0  0  0  0  0  0  0
  143.2010   75.7300  219.7300 C   0  0  2  0  0  0  0  0  0  0  0  0
  143.8830   74.4980  219.8680 C   0  0  0  0  0  0  0  0  0  0  0  0
  145.0140   74.2790  220.5940 C   0  0  0  0  0  0  0  0  0  0  0  0
  145.6450   73.0500  220.7060 C   0  0  0  0  0  0  0  0  0  0  0  0
  145.0940   71.9680  220.0390 C   0  0  0  0  0  0  0  0  0  0  0  0
  143.9690   72.1670  219.3120 N   0  0  0  0  0  0  0  0  0  0  0  0
  143.3660   73.3570  219.2090 C   0  0  0  0  0  0  0  0  0  0  0  0
  140.3660   71.5710  223.4390 C   0  0  0  0  0  0  0  0  0  0  0  0
  139.5800   70.4460  223.3070 C   0  0  0  0  0  0  0  0  0  0  0  0
  139.2540   69.6370  224.3800 C   0  0  0  0  0  0  0  0  0  0  0  0
  139.7520   70.0000  225.6120 C   0  0  0  0  0  0  0  0  0  0  0  0
  139.4340   69.2000  226.6960 C   0  0  0  0  0  0  0  0  0  0  0  0
  139.9210   69.5440  227.9370 C   0  0  0  0  0  0  0  0  0  0  0  0
  139.6420   68.7970  229.0280 F   0  0  0  0  0  0  0  0  0  0  0  0
  140.7180   70.6770  228.0910 C   0  0  0  0  0  0  0  0  0  0  0  0
  141.0200   71.4620  226.9830 C   0  0  0  0  0  0  0  0  0  0  0  0
  140.5370   71.1260  225.7310 C   0  0  0  0  0  0  0  0  0  0  0  0
  140.8310   71.8880  224.6620 N   0  0  0  0  0  0  0  0  0  0  0  0
  139.1290   73.8010  222.7340 H   0  0  0  0  0  0  0  0  0  0  0  0
  140.6292   73.7604  220.0883 H   0  0  0  0  0  0  0  0  0  0  0  0
  139.2024   74.7973  220.4840 H   0  0  0  0  0  0  0  0  0  0  0  0
  140.8030   77.8784  220.1157 H   0  0  0  0  0  0  0  0  0  0  0  0
  142.4197   78.2554  220.6054 H   0  0  0  0  0  0  0  0  0  0  0  0
  141.3721   77.6317  217.8828 H   0  0  0  0  0  0  0  0  0  0  0  0
  142.9860   78.2636  218.2890 H   0  0  0  0  0  0  0  0  0  0  0  0
  142.1008   75.4119  217.8507 H   0  0  0  0  0  0  0  0  0  0  0  0
  143.6719   76.0680  217.5644 H   0  0  0  0  0  0  0  0  0  0  0  0
  144.0272   76.2300  220.2568 H   0  0  0  0  0  0  0  0  0  0  0  0
  145.4561   75.1339  221.1267 H   0  0  0  0  0  0  0  0  0  0  0  0
  146.5586   72.9368  221.3082 H   0  0  0  0  0  0  0  0  0  0  0  0
  145.5585   70.9726  220.0984 H   0  0  0  0  0  0  0  0  0  0  0  0
  142.4533   73.4501  218.6021 H   0  0  0  0  0  0  0  0  0  0  0  0
  139.1976   70.1819  222.3100 H   0  0  0  0  0  0  0  0  0  0  0  0
  138.6249   68.7433  224.2553 H   0  0  0  0  0  0  0  0  0  0  0  0
  138.8046   68.3070  226.5684 H   0  0  0  0  0  0  0  0  0  0  0  0
  141.1062   70.9491  229.0836 H   0  0  0  0  0  0  0  0  0  0  0  0
  141.6479   72.3571  227.1034 H   0  0  0  0  0  0  0  0  0  0  0  0
  1  2  2  0
  2  3  1  0
  3  4  1  0
  4  5  1  0
  5  6  2  0
  5  7  1  0
  7  8  1  0
  8  9  1  0
  9 10  1  0
 10 11  1  0
 11 12  1  0
 12 13  2  0
 13 14  1  0
 14 15  2  0
 15 16  1  0
 16 17  2  0
  2 18  1  0
 18 19  2  0
 19 20  1  0
 20 21  2  0
 21 22  1  0
 22 23  2  0
 23 24  1  0
 23 25  1  0
 25 26  2  0
 26 27  1  0
 27 28  2  0
 11  7  1  0
 17 12  1  0
 28 18  1  0
 27 21  1  0
  3 29  1  0
  4 30  1  0
  4 31  1  0
  8 32  1  0
  8 33  1  0
  9 34  1  0
  9 35  1  0
 10 36  1  0
 10 37  1  0
 11 38  1  1
 13 39  1  0
 14 40  1  0
 15 41  1  0
 17 42  1  0
 19 43  1  0
 20 44  1  0
 22 45  1  0
 25 46  1  0
 26 47  1  0
M  END
>  <smiles>  (42) 
O=C(NCC(=O)N1CCCC1c1cccnc1)c1ccc2cc(F)ccc2n1

>  <score_type>  (42) 
oracle

>  <origin>  (42) 
autodockgpu

>  <m_score__min__energy>  (42) 
-8.7200000000000006

>  <m_primary>  (42) 
energy

>  <rmsd>  (42) 
2.2685049189456388

>  <m_score__min__rmsd>  (42) 
2.2685049189456388

>  <meeko>  (42) 
{"free_energy": -8.24, "intermolecular_energy": -9.73, "internal_energy": -1.53, "cluster_size": 12, "cluster_id": 1, "rank_in_cluster": 5}

>  <energy>  (42) 
-8.4

>  <cluster_rmsd>  (42) 
0.19

>  <cluster>  (42) 
3

$$$$

     RDKit          3D

 47 50  0  0  0  0  0  0  0  0999 V2000
  141.0750   72.2440  221.5340 O   0  0  0  0  0  0  0  0  0  0  0  0
  140.2000   72.4050  222.4240 C   0  0  0  0  0  0  0  0  0  0  0  0
  139.2140   73.4550  222.3380 N   0  0  0  0  0  0  0  0  0  0  0  0
  139.2500   74.3550  221.1680 C   0  0  0  0  0  0  0  0  0  0  0  0
  140.3580   75.2980  221.2680 C   0  0  0  0  0  0  0  0  0  0  0  0
  141.0620   75.2420  222.3440 O   0  0  0  0  0  0  0  0  0  0  0  0
  140.7590   76.2700  220.3330 N   0  0  0  0  0  0  0  0  0  0  0  0
  140.6480   75.9560  218.8680 C   0  0  0  0  0  0  0  0  0  0  0  0
  141.9730   76.5340  218.3740 C   0  0  0  0  0  0  0  0  0  0  0  0
  142.5760   77.3200  219.5200 C   0  0  0  0  0  0  0  0  0  0  0  0
  141.3030   77.5610  220.3510 C   0  0  2  0  0  0  0  0  0  0  0  0
  141.4890   78.3790  221.4900 C   0  0  0  0  0  0  0  0  0  0  0  0
  141.3080   78.0090  222.7880 C   0  0  0  0  0  0  0  0  0  0  0  0
  141.5120   78.8450  223.8750 C   0  0  0  0  0  0  0  0  0  0  0  0
  141.9250   80.1450  223.6320 C   0  0  0  0  0  0  0  0  0  0  0  0
  142.1100   80.5300  222.3480 N   0  0  0  0  0  0  0  0  0  0  0  0
  141.9120   79.7170  221.3040 C   0  0  0  0  0  0  0  0  0  0  0  0
  140.1420   71.5300  223.5870 C   0  0  0  0  0  0  0  0  0  0  0  0
  139.5580   70.2870  223.4650 C   0  0  0  0  0  0  0  0  0  0  0  0
  139.4650   69.4010  224.5220 C   0  0  0  0  0  0  0  0  0  0  0  0
  139.9870   69.8100  225.7290 C   0  0  0  0  0  0  0  0  0  0  0  0
  139.9020   68.9340  226.7970 C   0  0  0  0  0  0  0  0  0  0  0  0
  140.4180   69.3220  228.0130 C   0  0  0  0  0  0  0  0  0  0  0  0
  140.3620   68.5050  229.0880 F   0  0  0  0  0  0  0  0  0  0  0  0
  141.0130   70.5740  228.1580 C   0  0  0  0  0  0  0  0  0  0  0  0
  141.0830   71.4330  227.0670 C   0  0  0  0  0  0  0  0  0  0  0  0
  140.5690   71.0540  225.8400 C   0  0  0  0  0  0  0  0  0  0  0  0
  140.6390   71.8880  224.7870 N   0  0  0  0  0  0  0  0  0  0  0  0
  138.5090   73.5530  223.0960 H   0  0  0  0  0  0  0  0  0  0  0  0
  139.3709   73.7535  220.2550 H   0  0  0  0  0  0  0  0  0  0  0  0
  138.3085   74.9228  221.1335 H   0  0  0  0  0  0  0  0  0  0  0  0
  140.5814   74.8732  218.6861 H   0  0  0  0  0  0  0  0  0  0  0  0
  139.7523   76.3598  218.3733 H   0  0  0  0  0  0  0  0  0  0  0  0
  142.6514   75.7205  218.0773 H   0  0  0  0  0  0  0  0  0  0  0  0
  141.8138   77.1811  217.4988 H   0  0  0  0  0  0  0  0  0  0  0  0
  143.3236   76.7327  220.0734 H   0  0  0  0  0  0  0  0  0  0  0  0
  143.1277   78.2265  219.2303 H   0  0  0  0  0  0  0  0  0  0  0  0
  140.5181   78.2489  220.0035 H   0  0  0  0  0  0  0  0  0  0  0  0
  140.9781   76.9787  222.9872 H   0  0  0  0  0  0  0  0  0  0  0  0
  141.3504   78.4861  224.9022 H   0  0  0  0  0  0  0  0  0  0  0  0
  142.0981   80.8462  224.4616 H   0  0  0  0  0  0  0  0  0  0  0  0
  142.0807   80.0944  220.2846 H   0  0  0  0  0  0  0  0  0  0  0  0
  139.1500   69.9886  222.4880 H   0  0  0  0  0  0  0  0  0  0  0  0
  138.9951   68.4134  224.4043 H   0  0  0  0  0  0  0  0  0  0  0  0
  139.4314   67.9471  226.6767 H   0  0  0  0  0  0  0  0  0  0  0  0
  141.4251   70.8809  229.1306 H   0  0  0  0  0  0  0  0  0  0  0  0
  141.5509   72.4220  227.1805 H   0  0  0  0  0  0  0  0  0  0  0  0
  1  2  2  0
  2  3  1  0
  3  4  1  0
  4  5  1  0
  5  6  2  0
  5  7  1  0
  7  8  1  0
  8  9  1  0
  9 10  1  0
 10 11  1  0
 11 12  1  0
 12 13  2  0
 13 14  1  0
 14 15  2  0
 15 16  1  0
 16 17  2  0
  2 18  1  0
 18 19  2  0
 19 20  1  0
 20 21  2  0
 21 22  1  0
 22 23  2  0
 23 24  1  0
 23 25  1  0
 25 26  2  0
 26 27  1  0
 27 28  2  0
 11  7  1  0
 17 12  1  0
 28 18  1  0
 27 21  1  0
  3 29  1  0
  4 30  1  0
  4 31  1  0
  8 32  1  0
  8 33  1  0
  9 34  1  0
  9 35  1  0
 10 36  1  0
 10 37  1  0
 11 38  1  6
 13 39  1  0
 14 40  1  0
 15 41  1  0
 17 42  1  0
 19 43  1  0
 20 44  1  0
 22 45  1  0
 25 46  1  0
 26 47  1  0
M  END
>  <smiles>  (43) 
O=C(NCC(=O)N1CCCC1c1cccnc1)c1ccc2cc(F)ccc2n1

>  <score_type>  (43) 
oracle

>  <origin>  (43) 
autodockgpu

>  <m_score__min__energy>  (43) 
-8.7200000000000006

>  <m_primary>  (43) 
energy

>  <rmsd>  (43) 
1.529853201686425

>  <m_score__min__rmsd>  (43) 
1.529853201686425

>  <meeko>  (43) 
{"free_energy": -8.58, "intermolecular_energy": -10.07, "internal_energy": -1.12, "cluster_size": 25, "cluster_id": 2, "rank_in_cluster": 2}

>  <energy>  (43) 
-8.37

>  <cluster_rmsd>  (43) 
0.54

>  <cluster>  (43) 
3

$$$$

     RDKit          3D

 47 50  0  0  0  0  0  0  0  0999 V2000
  139.6380   71.0750  221.1420 O   0  0  0  0  0  0  0  0  0  0  0  0
  139.6320   71.6260  222.2730 C   0  0  0  0  0  0  0  0  0  0  0  0
  139.5750   73.0610  222.4190 N   0  0  0  0  0  0  0  0  0  0  0  0
  139.5260   73.8870  221.1960 C   0  0  0  0  0  0  0  0  0  0  0  0
  140.0360   75.2290  221.4500 C   0  0  0  0  0  0  0  0  0  0  0  0
  139.9750   75.6430  222.6670 O   0  0  0  0  0  0  0  0  0  0  0  0
  140.5890   76.1370  220.5300 N   0  0  0  0  0  0  0  0  0  0  0  0
  140.7130   75.7250  219.0900 C   0  0  0  0  0  0  0  0  0  0  0  0
  142.1040   76.2740  218.7780 C   0  0  0  0  0  0  0  0  0  0  0  0
  142.5210   77.1370  219.9510 C   0  0  0  0  0  0  0  0  0  0  0  0
  141.1320   77.4280  220.5490 C   0  0  2  0  0  0  0  0  0  0  0  0
  141.1390   78.3220  221.6460 C   0  0  0  0  0  0  0  0  0  0  0  0
  142.2130   79.0130  222.1170 C   0  0  0  0  0  0  0  0  0  0  0  0
  142.1690   79.8870  223.1920 C   0  0  0  0  0  0  0  0  0  0  0  0
  140.9570   80.0730  223.8350 C   0  0  0  0  0  0  0  0  0  0  0  0
  139.8780   79.3940  223.3810 N   0  0  0  0  0  0  0  0  0  0  0  0
  139.9270   78.5530  222.3410 C   0  0  0  0  0  0  0  0  0  0  0  0
  139.6790   70.8350  223.4950 C   0  0  0  0  0  0  0  0  0  0  0  0
  139.1760   69.5510  223.4840 C   0  0  0  0  0  0  0  0  0  0  0  0
  139.1850   68.7380  224.6020 C   0  0  0  0  0  0  0  0  0  0  0  0
  139.7270   69.2640  225.7540 C   0  0  0  0  0  0  0  0  0  0  0  0
  139.7440   68.4630  226.8830 C   0  0  0  0  0  0  0  0  0  0  0  0
  140.2810   68.9680  228.0450 C   0  0  0  0  0  0  0  0  0  0  0  0
  140.3230   68.2270  229.1740 F   0  0  0  0  0  0  0  0  0  0  0  0
  140.7960   70.2630  228.0770 C   0  0  0  0  0  0  0  0  0  0  0  0
  140.7650   71.0450  226.9270 C   0  0  0  0  0  0  0  0  0  0  0  0
  140.2280   70.5480  225.7540 C   0  0  0  0  0  0  0  0  0  0  0  0
  140.2000   71.3080  224.6440 N   0  0  0  0  0  0  0  0  0  0  0  0
  139.5730   73.4750  223.3720 H   0  0  0  0  0  0  0  0  0  0  0  0
  140.1386   73.4112  220.4160 H   0  0  0  0  0  0  0  0  0  0  0  0
  138.4787   73.9666  220.8691 H   0  0  0  0  0  0  0  0  0  0  0  0
  140.6693   74.6322  218.9725 H   0  0  0  0  0  0  0  0  0  0  0  0
  139.9112   76.0911  218.4319 H   0  0  0  0  0  0  0  0  0  0  0  0
  142.8156   75.4452  218.6487 H   0  0  0  0  0  0  0  0  0  0  0  0
  142.0915   76.8608  217.8477 H   0  0  0  0  0  0  0  0  0  0  0  0
  143.1660   76.5908  220.6550 H   0  0  0  0  0  0  0  0  0  0  0  0
  143.1185   78.0241  219.6942 H   0  0  0  0  0  0  0  0  0  0  0  0
  140.4171   78.0874  220.0350 H   0  0  0  0  0  0  0  0  0  0  0  0
  143.1792   78.8684  221.6114 H   0  0  0  0  0  0  0  0  0  0  0  0
  143.0726   80.4185  223.5252 H   0  0  0  0  0  0  0  0  0  0  0  0
  140.8732   80.7557  224.6935 H   0  0  0  0  0  0  0  0  0  0  0  0
  139.0118   78.0333  222.0212 H   0  0  0  0  0  0  0  0  0  0  0  0
  138.7508   69.1582  222.5486 H   0  0  0  0  0  0  0  0  0  0  0  0
  138.7775   67.7167  224.5730 H   0  0  0  0  0  0  0  0  0  0  0  0
  139.3359   67.4420  226.8518 H   0  0  0  0  0  0  0  0  0  0  0  0
  141.2248   70.6645  229.0070 H   0  0  0  0  0  0  0  0  0  0  0  0
  141.1710   72.0670  226.9511 H   0  0  0  0  0  0  0  0  0  0  0  0
  1  2  2  0
  2  3  1  0
  3  4  1  0
  4  5  1  0
  5  6  2  0
  5  7  1  0
  7  8  1  0
  8  9  1  0
  9 10  1  0
 10 11  1  0
 11 12  1  0
 12 13  2  0
 13 14  1  0
 14 15  2  0
 15 16  1  0
 16 17  2  0
  2 18  1  0
 18 19  2  0
 19 20  1  0
 20 21  2  0
 21 22  1  0
 22 23  2  0
 23 24  1  0
 23 25  1  0
 25 26  2  0
 26 27  1  0
 27 28  2  0
 11  7  1  0
 17 12  1  0
 28 18  1  0
 27 21  1  0
  3 29  1  0
  4 30  1  0
  4 31  1  0
  8 32  1  0
  8 33  1  0
  9 34  1  0
  9 35  1  0
 10 36  1  0
 10 37  1  0
 11 38  1  6
 13 39  1  0
 14 40  1  0
 15 41  1  0
 17 42  1  0
 19 43  1  0
 20 44  1  0
 22 45  1  0
 25 46  1  0
 26 47  1  0
M  END
>  <smiles>  (44) 
O=C(NCC(=O)N1CCCC1c1cccnc1)c1ccc2cc(F)ccc2n1

>  <score_type>  (44) 
oracle

>  <origin>  (44) 
autodockgpu

>  <m_score__min__energy>  (44) 
-8.7200000000000006

>  <m_primary>  (44) 
energy

>  <rmsd>  (44) 
1.4553992778392952

>  <m_score__min__rmsd>  (44) 
1.4553992778392952

>  <meeko>  (44) 
{"free_energy": -8.08, "intermolecular_energy": -9.58, "internal_energy": -1.72, "cluster_size": 25, "cluster_id": 2, "rank_in_cluster": 17}

>  <energy>  (44) 
-8.36

>  <cluster_rmsd>  (44) 
0.57

>  <cluster>  (44) 
3

$$$$

     RDKit          3D

 47 50  0  0  0  0  0  0  0  0999 V2000
  133.6390   70.0780  226.5580 O   0  0  0  0  0  0  0  0  0  0  0  0
  133.9990   71.2070  226.1350 C   0  0  0  0  0  0  0  0  0  0  0  0
  135.0800   71.3560  225.1910 N   0  0  0  0  0  0  0  0  0  0  0  0
  135.7710   70.1380  224.7210 C   0  0  0  0  0  0  0  0  0  0  0  0
  137.0430   70.4690  224.0910 C   0  0  0  0  0  0  0  0  0  0  0  0
  137.1440   71.6500  223.5910 O   0  0  0  0  0  0  0  0  0  0  0  0
  138.1840   69.6560  223.9560 N   0  0  0  0  0  0  0  0  0  0  0  0
  138.2880   68.7460  222.7660 C   0  0  0  0  0  0  0  0  0  0  0  0
  138.8370   67.4910  223.4410 C   0  0  0  0  0  0  0  0  0  0  0  0
  139.2200   67.8730  224.8570 C   0  0  0  0  0  0  0  0  0  0  0  0
  139.3590   69.3950  224.6720 C   0  0  2  0  0  0  0  0  0  0  0  0
  139.8170   70.0870  225.8180 C   0  0  0  0  0  0  0  0  0  0  0  0
  139.5830   69.7450  227.1150 C   0  0  0  0  0  0  0  0  0  0  0  0
  140.0610   70.4520  228.2080 C   0  0  0  0  0  0  0  0  0  0  0  0
  140.8290   71.5800  227.9720 C   0  0  0  0  0  0  0  0  0  0  0  0
  141.0730   71.9350  226.6890 N   0  0  0  0  0  0  0  0  0  0  0  0
  140.6080   71.2480  225.6390 C   0  0  0  0  0  0  0  0  0  0  0  0
  133.3340   72.4240  226.5820 C   0  0  0  0  0  0  0  0  0  0  0  0
  132.1070   72.3290  227.2050 C   0  0  0  0  0  0  0  0  0  0  0  0
  131.4140   73.4370  227.6570 C   0  0  0  0  0  0  0  0  0  0  0  0
  132.0030   74.6660  227.4610 C   0  0  0  0  0  0  0  0  0  0  0  0
  131.3220   75.7850  227.9080 C   0  0  0  0  0  0  0  0  0  0  0  0
  131.8930   77.0250  227.7230 C   0  0  0  0  0  0  0  0  0  0  0  0
  131.2700   78.1490  228.1410 F   0  0  0  0  0  0  0  0  0  0  0  0
  133.1320   77.1420  227.0960 C   0  0  0  0  0  0  0  0  0  0  0  0
  133.7930   76.0000  226.6570 C   0  0  0  0  0  0  0  0  0  0  0  0
  133.2300   74.7500  226.8380 C   0  0  0  0  0  0  0  0  0  0  0  0
  133.8720   73.6470  226.4120 N   0  0  0  0  0  0  0  0  0  0  0  0
  135.3450   72.3070  224.8670 H   0  0  0  0  0  0  0  0  0  0  0  0
  135.9564   69.4757  225.5795 H   0  0  0  0  0  0  0  0  0  0  0  0
  135.1322   69.6372  223.9786 H   0  0  0  0  0  0  0  0  0  0  0  0
  137.3066   68.5649  222.3033 H   0  0  0  0  0  0  0  0  0  0  0  0
  138.9003   69.1330  221.9382 H   0  0  0  0  0  0  0  0  0  0  0  0
  138.0674   66.7052  223.4580 H   0  0  0  0  0  0  0  0  0  0  0  0
  139.7080   67.1027  222.8928 H   0  0  0  0  0  0  0  0  0  0  0  0
  138.4317   67.6165  225.5801 H   0  0  0  0  0  0  0  0  0  0  0  0
  140.1087   67.3640  225.2584 H   0  0  0  0  0  0  0  0  0  0  0  0
  140.1915   69.8256  224.0962 H   0  0  0  0  0  0  0  0  0  0  0  0
  138.9748   68.8491  227.3085 H   0  0  0  0  0  0  0  0  0  0  0  0
  139.8364   70.1258  229.2342 H   0  0  0  0  0  0  0  0  0  0  0  0
  141.2308   72.1729  228.8069 H   0  0  0  0  0  0  0  0  0  0  0  0
  140.8439   71.5905  224.6207 H   0  0  0  0  0  0  0  0  0  0  0  0
  131.6624   71.3330  227.3478 H   0  0  0  0  0  0  0  0  0  0  0  0
  130.4359   73.3408  228.1510 H   0  0  0  0  0  0  0  0  0  0  0  0
  130.3438   75.6861  228.4014 H   0  0  0  0  0  0  0  0  0  0  0  0
  133.5852   78.1334  226.9489 H   0  0  0  0  0  0  0  0  0  0  0  0
  134.7711   76.0917  226.1620 H   0  0  0  0  0  0  0  0  0  0  0  0
  1  2  2  0
  2  3  1  0
  3  4  1  0
  4  5  1  0
  5  6  2  0
  5  7  1  0
  7  8  1  0
  8  9  1  0
  9 10  1  0
 10 11  1  0
 11 12  1  0
 12 13  2  0
 13 14  1  0
 14 15  2  0
 15 16  1  0
 16 17  2  0
  2 18  1  0
 18 19  2  0
 19 20  1  0
 20 21  2  0
 21 22  1  0
 22 23  2  0
 23 24  1  0
 23 25  1  0
 25 26  2  0
 26 27  1  0
 27 28  2  0
 11  7  1  0
 17 12  1  0
 28 18  1  0
 27 21  1  0
  3 29  1  0
  4 30  1  0
  4 31  1  0
  8 32  1  0
  8 33  1  0
  9 34  1  0
  9 35  1  0
 10 36  1  0
 10 37  1  0
 11 38  1  6
 13 39  1  0
 14 40  1  0
 15 41  1  0
 17 42  1  0
 19 43  1  0
 20 44  1  0
 22 45  1  0
 25 46  1  0
 26 47  1  0
M  END
>  <smiles>  (45) 
O=C(NCC(=O)N1CCCC1c1cccnc1)c1ccc2cc(F)ccc2n1

>  <score_type>  (45) 
oracle

>  <origin>  (45) 
autodockgpu

>  <m_score__min__energy>  (45) 
-8.7200000000000006

>  <m_primary>  (45) 
energy

>  <rmsd>  (45) 
8.99612431666264

>  <m_score__min__rmsd>  (45) 
8.99612431666264

>  <meeko>  (45) 
{"free_energy": -7.89, "intermolecular_energy": -9.38, "internal_energy": -1.84, "cluster_size": 2, "cluster_id": 4, "rank_in_cluster": 1}

>  <energy>  (45) 
-7.83

>  <cluster_rmsd>  (45) 
1.35

>  <cluster>  (45) 
3

$$$$

     RDKit          3D

 47 50  0  0  0  0  0  0  0  0999 V2000
  140.7820   73.8440  220.4740 O   0  0  0  0  0  0  0  0  0  0  0  0
  140.3350   74.6140  221.3630 C   0  0  0  0  0  0  0  0  0  0  0  0
  139.3640   74.1700  222.3340 N   0  0  0  0  0  0  0  0  0  0  0  0
  138.8940   72.7720  222.2650 C   0  0  0  0  0  0  0  0  0  0  0  0
  139.8530   71.8660  222.8870 C   0  0  0  0  0  0  0  0  0  0  0  0
  141.0740   72.2700  222.9320 O   0  0  0  0  0  0  0  0  0  0  0  0
  139.6140   70.5980  223.4450 N   0  0  0  0  0  0  0  0  0  0  0  0
  139.1330   69.4910  222.5510 C   0  0  0  0  0  0  0  0  0  0  0  0
  138.0750   68.8620  223.4550 C   0  0  0  0  0  0  0  0  0  0  0  0
  138.2250   69.4890  224.8260 C   0  0  0  0  0  0  0  0  0  0  0  0
  139.6740   69.9950  224.7080 C   0  0  2  0  0  0  0  0  0  0  0  0
  140.1940   70.5710  225.8910 C   0  0  0  0  0  0  0  0  0  0  0  0
  140.9710   71.6870  225.9710 C   0  0  0  0  0  0  0  0  0  0  0  0
  141.4520   72.2200  227.1570 C   0  0  0  0  0  0  0  0  0  0  0  0
  141.1250   71.5820  228.3420 C   0  0  0  0  0  0  0  0  0  0  0  0
  140.3530   70.4720  228.2820 N   0  0  0  0  0  0  0  0  0  0  0  0
  139.8920   69.9630  227.1340 C   0  0  0  0  0  0  0  0  0  0  0  0
  140.7830   75.9970  221.4540 C   0  0  0  0  0  0  0  0  0  0  0  0
  141.6050   76.5030  220.4690 C   0  0  0  0  0  0  0  0  0  0  0  0
  142.0710   77.8040  220.4840 C   0  0  0  0  0  0  0  0  0  0  0  0
  141.6780   78.5970  221.5400 C   0  0  0  0  0  0  0  0  0  0  0  0
  142.1360   79.9030  221.5690 C   0  0  0  0  0  0  0  0  0  0  0  0
  141.7550   80.7140  222.6150 C   0  0  0  0  0  0  0  0  0  0  0  0
  142.1740   81.9970  222.6910 F   0  0  0  0  0  0  0  0  0  0  0  0
  140.9250   80.2230  223.6200 C   0  0  0  0  0  0  0  0  0  0  0  0
  140.4810   78.9060  223.5640 C   0  0  0  0  0  0  0  0  0  0  0  0
  140.8560   78.0820  222.5180 C   0  0  0  0  0  0  0  0  0  0  0  0
  140.4240   76.8090  222.4670 N   0  0  0  0  0  0  0  0  0  0  0  0
  139.0210   74.8390  223.0520 H   0  0  0  0  0  0  0  0  0  0  0  0
  137.9302   72.6904  222.7889 H   0  0  0  0  0  0  0  0  0  0  0  0
  138.7829   72.4918  221.2071 H   0  0  0  0  0  0  0  0  0  0  0  0
  138.6956   69.8793  221.6194 H   0  0  0  0  0  0  0  0  0  0  0  0
  139.9166   68.8010  222.2048 H   0  0  0  0  0  0  0  0  0  0  0  0
  137.0701   69.0646  223.0561 H   0  0  0  0  0  0  0  0  0  0  0  0
  138.2065   67.7712  223.5086 H   0  0  0  0  0  0  0  0  0  0  0  0
  137.5128   70.3127  224.9821 H   0  0  0  0  0  0  0  0  0  0  0  0
  138.0280   68.8180  225.6751 H   0  0  0  0  0  0  0  0  0  0  0  0
  140.5223   69.2949  224.6925 H   0  0  0  0  0  0  0  0  0  0  0  0
  141.2339   72.1987  225.0334 H   0  0  0  0  0  0  0  0  0  0  0  0
  142.0767   73.1254  227.1569 H   0  0  0  0  0  0  0  0  0  0  0  0
  141.4837   71.9678  229.3077 H   0  0  0  0  0  0  0  0  0  0  0  0
  139.2681   69.0573  227.1558 H   0  0  0  0  0  0  0  0  0  0  0  0
  141.9014   75.8452  219.6387 H   0  0  0  0  0  0  0  0  0  0  0  0
  142.7262   78.1891  219.6887 H   0  0  0  0  0  0  0  0  0  0  0  0
  142.7912   80.2855  220.7725 H   0  0  0  0  0  0  0  0  0  0  0  0
  140.6222   80.8735  224.4538 H   0  0  0  0  0  0  0  0  0  0  0  0
  139.8265   78.5166  224.3577 H   0  0  0  0  0  0  0  0  0  0  0  0
  1  2  2  0
  2  3  1  0
  3  4  1  0
  4  5  1  0
  5  6  2  0
  5  7  1  0
  7  8  1  0
  8  9  1  0
  9 10  1  0
 10 11  1  0
 11 12  1  0
 12 13  2  0
 13 14  1  0
 14 15  2  0
 15 16  1  0
 16 17  2  0
  2 18  1  0
 18 19  2  0
 19 20  1  0
 20 21  2  0
 21 22  1  0
 22 23  2  0
 23 24  1  0
 23 25  1  0
 25 26  2  0
 26 27  1  0
 27 28  2  0
 11  7  1  0
 17 12  1  0
 28 18  1  0
 27 21  1  0
  3 29  1  0
  4 30  1  0
  4 31  1  0
  8 32  1  0
  8 33  1  0
  9 34  1  0
  9 35  1  0
 10 36  1  0
 10 37  1  0
 11 38  1  6
 13 39  1  0
 14 40  1  0
 15 41  1  0
 17 42  1  0
 19 43  1  0
 20 44  1  0
 22 45  1  0
 25 46  1  0
 26 47  1  0
M  END
>  <smiles>  (46) 
O=C(NCC(=O)N1CCCC1c1cccnc1)c1ccc2cc(F)ccc2n1

>  <score_type>  (46) 
oracle

>  <origin>  (46) 
autodockgpu

>  <m_score__min__energy>  (46) 
-8.7200000000000006

>  <m_primary>  (46) 
energy

>  <rmsd>  (46) 
8.579842970021867

>  <m_score__min__rmsd>  (46) 
8.579842970021867

>  <meeko>  (46) 
{"free_energy": -8.42, "intermolecular_energy": -9.91, "internal_energy": -1.42, "cluster_size": 11, "cluster_id": 3, "rank_in_cluster": 3}

>  <energy>  (46) 
-7.8

>  <cluster_rmsd>  (46) 
1.37

>  <cluster>  (46) 
3

$$$$

     RDKit          3D

 47 50  0  0  0  0  0  0  0  0999 V2000
  141.3700   72.1970  221.6390 O   0  0  0  0  0  0  0  0  0  0  0  0
  140.4550   72.4110  222.4750 C   0  0  0  0  0  0  0  0  0  0  0  0
  139.5530   73.5290  222.3450 N   0  0  0  0  0  0  0  0  0  0  0  0
  139.7250   74.4370  221.1930 C   0  0  0  0  0  0  0  0  0  0  0  0
  140.0960   75.7760  221.6330 C   0  0  0  0  0  0  0  0  0  0  0  0
  141.3050   76.1440  221.3920 O   0  0  0  0  0  0  0  0  0  0  0  0
  139.2960   76.7260  222.2940 N   0  0  0  0  0  0  0  0  0  0  0  0
  137.9030   76.3410  222.7030 C   0  0  0  0  0  0  0  0  0  0  0  0
  137.1540   77.6160  222.3190 C   0  0  0  0  0  0  0  0  0  0  0  0
  138.1950   78.6620  221.9760 C   0  0  0  0  0  0  0  0  0  0  0  0
  139.4040   78.0580  222.7120 C   0  0  2  0  0  0  0  0  0  0  0  0
  140.5710   78.8580  222.6820 C   0  0  0  0  0  0  0  0  0  0  0  0
  141.0190   79.5920  221.6260 C   0  0  0  0  0  0  0  0  0  0  0  0
  142.1670   80.3690  221.6460 C   0  0  0  0  0  0  0  0  0  0  0  0
  142.9120   80.4050  222.8130 C   0  0  0  0  0  0  0  0  0  0  0  0
  142.4820   79.6820  223.8730 N   0  0  0  0  0  0  0  0  0  0  0  0
  141.3730   78.9350  223.8470 C   0  0  0  0  0  0  0  0  0  0  0  0
  140.2640   71.5300  223.6210 C   0  0  0  0  0  0  0  0  0  0  0  0
  139.6120   70.3290  223.4420 C   0  0  0  0  0  0  0  0  0  0  0  0
  139.3930   69.4400  224.4780 C   0  0  0  0  0  0  0  0  0  0  0  0
  139.8560   69.8040  225.7230 C   0  0  0  0  0  0  0  0  0  0  0  0
  139.6440   68.9250  226.7710 C   0  0  0  0  0  0  0  0  0  0  0  0
  140.1000   69.2680  228.0250 C   0  0  0  0  0  0  0  0  0  0  0  0
  139.9190   68.4450  229.0820 F   0  0  0  0  0  0  0  0  0  0  0  0
  140.7610   70.4780  228.2260 C   0  0  0  0  0  0  0  0  0  0  0  0
  140.9590   71.3410  227.1540 C   0  0  0  0  0  0  0  0  0  0  0  0
  140.5060   71.0070  225.8900 C   0  0  0  0  0  0  0  0  0  0  0  0
  140.7000   71.8450  224.8550 N   0  0  0  0  0  0  0  0  0  0  0  0
  138.8110   73.6700  223.0600 H   0  0  0  0  0  0  0  0  0  0  0  0
  140.5158   74.0416  220.5385 H   0  0  0  0  0  0  0  0  0  0  0  0
  138.7701   74.4988  220.6504 H   0  0  0  0  0  0  0  0  0  0  0  0
  137.5387   75.4683  222.1412 H   0  0  0  0  0  0  0  0  0  0  0  0
  137.7951   76.0385  223.7551 H   0  0  0  0  0  0  0  0  0  0  0  0
  136.5093   77.4264  221.4482 H   0  0  0  0  0  0  0  0  0  0  0  0
  136.5155   77.9578  223.1470 H   0  0  0  0  0  0  0  0  0  0  0  0
  138.3663   78.7319  220.8917 H   0  0  0  0  0  0  0  0  0  0  0  0
  137.9378   79.6930  222.2603 H   0  0  0  0  0  0  0  0  0  0  0  0
  139.4565   78.0490  223.8107 H   0  0  0  0  0  0  0  0  0  0  0  0
  140.4316   79.5667  220.6963 H   0  0  0  0  0  0  0  0  0  0  0  0
  142.4776   80.9412  220.7594 H   0  0  0  0  0  0  0  0  0  0  0  0
  143.8307   81.0066  222.8767 H   0  0  0  0  0  0  0  0  0  0  0  0
  141.0790   78.3714  224.7447 H   0  0  0  0  0  0  0  0  0  0  0  0
  139.2519   70.0677  222.4360 H   0  0  0  0  0  0  0  0  0  0  0  0
  138.8723   68.4848  224.3152 H   0  0  0  0  0  0  0  0  0  0  0  0
  139.1216   67.9712  226.6058 H   0  0  0  0  0  0  0  0  0  0  0  0
  141.1245   70.7492  229.2281 H   0  0  0  0  0  0  0  0  0  0  0  0
  141.4799   72.2969  227.3120 H   0  0  0  0  0  0  0  0  0  0  0  0
  1  2  2  0
  2  3  1  0
  3  4  1  0
  4  5  1  0
  5  6  2  0
  5  7  1  0
  7  8  1  0
  8  9  1  0
  9 10  1  0
 10 11  1  0
 11 12  1  0
 12 13  2  0
 13 14  1  0
 14 15  2  0
 15 16  1  0
 16 17  2  0
  2 18  1  0
 18 19  2  0
 19 20  1  0
 20 21  2  0
 21 22  1  0
 22 23  2  0
 23 24  1  0
 23 25  1  0
 25 26  2  0
 26 27  1  0
 27 28  2  0
 11  7  1  0
 17 12  1  0
 28 18  1  0
 27 21  1  0
  3 29  1  0
  4 30  1  0
  4 31  1  0
  8 32  1  0
  8 33  1  0
  9 34  1  0
  9 35  1  0
 10 36  1  0
 10 37  1  0
 11 38  1  1
 13 39  1  0
 14 40  1  0
 15 41  1  0
 17 42  1  0
 19 43  1  0
 20 44  1  0
 22 45  1  0
 25 46  1  0
 26 47  1  0
M  END
>  <smiles>  (47) 
O=C(NCC(=O)N1CCCC1c1cccnc1)c1ccc2cc(F)ccc2n1

>  <score_type>  (47) 
oracle

>  <origin>  (47) 
autodockgpu

>  <m_score__min__energy>  (47) 
-8.7200000000000006

>  <m_primary>  (47) 
energy

>  <rmsd>  (47) 
2.8506326751909588

>  <m_score__min__rmsd>  (47) 
2.8506326751909588

>  <meeko>  (47) 
{"free_energy": -8.57, "intermolecular_energy": -10.06, "internal_energy": -1.14, "cluster_size": 25, "cluster_id": 2, "rank_in_cluster": 3}

>  <energy>  (47) 
-7.75

>  <cluster_rmsd>  (47) 
1.4

>  <cluster>  (47) 
3

$$$$

     RDKit          3D

 47 50  0  0  0  0  0  0  0  0999 V2000
  139.7070   71.2380  221.0840 O   0  0  0  0  0  0  0  0  0  0  0  0
  139.6750   71.7990  222.2090 C   0  0  0  0  0  0  0  0  0  0  0  0
  139.5810   73.2330  222.3410 N   0  0  0  0  0  0  0  0  0  0  0  0
  139.5240   74.0460  221.1090 C   0  0  0  0  0  0  0  0  0  0  0  0
  139.9660   75.4120  221.3630 C   0  0  0  0  0  0  0  0  0  0  0  0
  139.9480   75.8000  222.5910 O   0  0  0  0  0  0  0  0  0  0  0  0
  140.4100   76.3690  220.4340 N   0  0  0  0  0  0  0  0  0  0  0  0
  140.4010   76.0190  218.9730 C   0  0  0  0  0  0  0  0  0  0  0  0
  141.7450   76.6100  218.5510 C   0  0  0  0  0  0  0  0  0  0  0  0
  142.2580   77.4330  219.7140 C   0  0  0  0  0  0  0  0  0  0  0  0
  140.9300   77.6700  220.4550 C   0  0  2  0  0  0  0  0  0  0  0  0
  141.0280   78.5180  221.5840 C   0  0  0  0  0  0  0  0  0  0  0  0
  142.1690   79.0680  222.0830 C   0  0  0  0  0  0  0  0  0  0  0  0
  142.2150   79.9020  223.1890 C   0  0  0  0  0  0  0  0  0  0  0  0
  141.0260   80.2000  223.8340 C   0  0  0  0  0  0  0  0  0  0  0  0
  139.8810   79.6620  223.3510 N   0  0  0  0  0  0  0  0  0  0  0  0
  139.8440   78.8580  222.2830 C   0  0  0  0  0  0  0  0  0  0  0  0
  139.7290   71.0200  223.4390 C   0  0  0  0  0  0  0  0  0  0  0  0
  139.2230   69.7380  223.4450 C   0  0  0  0  0  0  0  0  0  0  0  0
  139.2390   68.9360  224.5710 C   0  0  0  0  0  0  0  0  0  0  0  0
  139.7890   69.4740  225.7140 C   0  0  0  0  0  0  0  0  0  0  0  0
  139.8130   68.6840  226.8510 C   0  0  0  0  0  0  0  0  0  0  0  0
  140.3590   69.2010  228.0040 C   0  0  0  0  0  0  0  0  0  0  0  0
  140.4070   68.4720  229.1410 F   0  0  0  0  0  0  0  0  0  0  0  0
  140.8770   70.4950  228.0190 C   0  0  0  0  0  0  0  0  0  0  0  0
  140.8390   71.2650  226.8610 C   0  0  0  0  0  0  0  0  0  0  0  0
  140.2930   70.7570  225.6970 C   0  0  0  0  0  0  0  0  0  0  0  0
  140.2590   71.5040  224.5790 N   0  0  0  0  0  0  0  0  0  0  0  0
  139.5580   73.6560  223.2900 H   0  0  0  0  0  0  0  0  0  0  0  0
  140.1764   73.5925  220.3483 H   0  0  0  0  0  0  0  0  0  0  0  0
  138.4825   74.0747  220.7562 H   0  0  0  0  0  0  0  0  0  0  0  0
  140.3653   74.9311  218.8140 H   0  0  0  0  0  0  0  0  0  0  0  0
  139.5327   76.3946  218.4117 H   0  0  0  0  0  0  0  0  0  0  0  0
  142.4552   75.8028  218.3184 H   0  0  0  0  0  0  0  0  0  0  0  0
  141.6321   77.2333  217.6517 H   0  0  0  0  0  0  0  0  0  0  0  0
  142.9777   76.8725  220.3287 H   0  0  0  0  0  0  0  0  0  0  0  0
  142.8118   78.3426  219.4385 H   0  0  0  0  0  0  0  0  0  0  0  0
  140.1581   78.3351  220.0405 H   0  0  0  0  0  0  0  0  0  0  0  0
  143.1166   78.8352  221.5751 H   0  0  0  0  0  0  0  0  0  0  0  0
  143.1699   80.3161  223.5449 H   0  0  0  0  0  0  0  0  0  0  0  0
  141.0122   80.8570  224.7162 H   0  0  0  0  0  0  0  0  0  0  0  0
  138.8791   78.4545  221.9421 H   0  0  0  0  0  0  0  0  0  0  0  0
  138.7892   69.3370  222.5171 H   0  0  0  0  0  0  0  0  0  0  0  0
  138.8311   67.9146  224.5551 H   0  0  0  0  0  0  0  0  0  0  0  0
  139.4037   67.6631  226.8332 H   0  0  0  0  0  0  0  0  0  0  0  0
  141.3135   70.9052  228.9416 H   0  0  0  0  0  0  0  0  0  0  0  0
  141.2468   72.2866  226.8716 H   0  0  0  0  0  0  0  0  0  0  0  0
  1  2  2  0
  2  3  1  0
  3  4  1  0
  4  5  1  0
  5  6  2  0
  5  7  1  0
  7  8  1  0
  8  9  1  0
  9 10  1  0
 10 11  1  0
 11 12  1  0
 12 13  2  0
 13 14  1  0
 14 15  2  0
 15 16  1  0
 16 17  2  0
  2 18  1  0
 18 19  2  0
 19 20  1  0
 20 21  2  0
 21 22  1  0
 22 23  2  0
 23 24  1  0
 23 25  1  0
 25 26  2  0
 26 27  1  0
 27 28  2  0
 11  7  1  0
 17 12  1  0
 28 18  1  0
 27 21  1  0
  3 29  1  0
  4 30  1  0
  4 31  1  0
  8 32  1  0
  8 33  1  0
  9 34  1  0
  9 35  1  0
 10 36  1  0
 10 37  1  0
 11 38  1  6
 13 39  1  0
 14 40  1  0
 15 41  1  0
 17 42  1  0
 19 43  1  0
 20 44  1  0
 22 45  1  0
 25 46  1  0
 26 47  1  0
M  END
>  <smiles>  (48) 
O=C(NCC(=O)N1CCCC1c1cccnc1)c1ccc2cc(F)ccc2n1

>  <score_type>  (48) 
oracle

>  <origin>  (48) 
autodockgpu

>  <m_score__min__energy>  (48) 
-8.7200000000000006

>  <m_primary>  (48) 
energy

>  <rmsd>  (48) 
1.3833378107954366

>  <m_score__min__rmsd>  (48) 
1.3833378107954366

>  <meeko>  (48) 
{"free_energy": -8.03, "intermolecular_energy": -9.52, "internal_energy": -1.76, "cluster_size": 25, "cluster_id": 2, "rank_in_cluster": 20}

>  <energy>  (48) 
-7.5

>  <cluster_rmsd>  (48) 
1.77

>  <cluster>  (48) 
3

$$$$

     RDKit          3D

 47 50  0  0  0  0  0  0  0  0999 V2000
  139.8210   71.0120  221.1690 O   0  0  0  0  0  0  0  0  0  0  0  0
  139.7500   71.5860  222.2860 C   0  0  0  0  0  0  0  0  0  0  0  0
  139.6470   73.0210  222.3980 N   0  0  0  0  0  0  0  0  0  0  0  0
  139.6260   73.8200  221.1560 C   0  0  0  0  0  0  0  0  0  0  0  0
  140.0260   75.1980  221.4140 C   0  0  0  0  0  0  0  0  0  0  0  0
  139.8770   75.6200  222.6200 O   0  0  0  0  0  0  0  0  0  0  0  0
  140.5560   76.1330  220.5070 N   0  0  0  0  0  0  0  0  0  0  0  0
  140.7030   75.7410  219.0650 C   0  0  0  0  0  0  0  0  0  0  0  0
  142.0780   76.3370  218.7680 C   0  0  0  0  0  0  0  0  0  0  0  0
  142.4590   77.2000  219.9540 C   0  0  0  0  0  0  0  0  0  0  0  0
  141.0570   77.4410  220.5440 C   0  0  2  0  0  0  0  0  0  0  0  0
  141.0280   78.3220  221.6510 C   0  0  0  0  0  0  0  0  0  0  0  0
  139.9710   78.5380  222.4820 C   0  0  0  0  0  0  0  0  0  0  0  0
  139.9920   79.4080  223.5610 C   0  0  0  0  0  0  0  0  0  0  0  0
  141.1600   80.1060  223.8170 C   0  0  0  0  0  0  0  0  0  0  0  0
  142.2200   79.9040  223.0010 N   0  0  0  0  0  0  0  0  0  0  0  0
  142.1940   79.0630  221.9610 C   0  0  0  0  0  0  0  0  0  0  0  0
  139.7670   70.8210  223.5260 C   0  0  0  0  0  0  0  0  0  0  0  0
  139.2020   69.5640  223.5480 C   0  0  0  0  0  0  0  0  0  0  0  0
  139.1800   68.7770  224.6850 C   0  0  0  0  0  0  0  0  0  0  0  0
  139.7530   69.3030  225.8210 C   0  0  0  0  0  0  0  0  0  0  0  0
  139.7390   68.5280  226.9680 C   0  0  0  0  0  0  0  0  0  0  0  0
  140.3070   69.0340  228.1150 C   0  0  0  0  0  0  0  0  0  0  0  0
  140.3210   68.3190  229.2620 F   0  0  0  0  0  0  0  0  0  0  0  0
  140.8840   70.3030  228.1150 C   0  0  0  0  0  0  0  0  0  0  0  0
  140.8830   71.0590  226.9470 C   0  0  0  0  0  0  0  0  0  0  0  0
  140.3150   70.5610  225.7880 C   0  0  0  0  0  0  0  0  0  0  0  0
  140.3170   71.2950  224.6610 N   0  0  0  0  0  0  0  0  0  0  0  0
  139.5910   73.4550  223.3410 H   0  0  0  0  0  0  0  0  0  0  0  0
  140.3210   73.3738  220.4295 H   0  0  0  0  0  0  0  0  0  0  0  0
  138.6006   73.8216  220.7578 H   0  0  0  0  0  0  0  0  0  0  0  0
  140.6948   74.6486  218.9359 H   0  0  0  0  0  0  0  0  0  0  0  0
  139.8945   76.0888  218.4052 H   0  0  0  0  0  0  0  0  0  0  0  0
  142.8164   75.5327  218.6347 H   0  0  0  0  0  0  0  0  0  0  0  0
  142.0535   76.9330  217.8438 H   0  0  0  0  0  0  0  0  0  0  0  0
  143.1153   76.6665  220.6573 H   0  0  0  0  0  0  0  0  0  0  0  0
  143.0304   78.1081  219.7115 H   0  0  0  0  0  0  0  0  0  0  0  0
  140.3256   78.0833  220.0318 H   0  0  0  0  0  0  0  0  0  0  0  0
  139.0401   77.9863  222.2842 H   0  0  0  0  0  0  0  0  0  0  0  0
  139.1043   79.5403  224.1970 H   0  0  0  0  0  0  0  0  0  0  0  0
  141.2244   80.8069  224.6623 H   0  0  0  0  0  0  0  0  0  0  0  0
  143.0923   78.9453  221.3371 H   0  0  0  0  0  0  0  0  0  0  0  0
  138.7508   69.1713  222.6248 H   0  0  0  0  0  0  0  0  0  0  0  0
  138.7250   67.7755  224.6819 H   0  0  0  0  0  0  0  0  0  0  0  0
  139.2827   67.5271  226.9628 H   0  0  0  0  0  0  0  0  0  0  0  0
  141.3375   70.7044  229.0333 H   0  0  0  0  0  0  0  0  0  0  0  0
  141.3375   72.0607  226.9451 H   0  0  0  0  0  0  0  0  0  0  0  0
  1  2  2  0
  2  3  1  0
  3  4  1  0
  4  5  1  0
  5  6  2  0
  5  7  1  0
  7  8  1  0
  8  9  1  0
  9 10  1  0
 10 11  1  0
 11 12  1  0
 12 13  2  0
 13 14  1  0
 14 15  2  0
 15 16  1  0
 16 17  2  0
  2 18  1  0
 18 19  2  0
 19 20  1  0
 20 21  2  0
 21 22  1  0
 22 23  2  0
 23 24  1  0
 23 25  1  0
 25 26  2  0
 26 27  1  0
 27 28  2  0
 11  7  1  0
 17 12  1  0
 28 18  1  0
 27 21  1  0
  3 29  1  0
  4 30  1  0
  4 31  1  0
  8 32  1  0
  8 33  1  0
  9 34  1  0
  9 35  1  0
 10 36  1  0
 10 37  1  0
 11 38  1  6
 13 39  1  0
 14 40  1  0
 15 41  1  0
 17 42  1  0
 19 43  1  0
 20 44  1  0
 22 45  1  0
 25 46  1  0
 26 47  1  0
M  END
>  <smiles>  (49) 
O=C(NCC(=O)N1CCCC1c1cccnc1)c1ccc2cc(F)ccc2n1

>  <score_type>  (49) 
oracle

>  <origin>  (49) 
autodockgpu

>  <m_score__min__energy>  (49) 
-8.7200000000000006

>  <m_primary>  (49) 
energy

>  <rmsd>  (49) 
1.4705016496605676

>  <m_score__min__rmsd>  (49) 
1.4705016496605676

>  <meeko>  (49) 
{"free_energy": -8.04, "intermolecular_energy": -9.53, "internal_energy": -1.72, "cluster_size": 25, "cluster_id": 2, "rank_in_cluster": 19}

>  <energy>  (49) 
-7.89

>  <cluster_rmsd>  (49) 
0.0

>  <cluster>  (49) 
4

$$$$

     RDKit          3D

 47 50  0  0  0  0  0  0  0  0999 V2000
  141.4150   72.4000  221.7670 O   0  0  0  0  0  0  0  0  0  0  0  0
  140.4260   72.5040  222.5370 C   0  0  0  0  0  0  0  0  0  0  0  0
  139.4130   73.5130  222.3400 N   0  0  0  0  0  0  0  0  0  0  0  0
  139.5620   74.4410  221.2010 C   0  0  0  0  0  0  0  0  0  0  0  0
  139.9220   75.7770  221.6580 C   0  0  0  0  0  0  0  0  0  0  0  0
  141.1240   76.1640  221.4050 O   0  0  0  0  0  0  0  0  0  0  0  0
  139.1220   76.7060  222.3460 N   0  0  0  0  0  0  0  0  0  0  0  0
  137.7440   76.2930  222.7810 C   0  0  0  0  0  0  0  0  0  0  0  0
  136.9660   77.5590  222.4270 C   0  0  0  0  0  0  0  0  0  0  0  0
  137.9810   78.6260  222.0730 C   0  0  0  0  0  0  0  0  0  0  0  0
  139.2160   78.0360  222.7760 C   0  0  2  0  0  0  0  0  0  0  0  0
  140.3680   78.8550  222.7300 C   0  0  0  0  0  0  0  0  0  0  0  0
  141.4590   78.7610  223.5400 C   0  0  0  0  0  0  0  0  0  0  0  0
  142.5710   79.5830  223.4500 C   0  0  0  0  0  0  0  0  0  0  0  0
  142.5810   80.5680  222.4760 C   0  0  0  0  0  0  0  0  0  0  0  0
  141.5060   80.6760  221.6620 N   0  0  0  0  0  0  0  0  0  0  0  0
  140.4360   79.8790  221.7530 C   0  0  0  0  0  0  0  0  0  0  0  0
  140.2550   71.6010  223.6680 C   0  0  0  0  0  0  0  0  0  0  0  0
  139.5940   70.4060  223.4800 C   0  0  0  0  0  0  0  0  0  0  0  0
  139.3930   69.4980  224.5020 C   0  0  0  0  0  0  0  0  0  0  0  0
  139.8860   69.8340  225.7440 C   0  0  0  0  0  0  0  0  0  0  0  0
  139.6930   68.9350  226.7780 C   0  0  0  0  0  0  0  0  0  0  0  0
  140.1790   69.2500  228.0280 C   0  0  0  0  0  0  0  0  0  0  0  0
  140.0180   68.4070  229.0720 F   0  0  0  0  0  0  0  0  0  0  0  0
  140.8500   70.4530  228.2390 C   0  0  0  0  0  0  0  0  0  0  0  0
  141.0280   71.3370  227.1800 C   0  0  0  0  0  0  0  0  0  0  0  0
  140.5460   71.0310  225.9210 C   0  0  0  0  0  0  0  0  0  0  0  0
  140.7210   71.8880  224.8990 N   0  0  0  0  0  0  0  0  0  0  0  0
  138.6120   73.5650  223.0000 H   0  0  0  0  0  0  0  0  0  0  0  0
  140.3502   74.0654  220.5320 H   0  0  0  0  0  0  0  0  0  0  0  0
  138.6006   74.5001  220.6698 H   0  0  0  0  0  0  0  0  0  0  0  0
  137.3822   75.4202  222.2178 H   0  0  0  0  0  0  0  0  0  0  0  0
  137.6640   75.9776  223.8318 H   0  0  0  0  0  0  0  0  0  0  0  0
  136.3058   77.3675  221.5683 H   0  0  0  0  0  0  0  0  0  0  0  0
  136.3403   77.8813  223.2724 H   0  0  0  0  0  0  0  0  0  0  0  0
  138.1274   78.7100  220.9860 H   0  0  0  0  0  0  0  0  0  0  0  0
  137.7123   79.6493  222.3740 H   0  0  0  0  0  0  0  0  0  0  0  0
  139.2920   78.0178  223.8732 H   0  0  0  0  0  0  0  0  0  0  0  0
  141.4573   77.9817  224.3163 H   0  0  0  0  0  0  0  0  0  0  0  0
  143.4232   79.4567  224.1339 H   0  0  0  0  0  0  0  0  0  0  0  0
  143.4411   81.2450  222.3673 H   0  0  0  0  0  0  0  0  0  0  0  0
  139.5951   80.0207  221.0582 H   0  0  0  0  0  0  0  0  0  0  0  0
  139.2115   70.1658  222.4770 H   0  0  0  0  0  0  0  0  0  0  0  0
  138.8631   68.5492  224.3316 H   0  0  0  0  0  0  0  0  0  0  0  0
  139.1619   67.9873  226.6053 H   0  0  0  0  0  0  0  0  0  0  0  0
  141.2370   70.7022  229.2381 H   0  0  0  0  0  0  0  0  0  0  0  0
  141.5566   72.2873  227.3456 H   0  0  0  0  0  0  0  0  0  0  0  0
  1  2  2  0
  2  3  1  0
  3  4  1  0
  4  5  1  0
  5  6  2  0
  5  7  1  0
  7  8  1  0
  8  9  1  0
  9 10  1  0
 10 11  1  0
 11 12  1  0
 12 13  2  0
 13 14  1  0
 14 15  2  0
 15 16  1  0
 16 17  2  0
  2 18  1  0
 18 19  2  0
 19 20  1  0
 20 21  2  0
 21 22  1  0
 22 23  2  0
 23 24  1  0
 23 25  1  0
 25 26  2  0
 26 27  1  0
 27 28  2  0
 11  7  1  0
 17 12  1  0
 28 18  1  0
 27 21  1  0
  3 29  1  0
  4 30  1  0
  4 31  1  0
  8 32  1  0
  8 33  1  0
  9 34  1  0
  9 35  1  0
 10 36  1  0
 10 37  1  0
 11 38  1  1
 13 39  1  0
 14 40  1  0
 15 41  1  0
 17 42  1  0
 19 43  1  0
 20 44  1  0
 22 45  1  0
 25 46  1  0
 26 47  1  0
M  END
>  <smiles>  (50) 
O=C(NCC(=O)N1CCCC1c1cccnc1)c1ccc2cc(F)ccc2n1

>  <score_type>  (50) 
oracle

>  <origin>  (50) 
autodockgpu

>  <m_score__min__energy>  (50) 
-8.7200000000000006

>  <m_primary>  (50) 
energy

>  <rmsd>  (50) 
2.92292040750101

>  <m_score__min__rmsd>  (50) 
2.92292040750101

>  <meeko>  (50) 
{"free_energy": -8.48, "intermolecular_energy": -9.97, "internal_energy": -1.15, "cluster_size": 25, "cluster_id": 2, "rank_in_cluster": 5}

>  <energy>  (50) 
-7.87

>  <cluster_rmsd>  (50) 
0.08

>  <cluster>  (50) 
4

$$$$

     RDKit          3D

 47 50  0  0  0  0  0  0  0  0999 V2000
  139.9470   73.5200  222.3550 O   0  0  0  0  0  0  0  0  0  0  0  0
  140.4530   72.3460  222.3780 C   0  0  0  0  0  0  0  0  0  0  0  0
  141.2080   71.8830  221.2680 N   0  0  0  0  0  0  0  0  0  0  0  0
  141.3770   72.7650  220.1460 C   0  0  0  0  0  0  0  0  0  0  0  0
  142.5770   73.6020  220.2400 C   0  0  0  0  0  0  0  0  0  0  0  0
  142.4160   74.8510  220.3860 O   0  0  0  0  0  0  0  0  0  0  0  0
  143.9100   73.1400  220.1810 N   0  0  0  0  0  0  0  0  0  0  0  0
  144.9250   73.2520  221.2060 C   0  0  0  0  0  0  0  0  0  0  0  0
  146.2670   73.1400  220.5390 C   0  0  0  0  0  0  0  0  0  0  0  0
  145.9430   73.1610  219.0650 C   0  0  0  0  0  0  0  0  0  0  0  0
  144.6060   72.4460  219.0860 C   0  0  1  0  0  0  0  0  0  0  0  0
  144.6980   71.0130  219.2860 C   0  0  0  0  0  0  0  0  0  0  0  0
  143.5350   70.2720  219.5290 C   0  0  0  0  0  0  0  0  0  0  0  0
  143.5900   68.8940  219.7190 C   0  0  0  0  0  0  0  0  0  0  0  0
  144.7990   68.2380  219.6700 C   0  0  0  0  0  0  0  0  0  0  0  0
  145.9000   68.9390  219.4410 N   0  0  0  0  0  0  0  0  0  0  0  0
  145.8650   70.2640  219.2560 C   0  0  0  0  0  0  0  0  0  0  0  0
  140.2510   71.4870  223.5460 C   0  0  0  0  0  0  0  0  0  0  0  0
  139.5990   70.2790  223.3890 C   0  0  0  0  0  0  0  0  0  0  0  0
  139.3900   69.4500  224.4550 C   0  0  0  0  0  0  0  0  0  0  0  0
  139.8550   69.8550  225.7050 C   0  0  0  0  0  0  0  0  0  0  0  0
  139.6580   69.0410  226.7860 C   0  0  0  0  0  0  0  0  0  0  0  0
  140.1270   69.4640  228.0060 C   0  0  0  0  0  0  0  0  0  0  0  0
  139.9620   68.7040  229.1090 F   0  0  0  0  0  0  0  0  0  0  0  0
  140.7850   70.6910  228.1410 C   0  0  0  0  0  0  0  0  0  0  0  0
  140.9850   71.5180  227.0430 C   0  0  0  0  0  0  0  0  0  0  0  0
  140.5040   71.0680  225.8300 C   0  0  0  0  0  0  0  0  0  0  0  0
  140.7040   71.8810  224.7640 N   0  0  0  0  0  0  0  0  0  0  0  0
  141.6170   70.9210  221.2970 H   0  0  0  0  0  0  0  0  0  0  0  0
  141.4464   72.1572  219.2318 H   0  0  0  0  0  0  0  0  0  0  0  0
  140.5094   73.4411  220.1304 H   0  0  0  0  0  0  0  0  0  0  0  0
  144.8392   74.2246  221.7127 H   0  0  0  0  0  0  0  0  0  0  0  0
  144.8019   72.4574  221.9566 H   0  0  0  0  0  0  0  0  0  0  0  0
  146.9109   73.9896  220.8103 H   0  0  0  0  0  0  0  0  0  0  0  0
  146.8159   72.2354  220.8397 H   0  0  0  0  0  0  0  0  0  0  0  0
  145.8522   74.1876  218.6805 H   0  0  0  0  0  0  0  0  0  0  0  0
  146.7043   72.7062  218.4142 H   0  0  0  0  0  0  0  0  0  0  0  0
  144.0810   72.4963  218.1207 H   0  0  0  0  0  0  0  0  0  0  0  0
  142.5635   70.7864  219.5704 H   0  0  0  0  0  0  0  0  0  0  0  0
  142.6657   68.3285  219.9086 H   0  0  0  0  0  0  0  0  0  0  0  0
  144.8505   67.1493  219.8186 H   0  0  0  0  0  0  0  0  0  0  0  0
  146.8141   70.7880  219.0699 H   0  0  0  0  0  0  0  0  0  0  0  0
  139.2432   69.9804  222.3919 H   0  0  0  0  0  0  0  0  0  0  0  0
  138.8690   68.4893  224.3300 H   0  0  0  0  0  0  0  0  0  0  0  0
  139.1396   68.0764  226.6818 H   0  0  0  0  0  0  0  0  0  0  0  0
  141.1491   71.0053  229.1303 H   0  0  0  0  0  0  0  0  0  0  0  0
  141.5017   72.4847  227.1357 H   0  0  0  0  0  0  0  0  0  0  0  0
  1  2  2  0
  2  3  1  0
  3  4  1  0
  4  5  1  0
  5  6  2  0
  5  7  1  0
  7  8  1  0
  8  9  1  0
  9 10  1  0
 10 11  1  0
 11 12  1  0
 12 13  2  0
 13 14  1  0
 14 15  2  0
 15 16  1  0
 16 17  2  0
  2 18  1  0
 18 19  2  0
 19 20  1  0
 20 21  2  0
 21 22  1  0
 22 23  2  0
 23 24  1  0
 23 25  1  0
 25 26  2  0
 26 27  1  0
 27 28  2  0
 11  7  1  0
 17 12  1  0
 28 18  1  0
 27 21  1  0
  3 29  1  0
  4 30  1  0
  4 31  1  0
  8 32  1  0
  8 33  1  0
  9 34  1  0
  9 35  1  0
 10 36  1  0
 10 37  1  0
 11 38  1  6
 13 39  1  0
 14 40  1  0
 15 41  1  0
 17 42  1  0
 19 43  1  0
 20 44  1  0
 22 45  1  0
 25 46  1  0
 26 47  1  0
M  END
>  <smiles>  (51) 
O=C(NCC(=O)N1CCCC1c1cccnc1)c1ccc2cc(F)ccc2n1

>  <score_type>  (51) 
oracle

>  <origin>  (51) 
autodockgpu

>  <m_score__min__energy>  (51) 
-8.9800000000000004

>  <m_primary>  (51) 
energy

>  <rmsd>  (51) 
4.171744160491254

>  <m_score__min__rmsd>  (51) 
4.171744160491254

>  <meeko>  (51) 
{"free_energy": -8.07, "intermolecular_energy": -9.56, "internal_energy": -1.27, "cluster_size": 2, "cluster_id": 3, "rank_in_cluster": 1}

>  <energy>  (51) 
-8.98

>  <cluster_rmsd>  (51) 
0.0

>  <cluster>  (51) 
1

$$$$

     RDKit          3D

 47 50  0  0  0  0  0  0  0  0999 V2000
  141.3670   72.4950  221.9260 O   0  0  0  0  0  0  0  0  0  0  0  0
  140.3060   72.4820  222.6400 C   0  0  0  0  0  0  0  0  0  0  0  0
  139.2530   73.3890  222.3530 N   0  0  0  0  0  0  0  0  0  0  0  0
  139.4200   74.3000  221.2550 C   0  0  0  0  0  0  0  0  0  0  0  0
  140.2490   75.4640  221.5850 C   0  0  0  0  0  0  0  0  0  0  0  0
  141.4400   75.2520  221.9630 O   0  0  0  0  0  0  0  0  0  0  0  0
  139.8360   76.8130  221.5210 N   0  0  0  0  0  0  0  0  0  0  0  0
  138.6150   77.3840  222.0480 C   0  0  0  0  0  0  0  0  0  0  0  0
  138.3440   78.6590  221.3000 C   0  0  0  0  0  0  0  0  0  0  0  0
  139.3720   78.6580  220.1950 C   0  0  0  0  0  0  0  0  0  0  0  0
  140.5170   77.9650  220.9090 C   0  0  1  0  0  0  0  0  0  0  0  0
  141.2090   78.7960  221.8750 C   0  0  0  0  0  0  0  0  0  0  0  0
  141.3410   78.3570  223.1980 C   0  0  0  0  0  0  0  0  0  0  0  0
  142.0060   79.1290  224.1460 C   0  0  0  0  0  0  0  0  0  0  0  0
  142.5460   80.3440  223.7920 C   0  0  0  0  0  0  0  0  0  0  0  0
  142.4200   80.7610  222.5390 N   0  0  0  0  0  0  0  0  0  0  0  0
  141.7850   80.0320  221.6160 C   0  0  0  0  0  0  0  0  0  0  0  0
  140.1850   71.5330  223.7480 C   0  0  0  0  0  0  0  0  0  0  0  0
  139.5680   70.3160  223.5290 C   0  0  0  0  0  0  0  0  0  0  0  0
  139.4350   69.4040  224.5370 C   0  0  0  0  0  0  0  0  0  0  0  0
  139.9410   69.7330  225.7930 C   0  0  0  0  0  0  0  0  0  0  0  0
  139.8190   68.8360  226.8180 C   0  0  0  0  0  0  0  0  0  0  0  0
  140.3270   69.1860  228.0460 C   0  0  0  0  0  0  0  0  0  0  0  0
  140.2370   68.3410  229.0950 F   0  0  0  0  0  0  0  0  0  0  0  0
  140.9480   70.4230  228.2450 C   0  0  0  0  0  0  0  0  0  0  0  0
  141.0720   71.3350  227.2040 C   0  0  0  0  0  0  0  0  0  0  0  0
  140.5530   70.9570  225.9820 C   0  0  0  0  0  0  0  0  0  0  0  0
  140.6780   71.8530  224.9720 N   0  0  0  0  0  0  0  0  0  0  0  0
  138.3900   73.3700  222.9440 H   0  0  0  0  0  0  0  0  0  0  0  0
  139.8936   73.7594  220.4223 H   0  0  0  0  0  0  0  0  0  0  0  0
  138.4209   74.6771  220.9911 H   0  0  0  0  0  0  0  0  0  0  0  0
  137.7809   76.6814  221.9044 H   0  0  0  0  0  0  0  0  0  0  0  0
  138.7180   77.5846  223.1246 H   0  0  0  0  0  0  0  0  0  0  0  0
  137.3248   78.6607  220.8862 H   0  0  0  0  0  0  0  0  0  0  0  0
  138.4124   79.5497  221.9418 H   0  0  0  0  0  0  0  0  0  0  0  0
  139.0306   78.0870  219.3190 H   0  0  0  0  0  0  0  0  0  0  0  0
  139.6125   79.6488  219.7821 H   0  0  0  0  0  0  0  0  0  0  0  0
  141.3384   77.6909  220.2307 H   0  0  0  0  0  0  0  0  0  0  0  0
  140.9127   77.3875  223.4925 H   0  0  0  0  0  0  0  0  0  0  0  0
  142.1001   78.7671  225.1805 H   0  0  0  0  0  0  0  0  0  0  0  0
  143.0735   80.9594  224.5357 H   0  0  0  0  0  0  0  0  0  0  0  0
  141.7150   80.4339  220.5944 H   0  0  0  0  0  0  0  0  0  0  0  0
  139.1783   70.0783  222.5282 H   0  0  0  0  0  0  0  0  0  0  0  0
  138.9420   68.4363  224.3621 H   0  0  0  0  0  0  0  0  0  0  0  0
  139.3289   67.8633  226.6641 H   0  0  0  0  0  0  0  0  0  0  0  0
  141.3438   70.6776  229.2393 H   0  0  0  0  0  0  0  0  0  0  0  0
  141.5599   72.3105  227.3467 H   0  0  0  0  0  0  0  0  0  0  0  0
  1  2  2  0
  2  3  1  0
  3  4  1  0
  4  5  1  0
  5  6  2  0
  5  7  1  0
  7  8  1  0
  8  9  1  0
  9 10  1  0
 10 11  1  0
 11 12  1  0
 12 13  2  0
 13 14  1  0
 14 15  2  0
 15 16  1  0
 16 17  2  0
  2 18  1  0
 18 19  2  0
 19 20  1  0
 20 21  2  0
 21 22  1  0
 22 23  2  0
 23 24  1  0
 23 25  1  0
 25 26  2  0
 26 27  1  0
 27 28  2  0
 11  7  1  0
 17 12  1  0
 28 18  1  0
 27 21  1  0
  3 29  1  0
  4 30  1  0
  4 31  1  0
  8 32  1  0
  8 33  1  0
  9 34  1  0
  9 35  1  0
 10 36  1  0
 10 37  1  0
 11 38  1  6
 13 39  1  0
 14 40  1  0
 15 41  1  0
 17 42  1  0
 19 43  1  0
 20 44  1  0
 22 45  1  0
 25 46  1  0
 26 47  1  0
M  END
>  <smiles>  (52) 
O=C(NCC(=O)N1CCCC1c1cccnc1)c1ccc2cc(F)ccc2n1

>  <score_type>  (52) 
oracle

>  <origin>  (52) 
autodockgpu

>  <m_score__min__energy>  (52) 
-8.9800000000000004

>  <m_primary>  (52) 
energy

>  <rmsd>  (52) 
2.2988869566259167

>  <m_score__min__rmsd>  (52) 
2.2988869566259167

>  <meeko>  (52) 
{"free_energy": -8.63, "intermolecular_energy": -10.12, "internal_energy": -1.05, "cluster_size": 26, "cluster_id": 2, "rank_in_cluster": 5}

>  <energy>  (52) 
-8.98

>  <cluster_rmsd>  (52) 
0.06

>  <cluster>  (52) 
1

$$$$

     RDKit          3D

 47 50  0  0  0  0  0  0  0  0999 V2000
  141.3050   72.4480  221.7210 O   0  0  0  0  0  0  0  0  0  0  0  0
  140.3110   72.5100  222.5220 C   0  0  0  0  0  0  0  0  0  0  0  0
  139.3270   73.5200  222.3470 N   0  0  0  0  0  0  0  0  0  0  0  0
  139.4890   74.4440  221.2590 C   0  0  0  0  0  0  0  0  0  0  0  0
  139.3880   75.8480  221.6690 C   0  0  0  0  0  0  0  0  0  0  0  0
  138.6130   76.1280  222.6330 O   0  0  0  0  0  0  0  0  0  0  0  0
  140.0800   76.9290  221.0800 N   0  0  0  0  0  0  0  0  0  0  0  0
  139.6140   77.8020  220.0260 C   0  0  0  0  0  0  0  0  0  0  0  0
  140.8180   78.4090  219.3630 C   0  0  0  0  0  0  0  0  0  0  0  0
  141.9820   77.6690  219.9770 C   0  0  0  0  0  0  0  0  0  0  0  0
  141.4310   77.4360  221.3710 C   0  0  1  0  0  0  0  0  0  0  0  0
  141.4280   78.6140  222.2160 C   0  0  0  0  0  0  0  0  0  0  0  0
  142.5730   79.4170  222.2880 C   0  0  0  0  0  0  0  0  0  0  0  0
  142.6000   80.5570  223.0860 C   0  0  0  0  0  0  0  0  0  0  0  0
  141.4910   80.9130  223.8190 C   0  0  0  0  0  0  0  0  0  0  0  0
  140.4070   80.1520  223.7520 N   0  0  0  0  0  0  0  0  0  0  0  0
  140.3650   79.0530  222.9910 C   0  0  0  0  0  0  0  0  0  0  0  0
  140.1930   71.5440  223.6150 C   0  0  0  0  0  0  0  0  0  0  0  0
  139.5880   70.3250  223.3740 C   0  0  0  0  0  0  0  0  0  0  0  0
  139.4580   69.3960  224.3670 C   0  0  0  0  0  0  0  0  0  0  0  0
  139.9540   69.7100  225.6310 C   0  0  0  0  0  0  0  0  0  0  0  0
  139.8360   68.7960  226.6420 C   0  0  0  0  0  0  0  0  0  0  0  0
  140.3340   69.1320  227.8770 C   0  0  0  0  0  0  0  0  0  0  0  0
  140.2460   68.2710  228.9120 F   0  0  0  0  0  0  0  0  0  0  0  0
  140.9430   70.3710  228.0980 C   0  0  0  0  0  0  0  0  0  0  0  0
  141.0630   71.3010  227.0720 C   0  0  0  0  0  0  0  0  0  0  0  0
  140.5540   70.9370  225.8420 C   0  0  0  0  0  0  0  0  0  0  0  0
  140.6760   71.8490  224.8470 N   0  0  0  0  0  0  0  0  0  0  0  0
  138.5190   73.5620  223.0090 H   0  0  0  0  0  0  0  0  0  0  0  0
  140.4795   74.2824  220.8086 H   0  0  0  0  0  0  0  0  0  0  0  0
  138.6729   74.2537  220.5465 H   0  0  0  0  0  0  0  0  0  0  0  0
  139.0342   77.2242  219.2911 H   0  0  0  0  0  0  0  0  0  0  0  0
  138.9662   78.5893  220.4389 H   0  0  0  0  0  0  0  0  0  0  0  0
  140.7855   78.2534  218.2746 H   0  0  0  0  0  0  0  0  0  0  0  0
  140.8809   79.4971  219.5118 H   0  0  0  0  0  0  0  0  0  0  0  0
  142.1872   76.7230  219.4545 H   0  0  0  0  0  0  0  0  0  0  0  0
  142.9443   78.2006  219.9391 H   0  0  0  0  0  0  0  0  0  0  0  0
  142.0491   76.7456  221.9637 H   0  0  0  0  0  0  0  0  0  0  0  0
  143.4646   79.1426  221.7050 H   0  0  0  0  0  0  0  0  0  0  0  0
  143.5093   81.1744  223.1309 H   0  0  0  0  0  0  0  0  0  0  0  0
  141.5035   81.8139  224.4500 H   0  0  0  0  0  0  0  0  0  0  0  0
  139.4357   78.4646  222.9791 H   0  0  0  0  0  0  0  0  0  0  0  0
  139.2055   70.0995  222.3676 H   0  0  0  0  0  0  0  0  0  0  0  0
  138.9751   68.4267  224.1743 H   0  0  0  0  0  0  0  0  0  0  0  0
  139.3565   67.8209  226.4708 H   0  0  0  0  0  0  0  0  0  0  0  0
  141.3326   70.6132  229.0978 H   0  0  0  0  0  0  0  0  0  0  0  0
  141.5402   72.2790  227.2326 H   0  0  0  0  0  0  0  0  0  0  0  0
  1  2  2  0
  2  3  1  0
  3  4  1  0
  4  5  1  0
  5  6  2  0
  5  7  1  0
  7  8  1  0
  8  9  1  0
  9 10  1  0
 10 11  1  0
 11 12  1  0
 12 13  2  0
 13 14  1  0
 14 15  2  0
 15 16  1  0
 16 17  2  0
  2 18  1  0
 18 19  2  0
 19 20  1  0
 20 21  2  0
 21 22  1  0
 22 23  2  0
 23 24  1  0
 23 25  1  0
 25 26  2  0
 26 27  1  0
 27 28  2  0
 11  7  1  0
 17 12  1  0
 28 18  1  0
 27 21  1  0
  3 29  1  0
  4 30  1  0
  4 31  1  0
  8 32  1  0
  8 33  1  0
  9 34  1  0
  9 35  1  0
 10 36  1  0
 10 37  1  0
 11 38  1  1
 13 39  1  0
 14 40  1  0
 15 41  1  0
 17 42  1  0
 19 43  1  0
 20 44  1  0
 22 45  1  0
 25 46  1  0
 26 47  1  0
M  END
>  <smiles>  (53) 
O=C(NCC(=O)N1CCCC1c1cccnc1)c1ccc2cc(F)ccc2n1

>  <score_type>  (53) 
oracle

>  <origin>  (53) 
autodockgpu

>  <m_score__min__energy>  (53) 
-8.9800000000000004

>  <m_primary>  (53) 
energy

>  <rmsd>  (53) 
1.8775370698654996

>  <m_score__min__rmsd>  (53) 
1.8775370698654996

>  <meeko>  (53) 
{"free_energy": -8.51, "intermolecular_energy": -10.0, "internal_energy": -1.26, "cluster_size": 26, "cluster_id": 2, "rank_in_cluster": 10}

>  <energy>  (53) 
-8.97

>  <cluster_rmsd>  (53) 
0.07

>  <cluster>  (53) 
1

$$$$

     RDKit          3D

 47 50  0  0  0  0  0  0  0  0999 V2000
  141.3630   72.3930  221.5430 O   0  0  0  0  0  0  0  0  0  0  0  0
  140.4590   72.6050  222.4230 C   0  0  0  0  0  0  0  0  0  0  0  0
  139.6630   73.7780  222.3460 N   0  0  0  0  0  0  0  0  0  0  0  0
  139.9050   74.6950  221.2670 C   0  0  0  0  0  0  0  0  0  0  0  0
  139.3470   76.0300  221.5010 C   0  0  0  0  0  0  0  0  0  0  0  0
  138.3340   76.1220  222.2590 O   0  0  0  0  0  0  0  0  0  0  0  0
  139.8380   77.2350  220.9530 N   0  0  0  0  0  0  0  0  0  0  0  0
  139.0680   78.3190  220.3820 C   0  0  0  0  0  0  0  0  0  0  0  0
  139.9740   79.0930  219.4650 C   0  0  0  0  0  0  0  0  0  0  0  0
  141.2310   78.2590  219.4070 C   0  0  0  0  0  0  0  0  0  0  0  0
  141.2300   77.6930  220.8140 C   0  0  1  0  0  0  0  0  0  0  0  0
  141.6230   78.6410  221.8390 C   0  0  0  0  0  0  0  0  0  0  0  0
  141.4310   78.3200  223.1880 C   0  0  0  0  0  0  0  0  0  0  0  0
  141.8030   79.2060  224.1950 C   0  0  0  0  0  0  0  0  0  0  0  0
  142.3700   80.4180  223.8740 C   0  0  0  0  0  0  0  0  0  0  0  0
  142.5520   80.7220  222.5960 N   0  0  0  0  0  0  0  0  0  0  0  0
  142.1990   79.8830  221.6160 C   0  0  0  0  0  0  0  0  0  0  0  0
  140.2520   71.6380  223.5020 C   0  0  0  0  0  0  0  0  0  0  0  0
  139.5860   70.4580  223.2320 C   0  0  0  0  0  0  0  0  0  0  0  0
  139.3730   69.5310  224.2120 C   0  0  0  0  0  0  0  0  0  0  0  0
  139.8460   69.8070  225.4930 C   0  0  0  0  0  0  0  0  0  0  0  0
  139.6440   68.8940  226.4910 C   0  0  0  0  0  0  0  0  0  0  0  0
  140.1210   69.1910  227.7440 C   0  0  0  0  0  0  0  0  0  0  0  0
  139.9520   68.3290  228.7690 F   0  0  0  0  0  0  0  0  0  0  0  0
  140.7930   70.3920  227.9960 C   0  0  0  0  0  0  0  0  0  0  0  0
  140.9980   71.3200  226.9820 C   0  0  0  0  0  0  0  0  0  0  0  0
  140.5090   70.9950  225.7340 C   0  0  0  0  0  0  0  0  0  0  0  0
  140.7130   71.9060  224.7510 N   0  0  0  0  0  0  0  0  0  0  0  0
  138.9270   73.9400  223.0710 H   0  0  0  0  0  0  0  0  0  0  0  0
  140.9920   74.7909  221.1282 H   0  0  0  0  0  0  0  0  0  0  0  0
  139.4063   74.2864  220.3757 H   0  0  0  0  0  0  0  0  0  0  0  0
  138.2172   77.9149  219.8139 H   0  0  0  0  0  0  0  0  0  0  0  0
  138.6761   78.9718  221.1759 H   0  0  0  0  0  0  0  0  0  0  0  0
  139.5253   79.1945  218.4658 H   0  0  0  0  0  0  0  0  0  0  0  0
  140.1608   80.1176  219.8191 H   0  0  0  0  0  0  0  0  0  0  0  0
  141.1616   77.4666  218.6472 H   0  0  0  0  0  0  0  0  0  0  0  0
  142.1418   78.8087  219.1272 H   0  0  0  0  0  0  0  0  0  0  0  0
  141.9780   76.8988  220.9545 H   0  0  0  0  0  0  0  0  0  0  0  0
  140.9795   77.3534  223.4561 H   0  0  0  0  0  0  0  0  0  0  0  0
  141.6434   78.9368  225.2495 H   0  0  0  0  0  0  0  0  0  0  0  0
  142.6674   81.1230  224.6643 H   0  0  0  0  0  0  0  0  0  0  0  0
  142.3752   80.1951  220.5760 H   0  0  0  0  0  0  0  0  0  0  0  0
  139.2219   70.2623  222.2126 H   0  0  0  0  0  0  0  0  0  0  0  0
  138.8424   68.5920  223.9958 H   0  0  0  0  0  0  0  0  0  0  0  0
  139.1150   67.9495  226.2958 H   0  0  0  0  0  0  0  0  0  0  0  0
  141.1638   70.6044  229.0096 H   0  0  0  0  0  0  0  0  0  0  0  0
  141.5248   72.2680  227.1659 H   0  0  0  0  0  0  0  0  0  0  0  0
  1  2  2  0
  2  3  1  0
  3  4  1  0
  4  5  1  0
  5  6  2  0
  5  7  1  0
  7  8  1  0
  8  9  1  0
  9 10  1  0
 10 11  1  0
 11 12  1  0
 12 13  2  0
 13 14  1  0
 14 15  2  0
 15 16  1  0
 16 17  2  0
  2 18  1  0
 18 19  2  0
 19 20  1  0
 20 21  2  0
 21 22  1  0
 22 23  2  0
 23 24  1  0
 23 25  1  0
 25 26  2  0
 26 27  1  0
 27 28  2  0
 11  7  1  0
 17 12  1  0
 28 18  1  0
 27 21  1  0
  3 29  1  0
  4 30  1  0
  4 31  1  0
  8 32  1  0
  8 33  1  0
  9 34  1  0
  9 35  1  0
 10 36  1  0
 10 37  1  0
 11 38  1  6
 13 39  1  0
 14 40  1  0
 15 41  1  0
 17 42  1  0
 19 43  1  0
 20 44  1  0
 22 45  1  0
 25 46  1  0
 26 47  1  0
M  END
>  <smiles>  (54) 
O=C(NCC(=O)N1CCCC1c1cccnc1)c1ccc2cc(F)ccc2n1

>  <score_type>  (54) 
oracle

>  <origin>  (54) 
autodockgpu

>  <m_score__min__energy>  (54) 
-8.9800000000000004

>  <m_primary>  (54) 
energy

>  <rmsd>  (54) 
2.068523266226322

>  <m_score__min__rmsd>  (54) 
2.068523266226322

>  <meeko>  (54) 
{"free_energy": -8.31, "intermolecular_energy": -9.8, "internal_energy": -1.44, "cluster_size": 26, "cluster_id": 2, "rank_in_cluster": 22}

>  <energy>  (54) 
-8.97

>  <cluster_rmsd>  (54) 
0.06

>  <cluster>  (54) 
1

$$$$

     RDKit          3D

 47 50  0  0  0  0  0  0  0  0999 V2000
  141.0670   73.9130  220.1050 O   0  0  0  0  0  0  0  0  0  0  0  0
  140.6400   74.5770  221.1110 C   0  0  0  0  0  0  0  0  0  0  0  0
  139.8690   73.9240  222.1080 N   0  0  0  0  0  0  0  0  0  0  0  0
  139.5950   72.5230  221.9470 C   0  0  0  0  0  0  0  0  0  0  0  0
  139.7740   71.7500  223.1800 C   0  0  0  0  0  0  0  0  0  0  0  0
  140.5100   72.2450  224.0860 O   0  0  0  0  0  0  0  0  0  0  0  0
  139.1990   70.4890  223.4520 N   0  0  0  0  0  0  0  0  0  0  0  0
  139.1870   69.3240  222.5940 C   0  0  0  0  0  0  0  0  0  0  0  0
  138.0440   68.4480  223.0240 C   0  0  0  0  0  0  0  0  0  0  0  0
  137.3030   69.2870  224.0350 C   0  0  0  0  0  0  0  0  0  0  0  0
  138.4680   70.0400  224.6480 C   0  0  1  0  0  0  0  0  0  0  0  0
  139.2820   69.2490  225.5500 C   0  0  0  0  0  0  0  0  0  0  0  0
  140.2310   69.8830  226.3620 C   0  0  0  0  0  0  0  0  0  0  0  0
  141.0230   69.1510  227.2420 C   0  0  0  0  0  0  0  0  0  0  0  0
  140.8830   67.7850  227.3260 C   0  0  0  0  0  0  0  0  0  0  0  0
  139.9850   67.1850  226.5560 N   0  0  0  0  0  0  0  0  0  0  0  0
  139.2160   67.8720  225.7050 C   0  0  0  0  0  0  0  0  0  0  0  0
  140.9480   76.0020  221.2270 C   0  0  0  0  0  0  0  0  0  0  0  0
  141.1140   76.7530  220.0790 C   0  0  0  0  0  0  0  0  0  0  0  0
  141.4020   78.0860  220.1450 C   0  0  0  0  0  0  0  0  0  0  0  0
  141.5240   78.6710  221.4050 C   0  0  0  0  0  0  0  0  0  0  0  0
  141.8120   80.0050  221.4970 C   0  0  0  0  0  0  0  0  0  0  0  0
  141.9250   80.5550  222.7500 C   0  0  0  0  0  0  0  0  0  0  0  0
  142.2080   81.8660  222.9040 F   0  0  0  0  0  0  0  0  0  0  0  0
  141.7530   79.7780  223.8990 C   0  0  0  0  0  0  0  0  0  0  0  0
  141.4610   78.4220  223.8060 C   0  0  0  0  0  0  0  0  0  0  0  0
  141.3520   77.8960  222.5350 C   0  0  0  0  0  0  0  0  0  0  0  0
  141.0660   76.5730  222.4540 N   0  0  0  0  0  0  0  0  0  0  0  0
  139.5240   74.4770  222.9260 H   0  0  0  0  0  0  0  0  0  0  0  0
  138.5540   72.4075  221.6109 H   0  0  0  0  0  0  0  0  0  0  0  0
  140.3145   72.1334  221.2118 H   0  0  0  0  0  0  0  0  0  0  0  0
  139.0491   69.6319  221.5470 H   0  0  0  0  0  0  0  0  0  0  0  0
  140.1393   68.7791  222.6729 H   0  0  0  0  0  0  0  0  0  0  0  0
  137.3964   68.2024  222.1695 H   0  0  0  0  0  0  0  0  0  0  0  0
  138.3799   67.4853  223.4368 H   0  0  0  0  0  0  0  0  0  0  0  0
  136.5839   69.9667  223.5544 H   0  0  0  0  0  0  0  0  0  0  0  0
  136.6877   68.7200  224.7491 H   0  0  0  0  0  0  0  0  0  0  0  0
  138.1460   70.8586  225.3084 H   0  0  0  0  0  0  0  0  0  0  0  0
  140.3521   70.9747  226.3034 H   0  0  0  0  0  0  0  0  0  0  0  0
  141.7629   69.6662  227.8721 H   0  0  0  0  0  0  0  0  0  0  0  0
  141.5051   67.2005  228.0198 H   0  0  0  0  0  0  0  0  0  0  0  0
  138.4909   67.3145  225.0939 H   0  0  0  0  0  0  0  0  0  0  0  0
  141.0125   76.2692  219.0963 H   0  0  0  0  0  0  0  0  0  0  0  0
  141.5341   78.6819  219.2298 H   0  0  0  0  0  0  0  0  0  0  0  0
  141.9489   80.6186  220.5944 H   0  0  0  0  0  0  0  0  0  0  0  0
  141.8500   80.2456  224.8899 H   0  0  0  0  0  0  0  0  0  0  0  0
  141.3235   77.7988  224.7019 H   0  0  0  0  0  0  0  0  0  0  0  0
  1  2  2  0
  2  3  1  0
  3  4  1  0
  4  5  1  0
  5  6  2  0
  5  7  1  0
  7  8  1  0
  8  9  1  0
  9 10  1  0
 10 11  1  0
 11 12  1  0
 12 13  2  0
 13 14  1  0
 14 15  2  0
 15 16  1  0
 16 17  2  0
  2 18  1  0
 18 19  2  0
 19 20  1  0
 20 21  2  0
 21 22  1  0
 22 23  2  0
 23 24  1  0
 23 25  1  0
 25 26  2  0
 26 27  1  0
 27 28  2  0
 11  7  1  0
 17 12  1  0
 28 18  1  0
 27 21  1  0
  3 29  1  0
  4 30  1  0
  4 31  1  0
  8 32  1  0
  8 33  1  0
  9 34  1  0
  9 35  1  0
 10 36  1  0
 10 37  1  0
 11 38  1  1
 13 39  1  0
 14 40  1  0
 15 41  1  0
 17 42  1  0
 19 43  1  0
 20 44  1  0
 22 45  1  0
 25 46  1  0
 26 47  1  0
M  END
>  <smiles>  (55) 
O=C(NCC(=O)N1CCCC1c1cccnc1)c1ccc2cc(F)ccc2n1

>  <score_type>  (55) 
oracle

>  <origin>  (55) 
autodockgpu

>  <m_score__min__energy>  (55) 
-8.9800000000000004

>  <m_primary>  (55) 
energy

>  <rmsd>  (55) 
8.595472992631086

>  <m_score__min__rmsd>  (55) 
8.595472992631086

>  <meeko>  (55) 
{"free_energy": -7.82, "intermolecular_energy": -9.31, "internal_energy": -1.22, "cluster_size": 3, "cluster_id": 4, "rank_in_cluster": 2}

>  <energy>  (55) 
-8.96

>  <cluster_rmsd>  (55) 
0.07

>  <cluster>  (55) 
1

$$$$

     RDKit          3D

 47 50  0  0  0  0  0  0  0  0999 V2000
  141.3780   72.3400  221.7360 O   0  0  0  0  0  0  0  0  0  0  0  0
  140.3970   72.4870  222.5430 C   0  0  0  0  0  0  0  0  0  0  0  0
  139.4820   73.5560  222.3510 N   0  0  0  0  0  0  0  0  0  0  0  0
  139.6950   74.4430  221.2410 C   0  0  0  0  0  0  0  0  0  0  0  0
  139.4340   75.8490  221.5620 C   0  0  0  0  0  0  0  0  0  0  0  0
  138.5330   76.1020  222.4180 O   0  0  0  0  0  0  0  0  0  0  0  0
  140.1000   76.9590  220.9980 N   0  0  0  0  0  0  0  0  0  0  0  0
  139.6050   77.8530  219.9730 C   0  0  0  0  0  0  0  0  0  0  0  0
  140.7920   78.5010  219.3160 C   0  0  0  0  0  0  0  0  0  0  0  0
  141.9750   77.7660  219.8960 C   0  0  0  0  0  0  0  0  0  0  0  0
  141.4440   77.4830  221.2890 C   0  0  1  0  0  0  0  0  0  0  0  0
  141.4290   78.6360  222.1670 C   0  0  0  0  0  0  0  0  0  0  0  0
  142.5760   79.4310  222.2850 C   0  0  0  0  0  0  0  0  0  0  0  0
  142.5900   80.5480  223.1160 C   0  0  0  0  0  0  0  0  0  0  0  0
  141.4680   80.8870  223.8370 C   0  0  0  0  0  0  0  0  0  0  0  0
  140.3820   80.1340  223.7260 N   0  0  0  0  0  0  0  0  0  0  0  0
  140.3510   79.0580  222.9330 C   0  0  0  0  0  0  0  0  0  0  0  0
  140.2240   71.5550  223.6580 C   0  0  0  0  0  0  0  0  0  0  0  0
  139.5700   70.3570  223.4410 C   0  0  0  0  0  0  0  0  0  0  0  0
  139.3890   69.4610  224.4560 C   0  0  0  0  0  0  0  0  0  0  0  0
  139.8820   69.7870  225.7180 C   0  0  0  0  0  0  0  0  0  0  0  0
  139.7120   68.9060  226.7500 C   0  0  0  0  0  0  0  0  0  0  0  0
  140.2090   69.2520  227.9820 C   0  0  0  0  0  0  0  0  0  0  0  0
  140.0720   68.4230  229.0380 F   0  0  0  0  0  0  0  0  0  0  0  0
  140.8690   70.4700  228.1800 C   0  0  0  0  0  0  0  0  0  0  0  0
  141.0410   71.3660  227.1320 C   0  0  0  0  0  0  0  0  0  0  0  0
  140.5330   70.9920  225.9050 C   0  0  0  0  0  0  0  0  0  0  0  0
  140.7050   71.8720  224.8880 N   0  0  0  0  0  0  0  0  0  0  0  0
  138.6840   73.6670  223.0180 H   0  0  0  0  0  0  0  0  0  0  0  0
  140.7411   74.3481  220.9144 H   0  0  0  0  0  0  0  0  0  0  0  0
  138.9856   74.1526  220.4521 H   0  0  0  0  0  0  0  0  0  0  0  0
  139.0285   77.2852  219.2278 H   0  0  0  0  0  0  0  0  0  0  0  0
  138.9460   78.6155  220.4138 H   0  0  0  0  0  0  0  0  0  0  0  0
  140.7511   78.3763  218.2238 H   0  0  0  0  0  0  0  0  0  0  0  0
  140.8367   79.5852  219.4962 H   0  0  0  0  0  0  0  0  0  0  0  0
  142.1916   76.8392  219.3444 H   0  0  0  0  0  0  0  0  0  0  0  0
  142.9269   78.3163  219.8633 H   0  0  0  0  0  0  0  0  0  0  0  0
  142.0811   76.7878  221.8554 H   0  0  0  0  0  0  0  0  0  0  0  0
  143.4785   79.1692  221.7131 H   0  0  0  0  0  0  0  0  0  0  0  0
  143.4999   81.1609  223.1964 H   0  0  0  0  0  0  0  0  0  0  0  0
  141.4719   81.7685  224.4950 H   0  0  0  0  0  0  0  0  0  0  0  0
  139.4196   78.4748  222.8849 H   0  0  0  0  0  0  0  0  0  0  0  0
  139.1896   70.1216  222.4361 H   0  0  0  0  0  0  0  0  0  0  0  0
  138.8682   68.5079  224.2819 H   0  0  0  0  0  0  0  0  0  0  0  0
  139.1924   67.9485  226.5975 H   0  0  0  0  0  0  0  0  0  0  0  0
  141.2567   70.7214  229.1783 H   0  0  0  0  0  0  0  0  0  0  0  0
  141.5572   72.3270  227.2738 H   0  0  0  0  0  0  0  0  0  0  0  0
  1  2  2  0
  2  3  1  0
  3  4  1  0
  4  5  1  0
  5  6  2  0
  5  7  1  0
  7  8  1  0
  8  9  1  0
  9 10  1  0
 10 11  1  0
 11 12  1  0
 12 13  2  0
 13 14  1  0
 14 15  2  0
 15 16  1  0
 16 17  2  0
  2 18  1  0
 18 19  2  0
 19 20  1  0
 20 21  2  0
 21 22  1  0
 22 23  2  0
 23 24  1  0
 23 25  1  0
 25 26  2  0
 26 27  1  0
 27 28  2  0
 11  7  1  0
 17 12  1  0
 28 18  1  0
 27 21  1  0
  3 29  1  0
  4 30  1  0
  4 31  1  0
  8 32  1  0
  8 33  1  0
  9 34  1  0
  9 35  1  0
 10 36  1  0
 10 37  1  0
 11 38  1  1
 13 39  1  0
 14 40  1  0
 15 41  1  0
 17 42  1  0
 19 43  1  0
 20 44  1  0
 22 45  1  0
 25 46  1  0
 26 47  1  0
M  END
>  <smiles>  (56) 
O=C(NCC(=O)N1CCCC1c1cccnc1)c1ccc2cc(F)ccc2n1

>  <score_type>  (56) 
oracle

>  <origin>  (56) 
autodockgpu

>  <m_score__min__energy>  (56) 
-8.9800000000000004

>  <m_primary>  (56) 
energy

>  <rmsd>  (56) 
1.9123906120566643

>  <m_score__min__rmsd>  (56) 
1.9123906120566643

>  <meeko>  (56) 
{"free_energy": -8.49, "intermolecular_energy": -9.98, "internal_energy": -1.31, "cluster_size": 26, "cluster_id": 2, "rank_in_cluster": 11}

>  <energy>  (56) 
-8.95

>  <cluster_rmsd>  (56) 
0.1

>  <cluster>  (56) 
1

$$$$

     RDKit          3D

 47 50  0  0  0  0  0  0  0  0999 V2000
  140.8890   72.1890  221.4450 O   0  0  0  0  0  0  0  0  0  0  0  0
  140.0520   72.4350  222.3790 C   0  0  0  0  0  0  0  0  0  0  0  0
  139.2380   73.5960  222.3060 N   0  0  0  0  0  0  0  0  0  0  0  0
  139.3880   74.4620  221.1690 C   0  0  0  0  0  0  0  0  0  0  0  0
  140.4030   75.5030  221.3600 C   0  0  0  0  0  0  0  0  0  0  0  0
  141.4680   75.1840  221.9700 O   0  0  0  0  0  0  0  0  0  0  0  0
  140.3000   76.8420  220.9240 N   0  0  0  0  0  0  0  0  0  0  0  0
  139.0910   77.5890  220.6560 C   0  0  0  0  0  0  0  0  0  0  0  0
  139.4430   78.7170  219.7280 C   0  0  0  0  0  0  0  0  0  0  0  0
  140.8730   78.4340  219.3380 C   0  0  0  0  0  0  0  0  0  0  0  0
  141.3710   77.8070  220.6260 C   0  0  1  0  0  0  0  0  0  0  0  0
  141.6030   78.7520  221.7000 C   0  0  0  0  0  0  0  0  0  0  0  0
  141.4060   78.3520  223.0280 C   0  0  0  0  0  0  0  0  0  0  0  0
  141.6250   79.2350  224.0820 C   0  0  0  0  0  0  0  0  0  0  0  0
  142.0430   80.5220  223.8290 C   0  0  0  0  0  0  0  0  0  0  0  0
  142.2290   80.9000  222.5720 N   0  0  0  0  0  0  0  0  0  0  0  0
  142.0230   80.0650  221.5480 C   0  0  0  0  0  0  0  0  0  0  0  0
  139.9370   71.5210  223.5150 C   0  0  0  0  0  0  0  0  0  0  0  0
  139.3120   70.3010  223.3400 C   0  0  0  0  0  0  0  0  0  0  0  0
  139.1850   69.4200  224.3750 C   0  0  0  0  0  0  0  0  0  0  0  0
  139.7040   69.7840  225.6160 C   0  0  0  0  0  0  0  0  0  0  0  0
  139.5890   68.9180  226.6690 C   0  0  0  0  0  0  0  0  0  0  0  0
  140.1110   69.3020  227.8800 C   0  0  0  0  0  0  0  0  0  0  0  0
  140.0270   68.4900  228.9550 F   0  0  0  0  0  0  0  0  0  0  0  0
  140.7410   70.5410  228.0360 C   0  0  0  0  0  0  0  0  0  0  0  0
  140.8580   71.4210  226.9670 C   0  0  0  0  0  0  0  0  0  0  0  0
  140.3250   71.0100  225.7620 C   0  0  0  0  0  0  0  0  0  0  0  0
  140.4440   71.8740  224.7250 N   0  0  0  0  0  0  0  0  0  0  0  0
  138.5570   73.7880  223.0760 H   0  0  0  0  0  0  0  0  0  0  0  0
  139.6745   73.8508  220.3005 H   0  0  0  0  0  0  0  0  0  0  0  0
  138.4246   74.9713  221.0192 H   0  0  0  0  0  0  0  0  0  0  0  0
  138.3442   76.9346  220.1828 H   0  0  0  0  0  0  0  0  0  0  0  0
  138.6663   77.9805  221.5921 H   0  0  0  0  0  0  0  0  0  0  0  0
  138.7886   78.7150  218.8438 H   0  0  0  0  0  0  0  0  0  0  0  0
  139.3185   79.7050  220.1952 H   0  0  0  0  0  0  0  0  0  0  0  0
  140.9356   77.7345  218.4913 H   0  0  0  0  0  0  0  0  0  0  0  0
  141.4441   79.3092  218.9947 H   0  0  0  0  0  0  0  0  0  0  0  0
  142.3667   77.3513  220.5213 H   0  0  0  0  0  0  0  0  0  0  0  0
  141.0735   77.3254  223.2412 H   0  0  0  0  0  0  0  0  0  0  0  0
  141.4638   78.9037  225.1185 H   0  0  0  0  0  0  0  0  0  0  0  0
  142.2198   81.2252  224.6562 H   0  0  0  0  0  0  0  0  0  0  0  0
  142.1963   80.4403  220.5286 H   0  0  0  0  0  0  0  0  0  0  0  0
  138.9104   70.0356  222.3509 H   0  0  0  0  0  0  0  0  0  0  0  0
  138.6868   68.4496  224.2333 H   0  0  0  0  0  0  0  0  0  0  0  0
  139.0933   67.9433  226.5493 H   0  0  0  0  0  0  0  0  0  0  0  0
  141.1492   70.8225  229.0179 H   0  0  0  0  0  0  0  0  0  0  0  0
  141.3516   72.3980  227.0758 H   0  0  0  0  0  0  0  0  0  0  0  0
  1  2  2  0
  2  3  1  0
  3  4  1  0
  4  5  1  0
  5  6  2  0
  5  7  1  0
  7  8  1  0
  8  9  1  0
  9 10  1  0
 10 11  1  0
 11 12  1  0
 12 13  2  0
 13 14  1  0
 14 15  2  0
 15 16  1  0
 16 17  2  0
  2 18  1  0
 18 19  2  0
 19 20  1  0
 20 21  2  0
 21 22  1  0
 22 23  2  0
 23 24  1  0
 23 25  1  0
 25 26  2  0
 26 27  1  0
 27 28  2  0
 11  7  1  0
 17 12  1  0
 28 18  1  0
 27 21  1  0
  3 29  1  0
  4 30  1  0
  4 31  1  0
  8 32  1  0
  8 33  1  0
  9 34  1  0
  9 35  1  0
 10 36  1  0
 10 37  1  0
 11 38  1  6
 13 39  1  0
 14 40  1  0
 15 41  1  0
 17 42  1  0
 19 43  1  0
 20 44  1  0
 22 45  1  0
 25 46  1  0
 26 47  1  0
M  END
>  <smiles>  (57) 
O=C(NCC(=O)N1CCCC1c1cccnc1)c1ccc2cc(F)ccc2n1

>  <score_type>  (57) 
oracle

>  <origin>  (57) 
autodockgpu

>  <m_score__min__energy>  (57) 
-8.9800000000000004

>  <m_primary>  (57) 
energy

>  <rmsd>  (57) 
1.7757240122099882

>  <m_score__min__rmsd>  (57) 
1.7757240122099882

>  <meeko>  (57) 
{"free_energy": -8.47, "intermolecular_energy": -9.97, "internal_energy": -1.15, "cluster_size": 26, "cluster_id": 2, "rank_in_cluster": 14}

>  <energy>  (57) 
-8.93

>  <cluster_rmsd>  (57) 
0.18

>  <cluster>  (57) 
1

$$$$

     RDKit          3D

 47 50  0  0  0  0  0  0  0  0999 V2000
  141.0770   72.0640  221.2850 O   0  0  0  0  0  0  0  0  0  0  0  0
  140.4220   72.4530  222.3120 C   0  0  0  0  0  0  0  0  0  0  0  0
  139.8780   73.7640  222.3450 N   0  0  0  0  0  0  0  0  0  0  0  0
  140.0850   74.6140  221.2060 C   0  0  0  0  0  0  0  0  0  0  0  0
  139.8520   76.0340  221.4890 C   0  0  0  0  0  0  0  0  0  0  0  0
  139.0690   76.3240  222.4430 O   0  0  0  0  0  0  0  0  0  0  0  0
  140.4250   77.1180  220.7890 N   0  0  0  0  0  0  0  0  0  0  0  0
  139.7980   77.9390  219.7750 C   0  0  0  0  0  0  0  0  0  0  0  0
  140.8890   78.5640  218.9510 C   0  0  0  0  0  0  0  0  0  0  0  0
  142.1460   77.8870  219.4380 C   0  0  0  0  0  0  0  0  0  0  0  0
  141.7800   77.6810  220.8960 C   0  0  1  0  0  0  0  0  0  0  0  0
  141.8350   78.8860  221.7000 C   0  0  0  0  0  0  0  0  0  0  0  0
  141.5450   78.8180  223.0690 C   0  0  0  0  0  0  0  0  0  0  0  0
  141.5950   79.9560  223.8690 C   0  0  0  0  0  0  0  0  0  0  0  0
  141.9330   81.1720  223.3210 C   0  0  0  0  0  0  0  0  0  0  0  0
  142.2080   81.2360  222.0250 N   0  0  0  0  0  0  0  0  0  0  0  0
  142.1640   80.1530  221.2410 C   0  0  0  0  0  0  0  0  0  0  0  0
  140.2400   71.5470  223.4470 C   0  0  0  0  0  0  0  0  0  0  0  0
  139.6180   70.3290  223.2440 C   0  0  0  0  0  0  0  0  0  0  0  0
  139.4280   69.4560  224.2770 C   0  0  0  0  0  0  0  0  0  0  0  0
  139.8800   69.8250  225.5430 C   0  0  0  0  0  0  0  0  0  0  0  0
  139.7010   68.9680  226.5930 C   0  0  0  0  0  0  0  0  0  0  0  0
  140.1560   69.3570  227.8290 C   0  0  0  0  0  0  0  0  0  0  0  0
  140.0080   68.5520  228.9020 F   0  0  0  0  0  0  0  0  0  0  0  0
  140.7830   70.5940  228.0120 C   0  0  0  0  0  0  0  0  0  0  0  0
  140.9650   71.4660  226.9450 C   0  0  0  0  0  0  0  0  0  0  0  0
  140.4980   71.0490  225.7150 C   0  0  0  0  0  0  0  0  0  0  0  0
  140.6800   71.9060  224.6800 N   0  0  0  0  0  0  0  0  0  0  0  0
  139.3450   74.0720  223.1910 H   0  0  0  0  0  0  0  0  0  0  0  0
  141.1235   74.4924  220.8643 H   0  0  0  0  0  0  0  0  0  0  0  0
  139.3568   74.3120  220.4388 H   0  0  0  0  0  0  0  0  0  0  0  0
  139.1550   77.3171  219.1348 H   0  0  0  0  0  0  0  0  0  0  0  0
  139.1749   78.7165  220.2411 H   0  0  0  0  0  0  0  0  0  0  0  0
  140.7301   78.3702  217.8799 H   0  0  0  0  0  0  0  0  0  0  0  0
  140.9278   79.6580  219.0590 H   0  0  0  0  0  0  0  0  0  0  0  0
  142.3226   76.9319  218.9217 H   0  0  0  0  0  0  0  0  0  0  0  0
  143.0746   78.4512  219.2666 H   0  0  0  0  0  0  0  0  0  0  0  0
  142.4922   77.0327  221.4275 H   0  0  0  0  0  0  0  0  0  0  0  0
  141.2738   77.8512  223.5182 H   0  0  0  0  0  0  0  0  0  0  0  0
  141.3637   79.8830  224.9419 H   0  0  0  0  0  0  0  0  0  0  0  0
  141.9744   82.0756  223.9470 H   0  0  0  0  0  0  0  0  0  0  0  0
  142.4018   80.2738  220.1738 H   0  0  0  0  0  0  0  0  0  0  0  0
  139.2710   70.0591  222.2356 H   0  0  0  0  0  0  0  0  0  0  0  0
  138.9317   68.4879  224.1144 H   0  0  0  0  0  0  0  0  0  0  0  0
  139.2070   67.9953  226.4520 H   0  0  0  0  0  0  0  0  0  0  0  0
  141.1367   70.8804  229.0134 H   0  0  0  0  0  0  0  0  0  0  0  0
  141.4573   72.4411  227.0746 H   0  0  0  0  0  0  0  0  0  0  0  0
  1  2  2  0
  2  3  1  0
  3  4  1  0
  4  5  1  0
  5  6  2  0
  5  7  1  0
  7  8  1  0
  8  9  1  0
  9 10  1  0
 10 11  1  0
 11 12  1  0
 12 13  2  0
 13 14  1  0
 14 15  2  0
 15 16  1  0
 16 17  2  0
  2 18  1  0
 18 19  2  0
 19 20  1  0
 20 21  2  0
 21 22  1  0
 22 23  2  0
 23 24  1  0
 23 25  1  0
 25 26  2  0
 26 27  1  0
 27 28  2  0
 11  7  1  0
 17 12  1  0
 28 18  1  0
 27 21  1  0
  3 29  1  0
  4 30  1  0
  4 31  1  0
  8 32  1  0
  8 33  1  0
  9 34  1  0
  9 35  1  0
 10 36  1  0
 10 37  1  0
 11 38  1  1
 13 39  1  0
 14 40  1  0
 15 41  1  0
 17 42  1  0
 19 43  1  0
 20 44  1  0
 22 45  1  0
 25 46  1  0
 26 47  1  0
M  END
>  <smiles>  (58) 
O=C(NCC(=O)N1CCCC1c1cccnc1)c1ccc2cc(F)ccc2n1

>  <score_type>  (58) 
oracle

>  <origin>  (58) 
autodockgpu

>  <m_score__min__energy>  (58) 
-8.9800000000000004

>  <m_primary>  (58) 
energy

>  <rmsd>  (58) 
1.9137551112941218

>  <m_score__min__rmsd>  (58) 
1.9137551112941218

>  <meeko>  (58) 
{"free_energy": -8.31, "intermolecular_energy": -9.8, "internal_energy": -1.42, "cluster_size": 26, "cluster_id": 2, "rank_in_cluster": 23}

>  <energy>  (58) 
-8.93

>  <cluster_rmsd>  (58) 
0.14

>  <cluster>  (58) 
1

$$$$

     RDKit          3D

 47 50  0  0  0  0  0  0  0  0999 V2000
  141.0610   73.7350  220.4050 O   0  0  0  0  0  0  0  0  0  0  0  0
  140.5100   74.5250  221.2450 C   0  0  0  0  0  0  0  0  0  0  0  0
  139.4780   74.0420  222.0930 N   0  0  0  0  0  0  0  0  0  0  0  0
  139.0880   72.6650  221.9730 C   0  0  0  0  0  0  0  0  0  0  0  0
  139.6220   71.8140  223.0400 C   0  0  0  0  0  0  0  0  0  0  0  0
  140.6110   72.2490  223.7040 O   0  0  0  0  0  0  0  0  0  0  0  0
  139.1310   70.5390  223.4000 N   0  0  0  0  0  0  0  0  0  0  0  0
  139.2190   69.3150  222.6330 C   0  0  0  0  0  0  0  0  0  0  0  0
  138.1330   68.3940  223.1120 C   0  0  0  0  0  0  0  0  0  0  0  0
  137.3140   69.2510  224.0460 C   0  0  0  0  0  0  0  0  0  0  0  0
  138.4110   70.1300  224.6160 C   0  0  1  0  0  0  0  0  0  0  0  0
  139.2610   69.4690  225.5870 C   0  0  0  0  0  0  0  0  0  0  0  0
  140.2420   70.2060  226.2630 C   0  0  0  0  0  0  0  0  0  0  0  0
  141.0690   69.6020  227.2050 C   0  0  0  0  0  0  0  0  0  0  0  0
  140.9320   68.2620  227.4870 C   0  0  0  0  0  0  0  0  0  0  0  0
  140.0030   67.5640  226.8470 N   0  0  0  0  0  0  0  0  0  0  0  0
  139.2000   68.1290  225.9390 C   0  0  0  0  0  0  0  0  0  0  0  0
  140.9450   75.9200  221.3280 C   0  0  0  0  0  0  0  0  0  0  0  0
  141.7640   76.4300  220.3390 C   0  0  0  0  0  0  0  0  0  0  0  0
  142.1910   77.7270  220.3810 C   0  0  0  0  0  0  0  0  0  0  0  0
  141.7780   78.5230  221.4480 C   0  0  0  0  0  0  0  0  0  0  0  0
  142.1930   79.8240  221.5110 C   0  0  0  0  0  0  0  0  0  0  0  0
  141.7700   80.5860  222.5730 C   0  0  0  0  0  0  0  0  0  0  0  0
  142.1480   81.8770  222.6890 F   0  0  0  0  0  0  0  0  0  0  0  0
  140.9410   80.0490  223.5620 C   0  0  0  0  0  0  0  0  0  0  0  0
  140.5190   78.7260  223.4990 C   0  0  0  0  0  0  0  0  0  0  0  0
  140.9590   77.9850  222.4210 C   0  0  0  0  0  0  0  0  0  0  0  0
  140.5420   76.6960  222.3670 N   0  0  0  0  0  0  0  0  0  0  0  0
  139.0340   74.6980  222.7760 H   0  0  0  0  0  0  0  0  0  0  0  0
  137.9897   72.6100  221.9998 H   0  0  0  0  0  0  0  0  0  0  0  0
  139.4998   72.2923  221.0235 H   0  0  0  0  0  0  0  0  0  0  0  0
  139.0805   69.5327  221.5637 H   0  0  0  0  0  0  0  0  0  0  0  0
  140.2058   68.8478  222.7667 H   0  0  0  0  0  0  0  0  0  0  0  0
  137.5214   68.0390  222.2694 H   0  0  0  0  0  0  0  0  0  0  0  0
  138.5281   67.4918  223.6018 H   0  0  0  0  0  0  0  0  0  0  0  0
  136.5580   69.8390  223.5050 H   0  0  0  0  0  0  0  0  0  0  0  0
  136.7264   68.6964  224.7924 H   0  0  0  0  0  0  0  0  0  0  0  0
  138.0197   70.9709  225.2074 H   0  0  0  0  0  0  0  0  0  0  0  0
  140.3603   71.2779  226.0459 H   0  0  0  0  0  0  0  0  0  0  0  0
  141.8340   70.1969  227.7255 H   0  0  0  0  0  0  0  0  0  0  0  0
  141.5820   67.7778  228.2307 H   0  0  0  0  0  0  0  0  0  0  0  0
  138.4493   67.4956  225.4438 H   0  0  0  0  0  0  0  0  0  0  0  0
  142.0766   75.7828  219.5063 H   0  0  0  0  0  0  0  0  0  0  0  0
  142.8434   78.1324  219.5936 H   0  0  0  0  0  0  0  0  0  0  0  0
  142.8463   80.2482  220.7343 H   0  0  0  0  0  0  0  0  0  0  0  0
  140.6181   80.6820  224.4017 H   0  0  0  0  0  0  0  0  0  0  0  0
  139.8665   78.2911  224.2704 H   0  0  0  0  0  0  0  0  0  0  0  0
  1  2  2  0
  2  3  1  0
  3  4  1  0
  4  5  1  0
  5  6  2  0
  5  7  1  0
  7  8  1  0
  8  9  1  0
  9 10  1  0
 10 11  1  0
 11 12  1  0
 12 13  2  0
 13 14  1  0
 14 15  2  0
 15 16  1  0
 16 17  2  0
  2 18  1  0
 18 19  2  0
 19 20  1  0
 20 21  2  0
 21 22  1  0
 22 23  2  0
 23 24  1  0
 23 25  1  0
 25 26  2  0
 26 27  1  0
 27 28  2  0
 11  7  1  0
 17 12  1  0
 28 18  1  0
 27 21  1  0
  3 29  1  0
  4 30  1  0
  4 31  1  0
  8 32  1  0
  8 33  1  0
  9 34  1  0
  9 35  1  0
 10 36  1  0
 10 37  1  0
 11 38  1  1
 13 39  1  0
 14 40  1  0
 15 41  1  0
 17 42  1  0
 19 43  1  0
 20 44  1  0
 22 45  1  0
 25 46  1  0
 26 47  1  0
M  END
>  <smiles>  (59) 
O=C(NCC(=O)N1CCCC1c1cccnc1)c1ccc2cc(F)ccc2n1

>  <score_type>  (59) 
oracle

>  <origin>  (59) 
autodockgpu

>  <m_score__min__energy>  (59) 
-8.9800000000000004

>  <m_primary>  (59) 
energy

>  <rmsd>  (59) 
8.598581437820389

>  <m_score__min__rmsd>  (59) 
8.598581437820389

>  <meeko>  (59) 
{"free_energy": -7.91, "intermolecular_energy": -9.4, "internal_energy": -1.29, "cluster_size": 3, "cluster_id": 4, "rank_in_cluster": 1}

>  <energy>  (59) 
-8.93

>  <cluster_rmsd>  (59) 
0.16

>  <cluster>  (59) 
1

$$$$

     RDKit          3D

 47 50  0  0  0  0  0  0  0  0999 V2000
  139.9380   70.8730  221.4080 O   0  0  0  0  0  0  0  0  0  0  0  0
  139.4750   71.4650  222.4420 C   0  0  0  0  0  0  0  0  0  0  0  0
  138.5650   72.5450  222.2860 N   0  0  0  0  0  0  0  0  0  0  0  0
  138.1950   72.9350  220.9540 C   0  0  0  0  0  0  0  0  0  0  0  0
  139.3250   73.4080  220.1500 C   0  0  0  0  0  0  0  0  0  0  0  0
  139.4700   72.9200  218.9890 O   0  0  0  0  0  0  0  0  0  0  0  0
  140.2790   74.3670  220.5560 N   0  0  0  0  0  0  0  0  0  0  0  0
  140.3630   75.0370  221.8360 C   0  0  0  0  0  0  0  0  0  0  0  0
  141.1380   76.3090  221.6390 C   0  0  0  0  0  0  0  0  0  0  0  0
  141.3060   76.4050  220.1430 C   0  0  0  0  0  0  0  0  0  0  0  0
  141.4090   74.9310  219.8000 C   0  0  1  0  0  0  0  0  0  0  0  0
  142.6820   74.3270  220.1420 C   0  0  0  0  0  0  0  0  0  0  0  0
  142.7300   72.9780  220.5140 C   0  0  0  0  0  0  0  0  0  0  0  0
  143.9380   72.3670  220.8410 C   0  0  0  0  0  0  0  0  0  0  0  0
  145.1090   73.0890  220.8030 C   0  0  0  0  0  0  0  0  0  0  0  0
  145.0640   74.3670  220.4520 N   0  0  0  0  0  0  0  0  0  0  0  0
  143.9120   74.9690  220.1340 C   0  0  0  0  0  0  0  0  0  0  0  0
  139.8840   71.0290  223.7770 C   0  0  0  0  0  0  0  0  0  0  0  0
  140.6700   71.8640  224.5480 C   0  0  0  0  0  0  0  0  0  0  0  0
  141.0730   71.4930  225.8000 C   0  0  0  0  0  0  0  0  0  0  0  0
  140.6700   70.2480  226.2790 C   0  0  0  0  0  0  0  0  0  0  0  0
  141.0610   69.8540  227.5290 C   0  0  0  0  0  0  0  0  0  0  0  0
  140.6490   68.6230  227.9760 C   0  0  0  0  0  0  0  0  0  0  0  0
  141.0030   68.1800  229.2010 F   0  0  0  0  0  0  0  0  0  0  0  0
  139.8530   67.7930  227.1790 C   0  0  0  0  0  0  0  0  0  0  0  0
  139.4550   68.1930  225.9090 C   0  0  0  0  0  0  0  0  0  0  0  0
  139.8840   69.4340  225.4850 C   0  0  0  0  0  0  0  0  0  0  0  0
  139.4910   69.8160  224.2460 N   0  0  0  0  0  0  0  0  0  0  0  0
  138.1930   73.0220  223.1390 H   0  0  0  0  0  0  0  0  0  0  0  0
  137.7469   72.0669  220.4485 H   0  0  0  0  0  0  0  0  0  0  0  0
  137.4890   73.7735  221.0459 H   0  0  0  0  0  0  0  0  0  0  0  0
  139.3526   75.2678  222.2045 H   0  0  0  0  0  0  0  0  0  0  0  0
  140.8630   74.3931  222.5745 H   0  0  0  0  0  0  0  0  0  0  0  0
  140.5772   77.1726  222.0259 H   0  0  0  0  0  0  0  0  0  0  0  0
  142.0991   76.3067  222.1740 H   0  0  0  0  0  0  0  0  0  0  0  0
  140.4360   76.8769  219.6630 H   0  0  0  0  0  0  0  0  0  0  0  0
  142.1537   77.0210  219.8085 H   0  0  0  0  0  0  0  0  0  0  0  0
  141.3620   74.7402  218.7177 H   0  0  0  0  0  0  0  0  0  0  0  0
  141.7997   72.3921  220.5485 H   0  0  0  0  0  0  0  0  0  0  0  0
  143.9562   71.3058  221.1301 H   0  0  0  0  0  0  0  0  0  0  0  0
  146.0671   72.6135  221.0597 H   0  0  0  0  0  0  0  0  0  0  0  0
  143.9418   76.0315  219.8506 H   0  0  0  0  0  0  0  0  0  0  0  0
  140.9759   72.8420  224.1480 H   0  0  0  0  0  0  0  0  0  0  0  0
  141.6983   72.1589  226.4128 H   0  0  0  0  0  0  0  0  0  0  0  0
  141.6871   70.5042  228.1577 H   0  0  0  0  0  0  0  0  0  0  0  0
  139.5382   66.8113  227.5626 H   0  0  0  0  0  0  0  0  0  0  0  0
  138.8282   67.5512  225.2724 H   0  0  0  0  0  0  0  0  0  0  0  0
  1  2  2  0
  2  3  1  0
  3  4  1  0
  4  5  1  0
  5  6  2  0
  5  7  1  0
  7  8  1  0
  8  9  1  0
  9 10  1  0
 10 11  1  0
 11 12  1  0
 12 13  2  0
 13 14  1  0
 14 15  2  0
 15 16  1  0
 16 17  2  0
  2 18  1  0
 18 19  2  0
 19 20  1  0
 20 21  2  0
 21 22  1  0
 22 23  2  0
 23 24  1  0
 23 25  1  0
 25 26  2  0
 26 27  1  0
 27 28  2  0
 11  7  1  0
 17 12  1  0
 28 18  1  0
 27 21  1  0
  3 29  1  0
  4 30  1  0
  4 31  1  0
  8 32  1  0
  8 33  1  0
  9 34  1  0
  9 35  1  0
 10 36  1  0
 10 37  1  0
 11 38  1  6
 13 39  1  0
 14 40  1  0
 15 41  1  0
 17 42  1  0
 19 43  1  0
 20 44  1  0
 22 45  1  0
 25 46  1  0
 26 47  1  0
M  END
>  <smiles>  (60) 
O=C(NCC(=O)N1CCCC1c1cccnc1)c1ccc2cc(F)ccc2n1

>  <score_type>  (60) 
oracle

>  <origin>  (60) 
autodockgpu

>  <m_score__min__energy>  (60) 
-8.9800000000000004

>  <m_primary>  (60) 
energy

>  <rmsd>  (60) 
3.009776300917049

>  <m_score__min__rmsd>  (60) 
3.009776300917049

>  <meeko>  (60) 
{"free_energy": -7.29, "intermolecular_energy": -8.79, "internal_energy": -1.57, "cluster_size": 19, "cluster_id": 1, "rank_in_cluster": 19}

>  <energy>  (60) 
-8.92

>  <cluster_rmsd>  (60) 
0.18

>  <cluster>  (60) 
1

$$$$

     RDKit          3D

 47 50  0  0  0  0  0  0  0  0999 V2000
  141.1350   71.9600  221.3850 O   0  0  0  0  0  0  0  0  0  0  0  0
  140.3740   72.3230  222.3460 C   0  0  0  0  0  0  0  0  0  0  0  0
  139.6770   73.5570  222.2640 N   0  0  0  0  0  0  0  0  0  0  0  0
  139.8540   74.3620  221.0870 C   0  0  0  0  0  0  0  0  0  0  0  0
  141.0150   75.2540  221.1620 C   0  0  0  0  0  0  0  0  0  0  0  0
  141.1920   75.9050  222.2360 O   0  0  0  0  0  0  0  0  0  0  0  0
  141.9640   75.4570  220.1360 N   0  0  0  0  0  0  0  0  0  0  0  0
  142.6480   76.6880  219.8020 C   0  0  0  0  0  0  0  0  0  0  0  0
  143.1080   76.5860  218.3750 C   0  0  0  0  0  0  0  0  0  0  0  0
  142.4670   75.3140  217.8760 C   0  0  0  0  0  0  0  0  0  0  0  0
  142.4910   74.4960  219.1540 C   0  0  1  0  0  0  0  0  0  0  0  0
  143.7980   73.9780  219.5060 C   0  0  0  0  0  0  0  0  0  0  0  0
  144.1930   73.9530  220.8500 C   0  0  0  0  0  0  0  0  0  0  0  0
  145.4390   73.4560  221.2210 C   0  0  0  0  0  0  0  0  0  0  0  0
  146.3050   72.9790  220.2640 C   0  0  0  0  0  0  0  0  0  0  0  0
  145.9320   73.0030  218.9920 N   0  0  0  0  0  0  0  0  0  0  0  0
  144.7380   73.4770  218.6180 C   0  0  0  0  0  0  0  0  0  0  0  0
  140.2270   71.4660  223.5230 C   0  0  0  0  0  0  0  0  0  0  0  0
  139.6250   70.2300  223.3860 C   0  0  0  0  0  0  0  0  0  0  0  0
  139.4690   69.4010  224.4610 C   0  0  0  0  0  0  0  0  0  0  0  0
  139.9350   69.8350  225.7000 C   0  0  0  0  0  0  0  0  0  0  0  0
  139.7910   69.0230  226.7910 C   0  0  0  0  0  0  0  0  0  0  0  0
  140.2600   69.4750  227.9990 C   0  0  0  0  0  0  0  0  0  0  0  0
  140.1450   68.7180  229.1110 F   0  0  0  0  0  0  0  0  0  0  0  0
  140.8660   70.7300  228.1160 C   0  0  0  0  0  0  0  0  0  0  0  0
  141.0140   71.5570  227.0080 C   0  0  0  0  0  0  0  0  0  0  0  0
  140.5340   71.0760  225.8060 C   0  0  0  0  0  0  0  0  0  0  0  0
  140.6820   71.8880  224.7310 N   0  0  0  0  0  0  0  0  0  0  0  0
  139.0580   73.8440  223.0570 H   0  0  0  0  0  0  0  0  0  0  0  0
  139.9831   73.6933  220.2232 H   0  0  0  0  0  0  0  0  0  0  0  0
  138.9614   74.9975  220.9905 H   0  0  0  0  0  0  0  0  0  0  0  0
  141.9610   77.5398  219.9136 H   0  0  0  0  0  0  0  0  0  0  0  0
  143.5064   76.8443  220.4719 H   0  0  0  0  0  0  0  0  0  0  0  0
  142.7649   77.4524  217.7905 H   0  0  0  0  0  0  0  0  0  0  0  0
  144.2041   76.5727  218.2829 H   0  0  0  0  0  0  0  0  0  0  0  0
  141.4408   75.4855  217.5190 H   0  0  0  0  0  0  0  0  0  0  0  0
  142.9670   74.8472  217.0146 H   0  0  0  0  0  0  0  0  0  0  0  0
  141.9044   73.5685  219.0784 H   0  0  0  0  0  0  0  0  0  0  0  0
  143.5084   74.3317  221.6233 H   0  0  0  0  0  0  0  0  0  0  0  0
  145.7320   73.4445  222.2812 H   0  0  0  0  0  0  0  0  0  0  0  0
  147.2911   72.5840  220.5498 H   0  0  0  0  0  0  0  0  0  0  0  0
  144.4881   73.4688  217.5468 H   0  0  0  0  0  0  0  0  0  0  0  0
  139.2661   69.9086  222.3971 H   0  0  0  0  0  0  0  0  0  0  0  0
  138.9885   68.4176  224.3510 H   0  0  0  0  0  0  0  0  0  0  0  0
  139.3131   68.0362  226.7028 H   0  0  0  0  0  0  0  0  0  0  0  0
  141.2304   71.0673  229.0975 H   0  0  0  0  0  0  0  0  0  0  0  0
  141.4900   72.5457  227.0852 H   0  0  0  0  0  0  0  0  0  0  0  0
  1  2  2  0
  2  3  1  0
  3  4  1  0
  4  5  1  0
  5  6  2  0
  5  7  1  0
  7  8  1  0
  8  9  1  0
  9 10  1  0
 10 11  1  0
 11 12  1  0
 12 13  2  0
 13 14  1  0
 14 15  2  0
 15 16  1  0
 16 17  2  0
  2 18  1  0
 18 19  2  0
 19 20  1  0
 20 21  2  0
 21 22  1  0
 22 23  2  0
 23 24  1  0
 23 25  1  0
 25 26  2  0
 26 27  1  0
 27 28  2  0
 11  7  1  0
 17 12  1  0
 28 18  1  0
 27 21  1  0
  3 29  1  0
  4 30  1  0
  4 31  1  0
  8 32  1  0
  8 33  1  0
  9 34  1  0
  9 35  1  0
 10 36  1  0
 10 37  1  0
 11 38  1  6
 13 39  1  0
 14 40  1  0
 15 41  1  0
 17 42  1  0
 19 43  1  0
 20 44  1  0
 22 45  1  0
 25 46  1  0
 26 47  1  0
M  END
>  <smiles>  (61) 
O=C(NCC(=O)N1CCCC1c1cccnc1)c1ccc2cc(F)ccc2n1

>  <score_type>  (61) 
oracle

>  <origin>  (61) 
autodockgpu

>  <m_score__min__energy>  (61) 
-8.9800000000000004

>  <m_primary>  (61) 
energy

>  <rmsd>  (61) 
2.305913919049931

>  <m_score__min__rmsd>  (61) 
2.305913919049931

>  <meeko>  (61) 
{"free_energy": -8.93, "intermolecular_energy": -10.42, "internal_energy": -1.48, "cluster_size": 19, "cluster_id": 1, "rank_in_cluster": 8}

>  <energy>  (61) 
-8.89

>  <cluster_rmsd>  (61) 
0.15

>  <cluster>  (61) 
1

$$$$

     RDKit          3D

 47 50  0  0  0  0  0  0  0  0999 V2000
  140.6850   71.2560  221.1900 O   0  0  0  0  0  0  0  0  0  0  0  0
  140.2640   71.8170  222.2590 C   0  0  0  0  0  0  0  0  0  0  0  0
  139.9190   73.1940  222.2430 N   0  0  0  0  0  0  0  0  0  0  0  0
  140.0580   73.9150  221.0080 C   0  0  0  0  0  0  0  0  0  0  0  0
  140.9500   75.0740  221.1090 C   0  0  0  0  0  0  0  0  0  0  0  0
  140.8110   75.8420  222.1080 O   0  0  0  0  0  0  0  0  0  0  0  0
  141.9600   75.4180  220.1840 N   0  0  0  0  0  0  0  0  0  0  0  0
  142.6480   76.6850  220.0640 C   0  0  0  0  0  0  0  0  0  0  0  0
  143.1990   76.7800  218.6690 C   0  0  0  0  0  0  0  0  0  0  0  0
  142.6070   75.5850  217.9620 C   0  0  0  0  0  0  0  0  0  0  0  0
  142.5600   74.6010  219.1160 C   0  0  1  0  0  0  0  0  0  0  0  0
  143.8490   74.0460  219.4800 C   0  0  0  0  0  0  0  0  0  0  0  0
  144.2240   73.9930  220.8280 C   0  0  0  0  0  0  0  0  0  0  0  0
  145.4520   73.4600  221.2090 C   0  0  0  0  0  0  0  0  0  0  0  0
  146.3190   72.9730  220.2580 C   0  0  0  0  0  0  0  0  0  0  0  0
  145.9640   73.0230  218.9820 N   0  0  0  0  0  0  0  0  0  0  0  0
  144.7880   73.5320  218.5980 C   0  0  0  0  0  0  0  0  0  0  0  0
  140.1400   71.0360  223.4910 C   0  0  0  0  0  0  0  0  0  0  0  0
  139.5000   69.8120  223.4520 C   0  0  0  0  0  0  0  0  0  0  0  0
  139.3640   69.0540  224.5800 C   0  0  0  0  0  0  0  0  0  0  0  0
  139.8900   69.5490  225.7730 C   0  0  0  0  0  0  0  0  0  0  0  0
  139.7660   68.8080  226.9160 C   0  0  0  0  0  0  0  0  0  0  0  0
  140.2940   69.3180  228.0760 C   0  0  0  0  0  0  0  0  0  0  0  0
  140.2020   68.6320  229.2350 F   0  0  0  0  0  0  0  0  0  0  0  0
  140.9380   70.5590  228.0930 C   0  0  0  0  0  0  0  0  0  0  0  0
  141.0640   71.3130  226.9310 C   0  0  0  0  0  0  0  0  0  0  0  0
  140.5250   70.7760  225.7810 C   0  0  0  0  0  0  0  0  0  0  0  0
  140.6530   71.5170  224.6530 N   0  0  0  0  0  0  0  0  0  0  0  0
  139.5760   73.6420  223.1240 H   0  0  0  0  0  0  0  0  0  0  0  0
  140.4608   73.2299  220.2475 H   0  0  0  0  0  0  0  0  0  0  0  0
  139.0611   74.2943  220.7388 H   0  0  0  0  0  0  0  0  0  0  0  0
  141.9446   77.5111  220.2453 H   0  0  0  0  0  0  0  0  0  0  0  0
  143.4603   76.7518  220.8027 H   0  0  0  0  0  0  0  0  0  0  0  0
  142.8827   77.7165  218.1863 H   0  0  0  0  0  0  0  0  0  0  0  0
  144.2988   76.7838  218.6469 H   0  0  0  0  0  0  0  0  0  0  0  0
  141.6035   75.7995  217.5659 H   0  0  0  0  0  0  0  0  0  0  0  0
  143.1667   75.2415  217.0795 H   0  0  0  0  0  0  0  0  0  0  0  0
  141.9912   73.6904  218.8765 H   0  0  0  0  0  0  0  0  0  0  0  0
  143.5382   74.3782  221.5970 H   0  0  0  0  0  0  0  0  0  0  0  0
  145.7300   73.4280  222.2728 H   0  0  0  0  0  0  0  0  0  0  0  0
  147.2906   72.5492  220.5518 H   0  0  0  0  0  0  0  0  0  0  0  0
  144.5527   73.5435  217.5235 H   0  0  0  0  0  0  0  0  0  0  0  0
  139.0942   69.4427  222.4986 H   0  0  0  0  0  0  0  0  0  0  0  0
  138.8537   68.0800  224.5484 H   0  0  0  0  0  0  0  0  0  0  0  0
  139.2582   67.8323  226.9060 H   0  0  0  0  0  0  0  0  0  0  0  0
  141.3503   70.9439  229.0374 H   0  0  0  0  0  0  0  0  0  0  0  0
  141.5691   72.2902  226.9295 H   0  0  0  0  0  0  0  0  0  0  0  0
  1  2  2  0
  2  3  1  0
  3  4  1  0
  4  5  1  0
  5  6  2  0
  5  7  1  0
  7  8  1  0
  8  9  1  0
  9 10  1  0
 10 11  1  0
 11 12  1  0
 12 13  2  0
 13 14  1  0
 14 15  2  0
 15 16  1  0
 16 17  2  0
  2 18  1  0
 18 19  2  0
 19 20  1  0
 20 21  2  0
 21 22  1  0
 22 23  2  0
 23 24  1  0
 23 25  1  0
 25 26  2  0
 26 27  1  0
 27 28  2  0
 11  7  1  0
 17 12  1  0
 28 18  1  0
 27 21  1  0
  3 29  1  0
  4 30  1  0
  4 31  1  0
  8 32  1  0
  8 33  1  0
  9 34  1  0
  9 35  1  0
 10 36  1  0
 10 37  1  0
 11 38  1  6
 13 39  1  0
 14 40  1  0
 15 41  1  0
 17 42  1  0
 19 43  1  0
 20 44  1  0
 22 45  1  0
 25 46  1  0
 26 47  1  0
M  END
>  <smiles>  (62) 
O=C(NCC(=O)N1CCCC1c1cccnc1)c1ccc2cc(F)ccc2n1

>  <score_type>  (62) 
oracle

>  <origin>  (62) 
autodockgpu

>  <m_score__min__energy>  (62) 
-8.9800000000000004

>  <m_primary>  (62) 
energy

>  <rmsd>  (62) 
2.2743275300223207

>  <m_score__min__rmsd>  (62) 
2.2743275300223207

>  <meeko>  (62) 
{"free_energy": -8.76, "intermolecular_energy": -10.25, "internal_energy": -1.45, "cluster_size": 19, "cluster_id": 1, "rank_in_cluster": 13}

>  <energy>  (62) 
-8.77

>  <cluster_rmsd>  (62) 
0.35

>  <cluster>  (62) 
1

$$$$

     RDKit          3D

 47 50  0  0  0  0  0  0  0  0999 V2000
  141.3630   72.4960  221.9000 O   0  0  0  0  0  0  0  0  0  0  0  0
  140.3070   72.4960  222.6220 C   0  0  0  0  0  0  0  0  0  0  0  0
  139.2690   73.4250  222.3490 N   0  0  0  0  0  0  0  0  0  0  0  0
  139.4450   74.3410  221.2560 C   0  0  0  0  0  0  0  0  0  0  0  0
  140.1800   75.5540  221.6280 C   0  0  0  0  0  0  0  0  0  0  0  0
  141.4160   75.4400  221.8870 O   0  0  0  0  0  0  0  0  0  0  0  0
  139.6310   76.8520  221.7240 N   0  0  0  0  0  0  0  0  0  0  0  0
  138.4970   77.2690  222.5200 C   0  0  0  0  0  0  0  0  0  0  0  0
  137.9500   78.5320  221.9150 C   0  0  0  0  0  0  0  0  0  0  0  0
  138.7200   78.6800  220.6260 C   0  0  0  0  0  0  0  0  0  0  0  0
  140.0520   78.0910  221.0520 C   0  0  1  0  0  0  0  0  0  0  0  0
  140.8440   78.9600  221.9010 C   0  0  0  0  0  0  0  0  0  0  0  0
  141.4110   78.4500  223.0760 C   0  0  0  0  0  0  0  0  0  0  0  0
  142.1810   79.2570  223.9080 C   0  0  0  0  0  0  0  0  0  0  0  0
  142.3980   80.5760  223.5830 C   0  0  0  0  0  0  0  0  0  0  0  0
  141.8610   81.0590  222.4710 N   0  0  0  0  0  0  0  0  0  0  0  0
  141.1180   80.2980  221.6600 C   0  0  0  0  0  0  0  0  0  0  0  0
  140.1770   71.5410  223.7230 C   0  0  0  0  0  0  0  0  0  0  0  0
  139.5810   70.3160  223.4860 C   0  0  0  0  0  0  0  0  0  0  0  0
  139.4400   69.3980  224.4870 C   0  0  0  0  0  0  0  0  0  0  0  0
  139.9140   69.7290  225.7560 C   0  0  0  0  0  0  0  0  0  0  0  0
  139.7840   68.8260  226.7740 C   0  0  0  0  0  0  0  0  0  0  0  0
  140.2610   69.1780  228.0130 C   0  0  0  0  0  0  0  0  0  0  0  0
  140.1600   68.3270  229.0570 F   0  0  0  0  0  0  0  0  0  0  0  0
  140.8600   70.4220  228.2310 C   0  0  0  0  0  0  0  0  0  0  0  0
  140.9920   71.3410  227.1960 C   0  0  0  0  0  0  0  0  0  0  0  0
  140.5050   70.9610  225.9620 C   0  0  0  0  0  0  0  0  0  0  0  0
  140.6390   71.8620  224.9590 N   0  0  0  0  0  0  0  0  0  0  0  0
  138.4100   73.4160  222.9460 H   0  0  0  0  0  0  0  0  0  0  0  0
  139.9998   73.8281  220.4566 H   0  0  0  0  0  0  0  0  0  0  0  0
  138.4426   74.6549  220.9295 H   0  0  0  0  0  0  0  0  0  0  0  0
  137.7253   76.4852  222.5113 H   0  0  0  0  0  0  0  0  0  0  0  0
  138.8026   77.4434  223.5622 H   0  0  0  0  0  0  0  0  0  0  0  0
  136.8720   78.4367  221.7181 H   0  0  0  0  0  0  0  0  0  0  0  0
  138.0612   79.4027  222.5779 H   0  0  0  0  0  0  0  0  0  0  0  0
  138.2617   78.1056  219.8074 H   0  0  0  0  0  0  0  0  0  0  0  0
  138.7700   79.7046  220.2288 H   0  0  0  0  0  0  0  0  0  0  0  0
  140.7376   77.9300  220.2070 H   0  0  0  0  0  0  0  0  0  0  0  0
  141.2452   77.3963  223.3449 H   0  0  0  0  0  0  0  0  0  0  0  0
  142.6171   78.8394  224.8275 H   0  0  0  0  0  0  0  0  0  0  0  0
  143.0070   81.2195  224.2349 H   0  0  0  0  0  0  0  0  0  0  0  0
  140.7014   80.7586  220.7521 H   0  0  0  0  0  0  0  0  0  0  0  0
  139.2151   70.0775  222.4764 H   0  0  0  0  0  0  0  0  0  0  0  0
  138.9654   68.4239  224.2975 H   0  0  0  0  0  0  0  0  0  0  0  0
  139.3116   67.8469  226.6060 H   0  0  0  0  0  0  0  0  0  0  0  0
  141.2317   70.6772  229.2343 H   0  0  0  0  0  0  0  0  0  0  0  0
  141.4618   72.3232  227.3532 H   0  0  0  0  0  0  0  0  0  0  0  0
  1  2  2  0
  2  3  1  0
  3  4  1  0
  4  5  1  0
  5  6  2  0
  5  7  1  0
  7  8  1  0
  8  9  1  0
  9 10  1  0
 10 11  1  0
 11 12  1  0
 12 13  2  0
 13 14  1  0
 14 15  2  0
 15 16  1  0
 16 17  2  0
  2 18  1  0
 18 19  2  0
 19 20  1  0
 20 21  2  0
 21 22  1  0
 22 23  2  0
 23 24  1  0
 23 25  1  0
 25 26  2  0
 26 27  1  0
 27 28  2  0
 11  7  1  0
 17 12  1  0
 28 18  1  0
 27 21  1  0
  3 29  1  0
  4 30  1  0
  4 31  1  0
  8 32  1  0
  8 33  1  0
  9 34  1  0
  9 35  1  0
 10 36  1  0
 10 37  1  0
 11 38  1  6
 13 39  1  0
 14 40  1  0
 15 41  1  0
 17 42  1  0
 19 43  1  0
 20 44  1  0
 22 45  1  0
 25 46  1  0
 26 47  1  0
M  END
>  <smiles>  (63) 
O=C(NCC(=O)N1CCCC1c1cccnc1)c1ccc2cc(F)ccc2n1

>  <score_type>  (63) 
oracle

>  <origin>  (63) 
autodockgpu

>  <m_score__min__energy>  (63) 
-8.9800000000000004

>  <m_primary>  (63) 
energy

>  <rmsd>  (63) 
2.5413820204439084

>  <m_score__min__rmsd>  (63) 
2.5413820204439084

>  <meeko>  (63) 
{"free_energy": -8.52, "intermolecular_energy": -10.02, "internal_energy": -1.09, "cluster_size": 26, "cluster_id": 2, "rank_in_cluster": 7}

>  <energy>  (63) 
-8.76

>  <cluster_rmsd>  (63) 
0.4

>  <cluster>  (63) 
1

$$$$

     RDKit          3D

 47 50  0  0  0  0  0  0  0  0999 V2000
  141.3630   72.5420  221.9280 O   0  0  0  0  0  0  0  0  0  0  0  0
  140.2970   72.5020  222.6330 C   0  0  0  0  0  0  0  0  0  0  0  0
  139.2360   73.4030  222.3570 N   0  0  0  0  0  0  0  0  0  0  0  0
  139.4010   74.3390  221.2800 C   0  0  0  0  0  0  0  0  0  0  0  0
  140.2220   75.5000  221.6380 C   0  0  0  0  0  0  0  0  0  0  0  0
  141.4410   75.2960  221.9230 O   0  0  0  0  0  0  0  0  0  0  0  0
  139.7750   76.8380  221.6970 N   0  0  0  0  0  0  0  0  0  0  0  0
  138.5930   77.3410  222.3620 C   0  0  0  0  0  0  0  0  0  0  0  0
  138.2280   78.6520  221.7240 C   0  0  0  0  0  0  0  0  0  0  0  0
  139.1550   78.7480  220.5370 C   0  0  0  0  0  0  0  0  0  0  0  0
  140.3730   78.0450  221.1040 C   0  0  1  0  0  0  0  0  0  0  0  0
  141.1290   78.8340  222.0570 C   0  0  0  0  0  0  0  0  0  0  0  0
  141.5930   80.1030  221.6910 C   0  0  0  0  0  0  0  0  0  0  0  0
  142.3150   80.8870  222.5860 C   0  0  0  0  0  0  0  0  0  0  0  0
  142.5840   80.4210  223.8520 C   0  0  0  0  0  0  0  0  0  0  0  0
  142.1450   79.2180  224.1990 N   0  0  0  0  0  0  0  0  0  0  0  0
  141.4500   78.4520  223.3510 C   0  0  0  0  0  0  0  0  0  0  0  0
  140.1780   71.5290  223.7200 C   0  0  0  0  0  0  0  0  0  0  0  0
  139.5690   70.3130  223.4730 C   0  0  0  0  0  0  0  0  0  0  0  0
  139.4390   69.3780  224.4600 C   0  0  0  0  0  0  0  0  0  0  0  0
  139.9380   69.6830  225.7250 C   0  0  0  0  0  0  0  0  0  0  0  0
  139.8190   68.7630  226.7300 C   0  0  0  0  0  0  0  0  0  0  0  0
  140.3200   69.0890  227.9660 C   0  0  0  0  0  0  0  0  0  0  0  0
  140.2320   68.2220  228.9970 F   0  0  0  0  0  0  0  0  0  0  0  0
  140.9330   70.3260  228.1950 C   0  0  0  0  0  0  0  0  0  0  0  0
  141.0540   71.2610  227.1740 C   0  0  0  0  0  0  0  0  0  0  0  0
  140.5420   70.9070  225.9420 C   0  0  0  0  0  0  0  0  0  0  0  0
  140.6650   71.8250  224.9530 N   0  0  0  0  0  0  0  0  0  0  0  0
  138.3690   73.3620  222.9410 H   0  0  0  0  0  0  0  0  0  0  0  0
  139.8803   73.8196  220.4371 H   0  0  0  0  0  0  0  0  0  0  0  0
  138.4005   74.7161  221.0214 H   0  0  0  0  0  0  0  0  0  0  0  0
  137.7656   76.6255  222.2460 H   0  0  0  0  0  0  0  0  0  0  0  0
  138.7861   77.4777  223.4363 H   0  0  0  0  0  0  0  0  0  0  0  0
  137.1766   78.6506  221.4005 H   0  0  0  0  0  0  0  0  0  0  0  0
  138.3317   79.5029  222.4134 H   0  0  0  0  0  0  0  0  0  0  0  0
  138.7512   78.2227  219.6589 H   0  0  0  0  0  0  0  0  0  0  0  0
  139.3359   79.7687  220.1690 H   0  0  0  0  0  0  0  0  0  0  0  0
  141.1378   77.8364  220.3414 H   0  0  0  0  0  0  0  0  0  0  0  0
  141.3839   80.4861  220.6813 H   0  0  0  0  0  0  0  0  0  0  0  0
  142.6714   81.8817  222.2803 H   0  0  0  0  0  0  0  0  0  0  0  0
  143.1536   81.0355  224.5648 H   0  0  0  0  0  0  0  0  0  0  0  0
  141.1143   77.4641  223.6993 H   0  0  0  0  0  0  0  0  0  0  0  0
  139.1832   70.0950  222.4662 H   0  0  0  0  0  0  0  0  0  0  0  0
  138.9538   68.4109  224.2619 H   0  0  0  0  0  0  0  0  0  0  0  0
  139.3361   67.7906  226.5532 H   0  0  0  0  0  0  0  0  0  0  0  0
  141.3240   70.5612  229.1959 H   0  0  0  0  0  0  0  0  0  0  0  0
  141.5347   72.2364  227.3397 H   0  0  0  0  0  0  0  0  0  0  0  0
  1  2  2  0
  2  3  1  0
  3  4  1  0
  4  5  1  0
  5  6  2  0
  5  7  1  0
  7  8  1  0
  8  9  1  0
  9 10  1  0
 10 11  1  0
 11 12  1  0
 12 13  2  0
 13 14  1  0
 14 15  2  0
 15 16  1  0
 16 17  2  0
  2 18  1  0
 18 19  2  0
 19 20  1  0
 20 21  2  0
 21 22  1  0
 22 23  2  0
 23 24  1  0
 23 25  1  0
 25 26  2  0
 26 27  1  0
 27 28  2  0
 11  7  1  0
 17 12  1  0
 28 18  1  0
 27 21  1  0
  3 29  1  0
  4 30  1  0
  4 31  1  0
  8 32  1  0
  8 33  1  0
  9 34  1  0
  9 35  1  0
 10 36  1  0
 10 37  1  0
 11 38  1  6
 13 39  1  0
 14 40  1  0
 15 41  1  0
 17 42  1  0
 19 43  1  0
 20 44  1  0
 22 45  1  0
 25 46  1  0
 26 47  1  0
M  END
>  <smiles>  (64) 
O=C(NCC(=O)N1CCCC1c1cccnc1)c1ccc2cc(F)ccc2n1

>  <score_type>  (64) 
oracle

>  <origin>  (64) 
autodockgpu

>  <m_score__min__energy>  (64) 
-8.9800000000000004

>  <m_primary>  (64) 
energy

>  <rmsd>  (64) 
2.4427720065159537

>  <m_score__min__rmsd>  (64) 
2.4427720065159537

>  <meeko>  (64) 
{"free_energy": -8.68, "intermolecular_energy": -10.17, "internal_energy": -1.04, "cluster_size": 26, "cluster_id": 2, "rank_in_cluster": 1}

>  <energy>  (64) 
-8.3

>  <cluster_rmsd>  (64) 
0.96

>  <cluster>  (64) 
1

$$$$

     RDKit          3D

 47 50  0  0  0  0  0  0  0  0999 V2000
  141.5220   71.9760  221.7260 O   0  0  0  0  0  0  0  0  0  0  0  0
  140.5130   72.2300  222.4680 C   0  0  0  0  0  0  0  0  0  0  0  0
  139.6350   73.2920  222.1240 N   0  0  0  0  0  0  0  0  0  0  0  0
  139.9180   74.0500  220.9370 C   0  0  0  0  0  0  0  0  0  0  0  0
  140.9500   75.0730  221.1320 C   0  0  0  0  0  0  0  0  0  0  0  0
  140.9480   75.7120  222.2270 O   0  0  0  0  0  0  0  0  0  0  0  0
  141.9560   75.4150  220.2020 N   0  0  0  0  0  0  0  0  0  0  0  0
  142.6430   76.6820  220.0770 C   0  0  0  0  0  0  0  0  0  0  0  0
  143.1880   76.7740  218.6800 C   0  0  0  0  0  0  0  0  0  0  0  0
  142.5930   75.5790  217.9780 C   0  0  0  0  0  0  0  0  0  0  0  0
  142.5510   74.5960  219.1330 C   0  0  1  0  0  0  0  0  0  0  0  0
  143.8410   74.0410  219.4920 C   0  0  0  0  0  0  0  0  0  0  0  0
  144.2160   73.9760  220.8400 C   0  0  0  0  0  0  0  0  0  0  0  0
  145.4450   73.4420  221.2160 C   0  0  0  0  0  0  0  0  0  0  0  0
  146.3140   72.9680  220.2600 C   0  0  0  0  0  0  0  0  0  0  0  0
  145.9600   73.0300  218.9840 N   0  0  0  0  0  0  0  0  0  0  0  0
  144.7830   73.5390  218.6050 C   0  0  0  0  0  0  0  0  0  0  0  0
  140.2690   71.4270  223.6670 C   0  0  0  0  0  0  0  0  0  0  0  0
  139.5600   70.2460  223.5550 C   0  0  0  0  0  0  0  0  0  0  0  0
  139.3110   69.4680  224.6500 C   0  0  0  0  0  0  0  0  0  0  0  0
  139.7930   69.8980  225.8850 C   0  0  0  0  0  0  0  0  0  0  0  0
  139.5560   69.1360  226.9960 C   0  0  0  0  0  0  0  0  0  0  0  0
  140.0430   69.5820  228.2000 C   0  0  0  0  0  0  0  0  0  0  0  0
  139.8410   68.8730  229.3310 F   0  0  0  0  0  0  0  0  0  0  0  0
  140.7580   70.7810  228.2910 C   0  0  0  0  0  0  0  0  0  0  0  0
  140.9990   71.5550  227.1620 C   0  0  0  0  0  0  0  0  0  0  0  0
  140.4990   71.0830  225.9670 C   0  0  0  0  0  0  0  0  0  0  0  0
  140.7380   71.8440  224.8710 N   0  0  0  0  0  0  0  0  0  0  0  0
  138.8130   73.4910  222.7390 H   0  0  0  0  0  0  0  0  0  0  0  0
  140.2577   73.3569  220.1533 H   0  0  0  0  0  0  0  0  0  0  0  0
  138.9915   74.5725  220.6566 H   0  0  0  0  0  0  0  0  0  0  0  0
  141.9401   77.5082  220.2594 H   0  0  0  0  0  0  0  0  0  0  0  0
  143.4582   76.7509  220.8124 H   0  0  0  0  0  0  0  0  0  0  0  0
  142.8702   77.7098  218.1969 H   0  0  0  0  0  0  0  0  0  0  0  0
  144.2877   76.7770  218.6534 H   0  0  0  0  0  0  0  0  0  0  0  0
  141.5877   75.7933  217.5863 H   0  0  0  0  0  0  0  0  0  0  0  0
  143.1488   75.2344  217.0935 H   0  0  0  0  0  0  0  0  0  0  0  0
  141.9814   73.6850  218.8972 H   0  0  0  0  0  0  0  0  0  0  0  0
  143.5293   74.3524  221.6125 H   0  0  0  0  0  0  0  0  0  0  0  0
  145.7223   73.3987  222.2796 H   0  0  0  0  0  0  0  0  0  0  0  0
  147.2869   72.5444  220.5500 H   0  0  0  0  0  0  0  0  0  0  0  0
  144.5484   73.5611  217.5305 H   0  0  0  0  0  0  0  0  0  0  0  0
  139.1905   69.9276  222.5691 H   0  0  0  0  0  0  0  0  0  0  0  0
  138.7460   68.5286  224.5595 H   0  0  0  0  0  0  0  0  0  0  0  0
  138.9921   68.1940  226.9270 H   0  0  0  0  0  0  0  0  0  0  0  0
  141.1344   71.1156  229.2689 H   0  0  0  0  0  0  0  0  0  0  0  0
  141.5615   72.4986  227.2192 H   0  0  0  0  0  0  0  0  0  0  0  0
  1  2  2  0
  2  3  1  0
  3  4  1  0
  4  5  1  0
  5  6  2  0
  5  7  1  0
  7  8  1  0
  8  9  1  0
  9 10  1  0
 10 11  1  0
 11 12  1  0
 12 13  2  0
 13 14  1  0
 14 15  2  0
 15 16  1  0
 16 17  2  0
  2 18  1  0
 18 19  2  0
 19 20  1  0
 20 21  2  0
 21 22  1  0
 22 23  2  0
 23 24  1  0
 23 25  1  0
 25 26  2  0
 26 27  1  0
 27 28  2  0
 11  7  1  0
 17 12  1  0
 28 18  1  0
 27 21  1  0
  3 29  1  0
  4 30  1  0
  4 31  1  0
  8 32  1  0
  8 33  1  0
  9 34  1  0
  9 35  1  0
 10 36  1  0
 10 37  1  0
 11 38  1  6
 13 39  1  0
 14 40  1  0
 15 41  1  0
 17 42  1  0
 19 43  1  0
 20 44  1  0
 22 45  1  0
 25 46  1  0
 26 47  1  0
M  END
>  <smiles>  (65) 
O=C(NCC(=O)N1CCCC1c1cccnc1)c1ccc2cc(F)ccc2n1

>  <score_type>  (65) 
oracle

>  <origin>  (65) 
autodockgpu

>  <m_score__min__energy>  (65) 
-8.9800000000000004

>  <m_primary>  (65) 
energy

>  <rmsd>  (65) 
2.348317340965727

>  <m_score__min__rmsd>  (65) 
2.348317340965727

>  <meeko>  (65) 
{"free_energy": -8.93, "intermolecular_energy": -10.42, "internal_energy": -1.42, "cluster_size": 19, "cluster_id": 1, "rank_in_cluster": 7}

>  <energy>  (65) 
-8.19

>  <cluster_rmsd>  (65) 
0.6

>  <cluster>  (65) 
1

$$$$

     RDKit          3D

 47 50  0  0  0  0  0  0  0  0999 V2000
  141.4610   72.2260  221.6640 O   0  0  0  0  0  0  0  0  0  0  0  0
  140.4650   72.4050  222.4470 C   0  0  0  0  0  0  0  0  0  0  0  0
  139.5490   73.4590  222.1900 N   0  0  0  0  0  0  0  0  0  0  0  0
  139.7780   74.2960  221.0450 C   0  0  0  0  0  0  0  0  0  0  0  0
  140.9750   75.1330  221.1660 C   0  0  0  0  0  0  0  0  0  0  0  0
  141.1900   75.6990  222.2800 O   0  0  0  0  0  0  0  0  0  0  0  0
  141.9200   75.3710  220.1440 N   0  0  0  0  0  0  0  0  0  0  0  0
  142.5750   76.6220  219.8260 C   0  0  0  0  0  0  0  0  0  0  0  0
  143.0390   76.5480  218.3980 C   0  0  0  0  0  0  0  0  0  0  0  0
  142.4280   75.2680  217.8830 C   0  0  0  0  0  0  0  0  0  0  0  0
  142.4700   74.4350  219.1500 C   0  0  1  0  0  0  0  0  0  0  0  0
  143.7890   73.9440  219.4980 C   0  0  0  0  0  0  0  0  0  0  0  0
  144.1950   73.9420  220.8380 C   0  0  0  0  0  0  0  0  0  0  0  0
  145.4530   73.4710  221.2050 C   0  0  0  0  0  0  0  0  0  0  0  0
  146.3190   72.9970  220.2470 C   0  0  0  0  0  0  0  0  0  0  0  0
  145.9340   72.9980  218.9780 N   0  0  0  0  0  0  0  0  0  0  0  0
  144.7300   73.4470  218.6080 C   0  0  0  0  0  0  0  0  0  0  0  0
  140.2770   71.5240  223.6000 C   0  0  0  0  0  0  0  0  0  0  0  0
  139.6030   70.3290  223.4330 C   0  0  0  0  0  0  0  0  0  0  0  0
  139.4070   69.4800  224.4850 C   0  0  0  0  0  0  0  0  0  0  0  0
  139.9050   69.8510  225.7320 C   0  0  0  0  0  0  0  0  0  0  0  0
  139.7200   69.0180  226.8010 C   0  0  0  0  0  0  0  0  0  0  0  0
  140.2220   69.4080  228.0180 C   0  0  0  0  0  0  0  0  0  0  0  0
  140.0710   68.6260  229.1080 F   0  0  0  0  0  0  0  0  0  0  0  0
  140.9010   70.6220  228.1650 C   0  0  0  0  0  0  0  0  0  0  0  0
  141.0890   71.4690  227.0790 C   0  0  0  0  0  0  0  0  0  0  0  0
  140.5750   71.0520  225.8690 C   0  0  0  0  0  0  0  0  0  0  0  0
  140.7630   71.8850  224.8160 N   0  0  0  0  0  0  0  0  0  0  0  0
  138.7390   73.5970  222.8370 H   0  0  0  0  0  0  0  0  0  0  0  0
  139.8903   73.6528  220.1598 H   0  0  0  0  0  0  0  0  0  0  0  0
  138.9154   74.9733  220.9601 H   0  0  0  0  0  0  0  0  0  0  0  0
  141.8679   77.4559  219.9469 H   0  0  0  0  0  0  0  0  0  0  0  0
  143.4286   76.7906  220.4990 H   0  0  0  0  0  0  0  0  0  0  0  0
  142.6767   77.4133  217.8235 H   0  0  0  0  0  0  0  0  0  0  0  0
  144.1352   76.5610  218.3072 H   0  0  0  0  0  0  0  0  0  0  0  0
  141.3983   75.4202  217.5273 H   0  0  0  0  0  0  0  0  0  0  0  0
  142.9394   74.8236  217.0164 H   0  0  0  0  0  0  0  0  0  0  0  0
  141.9054   73.4951  219.0611 H   0  0  0  0  0  0  0  0  0  0  0  0
  143.5101   74.3181  221.6123 H   0  0  0  0  0  0  0  0  0  0  0  0
  145.7548   73.4780  222.2628 H   0  0  0  0  0  0  0  0  0  0  0  0
  147.3144   72.6233  220.5289 H   0  0  0  0  0  0  0  0  0  0  0  0
  144.4715   73.4208  217.5391 H   0  0  0  0  0  0  0  0  0  0  0  0
  139.2189   70.0577  222.4386 H   0  0  0  0  0  0  0  0  0  0  0  0
  138.8705   68.5291  224.3511 H   0  0  0  0  0  0  0  0  0  0  0  0
  139.1847   68.0636  226.6890 H   0  0  0  0  0  0  0  0  0  0  0  0
  141.2911   70.9100  229.1523 H   0  0  0  0  0  0  0  0  0  0  0  0
  141.6221   72.4259  227.1798 H   0  0  0  0  0  0  0  0  0  0  0  0
  1  2  2  0
  2  3  1  0
  3  4  1  0
  4  5  1  0
  5  6  2  0
  5  7  1  0
  7  8  1  0
  8  9  1  0
  9 10  1  0
 10 11  1  0
 11 12  1  0
 12 13  2  0
 13 14  1  0
 14 15  2  0
 15 16  1  0
 16 17  2  0
  2 18  1  0
 18 19  2  0
 19 20  1  0
 20 21  2  0
 21 22  1  0
 22 23  2  0
 23 24  1  0
 23 25  1  0
 25 26  2  0
 26 27  1  0
 27 28  2  0
 11  7  1  0
 17 12  1  0
 28 18  1  0
 27 21  1  0
  3 29  1  0
  4 30  1  0
  4 31  1  0
  8 32  1  0
  8 33  1  0
  9 34  1  0
  9 35  1  0
 10 36  1  0
 10 37  1  0
 11 38  1  6
 13 39  1  0
 14 40  1  0
 15 41  1  0
 17 42  1  0
 19 43  1  0
 20 44  1  0
 22 45  1  0
 25 46  1  0
 26 47  1  0
M  END
>  <smiles>  (66) 
O=C(NCC(=O)N1CCCC1c1cccnc1)c1ccc2cc(F)ccc2n1

>  <score_type>  (66) 
oracle

>  <origin>  (66) 
autodockgpu

>  <m_score__min__energy>  (66) 
-8.9800000000000004

>  <m_primary>  (66) 
energy

>  <rmsd>  (66) 
2.306718263010303

>  <m_score__min__rmsd>  (66) 
2.306718263010303

>  <meeko>  (66) 
{"free_energy": -8.96, "intermolecular_energy": -10.45, "internal_energy": -1.45, "cluster_size": 19, "cluster_id": 1, "rank_in_cluster": 5}

>  <energy>  (66) 
-8.12

>  <cluster_rmsd>  (66) 
0.61

>  <cluster>  (66) 
1

$$$$

     RDKit          3D

 47 50  0  0  0  0  0  0  0  0999 V2000
  141.3510   72.5770  221.9150 O   0  0  0  0  0  0  0  0  0  0  0  0
  140.2910   72.5500  222.6300 C   0  0  0  0  0  0  0  0  0  0  0  0
  139.2280   73.4480  222.3460 N   0  0  0  0  0  0  0  0  0  0  0  0
  139.3860   74.3640  221.2510 C   0  0  0  0  0  0  0  0  0  0  0  0
  139.3500   75.7710  221.6600 C   0  0  0  0  0  0  0  0  0  0  0  0
  138.5710   76.0910  222.6080 O   0  0  0  0  0  0  0  0  0  0  0  0
  140.1110   76.8140  221.0880 N   0  0  0  0  0  0  0  0  0  0  0  0
  139.7430   77.6620  219.9750 C   0  0  0  0  0  0  0  0  0  0  0  0
  141.0070   78.2160  219.3800 C   0  0  0  0  0  0  0  0  0  0  0  0
  142.1040   77.4700  220.0990 C   0  0  0  0  0  0  0  0  0  0  0  0
  141.4510   77.2980  221.4580 C   0  0  1  0  0  0  0  0  0  0  0  0
  141.4200   78.5040  222.2620 C   0  0  0  0  0  0  0  0  0  0  0  0
  140.2940   78.7830  223.0460 C   0  0  0  0  0  0  0  0  0  0  0  0
  140.2360   79.9300  223.8340 C   0  0  0  0  0  0  0  0  0  0  0  0
  141.2940   80.8100  223.8520 C   0  0  0  0  0  0  0  0  0  0  0  0
  142.3600   80.5450  223.1090 N   0  0  0  0  0  0  0  0  0  0  0  0
  142.4320   79.4490  222.3460 C   0  0  0  0  0  0  0  0  0  0  0  0
  140.1810   71.5960  223.7340 C   0  0  0  0  0  0  0  0  0  0  0  0
  139.5700   70.3760  223.5130 C   0  0  0  0  0  0  0  0  0  0  0  0
  139.4470   69.4590  224.5180 C   0  0  0  0  0  0  0  0  0  0  0  0
  139.9550   69.7870  225.7740 C   0  0  0  0  0  0  0  0  0  0  0  0
  139.8430   68.8850  226.7960 C   0  0  0  0  0  0  0  0  0  0  0  0
  140.3530   69.2330  228.0220 C   0  0  0  0  0  0  0  0  0  0  0  0
  140.2720   68.3840  229.0690 F   0  0  0  0  0  0  0  0  0  0  0  0
  140.9670   70.4740  228.2240 C   0  0  0  0  0  0  0  0  0  0  0  0
  141.0810   71.3910  227.1860 C   0  0  0  0  0  0  0  0  0  0  0  0
  140.5600   71.0140  225.9650 C   0  0  0  0  0  0  0  0  0  0  0  0
  140.6760   71.9140  224.9580 N   0  0  0  0  0  0  0  0  0  0  0  0
  138.3660   73.4170  222.9380 H   0  0  0  0  0  0  0  0  0  0  0  0
  140.3540   74.1660  220.7675 H   0  0  0  0  0  0  0  0  0  0  0  0
  138.5394   74.2025  220.5675 H   0  0  0  0  0  0  0  0  0  0  0  0
  139.2008   77.0738  219.2200 H   0  0  0  0  0  0  0  0  0  0  0  0
  139.0890   78.4786  220.3148 H   0  0  0  0  0  0  0  0  0  0  0  0
  141.0472   78.0236  218.2977 H   0  0  0  0  0  0  0  0  0  0  0  0
  141.0885   79.3067  219.4972 H   0  0  0  0  0  0  0  0  0  0  0  0
  142.3201   76.5019  219.6235 H   0  0  0  0  0  0  0  0  0  0  0  0
  143.0801   77.9770  220.1125 H   0  0  0  0  0  0  0  0  0  0  0  0
  142.0075   76.6138  222.1154 H   0  0  0  0  0  0  0  0  0  0  0  0
  139.4429   78.0862  223.0395 H   0  0  0  0  0  0  0  0  0  0  0  0
  139.3428   80.1329  224.4431 H   0  0  0  0  0  0  0  0  0  0  0  0
  141.2561   81.7177  224.4722 H   0  0  0  0  0  0  0  0  0  0  0  0
  143.3440   79.2880  221.7523 H   0  0  0  0  0  0  0  0  0  0  0  0
  139.1770   70.1400  222.5131 H   0  0  0  0  0  0  0  0  0  0  0  0
  138.9605   68.4884  224.3410 H   0  0  0  0  0  0  0  0  0  0  0  0
  139.3587   67.9097  226.6402 H   0  0  0  0  0  0  0  0  0  0  0  0
  141.3648   70.7272  229.2178 H   0  0  0  0  0  0  0  0  0  0  0  0
  141.5628   72.3692  227.3306 H   0  0  0  0  0  0  0  0  0  0  0  0
  1  2  2  0
  2  3  1  0
  3  4  1  0
  4  5  1  0
  5  6  2  0
  5  7  1  0
  7  8  1  0
  8  9  1  0
  9 10  1  0
 10 11  1  0
 11 12  1  0
 12 13  2  0
 13 14  1  0
 14 15  2  0
 15 16  1  0
 16 17  2  0
  2 18  1  0
 18 19  2  0
 19 20  1  0
 20 21  2  0
 21 22  1  0
 22 23  2  0
 23 24  1  0
 23 25  1  0
 25 26  2  0
 26 27  1  0
 27 28  2  0
 11  7  1  0
 17 12  1  0
 28 18  1  0
 27 21  1  0
  3 29  1  0
  4 30  1  0
  4 31  1  0
  8 32  1  0
  8 33  1  0
  9 34  1  0
  9 35  1  0
 10 36  1  0
 10 37  1  0
 11 38  1  1
 13 39  1  0
 14 40  1  0
 15 41  1  0
 17 42  1  0
 19 43  1  0
 20 44  1  0
 22 45  1  0
 25 46  1  0
 26 47  1  0
M  END
>  <smiles>  (67) 
O=C(NCC(=O)N1CCCC1c1cccnc1)c1ccc2cc(F)ccc2n1

>  <score_type>  (67) 
oracle

>  <origin>  (67) 
autodockgpu

>  <m_score__min__energy>  (67) 
-8.9800000000000004

>  <m_primary>  (67) 
energy

>  <rmsd>  (67) 
1.8766501093012888

>  <m_score__min__rmsd>  (67) 
1.8766501093012888

>  <meeko>  (67) 
{"free_energy": -8.42, "intermolecular_energy": -9.92, "internal_energy": -1.26, "cluster_size": 26, "cluster_id": 2, "rank_in_cluster": 19}

>  <energy>  (67) 
-7.57

>  <cluster_rmsd>  (67) 
1.35

>  <cluster>  (67) 
1

$$$$

     RDKit          3D

 47 50  0  0  0  0  0  0  0  0999 V2000
  141.3510   72.2160  221.6330 O   0  0  0  0  0  0  0  0  0  0  0  0
  140.4410   72.4570  222.4980 C   0  0  0  0  0  0  0  0  0  0  0  0
  139.6200   73.6070  222.3540 N   0  0  0  0  0  0  0  0  0  0  0  0
  139.8460   74.4660  221.2250 C   0  0  0  0  0  0  0  0  0  0  0  0
  139.4680   75.8610  221.4710 C   0  0  0  0  0  0  0  0  0  0  0  0
  138.4810   76.0790  222.2380 O   0  0  0  0  0  0  0  0  0  0  0  0
  140.1080   76.9950  220.9260 N   0  0  0  0  0  0  0  0  0  0  0  0
  139.5820   77.9100  219.9360 C   0  0  0  0  0  0  0  0  0  0  0  0
  140.7470   78.5920  219.2750 C   0  0  0  0  0  0  0  0  0  0  0  0
  141.9510   77.8590  219.8140 C   0  0  0  0  0  0  0  0  0  0  0  0
  141.4500   77.5310  221.2080 C   0  0  1  0  0  0  0  0  0  0  0  0
  141.4340   78.6590  222.1180 C   0  0  0  0  0  0  0  0  0  0  0  0
  142.5770   79.4580  222.2490 C   0  0  0  0  0  0  0  0  0  0  0  0
  142.5910   80.5510  223.1100 C   0  0  0  0  0  0  0  0  0  0  0  0
  141.4730   80.8640  223.8490 C   0  0  0  0  0  0  0  0  0  0  0  0
  140.3910   80.1070  223.7250 N   0  0  0  0  0  0  0  0  0  0  0  0
  140.3600   79.0530  222.9020 C   0  0  0  0  0  0  0  0  0  0  0  0
  140.2520   71.5490  223.6300 C   0  0  0  0  0  0  0  0  0  0  0  0
  139.5930   70.3510  223.4310 C   0  0  0  0  0  0  0  0  0  0  0  0
  139.3960   69.4760  224.4610 C   0  0  0  0  0  0  0  0  0  0  0  0
  139.8790   69.8250  225.7210 C   0  0  0  0  0  0  0  0  0  0  0  0
  139.6940   68.9660  226.7690 C   0  0  0  0  0  0  0  0  0  0  0  0
  140.1800   69.3340  227.9990 C   0  0  0  0  0  0  0  0  0  0  0  0
  140.0280   68.5270  229.0710 F   0  0  0  0  0  0  0  0  0  0  0  0
  140.8450   70.5520  228.1790 C   0  0  0  0  0  0  0  0  0  0  0  0
  141.0330   71.4250  227.1150 C   0  0  0  0  0  0  0  0  0  0  0  0
  140.5340   71.0300  225.8910 C   0  0  0  0  0  0  0  0  0  0  0  0
  140.7220   71.8880  224.8580 N   0  0  0  0  0  0  0  0  0  0  0  0
  138.8790   73.7950  223.0680 H   0  0  0  0  0  0  0  0  0  0  0  0
  140.9158   74.4340  220.9710 H   0  0  0  0  0  0  0  0  0  0  0  0
  139.2130   74.0975  220.4043 H   0  0  0  0  0  0  0  0  0  0  0  0
  138.9987   77.3552  219.1863 H   0  0  0  0  0  0  0  0  0  0  0  0
  138.9219   78.6511  220.4104 H   0  0  0  0  0  0  0  0  0  0  0  0
  140.6876   78.4954  218.1809 H   0  0  0  0  0  0  0  0  0  0  0  0
  140.7799   79.6717  219.4828 H   0  0  0  0  0  0  0  0  0  0  0  0
  142.1706   76.9506  219.2338 H   0  0  0  0  0  0  0  0  0  0  0  0
  142.8941   78.4241  219.7792 H   0  0  0  0  0  0  0  0  0  0  0  0
  142.1078   76.8309  221.7438 H   0  0  0  0  0  0  0  0  0  0  0  0
  143.4764   79.2180  221.6629 H   0  0  0  0  0  0  0  0  0  0  0  0
  143.4982   81.1666  223.2002 H   0  0  0  0  0  0  0  0  0  0  0  0
  141.4767   81.7272  224.5308 H   0  0  0  0  0  0  0  0  0  0  0  0
  139.4313   78.4663  222.8438 H   0  0  0  0  0  0  0  0  0  0  0  0
  139.2212   70.0980  222.4272 H   0  0  0  0  0  0  0  0  0  0  0  0
  138.8710   68.5228  224.3007 H   0  0  0  0  0  0  0  0  0  0  0  0
  139.1711   68.0082  226.6304 H   0  0  0  0  0  0  0  0  0  0  0  0
  141.2238   70.8216  229.1759 H   0  0  0  0  0  0  0  0  0  0  0  0
  141.5546   72.3851  227.2423 H   0  0  0  0  0  0  0  0  0  0  0  0
  1  2  2  0
  2  3  1  0
  3  4  1  0
  4  5  1  0
  5  6  2  0
  5  7  1  0
  7  8  1  0
  8  9  1  0
  9 10  1  0
 10 11  1  0
 11 12  1  0
 12 13  2  0
 13 14  1  0
 14 15  2  0
 15 16  1  0
 16 17  2  0
  2 18  1  0
 18 19  2  0
 19 20  1  0
 20 21  2  0
 21 22  1  0
 22 23  2  0
 23 24  1  0
 23 25  1  0
 25 26  2  0
 26 27  1  0
 27 28  2  0
 11  7  1  0
 17 12  1  0
 28 18  1  0
 27 21  1  0
  3 29  1  0
  4 30  1  0
  4 31  1  0
  8 32  1  0
  8 33  1  0
  9 34  1  0
  9 35  1  0
 10 36  1  0
 10 37  1  0
 11 38  1  1
 13 39  1  0
 14 40  1  0
 15 41  1  0
 17 42  1  0
 19 43  1  0
 20 44  1  0
 22 45  1  0
 25 46  1  0
 26 47  1  0
M  END
>  <smiles>  (68) 
O=C(NCC(=O)N1CCCC1c1cccnc1)c1ccc2cc(F)ccc2n1

>  <score_type>  (68) 
oracle

>  <origin>  (68) 
autodockgpu

>  <m_score__min__energy>  (68) 
-8.9800000000000004

>  <m_primary>  (68) 
energy

>  <rmsd>  (68) 
1.9324280935301217

>  <m_score__min__rmsd>  (68) 
1.9324280935301217

>  <meeko>  (68) 
{"free_energy": -8.44, "intermolecular_energy": -9.93, "internal_energy": -1.35, "cluster_size": 26, "cluster_id": 2, "rank_in_cluster": 18}

>  <energy>  (68) 
-7.41

>  <cluster_rmsd>  (68) 
1.97

>  <cluster>  (68) 
1

$$$$

     RDKit          3D

 47 50  0  0  0  0  0  0  0  0999 V2000
  141.1350   71.8130  221.3660 O   0  0  0  0  0  0  0  0  0  0  0  0
  140.3820   72.2280  222.3130 C   0  0  0  0  0  0  0  0  0  0  0  0
  139.7280   73.4830  222.1930 N   0  0  0  0  0  0  0  0  0  0  0  0
  139.9390   74.2480  220.9960 C   0  0  0  0  0  0  0  0  0  0  0  0
  141.0140   75.2370  221.1200 C   0  0  0  0  0  0  0  0  0  0  0  0
  141.0680   75.9210  222.1870 O   0  0  0  0  0  0  0  0  0  0  0  0
  142.0050   75.5020  220.1490 N   0  0  0  0  0  0  0  0  0  0  0  0
  142.7140   76.7450  219.9330 C   0  0  0  0  0  0  0  0  0  0  0  0
  143.2280   76.7420  218.5210 C   0  0  0  0  0  0  0  0  0  0  0  0
  142.5940   75.5190  217.9060 C   0  0  0  0  0  0  0  0  0  0  0  0
  142.5590   74.6090  219.1190 C   0  0  1  0  0  0  0  0  0  0  0  0
  143.8460   74.0490  219.4820 C   0  0  0  0  0  0  0  0  0  0  0  0
  144.2240   74.0010  220.8300 C   0  0  0  0  0  0  0  0  0  0  0  0
  145.4510   73.4640  221.2100 C   0  0  0  0  0  0  0  0  0  0  0  0
  146.3130   72.9690  220.2590 C   0  0  0  0  0  0  0  0  0  0  0  0
  145.9550   73.0140  218.9840 N   0  0  0  0  0  0  0  0  0  0  0  0
  144.7810   73.5270  218.6000 C   0  0  0  0  0  0  0  0  0  0  0  0
  140.2000   71.4090  223.5120 C   0  0  0  0  0  0  0  0  0  0  0  0
  139.5600   70.1890  223.4040 C   0  0  0  0  0  0  0  0  0  0  0  0
  139.3710   69.3950  224.5000 C   0  0  0  0  0  0  0  0  0  0  0  0
  139.8410   69.8500  225.7310 C   0  0  0  0  0  0  0  0  0  0  0  0
  139.6620   69.0730  226.8420 C   0  0  0  0  0  0  0  0  0  0  0  0
  140.1360   69.5440  228.0420 C   0  0  0  0  0  0  0  0  0  0  0  0
  139.9890   68.8220  229.1730 F   0  0  0  0  0  0  0  0  0  0  0  0
  140.7810   70.7820  228.1280 C   0  0  0  0  0  0  0  0  0  0  0  0
  140.9620   71.5720  226.9990 C   0  0  0  0  0  0  0  0  0  0  0  0
  140.4770   71.0740  225.8080 C   0  0  0  0  0  0  0  0  0  0  0  0
  140.6580   71.8510  224.7120 N   0  0  0  0  0  0  0  0  0  0  0  0
  139.1150   73.8120  222.9740 H   0  0  0  0  0  0  0  0  0  0  0  0
  140.1942   73.5558  220.1801 H   0  0  0  0  0  0  0  0  0  0  0  0
  139.0096   74.8014  220.7958 H   0  0  0  0  0  0  0  0  0  0  0  0
  142.0320   77.5953  220.0810 H   0  0  0  0  0  0  0  0  0  0  0  0
  143.5473   76.8404  220.6447 H   0  0  0  0  0  0  0  0  0  0  0  0
  142.9167   77.6533  217.9894 H   0  0  0  0  0  0  0  0  0  0  0  0
  144.3266   76.7212  218.4698 H   0  0  0  0  0  0  0  0  0  0  0  0
  141.5844   75.7300  217.5236 H   0  0  0  0  0  0  0  0  0  0  0  0
  143.1229   75.1100  217.0325 H   0  0  0  0  0  0  0  0  0  0  0  0
  141.9657   73.6979  218.9517 H   0  0  0  0  0  0  0  0  0  0  0  0
  143.5420   74.3930  221.5989 H   0  0  0  0  0  0  0  0  0  0  0  0
  145.7319   73.4354  222.2732 H   0  0  0  0  0  0  0  0  0  0  0  0
  147.2837   72.5427  220.5523 H   0  0  0  0  0  0  0  0  0  0  0  0
  144.5438   73.5355  217.5259 H   0  0  0  0  0  0  0  0  0  0  0  0
  139.1974   69.8522  222.4216 H   0  0  0  0  0  0  0  0  0  0  0  0
  138.8621   68.4237  224.4133 H   0  0  0  0  0  0  0  0  0  0  0  0
  139.1535   68.0998  226.7766 H   0  0  0  0  0  0  0  0  0  0  0  0
  141.1500   71.1351  229.1023 H   0  0  0  0  0  0  0  0  0  0  0  0
  141.4677   72.5474  227.0528 H   0  0  0  0  0  0  0  0  0  0  0  0
  1  2  2  0
  2  3  1  0
  3  4  1  0
  4  5  1  0
  5  6  2  0
  5  7  1  0
  7  8  1  0
  8  9  1  0
  9 10  1  0
 10 11  1  0
 11 12  1  0
 12 13  2  0
 13 14  1  0
 14 15  2  0
 15 16  1  0
 16 17  2  0
  2 18  1  0
 18 19  2  0
 19 20  1  0
 20 21  2  0
 21 22  1  0
 22 23  2  0
 23 24  1  0
 23 25  1  0
 25 26  2  0
 26 27  1  0
 27 28  2  0
 11  7  1  0
 17 12  1  0
 28 18  1  0
 27 21  1  0
  3 29  1  0
  4 30  1  0
  4 31  1  0
  8 32  1  0
  8 33  1  0
  9 34  1  0
  9 35  1  0
 10 36  1  0
 10 37  1  0
 11 38  1  6
 13 39  1  0
 14 40  1  0
 15 41  1  0
 17 42  1  0
 19 43  1  0
 20 44  1  0
 22 45  1  0
 25 46  1  0
 26 47  1  0
M  END
>  <smiles>  (69) 
O=C(NCC(=O)N1CCCC1c1cccnc1)c1ccc2cc(F)ccc2n1

>  <score_type>  (69) 
oracle

>  <origin>  (69) 
autodockgpu

>  <m_score__min__energy>  (69) 
-8.9800000000000004

>  <m_primary>  (69) 
energy

>  <rmsd>  (69) 
2.3312253413209625

>  <m_score__min__rmsd>  (69) 
2.3312253413209625

>  <meeko>  (69) 
{"free_energy": -8.93, "intermolecular_energy": -10.42, "internal_energy": -1.45, "cluster_size": 19, "cluster_id": 1, "rank_in_cluster": 9}

>  <energy>  (69) 
-7.29

>  <cluster_rmsd>  (69) 
1.51

>  <cluster>  (69) 
1

$$$$

     RDKit          3D

 47 50  0  0  0  0  0  0  0  0999 V2000
  140.9260   71.8870  221.2530 O   0  0  0  0  0  0  0  0  0  0  0  0
  140.2940   72.3040  222.2820 C   0  0  0  0  0  0  0  0  0  0  0  0
  139.6990   73.5940  222.2680 N   0  0  0  0  0  0  0  0  0  0  0  0
  139.8320   74.3910  221.0800 C   0  0  0  0  0  0  0  0  0  0  0  0
  140.9780   75.3050  221.1170 C   0  0  0  0  0  0  0  0  0  0  0  0
  141.0720   76.0940  222.1050 O   0  0  0  0  0  0  0  0  0  0  0  0
  141.9960   75.3870  220.1420 N   0  0  0  0  0  0  0  0  0  0  0  0
  142.7360   76.5650  219.7420 C   0  0  0  0  0  0  0  0  0  0  0  0
  143.2830   76.3180  218.3640 C   0  0  0  0  0  0  0  0  0  0  0  0
  142.6370   75.0200  217.9440 C   0  0  0  0  0  0  0  0  0  0  0  0
  142.5550   74.3260  219.2900 C   0  0  1  0  0  0  0  0  0  0  0  0
  143.8210   73.8130  219.7750 C   0  0  0  0  0  0  0  0  0  0  0  0
  144.3610   72.6520  219.2070 C   0  0  0  0  0  0  0  0  0  0  0  0
  145.5780   72.1380  219.6470 C   0  0  0  0  0  0  0  0  0  0  0  0
  146.2710   72.7700  220.6530 C   0  0  0  0  0  0  0  0  0  0  0  0
  145.7600   73.8690  221.1910 N   0  0  0  0  0  0  0  0  0  0  0  0
  144.5920   74.3770  220.7810 C   0  0  0  0  0  0  0  0  0  0  0  0
  140.1880   71.4530  223.4680 C   0  0  0  0  0  0  0  0  0  0  0  0
  139.5970   70.2080  223.3530 C   0  0  0  0  0  0  0  0  0  0  0  0
  139.4790   69.3840  224.4360 C   0  0  0  0  0  0  0  0  0  0  0  0
  139.9710   69.8320  225.6610 C   0  0  0  0  0  0  0  0  0  0  0  0
  139.8630   69.0240  226.7590 C   0  0  0  0  0  0  0  0  0  0  0  0
  140.3570   69.4900  227.9530 C   0  0  0  0  0  0  0  0  0  0  0  0
  140.2790   68.7370  229.0710 F   0  0  0  0  0  0  0  0  0  0  0  0
  140.9500   70.7530  228.0470 C   0  0  0  0  0  0  0  0  0  0  0  0
  141.0600   71.5740  226.9310 C   0  0  0  0  0  0  0  0  0  0  0  0
  140.5560   71.0800  225.7450 C   0  0  0  0  0  0  0  0  0  0  0  0
  140.6670   71.8880  224.6620 N   0  0  0  0  0  0  0  0  0  0  0  0
  139.1850   73.9260  223.1170 H   0  0  0  0  0  0  0  0  0  0  0  0
  139.9516   73.7166  220.2193 H   0  0  0  0  0  0  0  0  0  0  0  0
  138.9258   75.0095  221.0009 H   0  0  0  0  0  0  0  0  0  0  0  0
  142.0687   77.4394  219.7285 H   0  0  0  0  0  0  0  0  0  0  0  0
  143.5539   76.7638  220.4502 H   0  0  0  0  0  0  0  0  0  0  0  0
  143.0039   77.1332  217.6803 H   0  0  0  0  0  0  0  0  0  0  0  0
  144.3818   76.2701  218.3462 H   0  0  0  0  0  0  0  0  0  0  0  0
  141.6412   75.1816  217.5056 H   0  0  0  0  0  0  0  0  0  0  0  0
  143.1768   74.4621  217.1647 H   0  0  0  0  0  0  0  0  0  0  0  0
  141.9470   73.4098  219.2608 H   0  0  0  0  0  0  0  0  0  0  0  0
  143.8155   72.1387  218.4014 H   0  0  0  0  0  0  0  0  0  0  0  0
  145.9859   71.2248  219.1892 H   0  0  0  0  0  0  0  0  0  0  0  0
  147.2333   72.3704  221.0055 H   0  0  0  0  0  0  0  0  0  0  0  0
  144.2230   75.2916  221.2682 H   0  0  0  0  0  0  0  0  0  0  0  0
  139.2166   69.8766  222.3755 H   0  0  0  0  0  0  0  0  0  0  0  0
  139.0086   68.3939  224.3441 H   0  0  0  0  0  0  0  0  0  0  0  0
  139.3948   68.0311  226.6882 H   0  0  0  0  0  0  0  0  0  0  0  0
  141.3345   71.1013  229.0170 H   0  0  0  0  0  0  0  0  0  0  0  0
  141.5259   72.5687  226.9901 H   0  0  0  0  0  0  0  0  0  0  0  0
  1  2  2  0
  2  3  1  0
  3  4  1  0
  4  5  1  0
  5  6  2  0
  5  7  1  0
  7  8  1  0
  8  9  1  0
  9 10  1  0
 10 11  1  0
 11 12  1  0
 12 13  2  0
 13 14  1  0
 14 15  2  0
 15 16  1  0
 16 17  2  0
  2 18  1  0
 18 19  2  0
 19 20  1  0
 20 21  2  0
 21 22  1  0
 22 23  2  0
 23 24  1  0
 23 25  1  0
 25 26  2  0
 26 27  1  0
 27 28  2  0
 11  7  1  0
 17 12  1  0
 28 18  1  0
 27 21  1  0
  3 29  1  0
  4 30  1  0
  4 31  1  0
  8 32  1  0
  8 33  1  0
  9 34  1  0
  9 35  1  0
 10 36  1  0
 10 37  1  0
 11 38  1  6
 13 39  1  0
 14 40  1  0
 15 41  1  0
 17 42  1  0
 19 43  1  0
 20 44  1  0
 22 45  1  0
 25 46  1  0
 26 47  1  0
M  END
>  <smiles>  (70) 
O=C(NCC(=O)N1CCCC1c1cccnc1)c1ccc2cc(F)ccc2n1

>  <score_type>  (70) 
oracle

>  <origin>  (70) 
autodockgpu

>  <m_score__min__energy>  (70) 
-8.9800000000000004

>  <m_primary>  (70) 
energy

>  <rmsd>  (70) 
2.346285814774354

>  <m_score__min__rmsd>  (70) 
2.346285814774354

>  <meeko>  (70) 
{"free_energy": -8.12, "intermolecular_energy": -9.62, "internal_energy": -1.35, "cluster_size": 19, "cluster_id": 1, "rank_in_cluster": 16}

>  <energy>  (70) 
-8.68

>  <cluster_rmsd>  (70) 
0.0

>  <cluster>  (70) 
2

$$$$

     RDKit          3D

 47 50  0  0  0  0  0  0  0  0999 V2000
  140.6480   71.3890  221.1850 O   0  0  0  0  0  0  0  0  0  0  0  0
  140.2150   71.9330  222.2580 C   0  0  0  0  0  0  0  0  0  0  0  0
  139.8670   73.3090  222.2580 N   0  0  0  0  0  0  0  0  0  0  0  0
  140.0150   74.0480  221.0340 C   0  0  0  0  0  0  0  0  0  0  0  0
  140.9660   75.1580  221.1360 C   0  0  0  0  0  0  0  0  0  0  0  0
  140.8910   75.9090  222.1550 O   0  0  0  0  0  0  0  0  0  0  0  0
  141.9680   75.4730  220.1920 N   0  0  0  0  0  0  0  0  0  0  0  0
  142.6680   76.7300  220.0390 C   0  0  0  0  0  0  0  0  0  0  0  0
  143.2040   76.7900  218.6360 C   0  0  0  0  0  0  0  0  0  0  0  0
  142.5910   75.5880  217.9610 C   0  0  0  0  0  0  0  0  0  0  0  0
  142.5470   74.6280  219.1350 C   0  0  1  0  0  0  0  0  0  0  0  0
  143.8340   74.0660  219.4940 C   0  0  0  0  0  0  0  0  0  0  0  0
  144.2050   73.9930  220.8430 C   0  0  0  0  0  0  0  0  0  0  0  0
  145.4310   73.4520  221.2200 C   0  0  0  0  0  0  0  0  0  0  0  0
  146.3010   72.9790  220.2650 C   0  0  0  0  0  0  0  0  0  0  0  0
  145.9500   73.0490  218.9880 N   0  0  0  0  0  0  0  0  0  0  0  0
  144.7760   73.5650  218.6080 C   0  0  0  0  0  0  0  0  0  0  0  0
  140.0830   71.1360  223.4780 C   0  0  0  0  0  0  0  0  0  0  0  0
  139.4860   69.8910  223.4090 C   0  0  0  0  0  0  0  0  0  0  0  0
  139.3440   69.1170  224.5250 C   0  0  0  0  0  0  0  0  0  0  0  0
  139.8180   69.6160  225.7370 C   0  0  0  0  0  0  0  0  0  0  0  0
  139.6860   68.8590  226.8680 C   0  0  0  0  0  0  0  0  0  0  0  0
  140.1630   69.3740  228.0490 C   0  0  0  0  0  0  0  0  0  0  0  0
  140.0610   68.6730  229.1980 F   0  0  0  0  0  0  0  0  0  0  0  0
  140.7640   70.6360  228.0960 C   0  0  0  0  0  0  0  0  0  0  0  0
  140.8980   71.4060  226.9470 C   0  0  0  0  0  0  0  0  0  0  0  0
  140.4110   70.8630  225.7750 C   0  0  0  0  0  0  0  0  0  0  0  0
  140.5450   71.6210  224.6590 N   0  0  0  0  0  0  0  0  0  0  0  0
  139.5150   73.7440  223.1410 H   0  0  0  0  0  0  0  0  0  0  0  0
  140.3655   73.3594  220.2511 H   0  0  0  0  0  0  0  0  0  0  0  0
  139.0329   74.4825  220.7962 H   0  0  0  0  0  0  0  0  0  0  0  0
  141.9756   77.5672  220.2111 H   0  0  0  0  0  0  0  0  0  0  0  0
  143.4891   76.8035  220.7673 H   0  0  0  0  0  0  0  0  0  0  0  0
  142.8925   77.7198  218.1376 H   0  0  0  0  0  0  0  0  0  0  0  0
  144.3034   76.7809  218.6014 H   0  0  0  0  0  0  0  0  0  0  0  0
  141.5852   75.8056  217.5724 H   0  0  0  0  0  0  0  0  0  0  0  0
  143.1366   75.2205  217.0793 H   0  0  0  0  0  0  0  0  0  0  0  0
  141.9658   73.7187  218.9219 H   0  0  0  0  0  0  0  0  0  0  0  0
  143.5177   74.3685  221.6154 H   0  0  0  0  0  0  0  0  0  0  0  0
  145.7048   73.4026  222.2842 H   0  0  0  0  0  0  0  0  0  0  0  0
  147.2713   72.5500  220.5557 H   0  0  0  0  0  0  0  0  0  0  0  0
  144.5448   73.5936  217.5330 H   0  0  0  0  0  0  0  0  0  0  0  0
  139.1200   69.5184  222.4409 H   0  0  0  0  0  0  0  0  0  0  0  0
  138.8685   68.1267  224.4690 H   0  0  0  0  0  0  0  0  0  0  0  0
  139.2119   67.8670  226.8333 H   0  0  0  0  0  0  0  0  0  0  0  0
  141.1357   71.0244  229.0557 H   0  0  0  0  0  0  0  0  0  0  0  0
  141.3691   72.3997  226.9703 H   0  0  0  0  0  0  0  0  0  0  0  0
  1  2  2  0
  2  3  1  0
  3  4  1  0
  4  5  1  0
  5  6  2  0
  5  7  1  0
  7  8  1  0
  8  9  1  0
  9 10  1  0
 10 11  1  0
 11 12  1  0
 12 13  2  0
 13 14  1  0
 14 15  2  0
 15 16  1  0
 16 17  2  0
  2 18  1  0
 18 19  2  0
 19 20  1  0
 20 21  2  0
 21 22  1  0
 22 23  2  0
 23 24  1  0
 23 25  1  0
 25 26  2  0
 26 27  1  0
 27 28  2  0
 11  7  1  0
 17 12  1  0
 28 18  1  0
 27 21  1  0
  3 29  1  0
  4 30  1  0
  4 31  1  0
  8 32  1  0
  8 33  1  0
  9 34  1  0
  9 35  1  0
 10 36  1  0
 10 37  1  0
 11 38  1  6
 13 39  1  0
 14 40  1  0
 15 41  1  0
 17 42  1  0
 19 43  1  0
 20 44  1  0
 22 45  1  0
 25 46  1  0
 26 47  1  0
M  END
>  <smiles>  (71) 
O=C(NCC(=O)N1CCCC1c1cccnc1)c1ccc2cc(F)ccc2n1

>  <score_type>  (71) 
oracle

>  <origin>  (71) 
autodockgpu

>  <m_score__min__energy>  (71) 
-8.9800000000000004

>  <m_primary>  (71) 
energy

>  <rmsd>  (71) 
2.275819841103139

>  <m_score__min__rmsd>  (71) 
2.275819841103139

>  <meeko>  (71) 
{"free_energy": -8.77, "intermolecular_energy": -10.26, "internal_energy": -1.47, "cluster_size": 19, "cluster_id": 1, "rank_in_cluster": 12}

>  <energy>  (71) 
-8.68

>  <cluster_rmsd>  (71) 
0.04

>  <cluster>  (71) 
2

$$$$

     RDKit          3D

 47 50  0  0  0  0  0  0  0  0999 V2000
  141.3750   72.5500  221.9260 O   0  0  0  0  0  0  0  0  0  0  0  0
  140.3090   72.5100  222.6300 C   0  0  0  0  0  0  0  0  0  0  0  0
  139.2480   73.4120  222.3520 N   0  0  0  0  0  0  0  0  0  0  0  0
  139.4150   74.3470  221.2750 C   0  0  0  0  0  0  0  0  0  0  0  0
  140.2230   75.5150  221.6390 C   0  0  0  0  0  0  0  0  0  0  0  0
  141.4490   75.3270  221.9040 O   0  0  0  0  0  0  0  0  0  0  0  0
  139.7550   76.8450  221.7250 N   0  0  0  0  0  0  0  0  0  0  0  0
  138.5850   77.3220  222.4310 C   0  0  0  0  0  0  0  0  0  0  0  0
  138.1800   78.6320  221.8170 C   0  0  0  0  0  0  0  0  0  0  0  0
  139.0680   78.7560  220.6030 C   0  0  0  0  0  0  0  0  0  0  0  0
  140.3150   78.0680  221.1260 C   0  0  1  0  0  0  0  0  0  0  0  0
  141.0860   78.8600  222.0640 C   0  0  0  0  0  0  0  0  0  0  0  0
  141.5410   80.1300  221.6870 C   0  0  0  0  0  0  0  0  0  0  0  0
  142.2780   80.9170  222.5680 C   0  0  0  0  0  0  0  0  0  0  0  0
  142.5700   80.4540  223.8300 C   0  0  0  0  0  0  0  0  0  0  0  0
  142.1390   79.2520  224.1870 N   0  0  0  0  0  0  0  0  0  0  0  0
  141.4300   78.4820  223.3540 C   0  0  0  0  0  0  0  0  0  0  0  0
  140.1880   71.5360  223.7160 C   0  0  0  0  0  0  0  0  0  0  0  0
  139.5710   70.3240  223.4700 C   0  0  0  0  0  0  0  0  0  0  0  0
  139.4390   69.3900  224.4570 C   0  0  0  0  0  0  0  0  0  0  0  0
  139.9440   69.6910  225.7210 C   0  0  0  0  0  0  0  0  0  0  0  0
  139.8230   68.7710  226.7260 C   0  0  0  0  0  0  0  0  0  0  0  0
  140.3300   69.0930  227.9600 C   0  0  0  0  0  0  0  0  0  0  0  0
  140.2410   68.2260  228.9910 F   0  0  0  0  0  0  0  0  0  0  0  0
  140.9510   70.3260  228.1880 C   0  0  0  0  0  0  0  0  0  0  0  0
  141.0740   71.2620  227.1670 C   0  0  0  0  0  0  0  0  0  0  0  0
  140.5560   70.9110  225.9370 C   0  0  0  0  0  0  0  0  0  0  0  0
  140.6810   71.8290  224.9480 N   0  0  0  0  0  0  0  0  0  0  0  0
  138.3800   73.3700  222.9350 H   0  0  0  0  0  0  0  0  0  0  0  0
  139.9064   73.8302  220.4374 H   0  0  0  0  0  0  0  0  0  0  0  0
  138.4140   74.7152  221.0060 H   0  0  0  0  0  0  0  0  0  0  0  0
  137.7663   76.5939  222.3331 H   0  0  0  0  0  0  0  0  0  0  0  0
  138.8080   77.4517  223.5003 H   0  0  0  0  0  0  0  0  0  0  0  0
  137.1194   78.6160  221.5257 H   0  0  0  0  0  0  0  0  0  0  0  0
  138.2917   79.4777  222.5115 H   0  0  0  0  0  0  0  0  0  0  0  0
  138.6464   78.2326  219.7322 H   0  0  0  0  0  0  0  0  0  0  0  0
  139.2201   79.7832  220.2399 H   0  0  0  0  0  0  0  0  0  0  0  0
  141.0596   77.8801  220.3384 H   0  0  0  0  0  0  0  0  0  0  0  0
  141.3128   80.5110  220.6806 H   0  0  0  0  0  0  0  0  0  0  0  0
  142.6277   81.9116  222.2540 H   0  0  0  0  0  0  0  0  0  0  0  0
  143.1514   81.0707  224.5313 H   0  0  0  0  0  0  0  0  0  0  0  0
  141.1016   77.4949  223.7114 H   0  0  0  0  0  0  0  0  0  0  0  0
  139.1806   70.1088  222.4644 H   0  0  0  0  0  0  0  0  0  0  0  0
  138.9474   68.4259  224.2601 H   0  0  0  0  0  0  0  0  0  0  0  0
  139.3337   67.8016  226.5503 H   0  0  0  0  0  0  0  0  0  0  0  0
  141.3470   70.5578  229.1877 H   0  0  0  0  0  0  0  0  0  0  0  0
  141.5605   72.2347  227.3317 H   0  0  0  0  0  0  0  0  0  0  0  0
  1  2  2  0
  2  3  1  0
  3  4  1  0
  4  5  1  0
  5  6  2  0
  5  7  1  0
  7  8  1  0
  8  9  1  0
  9 10  1  0
 10 11  1  0
 11 12  1  0
 12 13  2  0
 13 14  1  0
 14 15  2  0
 15 16  1  0
 16 17  2  0
  2 18  1  0
 18 19  2  0
 19 20  1  0
 20 21  2  0
 21 22  1  0
 22 23  2  0
 23 24  1  0
 23 25  1  0
 25 26  2  0
 26 27  1  0
 27 28  2  0
 11  7  1  0
 17 12  1  0
 28 18  1  0
 27 21  1  0
  3 29  1  0
  4 30  1  0
  4 31  1  0
  8 32  1  0
  8 33  1  0
  9 34  1  0
  9 35  1  0
 10 36  1  0
 10 37  1  0
 11 38  1  6
 13 39  1  0
 14 40  1  0
 15 41  1  0
 17 42  1  0
 19 43  1  0
 20 44  1  0
 22 45  1  0
 25 46  1  0
 26 47  1  0
M  END
>  <smiles>  (72) 
O=C(NCC(=O)N1CCCC1c1cccnc1)c1ccc2cc(F)ccc2n1

>  <score_type>  (72) 
oracle

>  <origin>  (72) 
autodockgpu

>  <m_score__min__energy>  (72) 
-8.9800000000000004

>  <m_primary>  (72) 
energy

>  <rmsd>  (72) 
2.4804083386326004

>  <m_score__min__rmsd>  (72) 
2.4804083386326004

>  <meeko>  (72) 
{"free_energy": -8.68, "intermolecular_energy": -10.17, "internal_energy": -1.04, "cluster_size": 26, "cluster_id": 2, "rank_in_cluster": 2}

>  <energy>  (72) 
-8.65

>  <cluster_rmsd>  (72) 
0.1

>  <cluster>  (72) 
2

$$$$

     RDKit          3D

 47 50  0  0  0  0  0  0  0  0999 V2000
  141.1580   73.9150  220.1330 O   0  0  0  0  0  0  0  0  0  0  0  0
  140.7090   74.6000  221.1150 C   0  0  0  0  0  0  0  0  0  0  0  0
  139.8820   73.9780  222.0870 N   0  0  0  0  0  0  0  0  0  0  0  0
  139.5780   72.5820  221.9290 C   0  0  0  0  0  0  0  0  0  0  0  0
  139.8300   71.7910  223.1370 C   0  0  0  0  0  0  0  0  0  0  0  0
  140.6560   72.2510  223.9820 O   0  0  0  0  0  0  0  0  0  0  0  0
  139.2320   70.5510  223.4480 N   0  0  0  0  0  0  0  0  0  0  0  0
  139.2230   69.3510  222.6380 C   0  0  0  0  0  0  0  0  0  0  0  0
  138.0600   68.5080  223.0770 C   0  0  0  0  0  0  0  0  0  0  0  0
  137.3070   69.3970  224.0370 C   0  0  0  0  0  0  0  0  0  0  0  0
  138.4690   70.1600  224.6440 C   0  0  1  0  0  0  0  0  0  0  0  0
  139.2520   69.3970  225.5960 C   0  0  0  0  0  0  0  0  0  0  0  0
  140.2820   70.0260  226.3070 C   0  0  0  0  0  0  0  0  0  0  0  0
  141.0480   69.3220  227.2320 C   0  0  0  0  0  0  0  0  0  0  0  0
  140.7990   67.9880  227.4610 C   0  0  0  0  0  0  0  0  0  0  0  0
  139.8250   67.3920  226.7880 N   0  0  0  0  0  0  0  0  0  0  0  0
  139.0790   68.0540  225.8950 C   0  0  0  0  0  0  0  0  0  0  0  0
  141.0490   76.0190  221.2310 C   0  0  0  0  0  0  0  0  0  0  0  0
  141.5060   76.6960  220.1160 C   0  0  0  0  0  0  0  0  0  0  0  0
  141.8340   78.0200  220.1830 C   0  0  0  0  0  0  0  0  0  0  0  0
  141.6940   78.6720  221.4070 C   0  0  0  0  0  0  0  0  0  0  0  0
  142.0160   79.9970  221.4990 C   0  0  0  0  0  0  0  0  0  0  0  0
  141.8670   80.6150  222.7170 C   0  0  0  0  0  0  0  0  0  0  0  0
  142.1690   81.9220  222.8680 F   0  0  0  0  0  0  0  0  0  0  0  0
  141.4020   79.9110  223.8320 C   0  0  0  0  0  0  0  0  0  0  0  0
  141.0750   78.5630  223.7390 C   0  0  0  0  0  0  0  0  0  0  0  0
  141.2330   77.9690  222.5040 C   0  0  0  0  0  0  0  0  0  0  0  0
  140.9120   76.6550  222.4230 N   0  0  0  0  0  0  0  0  0  0  0  0
  139.5200   74.5480  222.8860 H   0  0  0  0  0  0  0  0  0  0  0  0
  138.5149   72.4845  221.6639 H   0  0  0  0  0  0  0  0  0  0  0  0
  140.2403   72.1925  221.1418 H   0  0  0  0  0  0  0  0  0  0  0  0
  139.1124   69.6172  221.5764 H   0  0  0  0  0  0  0  0  0  0  0  0
  140.1659   68.7979  222.7610 H   0  0  0  0  0  0  0  0  0  0  0  0
  137.4283   68.2357  222.2186 H   0  0  0  0  0  0  0  0  0  0  0  0
  138.3741   67.5590  223.5361 H   0  0  0  0  0  0  0  0  0  0  0  0
  136.6073   70.0651  223.5134 H   0  0  0  0  0  0  0  0  0  0  0  0
  136.6686   68.8676  224.7596 H   0  0  0  0  0  0  0  0  0  0  0  0
  138.1436   71.0093  225.2626 H   0  0  0  0  0  0  0  0  0  0  0  0
  140.4887   71.0921  226.1319 H   0  0  0  0  0  0  0  0  0  0  0  0
  141.8533   69.8326  227.7805 H   0  0  0  0  0  0  0  0  0  0  0  0
  141.3990   67.4251  228.1912 H   0  0  0  0  0  0  0  0  0  0  0  0
  138.2854   67.5025  225.3697 H   0  0  0  0  0  0  0  0  0  0  0  0
  141.6070   76.1604  219.1605 H   0  0  0  0  0  0  0  0  0  0  0  0
  142.1988   78.5573  219.2952 H   0  0  0  0  0  0  0  0  0  0  0  0
  142.3837   80.5524  220.6236 H   0  0  0  0  0  0  0  0  0  0  0  0
  141.2935   80.4306  224.7954 H   0  0  0  0  0  0  0  0  0  0  0  0
  140.7080   77.9974  224.6082 H   0  0  0  0  0  0  0  0  0  0  0  0
  1  2  2  0
  2  3  1  0
  3  4  1  0
  4  5  1  0
  5  6  2  0
  5  7  1  0
  7  8  1  0
  8  9  1  0
  9 10  1  0
 10 11  1  0
 11 12  1  0
 12 13  2  0
 13 14  1  0
 14 15  2  0
 15 16  1  0
 16 17  2  0
  2 18  1  0
 18 19  2  0
 19 20  1  0
 20 21  2  0
 21 22  1  0
 22 23  2  0
 23 24  1  0
 23 25  1  0
 25 26  2  0
 26 27  1  0
 27 28  2  0
 11  7  1  0
 17 12  1  0
 28 18  1  0
 27 21  1  0
  3 29  1  0
  4 30  1  0
  4 31  1  0
  8 32  1  0
  8 33  1  0
  9 34  1  0
  9 35  1  0
 10 36  1  0
 10 37  1  0
 11 38  1  1
 13 39  1  0
 14 40  1  0
 15 41  1  0
 17 42  1  0
 19 43  1  0
 20 44  1  0
 22 45  1  0
 25 46  1  0
 26 47  1  0
M  END
>  <smiles>  (73) 
O=C(NCC(=O)N1CCCC1c1cccnc1)c1ccc2cc(F)ccc2n1

>  <score_type>  (73) 
oracle

>  <origin>  (73) 
autodockgpu

>  <m_score__min__energy>  (73) 
-8.9800000000000004

>  <m_primary>  (73) 
energy

>  <rmsd>  (73) 
8.608426156403585

>  <m_score__min__rmsd>  (73) 
8.608426156403585

>  <meeko>  (73) 
{"free_energy": -7.81, "intermolecular_energy": -9.3, "internal_energy": -1.29, "cluster_size": 3, "cluster_id": 4, "rank_in_cluster": 3}

>  <energy>  (73) 
-8.64

>  <cluster_rmsd>  (73) 
0.33

>  <cluster>  (73) 
2

$$$$

     RDKit          3D

 47 50  0  0  0  0  0  0  0  0999 V2000
  141.2810   72.1940  221.4570 O   0  0  0  0  0  0  0  0  0  0  0  0
  140.4630   72.5100  222.3880 C   0  0  0  0  0  0  0  0  0  0  0  0
  139.7650   73.7460  222.3220 N   0  0  0  0  0  0  0  0  0  0  0  0
  140.0070   74.6040  221.1960 C   0  0  0  0  0  0  0  0  0  0  0  0
  139.5330   75.9770  221.3980 C   0  0  0  0  0  0  0  0  0  0  0  0
  138.5230   76.1480  222.1450 O   0  0  0  0  0  0  0  0  0  0  0  0
  140.1040   77.1370  220.8310 N   0  0  0  0  0  0  0  0  0  0  0  0
  139.4350   78.1520  220.0460 C   0  0  0  0  0  0  0  0  0  0  0  0
  140.4760   78.8570  219.2220 C   0  0  0  0  0  0  0  0  0  0  0  0
  141.7280   78.0430  219.4440 C   0  0  0  0  0  0  0  0  0  0  0  0
  141.4990   77.6050  220.8780 C   0  0  1  0  0  0  0  0  0  0  0  0
  141.7170   78.6470  221.8630 C   0  0  0  0  0  0  0  0  0  0  0  0
  141.4530   78.3880  223.2140 C   0  0  0  0  0  0  0  0  0  0  0  0
  141.6580   79.3660  224.1830 C   0  0  0  0  0  0  0  0  0  0  0  0
  142.1270   80.6080  223.8230 C   0  0  0  0  0  0  0  0  0  0  0  0
  142.3770   80.8530  222.5440 N   0  0  0  0  0  0  0  0  0  0  0  0
  142.1850   79.9260  221.5990 C   0  0  0  0  0  0  0  0  0  0  0  0
  140.2520   71.6000  223.5140 C   0  0  0  0  0  0  0  0  0  0  0  0
  139.5990   70.4010  223.2980 C   0  0  0  0  0  0  0  0  0  0  0  0
  139.3820   69.5240  224.3220 C   0  0  0  0  0  0  0  0  0  0  0  0
  139.8390   69.8700  225.5930 C   0  0  0  0  0  0  0  0  0  0  0  0
  139.6330   69.0080  226.6350 C   0  0  0  0  0  0  0  0  0  0  0  0
  140.0940   69.3750  227.8760 C   0  0  0  0  0  0  0  0  0  0  0  0
  139.9200   68.5650  228.9420 F   0  0  0  0  0  0  0  0  0  0  0  0
  140.7520   70.5930  228.0720 C   0  0  0  0  0  0  0  0  0  0  0  0
  140.9610   71.4690  227.0130 C   0  0  0  0  0  0  0  0  0  0  0  0
  140.4880   71.0760  225.7780 C   0  0  0  0  0  0  0  0  0  0  0  0
  140.6960   71.9360  224.7520 N   0  0  0  0  0  0  0  0  0  0  0  0
  139.0990   73.9940  223.0900 H   0  0  0  0  0  0  0  0  0  0  0  0
  141.0901   74.6333  221.0063 H   0  0  0  0  0  0  0  0  0  0  0  0
  139.4472   74.1889  220.3450 H   0  0  0  0  0  0  0  0  0  0  0  0
  138.6897   77.6838  219.3862 H   0  0  0  0  0  0  0  0  0  0  0  0
  138.9171   78.8661  220.7031 H   0  0  0  0  0  0  0  0  0  0  0  0
  140.1958   78.8617  218.1583 H   0  0  0  0  0  0  0  0  0  0  0  0
  140.5999   79.9120  219.5077 H   0  0  0  0  0  0  0  0  0  0  0  0
  141.7852   77.1849  218.7582 H   0  0  0  0  0  0  0  0  0  0  0  0
  142.6708   78.5810  219.2664 H   0  0  0  0  0  0  0  0  0  0  0  0
  142.2165   76.8398  221.2091 H   0  0  0  0  0  0  0  0  0  0  0  0
  141.0785   77.3980  223.5134 H   0  0  0  0  0  0  0  0  0  0  0  0
  141.4444   79.1451  225.2392 H   0  0  0  0  0  0  0  0  0  0  0  0
  142.2920   81.3853  224.5837 H   0  0  0  0  0  0  0  0  0  0  0  0
  142.4104   80.1923  220.5558 H   0  0  0  0  0  0  0  0  0  0  0  0
  139.2489   70.1495  222.2860 H   0  0  0  0  0  0  0  0  0  0  0  0
  138.8610   68.5708  224.1489 H   0  0  0  0  0  0  0  0  0  0  0  0
  139.1139   68.0500  226.4838 H   0  0  0  0  0  0  0  0  0  0  0  0
  141.1089   70.8616  229.0772 H   0  0  0  0  0  0  0  0  0  0  0  0
  141.4787   72.4294  227.1530 H   0  0  0  0  0  0  0  0  0  0  0  0
  1  2  2  0
  2  3  1  0
  3  4  1  0
  4  5  1  0
  5  6  2  0
  5  7  1  0
  7  8  1  0
  8  9  1  0
  9 10  1  0
 10 11  1  0
 11 12  1  0
 12 13  2  0
 13 14  1  0
 14 15  2  0
 15 16  1  0
 16 17  2  0
  2 18  1  0
 18 19  2  0
 19 20  1  0
 20 21  2  0
 21 22  1  0
 22 23  2  0
 23 24  1  0
 23 25  1  0
 25 26  2  0
 26 27  1  0
 27 28  2  0
 11  7  1  0
 17 12  1  0
 28 18  1  0
 27 21  1  0
  3 29  1  0
  4 30  1  0
  4 31  1  0
  8 32  1  0
  8 33  1  0
  9 34  1  0
  9 35  1  0
 10 36  1  0
 10 37  1  0
 11 38  1  1
 13 39  1  0
 14 40  1  0
 15 41  1  0
 17 42  1  0
 19 43  1  0
 20 44  1  0
 22 45  1  0
 25 46  1  0
 26 47  1  0
M  END
>  <smiles>  (74) 
O=C(NCC(=O)N1CCCC1c1cccnc1)c1ccc2cc(F)ccc2n1

>  <score_type>  (74) 
oracle

>  <origin>  (74) 
autodockgpu

>  <m_score__min__energy>  (74) 
-8.9800000000000004

>  <m_primary>  (74) 
energy

>  <rmsd>  (74) 
1.9837416433745674

>  <m_score__min__rmsd>  (74) 
1.9837416433745674

>  <meeko>  (74) 
{"free_energy": -8.38, "intermolecular_energy": -9.87, "internal_energy": -1.4, "cluster_size": 26, "cluster_id": 2, "rank_in_cluster": 20}

>  <energy>  (74) 
-8.63

>  <cluster_rmsd>  (74) 
0.51

>  <cluster>  (74) 
2

$$$$

     RDKit          3D

 47 50  0  0  0  0  0  0  0  0999 V2000
  138.5650   71.2270  221.7490 O   0  0  0  0  0  0  0  0  0  0  0  0
  139.4630   71.5140  222.6130 C   0  0  0  0  0  0  0  0  0  0  0  0
  140.3070   72.6360  222.4050 N   0  0  0  0  0  0  0  0  0  0  0  0
  140.1170   73.4180  221.2140 C   0  0  0  0  0  0  0  0  0  0  0  0
  140.8700   74.6760  221.2180 C   0  0  0  0  0  0  0  0  0  0  0  0
  140.6590   75.4880  222.1690 O   0  0  0  0  0  0  0  0  0  0  0  0
  141.8190   75.0700  220.2490 N   0  0  0  0  0  0  0  0  0  0  0  0
  142.4040   76.3820  220.0750 C   0  0  0  0  0  0  0  0  0  0  0  0
  142.8980   76.4810  218.6590 C   0  0  0  0  0  0  0  0  0  0  0  0
  142.3740   75.2280  218.0030 C   0  0  0  0  0  0  0  0  0  0  0  0
  142.4420   74.2730  219.1800 C   0  0  1  0  0  0  0  0  0  0  0  0
  143.7810   73.8260  219.5100 C   0  0  0  0  0  0  0  0  0  0  0  0
  144.1930   73.8010  220.8480 C   0  0  0  0  0  0  0  0  0  0  0  0
  145.4700   73.3710  221.1970 C   0  0  0  0  0  0  0  0  0  0  0  0
  146.3500   72.9600  220.2220 C   0  0  0  0  0  0  0  0  0  0  0  0
  145.9600   72.9830  218.9550 N   0  0  0  0  0  0  0  0  0  0  0  0
  144.7370   73.3940  218.6020 C   0  0  0  0  0  0  0  0  0  0  0  0
  139.6140   70.6850  223.8100 C   0  0  0  0  0  0  0  0  0  0  0  0
  139.1250   69.3920  223.8010 C   0  0  0  0  0  0  0  0  0  0  0  0
  139.2470   68.5870  224.8970 C   0  0  0  0  0  0  0  0  0  0  0  0
  139.8790   69.1040  226.0270 C   0  0  0  0  0  0  0  0  0  0  0  0
  140.0130   68.3170  227.1370 C   0  0  0  0  0  0  0  0  0  0  0  0
  140.6400   68.8520  228.2360 C   0  0  0  0  0  0  0  0  0  0  0  0
  140.8020   68.1230  229.3600 F   0  0  0  0  0  0  0  0  0  0  0  0
  141.1280   70.1630  228.2230 C   0  0  0  0  0  0  0  0  0  0  0  0
  140.9920   70.9630  227.0950 C   0  0  0  0  0  0  0  0  0  0  0  0
  140.3580   70.4000  226.0060 C   0  0  0  0  0  0  0  0  0  0  0  0
  140.2310   71.1880  224.9100 N   0  0  0  0  0  0  0  0  0  0  0  0
  141.0380   72.8610  223.1180 H   0  0  0  0  0  0  0  0  0  0  0  0
  140.4407   72.8205  220.3490 H   0  0  0  0  0  0  0  0  0  0  0  0
  139.0495   73.6783  221.1629 H   0  0  0  0  0  0  0  0  0  0  0  0
  141.6464   77.1573  220.2620 H   0  0  0  0  0  0  0  0  0  0  0  0
  143.2334   76.5296  220.7823 H   0  0  0  0  0  0  0  0  0  0  0  0
  142.4957   77.3783  218.1661 H   0  0  0  0  0  0  0  0  0  0  0  0
  143.9929   76.5660  218.5969 H   0  0  0  0  0  0  0  0  0  0  0  0
  141.3438   75.3566  217.6395 H   0  0  0  0  0  0  0  0  0  0  0  0
  142.9270   74.9047  217.1088 H   0  0  0  0  0  0  0  0  0  0  0  0
  141.9367   73.3161  218.9823 H   0  0  0  0  0  0  0  0  0  0  0  0
  143.4969   74.1261  221.6353 H   0  0  0  0  0  0  0  0  0  0  0  0
  145.7762   73.3597  222.2535 H   0  0  0  0  0  0  0  0  0  0  0  0
  147.3607   72.6179  220.4895 H   0  0  0  0  0  0  0  0  0  0  0  0
  144.4749   73.3892  217.5337 H   0  0  0  0  0  0  0  0  0  0  0  0
  138.6303   69.0060  222.8975 H   0  0  0  0  0  0  0  0  0  0  0  0
  138.8572   67.5584  224.8887 H   0  0  0  0  0  0  0  0  0  0  0  0
  139.6301   67.2859  227.1496 H   0  0  0  0  0  0  0  0  0  0  0  0
  141.6259   70.5658  229.1174 H   0  0  0  0  0  0  0  0  0  0  0  0
  141.3714   71.9952  227.0711 H   0  0  0  0  0  0  0  0  0  0  0  0
  1  2  2  0
  2  3  1  0
  3  4  1  0
  4  5  1  0
  5  6  2  0
  5  7  1  0
  7  8  1  0
  8  9  1  0
  9 10  1  0
 10 11  1  0
 11 12  1  0
 12 13  2  0
 13 14  1  0
 14 15  2  0
 15 16  1  0
 16 17  2  0
  2 18  1  0
 18 19  2  0
 19 20  1  0
 20 21  2  0
 21 22  1  0
 22 23  2  0
 23 24  1  0
 23 25  1  0
 25 26  2  0
 26 27  1  0
 27 28  2  0
 11  7  1  0
 17 12  1  0
 28 18  1  0
 27 21  1  0
  3 29  1  0
  4 30  1  0
  4 31  1  0
  8 32  1  0
  8 33  1  0
  9 34  1  0
  9 35  1  0
 10 36  1  0
 10 37  1  0
 11 38  1  6
 13 39  1  0
 14 40  1  0
 15 41  1  0
 17 42  1  0
 19 43  1  0
 20 44  1  0
 22 45  1  0
 25 46  1  0
 26 47  1  0
M  END
>  <smiles>  (75) 
O=C(NCC(=O)N1CCCC1c1cccnc1)c1ccc2cc(F)ccc2n1

>  <score_type>  (75) 
oracle

>  <origin>  (75) 
autodockgpu

>  <m_score__min__energy>  (75) 
-8.9800000000000004

>  <m_primary>  (75) 
energy

>  <rmsd>  (75) 
2.2251205213836895

>  <m_score__min__rmsd>  (75) 
2.2251205213836895

>  <meeko>  (75) 
{"free_energy": -8.3, "intermolecular_energy": -9.79, "internal_energy": -1.41, "cluster_size": 19, "cluster_id": 1, "rank_in_cluster": 14}

>  <energy>  (75) 
-8.59

>  <cluster_rmsd>  (75) 
0.72

>  <cluster>  (75) 
2

$$$$

     RDKit          3D

 47 50  0  0  0  0  0  0  0  0999 V2000
  141.4740   72.1620  221.6610 O   0  0  0  0  0  0  0  0  0  0  0  0
  140.4730   72.3700  222.4280 C   0  0  0  0  0  0  0  0  0  0  0  0
  139.5730   73.4300  222.1400 N   0  0  0  0  0  0  0  0  0  0  0  0
  139.8240   74.2390  220.9790 C   0  0  0  0  0  0  0  0  0  0  0  0
  140.9650   75.1460  221.1380 C   0  0  0  0  0  0  0  0  0  0  0  0
  141.0950   75.7430  222.2490 O   0  0  0  0  0  0  0  0  0  0  0  0
  141.9420   75.4190  220.1550 N   0  0  0  0  0  0  0  0  0  0  0  0
  142.6220   76.6740  219.9170 C   0  0  0  0  0  0  0  0  0  0  0  0
  143.1250   76.6630  218.5010 C   0  0  0  0  0  0  0  0  0  0  0  0
  142.5130   75.4180  217.9070 C   0  0  0  0  0  0  0  0  0  0  0  0
  142.5080   74.5240  219.1330 C   0  0  1  0  0  0  0  0  0  0  0  0
  143.8100   73.9980  219.4940 C   0  0  0  0  0  0  0  0  0  0  0  0
  144.1960   73.9690  220.8390 C   0  0  0  0  0  0  0  0  0  0  0  0
  145.4370   73.4640  221.2180 C   0  0  0  0  0  0  0  0  0  0  0  0
  146.3060   72.9830  220.2660 C   0  0  0  0  0  0  0  0  0  0  0  0
  145.9410   73.0110  218.9920 N   0  0  0  0  0  0  0  0  0  0  0  0
  144.7530   73.4930  218.6100 C   0  0  0  0  0  0  0  0  0  0  0  0
  140.2610   71.5170  223.5990 C   0  0  0  0  0  0  0  0  0  0  0  0
  139.5910   70.3190  223.4470 C   0  0  0  0  0  0  0  0  0  0  0  0
  139.3730   69.4950  224.5140 C   0  0  0  0  0  0  0  0  0  0  0  0
  139.8470   69.8950  225.7620 C   0  0  0  0  0  0  0  0  0  0  0  0
  139.6410   69.0870  226.8460 C   0  0  0  0  0  0  0  0  0  0  0  0
  140.1200   69.5060  228.0630 C   0  0  0  0  0  0  0  0  0  0  0  0
  139.9470   68.7510  229.1690 F   0  0  0  0  0  0  0  0  0  0  0  0
  140.7960   70.7230  228.1950 C   0  0  0  0  0  0  0  0  0  0  0  0
  141.0050   71.5450  227.0930 C   0  0  0  0  0  0  0  0  0  0  0  0
  140.5150   71.0990  225.8830 C   0  0  0  0  0  0  0  0  0  0  0  0
  140.7230   71.9070  224.8150 N   0  0  0  0  0  0  0  0  0  0  0  0
  138.7580   73.5920  222.7760 H   0  0  0  0  0  0  0  0  0  0  0  0
  140.0238   73.5732  220.1264 H   0  0  0  0  0  0  0  0  0  0  0  0
  138.9325   74.8630  220.8186 H   0  0  0  0  0  0  0  0  0  0  0  0
  141.9228   77.5112  220.0592 H   0  0  0  0  0  0  0  0  0  0  0  0
  143.4584   76.7972  220.6208 H   0  0  0  0  0  0  0  0  0  0  0  0
  142.7899   77.5601  217.9598 H   0  0  0  0  0  0  0  0  0  0  0  0
  144.2234   76.6652  218.4414 H   0  0  0  0  0  0  0  0  0  0  0  0
  141.4960   75.6016  217.5302 H   0  0  0  0  0  0  0  0  0  0  0  0
  143.0435   75.0090  217.0345 H   0  0  0  0  0  0  0  0  0  0  0  0
  141.9344   73.5975  218.9826 H   0  0  0  0  0  0  0  0  0  0  0  0
  143.5087   74.3509  221.6082 H   0  0  0  0  0  0  0  0  0  0  0  0
  145.7230   73.4496  222.2801 H   0  0  0  0  0  0  0  0  0  0  0  0
  147.2879   72.5817  220.5574 H   0  0  0  0  0  0  0  0  0  0  0  0
  144.5105   73.4888  217.5371 H   0  0  0  0  0  0  0  0  0  0  0  0
  139.2275   70.0241  222.4516 H   0  0  0  0  0  0  0  0  0  0  0  0
  138.8379   68.5417  224.3917 H   0  0  0  0  0  0  0  0  0  0  0  0
  139.1076   68.1302  226.7461 H   0  0  0  0  0  0  0  0  0  0  0  0
  141.1670   71.0339  229.1828 H   0  0  0  0  0  0  0  0  0  0  0  0
  141.5355   72.5045  227.1818 H   0  0  0  0  0  0  0  0  0  0  0  0
  1  2  2  0
  2  3  1  0
  3  4  1  0
  4  5  1  0
  5  6  2  0
  5  7  1  0
  7  8  1  0
  8  9  1  0
  9 10  1  0
 10 11  1  0
 11 12  1  0
 12 13  2  0
 13 14  1  0
 14 15  2  0
 15 16  1  0
 16 17  2  0
  2 18  1  0
 18 19  2  0
 19 20  1  0
 20 21  2  0
 21 22  1  0
 22 23  2  0
 23 24  1  0
 23 25  1  0
 25 26  2  0
 26 27  1  0
 27 28  2  0
 11  7  1  0
 17 12  1  0
 28 18  1  0
 27 21  1  0
  3 29  1  0
  4 30  1  0
  4 31  1  0
  8 32  1  0
  8 33  1  0
  9 34  1  0
  9 35  1  0
 10 36  1  0
 10 37  1  0
 11 38  1  6
 13 39  1  0
 14 40  1  0
 15 41  1  0
 17 42  1  0
 19 43  1  0
 20 44  1  0
 22 45  1  0
 25 46  1  0
 26 47  1  0
M  END
>  <smiles>  (76) 
O=C(NCC(=O)N1CCCC1c1cccnc1)c1ccc2cc(F)ccc2n1

>  <score_type>  (76) 
oracle

>  <origin>  (76) 
autodockgpu

>  <m_score__min__energy>  (76) 
-8.9800000000000004

>  <m_primary>  (76) 
energy

>  <rmsd>  (76) 
2.3264292350541638

>  <m_score__min__rmsd>  (76) 
2.3264292350541638

>  <meeko>  (76) 
{"free_energy": -8.98, "intermolecular_energy": -10.47, "internal_energy": -1.44, "cluster_size": 19, "cluster_id": 1, "rank_in_cluster": 2}

>  <energy>  (76) 
-8.52

>  <cluster_rmsd>  (76) 
0.56

>  <cluster>  (76) 
2

$$$$

     RDKit          3D

 47 50  0  0  0  0  0  0  0  0999 V2000
  140.5340   71.8750  221.0630 O   0  0  0  0  0  0  0  0  0  0  0  0
  140.1580   72.3320  222.1960 C   0  0  0  0  0  0  0  0  0  0  0  0
  139.8170   73.7050  222.3240 N   0  0  0  0  0  0  0  0  0  0  0  0
  139.9080   74.5390  221.1580 C   0  0  0  0  0  0  0  0  0  0  0  0
  139.4630   75.9160  221.3920 C   0  0  0  0  0  0  0  0  0  0  0  0
  138.4800   76.0950  222.1730 O   0  0  0  0  0  0  0  0  0  0  0  0
  140.0340   77.0740  220.8200 N   0  0  0  0  0  0  0  0  0  0  0  0
  139.3640   78.0930  220.0420 C   0  0  0  0  0  0  0  0  0  0  0  0
  140.4000   78.7940  219.2100 C   0  0  0  0  0  0  0  0  0  0  0  0
  141.6500   77.9740  219.4190 C   0  0  0  0  0  0  0  0  0  0  0  0
  141.4320   77.5360  220.8550 C   0  0  1  0  0  0  0  0  0  0  0  0
  141.6640   78.5750  221.8390 C   0  0  0  0  0  0  0  0  0  0  0  0
  141.3660   78.3320  223.1850 C   0  0  0  0  0  0  0  0  0  0  0  0
  141.5840   79.3080  224.1540 C   0  0  0  0  0  0  0  0  0  0  0  0
  142.0990   80.5330  223.7970 C   0  0  0  0  0  0  0  0  0  0  0  0
  142.3810   80.7630  222.5220 N   0  0  0  0  0  0  0  0  0  0  0  0
  142.1780   79.8370  221.5780 C   0  0  0  0  0  0  0  0  0  0  0  0
  140.0810   71.4400  223.3530 C   0  0  0  0  0  0  0  0  0  0  0  0
  139.5840   70.1610  223.1870 C   0  0  0  0  0  0  0  0  0  0  0  0
  139.4970   69.2980  224.2420 C   0  0  0  0  0  0  0  0  0  0  0  0
  139.9240   69.7410  225.4920 C   0  0  0  0  0  0  0  0  0  0  0  0
  139.8450   68.8950  226.5640 C   0  0  0  0  0  0  0  0  0  0  0  0
  140.2740   69.3580  227.7840 C   0  0  0  0  0  0  0  0  0  0  0  0
  140.2210   68.5680  228.8780 F   0  0  0  0  0  0  0  0  0  0  0  0
  140.7730   70.6560  227.9300 C   0  0  0  0  0  0  0  0  0  0  0  0
  140.8530   71.5160  226.8410 C   0  0  0  0  0  0  0  0  0  0  0  0
  140.4160   71.0250  225.6280 C   0  0  0  0  0  0  0  0  0  0  0  0
  140.4970   71.8710  224.5720 N   0  0  0  0  0  0  0  0  0  0  0  0
  139.5110   74.0680  223.2560 H   0  0  0  0  0  0  0  0  0  0  0  0
  140.9568   74.5628  220.8271 H   0  0  0  0  0  0  0  0  0  0  0  0
  139.2420   74.1071  220.3965 H   0  0  0  0  0  0  0  0  0  0  0  0
  138.6107   77.6292  219.3882 H   0  0  0  0  0  0  0  0  0  0  0  0
  138.8559   78.8090  220.7047 H   0  0  0  0  0  0  0  0  0  0  0  0
  140.1100   78.8017  218.1489 H   0  0  0  0  0  0  0  0  0  0  0  0
  140.5315   79.8479  219.4962 H   0  0  0  0  0  0  0  0  0  0  0  0
  141.6966   77.1162  218.7319 H   0  0  0  0  0  0  0  0  0  0  0  0
  142.5938   78.5074  219.2327 H   0  0  0  0  0  0  0  0  0  0  0  0
  142.1492   76.7674  221.1789 H   0  0  0  0  0  0  0  0  0  0  0  0
  140.9538   77.3562  223.4814 H   0  0  0  0  0  0  0  0  0  0  0  0
  141.3440   79.0992  225.2070 H   0  0  0  0  0  0  0  0  0  0  0  0
  142.2739   81.3088  224.5569 H   0  0  0  0  0  0  0  0  0  0  0  0
  142.4325   80.0900  220.5382 H   0  0  0  0  0  0  0  0  0  0  0  0
  139.2536   69.8333  222.1903 H   0  0  0  0  0  0  0  0  0  0  0  0
  139.1005   68.2807  224.1084 H   0  0  0  0  0  0  0  0  0  0  0  0
  139.4498   67.8745  226.4524 H   0  0  0  0  0  0  0  0  0  0  0  0
  141.1066   71.0011  228.9197 H   0  0  0  0  0  0  0  0  0  0  0  0
  141.2457   72.5386  226.9414 H   0  0  0  0  0  0  0  0  0  0  0  0
  1  2  2  0
  2  3  1  0
  3  4  1  0
  4  5  1  0
  5  6  2  0
  5  7  1  0
  7  8  1  0
  8  9  1  0
  9 10  1  0
 10 11  1  0
 11 12  1  0
 12 13  2  0
 13 14  1  0
 14 15  2  0
 15 16  1  0
 16 17  2  0
  2 18  1  0
 18 19  2  0
 19 20  1  0
 20 21  2  0
 21 22  1  0
 22 23  2  0
 23 24  1  0
 23 25  1  0
 25 26  2  0
 26 27  1  0
 27 28  2  0
 11  7  1  0
 17 12  1  0
 28 18  1  0
 27 21  1  0
  3 29  1  0
  4 30  1  0
  4 31  1  0
  8 32  1  0
  8 33  1  0
  9 34  1  0
  9 35  1  0
 10 36  1  0
 10 37  1  0
 11 38  1  1
 13 39  1  0
 14 40  1  0
 15 41  1  0
 17 42  1  0
 19 43  1  0
 20 44  1  0
 22 45  1  0
 25 46  1  0
 26 47  1  0
M  END
>  <smiles>  (77) 
O=C(NCC(=O)N1CCCC1c1cccnc1)c1ccc2cc(F)ccc2n1

>  <score_type>  (77) 
oracle

>  <origin>  (77) 
autodockgpu

>  <m_score__min__energy>  (77) 
-8.9800000000000004

>  <m_primary>  (77) 
energy

>  <rmsd>  (77) 
1.8676342207382046

>  <m_score__min__rmsd>  (77) 
1.8676342207382046

>  <meeko>  (77) 
{"free_energy": -8.14, "intermolecular_energy": -9.63, "internal_energy": -1.4, "cluster_size": 26, "cluster_id": 2, "rank_in_cluster": 26}

>  <energy>  (77) 
-8.52

>  <cluster_rmsd>  (77) 
1.05

>  <cluster>  (77) 
2

$$$$

     RDKit          3D

 47 50  0  0  0  0  0  0  0  0999 V2000
  141.4300   72.4790  221.6000 O   0  0  0  0  0  0  0  0  0  0  0  0
  140.4810   72.6430  222.4400 C   0  0  0  0  0  0  0  0  0  0  0  0
  139.6370   73.7800  222.3350 N   0  0  0  0  0  0  0  0  0  0  0  0
  139.8850   74.7160  221.2740 C   0  0  0  0  0  0  0  0  0  0  0  0
  139.2570   76.0230  221.4910 C   0  0  0  0  0  0  0  0  0  0  0  0
  138.2160   76.0640  222.2140 O   0  0  0  0  0  0  0  0  0  0  0  0
  139.7100   77.2510  220.9630 N   0  0  0  0  0  0  0  0  0  0  0  0
  138.9030   78.3570  220.4930 C   0  0  0  0  0  0  0  0  0  0  0  0
  139.7440   79.1710  219.5500 C   0  0  0  0  0  0  0  0  0  0  0  0
  140.9930   78.3450  219.3700 C   0  0  0  0  0  0  0  0  0  0  0  0
  141.0890   77.7190  220.7490 C   0  0  1  0  0  0  0  0  0  0  0  0
  141.5520   78.6230  221.7830 C   0  0  0  0  0  0  0  0  0  0  0  0
  141.3750   78.2820  223.1300 C   0  0  0  0  0  0  0  0  0  0  0  0
  141.8140   79.1260  224.1460 C   0  0  0  0  0  0  0  0  0  0  0  0
  142.4330   80.3150  223.8370 C   0  0  0  0  0  0  0  0  0  0  0  0
  142.6000   80.6390  222.5620 N   0  0  0  0  0  0  0  0  0  0  0  0
  142.1840   79.8400  221.5730 C   0  0  0  0  0  0  0  0  0  0  0  0
  140.2700   71.6600  223.5030 C   0  0  0  0  0  0  0  0  0  0  0  0
  139.5960   70.4880  223.2140 C   0  0  0  0  0  0  0  0  0  0  0  0
  139.3790   69.5460  224.1790 C   0  0  0  0  0  0  0  0  0  0  0  0
  139.8570   69.7970  225.4640 C   0  0  0  0  0  0  0  0  0  0  0  0
  139.6520   68.8680  226.4460 C   0  0  0  0  0  0  0  0  0  0  0  0
  140.1350   69.1410  227.7030 C   0  0  0  0  0  0  0  0  0  0  0  0
  139.9630   68.2620  228.7130 F   0  0  0  0  0  0  0  0  0  0  0  0
  140.8140   70.3330  227.9730 C   0  0  0  0  0  0  0  0  0  0  0  0
  141.0230   71.2770  226.9750 C   0  0  0  0  0  0  0  0  0  0  0  0
  140.5280   70.9770  225.7220 C   0  0  0  0  0  0  0  0  0  0  0  0
  140.7360   71.9030  224.7550 N   0  0  0  0  0  0  0  0  0  0  0  0
  138.8640   73.9040  223.0290 H   0  0  0  0  0  0  0  0  0  0  0  0
  140.9716   74.8619  221.1848 H   0  0  0  0  0  0  0  0  0  0  0  0
  139.4454   74.2928  220.3587 H   0  0  0  0  0  0  0  0  0  0  0  0
  138.0147   77.9756  219.9681 H   0  0  0  0  0  0  0  0  0  0  0  0
  138.5672   78.9745  221.3391 H   0  0  0  0  0  0  0  0  0  0  0  0
  139.2276   79.3136  218.5893 H   0  0  0  0  0  0  0  0  0  0  0  0
  139.9552   80.1799  219.9341 H   0  0  0  0  0  0  0  0  0  0  0  0
  140.8715   77.5856  218.5835 H   0  0  0  0  0  0  0  0  0  0  0  0
  141.8822   78.9090  219.0519 H   0  0  0  0  0  0  0  0  0  0  0  0
  141.8447   76.9216  220.8044 H   0  0  0  0  0  0  0  0  0  0  0  0
  140.8819   77.3334  223.3886 H   0  0  0  0  0  0  0  0  0  0  0  0
  141.6657   78.8417  225.1982 H   0  0  0  0  0  0  0  0  0  0  0  0
  142.7838   80.9862  224.6347 H   0  0  0  0  0  0  0  0  0  0  0  0
  142.3524   80.1660  220.5360 H   0  0  0  0  0  0  0  0  0  0  0  0
  139.2292   70.3116  222.1921 H   0  0  0  0  0  0  0  0  0  0  0  0
  138.8415   68.6144  223.9482 H   0  0  0  0  0  0  0  0  0  0  0  0
  139.1165   67.9303  226.2361 H   0  0  0  0  0  0  0  0  0  0  0  0
  141.1879   70.5262  228.9893 H   0  0  0  0  0  0  0  0  0  0  0  0
  141.5571   72.2178  227.1739 H   0  0  0  0  0  0  0  0  0  0  0  0
  1  2  2  0
  2  3  1  0
  3  4  1  0
  4  5  1  0
  5  6  2  0
  5  7  1  0
  7  8  1  0
  8  9  1  0
  9 10  1  0
 10 11  1  0
 11 12  1  0
 12 13  2  0
 13 14  1  0
 14 15  2  0
 15 16  1  0
 16 17  2  0
  2 18  1  0
 18 19  2  0
 19 20  1  0
 20 21  2  0
 21 22  1  0
 22 23  2  0
 23 24  1  0
 23 25  1  0
 25 26  2  0
 26 27  1  0
 27 28  2  0
 11  7  1  0
 17 12  1  0
 28 18  1  0
 27 21  1  0
  3 29  1  0
  4 30  1  0
  4 31  1  0
  8 32  1  0
  8 33  1  0
  9 34  1  0
  9 35  1  0
 10 36  1  0
 10 37  1  0
 11 38  1  6
 13 39  1  0
 14 40  1  0
 15 41  1  0
 17 42  1  0
 19 43  1  0
 20 44  1  0
 22 45  1  0
 25 46  1  0
 26 47  1  0
M  END
>  <smiles>  (78) 
O=C(NCC(=O)N1CCCC1c1cccnc1)c1ccc2cc(F)ccc2n1

>  <score_type>  (78) 
oracle

>  <origin>  (78) 
autodockgpu

>  <m_score__min__energy>  (78) 
-8.9800000000000004

>  <m_primary>  (78) 
energy

>  <rmsd>  (78) 
2.1100766574306684

>  <m_score__min__rmsd>  (78) 
2.1100766574306684

>  <meeko>  (78) 
{"free_energy": -8.23, "intermolecular_energy": -9.72, "internal_energy": -1.45, "cluster_size": 26, "cluster_id": 2, "rank_in_cluster": 24}

>  <energy>  (78) 
-8.51

>  <cluster_rmsd>  (78) 
1.05

>  <cluster>  (78) 
2

$$$$

     RDKit          3D

 47 50  0  0  0  0  0  0  0  0999 V2000
  141.3770   72.4530  221.6020 O   0  0  0  0  0  0  0  0  0  0  0  0
  140.4350   72.6080  222.4520 C   0  0  0  0  0  0  0  0  0  0  0  0
  139.5730   73.7320  222.3500 N   0  0  0  0  0  0  0  0  0  0  0  0
  139.7960   74.6650  221.2800 C   0  0  0  0  0  0  0  0  0  0  0  0
  139.3320   76.0210  221.5850 C   0  0  0  0  0  0  0  0  0  0  0  0
  138.3780   76.1480  222.4100 O   0  0  0  0  0  0  0  0  0  0  0  0
  139.8570   77.2130  221.0370 N   0  0  0  0  0  0  0  0  0  0  0  0
  139.1200   78.3020  220.4340 C   0  0  0  0  0  0  0  0  0  0  0  0
  140.0600   79.0520  219.5340 C   0  0  0  0  0  0  0  0  0  0  0  0
  141.3050   78.1980  219.5170 C   0  0  0  0  0  0  0  0  0  0  0  0
  141.2590   77.6480  220.9300 C   0  0  1  0  0  0  0  0  0  0  0  0
  141.6400   78.6010  221.9540 C   0  0  0  0  0  0  0  0  0  0  0  0
  142.2270   79.8170  221.5830 C   0  0  0  0  0  0  0  0  0  0  0  0
  142.5980   80.7550  222.5430 C   0  0  0  0  0  0  0  0  0  0  0  0
  142.3910   80.4950  223.8790 C   0  0  0  0  0  0  0  0  0  0  0  0
  141.8360   79.3430  224.2290 N   0  0  0  0  0  0  0  0  0  0  0  0
  141.4740   78.4310  223.3210 C   0  0  0  0  0  0  0  0  0  0  0  0
  140.2500   71.6280  223.5230 C   0  0  0  0  0  0  0  0  0  0  0  0
  139.6000   70.4400  223.2460 C   0  0  0  0  0  0  0  0  0  0  0  0
  139.4080   69.5010  224.2180 C   0  0  0  0  0  0  0  0  0  0  0  0
  139.8860   69.7710  225.4990 C   0  0  0  0  0  0  0  0  0  0  0  0
  139.7060   68.8460  226.4890 C   0  0  0  0  0  0  0  0  0  0  0  0
  140.1880   69.1380  227.7420 C   0  0  0  0  0  0  0  0  0  0  0  0
  140.0390   68.2630  228.7590 F   0  0  0  0  0  0  0  0  0  0  0  0
  140.8430   70.3470  228.0000 C   0  0  0  0  0  0  0  0  0  0  0  0
  141.0260   71.2880  226.9940 C   0  0  0  0  0  0  0  0  0  0  0  0
  140.5330   70.9670  225.7460 C   0  0  0  0  0  0  0  0  0  0  0  0
  140.7160   71.8910  224.7710 N   0  0  0  0  0  0  0  0  0  0  0  0
  138.8060   73.8490  223.0510 H   0  0  0  0  0  0  0  0  0  0  0  0
  140.8752   74.7044  221.0708 H   0  0  0  0  0  0  0  0  0  0  0  0
  139.2177   74.3107  220.4140 H   0  0  0  0  0  0  0  0  0  0  0  0
  138.2784   77.9045  219.8477 H   0  0  0  0  0  0  0  0  0  0  0  0
  138.7181   78.9695  221.2105 H   0  0  0  0  0  0  0  0  0  0  0  0
  139.6388   79.1501  218.5226 H   0  0  0  0  0  0  0  0  0  0  0  0
  140.2535   80.0773  219.8824 H   0  0  0  0  0  0  0  0  0  0  0  0
  141.2424   77.3983  218.7643 H   0  0  0  0  0  0  0  0  0  0  0  0
  142.2312   78.7302  219.2544 H   0  0  0  0  0  0  0  0  0  0  0  0
  141.9907   76.8443  221.0992 H   0  0  0  0  0  0  0  0  0  0  0  0
  142.3974   80.0343  220.5182 H   0  0  0  0  0  0  0  0  0  0  0  0
  143.0573   81.7054  222.2333 H   0  0  0  0  0  0  0  0  0  0  0  0
  142.6813   81.2309  224.6434 H   0  0  0  0  0  0  0  0  0  0  0  0
  141.0197   77.4946  223.6771 H   0  0  0  0  0  0  0  0  0  0  0  0
  139.2320   70.2484  222.2272 H   0  0  0  0  0  0  0  0  0  0  0  0
  138.8898   68.5564  223.9961 H   0  0  0  0  0  0  0  0  0  0  0  0
  139.1902   67.8954  226.2884 H   0  0  0  0  0  0  0  0  0  0  0  0
  141.2182   70.5555  229.0128 H   0  0  0  0  0  0  0  0  0  0  0  0
  141.5390   72.2424  227.1835 H   0  0  0  0  0  0  0  0  0  0  0  0
  1  2  2  0
  2  3  1  0
  3  4  1  0
  4  5  1  0
  5  6  2  0
  5  7  1  0
  7  8  1  0
  8  9  1  0
  9 10  1  0
 10 11  1  0
 11 12  1  0
 12 13  2  0
 13 14  1  0
 14 15  2  0
 15 16  1  0
 16 17  2  0
  2 18  1  0
 18 19  2  0
 19 20  1  0
 20 21  2  0
 21 22  1  0
 22 23  2  0
 23 24  1  0
 23 25  1  0
 25 26  2  0
 26 27  1  0
 27 28  2  0
 11  7  1  0
 17 12  1  0
 28 18  1  0
 27 21  1  0
  3 29  1  0
  4 30  1  0
  4 31  1  0
  8 32  1  0
  8 33  1  0
  9 34  1  0
  9 35  1  0
 10 36  1  0
 10 37  1  0
 11 38  1  6
 13 39  1  0
 14 40  1  0
 15 41  1  0
 17 42  1  0
 19 43  1  0
 20 44  1  0
 22 45  1  0
 25 46  1  0
 26 47  1  0
M  END
>  <smiles>  (79) 
O=C(NCC(=O)N1CCCC1c1cccnc1)c1ccc2cc(F)ccc2n1

>  <score_type>  (79) 
oracle

>  <origin>  (79) 
autodockgpu

>  <m_score__min__energy>  (79) 
-8.9800000000000004

>  <m_primary>  (79) 
energy

>  <rmsd>  (79) 
2.0585772774924895

>  <m_score__min__rmsd>  (79) 
2.0585772774924895

>  <meeko>  (79) 
{"free_energy": -8.37, "intermolecular_energy": -9.86, "internal_energy": -1.34, "cluster_size": 26, "cluster_id": 2, "rank_in_cluster": 21}

>  <energy>  (79) 
-8.51

>  <cluster_rmsd>  (79) 
1.03

>  <cluster>  (79) 
2

$$$$

     RDKit          3D

 47 50  0  0  0  0  0  0  0  0999 V2000
  141.3520   72.4660  221.8640 O   0  0  0  0  0  0  0  0  0  0  0  0
  140.3150   72.4800  222.6120 C   0  0  0  0  0  0  0  0  0  0  0  0
  139.2790   73.4180  222.3610 N   0  0  0  0  0  0  0  0  0  0  0  0
  139.4370   74.3270  221.2600 C   0  0  0  0  0  0  0  0  0  0  0  0
  140.2470   75.5040  221.5870 C   0  0  0  0  0  0  0  0  0  0  0  0
  141.4900   75.3320  221.7690 O   0  0  0  0  0  0  0  0  0  0  0  0
  139.7650   76.8240  221.7220 N   0  0  0  0  0  0  0  0  0  0  0  0
  138.6100   77.2660  222.4720 C   0  0  0  0  0  0  0  0  0  0  0  0
  138.1690   78.5860  221.9050 C   0  0  0  0  0  0  0  0  0  0  0  0
  139.0220   78.7540  220.6710 C   0  0  0  0  0  0  0  0  0  0  0  0
  140.2910   78.0700  221.1410 C   0  0  1  0  0  0  0  0  0  0  0  0
  141.0780   78.8480  222.0780 C   0  0  0  0  0  0  0  0  0  0  0  0
  141.5060   80.1330  221.7220 C   0  0  0  0  0  0  0  0  0  0  0  0
  142.2570   80.9070  222.6020 C   0  0  0  0  0  0  0  0  0  0  0  0
  142.5900   80.4150  223.8430 C   0  0  0  0  0  0  0  0  0  0  0  0
  142.1850   79.1980  224.1800 N   0  0  0  0  0  0  0  0  0  0  0  0
  141.4630   78.4410  223.3470 C   0  0  0  0  0  0  0  0  0  0  0  0
  140.2040   71.5320  223.7210 C   0  0  0  0  0  0  0  0  0  0  0  0
  139.6090   70.3040  223.5020 C   0  0  0  0  0  0  0  0  0  0  0  0
  139.4860   69.3920  224.5110 C   0  0  0  0  0  0  0  0  0  0  0  0
  139.9770   69.7340  225.7700 C   0  0  0  0  0  0  0  0  0  0  0  0
  139.8650   68.8370  226.7960 C   0  0  0  0  0  0  0  0  0  0  0  0
  140.3570   69.1990  228.0260 C   0  0  0  0  0  0  0  0  0  0  0  0
  140.2750   68.3550  229.0770 F   0  0  0  0  0  0  0  0  0  0  0  0
  140.9550   70.4470  228.2270 C   0  0  0  0  0  0  0  0  0  0  0  0
  141.0700   71.3590  227.1840 C   0  0  0  0  0  0  0  0  0  0  0  0
  140.5670   70.9690  225.9600 C   0  0  0  0  0  0  0  0  0  0  0  0
  140.6820   71.8640  224.9480 N   0  0  0  0  0  0  0  0  0  0  0  0
  138.4360   73.4210  222.9810 H   0  0  0  0  0  0  0  0  0  0  0  0
  139.9216   73.7898  220.4314 H   0  0  0  0  0  0  0  0  0  0  0  0
  138.4334   74.6885  220.9915 H   0  0  0  0  0  0  0  0  0  0  0  0
  137.7988   76.5290  222.3780 H   0  0  0  0  0  0  0  0  0  0  0  0
  138.8622   77.3715  223.5375 H   0  0  0  0  0  0  0  0  0  0  0  0
  137.1011   78.5620  221.6423 H   0  0  0  0  0  0  0  0  0  0  0  0
  138.2870   79.4149  222.6184 H   0  0  0  0  0  0  0  0  0  0  0  0
  138.5834   78.2480  219.7983 H   0  0  0  0  0  0  0  0  0  0  0  0
  139.1509   79.7924  220.3317 H   0  0  0  0  0  0  0  0  0  0  0  0
  141.0154   77.9130  220.3283 H   0  0  0  0  0  0  0  0  0  0  0  0
  141.2449   80.5365  220.7326 H   0  0  0  0  0  0  0  0  0  0  0  0
  142.5849   81.9140  222.3047 H   0  0  0  0  0  0  0  0  0  0  0  0
  143.1824   81.0212  224.5441 H   0  0  0  0  0  0  0  0  0  0  0  0
  141.1575   77.4404  223.6868 H   0  0  0  0  0  0  0  0  0  0  0  0
  139.2287   70.0574  222.4997 H   0  0  0  0  0  0  0  0  0  0  0  0
  139.0126   68.4147  224.3351 H   0  0  0  0  0  0  0  0  0  0  0  0
  139.3948   67.8547  226.6408 H   0  0  0  0  0  0  0  0  0  0  0  0
  141.3394   70.7105  229.2234 H   0  0  0  0  0  0  0  0  0  0  0  0
  141.5392   72.3435  227.3277 H   0  0  0  0  0  0  0  0  0  0  0  0
  1  2  2  0
  2  3  1  0
  3  4  1  0
  4  5  1  0
  5  6  2  0
  5  7  1  0
  7  8  1  0
  8  9  1  0
  9 10  1  0
 10 11  1  0
 11 12  1  0
 12 13  2  0
 13 14  1  0
 14 15  2  0
 15 16  1  0
 16 17  2  0
  2 18  1  0
 18 19  2  0
 19 20  1  0
 20 21  2  0
 21 22  1  0
 22 23  2  0
 23 24  1  0
 23 25  1  0
 25 26  2  0
 26 27  1  0
 27 28  2  0
 11  7  1  0
 17 12  1  0
 28 18  1  0
 27 21  1  0
  3 29  1  0
  4 30  1  0
  4 31  1  0
  8 32  1  0
  8 33  1  0
  9 34  1  0
  9 35  1  0
 10 36  1  0
 10 37  1  0
 11 38  1  6
 13 39  1  0
 14 40  1  0
 15 41  1  0
 17 42  1  0
 19 43  1  0
 20 44  1  0
 22 45  1  0
 25 46  1  0
 26 47  1  0
M  END
>  <smiles>  (80) 
O=C(NCC(=O)N1CCCC1c1cccnc1)c1ccc2cc(F)ccc2n1

>  <score_type>  (80) 
oracle

>  <origin>  (80) 
autodockgpu

>  <m_score__min__energy>  (80) 
-8.9800000000000004

>  <m_primary>  (80) 
energy

>  <rmsd>  (80) 
2.497051897329846

>  <m_score__min__rmsd>  (80) 
2.497051897329846

>  <meeko>  (80) 
{"free_energy": -8.65, "intermolecular_energy": -10.14, "internal_energy": -1.06, "cluster_size": 26, "cluster_id": 2, "rank_in_cluster": 3}

>  <energy>  (80) 
-8.49

>  <cluster_rmsd>  (80) 
1.04

>  <cluster>  (80) 
2

$$$$

     RDKit          3D

 47 50  0  0  0  0  0  0  0  0999 V2000
  141.5010   72.3280  221.7640 O   0  0  0  0  0  0  0  0  0  0  0  0
  140.4490   72.4510  222.4810 C   0  0  0  0  0  0  0  0  0  0  0  0
  139.4920   73.4490  222.1610 N   0  0  0  0  0  0  0  0  0  0  0  0
  139.7440   74.2940  221.0260 C   0  0  0  0  0  0  0  0  0  0  0  0
  140.9570   75.1050  221.1620 C   0  0  0  0  0  0  0  0  0  0  0  0
  141.1880   75.6380  222.2890 O   0  0  0  0  0  0  0  0  0  0  0  0
  141.9020   75.3490  220.1420 N   0  0  0  0  0  0  0  0  0  0  0  0
  142.5440   76.6060  219.8210 C   0  0  0  0  0  0  0  0  0  0  0  0
  143.0120   76.5320  218.3950 C   0  0  0  0  0  0  0  0  0  0  0  0
  142.4170   75.2430  217.8830 C   0  0  0  0  0  0  0  0  0  0  0  0
  142.4650   74.4150  219.1530 C   0  0  1  0  0  0  0  0  0  0  0  0
  143.7880   73.9400  219.5060 C   0  0  0  0  0  0  0  0  0  0  0  0
  144.1950   73.9580  220.8460 C   0  0  0  0  0  0  0  0  0  0  0  0
  145.4570   73.5030  221.2180 C   0  0  0  0  0  0  0  0  0  0  0  0
  146.3270   73.0250  220.2650 C   0  0  0  0  0  0  0  0  0  0  0  0
  145.9420   73.0080  218.9960 N   0  0  0  0  0  0  0  0  0  0  0  0
  144.7340   73.4420  218.6220 C   0  0  0  0  0  0  0  0  0  0  0  0
  140.2400   71.5650  223.6260 C   0  0  0  0  0  0  0  0  0  0  0  0
  139.5210   70.3970  223.4530 C   0  0  0  0  0  0  0  0  0  0  0  0
  139.3040   69.5430  224.4970 C   0  0  0  0  0  0  0  0  0  0  0  0
  139.8280   69.8810  225.7430 C   0  0  0  0  0  0  0  0  0  0  0  0
  139.6230   69.0430  226.8040 C   0  0  0  0  0  0  0  0  0  0  0  0
  140.1510   69.4000  228.0200 C   0  0  0  0  0  0  0  0  0  0  0  0
  139.9820   68.6120  229.1030 F   0  0  0  0  0  0  0  0  0  0  0  0
  140.8750   70.5860  228.1740 C   0  0  0  0  0  0  0  0  0  0  0  0
  141.0830   71.4390  227.0960 C   0  0  0  0  0  0  0  0  0  0  0  0
  140.5420   71.0550  225.8870 C   0  0  0  0  0  0  0  0  0  0  0  0
  140.7500   71.8930  224.8410 N   0  0  0  0  0  0  0  0  0  0  0  0
  138.6360   73.5410  222.7550 H   0  0  0  0  0  0  0  0  0  0  0  0
  139.8477   73.6583  220.1343 H   0  0  0  0  0  0  0  0  0  0  0  0
  138.8958   74.9896  220.9444 H   0  0  0  0  0  0  0  0  0  0  0  0
  141.8275   77.4325  219.9372 H   0  0  0  0  0  0  0  0  0  0  0  0
  143.3941   76.7864  220.4954 H   0  0  0  0  0  0  0  0  0  0  0  0
  142.6411   77.3910  217.8165 H   0  0  0  0  0  0  0  0  0  0  0  0
  144.1082   76.5572  218.3069 H   0  0  0  0  0  0  0  0  0  0  0  0
  141.3866   75.3821  217.5239 H   0  0  0  0  0  0  0  0  0  0  0  0
  142.9359   74.8014  217.0195 H   0  0  0  0  0  0  0  0  0  0  0  0
  141.9113   73.4685  219.0663 H   0  0  0  0  0  0  0  0  0  0  0  0
  143.5072   74.3374  221.6160 H   0  0  0  0  0  0  0  0  0  0  0  0
  145.7592   73.5256  222.2754 H   0  0  0  0  0  0  0  0  0  0  0  0
  147.3255   72.6629  220.5511 H   0  0  0  0  0  0  0  0  0  0  0  0
  144.4758   73.4019  217.5535 H   0  0  0  0  0  0  0  0  0  0  0  0
  139.1174   70.1515  222.4596 H   0  0  0  0  0  0  0  0  0  0  0  0
  138.7314   68.6142  224.3578 H   0  0  0  0  0  0  0  0  0  0  0  0
  139.0518   68.1103  226.6866 H   0  0  0  0  0  0  0  0  0  0  0  0
  141.2853   70.8476  229.1605 H   0  0  0  0  0  0  0  0  0  0  0  0
  141.6514   72.3747  227.2023 H   0  0  0  0  0  0  0  0  0  0  0  0
  1  2  2  0
  2  3  1  0
  3  4  1  0
  4  5  1  0
  5  6  2  0
  5  7  1  0
  7  8  1  0
  8  9  1  0
  9 10  1  0
 10 11  1  0
 11 12  1  0
 12 13  2  0
 13 14  1  0
 14 15  2  0
 15 16  1  0
 16 17  2  0
  2 18  1  0
 18 19  2  0
 19 20  1  0
 20 21  2  0
 21 22  1  0
 22 23  2  0
 23 24  1  0
 23 25  1  0
 25 26  2  0
 26 27  1  0
 27 28  2  0
 11  7  1  0
 17 12  1  0
 28 18  1  0
 27 21  1  0
  3 29  1  0
  4 30  1  0
  4 31  1  0
  8 32  1  0
  8 33  1  0
  9 34  1  0
  9 35  1  0
 10 36  1  0
 10 37  1  0
 11 38  1  6
 13 39  1  0
 14 40  1  0
 15 41  1  0
 17 42  1  0
 19 43  1  0
 20 44  1  0
 22 45  1  0
 25 46  1  0
 26 47  1  0
M  END
>  <smiles>  (81) 
O=C(NCC(=O)N1CCCC1c1cccnc1)c1ccc2cc(F)ccc2n1

>  <score_type>  (81) 
oracle

>  <origin>  (81) 
autodockgpu

>  <m_score__min__energy>  (81) 
-8.9800000000000004

>  <m_primary>  (81) 
energy

>  <rmsd>  (81) 
2.307912309066374

>  <m_score__min__rmsd>  (81) 
2.307912309066374

>  <meeko>  (81) 
{"free_energy": -8.95, "intermolecular_energy": -10.44, "internal_energy": -1.41, "cluster_size": 19, "cluster_id": 1, "rank_in_cluster": 6}

>  <energy>  (81) 
-8.48

>  <cluster_rmsd>  (81) 
1.08

>  <cluster>  (81) 
2

$$$$

     RDKit          3D

 47 50  0  0  0  0  0  0  0  0999 V2000
  141.3660   72.1780  221.5850 O   0  0  0  0  0  0  0  0  0  0  0  0
  140.4190   72.4110  222.4120 C   0  0  0  0  0  0  0  0  0  0  0  0
  139.5580   73.5200  222.2020 N   0  0  0  0  0  0  0  0  0  0  0  0
  139.7860   74.3490  221.0500 C   0  0  0  0  0  0  0  0  0  0  0  0
  140.9970   75.1680  221.1530 C   0  0  0  0  0  0  0  0  0  0  0  0
  141.2310   75.7390  222.2610 O   0  0  0  0  0  0  0  0  0  0  0  0
  141.9370   75.3810  220.1210 N   0  0  0  0  0  0  0  0  0  0  0  0
  142.5940   76.6220  219.7740 C   0  0  0  0  0  0  0  0  0  0  0  0
  143.0480   76.5180  218.3450 C   0  0  0  0  0  0  0  0  0  0  0  0
  142.4300   75.2300  217.8590 C   0  0  0  0  0  0  0  0  0  0  0  0
  142.4770   74.4230  219.1430 C   0  0  1  0  0  0  0  0  0  0  0  0
  143.7960   73.9340  219.4930 C   0  0  0  0  0  0  0  0  0  0  0  0
  144.1950   73.9190  220.8350 C   0  0  0  0  0  0  0  0  0  0  0  0
  145.4530   73.4500  221.2030 C   0  0  0  0  0  0  0  0  0  0  0  0
  146.3260   72.9900  220.2440 C   0  0  0  0  0  0  0  0  0  0  0  0
  145.9480   73.0040  218.9730 N   0  0  0  0  0  0  0  0  0  0  0  0
  144.7440   73.4520  218.6020 C   0  0  0  0  0  0  0  0  0  0  0  0
  140.2290   71.5350  223.5690 C   0  0  0  0  0  0  0  0  0  0  0  0
  139.5580   70.3390  223.4060 C   0  0  0  0  0  0  0  0  0  0  0  0
  139.3600   69.4940  224.4610 C   0  0  0  0  0  0  0  0  0  0  0  0
  139.8550   69.8720  225.7080 C   0  0  0  0  0  0  0  0  0  0  0  0
  139.6690   69.0420  226.7800 C   0  0  0  0  0  0  0  0  0  0  0  0
  140.1680   69.4390  227.9970 C   0  0  0  0  0  0  0  0  0  0  0  0
  140.0150   68.6620  229.0900 F   0  0  0  0  0  0  0  0  0  0  0  0
  140.8450   70.6540  228.1390 C   0  0  0  0  0  0  0  0  0  0  0  0
  141.0340   71.4980  227.0500 C   0  0  0  0  0  0  0  0  0  0  0  0
  140.5230   71.0740  225.8410 C   0  0  0  0  0  0  0  0  0  0  0  0
  140.7120   71.9020  224.7840 N   0  0  0  0  0  0  0  0  0  0  0  0
  138.7870   73.7020  222.8850 H   0  0  0  0  0  0  0  0  0  0  0  0
  139.8778   73.7004  220.1663 H   0  0  0  0  0  0  0  0  0  0  0  0
  138.9328   75.0390  220.9724 H   0  0  0  0  0  0  0  0  0  0  0  0
  141.8908   77.4608  219.8830 H   0  0  0  0  0  0  0  0  0  0  0  0
  143.4528   76.8006  220.4378 H   0  0  0  0  0  0  0  0  0  0  0  0
  142.6845   77.3729  217.7559 H   0  0  0  0  0  0  0  0  0  0  0  0
  144.1436   76.5255  218.2470 H   0  0  0  0  0  0  0  0  0  0  0  0
  141.3987   75.3783  217.5061 H   0  0  0  0  0  0  0  0  0  0  0  0
  142.9346   74.7665  216.9984 H   0  0  0  0  0  0  0  0  0  0  0  0
  141.9083   73.4838  219.0767 H   0  0  0  0  0  0  0  0  0  0  0  0
  143.5044   74.2831  221.6099 H   0  0  0  0  0  0  0  0  0  0  0  0
  145.7497   73.4471  222.2622 H   0  0  0  0  0  0  0  0  0  0  0  0
  147.3213   72.6167  220.5271 H   0  0  0  0  0  0  0  0  0  0  0  0
  144.4913   73.4376  217.5315 H   0  0  0  0  0  0  0  0  0  0  0  0
  139.1772   70.0626  222.4117 H   0  0  0  0  0  0  0  0  0  0  0  0
  138.8249   68.5419  224.3301 H   0  0  0  0  0  0  0  0  0  0  0  0
  139.1361   68.0859  226.6707 H   0  0  0  0  0  0  0  0  0  0  0  0
  141.2335   70.9464  229.1257 H   0  0  0  0  0  0  0  0  0  0  0  0
  141.5648   72.4565  227.1479 H   0  0  0  0  0  0  0  0  0  0  0  0
  1  2  2  0
  2  3  1  0
  3  4  1  0
  4  5  1  0
  5  6  2  0
  5  7  1  0
  7  8  1  0
  8  9  1  0
  9 10  1  0
 10 11  1  0
 11 12  1  0
 12 13  2  0
 13 14  1  0
 14 15  2  0
 15 16  1  0
 16 17  2  0
  2 18  1  0
 18 19  2  0
 19 20  1  0
 20 21  2  0
 21 22  1  0
 22 23  2  0
 23 24  1  0
 23 25  1  0
 25 26  2  0
 26 27  1  0
 27 28  2  0
 11  7  1  0
 17 12  1  0
 28 18  1  0
 27 21  1  0
  3 29  1  0
  4 30  1  0
  4 31  1  0
  8 32  1  0
  8 33  1  0
  9 34  1  0
  9 35  1  0
 10 36  1  0
 10 37  1  0
 11 38  1  6
 13 39  1  0
 14 40  1  0
 15 41  1  0
 17 42  1  0
 19 43  1  0
 20 44  1  0
 22 45  1  0
 25 46  1  0
 26 47  1  0
M  END
>  <smiles>  (82) 
O=C(NCC(=O)N1CCCC1c1cccnc1)c1ccc2cc(F)ccc2n1

>  <score_type>  (82) 
oracle

>  <origin>  (82) 
autodockgpu

>  <m_score__min__energy>  (82) 
-8.9800000000000004

>  <m_primary>  (82) 
energy

>  <rmsd>  (82) 
2.308821116567832

>  <m_score__min__rmsd>  (82) 
2.308821116567832

>  <meeko>  (82) 
{"free_energy": -8.97, "intermolecular_energy": -10.46, "internal_energy": -1.46, "cluster_size": 19, "cluster_id": 1, "rank_in_cluster": 4}

>  <energy>  (82) 
-8.48

>  <cluster_rmsd>  (82) 
1.0

>  <cluster>  (82) 
2

$$$$

     RDKit          3D

 47 50  0  0  0  0  0  0  0  0999 V2000
  141.2730   72.4490  221.8390 O   0  0  0  0  0  0  0  0  0  0  0  0
  140.2440   72.4720  222.5970 C   0  0  0  0  0  0  0  0  0  0  0  0
  139.2060   73.4080  222.3470 N   0  0  0  0  0  0  0  0  0  0  0  0
  139.3530   74.3060  221.2350 C   0  0  0  0  0  0  0  0  0  0  0  0
  140.2640   75.4220  221.5040 C   0  0  0  0  0  0  0  0  0  0  0  0
  141.4240   75.1460  221.9380 O   0  0  0  0  0  0  0  0  0  0  0  0
  139.9660   76.7900  221.3240 N   0  0  0  0  0  0  0  0  0  0  0  0
  138.7060   77.4560  221.5780 C   0  0  0  0  0  0  0  0  0  0  0  0
  138.6790   78.7160  220.7590 C   0  0  0  0  0  0  0  0  0  0  0  0
  139.9050   78.6090  219.8860 C   0  0  0  0  0  0  0  0  0  0  0  0
  140.8330   77.8740  220.8360 C   0  0  1  0  0  0  0  0  0  0  0  0
  141.3720   78.6970  221.9000 C   0  0  0  0  0  0  0  0  0  0  0  0
  141.9150   79.9520  221.5980 C   0  0  0  0  0  0  0  0  0  0  0  0
  142.4340   80.7680  222.5990 C   0  0  0  0  0  0  0  0  0  0  0  0
  142.4200   80.3480  223.9090 C   0  0  0  0  0  0  0  0  0  0  0  0
  141.9070   79.1600  224.1960 N   0  0  0  0  0  0  0  0  0  0  0  0
  141.4040   78.3630  223.2460 C   0  0  0  0  0  0  0  0  0  0  0  0
  140.1420   71.5360  223.7170 C   0  0  0  0  0  0  0  0  0  0  0  0
  139.5570   70.3000  223.5120 C   0  0  0  0  0  0  0  0  0  0  0  0
  139.4440   69.3990  224.5320 C   0  0  0  0  0  0  0  0  0  0  0  0
  139.9350   69.7570  225.7850 C   0  0  0  0  0  0  0  0  0  0  0  0
  139.8320   68.8710  226.8220 C   0  0  0  0  0  0  0  0  0  0  0  0
  140.3250   69.2500  228.0460 C   0  0  0  0  0  0  0  0  0  0  0  0
  140.2530   68.4180  229.1070 F   0  0  0  0  0  0  0  0  0  0  0  0
  140.9140   70.5050  228.2320 C   0  0  0  0  0  0  0  0  0  0  0  0
  141.0180   71.4070  227.1790 C   0  0  0  0  0  0  0  0  0  0  0  0
  140.5150   70.9990  225.9600 C   0  0  0  0  0  0  0  0  0  0  0  0
  140.6210   71.8840  224.9390 N   0  0  0  0  0  0  0  0  0  0  0  0
  138.3690   73.4180  222.9740 H   0  0  0  0  0  0  0  0  0  0  0  0
  139.7417   73.7378  220.3771 H   0  0  0  0  0  0  0  0  0  0  0  0
  138.3616   74.7378  221.0333 H   0  0  0  0  0  0  0  0  0  0  0  0
  137.8714   76.8018  221.2857 H   0  0  0  0  0  0  0  0  0  0  0  0
  138.6044   77.6909  222.6478 H   0  0  0  0  0  0  0  0  0  0  0  0
  137.7662   78.7654  220.1472 H   0  0  0  0  0  0  0  0  0  0  0  0
  138.6783   79.6246  221.3791 H   0  0  0  0  0  0  0  0  0  0  0  0
  139.7083   78.0269  218.9736 H   0  0  0  0  0  0  0  0  0  0  0  0
  140.2908   79.5661  219.5052 H   0  0  0  0  0  0  0  0  0  0  0  0
  141.7539   77.5235  220.3470 H   0  0  0  0  0  0  0  0  0  0  0  0
  141.9316   80.2981  220.5540 H   0  0  0  0  0  0  0  0  0  0  0  0
  142.8563   81.7507  222.3422 H   0  0  0  0  0  0  0  0  0  0  0  0
  142.8280   80.9878  224.7054 H   0  0  0  0  0  0  0  0  0  0  0  0
  140.9931   77.3888  223.5493 H   0  0  0  0  0  0  0  0  0  0  0  0
  139.1773   70.0388  222.5132 H   0  0  0  0  0  0  0  0  0  0  0  0
  138.9774   68.4164  224.3682 H   0  0  0  0  0  0  0  0  0  0  0  0
  139.3679   67.8840  226.6795 H   0  0  0  0  0  0  0  0  0  0  0  0
  141.2999   70.7819  229.2242 H   0  0  0  0  0  0  0  0  0  0  0  0
  141.4786   72.3972  227.3109 H   0  0  0  0  0  0  0  0  0  0  0  0
  1  2  2  0
  2  3  1  0
  3  4  1  0
  4  5  1  0
  5  6  2  0
  5  7  1  0
  7  8  1  0
  8  9  1  0
  9 10  1  0
 10 11  1  0
 11 12  1  0
 12 13  2  0
 13 14  1  0
 14 15  2  0
 15 16  1  0
 16 17  2  0
  2 18  1  0
 18 19  2  0
 19 20  1  0
 20 21  2  0
 21 22  1  0
 22 23  2  0
 23 24  1  0
 23 25  1  0
 25 26  2  0
 26 27  1  0
 27 28  2  0
 11  7  1  0
 17 12  1  0
 28 18  1  0
 27 21  1  0
  3 29  1  0
  4 30  1  0
  4 31  1  0
  8 32  1  0
  8 33  1  0
  9 34  1  0
  9 35  1  0
 10 36  1  0
 10 37  1  0
 11 38  1  6
 13 39  1  0
 14 40  1  0
 15 41  1  0
 17 42  1  0
 19 43  1  0
 20 44  1  0
 22 45  1  0
 25 46  1  0
 26 47  1  0
M  END
>  <smiles>  (83) 
O=C(NCC(=O)N1CCCC1c1cccnc1)c1ccc2cc(F)ccc2n1

>  <score_type>  (83) 
oracle

>  <origin>  (83) 
autodockgpu

>  <m_score__min__energy>  (83) 
-8.9800000000000004

>  <m_primary>  (83) 
energy

>  <rmsd>  (83) 
2.0928674507677862

>  <m_score__min__rmsd>  (83) 
2.0928674507677862

>  <meeko>  (83) 
{"free_energy": -8.64, "intermolecular_energy": -10.13, "internal_energy": -1.05, "cluster_size": 26, "cluster_id": 2, "rank_in_cluster": 4}

>  <energy>  (83) 
-8.47

>  <cluster_rmsd>  (83) 
0.78

>  <cluster>  (83) 
2

$$$$

     RDKit          3D

 47 50  0  0  0  0  0  0  0  0999 V2000
  141.2130   72.2690  221.4850 O   0  0  0  0  0  0  0  0  0  0  0  0
  140.3470   72.4840  222.4010 C   0  0  0  0  0  0  0  0  0  0  0  0
  139.5130   73.6310  222.3250 N   0  0  0  0  0  0  0  0  0  0  0  0
  139.6740   74.5170  221.2060 C   0  0  0  0  0  0  0  0  0  0  0  0
  139.4580   75.9270  221.5430 C   0  0  0  0  0  0  0  0  0  0  0  0
  138.6290   76.1930  222.4650 O   0  0  0  0  0  0  0  0  0  0  0  0
  140.0950   77.0270  220.9290 N   0  0  0  0  0  0  0  0  0  0  0  0
  139.4940   78.0200  220.0650 C   0  0  0  0  0  0  0  0  0  0  0  0
  140.5890   78.6320  219.2370 C   0  0  0  0  0  0  0  0  0  0  0  0
  141.7980   77.7840  219.5480 C   0  0  0  0  0  0  0  0  0  0  0  0
  141.5060   77.4410  220.9970 C   0  0  1  0  0  0  0  0  0  0  0  0
  141.7360   78.5300  221.9260 C   0  0  0  0  0  0  0  0  0  0  0  0
  141.5140   78.3300  223.2940 C   0  0  0  0  0  0  0  0  0  0  0  0
  141.7330   79.3540  224.2120 C   0  0  0  0  0  0  0  0  0  0  0  0
  142.1740   80.5840  223.7820 C   0  0  0  0  0  0  0  0  0  0  0  0
  142.3840   80.7740  222.4870 N   0  0  0  0  0  0  0  0  0  0  0  0
  142.1790   79.8010  221.5910 C   0  0  0  0  0  0  0  0  0  0  0  0
  140.2230   71.5500  223.5200 C   0  0  0  0  0  0  0  0  0  0  0  0
  139.6120   70.3280  223.3140 C   0  0  0  0  0  0  0  0  0  0  0  0
  139.4760   69.4290  224.3340 C   0  0  0  0  0  0  0  0  0  0  0  0
  139.9720   69.7780  225.5890 C   0  0  0  0  0  0  0  0  0  0  0  0
  139.8470   68.8940  226.6250 C   0  0  0  0  0  0  0  0  0  0  0  0
  140.3450   69.2620  227.8510 C   0  0  0  0  0  0  0  0  0  0  0  0
  140.2520   68.4320  228.9110 F   0  0  0  0  0  0  0  0  0  0  0  0
  140.9610   70.5040  228.0370 C   0  0  0  0  0  0  0  0  0  0  0  0
  141.0870   71.4030  226.9840 C   0  0  0  0  0  0  0  0  0  0  0  0
  140.5780   71.0060  225.7650 C   0  0  0  0  0  0  0  0  0  0  0  0
  140.7060   71.8890  224.7440 N   0  0  0  0  0  0  0  0  0  0  0  0
  138.8090   73.7980  223.0810 H   0  0  0  0  0  0  0  0  0  0  0  0
  140.6966   74.4044  220.8167 H   0  0  0  0  0  0  0  0  0  0  0  0
  138.9125   74.2411  220.4617 H   0  0  0  0  0  0  0  0  0  0  0  0
  138.7502   77.5442  219.4089 H   0  0  0  0  0  0  0  0  0  0  0  0
  138.9866   78.7921  220.6620 H   0  0  0  0  0  0  0  0  0  0  0  0
  140.3428   78.5842  218.1660 H   0  0  0  0  0  0  0  0  0  0  0  0
  140.7480   79.6963  219.4648 H   0  0  0  0  0  0  0  0  0  0  0  0
  141.8411   76.8851  218.9154 H   0  0  0  0  0  0  0  0  0  0  0  0
  142.7675   78.2729  219.3715 H   0  0  0  0  0  0  0  0  0  0  0  0
  142.1799   76.6689  221.3967 H   0  0  0  0  0  0  0  0  0  0  0  0
  141.1616   77.3501  223.6486 H   0  0  0  0  0  0  0  0  0  0  0  0
  141.5530   79.1790  225.2830 H   0  0  0  0  0  0  0  0  0  0  0  0
  142.3496   81.3973  224.5016 H   0  0  0  0  0  0  0  0  0  0  0  0
  142.3725   80.0214  220.5308 H   0  0  0  0  0  0  0  0  0  0  0  0
  139.2294   70.0751  222.3142 H   0  0  0  0  0  0  0  0  0  0  0  0
  138.9886   68.4568  224.1693 H   0  0  0  0  0  0  0  0  0  0  0  0
  139.3620   67.9173  226.4807 H   0  0  0  0  0  0  0  0  0  0  0  0
  141.3510   70.7730  229.0298 H   0  0  0  0  0  0  0  0  0  0  0  0
  141.5690   72.3829  227.1165 H   0  0  0  0  0  0  0  0  0  0  0  0
  1  2  2  0
  2  3  1  0
  3  4  1  0
  4  5  1  0
  5  6  2  0
  5  7  1  0
  7  8  1  0
  8  9  1  0
  9 10  1  0
 10 11  1  0
 11 12  1  0
 12 13  2  0
 13 14  1  0
 14 15  2  0
 15 16  1  0
 16 17  2  0
  2 18  1  0
 18 19  2  0
 19 20  1  0
 20 21  2  0
 21 22  1  0
 22 23  2  0
 23 24  1  0
 23 25  1  0
 25 26  2  0
 26 27  1  0
 27 28  2  0
 11  7  1  0
 17 12  1  0
 28 18  1  0
 27 21  1  0
  3 29  1  0
  4 30  1  0
  4 31  1  0
  8 32  1  0
  8 33  1  0
  9 34  1  0
  9 35  1  0
 10 36  1  0
 10 37  1  0
 11 38  1  1
 13 39  1  0
 14 40  1  0
 15 41  1  0
 17 42  1  0
 19 43  1  0
 20 44  1  0
 22 45  1  0
 25 46  1  0
 26 47  1  0
M  END
>  <smiles>  (84) 
O=C(NCC(=O)N1CCCC1c1cccnc1)c1ccc2cc(F)ccc2n1

>  <score_type>  (84) 
oracle

>  <origin>  (84) 
autodockgpu

>  <m_score__min__energy>  (84) 
-8.9800000000000004

>  <m_primary>  (84) 
energy

>  <rmsd>  (84) 
1.8815191221820258

>  <m_score__min__rmsd>  (84) 
1.8815191221820258

>  <meeko>  (84) 
{"free_energy": -8.47, "intermolecular_energy": -9.96, "internal_energy": -1.32, "cluster_size": 26, "cluster_id": 2, "rank_in_cluster": 15}

>  <energy>  (84) 
-8.47

>  <cluster_rmsd>  (84) 
1.03

>  <cluster>  (84) 
2

$$$$

     RDKit          3D

 47 50  0  0  0  0  0  0  0  0999 V2000
  141.2780   72.1470  221.5160 O   0  0  0  0  0  0  0  0  0  0  0  0
  140.4180   72.4120  222.4240 C   0  0  0  0  0  0  0  0  0  0  0  0
  139.6110   73.5750  222.3110 N   0  0  0  0  0  0  0  0  0  0  0  0
  139.7930   74.4210  221.1640 C   0  0  0  0  0  0  0  0  0  0  0  0
  141.0300   75.2070  221.2110 C   0  0  0  0  0  0  0  0  0  0  0  0
  141.3230   75.7810  222.3030 O   0  0  0  0  0  0  0  0  0  0  0  0
  141.9330   75.3860  220.1410 N   0  0  0  0  0  0  0  0  0  0  0  0
  142.5670   76.6170  219.7220 C   0  0  0  0  0  0  0  0  0  0  0  0
  142.9750   76.4590  218.2850 C   0  0  0  0  0  0  0  0  0  0  0  0
  142.3530   75.1480  217.8720 C   0  0  0  0  0  0  0  0  0  0  0  0
  142.4490   74.3930  219.1840 C   0  0  1  0  0  0  0  0  0  0  0  0
  143.7840   73.9290  219.5100 C   0  0  0  0  0  0  0  0  0  0  0  0
  144.2070   73.9210  220.8440 C   0  0  0  0  0  0  0  0  0  0  0  0
  145.4800   73.4750  221.1890 C   0  0  0  0  0  0  0  0  0  0  0  0
  146.3450   73.0330  220.2140 C   0  0  0  0  0  0  0  0  0  0  0  0
  145.9440   73.0410  218.9500 N   0  0  0  0  0  0  0  0  0  0  0  0
  144.7250   73.4670  218.6010 C   0  0  0  0  0  0  0  0  0  0  0  0
  140.2710   71.5180  223.5730 C   0  0  0  0  0  0  0  0  0  0  0  0
  139.6640   70.2890  223.3970 C   0  0  0  0  0  0  0  0  0  0  0  0
  139.5080   69.4250  224.4440 C   0  0  0  0  0  0  0  0  0  0  0  0
  139.9790   69.8180  225.6960 C   0  0  0  0  0  0  0  0  0  0  0  0
  139.8330   68.9700  226.7590 C   0  0  0  0  0  0  0  0  0  0  0  0
  140.3070   69.3810  227.9810 C   0  0  0  0  0  0  0  0  0  0  0  0
  140.1920   68.5880  229.0670 F   0  0  0  0  0  0  0  0  0  0  0  0
  140.9180   70.6300  228.1370 C   0  0  0  0  0  0  0  0  0  0  0  0
  141.0660   71.4910  227.0560 C   0  0  0  0  0  0  0  0  0  0  0  0
  140.5820   71.0520  225.8410 C   0  0  0  0  0  0  0  0  0  0  0  0
  140.7300   71.8990  224.7930 N   0  0  0  0  0  0  0  0  0  0  0  0
  138.9110   73.7820  223.0600 H   0  0  0  0  0  0  0  0  0  0  0  0
  139.8156   73.7886  220.2643 H   0  0  0  0  0  0  0  0  0  0  0  0
  138.9554   75.1339  221.1499 H   0  0  0  0  0  0  0  0  0  0  0  0
  141.8600   77.4540  219.8201 H   0  0  0  0  0  0  0  0  0  0  0  0
  143.4455   76.8289  220.3492 H   0  0  0  0  0  0  0  0  0  0  0  0
  142.5849   77.2866  217.6744 H   0  0  0  0  0  0  0  0  0  0  0  0
  144.0667   76.4710  218.1507 H   0  0  0  0  0  0  0  0  0  0  0  0
  141.3094   75.2743  217.5480 H   0  0  0  0  0  0  0  0  0  0  0  0
  142.8336   74.6543  217.0145 H   0  0  0  0  0  0  0  0  0  0  0  0
  141.8869   73.4475  219.1733 H   0  0  0  0  0  0  0  0  0  0  0  0
  143.5238   74.2722  221.6314 H   0  0  0  0  0  0  0  0  0  0  0  0
  145.7950   73.4759  222.2429 H   0  0  0  0  0  0  0  0  0  0  0  0
  147.3522   72.6790  220.4788 H   0  0  0  0  0  0  0  0  0  0  0  0
  144.4537   73.4501  217.5351 H   0  0  0  0  0  0  0  0  0  0  0  0
  139.3010   70.0020  222.3991 H   0  0  0  0  0  0  0  0  0  0  0  0
  139.0245   68.4471  224.3031 H   0  0  0  0  0  0  0  0  0  0  0  0
  139.3507   67.9887  226.6391 H   0  0  0  0  0  0  0  0  0  0  0  0
  141.2860   70.9344  229.1279 H   0  0  0  0  0  0  0  0  0  0  0  0
  141.5458   72.4749  227.1640 H   0  0  0  0  0  0  0  0  0  0  0  0
  1  2  2  0
  2  3  1  0
  3  4  1  0
  4  5  1  0
  5  6  2  0
  5  7  1  0
  7  8  1  0
  8  9  1  0
  9 10  1  0
 10 11  1  0
 11 12  1  0
 12 13  2  0
 13 14  1  0
 14 15  2  0
 15 16  1  0
 16 17  2  0
  2 18  1  0
 18 19  2  0
 19 20  1  0
 20 21  2  0
 21 22  1  0
 22 23  2  0
 23 24  1  0
 23 25  1  0
 25 26  2  0
 26 27  1  0
 27 28  2  0
 11  7  1  0
 17 12  1  0
 28 18  1  0
 27 21  1  0
  3 29  1  0
  4 30  1  0
  4 31  1  0
  8 32  1  0
  8 33  1  0
  9 34  1  0
  9 35  1  0
 10 36  1  0
 10 37  1  0
 11 38  1  6
 13 39  1  0
 14 40  1  0
 15 41  1  0
 17 42  1  0
 19 43  1  0
 20 44  1  0
 22 45  1  0
 25 46  1  0
 26 47  1  0
M  END
>  <smiles>  (85) 
O=C(NCC(=O)N1CCCC1c1cccnc1)c1ccc2cc(F)ccc2n1

>  <score_type>  (85) 
oracle

>  <origin>  (85) 
autodockgpu

>  <m_score__min__energy>  (85) 
-8.9800000000000004

>  <m_primary>  (85) 
energy

>  <rmsd>  (85) 
2.2945219430866546

>  <m_score__min__rmsd>  (85) 
2.2945219430866546

>  <meeko>  (85) 
{"free_energy": -8.89, "intermolecular_energy": -10.38, "internal_energy": -1.48, "cluster_size": 19, "cluster_id": 1, "rank_in_cluster": 11}

>  <energy>  (85) 
-8.46

>  <cluster_rmsd>  (85) 
1.04

>  <cluster>  (85) 
2

$$$$

     RDKit          3D

 47 50  0  0  0  0  0  0  0  0999 V2000
  140.1320   73.5530  222.3430 O   0  0  0  0  0  0  0  0  0  0  0  0
  140.5090   72.3320  222.3360 C   0  0  0  0  0  0  0  0  0  0  0  0
  141.1420   71.7980  221.1820 N   0  0  0  0  0  0  0  0  0  0  0  0
  141.3390   72.6640  220.0530 C   0  0  0  0  0  0  0  0  0  0  0  0
  142.5200   73.5230  220.1770 C   0  0  0  0  0  0  0  0  0  0  0  0
  142.3320   74.7700  220.3090 O   0  0  0  0  0  0  0  0  0  0  0  0
  143.8620   73.0850  220.1630 N   0  0  0  0  0  0  0  0  0  0  0  0
  144.8410   73.2150  221.2210 C   0  0  0  0  0  0  0  0  0  0  0  0
  146.2060   73.1280  220.5980 C   0  0  0  0  0  0  0  0  0  0  0  0
  145.9310   73.1430  219.1140 C   0  0  0  0  0  0  0  0  0  0  0  0
  144.6060   72.4030  219.0910 C   0  0  1  0  0  0  0  0  0  0  0  0
  144.7180   70.9730  219.2950 C   0  0  0  0  0  0  0  0  0  0  0  0
  143.5640   70.2150  219.5300 C   0  0  0  0  0  0  0  0  0  0  0  0
  143.6370   68.8380  219.7230 C   0  0  0  0  0  0  0  0  0  0  0  0
  144.8560   68.2000  219.6860 C   0  0  0  0  0  0  0  0  0  0  0  0
  145.9490   68.9170  219.4650 N   0  0  0  0  0  0  0  0  0  0  0  0
  145.8960   70.2400  219.2770 C   0  0  0  0  0  0  0  0  0  0  0  0
  140.2850   71.4920  223.5130 C   0  0  0  0  0  0  0  0  0  0  0  0
  139.6050   70.2980  223.3700 C   0  0  0  0  0  0  0  0  0  0  0  0
  139.3750   69.4860  224.4450 C   0  0  0  0  0  0  0  0  0  0  0  0
  139.8470   69.8950  225.6910 C   0  0  0  0  0  0  0  0  0  0  0  0
  139.6290   69.0990  226.7810 C   0  0  0  0  0  0  0  0  0  0  0  0
  140.1060   69.5260  227.9970 C   0  0  0  0  0  0  0  0  0  0  0  0
  139.9210   68.7830  229.1090 F   0  0  0  0  0  0  0  0  0  0  0  0
  140.7920   70.7380  228.1190 C   0  0  0  0  0  0  0  0  0  0  0  0
  141.0140   71.5480  227.0110 C   0  0  0  0  0  0  0  0  0  0  0  0
  140.5250   71.0940  225.8030 C   0  0  0  0  0  0  0  0  0  0  0  0
  140.7450   71.8890  224.7280 N   0  0  0  0  0  0  0  0  0  0  0  0
  141.4460   70.7970  221.1870 H   0  0  0  0  0  0  0  0  0  0  0  0
  141.4530   72.0425  219.1526 H   0  0  0  0  0  0  0  0  0  0  0  0
  140.4617   73.3249  219.9939 H   0  0  0  0  0  0  0  0  0  0  0  0
  144.7208   74.1855  221.7247 H   0  0  0  0  0  0  0  0  0  0  0  0
  144.7080   72.4178  221.9672 H   0  0  0  0  0  0  0  0  0  0  0  0
  146.8247   73.9894  220.8898 H   0  0  0  0  0  0  0  0  0  0  0  0
  146.7610   72.2334  220.9170 H   0  0  0  0  0  0  0  0  0  0  0  0
  145.8344   74.1677  218.7259 H   0  0  0  0  0  0  0  0  0  0  0  0
  146.7217   72.7022  218.4892 H   0  0  0  0  0  0  0  0  0  0  0  0
  144.1118   72.4433  218.1091 H   0  0  0  0  0  0  0  0  0  0  0  0
  142.5849   70.7152  219.5626 H   0  0  0  0  0  0  0  0  0  0  0  0
  142.7194   68.2594  219.9053 H   0  0  0  0  0  0  0  0  0  0  0  0
  144.9223   67.1125  219.8374 H   0  0  0  0  0  0  0  0  0  0  0  0
  146.8391   70.7772  219.0981 H   0  0  0  0  0  0  0  0  0  0  0  0
  139.2432   69.9963  222.3760 H   0  0  0  0  0  0  0  0  0  0  0  0
  138.8324   68.5360  224.3301 H   0  0  0  0  0  0  0  0  0  0  0  0
  139.0882   68.1457  226.6875 H   0  0  0  0  0  0  0  0  0  0  0  0
  141.1613   71.0552  229.1054 H   0  0  0  0  0  0  0  0  0  0  0  0
  141.5528   72.5035  227.0932 H   0  0  0  0  0  0  0  0  0  0  0  0
  1  2  2  0
  2  3  1  0
  3  4  1  0
  4  5  1  0
  5  6  2  0
  5  7  1  0
  7  8  1  0
  8  9  1  0
  9 10  1  0
 10 11  1  0
 11 12  1  0
 12 13  2  0
 13 14  1  0
 14 15  2  0
 15 16  1  0
 16 17  2  0
  2 18  1  0
 18 19  2  0
 19 20  1  0
 20 21  2  0
 21 22  1  0
 22 23  2  0
 23 24  1  0
 23 25  1  0
 25 26  2  0
 26 27  1  0
 27 28  2  0
 11  7  1  0
 17 12  1  0
 28 18  1  0
 27 21  1  0
  3 29  1  0
  4 30  1  0
  4 31  1  0
  8 32  1  0
  8 33  1  0
  9 34  1  0
  9 35  1  0
 10 36  1  0
 10 37  1  0
 11 38  1  6
 13 39  1  0
 14 40  1  0
 15 41  1  0
 17 42  1  0
 19 43  1  0
 20 44  1  0
 22 45  1  0
 25 46  1  0
 26 47  1  0
M  END
>  <smiles>  (86) 
O=C(NCC(=O)N1CCCC1c1cccnc1)c1ccc2cc(F)ccc2n1

>  <score_type>  (86) 
oracle

>  <origin>  (86) 
autodockgpu

>  <m_score__min__energy>  (86) 
-8.9800000000000004

>  <m_primary>  (86) 
energy

>  <rmsd>  (86) 
4.171982092177403

>  <m_score__min__rmsd>  (86) 
4.171982092177403

>  <meeko>  (86) 
{"free_energy": -8.06, "intermolecular_energy": -9.55, "internal_energy": -1.29, "cluster_size": 2, "cluster_id": 3, "rank_in_cluster": 2}

>  <energy>  (86) 
-8.44

>  <cluster_rmsd>  (86) 
0.99

>  <cluster>  (86) 
2

$$$$

     RDKit          3D

 47 50  0  0  0  0  0  0  0  0999 V2000
  141.3940   72.5440  221.7220 O   0  0  0  0  0  0  0  0  0  0  0  0
  140.3810   72.6020  222.5000 C   0  0  0  0  0  0  0  0  0  0  0  0
  139.4140   73.6260  222.3200 N   0  0  0  0  0  0  0  0  0  0  0  0
  139.6120   74.5690  221.2550 C   0  0  0  0  0  0  0  0  0  0  0  0
  139.5450   75.9660  221.6960 C   0  0  0  0  0  0  0  0  0  0  0  0
  138.9210   76.2170  222.7710 O   0  0  0  0  0  0  0  0  0  0  0  0
  140.1180   77.0690  221.0250 N   0  0  0  0  0  0  0  0  0  0  0  0
  139.4460   78.0210  220.1670 C   0  0  0  0  0  0  0  0  0  0  0  0
  140.4810   78.6440  219.2730 C   0  0  0  0  0  0  0  0  0  0  0  0
  141.7280   77.8400  219.5450 C   0  0  0  0  0  0  0  0  0  0  0  0
  141.5170   77.5260  221.0140 C   0  0  1  0  0  0  0  0  0  0  0  0
  141.7580   78.6440  221.9040 C   0  0  0  0  0  0  0  0  0  0  0  0
  141.5600   78.4870  223.2810 C   0  0  0  0  0  0  0  0  0  0  0  0
  141.7890   79.5400  224.1630 C   0  0  0  0  0  0  0  0  0  0  0  0
  142.2180   80.7580  223.6870 C   0  0  0  0  0  0  0  0  0  0  0  0
  142.4050   80.9070  222.3830 N   0  0  0  0  0  0  0  0  0  0  0  0
  142.1890   79.9060  221.5220 C   0  0  0  0  0  0  0  0  0  0  0  0
  140.2250   71.6150  223.5700 C   0  0  0  0  0  0  0  0  0  0  0  0
  139.5750   70.4260  223.3010 C   0  0  0  0  0  0  0  0  0  0  0  0
  139.4100   69.4800  224.2720 C   0  0  0  0  0  0  0  0  0  0  0  0
  139.9150   69.7460  225.5430 C   0  0  0  0  0  0  0  0  0  0  0  0
  139.7610   68.8140  226.5320 C   0  0  0  0  0  0  0  0  0  0  0  0
  140.2700   69.1020  227.7750 C   0  0  0  0  0  0  0  0  0  0  0  0
  140.1480   68.2210  228.7900 F   0  0  0  0  0  0  0  0  0  0  0  0
  140.9240   70.3120  228.0260 C   0  0  0  0  0  0  0  0  0  0  0  0
  141.0810   71.2600  227.0210 C   0  0  0  0  0  0  0  0  0  0  0  0
  140.5610   70.9440  225.7820 C   0  0  0  0  0  0  0  0  0  0  0  0
  140.7180   71.8740  224.8090 N   0  0  0  0  0  0  0  0  0  0  0  0
  138.5890   73.6640  222.9630 H   0  0  0  0  0  0  0  0  0  0  0  0
  140.6022   74.3905  220.8105 H   0  0  0  0  0  0  0  0  0  0  0  0
  138.7984   74.4171  220.5305 H   0  0  0  0  0  0  0  0  0  0  0  0
  138.6873   77.5064  219.5591 H   0  0  0  0  0  0  0  0  0  0  0  0
  138.9433   78.7926  220.7687 H   0  0  0  0  0  0  0  0  0  0  0  0
  140.1856   78.5624  218.2165 H   0  0  0  0  0  0  0  0  0  0  0  0
  140.6182   79.7179  219.4677 H   0  0  0  0  0  0  0  0  0  0  0  0
  141.7676   76.9268  218.9330 H   0  0  0  0  0  0  0  0  0  0  0  0
  142.6726   78.3522  219.3096 H   0  0  0  0  0  0  0  0  0  0  0  0
  142.2329   76.7848  221.3988 H   0  0  0  0  0  0  0  0  0  0  0  0
  141.2184   77.5173  223.6721 H   0  0  0  0  0  0  0  0  0  0  0  0
  141.6268   79.3981  225.2417 H   0  0  0  0  0  0  0  0  0  0  0  0
  142.4027   81.5943  224.3773 H   0  0  0  0  0  0  0  0  0  0  0  0
  142.3627   80.0941  220.4522 H   0  0  0  0  0  0  0  0  0  0  0  0
  139.1846   70.2385  222.2898 H   0  0  0  0  0  0  0  0  0  0  0  0
  138.8924   68.5336  224.0565 H   0  0  0  0  0  0  0  0  0  0  0  0
  139.2449   67.8622  226.3379 H   0  0  0  0  0  0  0  0  0  0  0  0
  141.3195   70.5167  229.0318 H   0  0  0  0  0  0  0  0  0  0  0  0
  141.5946   72.2153  227.2044 H   0  0  0  0  0  0  0  0  0  0  0  0
  1  2  2  0
  2  3  1  0
  3  4  1  0
  4  5  1  0
  5  6  2  0
  5  7  1  0
  7  8  1  0
  8  9  1  0
  9 10  1  0
 10 11  1  0
 11 12  1  0
 12 13  2  0
 13 14  1  0
 14 15  2  0
 15 16  1  0
 16 17  2  0
  2 18  1  0
 18 19  2  0
 19 20  1  0
 20 21  2  0
 21 22  1  0
 22 23  2  0
 23 24  1  0
 23 25  1  0
 25 26  2  0
 26 27  1  0
 27 28  2  0
 11  7  1  0
 17 12  1  0
 28 18  1  0
 27 21  1  0
  3 29  1  0
  4 30  1  0
  4 31  1  0
  8 32  1  0
  8 33  1  0
  9 34  1  0
  9 35  1  0
 10 36  1  0
 10 37  1  0
 11 38  1  1
 13 39  1  0
 14 40  1  0
 15 41  1  0
 17 42  1  0
 19 43  1  0
 20 44  1  0
 22 45  1  0
 25 46  1  0
 26 47  1  0
M  END
>  <smiles>  (87) 
O=C(NCC(=O)N1CCCC1c1cccnc1)c1ccc2cc(F)ccc2n1

>  <score_type>  (87) 
oracle

>  <origin>  (87) 
autodockgpu

>  <m_score__min__energy>  (87) 
-8.9800000000000004

>  <m_primary>  (87) 
energy

>  <rmsd>  (87) 
1.909114944769456

>  <m_score__min__rmsd>  (87) 
1.909114944769456

>  <meeko>  (87) 
{"free_energy": -8.48, "intermolecular_energy": -9.97, "internal_energy": -1.24, "cluster_size": 26, "cluster_id": 2, "rank_in_cluster": 13}

>  <energy>  (87) 
-8.44

>  <cluster_rmsd>  (87) 
1.06

>  <cluster>  (87) 
2

$$$$

     RDKit          3D

 47 50  0  0  0  0  0  0  0  0999 V2000
  141.3540   72.2420  221.6650 O   0  0  0  0  0  0  0  0  0  0  0  0
  140.4160   72.4420  222.5100 C   0  0  0  0  0  0  0  0  0  0  0  0
  139.5340   73.5410  222.3350 N   0  0  0  0  0  0  0  0  0  0  0  0
  139.7320   74.3970  221.1980 C   0  0  0  0  0  0  0  0  0  0  0  0
  140.9770   75.1680  221.2600 C   0  0  0  0  0  0  0  0  0  0  0  0
  141.2120   75.8270  222.3180 O   0  0  0  0  0  0  0  0  0  0  0  0
  141.9490   75.2450  220.2390 N   0  0  0  0  0  0  0  0  0  0  0  0
  142.6350   76.4280  219.7650 C   0  0  0  0  0  0  0  0  0  0  0  0
  143.1280   76.1470  218.3740 C   0  0  0  0  0  0  0  0  0  0  0  0
  142.5050   74.8170  218.0280 C   0  0  0  0  0  0  0  0  0  0  0  0
  142.5030   74.1700  219.4000 C   0  0  1  0  0  0  0  0  0  0  0  0
  143.8040   73.7110  219.8450 C   0  0  0  0  0  0  0  0  0  0  0  0
  144.3860   72.5900  219.2430 C   0  0  0  0  0  0  0  0  0  0  0  0
  145.6370   72.1290  219.6440 C   0  0  0  0  0  0  0  0  0  0  0  0
  146.3220   72.7760  220.6470 C   0  0  0  0  0  0  0  0  0  0  0  0
  145.7710   73.8380  221.2180 N   0  0  0  0  0  0  0  0  0  0  0  0
  144.5700   74.2940  220.8450 C   0  0  0  0  0  0  0  0  0  0  0  0
  140.2570   71.5390  223.6510 C   0  0  0  0  0  0  0  0  0  0  0  0
  139.6200   70.3270  223.4680 C   0  0  0  0  0  0  0  0  0  0  0  0
  139.4510   69.4570  224.5080 C   0  0  0  0  0  0  0  0  0  0  0  0
  139.9410   69.8250  225.7590 C   0  0  0  0  0  0  0  0  0  0  0  0
  139.7850   68.9710  226.8160 C   0  0  0  0  0  0  0  0  0  0  0  0
  140.2780   69.3580  228.0380 C   0  0  0  0  0  0  0  0  0  0  0  0
  140.1530   68.5570  229.1170 F   0  0  0  0  0  0  0  0  0  0  0  0
  140.9200   70.5900  228.2000 C   0  0  0  0  0  0  0  0  0  0  0  0
  141.0790   71.4590  227.1270 C   0  0  0  0  0  0  0  0  0  0  0  0
  140.5750   71.0440  225.9120 C   0  0  0  0  0  0  0  0  0  0  0  0
  140.7350   71.8970  224.8710 N   0  0  0  0  0  0  0  0  0  0  0  0
  138.7700   73.6960  223.0330 H   0  0  0  0  0  0  0  0  0  0  0  0
  139.7524   73.7739  220.2917 H   0  0  0  0  0  0  0  0  0  0  0  0
  138.9026   75.1195  221.1870 H   0  0  0  0  0  0  0  0  0  0  0  0
  141.9418   77.2820  219.7509 H   0  0  0  0  0  0  0  0  0  0  0  0
  143.4769   76.6754  220.4282 H   0  0  0  0  0  0  0  0  0  0  0  0
  142.7945   76.9286  217.6755 H   0  0  0  0  0  0  0  0  0  0  0  0
  144.2260   76.1300  218.3092 H   0  0  0  0  0  0  0  0  0  0  0  0
  141.4866   74.9335  217.6289 H   0  0  0  0  0  0  0  0  0  0  0  0
  143.0272   74.2475  217.2451 H   0  0  0  0  0  0  0  0  0  0  0  0
  141.9224   73.2362  219.4305 H   0  0  0  0  0  0  0  0  0  0  0  0
  143.8469   72.0649  218.4407 H   0  0  0  0  0  0  0  0  0  0  0  0
  146.0785   71.2463  219.1584 H   0  0  0  0  0  0  0  0  0  0  0  0
  147.3107   72.4178  220.9697 H   0  0  0  0  0  0  0  0  0  0  0  0
  144.1675   75.1794  221.3589 H   0  0  0  0  0  0  0  0  0  0  0  0
  139.2431   70.0582  222.4701 H   0  0  0  0  0  0  0  0  0  0  0  0
  138.9422   68.4928  224.3614 H   0  0  0  0  0  0  0  0  0  0  0  0
  139.2793   68.0022  226.6909 H   0  0  0  0  0  0  0  0  0  0  0  0
  141.3044   70.8751  229.1904 H   0  0  0  0  0  0  0  0  0  0  0  0
  141.5823   72.4304  227.2412 H   0  0  0  0  0  0  0  0  0  0  0  0
  1  2  2  0
  2  3  1  0
  3  4  1  0
  4  5  1  0
  5  6  2  0
  5  7  1  0
  7  8  1  0
  8  9  1  0
  9 10  1  0
 10 11  1  0
 11 12  1  0
 12 13  2  0
 13 14  1  0
 14 15  2  0
 15 16  1  0
 16 17  2  0
  2 18  1  0
 18 19  2  0
 19 20  1  0
 20 21  2  0
 21 22  1  0
 22 23  2  0
 23 24  1  0
 23 25  1  0
 25 26  2  0
 26 27  1  0
 27 28  2  0
 11  7  1  0
 17 12  1  0
 28 18  1  0
 27 21  1  0
  3 29  1  0
  4 30  1  0
  4 31  1  0
  8 32  1  0
  8 33  1  0
  9 34  1  0
  9 35  1  0
 10 36  1  0
 10 37  1  0
 11 38  1  6
 13 39  1  0
 14 40  1  0
 15 41  1  0
 17 42  1  0
 19 43  1  0
 20 44  1  0
 22 45  1  0
 25 46  1  0
 26 47  1  0
M  END
>  <smiles>  (88) 
O=C(NCC(=O)N1CCCC1c1cccnc1)c1ccc2cc(F)ccc2n1

>  <score_type>  (88) 
oracle

>  <origin>  (88) 
autodockgpu

>  <m_score__min__energy>  (88) 
-8.9800000000000004

>  <m_primary>  (88) 
energy

>  <rmsd>  (88) 
2.3540889605889617

>  <m_score__min__rmsd>  (88) 
2.3540889605889617

>  <meeko>  (88) 
{"free_energy": -8.19, "intermolecular_energy": -9.68, "internal_energy": -1.35, "cluster_size": 19, "cluster_id": 1, "rank_in_cluster": 15}

>  <energy>  (88) 
-8.42

>  <cluster_rmsd>  (88) 
1.09

>  <cluster>  (88) 
2

$$$$

     RDKit          3D

 47 50  0  0  0  0  0  0  0  0999 V2000
  141.2810   72.3750  221.6770 O   0  0  0  0  0  0  0  0  0  0  0  0
  140.3240   72.4980  222.5160 C   0  0  0  0  0  0  0  0  0  0  0  0
  139.3820   73.5490  222.3610 N   0  0  0  0  0  0  0  0  0  0  0  0
  139.5420   74.4460  221.2500 C   0  0  0  0  0  0  0  0  0  0  0  0
  139.3910   75.8580  221.6170 C   0  0  0  0  0  0  0  0  0  0  0  0
  138.5350   76.1490  222.5050 O   0  0  0  0  0  0  0  0  0  0  0  0
  140.1200   76.9340  221.0640 N   0  0  0  0  0  0  0  0  0  0  0  0
  139.7100   77.8140  219.9910 C   0  0  0  0  0  0  0  0  0  0  0  0
  140.9500   78.4110  219.3870 C   0  0  0  0  0  0  0  0  0  0  0  0
  142.0770   77.6590  220.0520 C   0  0  0  0  0  0  0  0  0  0  0  0
  141.4600   77.4280  221.4180 C   0  0  1  0  0  0  0  0  0  0  0  0
  141.4290   78.6040  222.2660 C   0  0  0  0  0  0  0  0  0  0  0  0
  142.5650   79.4170  222.3630 C   0  0  0  0  0  0  0  0  0  0  0  0
  142.5630   80.5560  223.1630 C   0  0  0  0  0  0  0  0  0  0  0  0
  141.4360   80.9000  223.8740 C   0  0  0  0  0  0  0  0  0  0  0  0
  140.3610   80.1290  223.7830 N   0  0  0  0  0  0  0  0  0  0  0  0
  140.3450   79.0310  223.0190 C   0  0  0  0  0  0  0  0  0  0  0  0
  140.2060   71.5560  223.6300 C   0  0  0  0  0  0  0  0  0  0  0  0
  139.6040   70.3310  223.4160 C   0  0  0  0  0  0  0  0  0  0  0  0
  139.4750   69.4240  224.4300 C   0  0  0  0  0  0  0  0  0  0  0  0
  139.9670   69.7690  225.6880 C   0  0  0  0  0  0  0  0  0  0  0  0
  139.8490   68.8780  226.7190 C   0  0  0  0  0  0  0  0  0  0  0  0
  140.3430   69.2430  227.9470 C   0  0  0  0  0  0  0  0  0  0  0  0
  140.2550   68.4050  229.0020 F   0  0  0  0  0  0  0  0  0  0  0  0
  140.9490   70.4880  228.1410 C   0  0  0  0  0  0  0  0  0  0  0  0
  141.0690   71.3940  227.0940 C   0  0  0  0  0  0  0  0  0  0  0  0
  140.5640   71.0010  225.8710 C   0  0  0  0  0  0  0  0  0  0  0  0
  140.6860   71.8910  224.8560 N   0  0  0  0  0  0  0  0  0  0  0  0
  138.6040   73.6400  223.0540 H   0  0  0  0  0  0  0  0  0  0  0  0
  140.5467   74.3011  220.8263 H   0  0  0  0  0  0  0  0  0  0  0  0
  138.7484   74.2114  220.5254 H   0  0  0  0  0  0  0  0  0  0  0  0
  139.1599   77.2431  219.2284 H   0  0  0  0  0  0  0  0  0  0  0  0
  139.0500   78.6060  220.3747 H   0  0  0  0  0  0  0  0  0  0  0  0
  140.9670   78.2585  218.2978 H   0  0  0  0  0  0  0  0  0  0  0  0
  141.0160   79.4980  219.5423 H   0  0  0  0  0  0  0  0  0  0  0  0
  142.2975   76.7123  219.5370 H   0  0  0  0  0  0  0  0  0  0  0  0
  143.0449   78.1816  220.0602 H   0  0  0  0  0  0  0  0  0  0  0  0
  142.0438   76.7305  222.0366 H   0  0  0  0  0  0  0  0  0  0  0  0
  143.4715   79.1518  221.7992 H   0  0  0  0  0  0  0  0  0  0  0  0
  143.4646   81.1829  223.2271 H   0  0  0  0  0  0  0  0  0  0  0  0
  141.4271   81.7995  224.5072 H   0  0  0  0  0  0  0  0  0  0  0  0
  139.4217   78.4340  222.9861 H   0  0  0  0  0  0  0  0  0  0  0  0
  139.2229   70.0821  222.4146 H   0  0  0  0  0  0  0  0  0  0  0  0
  138.9962   68.4487  224.2584 H   0  0  0  0  0  0  0  0  0  0  0  0
  139.3724   67.8980  226.5688 H   0  0  0  0  0  0  0  0  0  0  0  0
  141.3360   70.7540  229.1357 H   0  0  0  0  0  0  0  0  0  0  0  0
  141.5434   72.3766  227.2332 H   0  0  0  0  0  0  0  0  0  0  0  0
  1  2  2  0
  2  3  1  0
  3  4  1  0
  4  5  1  0
  5  6  2  0
  5  7  1  0
  7  8  1  0
  8  9  1  0
  9 10  1  0
 10 11  1  0
 11 12  1  0
 12 13  2  0
 13 14  1  0
 14 15  2  0
 15 16  1  0
 16 17  2  0
  2 18  1  0
 18 19  2  0
 19 20  1  0
 20 21  2  0
 21 22  1  0
 22 23  2  0
 23 24  1  0
 23 25  1  0
 25 26  2  0
 26 27  1  0
 27 28  2  0
 11  7  1  0
 17 12  1  0
 28 18  1  0
 27 21  1  0
  3 29  1  0
  4 30  1  0
  4 31  1  0
  8 32  1  0
  8 33  1  0
  9 34  1  0
  9 35  1  0
 10 36  1  0
 10 37  1  0
 11 38  1  1
 13 39  1  0
 14 40  1  0
 15 41  1  0
 17 42  1  0
 19 43  1  0
 20 44  1  0
 22 45  1  0
 25 46  1  0
 26 47  1  0
M  END
>  <smiles>  (89) 
O=C(NCC(=O)N1CCCC1c1cccnc1)c1ccc2cc(F)ccc2n1

>  <score_type>  (89) 
oracle

>  <origin>  (89) 
autodockgpu

>  <m_score__min__energy>  (89) 
-8.9800000000000004

>  <m_primary>  (89) 
energy

>  <rmsd>  (89) 
1.9079343613366866

>  <m_score__min__rmsd>  (89) 
1.9079343613366866

>  <meeko>  (89) 
{"free_energy": -8.51, "intermolecular_energy": -10.0, "internal_energy": -1.28, "cluster_size": 26, "cluster_id": 2, "rank_in_cluster": 9}

>  <energy>  (89) 
-8.38

>  <cluster_rmsd>  (89) 
1.06

>  <cluster>  (89) 
2

$$$$

     RDKit          3D

 47 50  0  0  0  0  0  0  0  0999 V2000
  141.4050   72.1230  221.5810 O   0  0  0  0  0  0  0  0  0  0  0  0
  140.4430   72.3590  222.3900 C   0  0  0  0  0  0  0  0  0  0  0  0
  139.5760   73.4580  222.1500 N   0  0  0  0  0  0  0  0  0  0  0  0
  139.8140   74.2710  220.9900 C   0  0  0  0  0  0  0  0  0  0  0  0
  140.9790   75.1510  221.1260 C   0  0  0  0  0  0  0  0  0  0  0  0
  141.1430   75.7480  222.2320 O   0  0  0  0  0  0  0  0  0  0  0  0
  141.9450   75.3970  220.1260 N   0  0  0  0  0  0  0  0  0  0  0  0
  142.6220   76.6450  219.8460 C   0  0  0  0  0  0  0  0  0  0  0  0
  143.1090   76.5960  218.4250 C   0  0  0  0  0  0  0  0  0  0  0  0
  142.4910   75.3350  217.8720 C   0  0  0  0  0  0  0  0  0  0  0  0
  142.4990   74.4750  219.1210 C   0  0  1  0  0  0  0  0  0  0  0  0
  143.8050   73.9580  219.4810 C   0  0  0  0  0  0  0  0  0  0  0  0
  144.1960   73.9420  220.8260 C   0  0  0  0  0  0  0  0  0  0  0  0
  145.4410   73.4460  221.2040 C   0  0  0  0  0  0  0  0  0  0  0  0
  146.3090   72.9610  220.2520 C   0  0  0  0  0  0  0  0  0  0  0  0
  145.9390   72.9770  218.9790 N   0  0  0  0  0  0  0  0  0  0  0  0
  144.7470   73.4500  218.5990 C   0  0  0  0  0  0  0  0  0  0  0  0
  140.2440   71.4990  223.5570 C   0  0  0  0  0  0  0  0  0  0  0  0
  139.5710   70.3020  223.4050 C   0  0  0  0  0  0  0  0  0  0  0  0
  139.3640   69.4710  224.4690 C   0  0  0  0  0  0  0  0  0  0  0  0
  139.8510   69.8640  225.7150 C   0  0  0  0  0  0  0  0  0  0  0  0
  139.6560   69.0490  226.7960 C   0  0  0  0  0  0  0  0  0  0  0  0
  140.1470   69.4600  228.0110 C   0  0  0  0  0  0  0  0  0  0  0  0
  139.9850   68.6980  229.1130 F   0  0  0  0  0  0  0  0  0  0  0  0
  140.8250   70.6760  228.1420 C   0  0  0  0  0  0  0  0  0  0  0  0
  141.0230   71.5050  227.0440 C   0  0  0  0  0  0  0  0  0  0  0  0
  140.5200   71.0670  225.8360 C   0  0  0  0  0  0  0  0  0  0  0  0
  140.7180   71.8810  224.7710 N   0  0  0  0  0  0  0  0  0  0  0  0
  138.7930   73.6420  222.8190 H   0  0  0  0  0  0  0  0  0  0  0  0
  139.9760   73.6085  220.1269 H   0  0  0  0  0  0  0  0  0  0  0  0
  138.9327   74.9161  220.8586 H   0  0  0  0  0  0  0  0  0  0  0  0
  141.9242   77.4858  219.9734 H   0  0  0  0  0  0  0  0  0  0  0  0
  143.4665   76.7868  220.5364 H   0  0  0  0  0  0  0  0  0  0  0  0
  142.7671   77.4780  217.8636 H   0  0  0  0  0  0  0  0  0  0  0  0
  144.2066   76.5971  218.3528 H   0  0  0  0  0  0  0  0  0  0  0  0
  141.4700   75.5083  217.5011 H   0  0  0  0  0  0  0  0  0  0  0  0
  143.0126   74.9023  217.0056 H   0  0  0  0  0  0  0  0  0  0  0  0
  141.9226   73.5457  219.0018 H   0  0  0  0  0  0  0  0  0  0  0  0
  143.5096   74.3268  221.5947 H   0  0  0  0  0  0  0  0  0  0  0  0
  145.7313   73.4417  222.2650 H   0  0  0  0  0  0  0  0  0  0  0  0
  147.2938   72.5665  220.5428 H   0  0  0  0  0  0  0  0  0  0  0  0
  144.5001   73.4352  217.5272 H   0  0  0  0  0  0  0  0  0  0  0  0
  139.1961   70.0138  222.4118 H   0  0  0  0  0  0  0  0  0  0  0  0
  138.8280   68.5183  224.3463 H   0  0  0  0  0  0  0  0  0  0  0  0
  139.1218   68.0927  226.6952 H   0  0  0  0  0  0  0  0  0  0  0  0
  141.2069   70.9807  229.1276 H   0  0  0  0  0  0  0  0  0  0  0  0
  141.5548   72.4637  227.1337 H   0  0  0  0  0  0  0  0  0  0  0  0
  1  2  2  0
  2  3  1  0
  3  4  1  0
  4  5  1  0
  5  6  2  0
  5  7  1  0
  7  8  1  0
  8  9  1  0
  9 10  1  0
 10 11  1  0
 11 12  1  0
 12 13  2  0
 13 14  1  0
 14 15  2  0
 15 16  1  0
 16 17  2  0
  2 18  1  0
 18 19  2  0
 19 20  1  0
 20 21  2  0
 21 22  1  0
 22 23  2  0
 23 24  1  0
 23 25  1  0
 25 26  2  0
 26 27  1  0
 27 28  2  0
 11  7  1  0
 17 12  1  0
 28 18  1  0
 27 21  1  0
  3 29  1  0
  4 30  1  0
  4 31  1  0
  8 32  1  0
  8 33  1  0
  9 34  1  0
  9 35  1  0
 10 36  1  0
 10 37  1  0
 11 38  1  6
 13 39  1  0
 14 40  1  0
 15 41  1  0
 17 42  1  0
 19 43  1  0
 20 44  1  0
 22 45  1  0
 25 46  1  0
 26 47  1  0
M  END
>  <smiles>  (90) 
O=C(NCC(=O)N1CCCC1c1cccnc1)c1ccc2cc(F)ccc2n1

>  <score_type>  (90) 
oracle

>  <origin>  (90) 
autodockgpu

>  <m_score__min__energy>  (90) 
-8.9800000000000004

>  <m_primary>  (90) 
energy

>  <rmsd>  (90) 
2.3156334987169704

>  <m_score__min__rmsd>  (90) 
2.3156334987169704

>  <meeko>  (90) 
{"free_energy": -8.98, "intermolecular_energy": -10.48, "internal_energy": -1.45, "cluster_size": 19, "cluster_id": 1, "rank_in_cluster": 1}

>  <energy>  (90) 
-8.37

>  <cluster_rmsd>  (90) 
0.86

>  <cluster>  (90) 
2

$$$$

     RDKit          3D

 47 50  0  0  0  0  0  0  0  0999 V2000
  139.5470   71.3090  221.1870 O   0  0  0  0  0  0  0  0  0  0  0  0
  139.5930   71.8510  222.3450 C   0  0  0  0  0  0  0  0  0  0  0  0
  139.5420   73.2650  222.4630 N   0  0  0  0  0  0  0  0  0  0  0  0
  139.4370   74.0440  221.2600 C   0  0  0  0  0  0  0  0  0  0  0  0
  140.7320   74.3120  220.6260 C   0  0  0  0  0  0  0  0  0  0  0  0
  141.2410   75.4620  220.7850 O   0  0  0  0  0  0  0  0  0  0  0  0
  141.4710   73.3960  219.8460 N   0  0  0  0  0  0  0  0  0  0  0  0
  141.5130   73.3040  218.4020 C   0  0  0  0  0  0  0  0  0  0  0  0
  141.9510   71.9130  218.0420 C   0  0  0  0  0  0  0  0  0  0  0  0
  141.9550   71.1800  219.3610 C   0  0  0  0  0  0  0  0  0  0  0  0
  142.3650   72.3120  220.2830 C   0  0  1  0  0  0  0  0  0  0  0  0
  143.7690   72.6660  220.2060 C   0  0  0  0  0  0  0  0  0  0  0  0
  144.2280   73.8210  220.8500 C   0  0  0  0  0  0  0  0  0  0  0  0
  145.5720   74.1840  220.7990 C   0  0  0  0  0  0  0  0  0  0  0  0
  146.4720   73.4040  220.1100 C   0  0  0  0  0  0  0  0  0  0  0  0
  146.0370   72.3110  219.4990 N   0  0  0  0  0  0  0  0  0  0  0  0
  144.7500   71.9470  219.5370 C   0  0  0  0  0  0  0  0  0  0  0  0
  139.6990   71.0110  223.5380 C   0  0  0  0  0  0  0  0  0  0  0  0
  139.2430   69.7070  223.4880 C   0  0  0  0  0  0  0  0  0  0  0  0
  139.3240   68.8920  224.5810 C   0  0  0  0  0  0  0  0  0  0  0  0
  139.8800   69.4100  225.7500 C   0  0  0  0  0  0  0  0  0  0  0  0
  139.9710   68.6130  226.8570 C   0  0  0  0  0  0  0  0  0  0  0  0
  140.5240   69.1490  227.9940 C   0  0  0  0  0  0  0  0  0  0  0  0
  140.6400   68.4100  229.1180 F   0  0  0  0  0  0  0  0  0  0  0  0
  140.9780   70.4710  228.0230 C   0  0  0  0  0  0  0  0  0  0  0  0
  140.8860   71.2820  226.8980 C   0  0  0  0  0  0  0  0  0  0  0  0
  140.3270   70.7180  225.7700 C   0  0  0  0  0  0  0  0  0  0  0  0
  140.2410   71.5150  224.6770 N   0  0  0  0  0  0  0  0  0  0  0  0
  139.5810   73.6970  223.4150 H   0  0  0  0  0  0  0  0  0  0  0  0
  138.8047   73.4976  220.5446 H   0  0  0  0  0  0  0  0  0  0  0  0
  139.0040   75.0160  221.5387 H   0  0  0  0  0  0  0  0  0  0  0  0
  140.5142   73.5012  217.9855 H   0  0  0  0  0  0  0  0  0  0  0  0
  142.2135   74.0455  217.9904 H   0  0  0  0  0  0  0  0  0  0  0  0
  141.2431   71.4496  217.3391 H   0  0  0  0  0  0  0  0  0  0  0  0
  142.9311   71.8931  217.5431 H   0  0  0  0  0  0  0  0  0  0  0  0
  140.9593   70.7867  219.6136 H   0  0  0  0  0  0  0  0  0  0  0  0
  142.6025   70.2916  219.3980 H   0  0  0  0  0  0  0  0  0  0  0  0
  142.2647   72.0517  221.3471 H   0  0  0  0  0  0  0  0  0  0  0  0
  143.5171   74.4512  221.4045 H   0  0  0  0  0  0  0  0  0  0  0  0
  145.9143   75.0957  221.3104 H   0  0  0  0  0  0  0  0  0  0  0  0
  147.5352   73.6829  220.0669 H   0  0  0  0  0  0  0  0  0  0  0  0
  144.4533   71.0284  219.0096 H   0  0  0  0  0  0  0  0  0  0  0  0
  138.8086   69.3201  222.5544 H   0  0  0  0  0  0  0  0  0  0  0  0
  138.9603   67.8547  224.5401 H   0  0  0  0  0  0  0  0  0  0  0  0
  139.6120   67.5734  226.8376 H   0  0  0  0  0  0  0  0  0  0  0  0
  141.4139   70.8748  228.9487 H   0  0  0  0  0  0  0  0  0  0  0  0
  141.2416   72.3229  226.9067 H   0  0  0  0  0  0  0  0  0  0  0  0
  1  2  2  0
  2  3  1  0
  3  4  1  0
  4  5  1  0
  5  6  2  0
  5  7  1  0
  7  8  1  0
  8  9  1  0
  9 10  1  0
 10 11  1  0
 11 12  1  0
 12 13  2  0
 13 14  1  0
 14 15  2  0
 15 16  1  0
 16 17  2  0
  2 18  1  0
 18 19  2  0
 19 20  1  0
 20 21  2  0
 21 22  1  0
 22 23  2  0
 23 24  1  0
 23 25  1  0
 25 26  2  0
 26 27  1  0
 27 28  2  0
 11  7  1  0
 17 12  1  0
 28 18  1  0
 27 21  1  0
  3 29  1  0
  4 30  1  0
  4 31  1  0
  8 32  1  0
  8 33  1  0
  9 34  1  0
  9 35  1  0
 10 36  1  0
 10 37  1  0
 11 38  1  1
 13 39  1  0
 14 40  1  0
 15 41  1  0
 17 42  1  0
 19 43  1  0
 20 44  1  0
 22 45  1  0
 25 46  1  0
 26 47  1  0
M  END
>  <smiles>  (91) 
O=C(NCC(=O)N1CCCC1c1cccnc1)c1ccc2cc(F)ccc2n1

>  <score_type>  (91) 
oracle

>  <origin>  (91) 
autodockgpu

>  <m_score__min__energy>  (91) 
-8.9800000000000004

>  <m_primary>  (91) 
energy

>  <rmsd>  (91) 
2.8849825476600506

>  <m_score__min__rmsd>  (91) 
2.8849825476600506

>  <meeko>  (91) 
{"free_energy": -7.57, "intermolecular_energy": -9.06, "internal_energy": -1.69, "cluster_size": 19, "cluster_id": 1, "rank_in_cluster": 17}

>  <energy>  (91) 
-8.31

>  <cluster_rmsd>  (91) 
0.99

>  <cluster>  (91) 
2

$$$$

     RDKit          3D

 47 50  0  0  0  0  0  0  0  0999 V2000
  141.1500   72.3890  221.6510 O   0  0  0  0  0  0  0  0  0  0  0  0
  140.2010   72.5000  222.5010 C   0  0  0  0  0  0  0  0  0  0  0  0
  139.2330   73.5260  222.3450 N   0  0  0  0  0  0  0  0  0  0  0  0
  139.3560   74.4130  221.2210 C   0  0  0  0  0  0  0  0  0  0  0  0
  140.3700   75.4550  221.4100 C   0  0  0  0  0  0  0  0  0  0  0  0
  141.4510   75.1290  221.9880 O   0  0  0  0  0  0  0  0  0  0  0  0
  140.2500   76.8020  221.0050 N   0  0  0  0  0  0  0  0  0  0  0  0
  139.0330   77.5670  220.8440 C   0  0  0  0  0  0  0  0  0  0  0  0
  139.3250   78.7070  219.9090 C   0  0  0  0  0  0  0  0  0  0  0  0
  140.7170   78.4150  219.4050 C   0  0  0  0  0  0  0  0  0  0  0  0
  141.3060   77.7600  220.6400 C   0  0  1  0  0  0  0  0  0  0  0  0
  141.6320   78.6840  221.7080 C   0  0  0  0  0  0  0  0  0  0  0  0
  141.4700   78.2860  223.0410 C   0  0  0  0  0  0  0  0  0  0  0  0
  141.7800   79.1490  224.0890 C   0  0  0  0  0  0  0  0  0  0  0  0
  142.2530   80.4140  223.8260 C   0  0  0  0  0  0  0  0  0  0  0  0
  142.4060   80.7910  222.5640 N   0  0  0  0  0  0  0  0  0  0  0  0
  142.1130   79.9750  221.5450 C   0  0  0  0  0  0  0  0  0  0  0  0
  140.1210   71.5710  223.6290 C   0  0  0  0  0  0  0  0  0  0  0  0
  139.4970   70.3500  223.4530 C   0  0  0  0  0  0  0  0  0  0  0  0
  139.4010   69.4550  224.4810 C   0  0  0  0  0  0  0  0  0  0  0  0
  139.9500   69.8060  225.7120 C   0  0  0  0  0  0  0  0  0  0  0  0
  139.8660   68.9270  226.7560 C   0  0  0  0  0  0  0  0  0  0  0  0
  140.4170   69.2980  227.9590 C   0  0  0  0  0  0  0  0  0  0  0  0
  140.3650   68.4720  229.0250 F   0  0  0  0  0  0  0  0  0  0  0  0
  141.0440   70.5380  228.1140 C   0  0  0  0  0  0  0  0  0  0  0  0
  141.1290   71.4330  227.0540 C   0  0  0  0  0  0  0  0  0  0  0  0
  140.5680   71.0330  225.8580 C   0  0  0  0  0  0  0  0  0  0  0  0
  140.6560   71.9110  224.8290 N   0  0  0  0  0  0  0  0  0  0  0  0
  138.4620   73.6080  223.0470 H   0  0  0  0  0  0  0  0  0  0  0  0
  139.6273   73.8188  220.3359 H   0  0  0  0  0  0  0  0  0  0  0  0
  138.3875   74.9204  221.1001 H   0  0  0  0  0  0  0  0  0  0  0  0
  138.2436   76.9288  220.4203 H   0  0  0  0  0  0  0  0  0  0  0  0
  138.6878   77.9476  221.8166 H   0  0  0  0  0  0  0  0  0  0  0  0
  138.6040   78.7265  219.0784 H   0  0  0  0  0  0  0  0  0  0  0  0
  139.2485   79.6885  220.3996 H   0  0  0  0  0  0  0  0  0  0  0  0
  140.7053   77.7298  218.5446 H   0  0  0  0  0  0  0  0  0  0  0  0
  141.2705   79.2899  219.0333 H   0  0  0  0  0  0  0  0  0  0  0  0
  142.2847   77.2951  220.4503 H   0  0  0  0  0  0  0  0  0  0  0  0
  141.0924   77.2771  223.2633 H   0  0  0  0  0  0  0  0  0  0  0  0
  141.6464   78.8186  225.1297 H   0  0  0  0  0  0  0  0  0  0  0  0
  142.5001   81.1010  224.6488 H   0  0  0  0  0  0  0  0  0  0  0  0
  142.2618   80.3485  220.5211 H   0  0  0  0  0  0  0  0  0  0  0  0
  139.0716   70.0953  222.4711 H   0  0  0  0  0  0  0  0  0  0  0  0
  138.9038   68.4839  224.3402 H   0  0  0  0  0  0  0  0  0  0  0  0
  139.3719   67.9515  226.6364 H   0  0  0  0  0  0  0  0  0  0  0  0
  141.4761   70.8091  229.0886 H   0  0  0  0  0  0  0  0  0  0  0  0
  141.6191   72.4117  227.1629 H   0  0  0  0  0  0  0  0  0  0  0  0
  1  2  2  0
  2  3  1  0
  3  4  1  0
  4  5  1  0
  5  6  2  0
  5  7  1  0
  7  8  1  0
  8  9  1  0
  9 10  1  0
 10 11  1  0
 11 12  1  0
 12 13  2  0
 13 14  1  0
 14 15  2  0
 15 16  1  0
 16 17  2  0
  2 18  1  0
 18 19  2  0
 19 20  1  0
 20 21  2  0
 21 22  1  0
 22 23  2  0
 23 24  1  0
 23 25  1  0
 25 26  2  0
 26 27  1  0
 27 28  2  0
 11  7  1  0
 17 12  1  0
 28 18  1  0
 27 21  1  0
  3 29  1  0
  4 30  1  0
  4 31  1  0
  8 32  1  0
  8 33  1  0
  9 34  1  0
  9 35  1  0
 10 36  1  0
 10 37  1  0
 11 38  1  6
 13 39  1  0
 14 40  1  0
 15 41  1  0
 17 42  1  0
 19 43  1  0
 20 44  1  0
 22 45  1  0
 25 46  1  0
 26 47  1  0
M  END
>  <smiles>  (92) 
O=C(NCC(=O)N1CCCC1c1cccnc1)c1ccc2cc(F)ccc2n1

>  <score_type>  (92) 
oracle

>  <origin>  (92) 
autodockgpu

>  <m_score__min__energy>  (92) 
-8.9800000000000004

>  <m_primary>  (92) 
energy

>  <rmsd>  (92) 
1.8388818571672487

>  <m_score__min__rmsd>  (92) 
1.8388818571672487

>  <meeko>  (92) 
{"free_energy": -8.59, "intermolecular_energy": -10.08, "internal_energy": -1.11, "cluster_size": 26, "cluster_id": 2, "rank_in_cluster": 6}

>  <energy>  (92) 
-8.31

>  <cluster_rmsd>  (92) 
1.18

>  <cluster>  (92) 
2

$$$$

     RDKit          3D

 47 50  0  0  0  0  0  0  0  0999 V2000
  141.4230   72.4940  221.6110 O   0  0  0  0  0  0  0  0  0  0  0  0
  140.4660   72.6510  222.4440 C   0  0  0  0  0  0  0  0  0  0  0  0
  139.6190   73.7850  222.3370 N   0  0  0  0  0  0  0  0  0  0  0  0
  139.8720   74.7260  221.2810 C   0  0  0  0  0  0  0  0  0  0  0  0
  139.2350   76.0280  221.4960 C   0  0  0  0  0  0  0  0  0  0  0  0
  138.1850   76.0620  222.2070 O   0  0  0  0  0  0  0  0  0  0  0  0
  139.6870   77.2620  220.9780 N   0  0  0  0  0  0  0  0  0  0  0  0
  138.8810   78.3730  220.5240 C   0  0  0  0  0  0  0  0  0  0  0  0
  139.7180   79.1960  219.5850 C   0  0  0  0  0  0  0  0  0  0  0  0
  140.9640   78.3690  219.3890 C   0  0  0  0  0  0  0  0  0  0  0  0
  141.0660   77.7290  220.7610 C   0  0  1  0  0  0  0  0  0  0  0  0
  141.5370   78.6210  221.8030 C   0  0  0  0  0  0  0  0  0  0  0  0
  141.3550   78.2720  223.1470 C   0  0  0  0  0  0  0  0  0  0  0  0
  141.8010   79.1050  224.1690 C   0  0  0  0  0  0  0  0  0  0  0  0
  142.4310   80.2910  223.8690 C   0  0  0  0  0  0  0  0  0  0  0  0
  142.6030   80.6210  222.5960 N   0  0  0  0  0  0  0  0  0  0  0  0
  142.1800   79.8330  221.6020 C   0  0  0  0  0  0  0  0  0  0  0  0
  140.2510   71.6630  223.5020 C   0  0  0  0  0  0  0  0  0  0  0  0
  139.5800   70.4920  223.2040 C   0  0  0  0  0  0  0  0  0  0  0  0
  139.3590   69.5450  224.1640 C   0  0  0  0  0  0  0  0  0  0  0  0
  139.8280   69.7920  225.4530 C   0  0  0  0  0  0  0  0  0  0  0  0
  139.6180   68.8590  226.4300 C   0  0  0  0  0  0  0  0  0  0  0  0
  140.0920   69.1270  227.6910 C   0  0  0  0  0  0  0  0  0  0  0  0
  139.9150   68.2440  228.6960 F   0  0  0  0  0  0  0  0  0  0  0  0
  140.7680   70.3190  227.9710 C   0  0  0  0  0  0  0  0  0  0  0  0
  140.9820   71.2680  226.9770 C   0  0  0  0  0  0  0  0  0  0  0  0
  140.4950   70.9720  225.7210 C   0  0  0  0  0  0  0  0  0  0  0  0
  140.7080   71.9020  224.7580 N   0  0  0  0  0  0  0  0  0  0  0  0
  138.8400   73.9040  223.0250 H   0  0  0  0  0  0  0  0  0  0  0  0
  140.9586   74.8782  221.2027 H   0  0  0  0  0  0  0  0  0  0  0  0
  139.4436   74.3033  220.3602 H   0  0  0  0  0  0  0  0  0  0  0  0
  137.9894   77.9986  219.9998 H   0  0  0  0  0  0  0  0  0  0  0  0
  138.5513   78.9823  221.3784 H   0  0  0  0  0  0  0  0  0  0  0  0
  139.1964   79.3502  218.6289 H   0  0  0  0  0  0  0  0  0  0  0  0
  139.9334   80.2004  219.9786 H   0  0  0  0  0  0  0  0  0  0  0  0
  140.8362   77.6180  218.5955 H   0  0  0  0  0  0  0  0  0  0  0  0
  141.8528   78.9339  219.0713 H   0  0  0  0  0  0  0  0  0  0  0  0
  141.8205   76.9297  220.8035 H   0  0  0  0  0  0  0  0  0  0  0  0
  140.8525   77.3263  223.3985 H   0  0  0  0  0  0  0  0  0  0  0  0
  141.6495   78.8145  225.2191 H   0  0  0  0  0  0  0  0  0  0  0  0
  142.7860   80.9543  224.6715 H   0  0  0  0  0  0  0  0  0  0  0  0
  142.3516   80.1646  220.5673 H   0  0  0  0  0  0  0  0  0  0  0  0
  139.2187   70.3199  222.1794 H   0  0  0  0  0  0  0  0  0  0  0  0
  138.8254   68.6130  223.9259 H   0  0  0  0  0  0  0  0  0  0  0  0
  139.0852   67.9215  226.2126 H   0  0  0  0  0  0  0  0  0  0  0  0
  141.1352   70.5083  228.9905 H   0  0  0  0  0  0  0  0  0  0  0  0
  141.5137   72.2088  227.1826 H   0  0  0  0  0  0  0  0  0  0  0  0
  1  2  2  0
  2  3  1  0
  3  4  1  0
  4  5  1  0
  5  6  2  0
  5  7  1  0
  7  8  1  0
  8  9  1  0
  9 10  1  0
 10 11  1  0
 11 12  1  0
 12 13  2  0
 13 14  1  0
 14 15  2  0
 15 16  1  0
 16 17  2  0
  2 18  1  0
 18 19  2  0
 19 20  1  0
 20 21  2  0
 21 22  1  0
 22 23  2  0
 23 24  1  0
 23 25  1  0
 25 26  2  0
 26 27  1  0
 27 28  2  0
 11  7  1  0
 17 12  1  0
 28 18  1  0
 27 21  1  0
  3 29  1  0
  4 30  1  0
  4 31  1  0
  8 32  1  0
  8 33  1  0
  9 34  1  0
  9 35  1  0
 10 36  1  0
 10 37  1  0
 11 38  1  6
 13 39  1  0
 14 40  1  0
 15 41  1  0
 17 42  1  0
 19 43  1  0
 20 44  1  0
 22 45  1  0
 25 46  1  0
 26 47  1  0
M  END
>  <smiles>  (93) 
O=C(NCC(=O)N1CCCC1c1cccnc1)c1ccc2cc(F)ccc2n1

>  <score_type>  (93) 
oracle

>  <origin>  (93) 
autodockgpu

>  <m_score__min__energy>  (93) 
-8.9800000000000004

>  <m_primary>  (93) 
energy

>  <rmsd>  (93) 
2.1235554056936925

>  <m_score__min__rmsd>  (93) 
2.1235554056936925

>  <meeko>  (93) 
{"free_energy": -8.21, "intermolecular_energy": -9.7, "internal_energy": -1.45, "cluster_size": 26, "cluster_id": 2, "rank_in_cluster": 25}

>  <energy>  (93) 
-8.23

>  <cluster_rmsd>  (93) 
0.99

>  <cluster>  (93) 
2

$$$$

     RDKit          3D

 47 50  0  0  0  0  0  0  0  0999 V2000
  141.3080   72.4340  221.7500 O   0  0  0  0  0  0  0  0  0  0  0  0
  140.3220   72.5120  222.5600 C   0  0  0  0  0  0  0  0  0  0  0  0
  139.3400   73.5210  222.3790 N   0  0  0  0  0  0  0  0  0  0  0  0
  139.4920   74.4280  221.2750 C   0  0  0  0  0  0  0  0  0  0  0  0
  139.3820   75.8380  221.6610 C   0  0  0  0  0  0  0  0  0  0  0  0
  138.5580   76.1360  222.5780 O   0  0  0  0  0  0  0  0  0  0  0  0
  140.1160   76.9050  221.0990 N   0  0  0  0  0  0  0  0  0  0  0  0
  139.7180   77.7650  220.0050 C   0  0  0  0  0  0  0  0  0  0  0  0
  140.9640   78.3530  219.4060 C   0  0  0  0  0  0  0  0  0  0  0  0
  142.0840   77.6160  220.0980 C   0  0  0  0  0  0  0  0  0  0  0  0
  141.4510   77.4080  221.4610 C   0  0  1  0  0  0  0  0  0  0  0  0
  141.4070   78.5980  222.2870 C   0  0  0  0  0  0  0  0  0  0  0  0
  142.5300   79.4310  222.3610 C   0  0  0  0  0  0  0  0  0  0  0  0
  142.5170   80.5850  223.1400 C   0  0  0  0  0  0  0  0  0  0  0  0
  141.3890   80.9230  223.8530 C   0  0  0  0  0  0  0  0  0  0  0  0
  140.3260   80.1350  223.7840 N   0  0  0  0  0  0  0  0  0  0  0  0
  140.3220   79.0230  223.0400 C   0  0  0  0  0  0  0  0  0  0  0  0
  140.2130   71.5630  223.6690 C   0  0  0  0  0  0  0  0  0  0  0  0
  139.6240   70.3320  223.4470 C   0  0  0  0  0  0  0  0  0  0  0  0
  139.5040   69.4190  224.4550 C   0  0  0  0  0  0  0  0  0  0  0  0
  139.9910   69.7610  225.7150 C   0  0  0  0  0  0  0  0  0  0  0  0
  139.8810   68.8630  226.7410 C   0  0  0  0  0  0  0  0  0  0  0  0
  140.3700   69.2260  227.9720 C   0  0  0  0  0  0  0  0  0  0  0  0
  140.2900   68.3820  229.0220 F   0  0  0  0  0  0  0  0  0  0  0  0
  140.9630   70.4770  228.1740 C   0  0  0  0  0  0  0  0  0  0  0  0
  141.0740   71.3900  227.1320 C   0  0  0  0  0  0  0  0  0  0  0  0
  140.5750   70.9990  225.9070 C   0  0  0  0  0  0  0  0  0  0  0  0
  140.6880   71.8950  224.8970 N   0  0  0  0  0  0  0  0  0  0  0  0
  138.5380   73.5750  223.0480 H   0  0  0  0  0  0  0  0  0  0  0  0
  140.4823   74.2660  220.8244 H   0  0  0  0  0  0  0  0  0  0  0  0
  138.6749   74.2198  220.5686 H   0  0  0  0  0  0  0  0  0  0  0  0
  139.1783   77.1795  219.2461 H   0  0  0  0  0  0  0  0  0  0  0  0
  139.0521   78.5626  220.3661 H   0  0  0  0  0  0  0  0  0  0  0  0
  140.9948   78.1807  218.3200 H   0  0  0  0  0  0  0  0  0  0  0  0
  141.0261   79.4427  219.5426 H   0  0  0  0  0  0  0  0  0  0  0  0
  142.3127   76.6607  219.6029 H   0  0  0  0  0  0  0  0  0  0  0  0
  143.0505   78.1411  220.1086 H   0  0  0  0  0  0  0  0  0  0  0  0
  142.0288   76.7232  222.0991 H   0  0  0  0  0  0  0  0  0  0  0  0
  143.4363   79.1698  221.7951 H   0  0  0  0  0  0  0  0  0  0  0  0
  143.4089   81.2272  223.1857 H   0  0  0  0  0  0  0  0  0  0  0  0
  141.3704   81.8332  224.4705 H   0  0  0  0  0  0  0  0  0  0  0  0
  139.4076   78.4117  223.0245 H   0  0  0  0  0  0  0  0  0  0  0  0
  139.2466   70.0846  222.4438 H   0  0  0  0  0  0  0  0  0  0  0  0
  139.0355   68.4398  224.2773 H   0  0  0  0  0  0  0  0  0  0  0  0
  139.4146   67.8791  226.5847 H   0  0  0  0  0  0  0  0  0  0  0  0
  141.3464   70.7414  229.1705 H   0  0  0  0  0  0  0  0  0  0  0  0
  141.5375   72.3769  227.2773 H   0  0  0  0  0  0  0  0  0  0  0  0
  1  2  2  0
  2  3  1  0
  3  4  1  0
  4  5  1  0
  5  6  2  0
  5  7  1  0
  7  8  1  0
  8  9  1  0
  9 10  1  0
 10 11  1  0
 11 12  1  0
 12 13  2  0
 13 14  1  0
 14 15  2  0
 15 16  1  0
 16 17  2  0
  2 18  1  0
 18 19  2  0
 19 20  1  0
 20 21  2  0
 21 22  1  0
 22 23  2  0
 23 24  1  0
 23 25  1  0
 25 26  2  0
 26 27  1  0
 27 28  2  0
 11  7  1  0
 17 12  1  0
 28 18  1  0
 27 21  1  0
  3 29  1  0
  4 30  1  0
  4 31  1  0
  8 32  1  0
  8 33  1  0
  9 34  1  0
  9 35  1  0
 10 36  1  0
 10 37  1  0
 11 38  1  1
 13 39  1  0
 14 40  1  0
 15 41  1  0
 17 42  1  0
 19 43  1  0
 20 44  1  0
 22 45  1  0
 25 46  1  0
 26 47  1  0
M  END
>  <smiles>  (94) 
O=C(NCC(=O)N1CCCC1c1cccnc1)c1ccc2cc(F)ccc2n1

>  <score_type>  (94) 
oracle

>  <origin>  (94) 
autodockgpu

>  <m_score__min__energy>  (94) 
-8.9800000000000004

>  <m_primary>  (94) 
energy

>  <rmsd>  (94) 
1.904382589342058

>  <m_score__min__rmsd>  (94) 
1.904382589342058

>  <meeko>  (94) 
{"free_energy": -8.52, "intermolecular_energy": -10.01, "internal_energy": -1.27, "cluster_size": 26, "cluster_id": 2, "rank_in_cluster": 8}

>  <energy>  (94) 
-8.21

>  <cluster_rmsd>  (94) 
0.99

>  <cluster>  (94) 
2

$$$$

     RDKit          3D

 47 50  0  0  0  0  0  0  0  0999 V2000
  141.4560   72.1440  221.6110 O   0  0  0  0  0  0  0  0  0  0  0  0
  140.4800   72.3560  222.4090 C   0  0  0  0  0  0  0  0  0  0  0  0
  139.5930   73.4380  222.1640 N   0  0  0  0  0  0  0  0  0  0  0  0
  139.8280   74.2630  221.0120 C   0  0  0  0  0  0  0  0  0  0  0  0
  140.9890   75.1470  221.1560 C   0  0  0  0  0  0  0  0  0  0  0  0
  141.1480   75.7350  222.2680 O   0  0  0  0  0  0  0  0  0  0  0  0
  141.9550   75.4060  220.1600 N   0  0  0  0  0  0  0  0  0  0  0  0
  142.6190   76.6620  219.8850 C   0  0  0  0  0  0  0  0  0  0  0  0
  143.1110   76.6220  218.4660 C   0  0  0  0  0  0  0  0  0  0  0  0
  142.5080   75.3560  217.9080 C   0  0  0  0  0  0  0  0  0  0  0  0
  142.5220   74.4930  219.1550 C   0  0  1  0  0  0  0  0  0  0  0  0
  143.8330   73.9890  219.5170 C   0  0  0  0  0  0  0  0  0  0  0  0
  144.2700   74.0910  220.8440 C   0  0  0  0  0  0  0  0  0  0  0  0
  145.5200   73.6110  221.2240 C   0  0  0  0  0  0  0  0  0  0  0  0
  146.3480   73.0260  220.2930 C   0  0  0  0  0  0  0  0  0  0  0  0
  145.9340   72.9310  219.0370 N   0  0  0  0  0  0  0  0  0  0  0  0
  144.7360   73.3860  218.6550 C   0  0  0  0  0  0  0  0  0  0  0  0
  140.2830   71.4860  223.5690 C   0  0  0  0  0  0  0  0  0  0  0  0
  139.6340   70.2780  223.4030 C   0  0  0  0  0  0  0  0  0  0  0  0
  139.4310   69.4370  224.4600 C   0  0  0  0  0  0  0  0  0  0  0  0
  139.8980   69.8310  225.7130 C   0  0  0  0  0  0  0  0  0  0  0  0
  139.7060   69.0060  226.7870 C   0  0  0  0  0  0  0  0  0  0  0  0
  140.1770   69.4190  228.0090 C   0  0  0  0  0  0  0  0  0  0  0  0
  140.0180   68.6470  229.1060 F   0  0  0  0  0  0  0  0  0  0  0  0
  140.8330   70.6460  228.1550 C   0  0  0  0  0  0  0  0  0  0  0  0
  141.0270   71.4840  227.0640 C   0  0  0  0  0  0  0  0  0  0  0  0
  140.5440   71.0450  225.8490 C   0  0  0  0  0  0  0  0  0  0  0  0
  140.7390   71.8680  224.7900 N   0  0  0  0  0  0  0  0  0  0  0  0
  138.7980   73.6020  222.8240 H   0  0  0  0  0  0  0  0  0  0  0  0
  139.9931   73.6093  220.1428 H   0  0  0  0  0  0  0  0  0  0  0  0
  138.9440   74.9056  220.8869 H   0  0  0  0  0  0  0  0  0  0  0  0
  141.9115   77.4947  220.0121 H   0  0  0  0  0  0  0  0  0  0  0  0
  143.4597   76.8114  220.5784 H   0  0  0  0  0  0  0  0  0  0  0  0
  142.7616   77.5018  217.9058 H   0  0  0  0  0  0  0  0  0  0  0  0
  144.2088   76.6350  218.3972 H   0  0  0  0  0  0  0  0  0  0  0  0
  141.4862   75.5193  217.5348 H   0  0  0  0  0  0  0  0  0  0  0  0
  143.0363   74.9311  217.0418 H   0  0  0  0  0  0  0  0  0  0  0  0
  141.9563   73.5576  219.0324 H   0  0  0  0  0  0  0  0  0  0  0  0
  143.6163   74.5569  221.5961 H   0  0  0  0  0  0  0  0  0  0  0  0
  145.8469   73.6994  222.2706 H   0  0  0  0  0  0  0  0  0  0  0  0
  147.3369   72.6436  220.5862 H   0  0  0  0  0  0  0  0  0  0  0  0
  144.4512   73.2757  217.5982 H   0  0  0  0  0  0  0  0  0  0  0  0
  139.2751   69.9888  222.4042 H   0  0  0  0  0  0  0  0  0  0  0  0
  138.9134   68.4756  224.3262 H   0  0  0  0  0  0  0  0  0  0  0  0
  139.1900   68.0410  226.6752 H   0  0  0  0  0  0  0  0  0  0  0  0
  141.1998   70.9511  229.1461 H   0  0  0  0  0  0  0  0  0  0  0  0
  141.5412   72.4512  227.1644 H   0  0  0  0  0  0  0  0  0  0  0  0
  1  2  2  0
  2  3  1  0
  3  4  1  0
  4  5  1  0
  5  6  2  0
  5  7  1  0
  7  8  1  0
  8  9  1  0
  9 10  1  0
 10 11  1  0
 11 12  1  0
 12 13  2  0
 13 14  1  0
 14 15  2  0
 15 16  1  0
 16 17  2  0
  2 18  1  0
 18 19  2  0
 19 20  1  0
 20 21  2  0
 21 22  1  0
 22 23  2  0
 23 24  1  0
 23 25  1  0
 25 26  2  0
 26 27  1  0
 27 28  2  0
 11  7  1  0
 17 12  1  0
 28 18  1  0
 27 21  1  0
  3 29  1  0
  4 30  1  0
  4 31  1  0
  8 32  1  0
  8 33  1  0
  9 34  1  0
  9 35  1  0
 10 36  1  0
 10 37  1  0
 11 38  1  6
 13 39  1  0
 14 40  1  0
 15 41  1  0
 17 42  1  0
 19 43  1  0
 20 44  1  0
 22 45  1  0
 25 46  1  0
 26 47  1  0
M  END
>  <smiles>  (95) 
O=C(NCC(=O)N1CCCC1c1cccnc1)c1ccc2cc(F)ccc2n1

>  <score_type>  (95) 
oracle

>  <origin>  (95) 
autodockgpu

>  <m_score__min__energy>  (95) 
-8.9800000000000004

>  <m_primary>  (95) 
energy

>  <rmsd>  (95) 
2.3184605916725776

>  <m_score__min__rmsd>  (95) 
2.3184605916725776

>  <meeko>  (95) 
{"free_energy": -8.97, "intermolecular_energy": -10.46, "internal_energy": -1.43, "cluster_size": 19, "cluster_id": 1, "rank_in_cluster": 3}

>  <energy>  (95) 
-8.14

>  <cluster_rmsd>  (95) 
1.1

>  <cluster>  (95) 
2

$$$$

     RDKit          3D

 47 50  0  0  0  0  0  0  0  0999 V2000
  141.3980   72.3070  221.7250 O   0  0  0  0  0  0  0  0  0  0  0  0
  140.4280   72.4820  222.5390 C   0  0  0  0  0  0  0  0  0  0  0  0
  139.5400   73.5740  222.3500 N   0  0  0  0  0  0  0  0  0  0  0  0
  139.7680   74.4510  221.2350 C   0  0  0  0  0  0  0  0  0  0  0  0
  139.4510   75.8530  221.5230 C   0  0  0  0  0  0  0  0  0  0  0  0
  138.5180   76.0900  222.3480 O   0  0  0  0  0  0  0  0  0  0  0  0
  140.0960   76.9750  220.9590 N   0  0  0  0  0  0  0  0  0  0  0  0
  139.5760   77.8740  219.9520 C   0  0  0  0  0  0  0  0  0  0  0  0
  140.7450   78.5400  219.2820 C   0  0  0  0  0  0  0  0  0  0  0  0
  141.9450   77.8130  219.8360 C   0  0  0  0  0  0  0  0  0  0  0  0
  141.4400   77.5110  221.2340 C   0  0  1  0  0  0  0  0  0  0  0  0
  141.4260   78.6550  222.1240 C   0  0  0  0  0  0  0  0  0  0  0  0
  142.5700   79.4550  222.2410 C   0  0  0  0  0  0  0  0  0  0  0  0
  142.5860   80.5640  223.0820 C   0  0  0  0  0  0  0  0  0  0  0  0
  141.4680   80.8910  223.8150 C   0  0  0  0  0  0  0  0  0  0  0  0
  140.3850   80.1340  223.7050 N   0  0  0  0  0  0  0  0  0  0  0  0
  140.3530   79.0650  222.9020 C   0  0  0  0  0  0  0  0  0  0  0  0
  140.2400   71.5600  223.6590 C   0  0  0  0  0  0  0  0  0  0  0  0
  139.5660   70.3720  223.4480 C   0  0  0  0  0  0  0  0  0  0  0  0
  139.3690   69.4840  224.4680 C   0  0  0  0  0  0  0  0  0  0  0  0
  139.8680   69.8090  225.7280 C   0  0  0  0  0  0  0  0  0  0  0  0
  139.6830   68.9360  226.7640 C   0  0  0  0  0  0  0  0  0  0  0  0
  140.1860   69.2800  227.9950 C   0  0  0  0  0  0  0  0  0  0  0  0
  140.0350   68.4590  229.0560 F   0  0  0  0  0  0  0  0  0  0  0  0
  140.8650   70.4880  228.1870 C   0  0  0  0  0  0  0  0  0  0  0  0
  141.0530   71.3750  227.1340 C   0  0  0  0  0  0  0  0  0  0  0  0
  140.5380   71.0030  225.9090 C   0  0  0  0  0  0  0  0  0  0  0  0
  140.7260   71.8750  224.8870 N   0  0  0  0  0  0  0  0  0  0  0  0
  138.7510   73.7090  223.0230 H   0  0  0  0  0  0  0  0  0  0  0  0
  140.8284   74.3846  220.9503 H   0  0  0  0  0  0  0  0  0  0  0  0
  139.0989   74.1266  220.4244 H   0  0  0  0  0  0  0  0  0  0  0  0
  138.9926   77.3082  219.2107 H   0  0  0  0  0  0  0  0  0  0  0  0
  138.9175   78.6257  220.4116 H   0  0  0  0  0  0  0  0  0  0  0  0
  140.6876   78.4244  218.1896 H   0  0  0  0  0  0  0  0  0  0  0  0
  140.7812   79.6230  219.4713 H   0  0  0  0  0  0  0  0  0  0  0  0
  142.1629   76.8940  219.2722 H   0  0  0  0  0  0  0  0  0  0  0  0
  142.8900   78.3744  219.7935 H   0  0  0  0  0  0  0  0  0  0  0  0
  142.0942   76.8177  221.7829 H   0  0  0  0  0  0  0  0  0  0  0  0
  143.4691   79.2030  221.6595 H   0  0  0  0  0  0  0  0  0  0  0  0
  143.4938   81.1802  223.1609 H   0  0  0  0  0  0  0  0  0  0  0  0
  141.4728   81.7662  224.4813 H   0  0  0  0  0  0  0  0  0  0  0  0
  139.4239   78.4780  222.8558 H   0  0  0  0  0  0  0  0  0  0  0  0
  139.1824   70.1377  222.4440 H   0  0  0  0  0  0  0  0  0  0  0  0
  138.8316   68.5392  224.2992 H   0  0  0  0  0  0  0  0  0  0  0  0
  139.1474   67.9867  226.6161 H   0  0  0  0  0  0  0  0  0  0  0  0
  141.2551   70.7389  229.1844 H   0  0  0  0  0  0  0  0  0  0  0  0
  141.5864   72.3273  227.2703 H   0  0  0  0  0  0  0  0  0  0  0  0
  1  2  2  0
  2  3  1  0
  3  4  1  0
  4  5  1  0
  5  6  2  0
  5  7  1  0
  7  8  1  0
  8  9  1  0
  9 10  1  0
 10 11  1  0
 11 12  1  0
 12 13  2  0
 13 14  1  0
 14 15  2  0
 15 16  1  0
 16 17  2  0
  2 18  1  0
 18 19  2  0
 19 20  1  0
 20 21  2  0
 21 22  1  0
 22 23  2  0
 23 24  1  0
 23 25  1  0
 25 26  2  0
 26 27  1  0
 27 28  2  0
 11  7  1  0
 17 12  1  0
 28 18  1  0
 27 21  1  0
  3 29  1  0
  4 30  1  0
  4 31  1  0
  8 32  1  0
  8 33  1  0
  9 34  1  0
  9 35  1  0
 10 36  1  0
 10 37  1  0
 11 38  1  1
 13 39  1  0
 14 40  1  0
 15 41  1  0
 17 42  1  0
 19 43  1  0
 20 44  1  0
 22 45  1  0
 25 46  1  0
 26 47  1  0
M  END
>  <smiles>  (96) 
O=C(NCC(=O)N1CCCC1c1cccnc1)c1ccc2cc(F)ccc2n1

>  <score_type>  (96) 
oracle

>  <origin>  (96) 
autodockgpu

>  <m_score__min__energy>  (96) 
-8.9800000000000004

>  <m_primary>  (96) 
energy

>  <rmsd>  (96) 
1.9197728034438837

>  <m_score__min__rmsd>  (96) 
1.9197728034438837

>  <meeko>  (96) 
{"free_energy": -8.46, "intermolecular_energy": -9.95, "internal_energy": -1.32, "cluster_size": 26, "cluster_id": 2, "rank_in_cluster": 16}

>  <energy>  (96) 
-8.07

>  <cluster_rmsd>  (96) 
0.0

>  <cluster>  (96) 
3

$$$$

     RDKit          3D

 47 50  0  0  0  0  0  0  0  0999 V2000
  141.3370   72.3560  221.6000 O   0  0  0  0  0  0  0  0  0  0  0  0
  140.4130   72.5520  222.4610 C   0  0  0  0  0  0  0  0  0  0  0  0
  139.5700   73.6890  222.3430 N   0  0  0  0  0  0  0  0  0  0  0  0
  139.7910   74.5870  221.2430 C   0  0  0  0  0  0  0  0  0  0  0  0
  139.7230   76.0010  221.6250 C   0  0  0  0  0  0  0  0  0  0  0  0
  139.1370   76.2930  222.7110 O   0  0  0  0  0  0  0  0  0  0  0  0
  140.2560   77.0790  220.8850 N   0  0  0  0  0  0  0  0  0  0  0  0
  139.5620   77.9220  219.9350 C   0  0  0  0  0  0  0  0  0  0  0  0
  140.5890   78.5320  219.0240 C   0  0  0  0  0  0  0  0  0  0  0  0
  141.8700   77.8250  219.3950 C   0  0  0  0  0  0  0  0  0  0  0  0
  141.6270   77.6140  220.8770 C   0  0  1  0  0  0  0  0  0  0  0  0
  141.7770   78.8100  221.6830 C   0  0  0  0  0  0  0  0  0  0  0  0
  141.6390   78.7290  223.0740 C   0  0  0  0  0  0  0  0  0  0  0  0
  141.7840   79.8590  223.8750 C   0  0  0  0  0  0  0  0  0  0  0  0
  142.0670   81.0790  223.3040 C   0  0  0  0  0  0  0  0  0  0  0  0
  142.1980   81.1550  221.9870 N   0  0  0  0  0  0  0  0  0  0  0  0
  142.0620   80.0800  221.2030 C   0  0  0  0  0  0  0  0  0  0  0  0
  140.2290   71.6060  223.5630 C   0  0  0  0  0  0  0  0  0  0  0  0
  139.5930   70.4030  223.3200 C   0  0  0  0  0  0  0  0  0  0  0  0
  139.4030   69.4940  224.3210 C   0  0  0  0  0  0  0  0  0  0  0  0
  139.8680   69.8110  225.5960 C   0  0  0  0  0  0  0  0  0  0  0  0
  139.6880   68.9170  226.6140 C   0  0  0  0  0  0  0  0  0  0  0  0
  140.1570   69.2550  227.8600 C   0  0  0  0  0  0  0  0  0  0  0  0
  140.0090   68.4120  228.9040 F   0  0  0  0  0  0  0  0  0  0  0  0
  140.7980   70.4780  228.0840 C   0  0  0  0  0  0  0  0  0  0  0  0
  140.9810   71.3870  227.0490 C   0  0  0  0  0  0  0  0  0  0  0  0
  140.5000   71.0210  225.8090 C   0  0  0  0  0  0  0  0  0  0  0  0
  140.6830   71.9140  224.8050 N   0  0  0  0  0  0  0  0  0  0  0  0
  138.8180   73.8400  223.0540 H   0  0  0  0  0  0  0  0  0  0  0  0
  140.7879   74.3864  220.8235 H   0  0  0  0  0  0  0  0  0  0  0  0
  138.9894   74.4087  220.5112 H   0  0  0  0  0  0  0  0  0  0  0  0
  138.8529   77.3193  219.3486 H   0  0  0  0  0  0  0  0  0  0  0  0
  138.9992   78.7082  220.4595 H   0  0  0  0  0  0  0  0  0  0  0  0
  140.3335   78.3510  217.9695 H   0  0  0  0  0  0  0  0  0  0  0  0
  140.6597   79.6240  219.1358 H   0  0  0  0  0  0  0  0  0  0  0  0
  141.9812   76.8711  218.8586 H   0  0  0  0  0  0  0  0  0  0  0  0
  142.7920   78.3714  219.1474 H   0  0  0  0  0  0  0  0  0  0  0  0
  142.3693   76.9467  221.3393 H   0  0  0  0  0  0  0  0  0  0  0  0
  141.4129   77.7590  223.5408 H   0  0  0  0  0  0  0  0  0  0  0  0
  141.6721   79.7764  224.9662 H   0  0  0  0  0  0  0  0  0  0  0  0
  142.1826   81.9760  223.9301 H   0  0  0  0  0  0  0  0  0  0  0  0
  142.1828   80.2101  220.1174 H   0  0  0  0  0  0  0  0  0  0  0  0
  139.2347   70.1746  222.3054 H   0  0  0  0  0  0  0  0  0  0  0  0
  138.8965   68.5372  224.1263 H   0  0  0  0  0  0  0  0  0  0  0  0
  139.1826   67.9555  226.4407 H   0  0  0  0  0  0  0  0  0  0  0  0
  141.1620   70.7234  229.0926 H   0  0  0  0  0  0  0  0  0  0  0  0
  141.4848   72.3514  227.2106 H   0  0  0  0  0  0  0  0  0  0  0  0
  1  2  2  0
  2  3  1  0
  3  4  1  0
  4  5  1  0
  5  6  2  0
  5  7  1  0
  7  8  1  0
  8  9  1  0
  9 10  1  0
 10 11  1  0
 11 12  1  0
 12 13  2  0
 13 14  1  0
 14 15  2  0
 15 16  1  0
 16 17  2  0
  2 18  1  0
 18 19  2  0
 19 20  1  0
 20 21  2  0
 21 22  1  0
 22 23  2  0
 23 24  1  0
 23 25  1  0
 25 26  2  0
 26 27  1  0
 27 28  2  0
 11  7  1  0
 17 12  1  0
 28 18  1  0
 27 21  1  0
  3 29  1  0
  4 30  1  0
  4 31  1  0
  8 32  1  0
  8 33  1  0
  9 34  1  0
  9 35  1  0
 10 36  1  0
 10 37  1  0
 11 38  1  1
 13 39  1  0
 14 40  1  0
 15 41  1  0
 17 42  1  0
 19 43  1  0
 20 44  1  0
 22 45  1  0
 25 46  1  0
 26 47  1  0
M  END
>  <smiles>  (97) 
O=C(NCC(=O)N1CCCC1c1cccnc1)c1ccc2cc(F)ccc2n1

>  <score_type>  (97) 
oracle

>  <origin>  (97) 
autodockgpu

>  <m_score__min__energy>  (97) 
-8.9800000000000004

>  <m_primary>  (97) 
energy

>  <rmsd>  (97) 
1.866500643898547

>  <m_score__min__rmsd>  (97) 
1.866500643898547

>  <meeko>  (97) 
{"free_energy": -8.48, "intermolecular_energy": -9.97, "internal_energy": -1.27, "cluster_size": 26, "cluster_id": 2, "rank_in_cluster": 12}

>  <energy>  (97) 
-8.06

>  <cluster_rmsd>  (97) 
0.09

>  <cluster>  (97) 
3

$$$$

     RDKit          3D

 47 50  0  0  0  0  0  0  0  0999 V2000
  140.3710   73.5460  222.3460 O   0  0  0  0  0  0  0  0  0  0  0  0
  139.8900   72.3640  222.2720 C   0  0  0  0  0  0  0  0  0  0  0  0
  139.2890   71.9240  221.0630 N   0  0  0  0  0  0  0  0  0  0  0  0
  139.2450   72.8360  219.9540 C   0  0  0  0  0  0  0  0  0  0  0  0
  140.5670   73.1490  219.4050 C   0  0  0  0  0  0  0  0  0  0  0  0
  140.8060   74.3550  219.0910 O   0  0  0  0  0  0  0  0  0  0  0  0
  141.6110   72.2220  219.1920 N   0  0  0  0  0  0  0  0  0  0  0  0
  142.0140   71.6260  217.9360 C   0  0  0  0  0  0  0  0  0  0  0  0
  142.7450   70.3500  218.2460 C   0  0  0  0  0  0  0  0  0  0  0  0
  142.5490   70.1710  219.7320 C   0  0  0  0  0  0  0  0  0  0  0  0
  142.5370   71.6240  220.1670 C   0  0  1  0  0  0  0  0  0  0  0  0
  143.8420   72.2550  220.1760 C   0  0  0  0  0  0  0  0  0  0  0  0
  143.9920   73.5240  220.7490 C   0  0  0  0  0  0  0  0  0  0  0  0
  145.2340   74.1540  220.7780 C   0  0  0  0  0  0  0  0  0  0  0  0
  146.3370   73.5320  220.2400 C   0  0  0  0  0  0  0  0  0  0  0  0
  146.1940   72.3300  219.6970 N   0  0  0  0  0  0  0  0  0  0  0  0
  145.0090   71.7110  219.6600 C   0  0  0  0  0  0  0  0  0  0  0  0
  139.9610   71.4730  223.4310 C   0  0  0  0  0  0  0  0  0  0  0  0
  139.5230   70.1690  223.3070 C   0  0  0  0  0  0  0  0  0  0  0  0
  139.5720   69.3070  224.3650 C   0  0  0  0  0  0  0  0  0  0  0  0
  140.0780   69.7790  225.5750 C   0  0  0  0  0  0  0  0  0  0  0  0
  140.1370   68.9340  226.6490 C   0  0  0  0  0  0  0  0  0  0  0  0
  140.6400   69.4250  227.8290 C   0  0  0  0  0  0  0  0  0  0  0  0
  140.7240   68.6380  228.9230 F   0  0  0  0  0  0  0  0  0  0  0  0
  141.0790   70.7490  227.9330 C   0  0  0  0  0  0  0  0  0  0  0  0
  141.0190   71.6080  226.8410 C   0  0  0  0  0  0  0  0  0  0  0  0
  140.5090   71.0880  225.6690 C   0  0  0  0  0  0  0  0  0  0  0  0
  140.4540   71.9320  224.6100 N   0  0  0  0  0  0  0  0  0  0  0  0
  138.8980   70.9550  221.0140 H   0  0  0  0  0  0  0  0  0  0  0  0
  138.6340   72.3868  219.1572 H   0  0  0  0  0  0  0  0  0  0  0  0
  138.8163   73.7784  220.3255 H   0  0  0  0  0  0  0  0  0  0  0  0
  141.1267   71.4094  217.3230 H   0  0  0  0  0  0  0  0  0  0  0  0
  142.6636   72.3142  217.3753 H   0  0  0  0  0  0  0  0  0  0  0  0
  142.3118   69.5057  217.6896 H   0  0  0  0  0  0  0  0  0  0  0  0
  143.8064   70.3889  217.9598 H   0  0  0  0  0  0  0  0  0  0  0  0
  141.5985   69.6673  219.9616 H   0  0  0  0  0  0  0  0  0  0  0  0
  143.3030   69.5426  220.2286 H   0  0  0  0  0  0  0  0  0  0  0  0
  142.2272   71.7532  221.2145 H   0  0  0  0  0  0  0  0  0  0  0  0
  143.1168   74.0303  221.1822 H   0  0  0  0  0  0  0  0  0  0  0  0
  145.3331   75.1510  221.2320 H   0  0  0  0  0  0  0  0  0  0  0  0
  147.3211   74.0231  220.2598 H   0  0  0  0  0  0  0  0  0  0  0  0
  144.9570   70.7156  219.1947 H   0  0  0  0  0  0  0  0  0  0  0  0
  139.1287   69.8195  222.3414 H   0  0  0  0  0  0  0  0  0  0  0  0
  139.2219   68.2690  224.2651 H   0  0  0  0  0  0  0  0  0  0  0  0
  139.7919   67.8925  226.5700 H   0  0  0  0  0  0  0  0  0  0  0  0
  141.4768   71.1155  228.8908 H   0  0  0  0  0  0  0  0  0  0  0  0
  141.3614   72.6512  226.9082 H   0  0  0  0  0  0  0  0  0  0  0  0
  1  2  2  0
  2  3  1  0
  3  4  1  0
  4  5  1  0
  5  6  2  0
  5  7  1  0
  7  8  1  0
  8  9  1  0
  9 10  1  0
 10 11  1  0
 11 12  1  0
 12 13  2  0
 13 14  1  0
 14 15  2  0
 15 16  1  0
 16 17  2  0
  2 18  1  0
 18 19  2  0
 19 20  1  0
 20 21  2  0
 21 22  1  0
 22 23  2  0
 23 24  1  0
 23 25  1  0
 25 26  2  0
 26 27  1  0
 27 28  2  0
 11  7  1  0
 17 12  1  0
 28 18  1  0
 27 21  1  0
  3 29  1  0
  4 30  1  0
  4 31  1  0
  8 32  1  0
  8 33  1  0
  9 34  1  0
  9 35  1  0
 10 36  1  0
 10 37  1  0
 11 38  1  1
 13 39  1  0
 14 40  1  0
 15 41  1  0
 17 42  1  0
 19 43  1  0
 20 44  1  0
 22 45  1  0
 25 46  1  0
 26 47  1  0
M  END
>  <smiles>  (98) 
O=C(NCC(=O)N1CCCC1c1cccnc1)c1ccc2cc(F)ccc2n1

>  <score_type>  (98) 
oracle

>  <origin>  (98) 
autodockgpu

>  <m_score__min__energy>  (98) 
-8.9800000000000004

>  <m_primary>  (98) 
energy

>  <rmsd>  (98) 
3.6562887740228174

>  <m_score__min__rmsd>  (98) 
3.6562887740228174

>  <meeko>  (98) 
{"free_energy": -7.41, "intermolecular_energy": -8.9, "internal_energy": -1.46, "cluster_size": 19, "cluster_id": 1, "rank_in_cluster": 18}

>  <energy>  (98) 
-7.91

>  <cluster_rmsd>  (98) 
0.0

>  <cluster>  (98) 
4

$$$$

     RDKit          3D

 47 50  0  0  0  0  0  0  0  0999 V2000
  141.1170   71.8290  221.3250 O   0  0  0  0  0  0  0  0  0  0  0  0
  140.3790   72.2530  222.2800 C   0  0  0  0  0  0  0  0  0  0  0  0
  139.7410   73.5160  222.1680 N   0  0  0  0  0  0  0  0  0  0  0  0
  139.9500   74.2800  220.9700 C   0  0  0  0  0  0  0  0  0  0  0  0
  141.0220   75.2720  221.0920 C   0  0  0  0  0  0  0  0  0  0  0  0
  141.0650   75.9680  222.1510 O   0  0  0  0  0  0  0  0  0  0  0  0
  142.0220   75.5260  220.1280 N   0  0  0  0  0  0  0  0  0  0  0  0
  142.7380   76.7640  219.9090 C   0  0  0  0  0  0  0  0  0  0  0  0
  143.2650   76.7480  218.5010 C   0  0  0  0  0  0  0  0  0  0  0  0
  142.6300   75.5230  217.8890 C   0  0  0  0  0  0  0  0  0  0  0  0
  142.5820   74.6220  219.1090 C   0  0  1  0  0  0  0  0  0  0  0  0
  143.8630   74.0600  219.4870 C   0  0  0  0  0  0  0  0  0  0  0  0
  144.2280   74.0170  220.8380 C   0  0  0  0  0  0  0  0  0  0  0  0
  145.4490   73.4780  221.2340 C   0  0  0  0  0  0  0  0  0  0  0  0
  146.3190   72.9760  220.2930 C   0  0  0  0  0  0  0  0  0  0  0  0
  145.9740   73.0160  219.0140 N   0  0  0  0  0  0  0  0  0  0  0  0
  144.8050   73.5310  218.6160 C   0  0  0  0  0  0  0  0  0  0  0  0
  140.1980   71.4350  223.4800 C   0  0  0  0  0  0  0  0  0  0  0  0
  139.5690   70.2090  223.3720 C   0  0  0  0  0  0  0  0  0  0  0  0
  139.3810   69.4160  224.4680 C   0  0  0  0  0  0  0  0  0  0  0  0
  139.8420   69.8770  225.7000 C   0  0  0  0  0  0  0  0  0  0  0  0
  139.6650   69.1010  226.8120 C   0  0  0  0  0  0  0  0  0  0  0  0
  140.1290   69.5790  228.0130 C   0  0  0  0  0  0  0  0  0  0  0  0
  139.9830   68.8580  229.1450 F   0  0  0  0  0  0  0  0  0  0  0  0
  140.7630   70.8230  228.1000 C   0  0  0  0  0  0  0  0  0  0  0  0
  140.9430   71.6120  226.9700 C   0  0  0  0  0  0  0  0  0  0  0  0
  140.4670   71.1070  225.7770 C   0  0  0  0  0  0  0  0  0  0  0  0
  140.6470   71.8830  224.6810 N   0  0  0  0  0  0  0  0  0  0  0  0
  139.1400   73.8530  222.9560 H   0  0  0  0  0  0  0  0  0  0  0  0
  140.2070   73.5873  220.1551 H   0  0  0  0  0  0  0  0  0  0  0  0
  139.0191   74.8307  220.7695 H   0  0  0  0  0  0  0  0  0  0  0  0
  142.0583   77.6182  220.0443 H   0  0  0  0  0  0  0  0  0  0  0  0
  143.5652   76.8614  220.6275 H   0  0  0  0  0  0  0  0  0  0  0  0
  142.9632   77.6569  217.9599 H   0  0  0  0  0  0  0  0  0  0  0  0
  144.3639   76.7214  218.4599 H   0  0  0  0  0  0  0  0  0  0  0  0
  141.6243   75.7356  217.4974 H   0  0  0  0  0  0  0  0  0  0  0  0
  143.1634   75.1055  217.0223 H   0  0  0  0  0  0  0  0  0  0  0  0
  141.9873   73.7115  218.9438 H   0  0  0  0  0  0  0  0  0  0  0  0
  143.5396   74.4151  221.5980 H   0  0  0  0  0  0  0  0  0  0  0  0
  145.7187   73.4533  222.3001 H   0  0  0  0  0  0  0  0  0  0  0  0
  147.2855   72.5483  220.5977 H   0  0  0  0  0  0  0  0  0  0  0  0
  144.5782   73.5353  217.5396 H   0  0  0  0  0  0  0  0  0  0  0  0
  139.2145   69.8668  222.3885 H   0  0  0  0  0  0  0  0  0  0  0  0
  138.8798   68.4407  224.3809 H   0  0  0  0  0  0  0  0  0  0  0  0
  139.1658   68.1230  226.7465 H   0  0  0  0  0  0  0  0  0  0  0  0
  141.1238   71.1814  229.0754 H   0  0  0  0  0  0  0  0  0  0  0  0
  141.4407   72.5915  227.0239 H   0  0  0  0  0  0  0  0  0  0  0  0
  1  2  2  0
  2  3  1  0
  3  4  1  0
  4  5  1  0
  5  6  2  0
  5  7  1  0
  7  8  1  0
  8  9  1  0
  9 10  1  0
 10 11  1  0
 11 12  1  0
 12 13  2  0
 13 14  1  0
 14 15  2  0
 15 16  1  0
 16 17  2  0
  2 18  1  0
 18 19  2  0
 19 20  1  0
 20 21  2  0
 21 22  1  0
 22 23  2  0
 23 24  1  0
 23 25  1  0
 25 26  2  0
 26 27  1  0
 27 28  2  0
 11  7  1  0
 17 12  1  0
 28 18  1  0
 27 21  1  0
  3 29  1  0
  4 30  1  0
  4 31  1  0
  8 32  1  0
  8 33  1  0
  9 34  1  0
  9 35  1  0
 10 36  1  0
 10 37  1  0
 11 38  1  6
 13 39  1  0
 14 40  1  0
 15 41  1  0
 17 42  1  0
 19 43  1  0
 20 44  1  0
 22 45  1  0
 25 46  1  0
 26 47  1  0
M  END
>  <smiles>  (99) 
O=C(NCC(=O)N1CCCC1c1cccnc1)c1ccc2cc(F)ccc2n1

>  <score_type>  (99) 
oracle

>  <origin>  (99) 
autodockgpu

>  <m_score__min__energy>  (99) 
-8.9800000000000004

>  <m_primary>  (99) 
energy

>  <rmsd>  (99) 
2.344103343828865

>  <m_score__min__rmsd>  (99) 
2.344103343828865

>  <meeko>  (99) 
{"free_energy": -8.92, "intermolecular_energy": -10.41, "internal_energy": -1.46, "cluster_size": 19, "cluster_id": 1, "rank_in_cluster": 10}

>  <energy>  (99) 
-7.82

>  <cluster_rmsd>  (99) 
0.47

>  <cluster>  (99) 
4

$$$$

     RDKit          3D

 47 50  0  0  0  0  0  0  0  0999 V2000
  141.4170   72.5110  221.7490 O   0  0  0  0  0  0  0  0  0  0  0  0
  140.4140   72.6230  222.5340 C   0  0  0  0  0  0  0  0  0  0  0  0
  139.5020   73.6980  222.3620 N   0  0  0  0  0  0  0  0  0  0  0  0
  139.7440   74.6300  221.2950 C   0  0  0  0  0  0  0  0  0  0  0  0
  139.4510   76.0200  221.6600 C   0  0  0  0  0  0  0  0  0  0  0  0
  138.6600   76.2220  222.6290 O   0  0  0  0  0  0  0  0  0  0  0  0
  139.9750   77.1660  221.0220 N   0  0  0  0  0  0  0  0  0  0  0  0
  139.2440   78.1740  220.2860 C   0  0  0  0  0  0  0  0  0  0  0  0
  140.2090   78.8560  219.3570 C   0  0  0  0  0  0  0  0  0  0  0  0
  141.4700   78.0360  219.4760 C   0  0  0  0  0  0  0  0  0  0  0  0
  141.3720   77.6230  220.9320 C   0  0  1  0  0  0  0  0  0  0  0  0
  141.6880   78.6780  221.8750 C   0  0  0  0  0  0  0  0  0  0  0  0
  141.4980   78.4620  223.2450 C   0  0  0  0  0  0  0  0  0  0  0  0
  141.7980   79.4530  224.1750 C   0  0  0  0  0  0  0  0  0  0  0  0
  142.2890   80.6680  223.7560 C   0  0  0  0  0  0  0  0  0  0  0  0
  142.4690   80.8730  222.4580 N   0  0  0  0  0  0  0  0  0  0  0  0
  142.1850   79.9320  221.5510 C   0  0  0  0  0  0  0  0  0  0  0  0
  140.2130   71.6460  223.6050 C   0  0  0  0  0  0  0  0  0  0  0  0
  139.5270   70.4790  223.3320 C   0  0  0  0  0  0  0  0  0  0  0  0
  139.3180   69.5420  224.3040 C   0  0  0  0  0  0  0  0  0  0  0  0
  139.8180   69.7960  225.5800 C   0  0  0  0  0  0  0  0  0  0  0  0
  139.6210   68.8730  226.5700 C   0  0  0  0  0  0  0  0  0  0  0  0
  140.1250   69.1470  227.8180 C   0  0  0  0  0  0  0  0  0  0  0  0
  139.9630   68.2740  228.8340 F   0  0  0  0  0  0  0  0  0  0  0  0
  140.8170   70.3360  228.0720 C   0  0  0  0  0  0  0  0  0  0  0  0
  141.0170   71.2740  227.0670 C   0  0  0  0  0  0  0  0  0  0  0  0
  140.5010   70.9720  225.8230 C   0  0  0  0  0  0  0  0  0  0  0  0
  140.7000   71.8920  224.8490 N   0  0  0  0  0  0  0  0  0  0  0  0
  138.6860   73.7810  223.0110 H   0  0  0  0  0  0  0  0  0  0  0  0
  140.8028   74.5611  221.0050 H   0  0  0  0  0  0  0  0  0  0  0  0
  139.0691   74.3613  220.4690 H   0  0  0  0  0  0  0  0  0  0  0  0
  138.4369   77.7022  219.7064 H   0  0  0  0  0  0  0  0  0  0  0  0
  138.7951   78.9034  220.9763 H   0  0  0  0  0  0  0  0  0  0  0  0
  139.8314   78.8452  218.3239 H   0  0  0  0  0  0  0  0  0  0  0  0
  140.3662   79.9145  219.6117 H   0  0  0  0  0  0  0  0  0  0  0  0
  141.4578   77.1665  218.8023 H   0  0  0  0  0  0  0  0  0  0  0  0
  142.3959   78.5635  219.2030 H   0  0  0  0  0  0  0  0  0  0  0  0
  142.1117   76.8571  221.2080 H   0  0  0  0  0  0  0  0  0  0  0  0
  141.1057   77.4946  223.5917 H   0  0  0  0  0  0  0  0  0  0  0  0
  141.6422   79.2644  225.2475 H   0  0  0  0  0  0  0  0  0  0  0  0
  142.5283   81.4561  224.4852 H   0  0  0  0  0  0  0  0  0  0  0  0
  142.3549   80.1653  220.4895 H   0  0  0  0  0  0  0  0  0  0  0  0
  139.1431   70.3012  222.3166 H   0  0  0  0  0  0  0  0  0  0  0  0
  138.7705   68.6132  224.0857 H   0  0  0  0  0  0  0  0  0  0  0  0
  139.0750   67.9387  226.3725 H   0  0  0  0  0  0  0  0  0  0  0  0
  141.2082   70.5309  229.0815 H   0  0  0  0  0  0  0  0  0  0  0  0
  141.5603   72.2121  227.2536 H   0  0  0  0  0  0  0  0  0  0  0  0
  1  2  2  0
  2  3  1  0
  3  4  1  0
  4  5  1  0
  5  6  2  0
  5  7  1  0
  7  8  1  0
  8  9  1  0
  9 10  1  0
 10 11  1  0
 11 12  1  0
 12 13  2  0
 13 14  1  0
 14 15  2  0
 15 16  1  0
 16 17  2  0
  2 18  1  0
 18 19  2  0
 19 20  1  0
 20 21  2  0
 21 22  1  0
 22 23  2  0
 23 24  1  0
 23 25  1  0
 25 26  2  0
 26 27  1  0
 27 28  2  0
 11  7  1  0
 17 12  1  0
 28 18  1  0
 27 21  1  0
  3 29  1  0
  4 30  1  0
  4 31  1  0
  8 32  1  0
  8 33  1  0
  9 34  1  0
  9 35  1  0
 10 36  1  0
 10 37  1  0
 11 38  1  6
 13 39  1  0
 14 40  1  0
 15 41  1  0
 17 42  1  0
 19 43  1  0
 20 44  1  0
 22 45  1  0
 25 46  1  0
 26 47  1  0
M  END
>  <smiles>  (100) 
O=C(NCC(=O)N1CCCC1c1cccnc1)c1ccc2cc(F)ccc2n1

>  <score_type>  (100) 
oracle

>  <origin>  (100) 
autodockgpu

>  <m_score__min__energy>  (100) 
-8.9800000000000004

>  <m_primary>  (100) 
energy

>  <rmsd>  (100) 
1.990539464816038

>  <m_score__min__rmsd>  (100) 
1.990539464816038

>  <meeko>  (100) 
{"free_energy": -8.44, "intermolecular_energy": -9.94, "internal_energy": -1.35, "cluster_size": 26, "cluster_id": 2, "rank_in_cluster": 17}

>  <energy>  (100) 
-7.81

>  <cluster_rmsd>  (100) 
0.32

>  <cluster>  (100) 
4

$$$$
