
     RDKit          3D

 48 50  0  0  0  0  0  0  0  0999 V2000
  141.3610   68.4520  226.1470 C   0  0  0  0  0  0  0  0  0  0  0  0
  140.2820   68.5390  227.2090 C   0  0  0  0  0  0  0  0  0  0  0  0
  140.9840   68.3740  228.5350 C   0  0  0  0  0  0  0  0  0  0  0  0
  139.6730   69.9290  227.1560 C   0  0  1  0  0  0  0  0  0  0  0  0
  140.5070   70.9010  227.9690 C   0  0  0  0  0  0  0  0  0  0  0  0
  140.8520   71.9690  226.9580 C   0  0  1  0  0  0  0  0  0  0  0  0
  142.0240   72.6400  227.2300 O   0  0  0  0  0  0  0  0  0  0  0  0
  140.9800   71.1200  225.6840 C   0  0  0  0  0  0  0  0  0  0  0  0
  139.6870   70.4190  225.7790 N   0  0  0  0  0  0  0  0  0  0  0  0
  138.7030   70.2650  224.7660 C   0  0  0  0  0  0  0  0  0  0  0  0
  137.4980   69.9890  224.9960 O   0  0  0  0  0  0  0  0  0  0  0  0
  139.1320   70.4460  223.3550 C   0  0  0  0  0  0  0  0  0  0  0  0
  139.3600   71.8430  223.0440 N   0  0  0  0  0  0  0  0  0  0  0  0
  140.4200   72.1300  222.1310 C   0  0  0  0  0  0  0  0  0  0  0  0
  141.0480   71.1130  221.6920 O   0  0  0  0  0  0  0  0  0  0  0  0
  140.7580   73.4900  221.7310 C   0  0  0  0  0  0  0  0  0  0  0  0
  141.6360   73.6420  220.6800 C   0  0  0  0  0  0  0  0  0  0  0  0
  142.0350   74.8830  220.2050 C   0  0  0  0  0  0  0  0  0  0  0  0
  141.5150   75.9840  220.8320 C   0  0  0  0  0  0  0  0  0  0  0  0
  141.8980   77.2280  220.3770 C   0  0  0  0  0  0  0  0  0  0  0  0
  141.4010   78.3610  220.9770 C   0  0  0  0  0  0  0  0  0  0  0  0
  140.5260   78.1880  222.0260 C   0  0  0  0  0  0  0  0  0  0  0  0
  140.1410   76.9330  222.4830 C   0  0  0  0  0  0  0  0  0  0  0  0
  140.6430   75.7870  221.8770 C   0  0  0  0  0  0  0  0  0  0  0  0
  140.2670   74.5790  222.3240 N   0  0  0  0  0  0  0  0  0  0  0  0
  142.3458   68.3726  226.6305 H   0  0  0  0  0  0  0  0  0  0  0  0
  141.1877   67.5649  225.5201 H   0  0  0  0  0  0  0  0  0  0  0  0
  141.3321   69.3554  225.5201 H   0  0  0  0  0  0  0  0  0  0  0  0
  139.4975   67.7817  227.0641 H   0  0  0  0  0  0  0  0  0  0  0  0
  140.2676   68.5424  229.3526 H   0  0  0  0  0  0  0  0  0  0  0  0
  141.3925   67.3554  228.6094 H   0  0  0  0  0  0  0  0  0  0  0  0
  141.8035   69.1040  228.6094 H   0  0  0  0  0  0  0  0  0  0  0  0
  138.6488   69.8644  227.5520 H   0  0  0  0  0  0  0  0  0  0  0  0
  139.9267   71.3188  228.8049 H   0  0  0  0  0  0  0  0  0  0  0  0
  141.3902   70.4369  228.4323 H   0  0  0  0  0  0  0  0  0  0  0  0
  140.1106   72.7807  226.9186 H   0  0  0  0  0  0  0  0  0  0  0  0
  142.0810   72.7130  228.2150 H   0  0  0  0  0  0  0  0  0  0  0  0
  141.0543   71.7375  224.7767 H   0  0  0  0  0  0  0  0  0  0  0  0
  141.8731   70.4816  225.6151 H   0  0  0  0  0  0  0  0  0  0  0  0
  140.0646   69.8864  223.1904 H   0  0  0  0  0  0  0  0  0  0  0  0
  138.3307   70.0731  222.7002 H   0  0  0  0  0  0  0  0  0  0  0  0
  138.8060   72.6210  223.4410 H   0  0  0  0  0  0  0  0  0  0  0  0
  142.0383   72.7397  220.1963 H   0  0  0  0  0  0  0  0  0  0  0  0
  142.7369   74.9783  219.3634 H   0  0  0  0  0  0  0  0  0  0  0  0
  142.6004   77.3139  219.5349 H   0  0  0  0  0  0  0  0  0  0  0  0
  141.6907   79.3648  220.6329 H   0  0  0  0  0  0  0  0  0  0  0  0
  140.1149   79.0793  222.5226 H   0  0  0  0  0  0  0  0  0  0  0  0
  139.4384   76.8465  223.3250 H   0  0  0  0  0  0  0  0  0  0  0  0
  1  2  1  0
  2  3  1  0
  2  4  1  0
  4  5  1  0
  5  6  1  0
  6  7  1  0
  6  8  1  0
  8  9  1  0
  9 10  1  0
 10 11  2  0
 10 12  1  0
 12 13  1  0
 13 14  1  0
 14 15  2  0
 14 16  1  0
 16 17  2  0
 17 18  1  0
 18 19  2  0
 19 20  1  0
 20 21  2  0
 21 22  1  0
 22 23  2  0
 23 24  1  0
 24 25  2  0
  9  4  1  0
 25 16  1  0
 24 19  1  0
  1 26  1  0
  1 27  1  0
  1 28  1  0
  2 29  1  0
  3 30  1  0
  3 31  1  0
  3 32  1  0
  4 33  1  1
  5 34  1  0
  5 35  1  0
  6 36  1  6
  7 37  1  0
  8 38  1  0
  8 39  1  0
 12 40  1  0
 12 41  1  0
 13 42  1  0
 17 43  1  0
 18 44  1  0
 20 45  1  0
 21 46  1  0
 22 47  1  0
 23 48  1  0
M  END
>  <smiles>  (1) 
CC(C)[C@H]1C[C@@H](O)CN1C(=O)CNC(=O)c1ccc2ccccc2n1

>  <score_type>  (1) 
oracle

>  <origin>  (1) 
autodockgpu

>  <m_score__min__energy>  (1) 
-8.1199999999999992

>  <m_primary>  (1) 
energy

>  <rmsd>  (1) 
8.23278031006565

>  <m_score__min__rmsd>  (1) 
8.23278031006565

>  <meeko>  (1) 
{"free_energy": -7.55, "intermolecular_energy": -9.34, "internal_energy": -0.75, "cluster_size": 22, "cluster_id": 1, "rank_in_cluster": 19}

>  <energy>  (1) 
-8.12

>  <cluster_rmsd>  (1) 
0.0

>  <cluster>  (1) 
1

$$$$

     RDKit          3D

 48 50  0  0  0  0  0  0  0  0999 V2000
  141.0730   68.1510  228.2600 C   0  0  0  0  0  0  0  0  0  0  0  0
  140.6030   68.5350  226.8700 C   0  0  0  0  0  0  0  0  0  0  0  0
  139.6260   67.4640  226.4470 C   0  0  0  0  0  0  0  0  0  0  0  0
  139.8580   69.8550  226.9670 C   0  0  1  0  0  0  0  0  0  0  0  0
  140.5670   70.7910  227.9280 C   0  0  0  0  0  0  0  0  0  0  0  0
  140.8300   72.0080  227.0730 C   0  0  1  0  0  0  0  0  0  0  0  0
  141.9200   72.7480  227.4740 O   0  0  0  0  0  0  0  0  0  0  0  0
  141.0780   71.3460  225.7100 C   0  0  0  0  0  0  0  0  0  0  0  0
  139.8610   70.5170  225.6630 N   0  0  0  0  0  0  0  0  0  0  0  0
  138.9260   70.4000  224.6000 C   0  0  0  0  0  0  0  0  0  0  0  0
  137.7090   70.1310  224.7650 O   0  0  0  0  0  0  0  0  0  0  0  0
  139.4250   70.6120  223.2170 C   0  0  0  0  0  0  0  0  0  0  0  0
  139.5280   72.0230  222.9010 N   0  0  0  0  0  0  0  0  0  0  0  0
  140.6540   72.4210  222.1170 C   0  0  0  0  0  0  0  0  0  0  0  0
  141.4440   71.4800  221.7840 O   0  0  0  0  0  0  0  0  0  0  0  0
  140.8820   73.8070  221.7270 C   0  0  0  0  0  0  0  0  0  0  0  0
  141.8400   74.0460  220.7660 C   0  0  0  0  0  0  0  0  0  0  0  0
  142.1480   75.3190  220.3090 C   0  0  0  0  0  0  0  0  0  0  0  0
  141.4520   76.3610  220.8600 C   0  0  0  0  0  0  0  0  0  0  0  0
  141.7410   77.6360  220.4220 C   0  0  0  0  0  0  0  0  0  0  0  0
  141.0670   78.7130  220.9470 C   0  0  0  0  0  0  0  0  0  0  0  0
  140.1130   78.4540  221.9070 C   0  0  0  0  0  0  0  0  0  0  0  0
  139.8220   77.1680  222.3470 C   0  0  0  0  0  0  0  0  0  0  0  0
  140.5040   76.0790  221.8160 C   0  0  0  0  0  0  0  0  0  0  0  0
  140.2170   74.8400  222.2470 N   0  0  0  0  0  0  0  0  0  0  0  0
  140.4506   68.6595  229.0110 H   0  0  0  0  0  0  0  0  0  0  0  0
  140.9864   67.0620  228.3885 H   0  0  0  0  0  0  0  0  0  0  0  0
  142.1229   68.4530  228.3885 H   0  0  0  0  0  0  0  0  0  0  0  0
  141.4397   68.6293  226.1621 H   0  0  0  0  0  0  0  0  0  0  0  0
  139.1930   66.9893  227.3399 H   0  0  0  0  0  0  0  0  0  0  0  0
  138.8231   67.9165  225.8465 H   0  0  0  0  0  0  0  0  0  0  0  0
  140.1502   66.7060  225.8465 H   0  0  0  0  0  0  0  0  0  0  0  0
  138.8350   69.6414  227.3104 H   0  0  0  0  0  0  0  0  0  0  0  0
  139.9247   71.0400  228.7856 H   0  0  0  0  0  0  0  0  0  0  0  0
  141.4795   70.3590  228.3648 H   0  0  0  0  0  0  0  0  0  0  0  0
  140.0120   72.7427  227.1050 H   0  0  0  0  0  0  0  0  0  0  0  0
  141.6980   73.6950  227.2890 H   0  0  0  0  0  0  0  0  0  0  0  0
  141.1151   72.0792  224.8908 H   0  0  0  0  0  0  0  0  0  0  0  0
  142.0325   70.8106  225.5988 H   0  0  0  0  0  0  0  0  0  0  0  0
  140.4188   70.1504  223.1207 H   0  0  0  0  0  0  0  0  0  0  0  0
  138.7110   70.1524  222.5177 H   0  0  0  0  0  0  0  0  0  0  0  0
  138.8450   72.7350  223.2070 H   0  0  0  0  0  0  0  0  0  0  0  0
  142.3847   73.1894  220.3424 H   0  0  0  0  0  0  0  0  0  0  0  0
  142.9163   75.4836  219.5392 H   0  0  0  0  0  0  0  0  0  0  0  0
  142.5112   77.7915  219.6522 H   0  0  0  0  0  0  0  0  0  0  0  0
  141.2805   79.7395  220.6144 H   0  0  0  0  0  0  0  0  0  0  0  0
  139.5595   79.2989  222.3426 H   0  0  0  0  0  0  0  0  0  0  0  0
  139.0513   77.0117  223.1162 H   0  0  0  0  0  0  0  0  0  0  0  0
  1  2  1  0
  2  3  1  0
  2  4  1  0
  4  5  1  0
  5  6  1  0
  6  7  1  0
  6  8  1  0
  8  9  1  0
  9 10  1  0
 10 11  2  0
 10 12  1  0
 12 13  1  0
 13 14  1  0
 14 15  2  0
 14 16  1  0
 16 17  2  0
 17 18  1  0
 18 19  2  0
 19 20  1  0
 20 21  2  0
 21 22  1  0
 22 23  2  0
 23 24  1  0
 24 25  2  0
  9  4  1  0
 25 16  1  0
 24 19  1  0
  1 26  1  0
  1 27  1  0
  1 28  1  0
  2 29  1  0
  3 30  1  0
  3 31  1  0
  3 32  1  0
  4 33  1  1
  5 34  1  0
  5 35  1  0
  6 36  1  6
  7 37  1  0
  8 38  1  0
  8 39  1  0
 12 40  1  0
 12 41  1  0
 13 42  1  0
 17 43  1  0
 18 44  1  0
 20 45  1  0
 21 46  1  0
 22 47  1  0
 23 48  1  0
M  END
>  <smiles>  (2) 
CC(C)[C@H]1C[C@@H](O)CN1C(=O)CNC(=O)c1ccc2ccccc2n1

>  <score_type>  (2) 
oracle

>  <origin>  (2) 
autodockgpu

>  <m_score__min__energy>  (2) 
-8.1199999999999992

>  <m_primary>  (2) 
energy

>  <rmsd>  (2) 
8.3469048815916

>  <m_score__min__rmsd>  (2) 
8.3469048815916

>  <meeko>  (2) 
{"free_energy": -8.06, "intermolecular_energy": -9.85, "internal_energy": -1.25, "cluster_size": 22, "cluster_id": 1, "rank_in_cluster": 8}

>  <energy>  (2) 
-8.11

>  <cluster_rmsd>  (2) 
0.21

>  <cluster>  (2) 
1

$$$$

     RDKit          3D

 48 50  0  0  0  0  0  0  0  0999 V2000
  141.4350   68.2140  227.0900 C   0  0  0  0  0  0  0  0  0  0  0  0
  140.2620   68.4350  226.1540 C   0  0  0  0  0  0  0  0  0  0  0  0
  139.2490   67.3690  226.4930 C   0  0  0  0  0  0  0  0  0  0  0  0
  139.6560   69.7930  226.4620 C   0  0  1  0  0  0  0  0  0  0  0  0
  140.5570   70.5730  227.4000 C   0  0  0  0  0  0  0  0  0  0  0  0
  140.8210   71.8430  226.6270 C   0  0  1  0  0  0  0  0  0  0  0  0
  142.0130   72.4550  226.9450 O   0  0  0  0  0  0  0  0  0  0  0  0
  140.8400   71.3010  225.1900 C   0  0  0  0  0  0  0  0  0  0  0  0
  139.5570   70.5760  225.2310 N   0  0  0  0  0  0  0  0  0  0  0  0
  138.4920   70.6370  224.2930 C   0  0  0  0  0  0  0  0  0  0  0  0
  137.2830   70.4660  224.5940 O   0  0  0  0  0  0  0  0  0  0  0  0
  138.8360   70.9210  222.8760 C   0  0  0  0  0  0  0  0  0  0  0  0
  139.0680   72.3360  222.6600 N   0  0  0  0  0  0  0  0  0  0  0  0
  140.2770   72.6890  221.9880 C   0  0  0  0  0  0  0  0  0  0  0  0
  141.0190   71.7100  221.6540 O   0  0  0  0  0  0  0  0  0  0  0  0
  140.6360   74.0730  221.7050 C   0  0  0  0  0  0  0  0  0  0  0  0
  141.6060   74.2950  220.7520 C   0  0  0  0  0  0  0  0  0  0  0  0
  142.0340   75.5650  220.3930 C   0  0  0  0  0  0  0  0  0  0  0  0
  141.4460   76.6220  221.0350 C   0  0  0  0  0  0  0  0  0  0  0  0
  141.8550   77.8940  220.6950 C   0  0  0  0  0  0  0  0  0  0  0  0
  141.2920   78.9860  221.3130 C   0  0  0  0  0  0  0  0  0  0  0  0
  140.3240   78.7430  222.2630 C   0  0  0  0  0  0  0  0  0  0  0  0
  139.9120   77.4600  222.6050 C   0  0  0  0  0  0  0  0  0  0  0  0
  140.4820   76.3560  221.9790 C   0  0  0  0  0  0  0  0  0  0  0  0
  140.0790   75.1210  222.3150 N   0  0  0  0  0  0  0  0  0  0  0  0
  141.0897   68.2791  228.1324 H   0  0  0  0  0  0  0  0  0  0  0  0
  141.8667   67.2187  226.9082 H   0  0  0  0  0  0  0  0  0  0  0  0
  142.1993   68.9839  226.9082 H   0  0  0  0  0  0  0  0  0  0  0  0
  140.5626   68.3923  225.0967 H   0  0  0  0  0  0  0  0  0  0  0  0
  139.1633   67.2789  227.5859 H   0  0  0  0  0  0  0  0  0  0  0  0
  138.2716   67.6443  226.0701 H   0  0  0  0  0  0  0  0  0  0  0  0
  139.5737   66.4069  226.0701 H   0  0  0  0  0  0  0  0  0  0  0  0
  138.6683   69.6270  226.9168 H   0  0  0  0  0  0  0  0  0  0  0  0
  140.0489   70.7864  228.3520 H   0  0  0  0  0  0  0  0  0  0  0  0
  141.4738   70.0312  227.6757 H   0  0  0  0  0  0  0  0  0  0  0  0
  140.0813   72.6315  226.8298 H   0  0  0  0  0  0  0  0  0  0  0  0
  141.7900   73.3820  227.2080 H   0  0  0  0  0  0  0  0  0  0  0  0
  140.8406   72.1060  224.4404 H   0  0  0  0  0  0  0  0  0  0  0  0
  141.7224   70.7079  224.9080 H   0  0  0  0  0  0  0  0  0  0  0  0
  139.7471   70.3646  222.6107 H   0  0  0  0  0  0  0  0  0  0  0  0
  137.9900   70.6093  222.2458 H   0  0  0  0  0  0  0  0  0  0  0  0
  138.4160   73.0800  222.9600 H   0  0  0  0  0  0  0  0  0  0  0  0
  142.0614   73.4266  220.2535 H   0  0  0  0  0  0  0  0  0  0  0  0
  142.8099   75.7159  219.6280 H   0  0  0  0  0  0  0  0  0  0  0  0
  142.6319   78.0355  219.9292 H   0  0  0  0  0  0  0  0  0  0  0  0
  141.6016   80.0107  221.0595 H   0  0  0  0  0  0  0  0  0  0  0  0
  139.8579   79.5996  222.7719 H   0  0  0  0  0  0  0  0  0  0  0  0
  139.1352   77.3177  223.3707 H   0  0  0  0  0  0  0  0  0  0  0  0
  1  2  1  0
  2  3  1  0
  2  4  1  0
  4  5  1  0
  5  6  1  0
  6  7  1  0
  6  8  1  0
  8  9  1  0
  9 10  1  0
 10 11  2  0
 10 12  1  0
 12 13  1  0
 13 14  1  0
 14 15  2  0
 14 16  1  0
 16 17  2  0
 17 18  1  0
 18 19  2  0
 19 20  1  0
 20 21  2  0
 21 22  1  0
 22 23  2  0
 23 24  1  0
 24 25  2  0
  9  4  1  0
 25 16  1  0
 24 19  1  0
  1 26  1  0
  1 27  1  0
  1 28  1  0
  2 29  1  0
  3 30  1  0
  3 31  1  0
  3 32  1  0
  4 33  1  1
  5 34  1  0
  5 35  1  0
  6 36  1  6
  7 37  1  0
  8 38  1  0
  8 39  1  0
 12 40  1  0
 12 41  1  0
 13 42  1  0
 17 43  1  0
 18 44  1  0
 20 45  1  0
 21 46  1  0
 22 47  1  0
 23 48  1  0
M  END
>  <smiles>  (3) 
CC(C)[C@H]1C[C@@H](O)CN1C(=O)CNC(=O)c1ccc2ccccc2n1

>  <score_type>  (3) 
oracle

>  <origin>  (3) 
autodockgpu

>  <m_score__min__energy>  (3) 
-8.1199999999999992

>  <m_primary>  (3) 
energy

>  <rmsd>  (3) 
8.204662786428063

>  <m_score__min__rmsd>  (3) 
8.204662786428063

>  <meeko>  (3) 
{"free_energy": -7.4, "intermolecular_energy": -9.19, "internal_energy": -1.28, "cluster_size": 22, "cluster_id": 1, "rank_in_cluster": 21}

>  <energy>  (3) 
-8.1

>  <cluster_rmsd>  (3) 
0.26

>  <cluster>  (3) 
1

$$$$

     RDKit          3D

 48 50  0  0  0  0  0  0  0  0999 V2000
  140.5800   70.4660  228.3160 C   0  0  0  0  0  0  0  0  0  0  0  0
  140.3460   71.2520  227.0400 C   0  0  0  0  0  0  0  0  0  0  0  0
  141.4640   72.2640  226.9600 C   0  0  0  0  0  0  0  0  0  0  0  0
  140.4710   70.3000  225.8640 C   0  0  1  0  0  0  0  0  0  0  0  0
  140.7090   68.8840  226.3550 C   0  0  0  0  0  0  0  0  0  0  0  0
  139.5700   68.1190  225.7240 C   0  0  1  0  0  0  0  0  0  0  0  0
  139.1980   66.9920  226.4230 O   0  0  0  0  0  0  0  0  0  0  0  0
  138.4620   69.1830  225.7560 C   0  0  0  0  0  0  0  0  0  0  0  0
  139.2160   70.2760  225.1150 N   0  0  0  0  0  0  0  0  0  0  0  0
  138.8060   71.0990  224.0320 C   0  0  0  0  0  0  0  0  0  0  0  0
  137.6720   71.6340  223.9490 O   0  0  0  0  0  0  0  0  0  0  0  0
  139.7830   71.3340  222.9380 C   0  0  0  0  0  0  0  0  0  0  0  0
  139.7960   72.7250  222.5290 N   0  0  0  0  0  0  0  0  0  0  0  0
  140.9320   73.1590  221.7800 C   0  0  0  0  0  0  0  0  0  0  0  0
  141.8100   72.2640  221.5570 O   0  0  0  0  0  0  0  0  0  0  0  0
  141.0760   74.5300  221.3060 C   0  0  0  0  0  0  0  0  0  0  0  0
  140.3360   75.5020  221.9420 C   0  0  0  0  0  0  0  0  0  0  0  0
  140.3850   76.8420  221.5840 C   0  0  0  0  0  0  0  0  0  0  0  0
  141.2150   77.1770  220.5480 C   0  0  0  0  0  0  0  0  0  0  0  0
  141.2800   78.5020  220.1750 C   0  0  0  0  0  0  0  0  0  0  0  0
  142.1000   78.8860  219.1400 C   0  0  0  0  0  0  0  0  0  0  0  0
  142.8310   77.8990  218.5160 C   0  0  0  0  0  0  0  0  0  0  0  0
  142.7650   76.5630  218.8930 C   0  0  0  0  0  0  0  0  0  0  0  0
  141.9350   76.1760  219.9400 C   0  0  0  0  0  0  0  0  0  0  0  0
  141.8770   74.8840  220.2990 N   0  0  0  0  0  0  0  0  0  0  0  0
  140.3876   71.1122  229.1852 H   0  0  0  0  0  0  0  0  0  0  0  0
  139.9002   69.6016  228.3441 H   0  0  0  0  0  0  0  0  0  0  0  0
  141.6218   70.1142  228.3441 H   0  0  0  0  0  0  0  0  0  0  0  0
  139.3568   71.7330  227.0262 H   0  0  0  0  0  0  0  0  0  0  0  0
  141.7762   72.5466  227.9762 H   0  0  0  0  0  0  0  0  0  0  0  0
  142.3178   71.8254  226.4228 H   0  0  0  0  0  0  0  0  0  0  0  0
  141.1124   73.1572  226.4228 H   0  0  0  0  0  0  0  0  0  0  0  0
  141.3080   70.6442  225.2387 H   0  0  0  0  0  0  0  0  0  0  0  0
  141.6818   68.5029  226.0108 H   0  0  0  0  0  0  0  0  0  0  0  0
  140.7368   68.8007  227.4515 H   0  0  0  0  0  0  0  0  0  0  0  0
  139.8190   67.7189  224.7300 H   0  0  0  0  0  0  0  0  0  0  0  0
  139.9950   66.7070  226.9360 H   0  0  0  0  0  0  0  0  0  0  0  0
  137.5798   68.8849  225.1704 H   0  0  0  0  0  0  0  0  0  0  0  0
  138.0316   69.4051  226.7436 H   0  0  0  0  0  0  0  0  0  0  0  0
  140.7874   71.0550  223.2893 H   0  0  0  0  0  0  0  0  0  0  0  0
  139.4875   70.7220  222.0731 H   0  0  0  0  0  0  0  0  0  0  0  0
  139.0440   73.3980  222.7480 H   0  0  0  0  0  0  0  0  0  0  0  0
  139.6769   75.2030  222.7704 H   0  0  0  0  0  0  0  0  0  0  0  0
  139.7846   77.6000  222.1085 H   0  0  0  0  0  0  0  0  0  0  0  0
  140.6758   79.2528  220.7053 H   0  0  0  0  0  0  0  0  0  0  0  0
  142.1694   79.9372  218.8236 H   0  0  0  0  0  0  0  0  0  0  0  0
  143.4945   78.1800  217.6848 H   0  0  0  0  0  0  0  0  0  0  0  0
  143.3691   75.8116  218.3635 H   0  0  0  0  0  0  0  0  0  0  0  0
  1  2  1  0
  2  3  1  0
  2  4  1  0
  4  5  1  0
  5  6  1  0
  6  7  1  0
  6  8  1  0
  8  9  1  0
  9 10  1  0
 10 11  2  0
 10 12  1  0
 12 13  1  0
 13 14  1  0
 14 15  2  0
 14 16  1  0
 16 17  2  0
 17 18  1  0
 18 19  2  0
 19 20  1  0
 20 21  2  0
 21 22  1  0
 22 23  2  0
 23 24  1  0
 24 25  2  0
  9  4  1  0
 25 16  1  0
 24 19  1  0
  1 26  1  0
  1 27  1  0
  1 28  1  0
  2 29  1  0
  3 30  1  0
  3 31  1  0
  3 32  1  0
  4 33  1  6
  5 34  1  0
  5 35  1  0
  6 36  1  6
  7 37  1  0
  8 38  1  0
  8 39  1  0
 12 40  1  0
 12 41  1  0
 13 42  1  0
 17 43  1  0
 18 44  1  0
 20 45  1  0
 21 46  1  0
 22 47  1  0
 23 48  1  0
M  END
>  <smiles>  (4) 
CC(C)[C@H]1C[C@@H](O)CN1C(=O)CNC(=O)c1ccc2ccccc2n1

>  <score_type>  (4) 
oracle

>  <origin>  (4) 
autodockgpu

>  <m_score__min__energy>  (4) 
-8.1199999999999992

>  <m_primary>  (4) 
energy

>  <rmsd>  (4) 
8.83631988702446

>  <m_score__min__rmsd>  (4) 
8.83631988702446

>  <meeko>  (4) 
{"free_energy": -7.43, "intermolecular_energy": -9.22, "internal_energy": -1.22, "cluster_size": 22, "cluster_id": 1, "rank_in_cluster": 20}

>  <energy>  (4) 
-8.1

>  <cluster_rmsd>  (4) 
1.8

>  <cluster>  (4) 
1

$$$$

     RDKit          3D

 48 50  0  0  0  0  0  0  0  0999 V2000
  140.4130   70.5670  228.2360 C   0  0  0  0  0  0  0  0  0  0  0  0
  140.3310   71.3220  226.9220 C   0  0  0  0  0  0  0  0  0  0  0  0
  141.5150   72.2580  226.9020 C   0  0  0  0  0  0  0  0  0  0  0  0
  140.4860   70.3230  225.7890 C   0  0  1  0  0  0  0  0  0  0  0  0
  140.7330   68.9330  226.3410 C   0  0  0  0  0  0  0  0  0  0  0  0
  139.6130   68.1280  225.7260 C   0  0  1  0  0  0  0  0  0  0  0  0
  139.2440   67.0260  226.4650 O   0  0  0  0  0  0  0  0  0  0  0  0
  138.4930   69.1780  225.6960 C   0  0  0  0  0  0  0  0  0  0  0  0
  139.2430   70.2530  225.0230 N   0  0  0  0  0  0  0  0  0  0  0  0
  138.8400   71.0250  223.9000 C   0  0  0  0  0  0  0  0  0  0  0  0
  137.6610   71.4110  223.7030 O   0  0  0  0  0  0  0  0  0  0  0  0
  139.8830   71.3930  222.9080 C   0  0  0  0  0  0  0  0  0  0  0  0
  139.9440   72.8280  222.7100 N   0  0  0  0  0  0  0  0  0  0  0  0
  140.9600   73.3080  221.8290 C   0  0  0  0  0  0  0  0  0  0  0  0
  141.7020   72.4100  221.3150 O   0  0  0  0  0  0  0  0  0  0  0  0
  141.1340   74.7260  221.5390 C   0  0  0  0  0  0  0  0  0  0  0  0
  141.8820   75.0600  220.4310 C   0  0  0  0  0  0  0  0  0  0  0  0
  142.1200   76.3720  220.0490 C   0  0  0  0  0  0  0  0  0  0  0  0
  141.5730   77.3540  220.8310 C   0  0  0  0  0  0  0  0  0  0  0  0
  141.7960   78.6660  220.4720 C   0  0  0  0  0  0  0  0  0  0  0  0
  141.2660   79.6860  221.2270 C   0  0  0  0  0  0  0  0  0  0  0  0
  140.5220   79.3320  222.3310 C   0  0  0  0  0  0  0  0  0  0  0  0
  140.2980   78.0080  222.6930 C   0  0  0  0  0  0  0  0  0  0  0  0
  140.8340   76.9780  221.9280 C   0  0  0  0  0  0  0  0  0  0  0  0
  140.6130   75.7030  222.2830 N   0  0  0  0  0  0  0  0  0  0  0  0
  140.3359   71.2773  229.0724 H   0  0  0  0  0  0  0  0  0  0  0  0
  139.5884   69.8413  228.2940 H   0  0  0  0  0  0  0  0  0  0  0  0
  141.3742   70.0352  228.2940 H   0  0  0  0  0  0  0  0  0  0  0  0
  139.3796   71.8635  226.8144 H   0  0  0  0  0  0  0  0  0  0  0  0
  141.8134   72.4939  227.9341 H   0  0  0  0  0  0  0  0  0  0  0  0
  142.3542   71.7765  226.3786 H   0  0  0  0  0  0  0  0  0  0  0  0
  141.2402   73.1857  226.3786 H   0  0  0  0  0  0  0  0  0  0  0  0
  141.3290   70.6508  225.1630 H   0  0  0  0  0  0  0  0  0  0  0  0
  141.7153   68.5503  226.0271 H   0  0  0  0  0  0  0  0  0  0  0  0
  140.7450   68.8955  227.4403 H   0  0  0  0  0  0  0  0  0  0  0  0
  139.8820   67.6896  224.7536 H   0  0  0  0  0  0  0  0  0  0  0  0
  139.8800   66.9710  227.2210 H   0  0  0  0  0  0  0  0  0  0  0  0
  137.6242   68.8448  225.1093 H   0  0  0  0  0  0  0  0  0  0  0  0
  138.0443   69.4352  226.6668 H   0  0  0  0  0  0  0  0  0  0  0  0
  140.8603   71.0399  223.2690 H   0  0  0  0  0  0  0  0  0  0  0  0
  139.6275   70.9222  221.9472 H   0  0  0  0  0  0  0  0  0  0  0  0
  139.3030   73.5010  223.1620 H   0  0  0  0  0  0  0  0  0  0  0  0
  142.3096   74.2498  219.8221 H   0  0  0  0  0  0  0  0  0  0  0  0
  142.7203   76.6125  219.1592 H   0  0  0  0  0  0  0  0  0  0  0  0
  142.3983   78.8973  219.5811 H   0  0  0  0  0  0  0  0  0  0  0  0
  141.4294   80.7406  220.9604 H   0  0  0  0  0  0  0  0  0  0  0  0
  140.0872   80.1293  222.9517 H   0  0  0  0  0  0  0  0  0  0  0  0
  139.6969   77.7757  223.5844 H   0  0  0  0  0  0  0  0  0  0  0  0
  1  2  1  0
  2  3  1  0
  2  4  1  0
  4  5  1  0
  5  6  1  0
  6  7  1  0
  6  8  1  0
  8  9  1  0
  9 10  1  0
 10 11  2  0
 10 12  1  0
 12 13  1  0
 13 14  1  0
 14 15  2  0
 14 16  1  0
 16 17  2  0
 17 18  1  0
 18 19  2  0
 19 20  1  0
 20 21  2  0
 21 22  1  0
 22 23  2  0
 23 24  1  0
 24 25  2  0
  9  4  1  0
 25 16  1  0
 24 19  1  0
  1 26  1  0
  1 27  1  0
  1 28  1  0
  2 29  1  0
  3 30  1  0
  3 31  1  0
  3 32  1  0
  4 33  1  6
  5 34  1  0
  5 35  1  0
  6 36  1  6
  7 37  1  0
  8 38  1  0
  8 39  1  0
 12 40  1  0
 12 41  1  0
 13 42  1  0
 17 43  1  0
 18 44  1  0
 20 45  1  0
 21 46  1  0
 22 47  1  0
 23 48  1  0
M  END
>  <smiles>  (5) 
CC(C)[C@H]1C[C@@H](O)CN1C(=O)CNC(=O)c1ccc2ccccc2n1

>  <score_type>  (5) 
oracle

>  <origin>  (5) 
autodockgpu

>  <m_score__min__energy>  (5) 
-8.1199999999999992

>  <m_primary>  (5) 
energy

>  <rmsd>  (5) 
8.587910592933246

>  <m_score__min__rmsd>  (5) 
8.587910592933246

>  <meeko>  (5) 
{"free_energy": -8.1, "intermolecular_energy": -9.89, "internal_energy": -1.28, "cluster_size": 22, "cluster_id": 1, "rank_in_cluster": 4}

>  <energy>  (5) 
-8.08

>  <cluster_rmsd>  (5) 
1.8

>  <cluster>  (5) 
1

$$$$

     RDKit          3D

 48 50  0  0  0  0  0  0  0  0999 V2000
  145.5820   73.4190  221.2030 C   0  0  0  0  0  0  0  0  0  0  0  0
  144.5320   72.9200  220.2290 C   0  0  0  0  0  0  0  0  0  0  0  0
  144.0620   71.5890  220.7660 C   0  0  0  0  0  0  0  0  0  0  0  0
  143.3620   73.8880  220.2520 C   0  0  1  0  0  0  0  0  0  0  0  0
  143.8430   75.3010  219.9830 C   0  0  0  0  0  0  0  0  0  0  0  0
  143.0220   75.7090  218.7830 C   0  0  1  0  0  0  0  0  0  0  0  0
  143.6220   76.6630  217.9920 O   0  0  0  0  0  0  0  0  0  0  0  0
  142.9120   74.3650  218.0460 C   0  0  0  0  0  0  0  0  0  0  0  0
  142.4280   73.5540  219.1780 N   0  0  0  0  0  0  0  0  0  0  0  0
  141.3180   72.6680  219.2020 C   0  0  0  0  0  0  0  0  0  0  0  0
  141.1870   71.6890  218.4250 O   0  0  0  0  0  0  0  0  0  0  0  0
  140.2570   72.9200  220.2100 C   0  0  0  0  0  0  0  0  0  0  0  0
  140.2860   71.9320  221.2700 N   0  0  0  0  0  0  0  0  0  0  0  0
  140.1140   72.4190  222.6020 C   0  0  0  0  0  0  0  0  0  0  0  0
  139.9540   73.6780  222.7030 O   0  0  0  0  0  0  0  0  0  0  0  0
  140.1210   71.5360  223.7620 C   0  0  0  0  0  0  0  0  0  0  0  0
  139.5930   70.2740  223.6010 C   0  0  0  0  0  0  0  0  0  0  0  0
  139.5430   69.3420  224.6280 C   0  0  0  0  0  0  0  0  0  0  0  0
  140.0480   69.7270  225.8410 C   0  0  0  0  0  0  0  0  0  0  0  0
  140.0090   68.8180  226.8760 C   0  0  0  0  0  0  0  0  0  0  0  0
  140.5050   69.1610  228.1120 C   0  0  0  0  0  0  0  0  0  0  0  0
  141.0290   70.4270  228.2520 C   0  0  0  0  0  0  0  0  0  0  0  0
  141.0680   71.3430  227.2070 C   0  0  0  0  0  0  0  0  0  0  0  0
  140.5660   70.9960  225.9570 C   0  0  0  0  0  0  0  0  0  0  0  0
  140.6070   71.8860  224.9540 N   0  0  0  0  0  0  0  0  0  0  0  0
  145.2343   73.2538  222.2334 H   0  0  0  0  0  0  0  0  0  0  0  0
  146.5221   72.8714  221.0410 H   0  0  0  0  0  0  0  0  0  0  0  0
  145.7511   74.4938  221.0410 H   0  0  0  0  0  0  0  0  0  0  0  0
  144.9254   72.8340  219.2054 H   0  0  0  0  0  0  0  0  0  0  0  0
  144.0707   71.6136  221.8657 H   0  0  0  0  0  0  0  0  0  0  0  0
  143.0396   71.3910  220.4117 H   0  0  0  0  0  0  0  0  0  0  0  0
  144.7334   70.7929  220.4117 H   0  0  0  0  0  0  0  0  0  0  0  0
  142.8838   73.8179  221.2401 H   0  0  0  0  0  0  0  0  0  0  0  0
  143.6432   75.9582  220.8422 H   0  0  0  0  0  0  0  0  0  0  0  0
  144.9277   75.3676  219.8126 H   0  0  0  0  0  0  0  0  0  0  0  0
  142.0680   76.1839  219.0556 H   0  0  0  0  0  0  0  0  0  0  0  0
  144.5510   76.3580  217.8430 H   0  0  0  0  0  0  0  0  0  0  0  0
  142.1881   74.4008  217.2186 H   0  0  0  0  0  0  0  0  0  0  0  0
  143.8270   74.0080  217.5507 H   0  0  0  0  0  0  0  0  0  0  0  0
  140.4091   73.9179  220.6472 H   0  0  0  0  0  0  0  0  0  0  0  0
  139.2809   72.8576  219.7067 H   0  0  0  0  0  0  0  0  0  0  0  0
  140.4200   70.9200  221.1120 H   0  0  0  0  0  0  0  0  0  0  0  0
  139.1936   69.9927  222.6154 H   0  0  0  0  0  0  0  0  0  0  0  0
  139.1170   68.3395  224.4745 H   0  0  0  0  0  0  0  0  0  0  0  0
  139.5810   67.8178  226.7135 H   0  0  0  0  0  0  0  0  0  0  0  0
  140.4841   68.4535  228.9540 H   0  0  0  0  0  0  0  0  0  0  0  0
  141.4331   70.7255  229.2306 H   0  0  0  0  0  0  0  0  0  0  0  0
  141.4962   72.3432  227.3688 H   0  0  0  0  0  0  0  0  0  0  0  0
  1  2  1  0
  2  3  1  0
  2  4  1  0
  4  5  1  0
  5  6  1  0
  6  7  1  0
  6  8  1  0
  8  9  1  0
  9 10  1  0
 10 11  2  0
 10 12  1  0
 12 13  1  0
 13 14  1  0
 14 15  2  0
 14 16  1  0
 16 17  2  0
 17 18  1  0
 18 19  2  0
 19 20  1  0
 20 21  2  0
 21 22  1  0
 22 23  2  0
 23 24  1  0
 24 25  2  0
  9  4  1  0
 25 16  1  0
 24 19  1  0
  1 26  1  0
  1 27  1  0
  1 28  1  0
  2 29  1  0
  3 30  1  0
  3 31  1  0
  3 32  1  0
  4 33  1  1
  5 34  1  0
  5 35  1  0
  6 36  1  1
  7 37  1  0
  8 38  1  0
  8 39  1  0
 12 40  1  0
 12 41  1  0
 13 42  1  0
 17 43  1  0
 18 44  1  0
 20 45  1  0
 21 46  1  0
 22 47  1  0
 23 48  1  0
M  END
>  <smiles>  (6) 
CC(C)[C@H]1C[C@@H](O)CN1C(=O)CNC(=O)c1ccc2ccccc2n1

>  <score_type>  (6) 
oracle

>  <origin>  (6) 
autodockgpu

>  <m_score__min__energy>  (6) 
-8.1199999999999992

>  <m_primary>  (6) 
energy

>  <rmsd>  (6) 
2.863057117467221

>  <m_score__min__rmsd>  (6) 
2.863057117467221

>  <meeko>  (6) 
{"free_energy": -7.0, "intermolecular_energy": -8.79, "internal_energy": -1.24, "cluster_size": 6, "cluster_id": 4, "rank_in_cluster": 5}

>  <energy>  (6) 
-8.08

>  <cluster_rmsd>  (6) 
1.81

>  <cluster>  (6) 
1

$$$$

     RDKit          3D

 48 50  0  0  0  0  0  0  0  0999 V2000
  142.5510   80.4590  222.3160 C   0  0  0  0  0  0  0  0  0  0  0  0
  142.0720   79.0330  222.5100 C   0  0  0  0  0  0  0  0  0  0  0  0
  141.3060   79.0220  223.8110 C   0  0  0  0  0  0  0  0  0  0  0  0
  141.1130   78.6950  221.3830 C   0  0  1  0  0  0  0  0  0  0  0  0
  141.5950   79.3020  220.0800 C   0  0  0  0  0  0  0  0  0  0  0  0
  141.7020   78.0990  219.1720 C   0  0  1  0  0  0  0  0  0  0  0  0
  142.6270   78.2410  218.1610 O   0  0  0  0  0  0  0  0  0  0  0  0
  142.1390   77.0240  220.1780 C   0  0  0  0  0  0  0  0  0  0  0  0
  141.0830   77.2470  221.1820 N   0  0  0  0  0  0  0  0  0  0  0  0
  140.2460   76.2760  221.7960 C   0  0  0  0  0  0  0  0  0  0  0  0
  139.4180   76.5400  222.7040 O   0  0  0  0  0  0  0  0  0  0  0  0
  140.3640   74.8710  221.3280 C   0  0  0  0  0  0  0  0  0  0  0  0
  139.9360   73.9350  222.3500 N   0  0  0  0  0  0  0  0  0  0  0  0
  140.6550   72.7030  222.4270 C   0  0  0  0  0  0  0  0  0  0  0  0
  141.5970   72.5690  221.5810 O   0  0  0  0  0  0  0  0  0  0  0  0
  140.3320   71.6730  223.4060 C   0  0  0  0  0  0  0  0  0  0  0  0
  139.5740   70.6060  222.9770 C   0  0  0  0  0  0  0  0  0  0  0  0
  139.2010   69.5620  223.8110 C   0  0  0  0  0  0  0  0  0  0  0  0
  139.6210   69.6270  225.1130 C   0  0  0  0  0  0  0  0  0  0  0  0
  139.2630   68.6010  225.9610 C   0  0  0  0  0  0  0  0  0  0  0  0
  139.6630   68.6250  227.2760 C   0  0  0  0  0  0  0  0  0  0  0  0
  140.4200   69.7010  227.6860 C   0  0  0  0  0  0  0  0  0  0  0  0
  140.7810   70.7350  226.8300 C   0  0  0  0  0  0  0  0  0  0  0  0
  140.3760   70.7100  225.5000 C   0  0  0  0  0  0  0  0  0  0  0  0
  140.7290   71.7120  224.6790 N   0  0  0  0  0  0  0  0  0  0  0  0
  142.7090   80.9295  223.2977 H   0  0  0  0  0  0  0  0  0  0  0  0
  143.4971   80.4549  221.7548 H   0  0  0  0  0  0  0  0  0  0  0  0
  141.7943   81.0268  221.7548 H   0  0  0  0  0  0  0  0  0  0  0  0
  142.9049   78.3145  222.5188 H   0  0  0  0  0  0  0  0  0  0  0  0
  142.0135   79.0322  224.6532 H   0  0  0  0  0  0  0  0  0  0  0  0
  140.6603   79.9110  223.8639 H   0  0  0  0  0  0  0  0  0  0  0  0
  140.6861   78.1149  223.8639 H   0  0  0  0  0  0  0  0  0  0  0  0
  140.1217   79.0868  221.6544 H   0  0  0  0  0  0  0  0  0  0  0  0
  140.8691   80.0304  219.6894 H   0  0  0  0  0  0  0  0  0  0  0  0
  142.5388   79.8581  220.1805 H   0  0  0  0  0  0  0  0  0  0  0  0
  140.7719   77.8896  218.6234 H   0  0  0  0  0  0  0  0  0  0  0  0
  142.1170   78.4900  217.3500 H   0  0  0  0  0  0  0  0  0  0  0  0
  142.1006   76.0115  219.7498 H   0  0  0  0  0  0  0  0  0  0  0  0
  143.1750   77.0932  220.5412 H   0  0  0  0  0  0  0  0  0  0  0  0
  139.7361   74.7374  220.4348 H   0  0  0  0  0  0  0  0  0  0  0  0
  141.4205   74.6710  221.0960 H   0  0  0  0  0  0  0  0  0  0  0  0
  139.1590   74.1120  223.0070 H   0  0  0  0  0  0  0  0  0  0  0  0
  139.2499   70.5805  221.9261 H   0  0  0  0  0  0  0  0  0  0  0  0
  138.5956   68.7204  223.4434 H   0  0  0  0  0  0  0  0  0  0  0  0
  138.6573   67.7631  225.5855 H   0  0  0  0  0  0  0  0  0  0  0  0
  139.3900   67.8184  227.9723 H   0  0  0  0  0  0  0  0  0  0  0  0
  140.7523   69.7434  228.7338 H   0  0  0  0  0  0  0  0  0  0  0  0
  141.3871   71.5730  227.2047 H   0  0  0  0  0  0  0  0  0  0  0  0
  1  2  1  0
  2  3  1  0
  2  4  1  0
  4  5  1  0
  5  6  1  0
  6  7  1  0
  6  8  1  0
  8  9  1  0
  9 10  1  0
 10 11  2  0
 10 12  1  0
 12 13  1  0
 13 14  1  0
 14 15  2  0
 14 16  1  0
 16 17  2  0
 17 18  1  0
 18 19  2  0
 19 20  1  0
 20 21  2  0
 21 22  1  0
 22 23  2  0
 23 24  1  0
 24 25  2  0
  9  4  1  0
 25 16  1  0
 24 19  1  0
  1 26  1  0
  1 27  1  0
  1 28  1  0
  2 29  1  0
  3 30  1  0
  3 31  1  0
  3 32  1  0
  4 33  1  1
  5 34  1  0
  5 35  1  0
  6 36  1  6
  7 37  1  0
  8 38  1  0
  8 39  1  0
 12 40  1  0
 12 41  1  0
 13 42  1  0
 17 43  1  0
 18 44  1  0
 20 45  1  0
 21 46  1  0
 22 47  1  0
 23 48  1  0
M  END
>  <smiles>  (7) 
CC(C)[C@H]1C[C@@H](O)CN1C(=O)CNC(=O)c1ccc2ccccc2n1

>  <score_type>  (7) 
oracle

>  <origin>  (7) 
autodockgpu

>  <m_score__min__energy>  (7) 
-8.1199999999999992

>  <m_primary>  (7) 
energy

>  <rmsd>  (7) 
2.4302985011978544

>  <m_score__min__rmsd>  (7) 
2.4302985011978544

>  <meeko>  (7) 
{"free_energy": -7.22, "intermolecular_energy": -9.01, "internal_energy": -1.25, "cluster_size": 14, "cluster_id": 3, "rank_in_cluster": 12}

>  <energy>  (7) 
-8.08

>  <cluster_rmsd>  (7) 
1.81

>  <cluster>  (7) 
1

$$$$

     RDKit          3D

 48 50  0  0  0  0  0  0  0  0999 V2000
  142.4720   79.3240  222.4960 C   0  0  0  0  0  0  0  0  0  0  0  0
  141.3460   78.3420  222.7590 C   0  0  0  0  0  0  0  0  0  0  0  0
  140.2990   79.1030  223.5360 C   0  0  0  0  0  0  0  0  0  0  0  0
  140.7510   77.9300  221.4240 C   0  0  1  0  0  0  0  0  0  0  0  0
  141.7110   78.2560  220.2960 C   0  0  0  0  0  0  0  0  0  0  0  0
  141.9060   76.9160  219.6280 C   0  0  1  0  0  0  0  0  0  0  0  0
  143.1130   76.7850  218.9770 O   0  0  0  0  0  0  0  0  0  0  0  0
  141.8270   75.9800  220.8440 C   0  0  0  0  0  0  0  0  0  0  0  0
  140.5570   76.4810  221.4000 N   0  0  0  0  0  0  0  0  0  0  0  0
  139.4260   75.7240  221.8080 C   0  0  0  0  0  0  0  0  0  0  0  0
  138.5580   76.1420  222.6150 O   0  0  0  0  0  0  0  0  0  0  0  0
  139.2680   74.3600  221.2400 C   0  0  0  0  0  0  0  0  0  0  0  0
  139.0270   73.3780  222.2790 N   0  0  0  0  0  0  0  0  0  0  0  0
  140.1500   72.6010  222.6960 C   0  0  0  0  0  0  0  0  0  0  0  0
  141.2440   72.8630  222.1000 O   0  0  0  0  0  0  0  0  0  0  0  0
  140.0490   71.5790  223.7300 C   0  0  0  0  0  0  0  0  0  0  0  0
  139.2950   70.4620  223.4470 C   0  0  0  0  0  0  0  0  0  0  0  0
  139.1230   69.4200  224.3470 C   0  0  0  0  0  0  0  0  0  0  0  0
  139.7430   69.5410  225.5620 C   0  0  0  0  0  0  0  0  0  0  0  0
  139.5870   68.5180  226.4730 C   0  0  0  0  0  0  0  0  0  0  0  0
  140.1920   68.5960  227.7050 C   0  0  0  0  0  0  0  0  0  0  0  0
  140.9420   69.7220  227.9700 C   0  0  0  0  0  0  0  0  0  0  0  0
  141.0990   70.7520  227.0500 C   0  0  0  0  0  0  0  0  0  0  0  0
  140.4870   70.6720  225.8040 C   0  0  0  0  0  0  0  0  0  0  0  0
  140.6440   71.6710  224.9210 N   0  0  0  0  0  0  0  0  0  0  0  0
  142.8797   79.6795  223.4538 H   0  0  0  0  0  0  0  0  0  0  0  0
  143.2667   78.8254  221.9217 H   0  0  0  0  0  0  0  0  0  0  0  0
  142.0861   80.1792  221.9217 H   0  0  0  0  0  0  0  0  0  0  0  0
  141.6932   77.4514  223.3033 H   0  0  0  0  0  0  0  0  0  0  0  0
  140.4765   78.9740  224.6139 H   0  0  0  0  0  0  0  0  0  0  0  0
  140.3569   80.1713  223.2801 H   0  0  0  0  0  0  0  0  0  0  0  0
  139.3008   78.7182  223.2801 H   0  0  0  0  0  0  0  0  0  0  0  0
  139.8000   78.4681  221.2972 H   0  0  0  0  0  0  0  0  0  0  0  0
  141.2719   78.9859  219.6000 H   0  0  0  0  0  0  0  0  0  0  0  0
  142.6505   78.7126  220.6408 H   0  0  0  0  0  0  0  0  0  0  0  0
  141.1754   76.7236  218.8285 H   0  0  0  0  0  0  0  0  0  0  0  0
  143.1790   77.5520  218.3550 H   0  0  0  0  0  0  0  0  0  0  0  0
  141.7662   74.9211  220.5525 H   0  0  0  0  0  0  0  0  0  0  0  0
  142.6922   75.9936  221.5231 H   0  0  0  0  0  0  0  0  0  0  0  0
  138.4172   74.3592  220.5427 H   0  0  0  0  0  0  0  0  0  0  0  0
  140.1996   74.0919  220.7202 H   0  0  0  0  0  0  0  0  0  0  0  0
  138.1060   73.2190  222.7200 H   0  0  0  0  0  0  0  0  0  0  0  0
  138.8072   70.3927  222.4635 H   0  0  0  0  0  0  0  0  0  0  0  0
  138.5165   68.5373  224.0960 H   0  0  0  0  0  0  0  0  0  0  0  0
  138.9783   67.6391  226.2140 H   0  0  0  0  0  0  0  0  0  0  0  0
  140.0822   67.7930  228.4487 H   0  0  0  0  0  0  0  0  0  0  0  0
  141.4361   69.8088  228.9490 H   0  0  0  0  0  0  0  0  0  0  0  0
  141.7079   71.6311  227.3078 H   0  0  0  0  0  0  0  0  0  0  0  0
  1  2  1  0
  2  3  1  0
  2  4  1  0
  4  5  1  0
  5  6  1  0
  6  7  1  0
  6  8  1  0
  8  9  1  0
  9 10  1  0
 10 11  2  0
 10 12  1  0
 12 13  1  0
 13 14  1  0
 14 15  2  0
 14 16  1  0
 16 17  2  0
 17 18  1  0
 18 19  2  0
 19 20  1  0
 20 21  2  0
 21 22  1  0
 22 23  2  0
 23 24  1  0
 24 25  2  0
  9  4  1  0
 25 16  1  0
 24 19  1  0
  1 26  1  0
  1 27  1  0
  1 28  1  0
  2 29  1  0
  3 30  1  0
  3 31  1  0
  3 32  1  0
  4 33  1  6
  5 34  1  0
  5 35  1  0
  6 36  1  6
  7 37  1  0
  8 38  1  0
  8 39  1  0
 12 40  1  0
 12 41  1  0
 13 42  1  0
 17 43  1  0
 18 44  1  0
 20 45  1  0
 21 46  1  0
 22 47  1  0
 23 48  1  0
M  END
>  <smiles>  (8) 
CC(C)[C@H]1C[C@@H](O)CN1C(=O)CNC(=O)c1ccc2ccccc2n1

>  <score_type>  (8) 
oracle

>  <origin>  (8) 
autodockgpu

>  <m_score__min__energy>  (8) 
-8.1199999999999992

>  <m_primary>  (8) 
energy

>  <rmsd>  (8) 
2.0882853829341017

>  <m_score__min__rmsd>  (8) 
2.0882853829341017

>  <meeko>  (8) 
{"free_energy": -7.33, "intermolecular_energy": -9.12, "internal_energy": -1.1, "cluster_size": 14, "cluster_id": 3, "rank_in_cluster": 10}

>  <energy>  (8) 
-8.06

>  <cluster_rmsd>  (8) 
0.21

>  <cluster>  (8) 
1

$$$$

     RDKit          3D

 48 50  0  0  0  0  0  0  0  0999 V2000
  141.0630   77.6210  222.7040 C   0  0  0  0  0  0  0  0  0  0  0  0
  140.3510   76.3720  222.2200 C   0  0  0  0  0  0  0  0  0  0  0  0
  138.8760   76.6310  222.4080 C   0  0  0  0  0  0  0  0  0  0  0  0
  140.6270   76.2120  220.7350 C   0  0  1  0  0  0  0  0  0  0  0  0
  141.8030   77.0760  220.3210 C   0  0  0  0  0  0  0  0  0  0  0  0
  142.7540   76.0730  219.7120 C   0  0  1  0  0  0  0  0  0  0  0  0
  144.0780   76.4440  219.7800 O   0  0  0  0  0  0  0  0  0  0  0  0
  142.4740   74.8470  220.5940 C   0  0  0  0  0  0  0  0  0  0  0  0
  141.0070   74.8280  220.4540 N   0  0  0  0  0  0  0  0  0  0  0  0
  140.1770   73.7240  220.1230 C   0  0  0  0  0  0  0  0  0  0  0  0
  140.4790   72.8530  219.2690 O   0  0  0  0  0  0  0  0  0  0  0  0
  138.8790   73.5990  220.8350 C   0  0  0  0  0  0  0  0  0  0  0  0
  139.0640   73.1360  222.1960 N   0  0  0  0  0  0  0  0  0  0  0  0
  139.5270   71.7950  222.3570 C   0  0  0  0  0  0  0  0  0  0  0  0
  139.7260   71.1560  221.2740 O   0  0  0  0  0  0  0  0  0  0  0  0
  139.7560   71.2000  223.6680 C   0  0  0  0  0  0  0  0  0  0  0  0
  139.3850   69.8850  223.8410 C   0  0  0  0  0  0  0  0  0  0  0  0
  139.5510   69.2070  225.0400 C   0  0  0  0  0  0  0  0  0  0  0  0
  140.1100   69.9060  226.0760 C   0  0  0  0  0  0  0  0  0  0  0  0
  140.2840   69.2530  227.2780 C   0  0  0  0  0  0  0  0  0  0  0  0
  140.8420   69.9160  228.3460 C   0  0  0  0  0  0  0  0  0  0  0  0
  141.2060   71.2310  228.1520 C   0  0  0  0  0  0  0  0  0  0  0  0
  141.0290   71.8880  226.9400 C   0  0  0  0  0  0  0  0  0  0  0  0
  140.4650   71.2170  225.8600 C   0  0  0  0  0  0  0  0  0  0  0  0
  140.2980   71.8590  224.6940 N   0  0  0  0  0  0  0  0  0  0  0  0
  141.0712   77.6354  223.8039 H   0  0  0  0  0  0  0  0  0  0  0  0
  142.0973   77.6218  222.3295 H   0  0  0  0  0  0  0  0  0  0  0  0
  140.5368   78.5114  222.3295 H   0  0  0  0  0  0  0  0  0  0  0  0
  140.6809   75.4723  222.7601 H   0  0  0  0  0  0  0  0  0  0  0  0
  138.6449   76.6716  223.4827 H   0  0  0  0  0  0  0  0  0  0  0  0
  138.6094   77.5897  221.9392 H   0  0  0  0  0  0  0  0  0  0  0  0
  138.2987   75.8205  221.9392 H   0  0  0  0  0  0  0  0  0  0  0  0
  139.7172   76.5013  220.1885 H   0  0  0  0  0  0  0  0  0  0  0  0
  141.4987   77.8328  219.5830 H   0  0  0  0  0  0  0  0  0  0  0  0
  142.2423   77.6437  221.1545 H   0  0  0  0  0  0  0  0  0  0  0  0
  142.5965   75.9307  218.6327 H   0  0  0  0  0  0  0  0  0  0  0  0
  144.0910   77.3690  220.1320 H   0  0  0  0  0  0  0  0  0  0  0  0
  142.9426   73.9334  220.1993 H   0  0  0  0  0  0  0  0  0  0  0  0
  142.8613   74.8923  221.6225 H   0  0  0  0  0  0  0  0  0  0  0  0
  138.3860   74.5821  220.8555 H   0  0  0  0  0  0  0  0  0  0  0  0
  138.2607   72.8629  220.3003 H   0  0  0  0  0  0  0  0  0  0  0  0
  138.8820   73.7150  223.0330 H   0  0  0  0  0  0  0  0  0  0  0  0
  138.9374   69.3487  222.9912 H   0  0  0  0  0  0  0  0  0  0  0  0
  139.2473   68.1558  225.1531 H   0  0  0  0  0  0  0  0  0  0  0  0
  139.9766   68.2020  227.3826 H   0  0  0  0  0  0  0  0  0  0  0  0
  140.9916   69.4173  229.3150 H   0  0  0  0  0  0  0  0  0  0  0  0
  141.6550   71.7833  228.9907 H   0  0  0  0  0  0  0  0  0  0  0  0
  141.3352   72.9393  226.8348 H   0  0  0  0  0  0  0  0  0  0  0  0
  1  2  1  0
  2  3  1  0
  2  4  1  0
  4  5  1  0
  5  6  1  0
  6  7  1  0
  6  8  1  0
  8  9  1  0
  9 10  1  0
 10 11  2  0
 10 12  1  0
 12 13  1  0
 13 14  1  0
 14 15  2  0
 14 16  1  0
 16 17  2  0
 17 18  1  0
 18 19  2  0
 19 20  1  0
 20 21  2  0
 21 22  1  0
 22 23  2  0
 23 24  1  0
 24 25  2  0
  9  4  1  0
 25 16  1  0
 24 19  1  0
  1 26  1  0
  1 27  1  0
  1 28  1  0
  2 29  1  0
  3 30  1  0
  3 31  1  0
  3 32  1  0
  4 33  1  6
  5 34  1  0
  5 35  1  0
  6 36  1  6
  7 37  1  0
  8 38  1  0
  8 39  1  0
 12 40  1  0
 12 41  1  0
 13 42  1  0
 17 43  1  0
 18 44  1  0
 20 45  1  0
 21 46  1  0
 22 47  1  0
 23 48  1  0
M  END
>  <smiles>  (9) 
CC(C)[C@H]1C[C@@H](O)CN1C(=O)CNC(=O)c1ccc2ccccc2n1

>  <score_type>  (9) 
oracle

>  <origin>  (9) 
autodockgpu

>  <m_score__min__energy>  (9) 
-8.1199999999999992

>  <m_primary>  (9) 
energy

>  <rmsd>  (9) 
2.0153359596698968

>  <m_score__min__rmsd>  (9) 
2.0153359596698968

>  <meeko>  (9) 
{"free_energy": -7.29, "intermolecular_energy": -9.08, "internal_energy": -1.22, "cluster_size": 14, "cluster_id": 3, "rank_in_cluster": 11}

>  <energy>  (9) 
-8.05

>  <cluster_rmsd>  (9) 
1.8

>  <cluster>  (9) 
1

$$$$

     RDKit          3D

 48 50  0  0  0  0  0  0  0  0999 V2000
  143.7810   72.3240  217.7060 C   0  0  0  0  0  0  0  0  0  0  0  0
  142.5440   72.7070  218.4960 C   0  0  0  0  0  0  0  0  0  0  0  0
  141.5810   71.5530  218.3510 C   0  0  0  0  0  0  0  0  0  0  0  0
  142.9320   72.8300  219.9590 C   0  0  1  0  0  0  0  0  0  0  0  0
  144.4170   72.5750  220.1340 C   0  0  0  0  0  0  0  0  0  0  0  0
  144.8930   73.8400  220.8080 C   0  0  1  0  0  0  0  0  0  0  0  0
  146.2180   74.1340  220.5720 O   0  0  0  0  0  0  0  0  0  0  0  0
  143.9680   74.8750  220.1530 C   0  0  0  0  0  0  0  0  0  0  0  0
  142.6870   74.1970  220.4180 N   0  0  0  0  0  0  0  0  0  0  0  0
  141.5080   74.7510  220.9840 C   0  0  0  0  0  0  0  0  0  0  0  0
  141.4440   75.9050  221.4780 O   0  0  0  0  0  0  0  0  0  0  0  0
  140.2830   73.9100  220.9860 C   0  0  0  0  0  0  0  0  0  0  0  0
  140.0490   73.3180  222.2890 N   0  0  0  0  0  0  0  0  0  0  0  0
  140.4350   71.9520  222.4470 C   0  0  0  0  0  0  0  0  0  0  0  0
  140.9450   71.4080  221.4150 O   0  0  0  0  0  0  0  0  0  0  0  0
  140.2580   71.2320  223.7020 C   0  0  0  0  0  0  0  0  0  0  0  0
  139.5680   70.0410  223.6580 C   0  0  0  0  0  0  0  0  0  0  0  0
  139.3340   69.2630  224.7830 C   0  0  0  0  0  0  0  0  0  0  0  0
  139.8220   69.7310  225.9730 C   0  0  0  0  0  0  0  0  0  0  0  0
  139.6010   68.9750  227.1050 C   0  0  0  0  0  0  0  0  0  0  0  0
  140.0740   69.4060  228.3220 C   0  0  0  0  0  0  0  0  0  0  0  0
  140.7610   70.6000  228.3460 C   0  0  0  0  0  0  0  0  0  0  0  0
  140.9830   71.3610  227.2040 C   0  0  0  0  0  0  0  0  0  0  0  0
  140.5050   70.9250  225.9730 C   0  0  0  0  0  0  0  0  0  0  0  0
  140.7230   71.6650  224.8750 N   0  0  0  0  0  0  0  0  0  0  0  0
  144.5960   72.0717  218.4004 H   0  0  0  0  0  0  0  0  0  0  0  0
  143.5564   71.4533  217.0724 H   0  0  0  0  0  0  0  0  0  0  0  0
  144.0877   73.1693  217.0724 H   0  0  0  0  0  0  0  0  0  0  0  0
  142.1059   73.6532  218.1456 H   0  0  0  0  0  0  0  0  0  0  0  0
  141.2833   71.1963  219.3481 H   0  0  0  0  0  0  0  0  0  0  0  0
  140.6895   71.8865  217.7996 H   0  0  0  0  0  0  0  0  0  0  0  0
  142.0686   70.7356  217.7996 H   0  0  0  0  0  0  0  0  0  0  0  0
  142.3392   72.0991  220.5286 H   0  0  0  0  0  0  0  0  0  0  0  0
  144.5964   71.6952  220.7694 H   0  0  0  0  0  0  0  0  0  0  0  0
  144.9378   72.3609  219.1891 H   0  0  0  0  0  0  0  0  0  0  0  0
  144.8467   73.7873  221.9058 H   0  0  0  0  0  0  0  0  0  0  0  0
  146.2630   74.5020  219.6540 H   0  0  0  0  0  0  0  0  0  0  0  0
  144.0289   75.8581  220.6428 H   0  0  0  0  0  0  0  0  0  0  0  0
  144.1795   75.1159  219.1007 H   0  0  0  0  0  0  0  0  0  0  0  0
  139.4191   74.5355  220.7169 H   0  0  0  0  0  0  0  0  0  0  0  0
  140.4197   73.0980  220.2566 H   0  0  0  0  0  0  0  0  0  0  0  0
  139.6290   73.8230  223.0860 H   0  0  0  0  0  0  0  0  0  0  0  0
  139.1853   69.6908  222.6880 H   0  0  0  0  0  0  0  0  0  0  0  0
  138.7817   68.3137  224.7212 H   0  0  0  0  0  0  0  0  0  0  0  0
  139.0465   68.0276  227.0343 H   0  0  0  0  0  0  0  0  0  0  0  0
  139.9105   68.8212  229.2392 H   0  0  0  0  0  0  0  0  0  0  0  0
  141.1496   70.9660  229.3078 H   0  0  0  0  0  0  0  0  0  0  0  0
  141.5371   72.3086  227.2741 H   0  0  0  0  0  0  0  0  0  0  0  0
  1  2  1  0
  2  3  1  0
  2  4  1  0
  4  5  1  0
  5  6  1  0
  6  7  1  0
  6  8  1  0
  8  9  1  0
  9 10  1  0
 10 11  2  0
 10 12  1  0
 12 13  1  0
 13 14  1  0
 14 15  2  0
 14 16  1  0
 16 17  2  0
 17 18  1  0
 18 19  2  0
 19 20  1  0
 20 21  2  0
 21 22  1  0
 22 23  2  0
 23 24  1  0
 24 25  2  0
  9  4  1  0
 25 16  1  0
 24 19  1  0
  1 26  1  0
  1 27  1  0
  1 28  1  0
  2 29  1  0
  3 30  1  0
  3 31  1  0
  3 32  1  0
  4 33  1  1
  5 34  1  0
  5 35  1  0
  6 36  1  1
  7 37  1  0
  8 38  1  0
  8 39  1  0
 12 40  1  0
 12 41  1  0
 13 42  1  0
 17 43  1  0
 18 44  1  0
 20 45  1  0
 21 46  1  0
 22 47  1  0
 23 48  1  0
M  END
>  <smiles>  (10) 
CC(C)[C@H]1C[C@@H](O)CN1C(=O)CNC(=O)c1ccc2ccccc2n1

>  <score_type>  (10) 
oracle

>  <origin>  (10) 
autodockgpu

>  <m_score__min__energy>  (10) 
-8.1199999999999992

>  <m_primary>  (10) 
energy

>  <rmsd>  (10) 
3.513344193087121

>  <m_score__min__rmsd>  (10) 
3.513344193087121

>  <meeko>  (10) 
{"free_energy": -7.12, "intermolecular_energy": -8.91, "internal_energy": -1.34, "cluster_size": 6, "cluster_id": 4, "rank_in_cluster": 4}

>  <energy>  (10) 
-8.05

>  <cluster_rmsd>  (10) 
0.23

>  <cluster>  (10) 
1

$$$$

     RDKit          3D

 48 50  0  0  0  0  0  0  0  0999 V2000
  141.8410   78.9050  222.7130 C   0  0  0  0  0  0  0  0  0  0  0  0
  140.7110   77.8960  222.6360 C   0  0  0  0  0  0  0  0  0  0  0  0
  139.4620   78.6350  223.0530 C   0  0  0  0  0  0  0  0  0  0  0  0
  140.5560   77.4640  221.1890 C   0  0  1  0  0  0  0  0  0  0  0  0
  141.7920   77.8360  220.3920 C   0  0  0  0  0  0  0  0  0  0  0  0
  142.2330   76.5070  219.8240 C   0  0  1  0  0  0  0  0  0  0  0  0
  143.5830   76.4310  219.5610 O   0  0  0  0  0  0  0  0  0  0  0  0
  141.8360   75.5640  220.9700 C   0  0  0  0  0  0  0  0  0  0  0  0
  140.4380   76.0080  221.1210 N   0  0  0  0  0  0  0  0  0  0  0  0
  139.2700   75.2030  221.1830 C   0  0  0  0  0  0  0  0  0  0  0  0
  138.1040   75.6650  221.2540 O   0  0  0  0  0  0  0  0  0  0  0  0
  139.4490   73.7280  221.1610 C   0  0  0  0  0  0  0  0  0  0  0  0
  139.5850   73.1900  222.5000 N   0  0  0  0  0  0  0  0  0  0  0  0
  139.9710   71.8190  222.6010 C   0  0  0  0  0  0  0  0  0  0  0  0
  140.1530   71.2230  221.4910 O   0  0  0  0  0  0  0  0  0  0  0  0
  140.1450   71.1500  223.8840 C   0  0  0  0  0  0  0  0  0  0  0  0
  140.7380   71.8700  224.8990 C   0  0  0  0  0  0  0  0  0  0  0  0
  140.9590   71.3460  226.1650 C   0  0  0  0  0  0  0  0  0  0  0  0
  140.5590   70.0540  226.3800 C   0  0  0  0  0  0  0  0  0  0  0  0
  140.7680   69.5130  227.6300 C   0  0  0  0  0  0  0  0  0  0  0  0
  140.3830   68.2190  227.8930 C   0  0  0  0  0  0  0  0  0  0  0  0
  139.7930   67.5160  226.8650 C   0  0  0  0  0  0  0  0  0  0  0  0
  139.5820   68.0640  225.6050 C   0  0  0  0  0  0  0  0  0  0  0  0
  139.9720   69.3720  225.3400 C   0  0  0  0  0  0  0  0  0  0  0  0
  139.7650   69.8940  224.1210 N   0  0  0  0  0  0  0  0  0  0  0  0
  142.0749   79.1138  223.7674 H   0  0  0  0  0  0  0  0  0  0  0  0
  142.7320   78.4965  222.2137 H   0  0  0  0  0  0  0  0  0  0  0  0
  141.5356   79.8364  222.2137 H   0  0  0  0  0  0  0  0  0  0  0  0
  140.8974   77.0162  223.2694 H   0  0  0  0  0  0  0  0  0  0  0  0
  139.4052   78.6686  224.1510 H   0  0  0  0  0  0  0  0  0  0  0  0
  139.4928   79.6604  222.6559 H   0  0  0  0  0  0  0  0  0  0  0  0
  138.5781   78.1144  222.6559 H   0  0  0  0  0  0  0  0  0  0  0  0
  139.6633   77.9613  220.7819 H   0  0  0  0  0  0  0  0  0  0  0  0
  141.5476   78.5485  219.5904 H   0  0  0  0  0  0  0  0  0  0  0  0
  142.5671   78.3321  220.9945 H   0  0  0  0  0  0  0  0  0  0  0  0
  141.7813   76.2858  218.8457 H   0  0  0  0  0  0  0  0  0  0  0  0
  144.0110   77.1490  220.0900 H   0  0  0  0  0  0  0  0  0  0  0  0
  141.9087   74.5046  220.6829 H   0  0  0  0  0  0  0  0  0  0  0  0
  142.4597   75.6122  221.8748 H   0  0  0  0  0  0  0  0  0  0  0  0
  138.5737   73.2688  220.6783 H   0  0  0  0  0  0  0  0  0  0  0  0
  140.3686   73.4999  220.6021 H   0  0  0  0  0  0  0  0  0  0  0  0
  139.4210   73.7370  223.3610 H   0  0  0  0  0  0  0  0  0  0  0  0
  141.0497   72.9053  224.6966 H   0  0  0  0  0  0  0  0  0  0  0  0
  141.4336   71.9411  226.9591 H   0  0  0  0  0  0  0  0  0  0  0  0
  141.2429   70.1162  228.4178 H   0  0  0  0  0  0  0  0  0  0  0  0
  140.5395   67.7644  228.8824 H   0  0  0  0  0  0  0  0  0  0  0  0
  139.4761   66.4788  227.0490 H   0  0  0  0  0  0  0  0  0  0  0  0
  139.1060   67.4622  224.8168 H   0  0  0  0  0  0  0  0  0  0  0  0
  1  2  1  0
  2  3  1  0
  2  4  1  0
  4  5  1  0
  5  6  1  0
  6  7  1  0
  6  8  1  0
  8  9  1  0
  9 10  1  0
 10 11  2  0
 10 12  1  0
 12 13  1  0
 13 14  1  0
 14 15  2  0
 14 16  1  0
 16 17  2  0
 17 18  1  0
 18 19  2  0
 19 20  1  0
 20 21  2  0
 21 22  1  0
 22 23  2  0
 23 24  1  0
 24 25  2  0
  9  4  1  0
 25 16  1  0
 24 19  1  0
  1 26  1  0
  1 27  1  0
  1 28  1  0
  2 29  1  0
  3 30  1  0
  3 31  1  0
  3 32  1  0
  4 33  1  6
  5 34  1  0
  5 35  1  0
  6 36  1  6
  7 37  1  0
  8 38  1  0
  8 39  1  0
 12 40  1  0
 12 41  1  0
 13 42  1  0
 17 43  1  0
 18 44  1  0
 20 45  1  0
 21 46  1  0
 22 47  1  0
 23 48  1  0
M  END
>  <smiles>  (11) 
CC(C)[C@H]1C[C@@H](O)CN1C(=O)CNC(=O)c1ccc2ccccc2n1

>  <score_type>  (11) 
oracle

>  <origin>  (11) 
autodockgpu

>  <m_score__min__energy>  (11) 
-8.1199999999999992

>  <m_primary>  (11) 
energy

>  <rmsd>  (11) 
2.970034805269083

>  <m_score__min__rmsd>  (11) 
2.970034805269083

>  <meeko>  (11) 
{"free_energy": -7.53, "intermolecular_energy": -9.32, "internal_energy": -1.01, "cluster_size": 14, "cluster_id": 3, "rank_in_cluster": 8}

>  <energy>  (11) 
-8.02

>  <cluster_rmsd>  (11) 
1.82

>  <cluster>  (11) 
1

$$$$

     RDKit          3D

 48 50  0  0  0  0  0  0  0  0999 V2000
  142.5860   79.6540  222.5500 C   0  0  0  0  0  0  0  0  0  0  0  0
  141.4510   78.6810  222.8030 C   0  0  0  0  0  0  0  0  0  0  0  0
  140.4940   79.3850  223.7340 C   0  0  0  0  0  0  0  0  0  0  0  0
  140.7410   78.4240  221.4850 C   0  0  1  0  0  0  0  0  0  0  0  0
  141.5280   79.0260  220.3360 C   0  0  0  0  0  0  0  0  0  0  0  0
  141.7610   77.8370  219.4340 C   0  0  1  0  0  0  0  0  0  0  0  0
  142.8890   77.9420  218.6510 O   0  0  0  0  0  0  0  0  0  0  0  0
  141.9090   76.7180  220.4750 C   0  0  0  0  0  0  0  0  0  0  0  0
  140.6740   76.9850  221.2350 N   0  0  0  0  0  0  0  0  0  0  0  0
  139.6720   76.0570  221.6230 C   0  0  0  0  0  0  0  0  0  0  0  0
  138.6350   76.3710  222.2590 O   0  0  0  0  0  0  0  0  0  0  0  0
  139.8690   74.6330  221.2470 C   0  0  0  0  0  0  0  0  0  0  0  0
  139.5600   73.7460  222.3510 N   0  0  0  0  0  0  0  0  0  0  0  0
  140.4340   72.6320  222.5380 C   0  0  0  0  0  0  0  0  0  0  0  0
  141.3920   72.5470  221.7040 O   0  0  0  0  0  0  0  0  0  0  0  0
  140.2410   71.6610  223.6080 C   0  0  0  0  0  0  0  0  0  0  0  0
  139.5780   70.4950  223.2950 C   0  0  0  0  0  0  0  0  0  0  0  0
  139.3330   69.4940  224.2240 C   0  0  0  0  0  0  0  0  0  0  0  0
  139.7830   69.7080  225.4990 C   0  0  0  0  0  0  0  0  0  0  0  0
  139.5510   68.7270  226.4400 C   0  0  0  0  0  0  0  0  0  0  0  0
  139.9850   68.8980  227.7330 C   0  0  0  0  0  0  0  0  0  0  0  0
  140.6460   70.0710  228.0270 C   0  0  0  0  0  0  0  0  0  0  0  0
  140.8800   71.0590  227.0770 C   0  0  0  0  0  0  0  0  0  0  0  0
  140.4400   70.8850  225.7690 C   0  0  0  0  0  0  0  0  0  0  0  0
  140.6700   71.8440  224.8580 N   0  0  0  0  0  0  0  0  0  0  0  0
  142.9918   80.0019  223.5114 H   0  0  0  0  0  0  0  0  0  0  0  0
  143.3793   79.1511  221.9775 H   0  0  0  0  0  0  0  0  0  0  0  0
  142.2102   80.5149  221.9775 H   0  0  0  0  0  0  0  0  0  0  0  0
  141.8083   77.7305  223.2259 H   0  0  0  0  0  0  0  0  0  0  0  0
  140.7768   79.1770  224.7765 H   0  0  0  0  0  0  0  0  0  0  0  0
  140.5361   80.4690  223.5520 H   0  0  0  0  0  0  0  0  0  0  0  0
  139.4717   79.0221  223.5520 H   0  0  0  0  0  0  0  0  0  0  0  0
  139.7377   78.8703  221.5497 H   0  0  0  0  0  0  0  0  0  0  0  0
  140.9463   79.8056  219.8223 H   0  0  0  0  0  0  0  0  0  0  0  0
  142.4573   79.5204  220.6552 H   0  0  0  0  0  0  0  0  0  0  0  0
  140.9615   77.6956  218.6919 H   0  0  0  0  0  0  0  0  0  0  0  0
  143.6620   77.8610  219.2630 H   0  0  0  0  0  0  0  0  0  0  0  0
  141.9085   75.7184  220.0160 H   0  0  0  0  0  0  0  0  0  0  0  0
  142.8437   76.7169  221.0550 H   0  0  0  0  0  0  0  0  0  0  0  0
  139.2103   74.3923  220.3996 H   0  0  0  0  0  0  0  0  0  0  0  0
  140.9250   74.4903  220.9739 H   0  0  0  0  0  0  0  0  0  0  0  0
  138.7610   73.8780  222.9920 H   0  0  0  0  0  0  0  0  0  0  0  0
  139.2271   70.3510  222.2625 H   0  0  0  0  0  0  0  0  0  0  0  0
  138.8017   68.5710  223.9487 H   0  0  0  0  0  0  0  0  0  0  0  0
  139.0185   67.8074  226.1558 H   0  0  0  0  0  0  0  0  0  0  0  0
  139.8118   68.1302  228.5014 H   0  0  0  0  0  0  0  0  0  0  0  0
  141.0029   70.2322  229.0549 H   0  0  0  0  0  0  0  0  0  0  0  0
  141.4133   71.9785  227.3600 H   0  0  0  0  0  0  0  0  0  0  0  0
  1  2  1  0
  2  3  1  0
  2  4  1  0
  4  5  1  0
  5  6  1  0
  6  7  1  0
  6  8  1  0
  8  9  1  0
  9 10  1  0
 10 11  2  0
 10 12  1  0
 12 13  1  0
 13 14  1  0
 14 15  2  0
 14 16  1  0
 16 17  2  0
 17 18  1  0
 18 19  2  0
 19 20  1  0
 20 21  2  0
 21 22  1  0
 22 23  2  0
 23 24  1  0
 24 25  2  0
  9  4  1  0
 25 16  1  0
 24 19  1  0
  1 26  1  0
  1 27  1  0
  1 28  1  0
  2 29  1  0
  3 30  1  0
  3 31  1  0
  3 32  1  0
  4 33  1  1
  5 34  1  0
  5 35  1  0
  6 36  1  6
  7 37  1  0
  8 38  1  0
  8 39  1  0
 12 40  1  0
 12 41  1  0
 13 42  1  0
 17 43  1  0
 18 44  1  0
 20 45  1  0
 21 46  1  0
 22 47  1  0
 23 48  1  0
M  END
>  <smiles>  (12) 
CC(C)[C@H]1C[C@@H](O)CN1C(=O)CNC(=O)c1ccc2ccccc2n1

>  <score_type>  (12) 
oracle

>  <origin>  (12) 
autodockgpu

>  <m_score__min__energy>  (12) 
-8.1199999999999992

>  <m_primary>  (12) 
energy

>  <rmsd>  (12) 
2.262947361903957

>  <m_score__min__rmsd>  (12) 
2.262947361903957

>  <meeko>  (12) 
{"free_energy": -7.94, "intermolecular_energy": -9.73, "internal_energy": -1.17, "cluster_size": 14, "cluster_id": 3, "rank_in_cluster": 3}

>  <energy>  (12) 
-7.95

>  <cluster_rmsd>  (12) 
0.27

>  <cluster>  (12) 
1

$$$$

     RDKit          3D

 48 50  0  0  0  0  0  0  0  0999 V2000
  141.0550   68.1660  228.3210 C   0  0  0  0  0  0  0  0  0  0  0  0
  140.6080   68.5600  226.9250 C   0  0  0  0  0  0  0  0  0  0  0  0
  139.6560   67.4800  226.4710 C   0  0  0  0  0  0  0  0  0  0  0  0
  139.8430   69.8680  227.0210 C   0  0  1  0  0  0  0  0  0  0  0  0
  140.5350   70.8140  227.9840 C   0  0  0  0  0  0  0  0  0  0  0  0
  140.7810   72.0350  227.1300 C   0  0  1  0  0  0  0  0  0  0  0  0
  141.8590   72.7920  227.5330 O   0  0  0  0  0  0  0  0  0  0  0  0
  141.0430   71.3780  225.7660 C   0  0  0  0  0  0  0  0  0  0  0  0
  139.8390   70.5300  225.7170 N   0  0  0  0  0  0  0  0  0  0  0  0
  138.9080   70.3990  224.6520 C   0  0  0  0  0  0  0  0  0  0  0  0
  137.6930   70.1200  224.8140 O   0  0  0  0  0  0  0  0  0  0  0  0
  139.4090   70.6080  223.2690 C   0  0  0  0  0  0  0  0  0  0  0  0
  139.6250   72.0140  222.9900 N   0  0  0  0  0  0  0  0  0  0  0  0
  140.6130   72.3250  222.0070 C   0  0  0  0  0  0  0  0  0  0  0  0
  141.1960   71.3200  221.4860 O   0  0  0  0  0  0  0  0  0  0  0  0
  140.9310   73.6960  221.6280 C   0  0  0  0  0  0  0  0  0  0  0  0
  141.8840   73.8790  220.6500 C   0  0  0  0  0  0  0  0  0  0  0  0
  142.2730   75.1330  220.2020 C   0  0  0  0  0  0  0  0  0  0  0  0
  141.6650   76.2150  220.7800 C   0  0  0  0  0  0  0  0  0  0  0  0
  142.0360   77.4710  220.3510 C   0  0  0  0  0  0  0  0  0  0  0  0
  141.4510   78.5870  220.9030 C   0  0  0  0  0  0  0  0  0  0  0  0
  140.5010   78.3830  221.8800 C   0  0  0  0  0  0  0  0  0  0  0  0
  140.1280   77.1150  222.3120 C   0  0  0  0  0  0  0  0  0  0  0  0
  140.7190   75.9880  221.7530 C   0  0  0  0  0  0  0  0  0  0  0  0
  140.3530   74.7670  222.1750 N   0  0  0  0  0  0  0  0  0  0  0  0
  140.4474   68.7015  229.0654 H   0  0  0  0  0  0  0  0  0  0  0  0
  140.9269   67.0817  228.4547 H   0  0  0  0  0  0  0  0  0  0  0  0
  142.1146   68.4292  228.4547 H   0  0  0  0  0  0  0  0  0  0  0  0
  141.4572   68.6748  226.2353 H   0  0  0  0  0  0  0  0  0  0  0  0
  139.2185   66.9837  227.3498 H   0  0  0  0  0  0  0  0  0  0  0  0
  138.8541   67.9286  225.8662 H   0  0  0  0  0  0  0  0  0  0  0  0
  140.2016   66.7408  225.8662 H   0  0  0  0  0  0  0  0  0  0  0  0
  138.8226   69.6390  227.3622 H   0  0  0  0  0  0  0  0  0  0  0  0
  139.8869   71.0527  228.8402 H   0  0  0  0  0  0  0  0  0  0  0  0
  141.4529   70.3960  228.4229 H   0  0  0  0  0  0  0  0  0  0  0  0
  139.9510   72.7562  227.1612 H   0  0  0  0  0  0  0  0  0  0  0  0
  141.6520   73.7270  227.2830 H   0  0  0  0  0  0  0  0  0  0  0  0
  141.0699   72.1122  224.9474 H   0  0  0  0  0  0  0  0  0  0  0  0
  142.0062   70.8584  225.6557 H   0  0  0  0  0  0  0  0  0  0  0  0
  140.3603   70.0691  223.1480 H   0  0  0  0  0  0  0  0  0  0  0  0
  138.6525   70.2285  222.5664 H   0  0  0  0  0  0  0  0  0  0  0  0
  139.1110   72.7800  223.4540 H   0  0  0  0  0  0  0  0  0  0  0  0
  142.3574   72.9915  220.2047 H   0  0  0  0  0  0  0  0  0  0  0  0
  143.0353   75.2526  219.4180 H   0  0  0  0  0  0  0  0  0  0  0  0
  142.7999   77.5811  219.5672 H   0  0  0  0  0  0  0  0  0  0  0  0
  141.7300   79.6002  220.5779 H   0  0  0  0  0  0  0  0  0  0  0  0
  140.0178   79.2592  222.3370 H   0  0  0  0  0  0  0  0  0  0  0  0
  139.3649   77.0038  223.0964 H   0  0  0  0  0  0  0  0  0  0  0  0
  1  2  1  0
  2  3  1  0
  2  4  1  0
  4  5  1  0
  5  6  1  0
  6  7  1  0
  6  8  1  0
  8  9  1  0
  9 10  1  0
 10 11  2  0
 10 12  1  0
 12 13  1  0
 13 14  1  0
 14 15  2  0
 14 16  1  0
 16 17  2  0
 17 18  1  0
 18 19  2  0
 19 20  1  0
 20 21  2  0
 21 22  1  0
 22 23  2  0
 23 24  1  0
 24 25  2  0
  9  4  1  0
 25 16  1  0
 24 19  1  0
  1 26  1  0
  1 27  1  0
  1 28  1  0
  2 29  1  0
  3 30  1  0
  3 31  1  0
  3 32  1  0
  4 33  1  1
  5 34  1  0
  5 35  1  0
  6 36  1  6
  7 37  1  0
  8 38  1  0
  8 39  1  0
 12 40  1  0
 12 41  1  0
 13 42  1  0
 17 43  1  0
 18 44  1  0
 20 45  1  0
 21 46  1  0
 22 47  1  0
 23 48  1  0
M  END
>  <smiles>  (13) 
CC(C)[C@H]1C[C@@H](O)CN1C(=O)CNC(=O)c1ccc2ccccc2n1

>  <score_type>  (13) 
oracle

>  <origin>  (13) 
autodockgpu

>  <m_score__min__energy>  (13) 
-8.1199999999999992

>  <m_primary>  (13) 
energy

>  <rmsd>  (13) 
8.33534243367712

>  <m_score__min__rmsd>  (13) 
8.33534243367712

>  <meeko>  (13) 
{"free_energy": -8.12, "intermolecular_energy": -9.91, "internal_energy": -1.23, "cluster_size": 22, "cluster_id": 1, "rank_in_cluster": 1}

>  <energy>  (13) 
-7.93

>  <cluster_rmsd>  (13) 
1.79

>  <cluster>  (13) 
1

$$$$

     RDKit          3D

 48 50  0  0  0  0  0  0  0  0999 V2000
  140.1320   70.6890  228.3070 C   0  0  0  0  0  0  0  0  0  0  0  0
  140.2960   71.4650  227.0140 C   0  0  0  0  0  0  0  0  0  0  0  0
  141.4730   72.3880  227.2260 C   0  0  0  0  0  0  0  0  0  0  0  0
  140.6450   70.4840  225.9090 C   0  0  1  0  0  0  0  0  0  0  0  0
  141.2720   69.2330  226.4940 C   0  0  0  0  0  0  0  0  0  0  0  0
  140.3680   68.1370  225.9810 C   0  0  1  0  0  0  0  0  0  0  0  0
  140.3370   67.0170  226.7810 O   0  0  0  0  0  0  0  0  0  0  0  0
  139.0150   68.8620  225.9850 C   0  0  0  0  0  0  0  0  0  0  0  0
  139.4240   70.0580  225.2270 N   0  0  0  0  0  0  0  0  0  0  0  0
  138.7770   70.6420  224.1060 C   0  0  0  0  0  0  0  0  0  0  0  0
  137.5450   70.8840  224.0560 O   0  0  0  0  0  0  0  0  0  0  0  0
  139.6150   70.9850  222.9280 C   0  0  0  0  0  0  0  0  0  0  0  0
  139.6960   72.4200  222.7340 N   0  0  0  0  0  0  0  0  0  0  0  0
  140.7470   72.8910  221.8900 C   0  0  0  0  0  0  0  0  0  0  0  0
  141.4990   71.9870  221.4020 O   0  0  0  0  0  0  0  0  0  0  0  0
  140.9440   74.3080  221.6080 C   0  0  0  0  0  0  0  0  0  0  0  0
  141.8500   74.6390  220.6240 C   0  0  0  0  0  0  0  0  0  0  0  0
  142.1250   75.9500  220.2630 C   0  0  0  0  0  0  0  0  0  0  0  0
  141.4500   76.9330  220.9350 C   0  0  0  0  0  0  0  0  0  0  0  0
  141.7080   78.2440  220.5940 C   0  0  0  0  0  0  0  0  0  0  0  0
  141.0530   79.2650  221.2420 C   0  0  0  0  0  0  0  0  0  0  0  0
  140.1520   78.9130  222.2230 C   0  0  0  0  0  0  0  0  0  0  0  0
  139.8930   77.5910  222.5660 C   0  0  0  0  0  0  0  0  0  0  0  0
  140.5550   76.5590  221.9100 C   0  0  0  0  0  0  0  0  0  0  0  0
  140.3000   75.2860  222.2470 N   0  0  0  0  0  0  0  0  0  0  0  0
  140.2752   71.3663  229.1618 H   0  0  0  0  0  0  0  0  0  0  0  0
  139.1222   70.2547  228.3484 H   0  0  0  0  0  0  0  0  0  0  0  0
  140.8797   69.8832  228.3484 H   0  0  0  0  0  0  0  0  0  0  0  0
  139.3840   72.0185  226.7458 H   0  0  0  0  0  0  0  0  0  0  0  0
  141.6442   72.5222  228.3043 H   0  0  0  0  0  0  0  0  0  0  0  0
  142.3702   71.9502  226.7640 H   0  0  0  0  0  0  0  0  0  0  0  0
  141.2617   73.3637  226.7640 H   0  0  0  0  0  0  0  0  0  0  0  0
  141.3398   70.9852  225.2191 H   0  0  0  0  0  0  0  0  0  0  0  0
  142.3021   69.0993  226.1322 H   0  0  0  0  0  0  0  0  0  0  0  0
  141.3504   69.2562  227.5910 H   0  0  0  0  0  0  0  0  0  0  0  0
  140.6893   67.7327  225.0098 H   0  0  0  0  0  0  0  0  0  0  0  0
  139.5310   67.1030  227.3500 H   0  0  0  0  0  0  0  0  0  0  0  0
  138.2325   68.2876  225.4675 H   0  0  0  0  0  0  0  0  0  0  0  0
  138.5672   69.0451  226.9729 H   0  0  0  0  0  0  0  0  0  0  0  0
  140.6289   70.5873  223.0824 H   0  0  0  0  0  0  0  0  0  0  0  0
  139.1526   70.5411  222.0341 H   0  0  0  0  0  0  0  0  0  0  0  0
  139.0460   73.0980  223.1650 H   0  0  0  0  0  0  0  0  0  0  0  0
  142.3786   73.8280  220.1016 H   0  0  0  0  0  0  0  0  0  0  0  0
  142.8522   76.1886  219.4729 H   0  0  0  0  0  0  0  0  0  0  0  0
  142.4378   78.4732  219.8035 H   0  0  0  0  0  0  0  0  0  0  0  0
  141.2406   80.3186  220.9877 H   0  0  0  0  0  0  0  0  0  0  0  0
  139.6153   79.7111  222.7569 H   0  0  0  0  0  0  0  0  0  0  0  0
  139.1639   77.3611  223.3569 H   0  0  0  0  0  0  0  0  0  0  0  0
  1  2  1  0
  2  3  1  0
  2  4  1  0
  4  5  1  0
  5  6  1  0
  6  7  1  0
  6  8  1  0
  8  9  1  0
  9 10  1  0
 10 11  2  0
 10 12  1  0
 12 13  1  0
 13 14  1  0
 14 15  2  0
 14 16  1  0
 16 17  2  0
 17 18  1  0
 18 19  2  0
 19 20  1  0
 20 21  2  0
 21 22  1  0
 22 23  2  0
 23 24  1  0
 24 25  2  0
  9  4  1  0
 25 16  1  0
 24 19  1  0
  1 26  1  0
  1 27  1  0
  1 28  1  0
  2 29  1  0
  3 30  1  0
  3 31  1  0
  3 32  1  0
  4 33  1  6
  5 34  1  0
  5 35  1  0
  6 36  1  6
  7 37  1  0
  8 38  1  0
  8 39  1  0
 12 40  1  0
 12 41  1  0
 13 42  1  0
 17 43  1  0
 18 44  1  0
 20 45  1  0
 21 46  1  0
 22 47  1  0
 23 48  1  0
M  END
>  <smiles>  (14) 
CC(C)[C@H]1C[C@@H](O)CN1C(=O)CNC(=O)c1ccc2ccccc2n1

>  <score_type>  (14) 
oracle

>  <origin>  (14) 
autodockgpu

>  <m_score__min__energy>  (14) 
-8.1199999999999992

>  <m_primary>  (14) 
energy

>  <rmsd>  (14) 
8.475145695668594

>  <m_score__min__rmsd>  (14) 
8.475145695668594

>  <meeko>  (14) 
{"free_energy": -7.67, "intermolecular_energy": -9.46, "internal_energy": -1.23, "cluster_size": 22, "cluster_id": 1, "rank_in_cluster": 16}

>  <energy>  (14) 
-7.93

>  <cluster_rmsd>  (14) 
0.2

>  <cluster>  (14) 
1

$$$$

     RDKit          3D

 48 50  0  0  0  0  0  0  0  0999 V2000
  140.0500   70.6070  228.3100 C   0  0  0  0  0  0  0  0  0  0  0  0
  140.2860   71.3380  227.0020 C   0  0  0  0  0  0  0  0  0  0  0  0
  141.4720   72.2430  227.2360 C   0  0  0  0  0  0  0  0  0  0  0  0
  140.6630   70.3130  225.9460 C   0  0  1  0  0  0  0  0  0  0  0  0
  140.7510   68.9300  226.5610 C   0  0  0  0  0  0  0  0  0  0  0  0
  139.7750   68.1340  225.7280 C   0  0  1  0  0  0  0  0  0  0  0  0
  139.2280   67.0540  226.3860 O   0  0  0  0  0  0  0  0  0  0  0  0
  138.7130   69.2040  225.4380 C   0  0  0  0  0  0  0  0  0  0  0  0
  139.6160   70.2510  224.9280 N   0  0  0  0  0  0  0  0  0  0  0  0
  139.4860   71.0070  223.7320 C   0  0  0  0  0  0  0  0  0  0  0  0
  140.4150   71.6880  223.2300 O   0  0  0  0  0  0  0  0  0  0  0  0
  138.1710   70.9820  223.0410 C   0  0  0  0  0  0  0  0  0  0  0  0
  137.1440   71.6290  223.8330 N   0  0  0  0  0  0  0  0  0  0  0  0
  136.0620   70.8050  224.2700 C   0  0  0  0  0  0  0  0  0  0  0  0
  136.1270   69.5860  223.9080 O   0  0  0  0  0  0  0  0  0  0  0  0
  134.9610   71.3250  225.0730 C   0  0  0  0  0  0  0  0  0  0  0  0
  134.1350   70.4080  225.6840 C   0  0  0  0  0  0  0  0  0  0  0  0
  133.0550   70.7760  226.4740 C   0  0  0  0  0  0  0  0  0  0  0  0
  132.8290   72.1170  226.6300 C   0  0  0  0  0  0  0  0  0  0  0  0
  131.7610   72.5060  227.4100 C   0  0  0  0  0  0  0  0  0  0  0  0
  131.4960   73.8430  227.5950 C   0  0  0  0  0  0  0  0  0  0  0  0
  132.3340   74.7440  226.9750 C   0  0  0  0  0  0  0  0  0  0  0  0
  133.4100   74.3500  226.1890 C   0  0  0  0  0  0  0  0  0  0  0  0
  133.6780   72.9980  226.0020 C   0  0  0  0  0  0  0  0  0  0  0  0
  134.7190   72.6260  225.2410 N   0  0  0  0  0  0  0  0  0  0  0  0
  140.2677   71.2813  229.1514 H   0  0  0  0  0  0  0  0  0  0  0  0
  139.0009   70.2807  228.3636 H   0  0  0  0  0  0  0  0  0  0  0  0
  140.7103   69.7289  228.3636 H   0  0  0  0  0  0  0  0  0  0  0  0
  139.3989   71.9011  226.6765 H   0  0  0  0  0  0  0  0  0  0  0  0
  141.6322   72.3653  228.3174 H   0  0  0  0  0  0  0  0  0  0  0  0
  142.3687   71.7975  226.7805 H   0  0  0  0  0  0  0  0  0  0  0  0
  141.2790   73.2255  226.7805 H   0  0  0  0  0  0  0  0  0  0  0  0
  141.6299   70.6116  225.5148 H   0  0  0  0  0  0  0  0  0  0  0  0
  141.7692   68.5224  226.4767 H   0  0  0  0  0  0  0  0  0  0  0  0
  140.5209   68.9149  227.6366 H   0  0  0  0  0  0  0  0  0  0  0  0
  140.2399   67.6713  224.8449 H   0  0  0  0  0  0  0  0  0  0  0  0
  139.7510   66.9410  227.2190 H   0  0  0  0  0  0  0  0  0  0  0  0
  137.9855   68.8755  224.6812 H   0  0  0  0  0  0  0  0  0  0  0  0
  138.0697   69.4892  226.2834 H   0  0  0  0  0  0  0  0  0  0  0  0
  138.2630   71.5055  222.0780 H   0  0  0  0  0  0  0  0  0  0  0  0
  137.8802   69.9321  222.8889 H   0  0  0  0  0  0  0  0  0  0  0  0
  137.1570   72.6300  224.0900 H   0  0  0  0  0  0  0  0  0  0  0  0
  134.3402   69.3370  225.5396 H   0  0  0  0  0  0  0  0  0  0  0  0
  132.4101   70.0245  226.9529 H   0  0  0  0  0  0  0  0  0  0  0  0
  131.1209   71.7475  227.8843 H   0  0  0  0  0  0  0  0  0  0  0  0
  130.6499   74.1790  228.2125 H   0  0  0  0  0  0  0  0  0  0  0  0
  132.1434   75.8192  227.1077 H   0  0  0  0  0  0  0  0  0  0  0  0
  134.0504   75.1080  225.7142 H   0  0  0  0  0  0  0  0  0  0  0  0
  1  2  1  0
  2  3  1  0
  2  4  1  0
  4  5  1  0
  5  6  1  0
  6  7  1  0
  6  8  1  0
  8  9  1  0
  9 10  1  0
 10 11  2  0
 10 12  1  0
 12 13  1  0
 13 14  1  0
 14 15  2  0
 14 16  1  0
 16 17  2  0
 17 18  1  0
 18 19  2  0
 19 20  1  0
 20 21  2  0
 21 22  1  0
 22 23  2  0
 23 24  1  0
 24 25  2  0
  9  4  1  0
 25 16  1  0
 24 19  1  0
  1 26  1  0
  1 27  1  0
  1 28  1  0
  2 29  1  0
  3 30  1  0
  3 31  1  0
  3 32  1  0
  4 33  1  6
  5 34  1  0
  5 35  1  0
  6 36  1  6
  7 37  1  0
  8 38  1  0
  8 39  1  0
 12 40  1  0
 12 41  1  0
 13 42  1  0
 17 43  1  0
 18 44  1  0
 20 45  1  0
 21 46  1  0
 22 47  1  0
 23 48  1  0
M  END
>  <smiles>  (15) 
CC(C)[C@H]1C[C@@H](O)CN1C(=O)CNC(=O)c1ccc2ccccc2n1

>  <score_type>  (15) 
oracle

>  <origin>  (15) 
autodockgpu

>  <m_score__min__energy>  (15) 
-8.1199999999999992

>  <m_primary>  (15) 
energy

>  <rmsd>  (15) 
7.908554741733462

>  <m_score__min__rmsd>  (15) 
7.908554741733462

>  <meeko>  (15) 
{"free_energy": -8.0, "intermolecular_energy": -9.79, "internal_energy": -1.37, "cluster_size": 5, "cluster_id": 2, "rank_in_cluster": 1}

>  <energy>  (15) 
-7.77

>  <cluster_rmsd>  (15) 
1.02

>  <cluster>  (15) 
1

$$$$

     RDKit          3D

 48 50  0  0  0  0  0  0  0  0999 V2000
  143.3210   76.9540  218.6770 C   0  0  0  0  0  0  0  0  0  0  0  0
  142.4640   75.9740  219.4560 C   0  0  0  0  0  0  0  0  0  0  0  0
  141.0330   76.4000  219.2310 C   0  0  0  0  0  0  0  0  0  0  0  0
  142.6560   74.5920  218.8560 C   0  0  1  0  0  0  0  0  0  0  0  0
  144.0570   74.4520  218.2920 C   0  0  0  0  0  0  0  0  0  0  0  0
  144.5920   73.2470  219.0290 C   0  0  1  0  0  0  0  0  0  0  0  0
  145.9630   73.2330  219.1580 O   0  0  0  0  0  0  0  0  0  0  0  0
  143.9070   73.4210  220.3920 C   0  0  0  0  0  0  0  0  0  0  0  0
  142.5250   73.5810  219.9040 N   0  0  0  0  0  0  0  0  0  0  0  0
  141.3590   72.9060  220.3540 C   0  0  0  0  0  0  0  0  0  0  0  0
  140.8140   71.9600  219.7320 O   0  0  0  0  0  0  0  0  0  0  0  0
  140.7580   73.3510  221.6380 C   0  0  0  0  0  0  0  0  0  0  0  0
  141.1080   74.7250  221.9390 N   0  0  0  0  0  0  0  0  0  0  0  0
  140.0250   75.6130  222.2190 C   0  0  0  0  0  0  0  0  0  0  0  0
  138.8660   75.0880  222.1690 O   0  0  0  0  0  0  0  0  0  0  0  0
  140.2330   77.0200  222.5380 C   0  0  0  0  0  0  0  0  0  0  0  0
  139.1130   77.8030  222.7130 C   0  0  0  0  0  0  0  0  0  0  0  0
  139.1780   79.1540  223.0200 C   0  0  0  0  0  0  0  0  0  0  0  0
  140.4270   79.7020  223.1450 C   0  0  0  0  0  0  0  0  0  0  0  0
  140.5170   81.0440  223.4490 C   0  0  0  0  0  0  0  0  0  0  0  0
  141.7500   81.6370  223.5850 C   0  0  0  0  0  0  0  0  0  0  0  0
  142.8580   80.8370  223.4060 C   0  0  0  0  0  0  0  0  0  0  0  0
  142.7660   79.4850  223.0990 C   0  0  0  0  0  0  0  0  0  0  0  0
  141.5180   78.8850  222.9620 C   0  0  0  0  0  0  0  0  0  0  0  0
  141.4380   77.5790  222.6660 N   0  0  0  0  0  0  0  0  0  0  0  0
  143.8787   77.5917  219.3787 H   0  0  0  0  0  0  0  0  0  0  0  0
  144.0289   76.3992  218.0438 H   0  0  0  0  0  0  0  0  0  0  0  0
  142.6768   77.5817  218.0438 H   0  0  0  0  0  0  0  0  0  0  0  0
  142.7232   75.9556  220.5249 H   0  0  0  0  0  0  0  0  0  0  0  0
  140.5374   76.5475  220.2019 H   0  0  0  0  0  0  0  0  0  0  0  0
  141.0158   77.3422  218.6636 H   0  0  0  0  0  0  0  0  0  0  0  0
  140.5033   75.6206  218.6636 H   0  0  0  0  0  0  0  0  0  0  0  0
  141.9015   74.4575  218.0670 H   0  0  0  0  0  0  0  0  0  0  0  0
  144.0319   74.2744  217.2067 H   0  0  0  0  0  0  0  0  0  0  0  0
  144.6731   75.3537  218.4239 H   0  0  0  0  0  0  0  0  0  0  0  0
  144.3866   72.2992  218.5099 H   0  0  0  0  0  0  0  0  0  0  0  0
  146.2670   74.1630  219.0080 H   0  0  0  0  0  0  0  0  0  0  0  0
  144.0231   72.5350  221.0335 H   0  0  0  0  0  0  0  0  0  0  0  0
  144.2928   74.2315  221.0278 H   0  0  0  0  0  0  0  0  0  0  0  0
  139.6634   73.2678  221.5684 H   0  0  0  0  0  0  0  0  0  0  0  0
  141.1484   72.7106  222.4427 H   0  0  0  0  0  0  0  0  0  0  0  0
  142.0770   75.0820  221.9620 H   0  0  0  0  0  0  0  0  0  0  0  0
  138.1231   77.3359  222.6044 H   0  0  0  0  0  0  0  0  0  0  0  0
  138.2685   79.7574  223.1568 H   0  0  0  0  0  0  0  0  0  0  0  0
  139.6023   81.6401  223.5827 H   0  0  0  0  0  0  0  0  0  0  0  0
  141.8481   82.7056  223.8267 H   0  0  0  0  0  0  0  0  0  0  0  0
  143.8561   81.2874  223.5105 H   0  0  0  0  0  0  0  0  0  0  0  0
  143.6804   78.8886  222.9642 H   0  0  0  0  0  0  0  0  0  0  0  0
  1  2  1  0
  2  3  1  0
  2  4  1  0
  4  5  1  0
  5  6  1  0
  6  7  1  0
  6  8  1  0
  8  9  1  0
  9 10  1  0
 10 11  2  0
 10 12  1  0
 12 13  1  0
 13 14  1  0
 14 15  2  0
 14 16  1  0
 16 17  2  0
 17 18  1  0
 18 19  2  0
 19 20  1  0
 20 21  2  0
 21 22  1  0
 22 23  2  0
 23 24  1  0
 24 25  2  0
  9  4  1  0
 25 16  1  0
 24 19  1  0
  1 26  1  0
  1 27  1  0
  1 28  1  0
  2 29  1  0
  3 30  1  0
  3 31  1  0
  3 32  1  0
  4 33  1  6
  5 34  1  0
  5 35  1  0
  6 36  1  6
  7 37  1  0
  8 38  1  0
  8 39  1  0
 12 40  1  0
 12 41  1  0
 13 42  1  0
 17 43  1  0
 18 44  1  0
 20 45  1  0
 21 46  1  0
 22 47  1  0
 23 48  1  0
M  END
>  <smiles>  (16) 
CC(C)[C@H]1C[C@@H](O)CN1C(=O)CNC(=O)c1ccc2ccccc2n1

>  <score_type>  (16) 
oracle

>  <origin>  (16) 
autodockgpu

>  <m_score__min__energy>  (16) 
-8.1199999999999992

>  <m_primary>  (16) 
energy

>  <rmsd>  (16) 
7.531902755701228

>  <m_score__min__rmsd>  (16) 
7.531902755701228

>  <meeko>  (16) 
{"free_energy": -6.53, "intermolecular_energy": -8.32, "internal_energy": -1.75, "cluster_size": 2, "cluster_id": 6, "rank_in_cluster": 2}

>  <energy>  (16) 
-7.67

>  <cluster_rmsd>  (16) 
1.76

>  <cluster>  (16) 
1

$$$$

     RDKit          3D

 48 50  0  0  0  0  0  0  0  0999 V2000
  140.2120   70.6560  228.1160 C   0  0  0  0  0  0  0  0  0  0  0  0
  140.3450   71.3510  226.7740 C   0  0  0  0  0  0  0  0  0  0  0  0
  141.5770   72.2190  226.8720 C   0  0  0  0  0  0  0  0  0  0  0  0
  140.5840   70.2930  225.7110 C   0  0  1  0  0  0  0  0  0  0  0  0
  140.7910   68.9360  226.3550 C   0  0  0  0  0  0  0  0  0  0  0  0
  139.7200   68.0930  225.7050 C   0  0  1  0  0  0  0  0  0  0  0  0
  139.2990   67.0310  226.4750 O   0  0  0  0  0  0  0  0  0  0  0  0
  138.6030   69.1340  225.5380 C   0  0  0  0  0  0  0  0  0  0  0  0
  139.3990   70.1760  224.8620 N   0  0  0  0  0  0  0  0  0  0  0  0
  139.0780   70.8830  223.6730 C   0  0  0  0  0  0  0  0  0  0  0  0
  139.9000   71.5840  223.0310 O   0  0  0  0  0  0  0  0  0  0  0  0
  137.6850   70.7810  223.1650 C   0  0  0  0  0  0  0  0  0  0  0  0
  136.7400   71.3810  224.0860 N   0  0  0  0  0  0  0  0  0  0  0  0
  136.2420   72.6730  223.7370 C   0  0  0  0  0  0  0  0  0  0  0  0
  136.6920   73.1520  222.6460 O   0  0  0  0  0  0  0  0  0  0  0  0
  135.2860   73.3920  224.5710 C   0  0  0  0  0  0  0  0  0  0  0  0
  135.3560   74.7680  224.5730 C   0  0  0  0  0  0  0  0  0  0  0  0
  134.5030   75.5640  225.3230 C   0  0  0  0  0  0  0  0  0  0  0  0
  133.5640   74.9220  226.0850 C   0  0  0  0  0  0  0  0  0  0  0  0
  132.7050   75.6930  226.8390 C   0  0  0  0  0  0  0  0  0  0  0  0
  131.7460   75.0910  227.6190 C   0  0  0  0  0  0  0  0  0  0  0  0
  131.6930   73.7140  227.6040 C   0  0  0  0  0  0  0  0  0  0  0  0
  132.5590   72.9380  226.8420 C   0  0  0  0  0  0  0  0  0  0  0  0
  133.5290   73.5470  226.0540 C   0  0  0  0  0  0  0  0  0  0  0  0
  134.3620   72.7910  225.3220 N   0  0  0  0  0  0  0  0  0  0  0  0
  140.3523   71.3891  228.9241 H   0  0  0  0  0  0  0  0  0  0  0  0
  139.2115   70.2063  228.1985 H   0  0  0  0  0  0  0  0  0  0  0  0
  140.9758   69.8687  228.1985 H   0  0  0  0  0  0  0  0  0  0  0  0
  139.4494   71.9377  226.5216 H   0  0  0  0  0  0  0  0  0  0  0  0
  141.8211   72.3910  227.9307 H   0  0  0  0  0  0  0  0  0  0  0  0
  142.4209   71.7149  226.3783 H   0  0  0  0  0  0  0  0  0  0  0  0
  141.3863   73.1833  226.3783 H   0  0  0  0  0  0  0  0  0  0  0  0
  141.4702   70.5898  225.1308 H   0  0  0  0  0  0  0  0  0  0  0  0
  141.7941   68.5415  226.1352 H   0  0  0  0  0  0  0  0  0  0  0  0
  140.7222   68.9588  227.4526 H   0  0  0  0  0  0  0  0  0  0  0  0
  140.0599   67.6044  224.7799 H   0  0  0  0  0  0  0  0  0  0  0  0
  139.9440   66.9560  227.2220 H   0  0  0  0  0  0  0  0  0  0  0  0
  137.7790   68.7649  224.9097 H   0  0  0  0  0  0  0  0  0  0  0  0
  138.0853   69.4410  226.4587 H   0  0  0  0  0  0  0  0  0  0  0  0
  137.6186   71.2986  222.1966 H   0  0  0  0  0  0  0  0  0  0  0  0
  137.4335   69.7156  223.0567 H   0  0  0  0  0  0  0  0  0  0  0  0
  136.4170   70.9300  224.9580 H   0  0  0  0  0  0  0  0  0  0  0  0
  136.1218   75.2566  223.9527 H   0  0  0  0  0  0  0  0  0  0  0  0
  134.5775   76.6613  225.3064 H   0  0  0  0  0  0  0  0  0  0  0  0
  132.7869   76.7897  226.8166 H   0  0  0  0  0  0  0  0  0  0  0  0
  131.0496   75.6842  228.2299 H   0  0  0  0  0  0  0  0  0  0  0  0
  130.9347   73.2084  228.2199 H   0  0  0  0  0  0  0  0  0  0  0  0
  132.4766   71.8413  226.8626 H   0  0  0  0  0  0  0  0  0  0  0  0
  1  2  1  0
  2  3  1  0
  2  4  1  0
  4  5  1  0
  5  6  1  0
  6  7  1  0
  6  8  1  0
  8  9  1  0
  9 10  1  0
 10 11  2  0
 10 12  1  0
 12 13  1  0
 13 14  1  0
 14 15  2  0
 14 16  1  0
 16 17  2  0
 17 18  1  0
 18 19  2  0
 19 20  1  0
 20 21  2  0
 21 22  1  0
 22 23  2  0
 23 24  1  0
 24 25  2  0
  9  4  1  0
 25 16  1  0
 24 19  1  0
  1 26  1  0
  1 27  1  0
  1 28  1  0
  2 29  1  0
  3 30  1  0
  3 31  1  0
  3 32  1  0
  4 33  1  6
  5 34  1  0
  5 35  1  0
  6 36  1  6
  7 37  1  0
  8 38  1  0
  8 39  1  0
 12 40  1  0
 12 41  1  0
 13 42  1  0
 17 43  1  0
 18 44  1  0
 20 45  1  0
 21 46  1  0
 22 47  1  0
 23 48  1  0
M  END
>  <smiles>  (17) 
CC(C)[C@H]1C[C@@H](O)CN1C(=O)CNC(=O)c1ccc2ccccc2n1

>  <score_type>  (17) 
oracle

>  <origin>  (17) 
autodockgpu

>  <m_score__min__energy>  (17) 
-8.1199999999999992

>  <m_primary>  (17) 
energy

>  <rmsd>  (17) 
8.315577598265273

>  <m_score__min__rmsd>  (17) 
8.315577598265273

>  <meeko>  (17) 
{"free_energy": -7.19, "intermolecular_energy": -8.98, "internal_energy": -1.2, "cluster_size": 5, "cluster_id": 2, "rank_in_cluster": 4}

>  <energy>  (17) 
-7.62

>  <cluster_rmsd>  (17) 
1.22

>  <cluster>  (17) 
1

$$$$

     RDKit          3D

 48 50  0  0  0  0  0  0  0  0999 V2000
  141.2250   78.3920  222.3080 C   0  0  0  0  0  0  0  0  0  0  0  0
  140.4630   77.0890  222.1580 C   0  0  0  0  0  0  0  0  0  0  0  0
  139.0650   77.3630  222.6600 C   0  0  0  0  0  0  0  0  0  0  0  0
  140.3870   76.7480  220.6800 C   0  0  1  0  0  0  0  0  0  0  0  0
  140.8030   77.9420  219.8420 C   0  0  0  0  0  0  0  0  0  0  0  0
  141.9370   77.3860  219.0140 C   0  0  1  0  0  0  0  0  0  0  0  0
  142.8510   78.3340  218.6090 O   0  0  0  0  0  0  0  0  0  0  0  0
  142.5620   76.4030  220.0130 C   0  0  0  0  0  0  0  0  0  0  0  0
  141.3320   75.6750  220.3760 N   0  0  0  0  0  0  0  0  0  0  0  0
  141.1300   74.2700  220.4130 C   0  0  0  0  0  0  0  0  0  0  0  0
  142.0410   73.4260  220.2180 O   0  0  0  0  0  0  0  0  0  0  0  0
  139.7580   73.7780  220.7020 C   0  0  0  0  0  0  0  0  0  0  0  0
  139.6490   73.2780  222.0580 N   0  0  0  0  0  0  0  0  0  0  0  0
  140.1620   71.9670  222.2980 C   0  0  0  0  0  0  0  0  0  0  0  0
  140.6610   71.3850  221.2820 O   0  0  0  0  0  0  0  0  0  0  0  0
  140.1180   71.3420  223.6140 C   0  0  0  0  0  0  0  0  0  0  0  0
  139.4930   70.1190  223.7140 C   0  0  0  0  0  0  0  0  0  0  0  0
  139.3850   69.4220  224.9090 C   0  0  0  0  0  0  0  0  0  0  0  0
  139.9340   70.0060  226.0190 C   0  0  0  0  0  0  0  0  0  0  0  0
  139.8390   69.3330  227.2180 C   0  0  0  0  0  0  0  0  0  0  0  0
  140.3770   69.8810  228.3590 C   0  0  0  0  0  0  0  0  0  0  0  0
  140.9970   71.1050  228.2390 C   0  0  0  0  0  0  0  0  0  0  0  0
  141.0920   71.7830  227.0290 C   0  0  0  0  0  0  0  0  0  0  0  0
  140.5490   71.2280  225.8750 C   0  0  0  0  0  0  0  0  0  0  0  0
  140.6450   71.8890  224.7110 N   0  0  0  0  0  0  0  0  0  0  0  0
  141.3574   78.6184  223.3763 H   0  0  0  0  0  0  0  0  0  0  0  0
  142.2104   78.2978  221.8283 H   0  0  0  0  0  0  0  0  0  0  0  0
  140.6598   79.2046  221.8283 H   0  0  0  0  0  0  0  0  0  0  0  0
  140.9415   76.2640  222.7060 H   0  0  0  0  0  0  0  0  0  0  0  0
  139.0639   77.3632  223.7600 H   0  0  0  0  0  0  0  0  0  0  0  0
  138.7293   78.3440  222.2928 H   0  0  0  0  0  0  0  0  0  0  0  0
  138.3838   76.5813  222.2928 H   0  0  0  0  0  0  0  0  0  0  0  0
  139.3521   76.4520  220.4532 H   0  0  0  0  0  0  0  0  0  0  0  0
  139.9763   78.2856  219.2029 H   0  0  0  0  0  0  0  0  0  0  0  0
  141.0889   78.8186  220.4419 H   0  0  0  0  0  0  0  0  0  0  0  0
  141.6008   76.9490  218.0622 H   0  0  0  0  0  0  0  0  0  0  0  0
  143.7200   78.0690  219.0020 H   0  0  0  0  0  0  0  0  0  0  0  0
  143.3104   75.7488  219.5420 H   0  0  0  0  0  0  0  0  0  0  0  0
  143.1232   76.8510  220.8463 H   0  0  0  0  0  0  0  0  0  0  0  0
  139.0456   74.6053  220.5675 H   0  0  0  0  0  0  0  0  0  0  0  0
  139.5338   72.9527  220.0102 H   0  0  0  0  0  0  0  0  0  0  0  0
  139.2290   73.8110  222.8380 H   0  0  0  0  0  0  0  0  0  0  0  0
  139.0599   69.6746  222.8057 H   0  0  0  0  0  0  0  0  0  0  0  0
  138.8816   68.4454  224.9620 H   0  0  0  0  0  0  0  0  0  0  0  0
  139.3328   68.3574  227.2624 H   0  0  0  0  0  0  0  0  0  0  0  0
  140.3147   69.3631  229.3274 H   0  0  0  0  0  0  0  0  0  0  0  0
  141.4349   71.5649  229.1372 H   0  0  0  0  0  0  0  0  0  0  0  0
  141.5970   72.7592  226.9842 H   0  0  0  0  0  0  0  0  0  0  0  0
  1  2  1  0
  2  3  1  0
  2  4  1  0
  4  5  1  0
  5  6  1  0
  6  7  1  0
  6  8  1  0
  8  9  1  0
  9 10  1  0
 10 11  2  0
 10 12  1  0
 12 13  1  0
 13 14  1  0
 14 15  2  0
 14 16  1  0
 16 17  2  0
 17 18  1  0
 18 19  2  0
 19 20  1  0
 20 21  2  0
 21 22  1  0
 22 23  2  0
 23 24  1  0
 24 25  2  0
  9  4  1  0
 25 16  1  0
 24 19  1  0
  1 26  1  0
  1 27  1  0
  1 28  1  0
  2 29  1  0
  3 30  1  0
  3 31  1  0
  3 32  1  0
  4 33  1  6
  5 34  1  0
  5 35  1  0
  6 36  1  6
  7 37  1  0
  8 38  1  0
  8 39  1  0
 12 40  1  0
 12 41  1  0
 13 42  1  0
 17 43  1  0
 18 44  1  0
 20 45  1  0
 21 46  1  0
 22 47  1  0
 23 48  1  0
M  END
>  <smiles>  (18) 
CC(C)[C@H]1C[C@@H](O)CN1C(=O)CNC(=O)c1ccc2ccccc2n1

>  <score_type>  (18) 
oracle

>  <origin>  (18) 
autodockgpu

>  <m_score__min__energy>  (18) 
-8.1199999999999992

>  <m_primary>  (18) 
energy

>  <rmsd>  (18) 
2.0200047421205523

>  <m_score__min__rmsd>  (18) 
2.0200047421205523

>  <meeko>  (18) 
{"free_energy": -7.13, "intermolecular_energy": -8.91, "internal_energy": -1.08, "cluster_size": 14, "cluster_id": 3, "rank_in_cluster": 14}

>  <energy>  (18) 
-7.56

>  <cluster_rmsd>  (18) 
1.17

>  <cluster>  (18) 
1

$$$$

     RDKit          3D

 48 50  0  0  0  0  0  0  0  0999 V2000
  140.0080   70.5740  228.3030 C   0  0  0  0  0  0  0  0  0  0  0  0
  140.2830   71.2960  226.9980 C   0  0  0  0  0  0  0  0  0  0  0  0
  141.4510   72.2150  227.2660 C   0  0  0  0  0  0  0  0  0  0  0  0
  140.7070   70.2670  225.9640 C   0  0  1  0  0  0  0  0  0  0  0  0
  140.7370   68.8820  226.5800 C   0  0  0  0  0  0  0  0  0  0  0  0
  139.8010   68.1020  225.6880 C   0  0  1  0  0  0  0  0  0  0  0  0
  139.1990   67.0300  226.3100 O   0  0  0  0  0  0  0  0  0  0  0  0
  138.7740   69.1880  225.3370 C   0  0  0  0  0  0  0  0  0  0  0  0
  139.7220   70.2220  224.8840 N   0  0  0  0  0  0  0  0  0  0  0  0
  139.6760   70.9810  223.6850 C   0  0  0  0  0  0  0  0  0  0  0  0
  140.6680   71.5780  223.1950 O   0  0  0  0  0  0  0  0  0  0  0  0
  138.3740   71.0680  222.9740 C   0  0  0  0  0  0  0  0  0  0  0  0
  137.3430   71.6310  223.8240 N   0  0  0  0  0  0  0  0  0  0  0  0
  136.2380   70.7820  224.1350 C   0  0  0  0  0  0  0  0  0  0  0  0
  136.2880   69.6170  223.6240 O   0  0  0  0  0  0  0  0  0  0  0  0
  135.1320   71.2180  224.9780 C   0  0  0  0  0  0  0  0  0  0  0  0
  134.4030   70.2440  225.6240 C   0  0  0  0  0  0  0  0  0  0  0  0
  133.3290   70.5310  226.4530 C   0  0  0  0  0  0  0  0  0  0  0  0
  133.0040   71.8510  226.6140 C   0  0  0  0  0  0  0  0  0  0  0  0
  131.9400   72.1610  227.4330 C   0  0  0  0  0  0  0  0  0  0  0  0
  131.5780   73.4740  227.6240 C   0  0  0  0  0  0  0  0  0  0  0  0
  132.3190   74.4340  226.9690 C   0  0  0  0  0  0  0  0  0  0  0  0
  133.3920   74.1200  226.1430 C   0  0  0  0  0  0  0  0  0  0  0  0
  133.7570   72.7920  225.9510 C   0  0  0  0  0  0  0  0  0  0  0  0
  134.7950   72.4980  225.1520 N   0  0  0  0  0  0  0  0  0  0  0  0
  140.2592   71.2334  229.1469 H   0  0  0  0  0  0  0  0  0  0  0  0
  138.9434   70.3021  228.3543 H   0  0  0  0  0  0  0  0  0  0  0  0
  140.6220   69.6628  228.3543 H   0  0  0  0  0  0  0  0  0  0  0  0
  139.4021   71.8470  226.6367 H   0  0  0  0  0  0  0  0  0  0  0  0
  141.5899   72.3243  228.3517 H   0  0  0  0  0  0  0  0  0  0  0  0
  142.3623   71.7892  226.8208 H   0  0  0  0  0  0  0  0  0  0  0  0
  141.2515   73.2009  226.8208 H   0  0  0  0  0  0  0  0  0  0  0  0
  141.7023   70.5518  225.5922 H   0  0  0  0  0  0  0  0  0  0  0  0
  141.7522   68.4591  226.5561 H   0  0  0  0  0  0  0  0  0  0  0  0
  140.4424   68.8690  227.6397 H   0  0  0  0  0  0  0  0  0  0  0  0
  140.3114   67.6337  224.8335 H   0  0  0  0  0  0  0  0  0  0  0  0
  139.8780   66.6430  226.9190 H   0  0  0  0  0  0  0  0  0  0  0  0
  138.0884   68.8712  224.5373 H   0  0  0  0  0  0  0  0  0  0  0  0
  138.0853   69.4819  226.1428 H   0  0  0  0  0  0  0  0  0  0  0  0
  138.4933   71.7059  222.0858 H   0  0  0  0  0  0  0  0  0  0  0  0
  138.0682   70.0512  222.6865 H   0  0  0  0  0  0  0  0  0  0  0  0
  137.3690   72.5910  224.2060 H   0  0  0  0  0  0  0  0  0  0  0  0
  134.6854   69.1913  225.4756 H   0  0  0  0  0  0  0  0  0  0  0  0
  132.7638   69.7340  226.9584 H   0  0  0  0  0  0  0  0  0  0  0  0
  131.3799   71.3579  227.9343 H   0  0  0  0  0  0  0  0  0  0  0  0
  130.7323   73.7466  228.2725 H   0  0  0  0  0  0  0  0  0  0  0  0
  132.0503   75.4919  227.1055 H   0  0  0  0  0  0  0  0  0  0  0  0
  133.9526   74.9223  225.6410 H   0  0  0  0  0  0  0  0  0  0  0  0
  1  2  1  0
  2  3  1  0
  2  4  1  0
  4  5  1  0
  5  6  1  0
  6  7  1  0
  6  8  1  0
  8  9  1  0
  9 10  1  0
 10 11  2  0
 10 12  1  0
 12 13  1  0
 13 14  1  0
 14 15  2  0
 14 16  1  0
 16 17  2  0
 17 18  1  0
 18 19  2  0
 19 20  1  0
 20 21  2  0
 21 22  1  0
 22 23  2  0
 23 24  1  0
 24 25  2  0
  9  4  1  0
 25 16  1  0
 24 19  1  0
  1 26  1  0
  1 27  1  0
  1 28  1  0
  2 29  1  0
  3 30  1  0
  3 31  1  0
  3 32  1  0
  4 33  1  6
  5 34  1  0
  5 35  1  0
  6 36  1  6
  7 37  1  0
  8 38  1  0
  8 39  1  0
 12 40  1  0
 12 41  1  0
 13 42  1  0
 17 43  1  0
 18 44  1  0
 20 45  1  0
 21 46  1  0
 22 47  1  0
 23 48  1  0
M  END
>  <smiles>  (19) 
CC(C)[C@H]1C[C@@H](O)CN1C(=O)CNC(=O)c1ccc2ccccc2n1

>  <score_type>  (19) 
oracle

>  <origin>  (19) 
autodockgpu

>  <m_score__min__energy>  (19) 
-8.1199999999999992

>  <m_primary>  (19) 
energy

>  <rmsd>  (19) 
7.814787450665091

>  <m_score__min__rmsd>  (19) 
7.814787450665091

>  <meeko>  (19) 
{"free_energy": -7.96, "intermolecular_energy": -9.75, "internal_energy": -1.37, "cluster_size": 5, "cluster_id": 2, "rank_in_cluster": 2}

>  <energy>  (19) 
-7.55

>  <cluster_rmsd>  (19) 
0.45

>  <cluster>  (19) 
1

$$$$

     RDKit          3D

 48 50  0  0  0  0  0  0  0  0999 V2000
  141.0040   68.1730  228.1880 C   0  0  0  0  0  0  0  0  0  0  0  0
  140.5340   68.5620  226.7990 C   0  0  0  0  0  0  0  0  0  0  0  0
  139.5600   67.4900  226.3710 C   0  0  0  0  0  0  0  0  0  0  0  0
  139.7880   69.8800  226.8990 C   0  0  1  0  0  0  0  0  0  0  0  0
  140.4470   70.7820  227.9250 C   0  0  0  0  0  0  0  0  0  0  0  0
  140.7560   72.0250  227.1250 C   0  0  1  0  0  0  0  0  0  0  0  0
  141.8250   72.7490  227.6050 O   0  0  0  0  0  0  0  0  0  0  0  0
  141.0740   71.4070  225.7550 C   0  0  0  0  0  0  0  0  0  0  0  0
  139.8590   70.5830  225.6190 N   0  0  0  0  0  0  0  0  0  0  0  0
  138.9800   70.5040  224.5060 C   0  0  0  0  0  0  0  0  0  0  0  0
  137.7570   70.2290  224.5980 O   0  0  0  0  0  0  0  0  0  0  0  0
  139.5500   70.7650  223.1590 C   0  0  0  0  0  0  0  0  0  0  0  0
  139.6710   72.1860  222.9000 N   0  0  0  0  0  0  0  0  0  0  0  0
  140.6750   72.5810  221.9640 C   0  0  0  0  0  0  0  0  0  0  0  0
  141.3550   71.6280  221.4620 O   0  0  0  0  0  0  0  0  0  0  0  0
  140.9060   73.9760  221.6100 C   0  0  0  0  0  0  0  0  0  0  0  0
  141.8000   74.2330  220.5940 C   0  0  0  0  0  0  0  0  0  0  0  0
  142.1040   75.5170  220.1650 C   0  0  0  0  0  0  0  0  0  0  0  0
  141.4710   76.5500  220.8020 C   0  0  0  0  0  0  0  0  0  0  0  0
  141.7570   77.8350  220.3920 C   0  0  0  0  0  0  0  0  0  0  0  0
  141.1450   78.9040  221.0030 C   0  0  0  0  0  0  0  0  0  0  0  0
  140.2550   78.6260  222.0170 C   0  0  0  0  0  0  0  0  0  0  0  0
  139.9670   77.3300  222.4290 C   0  0  0  0  0  0  0  0  0  0  0  0
  140.5860   76.2490  221.8110 C   0  0  0  0  0  0  0  0  0  0  0  0
  140.3030   75.0010  222.2140 N   0  0  0  0  0  0  0  0  0  0  0  0
  140.3861   68.6844  228.9408 H   0  0  0  0  0  0  0  0  0  0  0  0
  140.9107   67.0844  228.3152 H   0  0  0  0  0  0  0  0  0  0  0  0
  142.0560   68.4682  228.3152 H   0  0  0  0  0  0  0  0  0  0  0  0
  141.3710   68.6610  226.0921 H   0  0  0  0  0  0  0  0  0  0  0  0
  139.1259   67.0122  227.2617 H   0  0  0  0  0  0  0  0  0  0  0  0
  138.7576   67.9425  225.7698 H   0  0  0  0  0  0  0  0  0  0  0  0
  140.0871   66.7345  225.7698 H   0  0  0  0  0  0  0  0  0  0  0  0
  138.7482   69.6590  227.1817 H   0  0  0  0  0  0  0  0  0  0  0  0
  139.7612   71.0052  228.7556 H   0  0  0  0  0  0  0  0  0  0  0  0
  141.3349   70.3332  228.3944 H   0  0  0  0  0  0  0  0  0  0  0  0
  139.9380   72.7603  227.1393 H   0  0  0  0  0  0  0  0  0  0  0  0
  141.6730   73.6870  227.3290 H   0  0  0  0  0  0  0  0  0  0  0  0
  141.1541   72.1663  224.9631 H   0  0  0  0  0  0  0  0  0  0  0  0
  142.0325   70.8732  225.6753 H   0  0  0  0  0  0  0  0  0  0  0  0
  140.5469   70.3042  223.0972 H   0  0  0  0  0  0  0  0  0  0  0  0
  138.8722   70.3336  222.4077 H   0  0  0  0  0  0  0  0  0  0  0  0
  139.0810   72.9070  223.3470 H   0  0  0  0  0  0  0  0  0  0  0  0
  142.2946   73.3830  220.1012 H   0  0  0  0  0  0  0  0  0  0  0  0
  142.8209   75.6966  219.3503 H   0  0  0  0  0  0  0  0  0  0  0  0
  142.4748   78.0050  219.5760 H   0  0  0  0  0  0  0  0  0  0  0  0
  141.3573   79.9384  220.6949 H   0  0  0  0  0  0  0  0  0  0  0  0
  139.7516   79.4639  222.5214 H   0  0  0  0  0  0  0  0  0  0  0  0
  139.2488   77.1594  223.2446 H   0  0  0  0  0  0  0  0  0  0  0  0
  1  2  1  0
  2  3  1  0
  2  4  1  0
  4  5  1  0
  5  6  1  0
  6  7  1  0
  6  8  1  0
  8  9  1  0
  9 10  1  0
 10 11  2  0
 10 12  1  0
 12 13  1  0
 13 14  1  0
 14 15  2  0
 14 16  1  0
 16 17  2  0
 17 18  1  0
 18 19  2  0
 19 20  1  0
 20 21  2  0
 21 22  1  0
 22 23  2  0
 23 24  1  0
 24 25  2  0
  9  4  1  0
 25 16  1  0
 24 19  1  0
  1 26  1  0
  1 27  1  0
  1 28  1  0
  2 29  1  0
  3 30  1  0
  3 31  1  0
  3 32  1  0
  4 33  1  1
  5 34  1  0
  5 35  1  0
  6 36  1  6
  7 37  1  0
  8 38  1  0
  8 39  1  0
 12 40  1  0
 12 41  1  0
 13 42  1  0
 17 43  1  0
 18 44  1  0
 20 45  1  0
 21 46  1  0
 22 47  1  0
 23 48  1  0
M  END
>  <smiles>  (20) 
CC(C)[C@H]1C[C@@H](O)CN1C(=O)CNC(=O)c1ccc2ccccc2n1

>  <score_type>  (20) 
oracle

>  <origin>  (20) 
autodockgpu

>  <m_score__min__energy>  (20) 
-8.1199999999999992

>  <m_primary>  (20) 
energy

>  <rmsd>  (20) 
8.393803481041957

>  <m_score__min__rmsd>  (20) 
8.393803481041957

>  <meeko>  (20) 
{"free_energy": -8.1, "intermolecular_energy": -9.89, "internal_energy": -1.22, "cluster_size": 22, "cluster_id": 1, "rank_in_cluster": 3}

>  <energy>  (20) 
-7.43

>  <cluster_rmsd>  (20) 
1.95

>  <cluster>  (20) 
1

$$$$

     RDKit          3D

 48 50  0  0  0  0  0  0  0  0999 V2000
  142.5540   80.1550  222.4930 C   0  0  0  0  0  0  0  0  0  0  0  0
  141.8090   78.8510  222.7040 C   0  0  0  0  0  0  0  0  0  0  0  0
  140.8450   79.0990  223.8400 C   0  0  0  0  0  0  0  0  0  0  0  0
  141.0090   78.5510  221.4490 C   0  0  1  0  0  0  0  0  0  0  0  0
  141.7040   79.1270  220.2300 C   0  0  0  0  0  0  0  0  0  0  0  0
  141.8850   77.9160  219.3470 C   0  0  1  0  0  0  0  0  0  0  0  0
  142.9520   78.0080  218.4820 O   0  0  0  0  0  0  0  0  0  0  0  0
  142.1200   76.8270  220.4050 C   0  0  0  0  0  0  0  0  0  0  0  0
  140.9410   77.1050  221.2450 N   0  0  0  0  0  0  0  0  0  0  0  0
  139.9790   76.1780  221.7290 C   0  0  0  0  0  0  0  0  0  0  0  0
  139.0350   76.4870  222.4990 O   0  0  0  0  0  0  0  0  0  0  0  0
  140.1040   74.7640  221.2920 C   0  0  0  0  0  0  0  0  0  0  0  0
  139.7400   73.8470  222.3550 N   0  0  0  0  0  0  0  0  0  0  0  0
  140.5350   72.6660  222.4780 C   0  0  0  0  0  0  0  0  0  0  0  0
  141.4800   72.5560  221.6320 O   0  0  0  0  0  0  0  0  0  0  0  0
  140.2810   71.6600  223.5020 C   0  0  0  0  0  0  0  0  0  0  0  0
  139.6000   70.5250  223.1200 C   0  0  0  0  0  0  0  0  0  0  0  0
  139.2980   69.4950  223.9990 C   0  0  0  0  0  0  0  0  0  0  0  0
  139.7090   69.6470  225.2960 C   0  0  0  0  0  0  0  0  0  0  0  0
  139.4200   68.6360  226.1880 C   0  0  0  0  0  0  0  0  0  0  0  0
  139.8130   68.7450  227.5020 C   0  0  0  0  0  0  0  0  0  0  0  0
  140.4930   69.8870  227.8640 C   0  0  0  0  0  0  0  0  0  0  0  0
  140.7840   70.9050  226.9630 C   0  0  0  0  0  0  0  0  0  0  0  0
  140.3860   70.7950  225.6350 C   0  0  0  0  0  0  0  0  0  0  0  0
  140.6700   71.7820  224.7720 N   0  0  0  0  0  0  0  0  0  0  0  0
  142.8057   80.5956  223.4690 H   0  0  0  0  0  0  0  0  0  0  0  0
  143.4782   79.9621  221.9285 H   0  0  0  0  0  0  0  0  0  0  0  0
  141.9185   80.8532  221.9285 H   0  0  0  0  0  0  0  0  0  0  0  0
  142.4906   78.0151  222.9201 H   0  0  0  0  0  0  0  0  0  0  0  0
  141.3664   78.9649  224.7992 H   0  0  0  0  0  0  0  0  0  0  0  0
  140.4570   80.1262  223.7740 H   0  0  0  0  0  0  0  0  0  0  0  0
  140.0095   78.3866  223.7740 H   0  0  0  0  0  0  0  0  0  0  0  0
  140.0081   78.9901  221.5733 H   0  0  0  0  0  0  0  0  0  0  0  0
  141.0779   79.8862  219.7384 H   0  0  0  0  0  0  0  0  0  0  0  0
  142.6483   79.6387  220.4674 H   0  0  0  0  0  0  0  0  0  0  0  0
  141.0355   77.7476  218.6688 H   0  0  0  0  0  0  0  0  0  0  0  0
  143.7680   77.9510  219.0380 H   0  0  0  0  0  0  0  0  0  0  0  0
  142.0965   75.8150  219.9746 H   0  0  0  0  0  0  0  0  0  0  0  0
  143.0943   76.8496  220.9151 H   0  0  0  0  0  0  0  0  0  0  0  0
  139.4402   74.5955  220.4312 H   0  0  0  0  0  0  0  0  0  0  0  0
  141.1531   74.5778  221.0186 H   0  0  0  0  0  0  0  0  0  0  0  0
  138.9560   74.0030  223.0090 H   0  0  0  0  0  0  0  0  0  0  0  0
  139.2815   70.4312  222.0713 H   0  0  0  0  0  0  0  0  0  0  0  0
  138.7536   68.5979  223.6691 H   0  0  0  0  0  0  0  0  0  0  0  0
  138.8753   67.7424  225.8491 H   0  0  0  0  0  0  0  0  0  0  0  0
  139.5933   67.9531  228.2332 H   0  0  0  0  0  0  0  0  0  0  0  0
  140.8191   69.9980  228.9087 H   0  0  0  0  0  0  0  0  0  0  0  0
  141.3296   71.7984  227.3009 H   0  0  0  0  0  0  0  0  0  0  0  0
  1  2  1  0
  2  3  1  0
  2  4  1  0
  4  5  1  0
  5  6  1  0
  6  7  1  0
  6  8  1  0
  8  9  1  0
  9 10  1  0
 10 11  2  0
 10 12  1  0
 12 13  1  0
 13 14  1  0
 14 15  2  0
 14 16  1  0
 16 17  2  0
 17 18  1  0
 18 19  2  0
 19 20  1  0
 20 21  2  0
 21 22  1  0
 22 23  2  0
 23 24  1  0
 24 25  2  0
  9  4  1  0
 25 16  1  0
 24 19  1  0
  1 26  1  0
  1 27  1  0
  1 28  1  0
  2 29  1  0
  3 30  1  0
  3 31  1  0
  3 32  1  0
  4 33  1  1
  5 34  1  0
  5 35  1  0
  6 36  1  6
  7 37  1  0
  8 38  1  0
  8 39  1  0
 12 40  1  0
 12 41  1  0
 13 42  1  0
 17 43  1  0
 18 44  1  0
 20 45  1  0
 21 46  1  0
 22 47  1  0
 23 48  1  0
M  END
>  <smiles>  (21) 
CC(C)[C@H]1C[C@@H](O)CN1C(=O)CNC(=O)c1ccc2ccccc2n1

>  <score_type>  (21) 
oracle

>  <origin>  (21) 
autodockgpu

>  <m_score__min__energy>  (21) 
-8.1199999999999992

>  <m_primary>  (21) 
energy

>  <rmsd>  (21) 
2.3546552320227154

>  <m_score__min__rmsd>  (21) 
2.3546552320227154

>  <meeko>  (21) 
{"free_energy": -7.78, "intermolecular_energy": -9.57, "internal_energy": -1.2, "cluster_size": 14, "cluster_id": 3, "rank_in_cluster": 6}

>  <energy>  (21) 
-7.4

>  <cluster_rmsd>  (21) 
0.61

>  <cluster>  (21) 
1

$$$$

     RDKit          3D

 48 50  0  0  0  0  0  0  0  0999 V2000
  140.3970   70.5350  228.2940 C   0  0  0  0  0  0  0  0  0  0  0  0
  140.3030   71.3020  226.9880 C   0  0  0  0  0  0  0  0  0  0  0  0
  141.4770   72.2500  226.9740 C   0  0  0  0  0  0  0  0  0  0  0  0
  140.4640   70.3160  225.8440 C   0  0  1  0  0  0  0  0  0  0  0  0
  140.7060   68.9190  226.3820 C   0  0  0  0  0  0  0  0  0  0  0  0
  139.5900   68.1220  225.7510 C   0  0  1  0  0  0  0  0  0  0  0  0
  139.2150   67.0120  226.4760 O   0  0  0  0  0  0  0  0  0  0  0  0
  138.4700   69.1730  225.7270 C   0  0  0  0  0  0  0  0  0  0  0  0
  139.2250   70.2560  225.0700 N   0  0  0  0  0  0  0  0  0  0  0  0
  138.8300   71.0400  223.9540 C   0  0  0  0  0  0  0  0  0  0  0  0
  137.6530   71.4370  223.7590 O   0  0  0  0  0  0  0  0  0  0  0  0
  139.8760   71.4100  222.9660 C   0  0  0  0  0  0  0  0  0  0  0  0
  139.9700   72.8470  222.8050 N   0  0  0  0  0  0  0  0  0  0  0  0
  140.8760   73.3200  221.8070 C   0  0  0  0  0  0  0  0  0  0  0  0
  141.5020   72.4130  221.1690 O   0  0  0  0  0  0  0  0  0  0  0  0
  141.0680   74.7400  221.5390 C   0  0  0  0  0  0  0  0  0  0  0  0
  141.8390   75.0800  220.4490 C   0  0  0  0  0  0  0  0  0  0  0  0
  142.0960   76.3950  220.0890 C   0  0  0  0  0  0  0  0  0  0  0  0
  141.5450   77.3720  220.8740 C   0  0  0  0  0  0  0  0  0  0  0  0
  141.7870   78.6870  220.5350 C   0  0  0  0  0  0  0  0  0  0  0  0
  141.2530   79.7020  221.2940 C   0  0  0  0  0  0  0  0  0  0  0  0
  140.4860   79.3410  222.3800 C   0  0  0  0  0  0  0  0  0  0  0  0
  140.2430   78.0150  222.7200 C   0  0  0  0  0  0  0  0  0  0  0  0
  140.7820   76.9890  221.9520 C   0  0  0  0  0  0  0  0  0  0  0  0
  140.5430   75.7120  222.2870 N   0  0  0  0  0  0  0  0  0  0  0  0
  140.3111   71.2356  229.1377 H   0  0  0  0  0  0  0  0  0  0  0  0
  139.5825   69.7974  228.3455 H   0  0  0  0  0  0  0  0  0  0  0  0
  141.3655   70.0160  228.3455 H   0  0  0  0  0  0  0  0  0  0  0  0
  139.3457   71.8347  226.8887 H   0  0  0  0  0  0  0  0  0  0  0  0
  141.7698   72.4864  228.0076 H   0  0  0  0  0  0  0  0  0  0  0  0
  142.3228   71.7785  226.4521 H   0  0  0  0  0  0  0  0  0  0  0  0
  141.1943   73.1761  226.4521 H   0  0  0  0  0  0  0  0  0  0  0  0
  141.3109   70.6500  225.2267 H   0  0  0  0  0  0  0  0  0  0  0  0
  141.6901   68.5389  226.0703 H   0  0  0  0  0  0  0  0  0  0  0  0
  140.7104   68.8693  227.4809 H   0  0  0  0  0  0  0  0  0  0  0  0
  139.8653   67.6949  224.7754 H   0  0  0  0  0  0  0  0  0  0  0  0
  139.8410   66.9540  227.2400 H   0  0  0  0  0  0  0  0  0  0  0  0
  137.6044   68.8470  225.1317 H   0  0  0  0  0  0  0  0  0  0  0  0
  138.0158   69.4192  226.6981 H   0  0  0  0  0  0  0  0  0  0  0  0
  140.8466   71.0249  223.3119 H   0  0  0  0  0  0  0  0  0  0  0  0
  139.6041   70.9710  221.9948 H   0  0  0  0  0  0  0  0  0  0  0  0
  139.4270   73.5270  223.3620 H   0  0  0  0  0  0  0  0  0  0  0  0
  142.2697   74.2735  219.8374 H   0  0  0  0  0  0  0  0  0  0  0  0
  142.7141   76.6413  219.2131 H   0  0  0  0  0  0  0  0  0  0  0  0
  142.4070   78.9238  219.6578 H   0  0  0  0  0  0  0  0  0  0  0  0
  141.4310   80.7584  221.0443 H   0  0  0  0  0  0  0  0  0  0  0  0
  140.0480   80.1343  223.0036 H   0  0  0  0  0  0  0  0  0  0  0  0
  139.6237   77.7774  223.5975 H   0  0  0  0  0  0  0  0  0  0  0  0
  1  2  1  0
  2  3  1  0
  2  4  1  0
  4  5  1  0
  5  6  1  0
  6  7  1  0
  6  8  1  0
  8  9  1  0
  9 10  1  0
 10 11  2  0
 10 12  1  0
 12 13  1  0
 13 14  1  0
 14 15  2  0
 14 16  1  0
 16 17  2  0
 17 18  1  0
 18 19  2  0
 19 20  1  0
 20 21  2  0
 21 22  1  0
 22 23  2  0
 23 24  1  0
 24 25  2  0
  9  4  1  0
 25 16  1  0
 24 19  1  0
  1 26  1  0
  1 27  1  0
  1 28  1  0
  2 29  1  0
  3 30  1  0
  3 31  1  0
  3 32  1  0
  4 33  1  6
  5 34  1  0
  5 35  1  0
  6 36  1  6
  7 37  1  0
  8 38  1  0
  8 39  1  0
 12 40  1  0
 12 41  1  0
 13 42  1  0
 17 43  1  0
 18 44  1  0
 20 45  1  0
 21 46  1  0
 22 47  1  0
 23 48  1  0
M  END
>  <smiles>  (22) 
CC(C)[C@H]1C[C@@H](O)CN1C(=O)CNC(=O)c1ccc2ccccc2n1

>  <score_type>  (22) 
oracle

>  <origin>  (22) 
autodockgpu

>  <m_score__min__energy>  (22) 
-8.1199999999999992

>  <m_primary>  (22) 
energy

>  <rmsd>  (22) 
8.5956138094989

>  <m_score__min__rmsd>  (22) 
8.5956138094989

>  <meeko>  (22) 
{"free_energy": -8.08, "intermolecular_energy": -9.87, "internal_energy": -1.26, "cluster_size": 22, "cluster_id": 1, "rank_in_cluster": 6}

>  <energy>  (22) 
-7.39

>  <cluster_rmsd>  (22) 
0.71

>  <cluster>  (22) 
1

$$$$

     RDKit          3D

 48 50  0  0  0  0  0  0  0  0999 V2000
  143.2710   76.7720  217.0680 C   0  0  0  0  0  0  0  0  0  0  0  0
  143.2720   76.3170  218.5150 C   0  0  0  0  0  0  0  0  0  0  0  0
  142.0320   76.9100  219.1410 C   0  0  0  0  0  0  0  0  0  0  0  0
  143.1460   74.8030  218.5390 C   0  0  1  0  0  0  0  0  0  0  0  0
  144.3900   74.1620  217.9530 C   0  0  0  0  0  0  0  0  0  0  0  0
  144.8580   73.2640  219.0730 C   0  0  1  0  0  0  0  0  0  0  0  0
  146.2130   73.0160  219.0620 O   0  0  0  0  0  0  0  0  0  0  0  0
  144.4560   74.1020  220.2950 C   0  0  0  0  0  0  0  0  0  0  0  0
  143.0500   74.3410  219.9220 N   0  0  0  0  0  0  0  0  0  0  0  0
  141.8930   74.1590  220.7260 C   0  0  0  0  0  0  0  0  0  0  0  0
  141.5570   74.9340  221.6550 O   0  0  0  0  0  0  0  0  0  0  0  0
  141.0350   72.9790  220.4400 C   0  0  0  0  0  0  0  0  0  0  0  0
  141.0770   72.0190  221.5250 N   0  0  0  0  0  0  0  0  0  0  0  0
  140.2770   72.3140  222.6710 C   0  0  0  0  0  0  0  0  0  0  0  0
  139.6130   73.3990  222.6050 O   0  0  0  0  0  0  0  0  0  0  0  0
  140.2240   71.4350  223.8320 C   0  0  0  0  0  0  0  0  0  0  0  0
  139.6360   70.2010  223.6680 C   0  0  0  0  0  0  0  0  0  0  0  0
  139.5250   69.2750  224.6950 C   0  0  0  0  0  0  0  0  0  0  0  0
  140.0320   69.6380  225.9140 C   0  0  0  0  0  0  0  0  0  0  0  0
  139.9330   68.7340  226.9510 C   0  0  0  0  0  0  0  0  0  0  0  0
  140.4290   69.0560  228.1930 C   0  0  0  0  0  0  0  0  0  0  0  0
  141.0130   70.2950  228.3370 C   0  0  0  0  0  0  0  0  0  0  0  0
  141.1120   71.2050  227.2910 C   0  0  0  0  0  0  0  0  0  0  0  0
  140.6110   70.8790  226.0350 C   0  0  0  0  0  0  0  0  0  0  0  0
  140.7110   71.7630  225.0310 N   0  0  0  0  0  0  0  0  0  0  0  0
  143.2686   77.8713  217.0293 H   0  0  0  0  0  0  0  0  0  0  0  0
  144.1700   76.3893  216.5627 H   0  0  0  0  0  0  0  0  0  0  0  0
  142.3737   76.3853  216.5627 H   0  0  0  0  0  0  0  0  0  0  0  0
  144.1862   76.6240  219.0442 H   0  0  0  0  0  0  0  0  0  0  0  0
  142.1188   76.8685  220.2368 H   0  0  0  0  0  0  0  0  0  0  0  0
  141.9246   77.9570  218.8211 H   0  0  0  0  0  0  0  0  0  0  0  0
  141.1496   76.3364  218.8211 H   0  0  0  0  0  0  0  0  0  0  0  0
  142.2531   74.5281  217.9584 H   0  0  0  0  0  0  0  0  0  0  0  0
  144.1492   73.5795  217.0515 H   0  0  0  0  0  0  0  0  0  0  0  0
  145.1480   74.8918  217.6322 H   0  0  0  0  0  0  0  0  0  0  0  0
  144.4250   72.2540  219.0244 H   0  0  0  0  0  0  0  0  0  0  0  0
  146.6560   73.8900  218.9230 H   0  0  0  0  0  0  0  0  0  0  0  0
  144.5482   73.5391  221.2355 H   0  0  0  0  0  0  0  0  0  0  0  0
  145.0643   74.9977  220.4890 H   0  0  0  0  0  0  0  0  0  0  0  0
  139.9973   73.3164  220.3007 H   0  0  0  0  0  0  0  0  0  0  0  0
  141.4119   72.4894  219.5299 H   0  0  0  0  0  0  0  0  0  0  0  0
  141.6420   71.1540  221.5090 H   0  0  0  0  0  0  0  0  0  0  0  0
  139.2361   69.9373  222.6778 H   0  0  0  0  0  0  0  0  0  0  0  0
  139.0516   68.2947  224.5374 H   0  0  0  0  0  0  0  0  0  0  0  0
  139.4576   67.7560  226.7849 H   0  0  0  0  0  0  0  0  0  0  0  0
  140.3620   68.3529  229.0363 H   0  0  0  0  0  0  0  0  0  0  0  0
  141.4178   70.5760  229.3205 H   0  0  0  0  0  0  0  0  0  0  0  0
  141.5867   72.1834  227.4565 H   0  0  0  0  0  0  0  0  0  0  0  0
  1  2  1  0
  2  3  1  0
  2  4  1  0
  4  5  1  0
  5  6  1  0
  6  7  1  0
  6  8  1  0
  8  9  1  0
  9 10  1  0
 10 11  2  0
 10 12  1  0
 12 13  1  0
 13 14  1  0
 14 15  2  0
 14 16  1  0
 16 17  2  0
 17 18  1  0
 18 19  2  0
 19 20  1  0
 20 21  2  0
 21 22  1  0
 22 23  2  0
 23 24  1  0
 24 25  2  0
  9  4  1  0
 25 16  1  0
 24 19  1  0
  1 26  1  0
  1 27  1  0
  1 28  1  0
  2 29  1  0
  3 30  1  0
  3 31  1  0
  3 32  1  0
  4 33  1  6
  5 34  1  0
  5 35  1  0
  6 36  1  1
  7 37  1  0
  8 38  1  0
  8 39  1  0
 12 40  1  0
 12 41  1  0
 13 42  1  0
 17 43  1  0
 18 44  1  0
 20 45  1  0
 21 46  1  0
 22 47  1  0
 23 48  1  0
M  END
>  <smiles>  (23) 
CC(C)[C@H]1C[C@@H](O)CN1C(=O)CNC(=O)c1ccc2ccccc2n1

>  <score_type>  (23) 
oracle

>  <origin>  (23) 
autodockgpu

>  <m_score__min__energy>  (23) 
-8.1199999999999992

>  <m_primary>  (23) 
energy

>  <rmsd>  (23) 
3.296090504561824

>  <m_score__min__rmsd>  (23) 
3.296090504561824

>  <meeko>  (23) 
{"free_energy": -7.92, "intermolecular_energy": -9.71, "internal_energy": -0.89, "cluster_size": 6, "cluster_id": 4, "rank_in_cluster": 1}

>  <energy>  (23) 
-8.0

>  <cluster_rmsd>  (23) 
0.0

>  <cluster>  (23) 
2

$$$$

     RDKit          3D

 48 50  0  0  0  0  0  0  0  0999 V2000
  140.8140   67.4910  226.6680 C   0  0  0  0  0  0  0  0  0  0  0  0
  140.2560   68.2010  227.8870 C   0  0  0  0  0  0  0  0  0  0  0  0
  141.4440   68.5400  228.7550 C   0  0  0  0  0  0  0  0  0  0  0  0
  139.6070   69.4950  227.4300 C   0  0  1  0  0  0  0  0  0  0  0  0
  140.2210   70.6770  228.1550 C   0  0  0  0  0  0  0  0  0  0  0  0
  140.7090   71.5460  227.0200 C   0  0  1  0  0  0  0  0  0  0  0  0
  141.7730   72.3550  227.3530 O   0  0  0  0  0  0  0  0  0  0  0  0
  141.1230   70.4740  226.0020 C   0  0  0  0  0  0  0  0  0  0  0  0
  139.8690   69.6980  226.0060 N   0  0  0  0  0  0  0  0  0  0  0  0
  139.1110   69.2620  224.8860 C   0  0  0  0  0  0  0  0  0  0  0  0
  138.8920   68.0550  224.6160 O   0  0  0  0  0  0  0  0  0  0  0  0
  138.5470   70.3030  223.9890 C   0  0  0  0  0  0  0  0  0  0  0  0
  139.5920   71.0950  223.3720 N   0  0  0  0  0  0  0  0  0  0  0  0
  139.1720   72.2430  222.6330 C   0  0  0  0  0  0  0  0  0  0  0  0
  137.9140   72.4380  222.6020 O   0  0  0  0  0  0  0  0  0  0  0  0
  140.1170   73.1270  221.9620 C   0  0  0  0  0  0  0  0  0  0  0  0
  141.1830   72.5430  221.3150 C   0  0  0  0  0  0  0  0  0  0  0  0
  142.1490   73.2750  220.6400 C   0  0  0  0  0  0  0  0  0  0  0  0
  142.0060   74.6370  220.6390 C   0  0  0  0  0  0  0  0  0  0  0  0
  142.9540   75.3860  219.9750 C   0  0  0  0  0  0  0  0  0  0  0  0
  142.8510   76.7570  219.9460 C   0  0  0  0  0  0  0  0  0  0  0  0
  141.7780   77.3220  220.6000 C   0  0  0  0  0  0  0  0  0  0  0  0
  140.8230   76.5660  221.2690 C   0  0  0  0  0  0  0  0  0  0  0  0
  140.9280   75.1790  221.2970 C   0  0  0  0  0  0  0  0  0  0  0  0
  140.0010   74.4560  221.9450 N   0  0  0  0  0  0  0  0  0  0  0  0
  141.4638   66.6642  226.9907 H   0  0  0  0  0  0  0  0  0  0  0  0
  139.9852   67.0920  226.0647 H   0  0  0  0  0  0  0  0  0  0  0  0
  141.3976   68.2020  226.0647 H   0  0  0  0  0  0  0  0  0  0  0  0
  139.5197   67.5844  228.4234 H   0  0  0  0  0  0  0  0  0  0  0  0
  141.1592   68.4587  229.8144 H   0  0  0  0  0  0  0  0  0  0  0  0
  142.2656   67.8405  228.5415 H   0  0  0  0  0  0  0  0  0  0  0  0
  141.7727   69.5678  228.5415 H   0  0  0  0  0  0  0  0  0  0  0  0
  138.5290   69.4248  227.6376 H   0  0  0  0  0  0  0  0  0  0  0  0
  139.4701   71.2031  228.7628 H   0  0  0  0  0  0  0  0  0  0  0  0
  141.0163   70.3918  228.8593 H   0  0  0  0  0  0  0  0  0  0  0  0
  139.9538   72.2668  226.6733 H   0  0  0  0  0  0  0  0  0  0  0  0
  141.4570   73.2880  227.2540 H   0  0  0  0  0  0  0  0  0  0  0  0
  141.3462   70.9014  225.0133 H   0  0  0  0  0  0  0  0  0  0  0  0
  142.0403   69.9133  226.2350 H   0  0  0  0  0  0  0  0  0  0  0  0
  137.9565   69.8137  223.2004 H   0  0  0  0  0  0  0  0  0  0  0  0
  137.9162   70.9731  224.5916 H   0  0  0  0  0  0  0  0  0  0  0  0
  140.6000   70.8760  223.4400 H   0  0  0  0  0  0  0  0  0  0  0  0
  141.2727   71.4468  221.3342 H   0  0  0  0  0  0  0  0  0  0  0  0
  142.9907   72.7843  220.1293 H   0  0  0  0  0  0  0  0  0  0  0  0
  143.7930   74.8868  219.4682 H   0  0  0  0  0  0  0  0  0  0  0  0
  143.5941   77.3766  219.4226 H   0  0  0  0  0  0  0  0  0  0  0  0
  141.6729   78.4169  220.5923 H   0  0  0  0  0  0  0  0  0  0  0  0
  139.9839   77.0643  221.7765 H   0  0  0  0  0  0  0  0  0  0  0  0
  1  2  1  0
  2  3  1  0
  2  4  1  0
  4  5  1  0
  5  6  1  0
  6  7  1  0
  6  8  1  0
  8  9  1  0
  9 10  1  0
 10 11  2  0
 10 12  1  0
 12 13  1  0
 13 14  1  0
 14 15  2  0
 14 16  1  0
 16 17  2  0
 17 18  1  0
 18 19  2  0
 19 20  1  0
 20 21  2  0
 21 22  1  0
 22 23  2  0
 23 24  1  0
 24 25  2  0
  9  4  1  0
 25 16  1  0
 24 19  1  0
  1 26  1  0
  1 27  1  0
  1 28  1  0
  2 29  1  0
  3 30  1  0
  3 31  1  0
  3 32  1  0
  4 33  1  6
  5 34  1  0
  5 35  1  0
  6 36  1  6
  7 37  1  0
  8 38  1  0
  8 39  1  0
 12 40  1  0
 12 41  1  0
 13 42  1  0
 17 43  1  0
 18 44  1  0
 20 45  1  0
 21 46  1  0
 22 47  1  0
 23 48  1  0
M  END
>  <smiles>  (24) 
CC(C)[C@H]1C[C@@H](O)CN1C(=O)CNC(=O)c1ccc2ccccc2n1

>  <score_type>  (24) 
oracle

>  <origin>  (24) 
autodockgpu

>  <m_score__min__energy>  (24) 
-8.1199999999999992

>  <m_primary>  (24) 
energy

>  <rmsd>  (24) 
8.26889832681539

>  <m_score__min__rmsd>  (24) 
8.26889832681539

>  <meeko>  (24) 
{"free_energy": -7.62, "intermolecular_energy": -9.41, "internal_energy": -0.77, "cluster_size": 22, "cluster_id": 1, "rank_in_cluster": 17}

>  <energy>  (24) 
-7.96

>  <cluster_rmsd>  (24) 
0.24

>  <cluster>  (24) 
2

$$$$

     RDKit          3D

 48 50  0  0  0  0  0  0  0  0999 V2000
  140.5310   70.4550  228.2760 C   0  0  0  0  0  0  0  0  0  0  0  0
  140.2920   71.2640  227.0160 C   0  0  0  0  0  0  0  0  0  0  0  0
  141.4260   72.2590  226.9360 C   0  0  0  0  0  0  0  0  0  0  0  0
  140.3870   70.3290  225.8240 C   0  0  1  0  0  0  0  0  0  0  0  0
  140.7030   68.9180  226.2840 C   0  0  0  0  0  0  0  0  0  0  0  0
  139.5590   68.1170  225.7080 C   0  0  1  0  0  0  0  0  0  0  0  0
  139.2690   66.9700  226.4140 O   0  0  0  0  0  0  0  0  0  0  0  0
  138.4170   69.1390  225.8140 C   0  0  0  0  0  0  0  0  0  0  0  0
  139.0930   70.2660  225.1460 N   0  0  0  0  0  0  0  0  0  0  0  0
  138.5930   71.0820  224.0970 C   0  0  0  0  0  0  0  0  0  0  0  0
  137.4410   71.5850  224.0890 O   0  0  0  0  0  0  0  0  0  0  0  0
  139.4930   71.3540  222.9470 C   0  0  0  0  0  0  0  0  0  0  0  0
  139.6080   72.7750  222.6870 N   0  0  0  0  0  0  0  0  0  0  0  0
  140.7230   73.1920  221.8980 C   0  0  0  0  0  0  0  0  0  0  0  0
  141.4940   72.2560  221.5110 O   0  0  0  0  0  0  0  0  0  0  0  0
  140.9600   74.5900  221.5600 C   0  0  0  0  0  0  0  0  0  0  0  0
  141.7000   74.8520  220.4280 C   0  0  0  0  0  0  0  0  0  0  0  0
  141.9940   76.1390  220.0000 C   0  0  0  0  0  0  0  0  0  0  0  0
  141.5120   77.1700  220.7610 C   0  0  0  0  0  0  0  0  0  0  0  0
  141.7920   78.4580  220.3560 C   0  0  0  0  0  0  0  0  0  0  0  0
  141.3280   79.5250  221.0900 C   0  0  0  0  0  0  0  0  0  0  0  0
  140.5910   79.2420  222.2180 C   0  0  0  0  0  0  0  0  0  0  0  0
  140.3100   77.9430  222.6260 C   0  0  0  0  0  0  0  0  0  0  0  0
  140.7790   76.8640  221.8840 C   0  0  0  0  0  0  0  0  0  0  0  0
  140.5030   75.6130  222.2830 N   0  0  0  0  0  0  0  0  0  0  0  0
  140.3446   71.0858  229.1576 H   0  0  0  0  0  0  0  0  0  0  0  0
  139.8495   69.5917  228.2922 H   0  0  0  0  0  0  0  0  0  0  0  0
  141.5722   70.1006  228.2922 H   0  0  0  0  0  0  0  0  0  0  0  0
  139.3104   71.7604  227.0234 H   0  0  0  0  0  0  0  0  0  0  0  0
  141.7425   72.5367  227.9522 H   0  0  0  0  0  0  0  0  0  0  0  0
  142.2729   71.8073  226.3988 H   0  0  0  0  0  0  0  0  0  0  0  0
  141.0882   73.1575  226.3988 H   0  0  0  0  0  0  0  0  0  0  0  0
  141.1752   70.7097  225.1579 H   0  0  0  0  0  0  0  0  0  0  0  0
  141.6683   68.5766  225.8820 H   0  0  0  0  0  0  0  0  0  0  0  0
  140.7945   68.8251  227.3762 H   0  0  0  0  0  0  0  0  0  0  0  0
  139.7655   67.7358  224.6970 H   0  0  0  0  0  0  0  0  0  0  0  0
  139.8630   66.9720  227.2060 H   0  0  0  0  0  0  0  0  0  0  0  0
  137.5150   68.8144  225.2745 H   0  0  0  0  0  0  0  0  0  0  0  0
  138.0350   69.3350  226.8267 H   0  0  0  0  0  0  0  0  0  0  0  0
  140.4912   70.9497  223.1709 H   0  0  0  0  0  0  0  0  0  0  0  0
  139.0669   70.8732  222.0541 H   0  0  0  0  0  0  0  0  0  0  0  0
  138.9390   73.4820  223.0350 H   0  0  0  0  0  0  0  0  0  0  0  0
  142.0746   74.0033  219.8369 H   0  0  0  0  0  0  0  0  0  0  0  0
  142.5867   76.3222  219.0916 H   0  0  0  0  0  0  0  0  0  0  0  0
  142.3860   78.6322  219.4467 H   0  0  0  0  0  0  0  0  0  0  0  0
  141.5372   80.5618  220.7880 H   0  0  0  0  0  0  0  0  0  0  0  0
  140.2086   80.0784  222.8215 H   0  0  0  0  0  0  0  0  0  0  0  0
  139.7167   77.7685  223.5357 H   0  0  0  0  0  0  0  0  0  0  0  0
  1  2  1  0
  2  3  1  0
  2  4  1  0
  4  5  1  0
  5  6  1  0
  6  7  1  0
  6  8  1  0
  8  9  1  0
  9 10  1  0
 10 11  2  0
 10 12  1  0
 12 13  1  0
 13 14  1  0
 14 15  2  0
 14 16  1  0
 16 17  2  0
 17 18  1  0
 18 19  2  0
 19 20  1  0
 20 21  2  0
 21 22  1  0
 22 23  2  0
 23 24  1  0
 24 25  2  0
  9  4  1  0
 25 16  1  0
 24 19  1  0
  1 26  1  0
  1 27  1  0
  1 28  1  0
  2 29  1  0
  3 30  1  0
  3 31  1  0
  3 32  1  0
  4 33  1  6
  5 34  1  0
  5 35  1  0
  6 36  1  6
  7 37  1  0
  8 38  1  0
  8 39  1  0
 12 40  1  0
 12 41  1  0
 13 42  1  0
 17 43  1  0
 18 44  1  0
 20 45  1  0
 21 46  1  0
 22 47  1  0
 23 48  1  0
M  END
>  <smiles>  (25) 
CC(C)[C@H]1C[C@@H](O)CN1C(=O)CNC(=O)c1ccc2ccccc2n1

>  <score_type>  (25) 
oracle

>  <origin>  (25) 
autodockgpu

>  <m_score__min__energy>  (25) 
-8.1199999999999992

>  <m_primary>  (25) 
energy

>  <rmsd>  (25) 
8.53755832918695

>  <m_score__min__rmsd>  (25) 
8.53755832918695

>  <meeko>  (25) 
{"free_energy": -7.93, "intermolecular_energy": -9.72, "internal_energy": -1.31, "cluster_size": 22, "cluster_id": 1, "rank_in_cluster": 13}

>  <energy>  (25) 
-7.86

>  <cluster_rmsd>  (25) 
0.83

>  <cluster>  (25) 
2

$$$$

     RDKit          3D

 48 50  0  0  0  0  0  0  0  0999 V2000
  142.1830   79.3020  222.4010 C   0  0  0  0  0  0  0  0  0  0  0  0
  141.0680   78.2760  222.4730 C   0  0  0  0  0  0  0  0  0  0  0  0
  139.9080   78.9650  223.1520 C   0  0  0  0  0  0  0  0  0  0  0  0
  140.6550   77.9220  221.0550 C   0  0  1  0  0  0  0  0  0  0  0  0
  141.6950   78.4100  220.0650 C   0  0  0  0  0  0  0  0  0  0  0  0
  142.0770   77.1450  219.3340 C   0  0  1  0  0  0  0  0  0  0  0  0
  143.3520   77.1620  218.8130 O   0  0  0  0  0  0  0  0  0  0  0  0
  141.9520   76.1150  220.4660 C   0  0  0  0  0  0  0  0  0  0  0  0
  140.5920   76.4680  220.9110 N   0  0  0  0  0  0  0  0  0  0  0  0
  139.4960   75.5940  221.1390 C   0  0  0  0  0  0  0  0  0  0  0  0
  138.3320   75.9860  221.4050 O   0  0  0  0  0  0  0  0  0  0  0  0
  139.7510   74.1330  221.0540 C   0  0  0  0  0  0  0  0  0  0  0  0
  139.6520   73.5010  222.3550 N   0  0  0  0  0  0  0  0  0  0  0  0
  140.1920   72.1840  222.4670 C   0  0  0  0  0  0  0  0  0  0  0  0
  140.7020   71.7130  221.4000 O   0  0  0  0  0  0  0  0  0  0  0  0
  140.1600   71.4320  223.7160 C   0  0  0  0  0  0  0  0  0  0  0  0
  139.5910   70.1780  223.6870 C   0  0  0  0  0  0  0  0  0  0  0  0
  139.5010   69.3650  224.8070 C   0  0  0  0  0  0  0  0  0  0  0  0
  140.0100   69.8620  225.9770 C   0  0  0  0  0  0  0  0  0  0  0  0
  139.9320   69.0720  227.1040 C   0  0  0  0  0  0  0  0  0  0  0  0
  140.4300   69.5300  228.3010 C   0  0  0  0  0  0  0  0  0  0  0  0
  140.9950   70.7870  228.3090 C   0  0  0  0  0  0  0  0  0  0  0  0
  141.0740   71.5820  227.1720 C   0  0  0  0  0  0  0  0  0  0  0  0
  140.5700   71.1180  225.9620 C   0  0  0  0  0  0  0  0  0  0  0  0
  140.6490   71.8930  224.8690 N   0  0  0  0  0  0  0  0  0  0  0  0
  142.4887   79.5833  223.4195 H   0  0  0  0  0  0  0  0  0  0  0  0
  143.0426   78.8724  221.8656 H   0  0  0  0  0  0  0  0  0  0  0  0
  141.8262   80.1943  221.8656 H   0  0  0  0  0  0  0  0  0  0  0  0
  141.3761   77.3669  223.0103 H   0  0  0  0  0  0  0  0  0  0  0  0
  140.0272   78.8942  224.2432 H   0  0  0  0  0  0  0  0  0  0  0  0
  139.8846   80.0235  222.8536 H   0  0  0  0  0  0  0  0  0  0  0  0
  138.9673   78.4791  222.8536 H   0  0  0  0  0  0  0  0  0  0  0  0
  139.6791   78.3908  220.8604 H   0  0  0  0  0  0  0  0  0  0  0  0
  141.2682   79.1531  219.3754 H   0  0  0  0  0  0  0  0  0  0  0  0
  142.5490   78.9134  220.5417 H   0  0  0  0  0  0  0  0  0  0  0  0
  141.4547   76.9563  218.4468 H   0  0  0  0  0  0  0  0  0  0  0  0
  143.8610   77.8260  219.3430 H   0  0  0  0  0  0  0  0  0  0  0  0
  142.0150   75.0805  220.0975 H   0  0  0  0  0  0  0  0  0  0  0  0
  142.7364   76.1452  221.2366 H   0  0  0  0  0  0  0  0  0  0  0  0
  139.0106   73.6794  220.3787 H   0  0  0  0  0  0  0  0  0  0  0  0
  140.7718   73.9819  220.6731 H   0  0  0  0  0  0  0  0  0  0  0  0
  139.2220   73.9460  223.1820 H   0  0  0  0  0  0  0  0  0  0  0  0
  139.1901   69.8047  222.7331 H   0  0  0  0  0  0  0  0  0  0  0  0
  139.0418   68.3667  224.7577 H   0  0  0  0  0  0  0  0  0  0  0  0
  139.4712   68.0749  227.0457 H   0  0  0  0  0  0  0  0  0  0  0  0
  140.3795   68.9187  229.2141 H   0  0  0  0  0  0  0  0  0  0  0  0
  141.4001   71.1771  229.2544 H   0  0  0  0  0  0  0  0  0  0  0  0
  141.5355   72.5789  227.2292 H   0  0  0  0  0  0  0  0  0  0  0  0
  1  2  1  0
  2  3  1  0
  2  4  1  0
  4  5  1  0
  5  6  1  0
  6  7  1  0
  6  8  1  0
  8  9  1  0
  9 10  1  0
 10 11  2  0
 10 12  1  0
 12 13  1  0
 13 14  1  0
 14 15  2  0
 14 16  1  0
 16 17  2  0
 17 18  1  0
 18 19  2  0
 19 20  1  0
 20 21  2  0
 21 22  1  0
 22 23  2  0
 23 24  1  0
 24 25  2  0
  9  4  1  0
 25 16  1  0
 24 19  1  0
  1 26  1  0
  1 27  1  0
  1 28  1  0
  2 29  1  0
  3 30  1  0
  3 31  1  0
  3 32  1  0
  4 33  1  6
  5 34  1  0
  5 35  1  0
  6 36  1  6
  7 37  1  0
  8 38  1  0
  8 39  1  0
 12 40  1  0
 12 41  1  0
 13 42  1  0
 17 43  1  0
 18 44  1  0
 20 45  1  0
 21 46  1  0
 22 47  1  0
 23 48  1  0
M  END
>  <smiles>  (26) 
CC(C)[C@H]1C[C@@H](O)CN1C(=O)CNC(=O)c1ccc2ccccc2n1

>  <score_type>  (26) 
oracle

>  <origin>  (26) 
autodockgpu

>  <m_score__min__energy>  (26) 
-8.1199999999999992

>  <m_primary>  (26) 
energy

>  <rmsd>  (26) 
2.010255240786422

>  <m_score__min__rmsd>  (26) 
2.010255240786422

>  <meeko>  (26) 
{"free_energy": -7.72, "intermolecular_energy": -9.51, "internal_energy": -1.09, "cluster_size": 14, "cluster_id": 3, "rank_in_cluster": 7}

>  <energy>  (26) 
-7.19

>  <cluster_rmsd>  (26) 
1.25

>  <cluster>  (26) 
2

$$$$

     RDKit          3D

 48 50  0  0  0  0  0  0  0  0999 V2000
  143.5970   76.6060  219.3530 C   0  0  0  0  0  0  0  0  0  0  0  0
  142.4130   75.7050  219.6510 C   0  0  0  0  0  0  0  0  0  0  0  0
  141.2570   76.2540  218.8510 C   0  0  0  0  0  0  0  0  0  0  0  0
  142.7340   74.3110  219.1410 C   0  0  1  0  0  0  0  0  0  0  0  0
  144.1030   74.2910  218.4880 C   0  0  0  0  0  0  0  0  0  0  0  0
  144.8280   73.2200  219.2680 C   0  0  1  0  0  0  0  0  0  0  0  0
  146.1960   73.3780  219.2970 O   0  0  0  0  0  0  0  0  0  0  0  0
  144.2150   73.4230  220.6620 C   0  0  0  0  0  0  0  0  0  0  0  0
  142.7960   73.3800  220.2670 N   0  0  0  0  0  0  0  0  0  0  0  0
  141.7530   72.6110  220.8490 C   0  0  0  0  0  0  0  0  0  0  0  0
  141.7370   71.3550  220.8710 O   0  0  0  0  0  0  0  0  0  0  0  0
  140.6180   73.3460  221.4660 C   0  0  0  0  0  0  0  0  0  0  0  0
  141.0080   74.6830  221.8680 N   0  0  0  0  0  0  0  0  0  0  0  0
  139.9590   75.6440  221.9890 C   0  0  0  0  0  0  0  0  0  0  0  0
  138.7920   75.2100  221.7260 O   0  0  0  0  0  0  0  0  0  0  0  0
  140.2090   77.0250  222.3850 C   0  0  0  0  0  0  0  0  0  0  0  0
  139.1130   77.8140  222.6580 C   0  0  0  0  0  0  0  0  0  0  0  0
  139.2190   79.1420  223.0450 C   0  0  0  0  0  0  0  0  0  0  0  0
  140.4820   79.6600  223.1490 C   0  0  0  0  0  0  0  0  0  0  0  0
  140.6120   80.9770  223.5320 C   0  0  0  0  0  0  0  0  0  0  0  0
  141.8610   81.5390  223.6500 C   0  0  0  0  0  0  0  0  0  0  0  0
  142.9440   80.7340  223.3730 C   0  0  0  0  0  0  0  0  0  0  0  0
  142.8120   79.4050  222.9870 C   0  0  0  0  0  0  0  0  0  0  0  0
  141.5480   78.8370  222.8680 C   0  0  0  0  0  0  0  0  0  0  0  0
  141.4290   77.5540  222.4950 N   0  0  0  0  0  0  0  0  0  0  0  0
  144.0452   76.9471  220.2979 H   0  0  0  0  0  0  0  0  0  0  0  0
  144.3460   76.0473  218.7725 H   0  0  0  0  0  0  0  0  0  0  0  0
  143.2582   77.4768  218.7725 H   0  0  0  0  0  0  0  0  0  0  0  0
  142.1845   75.6649  220.7263 H   0  0  0  0  0  0  0  0  0  0  0  0
  140.4796   76.6232  219.5360 H   0  0  0  0  0  0  0  0  0  0  0  0
  141.6097   77.0808  218.2169 H   0  0  0  0  0  0  0  0  0  0  0  0
  140.8391   75.4582  218.2169 H   0  0  0  0  0  0  0  0  0  0  0  0
  141.9525   74.0254  218.4215 H   0  0  0  0  0  0  0  0  0  0  0  0
  144.0305   74.0255  217.4230 H   0  0  0  0  0  0  0  0  0  0  0  0
  144.6112   75.2663  218.5101 H   0  0  0  0  0  0  0  0  0  0  0  0
  144.7081   72.2158  218.8353 H   0  0  0  0  0  0  0  0  0  0  0  0
  146.4040   74.1200  218.6760 H   0  0  0  0  0  0  0  0  0  0  0  0
  144.4795   72.6117  221.3562 H   0  0  0  0  0  0  0  0  0  0  0  0
  144.5386   74.3223  221.2066 H   0  0  0  0  0  0  0  0  0  0  0  0
  139.7985   73.4169  220.7356 H   0  0  0  0  0  0  0  0  0  0  0  0
  140.2963   72.7956  222.3624 H   0  0  0  0  0  0  0  0  0  0  0  0
  141.9820   74.9650  222.0670 H   0  0  0  0  0  0  0  0  0  0  0  0
  138.1102   77.3716  222.5651 H   0  0  0  0  0  0  0  0  0  0  0  0
  138.3284   79.7513  223.2586 H   0  0  0  0  0  0  0  0  0  0  0  0
  139.7160   81.5791  223.7435 H   0  0  0  0  0  0  0  0  0  0  0  0
  141.9903   82.5885  223.9532 H   0  0  0  0  0  0  0  0  0  0  0  0
  143.9543   81.1601  223.4608 H   0  0  0  0  0  0  0  0  0  0  0  0
  143.7076   78.8024  222.7756 H   0  0  0  0  0  0  0  0  0  0  0  0
  1  2  1  0
  2  3  1  0
  2  4  1  0
  4  5  1  0
  5  6  1  0
  6  7  1  0
  6  8  1  0
  8  9  1  0
  9 10  1  0
 10 11  2  0
 10 12  1  0
 12 13  1  0
 13 14  1  0
 14 15  2  0
 14 16  1  0
 16 17  2  0
 17 18  1  0
 18 19  2  0
 19 20  1  0
 20 21  2  0
 21 22  1  0
 22 23  2  0
 23 24  1  0
 24 25  2  0
  9  4  1  0
 25 16  1  0
 24 19  1  0
  1 26  1  0
  1 27  1  0
  1 28  1  0
  2 29  1  0
  3 30  1  0
  3 31  1  0
  3 32  1  0
  4 33  1  6
  5 34  1  0
  5 35  1  0
  6 36  1  6
  7 37  1  0
  8 38  1  0
  8 39  1  0
 12 40  1  0
 12 41  1  0
 13 42  1  0
 17 43  1  0
 18 44  1  0
 20 45  1  0
 21 46  1  0
 22 47  1  0
 23 48  1  0
M  END
>  <smiles>  (27) 
CC(C)[C@H]1C[C@@H](O)CN1C(=O)CNC(=O)c1ccc2ccccc2n1

>  <score_type>  (27) 
oracle

>  <origin>  (27) 
autodockgpu

>  <m_score__min__energy>  (27) 
-8.1199999999999992

>  <m_primary>  (27) 
energy

>  <rmsd>  (27) 
7.552080154612355

>  <m_score__min__rmsd>  (27) 
7.552080154612355

>  <meeko>  (27) 
{"free_energy": -6.71, "intermolecular_energy": -8.5, "internal_energy": -1.68, "cluster_size": 2, "cluster_id": 6, "rank_in_cluster": 1}

>  <energy>  (27) 
-7.14

>  <cluster_rmsd>  (27) 
1.62

>  <cluster>  (27) 
2

$$$$

     RDKit          3D

 48 50  0  0  0  0  0  0  0  0999 V2000
  140.2960   70.6380  228.1680 C   0  0  0  0  0  0  0  0  0  0  0  0
  140.3060   71.3710  226.8410 C   0  0  0  0  0  0  0  0  0  0  0  0
  141.5330   72.2510  226.8580 C   0  0  0  0  0  0  0  0  0  0  0  0
  140.4640   70.3460  225.7310 C   0  0  1  0  0  0  0  0  0  0  0  0
  140.7330   68.9730  226.3160 C   0  0  0  0  0  0  0  0  0  0  0  0
  139.6170   68.1390  225.7310 C   0  0  1  0  0  0  0  0  0  0  0  0
  139.2690   67.0520  226.5020 O   0  0  0  0  0  0  0  0  0  0  0  0
  138.4840   69.1750  225.6860 C   0  0  0  0  0  0  0  0  0  0  0  0
  139.2150   70.2420  224.9790 N   0  0  0  0  0  0  0  0  0  0  0  0
  138.7920   70.9800  223.8410 C   0  0  0  0  0  0  0  0  0  0  0  0
  137.6020   71.3270  223.6330 O   0  0  0  0  0  0  0  0  0  0  0  0
  139.8260   71.3600  222.8440 C   0  0  0  0  0  0  0  0  0  0  0  0
  139.8880   72.7980  222.6660 N   0  0  0  0  0  0  0  0  0  0  0  0
  140.9030   73.2890  221.7900 C   0  0  0  0  0  0  0  0  0  0  0  0
  141.6430   72.3980  221.2610 O   0  0  0  0  0  0  0  0  0  0  0  0
  141.0780   74.7110  221.5190 C   0  0  0  0  0  0  0  0  0  0  0  0
  141.8460   75.0590  220.4300 C   0  0  0  0  0  0  0  0  0  0  0  0
  142.0870   76.3770  220.0680 C   0  0  0  0  0  0  0  0  0  0  0  0
  141.5230   77.3480  220.8510 C   0  0  0  0  0  0  0  0  0  0  0  0
  141.7490   78.6650  220.5100 C   0  0  0  0  0  0  0  0  0  0  0  0
  141.2020   79.6740  221.2680 C   0  0  0  0  0  0  0  0  0  0  0  0
  140.4380   79.3050  222.3540 C   0  0  0  0  0  0  0  0  0  0  0  0
  140.2120   77.9770  222.6960 C   0  0  0  0  0  0  0  0  0  0  0  0
  140.7640   76.9570  221.9290 C   0  0  0  0  0  0  0  0  0  0  0  0
  140.5410   75.6770  222.2660 N   0  0  0  0  0  0  0  0  0  0  0  0
  140.3060   71.3684  228.9904 H   0  0  0  0  0  0  0  0  0  0  0  0
  139.3893   70.0191  228.2382 H   0  0  0  0  0  0  0  0  0  0  0  0
  141.1855   69.9946  228.2382 H   0  0  0  0  0  0  0  0  0  0  0  0
  139.3859   71.9529  226.6834 H   0  0  0  0  0  0  0  0  0  0  0  0
  141.8215   72.4579  227.8992 H   0  0  0  0  0  0  0  0  0  0  0  0
  142.3591   71.7382  226.3436 H   0  0  0  0  0  0  0  0  0  0  0  0
  141.3123   73.1979  226.3436 H   0  0  0  0  0  0  0  0  0  0  0  0
  141.2972   70.6679  225.0890 H   0  0  0  0  0  0  0  0  0  0  0  0
  141.7172   68.5943  226.0031 H   0  0  0  0  0  0  0  0  0  0  0  0
  140.7550   68.9635  227.4157 H   0  0  0  0  0  0  0  0  0  0  0  0
  139.8815   67.6797  224.7671 H   0  0  0  0  0  0  0  0  0  0  0  0
  139.9390   66.9980  227.2280 H   0  0  0  0  0  0  0  0  0  0  0  0
  137.6137   68.8172  225.1162 H   0  0  0  0  0  0  0  0  0  0  0  0
  138.0414   69.4510  226.6545 H   0  0  0  0  0  0  0  0  0  0  0  0
  140.8061   70.9999  223.1901 H   0  0  0  0  0  0  0  0  0  0  0  0
  139.5602   70.9034  221.8792 H   0  0  0  0  0  0  0  0  0  0  0  0
  139.2500   73.4650  223.1300 H   0  0  0  0  0  0  0  0  0  0  0  0
  142.2878   74.2571  219.8203 H   0  0  0  0  0  0  0  0  0  0  0  0
  142.7028   76.6297  219.1923 H   0  0  0  0  0  0  0  0  0  0  0  0
  142.3662   78.9083  219.6326 H   0  0  0  0  0  0  0  0  0  0  0  0
  141.3676   80.7322  221.0176 H   0  0  0  0  0  0  0  0  0  0  0  0
  139.9888   80.0937  222.9755 H   0  0  0  0  0  0  0  0  0  0  0  0
  139.5960   77.7327  223.5740 H   0  0  0  0  0  0  0  0  0  0  0  0
  1  2  1  0
  2  3  1  0
  2  4  1  0
  4  5  1  0
  5  6  1  0
  6  7  1  0
  6  8  1  0
  8  9  1  0
  9 10  1  0
 10 11  2  0
 10 12  1  0
 12 13  1  0
 13 14  1  0
 14 15  2  0
 14 16  1  0
 16 17  2  0
 17 18  1  0
 18 19  2  0
 19 20  1  0
 20 21  2  0
 21 22  1  0
 22 23  2  0
 23 24  1  0
 24 25  2  0
  9  4  1  0
 25 16  1  0
 24 19  1  0
  1 26  1  0
  1 27  1  0
  1 28  1  0
  2 29  1  0
  3 30  1  0
  3 31  1  0
  3 32  1  0
  4 33  1  6
  5 34  1  0
  5 35  1  0
  6 36  1  6
  7 37  1  0
  8 38  1  0
  8 39  1  0
 12 40  1  0
 12 41  1  0
 13 42  1  0
 17 43  1  0
 18 44  1  0
 20 45  1  0
 21 46  1  0
 22 47  1  0
 23 48  1  0
M  END
>  <smiles>  (28) 
CC(C)[C@H]1C[C@@H](O)CN1C(=O)CNC(=O)c1ccc2ccccc2n1

>  <score_type>  (28) 
oracle

>  <origin>  (28) 
autodockgpu

>  <m_score__min__energy>  (28) 
-8.1199999999999992

>  <m_primary>  (28) 
energy

>  <rmsd>  (28) 
8.563804603117452

>  <m_score__min__rmsd>  (28) 
8.563804603117452

>  <meeko>  (28) 
{"free_energy": -8.05, "intermolecular_energy": -9.84, "internal_energy": -1.27, "cluster_size": 22, "cluster_id": 1, "rank_in_cluster": 9}

>  <energy>  (28) 
-7.96

>  <cluster_rmsd>  (28) 
0.0

>  <cluster>  (28) 
3

$$$$

     RDKit          3D

 48 50  0  0  0  0  0  0  0  0999 V2000
  140.4260   70.5090  228.2980 C   0  0  0  0  0  0  0  0  0  0  0  0
  140.3080   71.3030  227.0110 C   0  0  0  0  0  0  0  0  0  0  0  0
  141.4770   72.2590  226.9990 C   0  0  0  0  0  0  0  0  0  0  0  0
  140.4580   70.3440  225.8440 C   0  0  1  0  0  0  0  0  0  0  0  0
  140.6990   68.9330  226.3480 C   0  0  0  0  0  0  0  0  0  0  0  0
  139.5750   68.1550  225.7060 C   0  0  1  0  0  0  0  0  0  0  0  0
  139.2000   67.0300  226.4070 O   0  0  0  0  0  0  0  0  0  0  0  0
  138.4600   69.2110  225.7130 C   0  0  0  0  0  0  0  0  0  0  0  0
  139.2140   70.3060  225.0760 N   0  0  0  0  0  0  0  0  0  0  0  0
  138.8150   71.1170  223.9810 C   0  0  0  0  0  0  0  0  0  0  0  0
  137.6510   71.5680  223.8310 O   0  0  0  0  0  0  0  0  0  0  0  0
  139.8410   71.4490  222.9590 C   0  0  0  0  0  0  0  0  0  0  0  0
  139.8940   72.8750  222.7040 N   0  0  0  0  0  0  0  0  0  0  0  0
  140.9670   73.3360  221.8820 C   0  0  0  0  0  0  0  0  0  0  0  0
  141.7610   72.4320  221.4660 O   0  0  0  0  0  0  0  0  0  0  0  0
  141.1410   74.7440  221.5450 C   0  0  0  0  0  0  0  0  0  0  0  0
  141.8200   75.0390  220.3830 C   0  0  0  0  0  0  0  0  0  0  0  0
  142.0500   76.3370  219.9530 C   0  0  0  0  0  0  0  0  0  0  0  0
  141.5680   77.3470  220.7430 C   0  0  0  0  0  0  0  0  0  0  0  0
  141.7850   78.6460  220.3350 C   0  0  0  0  0  0  0  0  0  0  0  0
  141.3180   79.6920  221.0970 C   0  0  0  0  0  0  0  0  0  0  0  0
  140.6430   79.3770  222.2560 C   0  0  0  0  0  0  0  0  0  0  0  0
  140.4250   78.0660  222.6650 C   0  0  0  0  0  0  0  0  0  0  0  0
  140.8960   77.0090  221.8940 C   0  0  0  0  0  0  0  0  0  0  0  0
  140.6820   75.7470  222.2960 N   0  0  0  0  0  0  0  0  0  0  0  0
  140.3252   71.1875  229.1580 H   0  0  0  0  0  0  0  0  0  0  0  0
  139.6308   69.7498  228.3347 H   0  0  0  0  0  0  0  0  0  0  0  0
  141.4076   70.0139  228.3347 H   0  0  0  0  0  0  0  0  0  0  0  0
  139.3460   71.8314  226.9384 H   0  0  0  0  0  0  0  0  0  0  0  0
  141.7672   72.4963  228.0331 H   0  0  0  0  0  0  0  0  0  0  0  0
  142.3262   71.7932  226.4775 H   0  0  0  0  0  0  0  0  0  0  0  0
  141.1891   73.1838  226.4775 H   0  0  0  0  0  0  0  0  0  0  0  0
  141.3021   70.6899  225.2293 H   0  0  0  0  0  0  0  0  0  0  0  0
  141.6795   68.5568  226.0206 H   0  0  0  0  0  0  0  0  0  0  0  0
  140.7112   68.8574  227.4453 H   0  0  0  0  0  0  0  0  0  0  0  0
  139.8421   67.7490  224.7192 H   0  0  0  0  0  0  0  0  0  0  0  0
  139.7570   67.0140  227.2250 H   0  0  0  0  0  0  0  0  0  0  0  0
  137.5892   68.9020  225.1162 H   0  0  0  0  0  0  0  0  0  0  0  0
  138.0139   69.4369  226.6928 H   0  0  0  0  0  0  0  0  0  0  0  0
  140.8250   71.1132  223.3180 H   0  0  0  0  0  0  0  0  0  0  0  0
  139.5720   70.9402  222.0216 H   0  0  0  0  0  0  0  0  0  0  0  0
  139.2110   73.5540  223.0770 H   0  0  0  0  0  0  0  0  0  0  0  0
  142.1965   74.2076  219.7689 H   0  0  0  0  0  0  0  0  0  0  0  0
  142.5945   76.5461  219.0204 H   0  0  0  0  0  0  0  0  0  0  0  0
  142.3310   78.8459  219.4012 H   0  0  0  0  0  0  0  0  0  0  0  0
  141.4770   80.7372  220.7933 H   0  0  0  0  0  0  0  0  0  0  0  0
  140.2610   80.1959  222.8833 H   0  0  0  0  0  0  0  0  0  0  0  0
  139.8797   77.8650  223.5989 H   0  0  0  0  0  0  0  0  0  0  0  0
  1  2  1  0
  2  3  1  0
  2  4  1  0
  4  5  1  0
  5  6  1  0
  6  7  1  0
  6  8  1  0
  8  9  1  0
  9 10  1  0
 10 11  2  0
 10 12  1  0
 12 13  1  0
 13 14  1  0
 14 15  2  0
 14 16  1  0
 16 17  2  0
 17 18  1  0
 18 19  2  0
 19 20  1  0
 20 21  2  0
 21 22  1  0
 22 23  2  0
 23 24  1  0
 24 25  2  0
  9  4  1  0
 25 16  1  0
 24 19  1  0
  1 26  1  0
  1 27  1  0
  1 28  1  0
  2 29  1  0
  3 30  1  0
  3 31  1  0
  3 32  1  0
  4 33  1  6
  5 34  1  0
  5 35  1  0
  6 36  1  6
  7 37  1  0
  8 38  1  0
  8 39  1  0
 12 40  1  0
 12 41  1  0
 13 42  1  0
 17 43  1  0
 18 44  1  0
 20 45  1  0
 21 46  1  0
 22 47  1  0
 23 48  1  0
M  END
>  <smiles>  (29) 
CC(C)[C@H]1C[C@@H](O)CN1C(=O)CNC(=O)c1ccc2ccccc2n1

>  <score_type>  (29) 
oracle

>  <origin>  (29) 
autodockgpu

>  <m_score__min__energy>  (29) 
-8.1199999999999992

>  <m_primary>  (29) 
energy

>  <rmsd>  (29) 
8.60135211709219

>  <m_score__min__rmsd>  (29) 
8.60135211709219

>  <meeko>  (29) 
{"free_energy": -8.08, "intermolecular_energy": -9.87, "internal_energy": -1.29, "cluster_size": 22, "cluster_id": 1, "rank_in_cluster": 5}

>  <energy>  (29) 
-7.96

>  <cluster_rmsd>  (29) 
0.12

>  <cluster>  (29) 
3

$$$$

     RDKit          3D

 48 50  0  0  0  0  0  0  0  0999 V2000
  141.1130   68.1400  228.3450 C   0  0  0  0  0  0  0  0  0  0  0  0
  140.6720   68.5260  226.9460 C   0  0  0  0  0  0  0  0  0  0  0  0
  139.6850   67.4700  226.5110 C   0  0  0  0  0  0  0  0  0  0  0  0
  139.9490   69.8590  227.0260 C   0  0  1  0  0  0  0  0  0  0  0  0
  140.7230   70.8280  227.8990 C   0  0  0  0  0  0  0  0  0  0  0  0
  140.9470   72.0010  226.9750 C   0  0  1  0  0  0  0  0  0  0  0  0
  142.0660   72.7450  227.2760 O   0  0  0  0  0  0  0  0  0  0  0  0
  141.1070   71.2760  225.6310 C   0  0  0  0  0  0  0  0  0  0  0  0
  139.8800   70.4600  225.6950 N   0  0  0  0  0  0  0  0  0  0  0  0
  138.8820   70.3080  224.6960 C   0  0  0  0  0  0  0  0  0  0  0  0
  137.6780   70.0460  224.9430 O   0  0  0  0  0  0  0  0  0  0  0  0
  139.2960   70.4710  223.2780 C   0  0  0  0  0  0  0  0  0  0  0  0
  139.4180   71.8700  222.9190 N   0  0  0  0  0  0  0  0  0  0  0  0
  140.4830   72.2100  222.0300 C   0  0  0  0  0  0  0  0  0  0  0  0
  141.2080   71.2340  221.6530 O   0  0  0  0  0  0  0  0  0  0  0  0
  140.7220   73.5780  221.5870 C   0  0  0  0  0  0  0  0  0  0  0  0
  139.8080   74.5360  221.9660 C   0  0  0  0  0  0  0  0  0  0  0  0
  139.9230   75.8720  221.6080 C   0  0  0  0  0  0  0  0  0  0  0  0
  141.0050   76.2180  220.8430 C   0  0  0  0  0  0  0  0  0  0  0  0
  141.1410   77.5390  220.4760 C   0  0  0  0  0  0  0  0  0  0  0  0
  142.2120   77.9330  219.7080 C   0  0  0  0  0  0  0  0  0  0  0  0
  143.1140   76.9600  219.3380 C   0  0  0  0  0  0  0  0  0  0  0  0
  142.9760   75.6270  219.7100 C   0  0  0  0  0  0  0  0  0  0  0  0
  141.8930   75.2300  220.4870 C   0  0  0  0  0  0  0  0  0  0  0  0
  141.7670   73.9420  220.8420 N   0  0  0  0  0  0  0  0  0  0  0  0
  140.4998   68.6767  229.0839 H   0  0  0  0  0  0  0  0  0  0  0  0
  140.9880   67.0559  228.4828 H   0  0  0  0  0  0  0  0  0  0  0  0
  142.1710   68.4075  228.4828 H   0  0  0  0  0  0  0  0  0  0  0  0
  141.5212   68.6032  226.2510 H   0  0  0  0  0  0  0  0  0  0  0  0
  139.2412   66.9951  227.3984 H   0  0  0  0  0  0  0  0  0  0  0  0
  138.8911   67.9359  225.9088 H   0  0  0  0  0  0  0  0  0  0  0  0
  140.2034   66.7094  225.9088 H   0  0  0  0  0  0  0  0  0  0  0  0
  138.9464   69.6752  227.4396 H   0  0  0  0  0  0  0  0  0  0  0  0
  140.1354   71.1240  228.7805 H   0  0  0  0  0  0  0  0  0  0  0  0
  141.6554   70.4045  228.3008 H   0  0  0  0  0  0  0  0  0  0  0  0
  140.1392   72.7461  227.0221 H   0  0  0  0  0  0  0  0  0  0  0  0
  141.7470   73.6580  227.4850 H   0  0  0  0  0  0  0  0  0  0  0  0
  141.1018   71.9713  224.7786 H   0  0  0  0  0  0  0  0  0  0  0  0
  142.0480   70.7249  225.4871 H   0  0  0  0  0  0  0  0  0  0  0  0
  140.2680   69.9777  223.1302 H   0  0  0  0  0  0  0  0  0  0  0  0
  138.5254   70.0159  222.6384 H   0  0  0  0  0  0  0  0  0  0  0  0
  138.7890   72.6130  223.2660 H   0  0  0  0  0  0  0  0  0  0  0  0
  138.9485   74.2286  222.5798 H   0  0  0  0  0  0  0  0  0  0  0  0
  139.1795   76.6185  221.9241 H   0  0  0  0  0  0  0  0  0  0  0  0
  140.3930   78.2788  220.7972 H   0  0  0  0  0  0  0  0  0  0  0  0
  142.3427   78.9815  219.4020 H   0  0  0  0  0  0  0  0  0  0  0  0
  143.9790   77.2491  218.7230 H   0  0  0  0  0  0  0  0  0  0  0  0
  143.7237   74.8865  219.3896 H   0  0  0  0  0  0  0  0  0  0  0  0
  1  2  1  0
  2  3  1  0
  2  4  1  0
  4  5  1  0
  5  6  1  0
  6  7  1  0
  6  8  1  0
  8  9  1  0
  9 10  1  0
 10 11  2  0
 10 12  1  0
 12 13  1  0
 13 14  1  0
 14 15  2  0
 14 16  1  0
 16 17  2  0
 17 18  1  0
 18 19  2  0
 19 20  1  0
 20 21  2  0
 21 22  1  0
 22 23  2  0
 23 24  1  0
 24 25  2  0
  9  4  1  0
 25 16  1  0
 24 19  1  0
  1 26  1  0
  1 27  1  0
  1 28  1  0
  2 29  1  0
  3 30  1  0
  3 31  1  0
  3 32  1  0
  4 33  1  1
  5 34  1  0
  5 35  1  0
  6 36  1  6
  7 37  1  0
  8 38  1  0
  8 39  1  0
 12 40  1  0
 12 41  1  0
 13 42  1  0
 17 43  1  0
 18 44  1  0
 20 45  1  0
 21 46  1  0
 22 47  1  0
 23 48  1  0
M  END
>  <smiles>  (30) 
CC(C)[C@H]1C[C@@H](O)CN1C(=O)CNC(=O)c1ccc2ccccc2n1

>  <score_type>  (30) 
oracle

>  <origin>  (30) 
autodockgpu

>  <m_score__min__energy>  (30) 
-8.1199999999999992

>  <m_primary>  (30) 
energy

>  <rmsd>  (30) 
8.432594853683176

>  <m_score__min__rmsd>  (30) 
8.432594853683176

>  <meeko>  (30) 
{"free_energy": -7.39, "intermolecular_energy": -9.18, "internal_energy": -1.07, "cluster_size": 22, "cluster_id": 1, "rank_in_cluster": 22}

>  <energy>  (30) 
-7.94

>  <cluster_rmsd>  (30) 
0.19

>  <cluster>  (30) 
3

$$$$

     RDKit          3D

 48 50  0  0  0  0  0  0  0  0999 V2000
  141.0640   68.1450  228.1200 C   0  0  0  0  0  0  0  0  0  0  0  0
  140.5130   68.5210  226.7570 C   0  0  0  0  0  0  0  0  0  0  0  0
  139.5160   67.4460  226.3980 C   0  0  0  0  0  0  0  0  0  0  0  0
  139.7740   69.8410  226.8900 C   0  0  1  0  0  0  0  0  0  0  0  0
  140.4530   70.7250  227.9180 C   0  0  0  0  0  0  0  0  0  0  0  0
  140.7530   71.9780  227.1310 C   0  0  1  0  0  0  0  0  0  0  0  0
  141.8330   72.6910  227.6040 O   0  0  0  0  0  0  0  0  0  0  0  0
  141.0460   71.3800  225.7470 C   0  0  0  0  0  0  0  0  0  0  0  0
  139.8260   70.5620  225.6190 N   0  0  0  0  0  0  0  0  0  0  0  0
  138.9290   70.5030  224.5200 C   0  0  0  0  0  0  0  0  0  0  0  0
  137.6990   70.2730  224.6320 O   0  0  0  0  0  0  0  0  0  0  0  0
  139.4870   70.7290  223.1620 C   0  0  0  0  0  0  0  0  0  0  0  0
  139.6150   72.1430  222.8690 N   0  0  0  0  0  0  0  0  0  0  0  0
  140.6590   72.5170  221.9700 C   0  0  0  0  0  0  0  0  0  0  0  0
  141.3640   71.5540  221.5250 O   0  0  0  0  0  0  0  0  0  0  0  0
  140.9000   73.9030  221.5880 C   0  0  0  0  0  0  0  0  0  0  0  0
  141.8160   74.1350  220.5860 C   0  0  0  0  0  0  0  0  0  0  0  0
  142.1320   75.4070  220.1330 C   0  0  0  0  0  0  0  0  0  0  0  0
  141.4880   76.4570  220.7310 C   0  0  0  0  0  0  0  0  0  0  0  0
  141.7860   77.7310  220.2970 C   0  0  0  0  0  0  0  0  0  0  0  0
  141.1620   78.8150  220.8690 C   0  0  0  0  0  0  0  0  0  0  0  0
  140.2500   78.5630  221.8700 C   0  0  0  0  0  0  0  0  0  0  0  0
  139.9500   77.2770  222.3060 C   0  0  0  0  0  0  0  0  0  0  0  0
  140.5810   76.1810  221.7270 C   0  0  0  0  0  0  0  0  0  0  0  0
  140.2860   74.9430  222.1540 N   0  0  0  0  0  0  0  0  0  0  0  0
  140.4277   68.5792  228.9052 H   0  0  0  0  0  0  0  0  0  0  0  0
  141.0756   67.0497  228.2214 H   0  0  0  0  0  0  0  0  0  0  0  0
  142.0881   68.5335  228.2214 H   0  0  0  0  0  0  0  0  0  0  0  0
  141.3061   68.6128  226.0004 H   0  0  0  0  0  0  0  0  0  0  0  0
  139.1061   67.0040  227.3181 H   0  0  0  0  0  0  0  0  0  0  0  0
  138.6992   67.8860  225.8071 H   0  0  0  0  0  0  0  0  0  0  0  0
  140.0162   66.6646  225.8071 H   0  0  0  0  0  0  0  0  0  0  0  0
  138.7384   69.6201  227.1878 H   0  0  0  0  0  0  0  0  0  0  0  0
  139.7819   70.9384  228.7630 H   0  0  0  0  0  0  0  0  0  0  0  0
  141.3467   70.2664  228.3663 H   0  0  0  0  0  0  0  0  0  0  0  0
  139.9377   72.7155  227.1694 H   0  0  0  0  0  0  0  0  0  0  0  0
  141.8150   73.5650  227.1400 H   0  0  0  0  0  0  0  0  0  0  0  0
  141.1154   72.1510  224.9655 H   0  0  0  0  0  0  0  0  0  0  0  0
  142.0012   70.8445  225.6432 H   0  0  0  0  0  0  0  0  0  0  0  0
  140.4801   70.2599  223.1010 H   0  0  0  0  0  0  0  0  0  0  0  0
  138.7987   70.2852  222.4277 H   0  0  0  0  0  0  0  0  0  0  0  0
  139.0020   72.8730  223.2690 H   0  0  0  0  0  0  0  0  0  0  0  0
  142.3194   73.2727  220.1244 H   0  0  0  0  0  0  0  0  0  0  0  0
  142.8667   75.5653  219.3297 H   0  0  0  0  0  0  0  0  0  0  0  0
  142.5224   77.8806  219.4937 H   0  0  0  0  0  0  0  0  0  0  0  0
  141.3823   79.8414  220.5405 H   0  0  0  0  0  0  0  0  0  0  0  0
  139.7381   79.4136  222.3438 H   0  0  0  0  0  0  0  0  0  0  0  0
  139.2134   77.1265  223.1090 H   0  0  0  0  0  0  0  0  0  0  0  0
  1  2  1  0
  2  3  1  0
  2  4  1  0
  4  5  1  0
  5  6  1  0
  6  7  1  0
  6  8  1  0
  8  9  1  0
  9 10  1  0
 10 11  2  0
 10 12  1  0
 12 13  1  0
 13 14  1  0
 14 15  2  0
 14 16  1  0
 16 17  2  0
 17 18  1  0
 18 19  2  0
 19 20  1  0
 20 21  2  0
 21 22  1  0
 22 23  2  0
 23 24  1  0
 24 25  2  0
  9  4  1  0
 25 16  1  0
 24 19  1  0
  1 26  1  0
  1 27  1  0
  1 28  1  0
  2 29  1  0
  3 30  1  0
  3 31  1  0
  3 32  1  0
  4 33  1  1
  5 34  1  0
  5 35  1  0
  6 36  1  6
  7 37  1  0
  8 38  1  0
  8 39  1  0
 12 40  1  0
 12 41  1  0
 13 42  1  0
 17 43  1  0
 18 44  1  0
 20 45  1  0
 21 46  1  0
 22 47  1  0
 23 48  1  0
M  END
>  <smiles>  (31) 
CC(C)[C@H]1C[C@@H](O)CN1C(=O)CNC(=O)c1ccc2ccccc2n1

>  <score_type>  (31) 
oracle

>  <origin>  (31) 
autodockgpu

>  <m_score__min__energy>  (31) 
-8.1199999999999992

>  <m_primary>  (31) 
energy

>  <rmsd>  (31) 
8.394093589047372

>  <m_score__min__rmsd>  (31) 
8.394093589047372

>  <meeko>  (31) 
{"free_energy": -8.05, "intermolecular_energy": -9.84, "internal_energy": -1.23, "cluster_size": 22, "cluster_id": 1, "rank_in_cluster": 10}

>  <energy>  (31) 
-7.93

>  <cluster_rmsd>  (31) 
0.12

>  <cluster>  (31) 
3

$$$$

     RDKit          3D

 48 50  0  0  0  0  0  0  0  0999 V2000
  140.4670   70.5250  228.2790 C   0  0  0  0  0  0  0  0  0  0  0  0
  140.3260   71.2850  226.9740 C   0  0  0  0  0  0  0  0  0  0  0  0
  141.4890   72.2470  226.9220 C   0  0  0  0  0  0  0  0  0  0  0  0
  140.4660   70.2970  225.8290 C   0  0  1  0  0  0  0  0  0  0  0  0
  140.6980   68.8970  226.3660 C   0  0  0  0  0  0  0  0  0  0  0  0
  139.5670   68.1120  225.7460 C   0  0  1  0  0  0  0  0  0  0  0  0
  139.1880   67.0060  226.4750 O   0  0  0  0  0  0  0  0  0  0  0  0
  138.4590   69.1750  225.7320 C   0  0  0  0  0  0  0  0  0  0  0  0
  139.2190   70.2490  225.0670 N   0  0  0  0  0  0  0  0  0  0  0  0
  138.8220   71.0370  223.9540 C   0  0  0  0  0  0  0  0  0  0  0  0
  137.6490   71.4510  223.7720 O   0  0  0  0  0  0  0  0  0  0  0  0
  139.8610   71.3870  222.9520 C   0  0  0  0  0  0  0  0  0  0  0  0
  139.9080   72.8160  222.7140 N   0  0  0  0  0  0  0  0  0  0  0  0
  140.9520   73.2870  221.8600 C   0  0  0  0  0  0  0  0  0  0  0  0
  141.7270   72.3870  221.4030 O   0  0  0  0  0  0  0  0  0  0  0  0
  141.1170   74.6990  221.5360 C   0  0  0  0  0  0  0  0  0  0  0  0
  141.8260   75.0090  220.3970 C   0  0  0  0  0  0  0  0  0  0  0  0
  142.0520   76.3130  219.9810 C   0  0  0  0  0  0  0  0  0  0  0  0
  141.5330   77.3120  220.7620 C   0  0  0  0  0  0  0  0  0  0  0  0
  141.7440   78.6160  220.3690 C   0  0  0  0  0  0  0  0  0  0  0  0
  141.2420   79.6510  221.1220 C   0  0  0  0  0  0  0  0  0  0  0  0
  140.5360   79.3200  222.2580 C   0  0  0  0  0  0  0  0  0  0  0  0
  140.3240   78.0050  222.6530 C   0  0  0  0  0  0  0  0  0  0  0  0
  140.8320   76.9580  221.8910 C   0  0  0  0  0  0  0  0  0  0  0  0
  140.6220   75.6910  222.2790 N   0  0  0  0  0  0  0  0  0  0  0  0
  140.3383   71.2186  229.1230 H   0  0  0  0  0  0  0  0  0  0  0  0
  139.6994   69.7388  228.3302 H   0  0  0  0  0  0  0  0  0  0  0  0
  141.4655   70.0664  228.3302 H   0  0  0  0  0  0  0  0  0  0  0  0
  139.3597   71.8055  226.9011 H   0  0  0  0  0  0  0  0  0  0  0  0
  141.7989   72.5033  227.9458 H   0  0  0  0  0  0  0  0  0  0  0  0
  142.3301   71.7771  226.3911 H   0  0  0  0  0  0  0  0  0  0  0  0
  141.1852   73.1613  226.3911 H   0  0  0  0  0  0  0  0  0  0  0  0
  141.3105   70.6222  225.2036 H   0  0  0  0  0  0  0  0  0  0  0  0
  141.6748   68.5059  226.0452 H   0  0  0  0  0  0  0  0  0  0  0  0
  140.7125   68.8478  227.4648 H   0  0  0  0  0  0  0  0  0  0  0  0
  139.8273   67.6816  224.7677 H   0  0  0  0  0  0  0  0  0  0  0  0
  139.8540   66.9090  227.2010 H   0  0  0  0  0  0  0  0  0  0  0  0
  137.5841   68.8581  225.1454 H   0  0  0  0  0  0  0  0  0  0  0  0
  138.0172   69.4269  226.7074 H   0  0  0  0  0  0  0  0  0  0  0  0
  140.8417   71.0537  223.3223 H   0  0  0  0  0  0  0  0  0  0  0  0
  139.6101   70.8870  222.0049 H   0  0  0  0  0  0  0  0  0  0  0  0
  139.2410   73.4920  223.1220 H   0  0  0  0  0  0  0  0  0  0  0  0
  142.2312   74.1860  219.7899 H   0  0  0  0  0  0  0  0  0  0  0  0
  142.6215   76.5347  219.0664 H   0  0  0  0  0  0  0  0  0  0  0  0
  142.3142   78.8287  219.4527 H   0  0  0  0  0  0  0  0  0  0  0  0
  141.3976   80.7000  220.8296 H   0  0  0  0  0  0  0  0  0  0  0  0
  140.1234   80.1300  222.8774 H   0  0  0  0  0  0  0  0  0  0  0  0
  139.7539   77.7916  223.5692 H   0  0  0  0  0  0  0  0  0  0  0  0
  1  2  1  0
  2  3  1  0
  2  4  1  0
  4  5  1  0
  5  6  1  0
  6  7  1  0
  6  8  1  0
  8  9  1  0
  9 10  1  0
 10 11  2  0
 10 12  1  0
 12 13  1  0
 13 14  1  0
 14 15  2  0
 14 16  1  0
 16 17  2  0
 17 18  1  0
 18 19  2  0
 19 20  1  0
 20 21  2  0
 21 22  1  0
 22 23  2  0
 23 24  1  0
 24 25  2  0
  9  4  1  0
 25 16  1  0
 24 19  1  0
  1 26  1  0
  1 27  1  0
  1 28  1  0
  2 29  1  0
  3 30  1  0
  3 31  1  0
  3 32  1  0
  4 33  1  6
  5 34  1  0
  5 35  1  0
  6 36  1  6
  7 37  1  0
  8 38  1  0
  8 39  1  0
 12 40  1  0
 12 41  1  0
 13 42  1  0
 17 43  1  0
 18 44  1  0
 20 45  1  0
 21 46  1  0
 22 47  1  0
 23 48  1  0
M  END
>  <smiles>  (32) 
CC(C)[C@H]1C[C@@H](O)CN1C(=O)CNC(=O)c1ccc2ccccc2n1

>  <score_type>  (32) 
oracle

>  <origin>  (32) 
autodockgpu

>  <m_score__min__energy>  (32) 
-8.1199999999999992

>  <m_primary>  (32) 
energy

>  <rmsd>  (32) 
8.600860446108424

>  <m_score__min__rmsd>  (32) 
8.600860446108424

>  <meeko>  (32) 
{"free_energy": -8.08, "intermolecular_energy": -9.87, "internal_energy": -1.29, "cluster_size": 22, "cluster_id": 1, "rank_in_cluster": 7}

>  <energy>  (32) 
-7.89

>  <cluster_rmsd>  (32) 
0.26

>  <cluster>  (32) 
3

$$$$

     RDKit          3D

 48 50  0  0  0  0  0  0  0  0999 V2000
  142.9370   77.4880  217.3430 C   0  0  0  0  0  0  0  0  0  0  0  0
  142.8770   77.0400  218.7910 C   0  0  0  0  0  0  0  0  0  0  0  0
  141.7330   77.8010  219.4180 C   0  0  0  0  0  0  0  0  0  0  0  0
  142.5430   75.5590  218.8180 C   0  0  1  0  0  0  0  0  0  0  0  0
  143.6280   74.7600  218.1210 C   0  0  0  0  0  0  0  0  0  0  0  0
  144.0610   73.7860  219.1900 C   0  0  1  0  0  0  0  0  0  0  0  0
  145.3620   73.3510  219.0570 O   0  0  0  0  0  0  0  0  0  0  0  0
  143.8900   74.6510  220.4470 C   0  0  0  0  0  0  0  0  0  0  0  0
  142.5040   75.0890  220.2030 N   0  0  0  0  0  0  0  0  0  0  0  0
  141.4080   75.0570  221.1050 C   0  0  0  0  0  0  0  0  0  0  0  0
  141.2730   75.8480  222.0720 O   0  0  0  0  0  0  0  0  0  0  0  0
  140.3630   74.0230  220.8820 C   0  0  0  0  0  0  0  0  0  0  0  0
  139.9690   73.3910  222.1260 N   0  0  0  0  0  0  0  0  0  0  0  0
  140.6470   72.1820  222.4700 C   0  0  0  0  0  0  0  0  0  0  0  0
  141.5270   71.7960  221.6350 O   0  0  0  0  0  0  0  0  0  0  0  0
  140.3510   71.4430  223.6910 C   0  0  0  0  0  0  0  0  0  0  0  0
  139.6260   70.2780  223.5680 C   0  0  0  0  0  0  0  0  0  0  0  0
  139.2810   69.4860  224.6530 C   0  0  0  0  0  0  0  0  0  0  0  0
  139.6940   69.9110  225.8870 C   0  0  0  0  0  0  0  0  0  0  0  0
  139.3630   69.1400  226.9810 C   0  0  0  0  0  0  0  0  0  0  0  0
  139.7570   69.5280  228.2400 C   0  0  0  0  0  0  0  0  0  0  0  0
  140.4800   70.6960  228.3430 C   0  0  0  0  0  0  0  0  0  0  0  0
  140.8140   71.4720  227.2390 C   0  0  0  0  0  0  0  0  0  0  0  0
  140.4150   71.0790  225.9660 C   0  0  0  0  0  0  0  0  0  0  0  0
  140.7410   71.8340  224.9060 N   0  0  0  0  0  0  0  0  0  0  0  0
  143.0829   78.5775  217.3020 H   0  0  0  0  0  0  0  0  0  0  0  0
  143.7760   76.9865  216.8385 H   0  0  0  0  0  0  0  0  0  0  0  0
  141.9956   77.2249  216.8385 H   0  0  0  0  0  0  0  0  0  0  0  0
  143.8256   77.2182  219.3186 H   0  0  0  0  0  0  0  0  0  0  0  0
  141.8137   77.7473  220.5137 H   0  0  0  0  0  0  0  0  0  0  0  0
  141.7735   78.8528  219.0985 H   0  0  0  0  0  0  0  0  0  0  0  0
  140.7786   77.3572  219.0985 H   0  0  0  0  0  0  0  0  0  0  0  0
  141.5732   75.4230  218.3169 H   0  0  0  0  0  0  0  0  0  0  0  0
  143.2295   74.2327  217.2417 H   0  0  0  0  0  0  0  0  0  0  0  0
  144.4505   75.3820  217.7380 H   0  0  0  0  0  0  0  0  0  0  0  0
  143.4874   72.8475  219.1752 H   0  0  0  0  0  0  0  0  0  0  0  0
  145.9110   74.1600  218.9000 H   0  0  0  0  0  0  0  0  0  0  0  0
  143.9855   74.0650  221.3730 H   0  0  0  0  0  0  0  0  0  0  0  0
  144.6323   75.4502  220.5895 H   0  0  0  0  0  0  0  0  0  0  0  0
  139.4812   74.4978  220.4270 H   0  0  0  0  0  0  0  0  0  0  0  0
  140.7772   73.2504  220.2176 H   0  0  0  0  0  0  0  0  0  0  0  0
  139.2420   73.7650  222.7580 H   0  0  0  0  0  0  0  0  0  0  0  0
  139.3064   69.9617  222.5641 H   0  0  0  0  0  0  0  0  0  0  0  0
  138.7022   68.5590  224.5277 H   0  0  0  0  0  0  0  0  0  0  0  0
  138.7838   68.2145  226.8467 H   0  0  0  0  0  0  0  0  0  0  0  0
  139.5052   68.9302  229.1284 H   0  0  0  0  0  0  0  0  0  0  0  0
  140.8064   71.0282  229.3395 H   0  0  0  0  0  0  0  0  0  0  0  0
  141.3940   72.3971  227.3723 H   0  0  0  0  0  0  0  0  0  0  0  0
  1  2  1  0
  2  3  1  0
  2  4  1  0
  4  5  1  0
  5  6  1  0
  6  7  1  0
  6  8  1  0
  8  9  1  0
  9 10  1  0
 10 11  2  0
 10 12  1  0
 12 13  1  0
 13 14  1  0
 14 15  2  0
 14 16  1  0
 16 17  2  0
 17 18  1  0
 18 19  2  0
 19 20  1  0
 20 21  2  0
 21 22  1  0
 22 23  2  0
 23 24  1  0
 24 25  2  0
  9  4  1  0
 25 16  1  0
 24 19  1  0
  1 26  1  0
  1 27  1  0
  1 28  1  0
  2 29  1  0
  3 30  1  0
  3 31  1  0
  3 32  1  0
  4 33  1  6
  5 34  1  0
  5 35  1  0
  6 36  1  1
  7 37  1  0
  8 38  1  0
  8 39  1  0
 12 40  1  0
 12 41  1  0
 13 42  1  0
 17 43  1  0
 18 44  1  0
 20 45  1  0
 21 46  1  0
 22 47  1  0
 23 48  1  0
M  END
>  <smiles>  (33) 
CC(C)[C@H]1C[C@@H](O)CN1C(=O)CNC(=O)c1ccc2ccccc2n1

>  <score_type>  (33) 
oracle

>  <origin>  (33) 
autodockgpu

>  <m_score__min__energy>  (33) 
-8.1199999999999992

>  <m_primary>  (33) 
energy

>  <rmsd>  (33) 
2.7900931502784894

>  <m_score__min__rmsd>  (33) 
2.7900931502784894

>  <meeko>  (33) 
{"free_energy": -7.49, "intermolecular_energy": -9.28, "internal_energy": -1.13, "cluster_size": 6, "cluster_id": 4, "rank_in_cluster": 3}

>  <energy>  (33) 
-7.78

>  <cluster_rmsd>  (33) 
0.4

>  <cluster>  (33) 
3

$$$$

     RDKit          3D

 48 50  0  0  0  0  0  0  0  0999 V2000
  142.5640   79.4360  222.6660 C   0  0  0  0  0  0  0  0  0  0  0  0
  141.3610   78.5660  222.9760 C   0  0  0  0  0  0  0  0  0  0  0  0
  140.4380   79.4120  223.8190 C   0  0  0  0  0  0  0  0  0  0  0  0
  140.6590   78.2410  221.6690 C   0  0  1  0  0  0  0  0  0  0  0  0
  141.4570   78.7750  220.4950 C   0  0  0  0  0  0  0  0  0  0  0  0
  141.6900   77.5370  219.6610 C   0  0  1  0  0  0  0  0  0  0  0  0
  142.8240   77.5920  218.8810 O   0  0  0  0  0  0  0  0  0  0  0  0
  141.8240   76.4760  220.7630 C   0  0  0  0  0  0  0  0  0  0  0  0
  140.5860   76.7910  221.4980 N   0  0  0  0  0  0  0  0  0  0  0  0
  139.5750   75.8900  221.9290 C   0  0  0  0  0  0  0  0  0  0  0  0
  139.7920   74.6930  222.2430 O   0  0  0  0  0  0  0  0  0  0  0  0
  138.1840   76.4050  222.0100 C   0  0  0  0  0  0  0  0  0  0  0  0
  137.3640   75.5810  222.8770 N   0  0  0  0  0  0  0  0  0  0  0  0
  136.2020   76.1990  223.4330 C   0  0  0  0  0  0  0  0  0  0  0  0
  136.0210   77.4140  223.0990 O   0  0  0  0  0  0  0  0  0  0  0  0
  135.2900   75.4880  224.3200 C   0  0  0  0  0  0  0  0  0  0  0  0
  135.2910   74.1120  224.2600 C   0  0  0  0  0  0  0  0  0  0  0  0
  134.4710   73.3220  225.0520 C   0  0  0  0  0  0  0  0  0  0  0  0
  133.6330   73.9720  225.9190 C   0  0  0  0  0  0  0  0  0  0  0  0
  132.8080   73.2070  226.7160 C   0  0  0  0  0  0  0  0  0  0  0  0
  131.9510   73.8170  227.6020 C   0  0  0  0  0  0  0  0  0  0  0  0
  131.9640   75.1940  227.6470 C   0  0  0  0  0  0  0  0  0  0  0  0
  132.7970   75.9630  226.8420 C   0  0  0  0  0  0  0  0  0  0  0  0
  133.6640   75.3460  225.9470 C   0  0  0  0  0  0  0  0  0  0  0  0
  134.4650   76.0960  225.1740 N   0  0  0  0  0  0  0  0  0  0  0  0
  143.0266   79.7705  223.6063 H   0  0  0  0  0  0  0  0  0  0  0  0
  143.2953   78.8564  222.0835 H   0  0  0  0  0  0  0  0  0  0  0  0
  142.2426   80.3120  222.0835 H   0  0  0  0  0  0  0  0  0  0  0  0
  141.6448   77.6350  223.4885 H   0  0  0  0  0  0  0  0  0  0  0  0
  140.6408   79.2261  224.8841 H   0  0  0  0  0  0  0  0  0  0  0  0
  140.6072   80.4753  223.5937 H   0  0  0  0  0  0  0  0  0  0  0  0
  139.3934   79.1511  223.5937 H   0  0  0  0  0  0  0  0  0  0  0  0
  139.6577   78.6953  221.7015 H   0  0  0  0  0  0  0  0  0  0  0  0
  140.8832   79.5282  219.9351 H   0  0  0  0  0  0  0  0  0  0  0  0
  142.3867   79.2815  220.7935 H   0  0  0  0  0  0  0  0  0  0  0  0
  140.8950   77.3600  218.9216 H   0  0  0  0  0  0  0  0  0  0  0  0
  143.5710   77.8170  219.4910 H   0  0  0  0  0  0  0  0  0  0  0  0
  141.8207   75.4527  220.3595 H   0  0  0  0  0  0  0  0  0  0  0  0
  142.7546   76.5016  221.3490 H   0  0  0  0  0  0  0  0  0  0  0  0
  138.2048   77.4310  222.4062 H   0  0  0  0  0  0  0  0  0  0  0  0
  137.7483   76.3851  221.0002 H   0  0  0  0  0  0  0  0  0  0  0  0
  137.5730   74.5950  223.1040 H   0  0  0  0  0  0  0  0  0  0  0  0
  135.9726   73.6175  223.5523 H   0  0  0  0  0  0  0  0  0  0  0  0
  134.4926   72.2241  224.9869 H   0  0  0  0  0  0  0  0  0  0  0  0
  132.8352   72.1097  226.6433 H   0  0  0  0  0  0  0  0  0  0  0  0
  131.2824   73.2295  228.2484 H   0  0  0  0  0  0  0  0  0  0  0  0
  131.2881   75.7056  228.3480 H   0  0  0  0  0  0  0  0  0  0  0  0
  132.7701   77.0604  226.9132 H   0  0  0  0  0  0  0  0  0  0  0  0
  1  2  1  0
  2  3  1  0
  2  4  1  0
  4  5  1  0
  5  6  1  0
  6  7  1  0
  6  8  1  0
  8  9  1  0
  9 10  1  0
 10 11  2  0
 10 12  1  0
 12 13  1  0
 13 14  1  0
 14 15  2  0
 14 16  1  0
 16 17  2  0
 17 18  1  0
 18 19  2  0
 19 20  1  0
 20 21  2  0
 21 22  1  0
 22 23  2  0
 23 24  1  0
 24 25  2  0
  9  4  1  0
 25 16  1  0
 24 19  1  0
  1 26  1  0
  1 27  1  0
  1 28  1  0
  2 29  1  0
  3 30  1  0
  3 31  1  0
  3 32  1  0
  4 33  1  1
  5 34  1  0
  5 35  1  0
  6 36  1  6
  7 37  1  0
  8 38  1  0
  8 39  1  0
 12 40  1  0
 12 41  1  0
 13 42  1  0
 17 43  1  0
 18 44  1  0
 20 45  1  0
 21 46  1  0
 22 47  1  0
 23 48  1  0
M  END
>  <smiles>  (34) 
CC(C)[C@H]1C[C@@H](O)CN1C(=O)CNC(=O)c1ccc2ccccc2n1

>  <score_type>  (34) 
oracle

>  <origin>  (34) 
autodockgpu

>  <m_score__min__energy>  (34) 
-8.1199999999999992

>  <m_primary>  (34) 
energy

>  <rmsd>  (34) 
5.961948413331155

>  <m_score__min__rmsd>  (34) 
5.961948413331155

>  <meeko>  (34) 
{"free_energy": -6.8, "intermolecular_energy": -8.59, "internal_energy": -1.36, "cluster_size": 1, "cluster_id": 5, "rank_in_cluster": 1}

>  <energy>  (34) 
-7.72

>  <cluster_rmsd>  (34) 
0.65

>  <cluster>  (34) 
3

$$$$

     RDKit          3D

 48 50  0  0  0  0  0  0  0  0999 V2000
  141.0610   67.7740  226.5080 C   0  0  0  0  0  0  0  0  0  0  0  0
  140.3550   68.3200  227.7350 C   0  0  0  0  0  0  0  0  0  0  0  0
  141.4410   68.6470  228.7310 C   0  0  0  0  0  0  0  0  0  0  0  0
  139.6530   69.6090  227.3460 C   0  0  1  0  0  0  0  0  0  0  0  0
  140.3260   70.7960  228.0080 C   0  0  0  0  0  0  0  0  0  0  0  0
  140.6910   71.6700  226.8320 C   0  0  1  0  0  0  0  0  0  0  0  0
  141.7760   72.4880  227.0570 O   0  0  0  0  0  0  0  0  0  0  0  0
  141.0100   70.6020  225.7750 C   0  0  0  0  0  0  0  0  0  0  0  0
  139.7700   69.8150  225.9030 N   0  0  0  0  0  0  0  0  0  0  0  0
  138.9070   69.3730  224.8650 C   0  0  0  0  0  0  0  0  0  0  0  0
  138.8260   68.1790  224.4830 O   0  0  0  0  0  0  0  0  0  0  0  0
  138.0540   70.3910  224.1990 C   0  0  0  0  0  0  0  0  0  0  0  0
  138.8460   71.4870  223.6750 N   0  0  0  0  0  0  0  0  0  0  0  0
  139.6750   71.1940  222.5500 C   0  0  0  0  0  0  0  0  0  0  0  0
  139.6210   69.9920  222.1330 O   0  0  0  0  0  0  0  0  0  0  0  0
  140.5220   72.2010  221.9230 C   0  0  0  0  0  0  0  0  0  0  0  0
  141.6400   71.7590  221.2500 C   0  0  0  0  0  0  0  0  0  0  0  0
  142.5240   72.6180  220.6120 C   0  0  0  0  0  0  0  0  0  0  0  0
  142.2430   73.9560  220.6740 C   0  0  0  0  0  0  0  0  0  0  0  0
  143.1070   74.8280  220.0480 C   0  0  0  0  0  0  0  0  0  0  0  0
  142.8650   76.1820  220.0840 C   0  0  0  0  0  0  0  0  0  0  0  0
  141.7420   76.6030  220.7630 C   0  0  0  0  0  0  0  0  0  0  0  0
  140.8720   75.7230  221.3940 C   0  0  0  0  0  0  0  0  0  0  0  0
  141.1170   74.3540  221.3560 C   0  0  0  0  0  0  0  0  0  0  0  0
  140.2720   73.5110  221.9680 N   0  0  0  0  0  0  0  0  0  0  0  0
  141.8951   67.1290  226.8215 H   0  0  0  0  0  0  0  0  0  0  0  0
  140.3505   67.1881  225.9064 H   0  0  0  0  0  0  0  0  0  0  0  0
  141.4494   68.6091  225.9064 H   0  0  0  0  0  0  0  0  0  0  0  0
  139.6246   67.6066  228.1444 H   0  0  0  0  0  0  0  0  0  0  0  0
  141.0495   68.5291  229.7522 H   0  0  0  0  0  0  0  0  0  0  0  0
  142.2914   67.9651  228.5833 H   0  0  0  0  0  0  0  0  0  0  0  0
  141.7735   69.6851  228.5833 H   0  0  0  0  0  0  0  0  0  0  0  0
  138.6016   69.5294  227.6596 H   0  0  0  0  0  0  0  0  0  0  0  0
  139.6349   71.3150  228.6884 H   0  0  0  0  0  0  0  0  0  0  0  0
  141.1901   70.5171  228.6290 H   0  0  0  0  0  0  0  0  0  0  0  0
  139.8988   72.3849  226.5650 H   0  0  0  0  0  0  0  0  0  0  0  0
  142.5060   72.1480  226.4820 H   0  0  0  0  0  0  0  0  0  0  0  0
  141.1291   71.0324  224.7697 H   0  0  0  0  0  0  0  0  0  0  0  0
  141.9508   70.0492  225.9140 H   0  0  0  0  0  0  0  0  0  0  0  0
  137.5101   69.9147  223.3700 H   0  0  0  0  0  0  0  0  0  0  0  0
  137.3542   70.7963  224.9446 H   0  0  0  0  0  0  0  0  0  0  0  0
  138.8380   72.4430  224.0660 H   0  0  0  0  0  0  0  0  0  0  0  0
  141.8408   70.6780  221.2169 H   0  0  0  0  0  0  0  0  0  0  0  0
  143.4101   72.2405  220.0807 H   0  0  0  0  0  0  0  0  0  0  0  0
  143.9907   74.4414  219.5192 H   0  0  0  0  0  0  0  0  0  0  0  0
  143.5393   76.8982  219.5917 H   0  0  0  0  0  0  0  0  0  0  0  0
  141.5257   77.6806  220.8071 H   0  0  0  0  0  0  0  0  0  0  0  0
  139.9887   76.1088  221.9241 H   0  0  0  0  0  0  0  0  0  0  0  0
  1  2  1  0
  2  3  1  0
  2  4  1  0
  4  5  1  0
  5  6  1  0
  6  7  1  0
  6  8  1  0
  8  9  1  0
  9 10  1  0
 10 11  2  0
 10 12  1  0
 12 13  1  0
 13 14  1  0
 14 15  2  0
 14 16  1  0
 16 17  2  0
 17 18  1  0
 18 19  2  0
 19 20  1  0
 20 21  2  0
 21 22  1  0
 22 23  2  0
 23 24  1  0
 24 25  2  0
  9  4  1  0
 25 16  1  0
 24 19  1  0
  1 26  1  0
  1 27  1  0
  1 28  1  0
  2 29  1  0
  3 30  1  0
  3 31  1  0
  3 32  1  0
  4 33  1  6
  5 34  1  0
  5 35  1  0
  6 36  1  6
  7 37  1  0
  8 38  1  0
  8 39  1  0
 12 40  1  0
 12 41  1  0
 13 42  1  0
 17 43  1  0
 18 44  1  0
 20 45  1  0
 21 46  1  0
 22 47  1  0
 23 48  1  0
M  END
>  <smiles>  (35) 
CC(C)[C@H]1C[C@@H](O)CN1C(=O)CNC(=O)c1ccc2ccccc2n1

>  <score_type>  (35) 
oracle

>  <origin>  (35) 
autodockgpu

>  <m_score__min__energy>  (35) 
-8.1199999999999992

>  <m_primary>  (35) 
energy

>  <rmsd>  (35) 
8.001123036828147

>  <m_score__min__rmsd>  (35) 
8.001123036828147

>  <meeko>  (35) 
{"free_energy": -7.56, "intermolecular_energy": -9.35, "internal_energy": -1.08, "cluster_size": 22, "cluster_id": 1, "rank_in_cluster": 18}

>  <energy>  (35) 
-7.53

>  <cluster_rmsd>  (35) 
1.09

>  <cluster>  (35) 
3

$$$$

     RDKit          3D

 48 50  0  0  0  0  0  0  0  0999 V2000
  144.4340   73.4770  218.9970 C   0  0  0  0  0  0  0  0  0  0  0  0
  143.0650   73.5040  219.6490 C   0  0  0  0  0  0  0  0  0  0  0  0
  143.0350   72.3390  220.6090 C   0  0  0  0  0  0  0  0  0  0  0  0
  142.9420   74.7900  220.4470 C   0  0  1  0  0  0  0  0  0  0  0  0
  143.7090   75.9080  219.7660 C   0  0  0  0  0  0  0  0  0  0  0  0
  142.6480   76.9630  219.5650 C   0  0  1  0  0  0  0  0  0  0  0  0
  142.8900   77.8050  218.5020 O   0  0  0  0  0  0  0  0  0  0  0  0
  141.4180   76.0820  219.3060 C   0  0  0  0  0  0  0  0  0  0  0  0
  141.5420   75.2100  220.4880 N   0  0  0  0  0  0  0  0  0  0  0  0
  140.5360   74.8710  221.4310 C   0  0  0  0  0  0  0  0  0  0  0  0
  140.1350   75.6450  222.3360 O   0  0  0  0  0  0  0  0  0  0  0  0
  139.9260   73.5190  221.3320 C   0  0  0  0  0  0  0  0  0  0  0  0
  139.8720   72.8650  222.6240 N   0  0  0  0  0  0  0  0  0  0  0  0
  140.0330   71.4460  222.6280 C   0  0  0  0  0  0  0  0  0  0  0  0
  140.2060   70.9160  221.4840 O   0  0  0  0  0  0  0  0  0  0  0  0
  140.0020   70.6620  223.8570 C   0  0  0  0  0  0  0  0  0  0  0  0
  139.3400   69.4540  223.8210 C   0  0  0  0  0  0  0  0  0  0  0  0
  139.2400   68.6160  224.9220 C   0  0  0  0  0  0  0  0  0  0  0  0
  139.8350   69.0400  226.0800 C   0  0  0  0  0  0  0  0  0  0  0  0
  139.7480   68.2240  227.1880 C   0  0  0  0  0  0  0  0  0  0  0  0
  140.3310   68.6090  228.3720 C   0  0  0  0  0  0  0  0  0  0  0  0
  140.9870   69.8200  228.3880 C   0  0  0  0  0  0  0  0  0  0  0  0
  141.0740   70.6420  227.2700 C   0  0  0  0  0  0  0  0  0  0  0  0
  140.4850   70.2520  226.0720 C   0  0  0  0  0  0  0  0  0  0  0  0
  140.5730   71.0510  224.9980 N   0  0  0  0  0  0  0  0  0  0  0  0
  145.2108   73.4617  219.7757 H   0  0  0  0  0  0  0  0  0  0  0  0
  144.5244   72.5769  218.3712 H   0  0  0  0  0  0  0  0  0  0  0  0
  144.5598   74.3728  218.3712 H   0  0  0  0  0  0  0  0  0  0  0  0
  142.2535   73.4458  218.9087 H   0  0  0  0  0  0  0  0  0  0  0  0
  143.0447   72.7153  221.6426 H   0  0  0  0  0  0  0  0  0  0  0  0
  142.1214   71.7496  220.4419 H   0  0  0  0  0  0  0  0  0  0  0  0
  143.9171   71.7034  220.4419 H   0  0  0  0  0  0  0  0  0  0  0  0
  143.3375   74.6011  221.4559 H   0  0  0  0  0  0  0  0  0  0  0  0
  144.5216   76.2797  220.4075 H   0  0  0  0  0  0  0  0  0  0  0  0
  144.1974   75.5961  218.8310 H   0  0  0  0  0  0  0  0  0  0  0  0
  142.5669   77.6583  220.4135 H   0  0  0  0  0  0  0  0  0  0  0  0
  143.7350   78.2780  218.7080 H   0  0  0  0  0  0  0  0  0  0  0  0
  140.4822   76.6602  219.3104 H   0  0  0  0  0  0  0  0  0  0  0  0
  141.3832   75.5738  218.3311 H   0  0  0  0  0  0  0  0  0  0  0  0
  138.9038   73.6161  220.9375 H   0  0  0  0  0  0  0  0  0  0  0  0
  140.5481   72.9079  220.6615 H   0  0  0  0  0  0  0  0  0  0  0  0
  139.7290   73.3630  223.5180 H   0  0  0  0  0  0  0  0  0  0  0  0
  138.8699   69.1402  222.8773 H   0  0  0  0  0  0  0  0  0  0  0  0
  138.7073   67.6552  224.8672 H   0  0  0  0  0  0  0  0  0  0  0  0
  139.2123   67.2653  227.1246 H   0  0  0  0  0  0  0  0  0  0  0  0
  140.2758   67.9758  229.2698 H   0  0  0  0  0  0  0  0  0  0  0  0
  141.4616   70.1504  229.3237 H   0  0  0  0  0  0  0  0  0  0  0  0
  141.6089   71.6011  227.3331 H   0  0  0  0  0  0  0  0  0  0  0  0
  1  2  1  0
  2  3  1  0
  2  4  1  0
  4  5  1  0
  5  6  1  0
  6  7  1  0
  6  8  1  0
  8  9  1  0
  9 10  1  0
 10 11  2  0
 10 12  1  0
 12 13  1  0
 13 14  1  0
 14 15  2  0
 14 16  1  0
 16 17  2  0
 17 18  1  0
 18 19  2  0
 19 20  1  0
 20 21  2  0
 21 22  1  0
 22 23  2  0
 23 24  1  0
 24 25  2  0
  9  4  1  0
 25 16  1  0
 24 19  1  0
  1 26  1  0
  1 27  1  0
  1 28  1  0
  2 29  1  0
  3 30  1  0
  3 31  1  0
  3 32  1  0
  4 33  1  1
  5 34  1  0
  5 35  1  0
  6 36  1  1
  7 37  1  0
  8 38  1  0
  8 39  1  0
 12 40  1  0
 12 41  1  0
 13 42  1  0
 17 43  1  0
 18 44  1  0
 20 45  1  0
 21 46  1  0
 22 47  1  0
 23 48  1  0
M  END
>  <smiles>  (36) 
CC(C)[C@H]1C[C@@H](O)CN1C(=O)CNC(=O)c1ccc2ccccc2n1

>  <score_type>  (36) 
oracle

>  <origin>  (36) 
autodockgpu

>  <m_score__min__energy>  (36) 
-8.1199999999999992

>  <m_primary>  (36) 
energy

>  <rmsd>  (36) 
2.2673229926708105

>  <m_score__min__rmsd>  (36) 
2.2673229926708105

>  <meeko>  (36) 
{"free_energy": -7.2, "intermolecular_energy": -8.99, "internal_energy": -1.39, "cluster_size": 14, "cluster_id": 3, "rank_in_cluster": 13}

>  <energy>  (36) 
-7.45

>  <cluster_rmsd>  (36) 
0.73

>  <cluster>  (36) 
3

$$$$

     RDKit          3D

 48 50  0  0  0  0  0  0  0  0999 V2000
  140.4200   70.5670  228.2340 C   0  0  0  0  0  0  0  0  0  0  0  0
  140.3390   71.2910  226.9040 C   0  0  0  0  0  0  0  0  0  0  0  0
  141.5120   72.2400  226.8720 C   0  0  0  0  0  0  0  0  0  0  0  0
  140.5140   70.2690  225.7940 C   0  0  1  0  0  0  0  0  0  0  0  0
  140.7120   68.8840  226.3790 C   0  0  0  0  0  0  0  0  0  0  0  0
  139.5990   68.0910  225.7370 C   0  0  1  0  0  0  0  0  0  0  0  0
  139.1810   67.0090  226.4810 O   0  0  0  0  0  0  0  0  0  0  0  0
  138.5020   69.1620  225.6490 C   0  0  0  0  0  0  0  0  0  0  0  0
  139.2980   70.2100  224.9850 N   0  0  0  0  0  0  0  0  0  0  0  0
  138.9520   70.9700  223.8350 C   0  0  0  0  0  0  0  0  0  0  0  0
  137.7780   71.3210  223.5560 O   0  0  0  0  0  0  0  0  0  0  0  0
  140.0490   71.3680  222.9170 C   0  0  0  0  0  0  0  0  0  0  0  0
  140.0950   72.8060  222.7370 N   0  0  0  0  0  0  0  0  0  0  0  0
  141.0380   73.3010  221.7850 C   0  0  0  0  0  0  0  0  0  0  0  0
  141.7360   72.4110  221.2000 O   0  0  0  0  0  0  0  0  0  0  0  0
  141.1890   74.7230  221.5050 C   0  0  0  0  0  0  0  0  0  0  0  0
  141.9260   75.0760  220.3960 C   0  0  0  0  0  0  0  0  0  0  0  0
  142.1420   76.3940  220.0220 C   0  0  0  0  0  0  0  0  0  0  0  0
  141.5850   77.3630  220.8140 C   0  0  0  0  0  0  0  0  0  0  0  0
  141.7860   78.6800  220.4630 C   0  0  0  0  0  0  0  0  0  0  0  0
  141.2450   79.6860  221.2290 C   0  0  0  0  0  0  0  0  0  0  0  0
  140.5130   79.3130  222.3340 C   0  0  0  0  0  0  0  0  0  0  0  0
  140.3100   77.9840  222.6870 C   0  0  0  0  0  0  0  0  0  0  0  0
  140.8570   76.9670  221.9120 C   0  0  0  0  0  0  0  0  0  0  0  0
  140.6570   75.6860  222.2590 N   0  0  0  0  0  0  0  0  0  0  0  0
  140.3385   71.2959  229.0538 H   0  0  0  0  0  0  0  0  0  0  0  0
  139.5976   69.8401  228.3065 H   0  0  0  0  0  0  0  0  0  0  0  0
  141.3827   70.0398  228.3065 H   0  0  0  0  0  0  0  0  0  0  0  0
  139.3821   71.8185  226.7775 H   0  0  0  0  0  0  0  0  0  0  0  0
  141.8141   72.4844  227.9011 H   0  0  0  0  0  0  0  0  0  0  0  0
  142.3533   71.7654  226.3458 H   0  0  0  0  0  0  0  0  0  0  0  0
  141.2235   73.1619  226.3458 H   0  0  0  0  0  0  0  0  0  0  0  0
  141.3853   70.5687  225.1932 H   0  0  0  0  0  0  0  0  0  0  0  0
  141.6970   68.4761  226.1083 H   0  0  0  0  0  0  0  0  0  0  0  0
  140.6831   68.8661  227.4785 H   0  0  0  0  0  0  0  0  0  0  0  0
  139.8940   67.6310  224.7824 H   0  0  0  0  0  0  0  0  0  0  0  0
  139.9350   66.7740  227.0780 H   0  0  0  0  0  0  0  0  0  0  0  0
  137.6481   68.8357  225.0371 H   0  0  0  0  0  0  0  0  0  0  0  0
  138.0239   69.4451  226.5984 H   0  0  0  0  0  0  0  0  0  0  0  0
  141.0075   71.0294  223.3373 H   0  0  0  0  0  0  0  0  0  0  0  0
  139.8653   70.9029  221.9372 H   0  0  0  0  0  0  0  0  0  0  0  0
  139.4930   73.4710  223.2500 H   0  0  0  0  0  0  0  0  0  0  0  0
  142.3628   74.2767  219.7794 H   0  0  0  0  0  0  0  0  0  0  0  0
  142.7334   76.6494  219.1304 H   0  0  0  0  0  0  0  0  0  0  0  0
  142.3791   78.9269  219.5701 H   0  0  0  0  0  0  0  0  0  0  0  0
  141.3910   80.7450  220.9696 H   0  0  0  0  0  0  0  0  0  0  0  0
  140.0706   80.0992  222.9634 H   0  0  0  0  0  0  0  0  0  0  0  0
  139.7166   77.7366  223.5795 H   0  0  0  0  0  0  0  0  0  0  0  0
  1  2  1  0
  2  3  1  0
  2  4  1  0
  4  5  1  0
  5  6  1  0
  6  7  1  0
  6  8  1  0
  8  9  1  0
  9 10  1  0
 10 11  2  0
 10 12  1  0
 12 13  1  0
 13 14  1  0
 14 15  2  0
 14 16  1  0
 16 17  2  0
 17 18  1  0
 18 19  2  0
 19 20  1  0
 20 21  2  0
 21 22  1  0
 22 23  2  0
 23 24  1  0
 24 25  2  0
  9  4  1  0
 25 16  1  0
 24 19  1  0
  1 26  1  0
  1 27  1  0
  1 28  1  0
  2 29  1  0
  3 30  1  0
  3 31  1  0
  3 32  1  0
  4 33  1  6
  5 34  1  0
  5 35  1  0
  6 36  1  6
  7 37  1  0
  8 38  1  0
  8 39  1  0
 12 40  1  0
 12 41  1  0
 13 42  1  0
 17 43  1  0
 18 44  1  0
 20 45  1  0
 21 46  1  0
 22 47  1  0
 23 48  1  0
M  END
>  <smiles>  (37) 
CC(C)[C@H]1C[C@@H](O)CN1C(=O)CNC(=O)c1ccc2ccccc2n1

>  <score_type>  (37) 
oracle

>  <origin>  (37) 
autodockgpu

>  <m_score__min__energy>  (37) 
-8.1199999999999992

>  <m_primary>  (37) 
energy

>  <rmsd>  (37) 
8.610483232102737

>  <m_score__min__rmsd>  (37) 
8.610483232102737

>  <meeko>  (37) 
{"free_energy": -8.02, "intermolecular_energy": -9.81, "internal_energy": -1.26, "cluster_size": 22, "cluster_id": 1, "rank_in_cluster": 11}

>  <energy>  (37) 
-7.33

>  <cluster_rmsd>  (37) 
0.47

>  <cluster>  (37) 
3

$$$$

     RDKit          3D

 48 50  0  0  0  0  0  0  0  0999 V2000
  142.6000   79.4820  222.6640 C   0  0  0  0  0  0  0  0  0  0  0  0
  141.3950   78.5900  222.8890 C   0  0  0  0  0  0  0  0  0  0  0  0
  140.4580   79.3680  223.7810 C   0  0  0  0  0  0  0  0  0  0  0  0
  140.7110   78.3650  221.5520 C   0  0  1  0  0  0  0  0  0  0  0  0
  141.5410   78.9580  220.4290 C   0  0  0  0  0  0  0  0  0  0  0  0
  141.7660   77.7730  219.5210 C   0  0  1  0  0  0  0  0  0  0  0  0
  142.9160   77.8560  218.7660 O   0  0  0  0  0  0  0  0  0  0  0  0
  141.8590   76.6390  220.5530 C   0  0  0  0  0  0  0  0  0  0  0  0
  140.6140   76.9310  221.2850 N   0  0  0  0  0  0  0  0  0  0  0  0
  139.5780   76.0250  221.6380 C   0  0  0  0  0  0  0  0  0  0  0  0
  138.5390   76.3570  222.2610 O   0  0  0  0  0  0  0  0  0  0  0  0
  139.7420   74.6030  221.2400 C   0  0  0  0  0  0  0  0  0  0  0  0
  139.4710   73.7080  222.3470 N   0  0  0  0  0  0  0  0  0  0  0  0
  140.4030   72.6450  222.5520 C   0  0  0  0  0  0  0  0  0  0  0  0
  141.3730   72.6070  221.7290 O   0  0  0  0  0  0  0  0  0  0  0  0
  140.2520   71.6730  223.6280 C   0  0  0  0  0  0  0  0  0  0  0  0
  139.6080   70.4920  223.3300 C   0  0  0  0  0  0  0  0  0  0  0  0
  139.4030   69.4880  224.2650 C   0  0  0  0  0  0  0  0  0  0  0  0
  139.8740   69.7140  225.5310 C   0  0  0  0  0  0  0  0  0  0  0  0
  139.6820   68.7310  226.4780 C   0  0  0  0  0  0  0  0  0  0  0  0
  140.1380   68.9150  227.7620 C   0  0  0  0  0  0  0  0  0  0  0  0
  140.7780   70.1020  228.0410 C   0  0  0  0  0  0  0  0  0  0  0  0
  140.9720   71.0930  227.0850 C   0  0  0  0  0  0  0  0  0  0  0  0
  140.5110   70.9060  225.7860 C   0  0  0  0  0  0  0  0  0  0  0  0
  140.7010   71.8680  224.8690 N   0  0  0  0  0  0  0  0  0  0  0  0
  143.0152   79.7893  223.6352 H   0  0  0  0  0  0  0  0  0  0  0  0
  143.3640   78.9301  222.0968 H   0  0  0  0  0  0  0  0  0  0  0  0
  142.2952   80.3738  222.0968 H   0  0  0  0  0  0  0  0  0  0  0  0
  141.6746   77.6229  223.3323 H   0  0  0  0  0  0  0  0  0  0  0  0
  140.7019   79.1655  224.8343 H   0  0  0  0  0  0  0  0  0  0  0  0
  140.5684   80.4437  223.5793 H   0  0  0  0  0  0  0  0  0  0  0  0
  139.4209   79.0617  223.5793 H   0  0  0  0  0  0  0  0  0  0  0  0
  139.7181   78.8362  221.5972 H   0  0  0  0  0  0  0  0  0  0  0  0
  140.9920   79.7572  219.9095 H   0  0  0  0  0  0  0  0  0  0  0  0
  142.4743   79.4254  220.7760 H   0  0  0  0  0  0  0  0  0  0  0  0
  140.9816   77.6606  218.7581 H   0  0  0  0  0  0  0  0  0  0  0  0
  143.6690   77.8830  219.4080 H   0  0  0  0  0  0  0  0  0  0  0  0
  141.8433   75.6446  220.0829 H   0  0  0  0  0  0  0  0  0  0  0  0
  142.7788   76.6066  221.1554 H   0  0  0  0  0  0  0  0  0  0  0  0
  139.0445   74.3785  220.4196 H   0  0  0  0  0  0  0  0  0  0  0  0
  140.7836   74.4516  220.9202 H   0  0  0  0  0  0  0  0  0  0  0  0
  138.6580   73.8000  222.9790 H   0  0  0  0  0  0  0  0  0  0  0  0
  139.2400   70.3384  222.3048 H   0  0  0  0  0  0  0  0  0  0  0  0
  138.8860   68.5534  224.0017 H   0  0  0  0  0  0  0  0  0  0  0  0
  139.1640   67.7994  226.2065 H   0  0  0  0  0  0  0  0  0  0  0  0
  139.9973   68.1452  228.5351 H   0  0  0  0  0  0  0  0  0  0  0  0
  141.1509   70.2732  229.0616 H   0  0  0  0  0  0  0  0  0  0  0  0
  141.4900   72.0248  227.3560 H   0  0  0  0  0  0  0  0  0  0  0  0
  1  2  1  0
  2  3  1  0
  2  4  1  0
  4  5  1  0
  5  6  1  0
  6  7  1  0
  6  8  1  0
  8  9  1  0
  9 10  1  0
 10 11  2  0
 10 12  1  0
 12 13  1  0
 13 14  1  0
 14 15  2  0
 14 16  1  0
 16 17  2  0
 17 18  1  0
 18 19  2  0
 19 20  1  0
 20 21  2  0
 21 22  1  0
 22 23  2  0
 23 24  1  0
 24 25  2  0
  9  4  1  0
 25 16  1  0
 24 19  1  0
  1 26  1  0
  1 27  1  0
  1 28  1  0
  2 29  1  0
  3 30  1  0
  3 31  1  0
  3 32  1  0
  4 33  1  1
  5 34  1  0
  5 35  1  0
  6 36  1  6
  7 37  1  0
  8 38  1  0
  8 39  1  0
 12 40  1  0
 12 41  1  0
 13 42  1  0
 17 43  1  0
 18 44  1  0
 20 45  1  0
 21 46  1  0
 22 47  1  0
 23 48  1  0
M  END
>  <smiles>  (38) 
CC(C)[C@H]1C[C@@H](O)CN1C(=O)CNC(=O)c1ccc2ccccc2n1

>  <score_type>  (38) 
oracle

>  <origin>  (38) 
autodockgpu

>  <m_score__min__energy>  (38) 
-8.1199999999999992

>  <m_primary>  (38) 
energy

>  <rmsd>  (38) 
2.249492727834047

>  <m_score__min__rmsd>  (38) 
2.249492727834047

>  <meeko>  (38) 
{"free_energy": -7.96, "intermolecular_energy": -9.75, "internal_energy": -1.15, "cluster_size": 14, "cluster_id": 3, "rank_in_cluster": 2}

>  <energy>  (38) 
-7.29

>  <cluster_rmsd>  (38) 
1.27

>  <cluster>  (38) 
3

$$$$

     RDKit          3D

 48 50  0  0  0  0  0  0  0  0999 V2000
  142.5530   79.4910  222.6490 C   0  0  0  0  0  0  0  0  0  0  0  0
  141.3650   78.5800  222.8930 C   0  0  0  0  0  0  0  0  0  0  0  0
  140.4090   79.3620  223.7610 C   0  0  0  0  0  0  0  0  0  0  0  0
  140.6920   78.3070  221.5600 C   0  0  1  0  0  0  0  0  0  0  0  0
  141.5330   78.8560  220.4230 C   0  0  0  0  0  0  0  0  0  0  0  0
  141.7620   77.6360  219.5610 C   0  0  1  0  0  0  0  0  0  0  0  0
  142.9180   77.6880  218.8140 O   0  0  0  0  0  0  0  0  0  0  0  0
  141.8440   76.5420  220.6360 C   0  0  0  0  0  0  0  0  0  0  0  0
  140.5930   76.8640  221.3460 N   0  0  0  0  0  0  0  0  0  0  0  0
  139.5520   75.9750  221.7240 C   0  0  0  0  0  0  0  0  0  0  0  0
  138.5610   76.3110  222.4200 O   0  0  0  0  0  0  0  0  0  0  0  0
  139.6490   74.5650  221.2630 C   0  0  0  0  0  0  0  0  0  0  0  0
  139.3810   73.6350  222.3420 N   0  0  0  0  0  0  0  0  0  0  0  0
  140.3750   72.6390  222.5870 C   0  0  0  0  0  0  0  0  0  0  0  0
  141.3910   72.6850  221.8220 O   0  0  0  0  0  0  0  0  0  0  0  0
  140.2350   71.6410  223.6400 C   0  0  0  0  0  0  0  0  0  0  0  0
  139.5800   70.4710  223.3230 C   0  0  0  0  0  0  0  0  0  0  0  0
  139.3830   69.4460  224.2350 C   0  0  0  0  0  0  0  0  0  0  0  0
  139.8730   69.6380  225.5000 C   0  0  0  0  0  0  0  0  0  0  0  0
  139.6880   68.6320  226.4240 C   0  0  0  0  0  0  0  0  0  0  0  0
  140.1640   68.7810  227.7060 C   0  0  0  0  0  0  0  0  0  0  0  0
  140.8150   69.9580  228.0050 C   0  0  0  0  0  0  0  0  0  0  0  0
  141.0000   70.9710  227.0710 C   0  0  0  0  0  0  0  0  0  0  0  0
  140.5190   70.8200  225.7750 C   0  0  0  0  0  0  0  0  0  0  0  0
  140.7020   71.8020  224.8800 N   0  0  0  0  0  0  0  0  0  0  0  0
  142.9726   79.8127  223.6136 H   0  0  0  0  0  0  0  0  0  0  0  0
  143.3205   78.9477  222.0782 H   0  0  0  0  0  0  0  0  0  0  0  0
  142.2274   80.3732  222.0782 H   0  0  0  0  0  0  0  0  0  0  0  0
  141.6618   77.6305  223.3623 H   0  0  0  0  0  0  0  0  0  0  0  0
  140.6384   79.1744  224.8203 H   0  0  0  0  0  0  0  0  0  0  0  0
  140.5147   80.4359  223.5476 H   0  0  0  0  0  0  0  0  0  0  0  0
  139.3774   79.0455  223.5476 H   0  0  0  0  0  0  0  0  0  0  0  0
  139.7000   78.7819  221.5789 H   0  0  0  0  0  0  0  0  0  0  0  0
  140.9908   79.6368  219.8695 H   0  0  0  0  0  0  0  0  0  0  0  0
  142.4647   79.3338  220.7601 H   0  0  0  0  0  0  0  0  0  0  0  0
  140.9835   77.4965  218.7965 H   0  0  0  0  0  0  0  0  0  0  0  0
  143.6680   77.6740  219.4590 H   0  0  0  0  0  0  0  0  0  0  0  0
  141.8302   75.5305  220.2040 H   0  0  0  0  0  0  0  0  0  0  0  0
  142.7586   76.5309  221.2470 H   0  0  0  0  0  0  0  0  0  0  0  0
  138.9167   74.4004  220.4588 H   0  0  0  0  0  0  0  0  0  0  0  0
  140.6729   74.3892  220.9014 H   0  0  0  0  0  0  0  0  0  0  0  0
  138.5290   73.6580  222.9260 H   0  0  0  0  0  0  0  0  0  0  0  0
  139.1961   70.3447  222.2999 H   0  0  0  0  0  0  0  0  0  0  0  0
  138.8574   68.5209  223.9560 H   0  0  0  0  0  0  0  0  0  0  0  0
  139.1601   67.7108  226.1364 H   0  0  0  0  0  0  0  0  0  0  0  0
  140.0304   67.9928  228.4615 H   0  0  0  0  0  0  0  0  0  0  0  0
  141.2040   70.1019  229.0238 H   0  0  0  0  0  0  0  0  0  0  0  0
  141.5274   71.8929  227.3574 H   0  0  0  0  0  0  0  0  0  0  0  0
  1  2  1  0
  2  3  1  0
  2  4  1  0
  4  5  1  0
  5  6  1  0
  6  7  1  0
  6  8  1  0
  8  9  1  0
  9 10  1  0
 10 11  2  0
 10 12  1  0
 12 13  1  0
 13 14  1  0
 14 15  2  0
 14 16  1  0
 16 17  2  0
 17 18  1  0
 18 19  2  0
 19 20  1  0
 20 21  2  0
 21 22  1  0
 22 23  2  0
 23 24  1  0
 24 25  2  0
  9  4  1  0
 25 16  1  0
 24 19  1  0
  1 26  1  0
  1 27  1  0
  1 28  1  0
  2 29  1  0
  3 30  1  0
  3 31  1  0
  3 32  1  0
  4 33  1  1
  5 34  1  0
  5 35  1  0
  6 36  1  6
  7 37  1  0
  8 38  1  0
  8 39  1  0
 12 40  1  0
 12 41  1  0
 13 42  1  0
 17 43  1  0
 18 44  1  0
 20 45  1  0
 21 46  1  0
 22 47  1  0
 23 48  1  0
M  END
>  <smiles>  (39) 
CC(C)[C@H]1C[C@@H](O)CN1C(=O)CNC(=O)c1ccc2ccccc2n1

>  <score_type>  (39) 
oracle

>  <origin>  (39) 
autodockgpu

>  <m_score__min__energy>  (39) 
-8.1199999999999992

>  <m_primary>  (39) 
energy

>  <rmsd>  (39) 
2.2253835481753983

>  <m_score__min__rmsd>  (39) 
2.2253835481753983

>  <meeko>  (39) 
{"free_energy": -7.96, "intermolecular_energy": -9.75, "internal_energy": -1.14, "cluster_size": 14, "cluster_id": 3, "rank_in_cluster": 1}

>  <energy>  (39) 
-7.22

>  <cluster_rmsd>  (39) 
0.82

>  <cluster>  (39) 
3

$$$$

     RDKit          3D

 48 50  0  0  0  0  0  0  0  0999 V2000
  142.5020   79.6290  222.5100 C   0  0  0  0  0  0  0  0  0  0  0  0
  141.3900   78.6400  222.8060 C   0  0  0  0  0  0  0  0  0  0  0  0
  140.4290   79.3540  223.7260 C   0  0  0  0  0  0  0  0  0  0  0  0
  140.6710   78.3290  221.5050 C   0  0  1  0  0  0  0  0  0  0  0  0
  141.4570   78.8700  220.3260 C   0  0  0  0  0  0  0  0  0  0  0  0
  141.6750   77.6390  219.4790 C   0  0  1  0  0  0  0  0  0  0  0  0
  142.8000   77.6970  218.6860 O   0  0  0  0  0  0  0  0  0  0  0  0
  141.8190   76.5680  220.5700 C   0  0  0  0  0  0  0  0  0  0  0  0
  140.5910   76.8810  221.3230 N   0  0  0  0  0  0  0  0  0  0  0  0
  139.5830   75.9800  221.7580 C   0  0  0  0  0  0  0  0  0  0  0  0
  138.6330   76.3040  222.5150 O   0  0  0  0  0  0  0  0  0  0  0  0
  139.6630   74.5740  221.2830 C   0  0  0  0  0  0  0  0  0  0  0  0
  139.3650   73.6370  222.3480 N   0  0  0  0  0  0  0  0  0  0  0  0
  140.3400   72.6230  222.5980 C   0  0  0  0  0  0  0  0  0  0  0  0
  141.3680   72.6620  221.8470 O   0  0  0  0  0  0  0  0  0  0  0  0
  140.1690   71.6170  223.6380 C   0  0  0  0  0  0  0  0  0  0  0  0
  139.4890   70.4670  223.3020 C   0  0  0  0  0  0  0  0  0  0  0  0
  139.2620   69.4350  224.2020 C   0  0  0  0  0  0  0  0  0  0  0  0
  139.7470   69.6010  225.4710 C   0  0  0  0  0  0  0  0  0  0  0  0
  139.5330   68.5890  226.3830 C   0  0  0  0  0  0  0  0  0  0  0  0
  140.0030   68.7120  227.6690 C   0  0  0  0  0  0  0  0  0  0  0  0
  140.6800   69.8700  227.9860 C   0  0  0  0  0  0  0  0  0  0  0  0
  140.8950   70.8890  227.0650 C   0  0  0  0  0  0  0  0  0  0  0  0
  140.4200   70.7640  225.7640 C   0  0  0  0  0  0  0  0  0  0  0  0
  140.6320   71.7530  224.8820 N   0  0  0  0  0  0  0  0  0  0  0  0
  142.9219   80.0024  223.4556 H   0  0  0  0  0  0  0  0  0  0  0  0
  143.2920   79.1296  221.9299 H   0  0  0  0  0  0  0  0  0  0  0  0
  142.0982   80.4719  221.9299 H   0  0  0  0  0  0  0  0  0  0  0  0
  141.7711   77.7101  223.2532 H   0  0  0  0  0  0  0  0  0  0  0  0
  140.7029   79.1505  224.7717 H   0  0  0  0  0  0  0  0  0  0  0  0
  140.4776   80.4368  223.5383 H   0  0  0  0  0  0  0  0  0  0  0  0
  139.4064   78.9949  223.5383 H   0  0  0  0  0  0  0  0  0  0  0  0
  139.6719   78.7867  221.5532 H   0  0  0  0  0  0  0  0  0  0  0  0
  140.8795   79.6302  219.7796 H   0  0  0  0  0  0  0  0  0  0  0  0
  142.3922   79.3703  220.6177 H   0  0  0  0  0  0  0  0  0  0  0  0
  140.8703   77.4711  218.7481 H   0  0  0  0  0  0  0  0  0  0  0  0
  143.5590   77.8890  219.2920 H   0  0  0  0  0  0  0  0  0  0  0  0
  141.8072   75.5482  220.1578 H   0  0  0  0  0  0  0  0  0  0  0  0
  142.7569   76.5853  221.1446 H   0  0  0  0  0  0  0  0  0  0  0  0
  138.9392   74.4303  220.4673 H   0  0  0  0  0  0  0  0  0  0  0  0
  140.6887   74.3851  220.9333 H   0  0  0  0  0  0  0  0  0  0  0  0
  138.5050   73.6670  222.9200 H   0  0  0  0  0  0  0  0  0  0  0  0
  139.1091   70.3620  222.2750 H   0  0  0  0  0  0  0  0  0  0  0  0
  138.7173   68.5254  223.9088 H   0  0  0  0  0  0  0  0  0  0  0  0
  138.9863   67.6834  226.0815 H   0  0  0  0  0  0  0  0  0  0  0  0
  139.8453   67.9187  228.4145 H   0  0  0  0  0  0  0  0  0  0  0  0
  141.0657   69.9929  229.0088 H   0  0  0  0  0  0  0  0  0  0  0  0
  141.4414   71.7951  227.3657 H   0  0  0  0  0  0  0  0  0  0  0  0
  1  2  1  0
  2  3  1  0
  2  4  1  0
  4  5  1  0
  5  6  1  0
  6  7  1  0
  6  8  1  0
  8  9  1  0
  9 10  1  0
 10 11  2  0
 10 12  1  0
 12 13  1  0
 13 14  1  0
 14 15  2  0
 14 16  1  0
 16 17  2  0
 17 18  1  0
 18 19  2  0
 19 20  1  0
 20 21  2  0
 21 22  1  0
 22 23  2  0
 23 24  1  0
 24 25  2  0
  9  4  1  0
 25 16  1  0
 24 19  1  0
  1 26  1  0
  1 27  1  0
  1 28  1  0
  2 29  1  0
  3 30  1  0
  3 31  1  0
  3 32  1  0
  4 33  1  1
  5 34  1  0
  5 35  1  0
  6 36  1  6
  7 37  1  0
  8 38  1  0
  8 39  1  0
 12 40  1  0
 12 41  1  0
 13 42  1  0
 17 43  1  0
 18 44  1  0
 20 45  1  0
 21 46  1  0
 22 47  1  0
 23 48  1  0
M  END
>  <smiles>  (40) 
CC(C)[C@H]1C[C@@H](O)CN1C(=O)CNC(=O)c1ccc2ccccc2n1

>  <score_type>  (40) 
oracle

>  <origin>  (40) 
autodockgpu

>  <m_score__min__energy>  (40) 
-8.1199999999999992

>  <m_primary>  (40) 
energy

>  <rmsd>  (40) 
2.201642916957115

>  <m_score__min__rmsd>  (40) 
2.201642916957115

>  <meeko>  (40) 
{"free_energy": -7.93, "intermolecular_energy": -9.72, "internal_energy": -1.14, "cluster_size": 14, "cluster_id": 3, "rank_in_cluster": 4}

>  <energy>  (40) 
-7.2

>  <cluster_rmsd>  (40) 
1.7

>  <cluster>  (40) 
3

$$$$

     RDKit          3D

 48 50  0  0  0  0  0  0  0  0999 V2000
  145.8860   72.6830  220.1570 C   0  0  0  0  0  0  0  0  0  0  0  0
  144.5550   72.2980  219.5390 C   0  0  0  0  0  0  0  0  0  0  0  0
  144.4550   70.7960  219.6630 C   0  0  0  0  0  0  0  0  0  0  0  0
  143.4470   72.9250  220.3660 C   0  0  1  0  0  0  0  0  0  0  0  0
  143.8440   74.3210  220.8070 C   0  0  0  0  0  0  0  0  0  0  0  0
  142.7220   75.1730  220.2620 C   0  0  1  0  0  0  0  0  0  0  0  0
  143.0840   76.4770  220.0050 O   0  0  0  0  0  0  0  0  0  0  0  0
  142.4000   74.4190  218.9630 C   0  0  0  0  0  0  0  0  0  0  0  0
  142.2460   73.0730  219.5450 N   0  0  0  0  0  0  0  0  0  0  0  0
  141.1810   72.1550  219.3450 C   0  0  0  0  0  0  0  0  0  0  0  0
  141.2590   71.1430  218.6050 O   0  0  0  0  0  0  0  0  0  0  0  0
  139.9050   72.4150  220.0590 C   0  0  0  0  0  0  0  0  0  0  0  0
  139.7760   71.5800  221.2370 N   0  0  0  0  0  0  0  0  0  0  0  0
  140.2350   72.1380  222.4690 C   0  0  0  0  0  0  0  0  0  0  0  0
  140.7090   73.3170  222.3880 O   0  0  0  0  0  0  0  0  0  0  0  0
  140.1650   71.4090  223.7290 C   0  0  0  0  0  0  0  0  0  0  0  0
  139.5640   70.1700  223.7130 C   0  0  0  0  0  0  0  0  0  0  0  0
  139.4360   69.3780  224.8450 C   0  0  0  0  0  0  0  0  0  0  0  0
  139.9400   69.8820  226.0140 C   0  0  0  0  0  0  0  0  0  0  0  0
  139.8250   69.1140  227.1530 C   0  0  0  0  0  0  0  0  0  0  0  0
  140.3170   69.5800  228.3490 C   0  0  0  0  0  0  0  0  0  0  0  0
  140.9140   70.8210  228.3450 C   0  0  0  0  0  0  0  0  0  0  0  0
  141.0300   71.5950  227.1960 C   0  0  0  0  0  0  0  0  0  0  0  0
  140.5320   71.1230  225.9860 C   0  0  0  0  0  0  0  0  0  0  0  0
  140.6480   71.8760  224.8820 N   0  0  0  0  0  0  0  0  0  0  0  0
  145.8019   72.6587  221.2535 H   0  0  0  0  0  0  0  0  0  0  0  0
  146.6602   71.9720  219.8328 H   0  0  0  0  0  0  0  0  0  0  0  0
  146.1610   73.6975  219.8328 H   0  0  0  0  0  0  0  0  0  0  0  0
  144.4728   72.6293  218.4933 H   0  0  0  0  0  0  0  0  0  0  0  0
  144.4364   70.5163  220.7267 H   0  0  0  0  0  0  0  0  0  0  0  0
  143.5317   70.4486  219.1763 H   0  0  0  0  0  0  0  0  0  0  0  0
  145.3241   70.3292  219.1763 H   0  0  0  0  0  0  0  0  0  0  0  0
  143.2655   72.2762  221.2355 H   0  0  0  0  0  0  0  0  0  0  0  0
  143.8980   74.3903  221.9035 H   0  0  0  0  0  0  0  0  0  0  0  0
  144.8379   74.6262  220.4478 H   0  0  0  0  0  0  0  0  0  0  0  0
  141.8857   75.2867  220.9675 H   0  0  0  0  0  0  0  0  0  0  0  0
  142.9860   76.9670  220.8590 H   0  0  0  0  0  0  0  0  0  0  0  0
  141.4737   74.7780  218.4907 H   0  0  0  0  0  0  0  0  0  0  0  0
  143.1369   74.5147  218.1520 H   0  0  0  0  0  0  0  0  0  0  0  0
  139.8751   73.4713  220.3645 H   0  0  0  0  0  0  0  0  0  0  0  0
  139.0740   72.1810  219.3773 H   0  0  0  0  0  0  0  0  0  0  0  0
  139.3780   70.6260  221.2280 H   0  0  0  0  0  0  0  0  0  0  0  0
  139.1674   69.7911  222.7595 H   0  0  0  0  0  0  0  0  0  0  0  0
  138.9521   68.3910  224.8051 H   0  0  0  0  0  0  0  0  0  0  0  0
  139.3395   68.1281  227.1048 H   0  0  0  0  0  0  0  0  0  0  0  0
  140.2371   68.9860  229.2714 H   0  0  0  0  0  0  0  0  0  0  0  0
  141.3156   71.2161  229.2898 H   0  0  0  0  0  0  0  0  0  0  0  0
  141.5157   72.5808  227.2437 H   0  0  0  0  0  0  0  0  0  0  0  0
  1  2  1  0
  2  3  1  0
  2  4  1  0
  4  5  1  0
  5  6  1  0
  6  7  1  0
  6  8  1  0
  8  9  1  0
  9 10  1  0
 10 11  2  0
 10 12  1  0
 12 13  1  0
 13 14  1  0
 14 15  2  0
 14 16  1  0
 16 17  2  0
 17 18  1  0
 18 19  2  0
 19 20  1  0
 20 21  2  0
 21 22  1  0
 22 23  2  0
 23 24  1  0
 24 25  2  0
  9  4  1  0
 25 16  1  0
 24 19  1  0
  1 26  1  0
  1 27  1  0
  1 28  1  0
  2 29  1  0
  3 30  1  0
  3 31  1  0
  3 32  1  0
  4 33  1  1
  5 34  1  0
  5 35  1  0
  6 36  1  1
  7 37  1  0
  8 38  1  0
  8 39  1  0
 12 40  1  0
 12 41  1  0
 13 42  1  0
 17 43  1  0
 18 44  1  0
 20 45  1  0
 21 46  1  0
 22 47  1  0
 23 48  1  0
M  END
>  <smiles>  (41) 
CC(C)[C@H]1C[C@@H](O)CN1C(=O)CNC(=O)c1ccc2ccccc2n1

>  <score_type>  (41) 
oracle

>  <origin>  (41) 
autodockgpu

>  <m_score__min__energy>  (41) 
-8.1199999999999992

>  <m_primary>  (41) 
energy

>  <rmsd>  (41) 
3.131158195652387

>  <m_score__min__rmsd>  (41) 
3.131158195652387

>  <meeko>  (41) 
{"free_energy": -6.7, "intermolecular_energy": -8.49, "internal_energy": -1.3, "cluster_size": 6, "cluster_id": 4, "rank_in_cluster": 6}

>  <energy>  (41) 
-7.13

>  <cluster_rmsd>  (41) 
1.05

>  <cluster>  (41) 
3

$$$$

     RDKit          3D

 48 50  0  0  0  0  0  0  0  0999 V2000
  142.2220   80.4920  222.0860 C   0  0  0  0  0  0  0  0  0  0  0  0
  142.0530   78.9870  222.1620 C   0  0  0  0  0  0  0  0  0  0  0  0
  141.2940   78.7140  223.4380 C   0  0  0  0  0  0  0  0  0  0  0  0
  141.1980   78.5440  220.9880 C   0  0  1  0  0  0  0  0  0  0  0  0
  141.8200   79.0000  219.6810 C   0  0  0  0  0  0  0  0  0  0  0  0
  141.9820   77.7040  218.9210 C   0  0  1  0  0  0  0  0  0  0  0  0
  143.0030   77.7220  217.9970 O   0  0  0  0  0  0  0  0  0  0  0  0
  142.2930   76.7380  220.0730 C   0  0  0  0  0  0  0  0  0  0  0  0
  141.1510   77.0830  220.9390 N   0  0  0  0  0  0  0  0  0  0  0  0
  140.2340   76.1980  221.5670 C   0  0  0  0  0  0  0  0  0  0  0  0
  139.3550   76.5650  222.3870 O   0  0  0  0  0  0  0  0  0  0  0  0
  140.3270   74.7550  221.2250 C   0  0  0  0  0  0  0  0  0  0  0  0
  139.9470   73.9190  222.3470 N   0  0  0  0  0  0  0  0  0  0  0  0
  140.6010   72.6540  222.4510 C   0  0  0  0  0  0  0  0  0  0  0  0
  141.4500   72.4050  221.5360 O   0  0  0  0  0  0  0  0  0  0  0  0
  140.3150   71.7140  223.5280 C   0  0  0  0  0  0  0  0  0  0  0  0
  139.5990   70.5820  223.2090 C   0  0  0  0  0  0  0  0  0  0  0  0
  139.2640   69.6130  224.1440 C   0  0  0  0  0  0  0  0  0  0  0  0
  139.6790   69.8240  225.4320 C   0  0  0  0  0  0  0  0  0  0  0  0
  139.3580   68.8750  226.3790 C   0  0  0  0  0  0  0  0  0  0  0  0
  139.7550   69.0450  227.6850 C   0  0  0  0  0  0  0  0  0  0  0  0
  140.4690   70.1840  227.9840 C   0  0  0  0  0  0  0  0  0  0  0  0
  140.7920   71.1400  227.0280 C   0  0  0  0  0  0  0  0  0  0  0  0
  140.3920   70.9680  225.7070 C   0  0  0  0  0  0  0  0  0  0  0  0
  140.7070   71.8950  224.7910 N   0  0  0  0  0  0  0  0  0  0  0  0
  142.2687   80.9076  223.1034 H   0  0  0  0  0  0  0  0  0  0  0  0
  143.1525   80.7299  221.5497 H   0  0  0  0  0  0  0  0  0  0  0  0
  141.3674   80.9303  221.5497 H   0  0  0  0  0  0  0  0  0  0  0  0
  143.0188   78.4609  222.1398 H   0  0  0  0  0  0  0  0  0  0  0  0
  141.9345   78.9444  224.3021 H   0  0  0  0  0  0  0  0  0  0  0  0
  140.3932   79.3445  223.4709 H   0  0  0  0  0  0  0  0  0  0  0  0
  141.0012   77.6542  223.4709 H   0  0  0  0  0  0  0  0  0  0  0  0
  140.1953   78.9774  221.1176 H   0  0  0  0  0  0  0  0  0  0  0  0
  141.1548   79.6934  219.1456 H   0  0  0  0  0  0  0  0  0  0  0  0
  142.7639   79.5489  219.8146 H   0  0  0  0  0  0  0  0  0  0  0  0
  141.1034   77.4504  218.3096 H   0  0  0  0  0  0  0  0  0  0  0  0
  143.1130   78.6660  217.7210 H   0  0  0  0  0  0  0  0  0  0  0  0
  142.2710   75.6859  219.7528 H   0  0  0  0  0  0  0  0  0  0  0  0
  143.2905   76.8313  220.5271 H   0  0  0  0  0  0  0  0  0  0  0  0
  139.6569   74.5440  220.3786 H   0  0  0  0  0  0  0  0  0  0  0  0
  141.3710   74.5283  220.9628 H   0  0  0  0  0  0  0  0  0  0  0  0
  139.2450   74.1880  223.0560 H   0  0  0  0  0  0  0  0  0  0  0  0
  139.2783   70.4395  222.1665 H   0  0  0  0  0  0  0  0  0  0  0  0
  138.6915   68.7166  223.8636 H   0  0  0  0  0  0  0  0  0  0  0  0
  138.7844   67.9819  226.0903 H   0  0  0  0  0  0  0  0  0  0  0  0
  139.5122   68.3018  228.4587 H   0  0  0  0  0  0  0  0  0  0  0  0
  140.7971   70.3438  229.0217 H   0  0  0  0  0  0  0  0  0  0  0  0
  141.3647   72.0337  227.3166 H   0  0  0  0  0  0  0  0  0  0  0  0
  1  2  1  0
  2  3  1  0
  2  4  1  0
  4  5  1  0
  5  6  1  0
  6  7  1  0
  6  8  1  0
  8  9  1  0
  9 10  1  0
 10 11  2  0
 10 12  1  0
 12 13  1  0
 13 14  1  0
 14 15  2  0
 14 16  1  0
 16 17  2  0
 17 18  1  0
 18 19  2  0
 19 20  1  0
 20 21  2  0
 21 22  1  0
 22 23  2  0
 23 24  1  0
 24 25  2  0
  9  4  1  0
 25 16  1  0
 24 19  1  0
  1 26  1  0
  1 27  1  0
  1 28  1  0
  2 29  1  0
  3 30  1  0
  3 31  1  0
  3 32  1  0
  4 33  1  1
  5 34  1  0
  5 35  1  0
  6 36  1  6
  7 37  1  0
  8 38  1  0
  8 39  1  0
 12 40  1  0
 12 41  1  0
 13 42  1  0
 17 43  1  0
 18 44  1  0
 20 45  1  0
 21 46  1  0
 22 47  1  0
 23 48  1  0
M  END
>  <smiles>  (42) 
CC(C)[C@H]1C[C@@H](O)CN1C(=O)CNC(=O)c1ccc2ccccc2n1

>  <score_type>  (42) 
oracle

>  <origin>  (42) 
autodockgpu

>  <m_score__min__energy>  (42) 
-8.1199999999999992

>  <m_primary>  (42) 
energy

>  <rmsd>  (42) 
2.2839683444260825

>  <m_score__min__rmsd>  (42) 
2.2839683444260825

>  <meeko>  (42) 
{"free_energy": -7.45, "intermolecular_energy": -9.24, "internal_energy": -1.23, "cluster_size": 14, "cluster_id": 3, "rank_in_cluster": 9}

>  <energy>  (42) 
-7.92

>  <cluster_rmsd>  (42) 
0.0

>  <cluster>  (42) 
4

$$$$

     RDKit          3D

 48 50  0  0  0  0  0  0  0  0999 V2000
  142.9270   77.3060  217.7700 C   0  0  0  0  0  0  0  0  0  0  0  0
  143.0040   76.5990  219.1100 C   0  0  0  0  0  0  0  0  0  0  0  0
  141.8070   77.0710  219.9010 C   0  0  0  0  0  0  0  0  0  0  0  0
  142.8660   75.1060  218.8710 C   0  0  1  0  0  0  0  0  0  0  0  0
  144.0780   74.5770  218.1270 C   0  0  0  0  0  0  0  0  0  0  0  0
  144.5850   73.4940  219.0490 C   0  0  1  0  0  0  0  0  0  0  0  0
  145.9360   73.2500  218.9350 O   0  0  0  0  0  0  0  0  0  0  0  0
  144.2430   74.1030  220.4170 C   0  0  0  0  0  0  0  0  0  0  0  0
  142.8250   74.4050  220.1530 N   0  0  0  0  0  0  0  0  0  0  0  0
  141.7010   74.0850  220.9610 C   0  0  0  0  0  0  0  0  0  0  0  0
  141.2930   74.8020  221.9090 O   0  0  0  0  0  0  0  0  0  0  0  0
  140.9720   72.8270  220.6580 C   0  0  0  0  0  0  0  0  0  0  0  0
  141.0520   71.8890  221.7610 N   0  0  0  0  0  0  0  0  0  0  0  0
  140.0420   71.9970  222.7650 C   0  0  0  0  0  0  0  0  0  0  0  0
  139.1800   72.9140  222.5720 O   0  0  0  0  0  0  0  0  0  0  0  0
  140.0010   71.1190  223.9280 C   0  0  0  0  0  0  0  0  0  0  0  0
  139.3340   69.9210  223.7950 C   0  0  0  0  0  0  0  0  0  0  0  0
  139.2250   69.0000  224.8260 C   0  0  0  0  0  0  0  0  0  0  0  0
  139.8180   69.3280  226.0160 C   0  0  0  0  0  0  0  0  0  0  0  0
  139.7220   68.4280  227.0560 C   0  0  0  0  0  0  0  0  0  0  0  0
  140.3030   68.7160  228.2690 C   0  0  0  0  0  0  0  0  0  0  0  0
  140.9650   69.9190  228.3830 C   0  0  0  0  0  0  0  0  0  0  0  0
  141.0600   70.8250  227.3330 C   0  0  0  0  0  0  0  0  0  0  0  0
  140.4730   70.5340  226.1060 C   0  0  0  0  0  0  0  0  0  0  0  0
  140.5700   71.4140  225.0980 N   0  0  0  0  0  0  0  0  0  0  0  0
  142.8092   78.3876  217.9323 H   0  0  0  0  0  0  0  0  0  0  0  0
  143.8508   77.1188  217.2030 H   0  0  0  0  0  0  0  0  0  0  0  0
  142.0651   76.9243  217.2030 H   0  0  0  0  0  0  0  0  0  0  0  0
  143.9492   76.8062  219.6331 H   0  0  0  0  0  0  0  0  0  0  0  0
  142.0217   76.9863  220.9765 H   0  0  0  0  0  0  0  0  0  0  0  0
  141.5933   78.1207  219.6513 H   0  0  0  0  0  0  0  0  0  0  0  0
  140.9343   76.4497  219.6513 H   0  0  0  0  0  0  0  0  0  0  0  0
  141.9465   74.9405  218.2903 H   0  0  0  0  0  0  0  0  0  0  0  0
  143.7936   74.1638  217.1480 H   0  0  0  0  0  0  0  0  0  0  0  0
  144.8283   75.3509  217.9076 H   0  0  0  0  0  0  0  0  0  0  0  0
  144.1410   72.5092  218.8416 H   0  0  0  0  0  0  0  0  0  0  0  0
  146.3760   74.1350  218.8800 H   0  0  0  0  0  0  0  0  0  0  0  0
  144.3704   73.3824  221.2383 H   0  0  0  0  0  0  0  0  0  0  0  0
  144.8667   74.9495  220.7401 H   0  0  0  0  0  0  0  0  0  0  0  0
  139.9151   73.0635  220.4656 H   0  0  0  0  0  0  0  0  0  0  0  0
  141.4357   72.3628  219.7751 H   0  0  0  0  0  0  0  0  0  0  0  0
  141.7840   71.1660  221.8520 H   0  0  0  0  0  0  0  0  0  0  0  0
  138.8669   69.6843  222.8276 H   0  0  0  0  0  0  0  0  0  0  0  0
  138.6870   68.0497  224.6940 H   0  0  0  0  0  0  0  0  0  0  0  0
  139.1812   67.4804  226.9158 H   0  0  0  0  0  0  0  0  0  0  0  0
  140.2416   68.0143  229.1139 H   0  0  0  0  0  0  0  0  0  0  0  0
  141.4373   70.1727  229.3435 H   0  0  0  0  0  0  0  0  0  0  0  0
  141.6000   71.7731  227.4726 H   0  0  0  0  0  0  0  0  0  0  0  0
  1  2  1  0
  2  3  1  0
  2  4  1  0
  4  5  1  0
  5  6  1  0
  6  7  1  0
  6  8  1  0
  8  9  1  0
  9 10  1  0
 10 11  2  0
 10 12  1  0
 12 13  1  0
 13 14  1  0
 14 15  2  0
 14 16  1  0
 16 17  2  0
 17 18  1  0
 18 19  2  0
 19 20  1  0
 20 21  2  0
 21 22  1  0
 22 23  2  0
 23 24  1  0
 24 25  2  0
  9  4  1  0
 25 16  1  0
 24 19  1  0
  1 26  1  0
  1 27  1  0
  1 28  1  0
  2 29  1  0
  3 30  1  0
  3 31  1  0
  3 32  1  0
  4 33  1  6
  5 34  1  0
  5 35  1  0
  6 36  1  6
  7 37  1  0
  8 38  1  0
  8 39  1  0
 12 40  1  0
 12 41  1  0
 13 42  1  0
 17 43  1  0
 18 44  1  0
 20 45  1  0
 21 46  1  0
 22 47  1  0
 23 48  1  0
M  END
>  <smiles>  (43) 
CC(C)[C@H]1C[C@@H](O)CN1C(=O)CNC(=O)c1ccc2ccccc2n1

>  <score_type>  (43) 
oracle

>  <origin>  (43) 
autodockgpu

>  <m_score__min__energy>  (43) 
-8.1199999999999992

>  <m_primary>  (43) 
energy

>  <rmsd>  (43) 
3.080572459764354

>  <m_score__min__rmsd>  (43) 
3.080572459764354

>  <meeko>  (43) 
{"free_energy": -7.75, "intermolecular_energy": -9.54, "internal_energy": -0.91, "cluster_size": 6, "cluster_id": 4, "rank_in_cluster": 2}

>  <energy>  (43) 
-7.75

>  <cluster_rmsd>  (43) 
0.47

>  <cluster>  (43) 
4

$$$$

     RDKit          3D

 48 50  0  0  0  0  0  0  0  0999 V2000
  141.0870   68.1720  228.2310 C   0  0  0  0  0  0  0  0  0  0  0  0
  140.5830   68.5670  226.8560 C   0  0  0  0  0  0  0  0  0  0  0  0
  139.6010   67.4950  226.4470 C   0  0  0  0  0  0  0  0  0  0  0  0
  139.8350   69.8820  226.9830 C   0  0  1  0  0  0  0  0  0  0  0  0
  140.6160   70.8520  227.8500 C   0  0  0  0  0  0  0  0  0  0  0  0
  140.7870   72.0460  226.9410 C   0  0  1  0  0  0  0  0  0  0  0  0
  141.9000   72.8070  227.2200 O   0  0  0  0  0  0  0  0  0  0  0  0
  140.9190   71.3480  225.5790 C   0  0  0  0  0  0  0  0  0  0  0  0
  139.7120   70.5060  225.6660 N   0  0  0  0  0  0  0  0  0  0  0  0
  138.6860   70.3510  224.6960 C   0  0  0  0  0  0  0  0  0  0  0  0
  137.4920   70.0800  224.9780 O   0  0  0  0  0  0  0  0  0  0  0  0
  139.0580   70.5210  223.2680 C   0  0  0  0  0  0  0  0  0  0  0  0
  139.2460   71.9190  222.9320 N   0  0  0  0  0  0  0  0  0  0  0  0
  140.4220   72.2440  222.1900 C   0  0  0  0  0  0  0  0  0  0  0  0
  141.1760   71.2570  221.9060 O   0  0  0  0  0  0  0  0  0  0  0  0
  140.7360   73.6090  221.7850 C   0  0  0  0  0  0  0  0  0  0  0  0
  141.7210   73.7780  220.8360 C   0  0  0  0  0  0  0  0  0  0  0  0
  142.1100   75.0250  220.3690 C   0  0  0  0  0  0  0  0  0  0  0  0
  141.4680   76.1140  220.8950 C   0  0  0  0  0  0  0  0  0  0  0  0
  141.8390   77.3630  220.4460 C   0  0  0  0  0  0  0  0  0  0  0  0
  141.2210   78.4850  220.9470 C   0  0  0  0  0  0  0  0  0  0  0  0
  140.2390   78.2940  221.8950 C   0  0  0  0  0  0  0  0  0  0  0  0
  139.8670   77.0340  222.3470 C   0  0  0  0  0  0  0  0  0  0  0  0
  140.4920   75.9000  221.8400 C   0  0  0  0  0  0  0  0  0  0  0  0
  140.1260   74.6860  222.2820 N   0  0  0  0  0  0  0  0  0  0  0  0
  140.4689   68.6564  229.0012 H   0  0  0  0  0  0  0  0  0  0  0  0
  141.0248   67.0796  228.3445 H   0  0  0  0  0  0  0  0  0  0  0  0
  142.1328   68.4935  228.3445 H   0  0  0  0  0  0  0  0  0  0  0  0
  141.4020   68.6721  226.1292 H   0  0  0  0  0  0  0  0  0  0  0  0
  139.1729   67.0276  227.3460 H   0  0  0  0  0  0  0  0  0  0  0  0
  138.7952   67.9450  225.8485 H   0  0  0  0  0  0  0  0  0  0  0  0
  140.1197   66.7316  225.8485 H   0  0  0  0  0  0  0  0  0  0  0  0
  138.8498   69.6689  227.4235 H   0  0  0  0  0  0  0  0  0  0  0  0
  140.0500   71.1198  228.7544 H   0  0  0  0  0  0  0  0  0  0  0  0
  141.5689   70.4413  228.2152 H   0  0  0  0  0  0  0  0  0  0  0  0
  139.9663   72.7733  227.0273 H   0  0  0  0  0  0  0  0  0  0  0  0
  141.5970   73.7490  227.2390 H   0  0  0  0  0  0  0  0  0  0  0  0
  140.8728   72.0580  224.7401 H   0  0  0  0  0  0  0  0  0  0  0  0
  141.8660   70.8191  225.3959 H   0  0  0  0  0  0  0  0  0  0  0  0
  139.9948   69.9777  223.0753 H   0  0  0  0  0  0  0  0  0  0  0  0
  138.2409   70.1233  222.6482 H   0  0  0  0  0  0  0  0  0  0  0  0
  138.5880   72.6700  223.1970 H   0  0  0  0  0  0  0  0  0  0  0  0
  142.2204   72.8854  220.4313 H   0  0  0  0  0  0  0  0  0  0  0  0
  142.8988   75.1340  219.6102 H   0  0  0  0  0  0  0  0  0  0  0  0
  142.6291   77.4626  219.6872 H   0  0  0  0  0  0  0  0  0  0  0  0
  141.4990   79.4929  220.6052 H   0  0  0  0  0  0  0  0  0  0  0  0
  139.7288   79.1753  222.3108 H   0  0  0  0  0  0  0  0  0  0  0  0
  139.0776   76.9334  223.1064 H   0  0  0  0  0  0  0  0  0  0  0  0
  1  2  1  0
  2  3  1  0
  2  4  1  0
  4  5  1  0
  5  6  1  0
  6  7  1  0
  6  8  1  0
  8  9  1  0
  9 10  1  0
 10 11  2  0
 10 12  1  0
 12 13  1  0
 13 14  1  0
 14 15  2  0
 14 16  1  0
 16 17  2  0
 17 18  1  0
 18 19  2  0
 19 20  1  0
 20 21  2  0
 21 22  1  0
 22 23  2  0
 23 24  1  0
 24 25  2  0
  9  4  1  0
 25 16  1  0
 24 19  1  0
  1 26  1  0
  1 27  1  0
  1 28  1  0
  2 29  1  0
  3 30  1  0
  3 31  1  0
  3 32  1  0
  4 33  1  1
  5 34  1  0
  5 35  1  0
  6 36  1  6
  7 37  1  0
  8 38  1  0
  8 39  1  0
 12 40  1  0
 12 41  1  0
 13 42  1  0
 17 43  1  0
 18 44  1  0
 20 45  1  0
 21 46  1  0
 22 47  1  0
 23 48  1  0
M  END
>  <smiles>  (44) 
CC(C)[C@H]1C[C@@H](O)CN1C(=O)CNC(=O)c1ccc2ccccc2n1

>  <score_type>  (44) 
oracle

>  <origin>  (44) 
autodockgpu

>  <m_score__min__energy>  (44) 
-8.1199999999999992

>  <m_primary>  (44) 
energy

>  <rmsd>  (44) 
8.228224858378992

>  <m_score__min__rmsd>  (44) 
8.228224858378992

>  <meeko>  (44) 
{"free_energy": -7.95, "intermolecular_energy": -9.74, "internal_energy": -1.29, "cluster_size": 22, "cluster_id": 1, "rank_in_cluster": 12}

>  <energy>  (44) 
-7.49

>  <cluster_rmsd>  (44) 
1.2

>  <cluster>  (44) 
4

$$$$

     RDKit          3D

 48 50  0  0  0  0  0  0  0  0999 V2000
  140.3260   70.5150  228.2290 C   0  0  0  0  0  0  0  0  0  0  0  0
  140.3110   71.2900  226.9250 C   0  0  0  0  0  0  0  0  0  0  0  0
  141.5230   72.1900  226.9590 C   0  0  0  0  0  0  0  0  0  0  0  0
  140.4760   70.3020  225.7820 C   0  0  1  0  0  0  0  0  0  0  0  0
  140.7010   68.9030  226.3230 C   0  0  0  0  0  0  0  0  0  0  0  0
  139.5840   68.1160  225.6800 C   0  0  1  0  0  0  0  0  0  0  0  0
  139.1930   67.0090  226.4010 O   0  0  0  0  0  0  0  0  0  0  0  0
  138.4740   69.1760  225.6450 C   0  0  0  0  0  0  0  0  0  0  0  0
  139.2440   70.2530  224.9960 N   0  0  0  0  0  0  0  0  0  0  0  0
  138.8670   71.0400  223.8760 C   0  0  0  0  0  0  0  0  0  0  0  0
  139.6590   71.7810  223.2420 O   0  0  0  0  0  0  0  0  0  0  0  0
  137.4490   70.9760  223.4350 C   0  0  0  0  0  0  0  0  0  0  0  0
  136.6320   71.9460  224.1360 N   0  0  0  0  0  0  0  0  0  0  0  0
  135.4030   71.4670  224.6850 C   0  0  0  0  0  0  0  0  0  0  0  0
  135.1670   70.2310  224.4910 O   0  0  0  0  0  0  0  0  0  0  0  0
  134.4850   72.3330  225.4140 C   0  0  0  0  0  0  0  0  0  0  0  0
  133.4190   71.7350  226.0500 C   0  0  0  0  0  0  0  0  0  0  0  0
  132.4770   72.4490  226.7770 C   0  0  0  0  0  0  0  0  0  0  0  0
  132.6440   73.8070  226.8430 C   0  0  0  0  0  0  0  0  0  0  0  0
  131.7200   74.5380  227.5590 C   0  0  0  0  0  0  0  0  0  0  0  0
  131.8470   75.9040  227.6530 C   0  0  0  0  0  0  0  0  0  0  0  0
  132.9190   76.4830  227.0090 C   0  0  0  0  0  0  0  0  0  0  0  0
  133.8500   75.7450  226.2880 C   0  0  0  0  0  0  0  0  0  0  0  0
  133.7210   74.3630  226.1930 C   0  0  0  0  0  0  0  0  0  0  0  0
  134.6240   73.6580  225.4950 N   0  0  0  0  0  0  0  0  0  0  0  0
  140.3124   71.2190  229.0741 H   0  0  0  0  0  0  0  0  0  0  0  0
  139.4403   69.8646  228.2792 H   0  0  0  0  0  0  0  0  0  0  0  0
  141.2362   69.8994  228.2792 H   0  0  0  0  0  0  0  0  0  0  0  0
  139.3800   71.8610  226.7936 H   0  0  0  0  0  0  0  0  0  0  0  0
  141.7985   72.3946  228.0041 H   0  0  0  0  0  0  0  0  0  0  0  0
  142.3621   71.6944  226.4488 H   0  0  0  0  0  0  0  0  0  0  0  0
  141.2912   73.1366  226.4488 H   0  0  0  0  0  0  0  0  0  0  0  0
  141.3320   70.6281  225.1729 H   0  0  0  0  0  0  0  0  0  0  0  0
  141.6849   68.5144  226.0215 H   0  0  0  0  0  0  0  0  0  0  0  0
  140.6943   68.8531  227.4218 H   0  0  0  0  0  0  0  0  0  0  0  0
  139.8647   67.6872  224.7067 H   0  0  0  0  0  0  0  0  0  0  0  0
  139.9930   66.7030  226.8980 H   0  0  0  0  0  0  0  0  0  0  0  0
  137.6117   68.8573  225.0410 H   0  0  0  0  0  0  0  0  0  0  0  0
  138.0125   69.4258  226.6118 H   0  0  0  0  0  0  0  0  0  0  0  0
  137.4006   71.1811  222.3554 H   0  0  0  0  0  0  0  0  0  0  0  0
  137.0620   69.9711  223.6597 H   0  0  0  0  0  0  0  0  0  0  0  0
  136.8890   72.9400  224.2560 H   0  0  0  0  0  0  0  0  0  0  0  0
  133.3098   70.6428  225.9783 H   0  0  0  0  0  0  0  0  0  0  0  0
  131.6352   71.9477  227.2771 H   0  0  0  0  0  0  0  0  0  0  0  0
  130.8809   74.0284  228.0552 H   0  0  0  0  0  0  0  0  0  0  0  0
  131.1232   76.5092  228.2186 H   0  0  0  0  0  0  0  0  0  0  0  0
  133.0429   77.5744  227.0681 H   0  0  0  0  0  0  0  0  0  0  0  0
  134.6896   76.2539  225.7920 H   0  0  0  0  0  0  0  0  0  0  0  0
  1  2  1  0
  2  3  1  0
  2  4  1  0
  4  5  1  0
  5  6  1  0
  6  7  1  0
  6  8  1  0
  8  9  1  0
  9 10  1  0
 10 11  2  0
 10 12  1  0
 12 13  1  0
 13 14  1  0
 14 15  2  0
 14 16  1  0
 16 17  2  0
 17 18  1  0
 18 19  2  0
 19 20  1  0
 20 21  2  0
 21 22  1  0
 22 23  2  0
 23 24  1  0
 24 25  2  0
  9  4  1  0
 25 16  1  0
 24 19  1  0
  1 26  1  0
  1 27  1  0
  1 28  1  0
  2 29  1  0
  3 30  1  0
  3 31  1  0
  3 32  1  0
  4 33  1  6
  5 34  1  0
  5 35  1  0
  6 36  1  6
  7 37  1  0
  8 38  1  0
  8 39  1  0
 12 40  1  0
 12 41  1  0
 13 42  1  0
 17 43  1  0
 18 44  1  0
 20 45  1  0
 21 46  1  0
 22 47  1  0
 23 48  1  0
M  END
>  <smiles>  (45) 
CC(C)[C@H]1C[C@@H](O)CN1C(=O)CNC(=O)c1ccc2ccccc2n1

>  <score_type>  (45) 
oracle

>  <origin>  (45) 
autodockgpu

>  <m_score__min__energy>  (45) 
-8.1199999999999992

>  <m_primary>  (45) 
energy

>  <rmsd>  (45) 
8.285602301005776

>  <m_score__min__rmsd>  (45) 
8.285602301005776

>  <meeko>  (45) 
{"free_energy": -7.86, "intermolecular_energy": -9.65, "internal_energy": -1.28, "cluster_size": 5, "cluster_id": 2, "rank_in_cluster": 3}

>  <energy>  (45) 
-7.12

>  <cluster_rmsd>  (45) 
1.43

>  <cluster>  (45) 
4

$$$$

     RDKit          3D

 48 50  0  0  0  0  0  0  0  0999 V2000
  141.0350   68.1330  228.3700 C   0  0  0  0  0  0  0  0  0  0  0  0
  140.6810   68.4850  226.9380 C   0  0  0  0  0  0  0  0  0  0  0  0
  139.7650   67.3880  226.4510 C   0  0  0  0  0  0  0  0  0  0  0  0
  139.9060   69.7910  226.9470 C   0  0  1  0  0  0  0  0  0  0  0  0
  140.5350   70.7710  227.9180 C   0  0  0  0  0  0  0  0  0  0  0  0
  140.8260   71.9660  227.0420 C   0  0  1  0  0  0  0  0  0  0  0  0
  141.8750   72.7420  227.4840 O   0  0  0  0  0  0  0  0  0  0  0  0
  141.1710   71.2680  225.7180 C   0  0  0  0  0  0  0  0  0  0  0  0
  139.9750   70.4110  225.6250 N   0  0  0  0  0  0  0  0  0  0  0  0
  139.1100   70.2410  224.5110 C   0  0  0  0  0  0  0  0  0  0  0  0
  137.9170   69.8580  224.6040 O   0  0  0  0  0  0  0  0  0  0  0  0
  139.6560   70.5390  223.1620 C   0  0  0  0  0  0  0  0  0  0  0  0
  139.7970   71.9660  222.9500 N   0  0  0  0  0  0  0  0  0  0  0  0
  140.7030   72.3720  221.9230 C   0  0  0  0  0  0  0  0  0  0  0  0
  141.2880   71.4230  221.3080 O   0  0  0  0  0  0  0  0  0  0  0  0
  140.9410   73.7740  221.6030 C   0  0  0  0  0  0  0  0  0  0  0  0
  141.9050   74.0550  220.6600 C   0  0  0  0  0  0  0  0  0  0  0  0
  142.2240   75.3470  220.2690 C   0  0  0  0  0  0  0  0  0  0  0  0
  141.5310   76.3650  220.8680 C   0  0  0  0  0  0  0  0  0  0  0  0
  141.8310   77.6580  220.4960 C   0  0  0  0  0  0  0  0  0  0  0  0
  141.1610   78.7120  221.0710 C   0  0  0  0  0  0  0  0  0  0  0  0
  140.2010   78.4110  222.0120 C   0  0  0  0  0  0  0  0  0  0  0  0
  139.9000   77.1070  222.3870 C   0  0  0  0  0  0  0  0  0  0  0  0
  140.5780   76.0410  221.8050 C   0  0  0  0  0  0  0  0  0  0  0  0
  140.2810   74.7850  222.1710 N   0  0  0  0  0  0  0  0  0  0  0  0
  140.4262   68.7384  229.0576 H   0  0  0  0  0  0  0  0  0  0  0  0
  140.8345   67.0658  228.5455 H   0  0  0  0  0  0  0  0  0  0  0  0
  142.1011   68.3395  228.5455 H   0  0  0  0  0  0  0  0  0  0  0  0
  141.5741   68.5848  226.3036 H   0  0  0  0  0  0  0  0  0  0  0  0
  139.3281   66.8648  227.3144 H   0  0  0  0  0  0  0  0  0  0  0  0
  138.9603   67.8256  225.8419 H   0  0  0  0  0  0  0  0  0  0  0  0
  140.3392   66.6743  225.8419 H   0  0  0  0  0  0  0  0  0  0  0  0
  138.8684   69.5664  227.2350 H   0  0  0  0  0  0  0  0  0  0  0  0
  139.8361   71.0325  228.7262 H   0  0  0  0  0  0  0  0  0  0  0  0
  141.4272   70.3728  228.4235 H   0  0  0  0  0  0  0  0  0  0  0  0
  139.9927   72.6829  227.0011 H   0  0  0  0  0  0  0  0  0  0  0  0
  141.6450   73.6780  227.2560 H   0  0  0  0  0  0  0  0  0  0  0  0
  141.2433   71.9761  224.8794 H   0  0  0  0  0  0  0  0  0  0  0  0
  142.1413   70.7510  225.6815 H   0  0  0  0  0  0  0  0  0  0  0  0
  140.6430   70.0635  223.0627 H   0  0  0  0  0  0  0  0  0  0  0  0
  138.9550   70.1458  222.4110 H   0  0  0  0  0  0  0  0  0  0  0  0
  139.2870   72.6840  223.4910 H   0  0  0  0  0  0  0  0  0  0  0  0
  142.4461   73.2171  220.1962 H   0  0  0  0  0  0  0  0  0  0  0  0
  142.9979   75.5448  219.5127 H   0  0  0  0  0  0  0  0  0  0  0  0
  142.6065   77.8466  219.7390 H   0  0  0  0  0  0  0  0  0  0  0  0
  141.3824   79.7525  220.7912 H   0  0  0  0  0  0  0  0  0  0  0  0
  139.6500   79.2366  222.4861 H   0  0  0  0  0  0  0  0  0  0  0  0
  139.1251   76.9178  223.1445 H   0  0  0  0  0  0  0  0  0  0  0  0
  1  2  1  0
  2  3  1  0
  2  4  1  0
  4  5  1  0
  5  6  1  0
  6  7  1  0
  6  8  1  0
  8  9  1  0
  9 10  1  0
 10 11  2  0
 10 12  1  0
 12 13  1  0
 13 14  1  0
 14 15  2  0
 14 16  1  0
 16 17  2  0
 17 18  1  0
 18 19  2  0
 19 20  1  0
 20 21  2  0
 21 22  1  0
 22 23  2  0
 23 24  1  0
 24 25  2  0
  9  4  1  0
 25 16  1  0
 24 19  1  0
  1 26  1  0
  1 27  1  0
  1 28  1  0
  2 29  1  0
  3 30  1  0
  3 31  1  0
  3 32  1  0
  4 33  1  1
  5 34  1  0
  5 35  1  0
  6 36  1  6
  7 37  1  0
  8 38  1  0
  8 39  1  0
 12 40  1  0
 12 41  1  0
 13 42  1  0
 17 43  1  0
 18 44  1  0
 20 45  1  0
 21 46  1  0
 22 47  1  0
 23 48  1  0
M  END
>  <smiles>  (46) 
CC(C)[C@H]1C[C@@H](O)CN1C(=O)CNC(=O)c1ccc2ccccc2n1

>  <score_type>  (46) 
oracle

>  <origin>  (46) 
autodockgpu

>  <m_score__min__energy>  (46) 
-8.1199999999999992

>  <m_primary>  (46) 
energy

>  <rmsd>  (46) 
8.35558729768026

>  <m_score__min__rmsd>  (46) 
8.35558729768026

>  <meeko>  (46) 
{"free_energy": -8.11, "intermolecular_energy": -9.9, "internal_energy": -1.22, "cluster_size": 22, "cluster_id": 1, "rank_in_cluster": 2}

>  <energy>  (46) 
-7.0

>  <cluster_rmsd>  (46) 
1.66

>  <cluster>  (46) 
4

$$$$

     RDKit          3D

 48 50  0  0  0  0  0  0  0  0999 V2000
  141.1080   68.1230  228.7000 C   0  0  0  0  0  0  0  0  0  0  0  0
  141.0170   68.4900  227.2320 C   0  0  0  0  0  0  0  0  0  0  0  0
  140.3280   67.3310  226.5520 C   0  0  0  0  0  0  0  0  0  0  0  0
  140.1330   69.7190  227.1010 C   0  0  1  0  0  0  0  0  0  0  0  0
  140.6900   70.8590  227.9320 C   0  0  0  0  0  0  0  0  0  0  0  0
  140.8670   71.9580  226.9110 C   0  0  1  0  0  0  0  0  0  0  0  0
  141.8510   72.8670  227.2320 O   0  0  0  0  0  0  0  0  0  0  0  0
  141.2520   71.1350  225.6730 C   0  0  0  0  0  0  0  0  0  0  0  0
  140.1320   70.1770  225.7130 N   0  0  0  0  0  0  0  0  0  0  0  0
  139.2690   69.8010  224.6490 C   0  0  0  0  0  0  0  0  0  0  0  0
  139.1710   68.6290  224.2070 O   0  0  0  0  0  0  0  0  0  0  0  0
  138.4370   70.8640  224.0290 C   0  0  0  0  0  0  0  0  0  0  0  0
  139.2570   71.9150  223.4590 N   0  0  0  0  0  0  0  0  0  0  0  0
  140.1000   71.5440  222.3670 C   0  0  0  0  0  0  0  0  0  0  0  0
  140.0330   70.3210  222.0200 O   0  0  0  0  0  0  0  0  0  0  0  0
  140.9760   72.4990  221.7000 C   0  0  0  0  0  0  0  0  0  0  0  0
  142.1260   72.0090  221.1220 C   0  0  0  0  0  0  0  0  0  0  0  0
  143.0390   72.8150  220.4580 C   0  0  0  0  0  0  0  0  0  0  0  0
  142.7540   74.1530  220.3930 C   0  0  0  0  0  0  0  0  0  0  0  0
  143.6470   74.9730  219.7380 C   0  0  0  0  0  0  0  0  0  0  0  0
  143.4010   76.3240  219.6480 C   0  0  0  0  0  0  0  0  0  0  0  0
  142.2460   76.7950  220.2320 C   0  0  0  0  0  0  0  0  0  0  0  0
  141.3460   75.9660  220.8920 C   0  0  0  0  0  0  0  0  0  0  0  0
  141.5950   74.6000  220.9830 C   0  0  0  0  0  0  0  0  0  0  0  0
  140.7220   73.8070  221.6220 N   0  0  0  0  0  0  0  0  0  0  0  0
  140.8883   69.0090  229.3138 H   0  0  0  0  0  0  0  0  0  0  0  0
  140.3791   67.3307  228.9257 H   0  0  0  0  0  0  0  0  0  0  0  0
  142.1226   67.7630  228.9257 H   0  0  0  0  0  0  0  0  0  0  0  0
  142.0060   68.6931  226.7953 H   0  0  0  0  0  0  0  0  0  0  0  0
  139.9221   66.6482  227.3129 H   0  0  0  0  0  0  0  0  0  0  0  0
  139.5080   67.7092  225.9239 H   0  0  0  0  0  0  0  0  0  0  0  0
  141.0521   66.7913  225.9239 H   0  0  0  0  0  0  0  0  0  0  0  0
  139.1219   69.4459  227.4374 H   0  0  0  0  0  0  0  0  0  0  0  0
  139.9824   71.1589  228.7190 H   0  0  0  0  0  0  0  0  0  0  0  0
  141.6193   70.6005  228.4608 H   0  0  0  0  0  0  0  0  0  0  0  0
  139.9752   72.5929  226.8029 H   0  0  0  0  0  0  0  0  0  0  0  0
  141.4120   73.7530  227.2660 H   0  0  0  0  0  0  0  0  0  0  0  0
  141.2520   71.7390  224.7537 H   0  0  0  0  0  0  0  0  0  0  0  0
  142.2622   70.6998  225.6755 H   0  0  0  0  0  0  0  0  0  0  0  0
  137.8226   70.4184  223.2328 H   0  0  0  0  0  0  0  0  0  0  0  0
  137.8028   71.3066  224.8113 H   0  0  0  0  0  0  0  0  0  0  0  0
  139.2590   72.8920  223.7940 H   0  0  0  0  0  0  0  0  0  0  0  0
  142.3296   70.9302  221.1899 H   0  0  0  0  0  0  0  0  0  0  0  0
  143.9504   72.3985  220.0043 H   0  0  0  0  0  0  0  0  0  0  0  0
  144.5560   74.5479  219.2874 H   0  0  0  0  0  0  0  0  0  0  0  0
  144.0981   76.9998  219.1310 H   0  0  0  0  0  0  0  0  0  0  0  0
  142.0266   77.8713  220.1738 H   0  0  0  0  0  0  0  0  0  0  0  0
  140.4365   76.3902  221.3425 H   0  0  0  0  0  0  0  0  0  0  0  0
  1  2  1  0
  2  3  1  0
  2  4  1  0
  4  5  1  0
  5  6  1  0
  6  7  1  0
  6  8  1  0
  8  9  1  0
  9 10  1  0
 10 11  2  0
 10 12  1  0
 12 13  1  0
 13 14  1  0
 14 15  2  0
 14 16  1  0
 16 17  2  0
 17 18  1  0
 18 19  2  0
 19 20  1  0
 20 21  2  0
 21 22  1  0
 22 23  2  0
 23 24  1  0
 24 25  2  0
  9  4  1  0
 25 16  1  0
 24 19  1  0
  1 26  1  0
  1 27  1  0
  1 28  1  0
  2 29  1  0
  3 30  1  0
  3 31  1  0
  3 32  1  0
  4 33  1  1
  5 34  1  0
  5 35  1  0
  6 36  1  6
  7 37  1  0
  8 38  1  0
  8 39  1  0
 12 40  1  0
 12 41  1  0
 13 42  1  0
 17 43  1  0
 18 44  1  0
 20 45  1  0
 21 46  1  0
 22 47  1  0
 23 48  1  0
M  END
>  <smiles>  (47) 
CC(C)[C@H]1C[C@@H](O)CN1C(=O)CNC(=O)c1ccc2ccccc2n1

>  <score_type>  (47) 
oracle

>  <origin>  (47) 
autodockgpu

>  <m_score__min__energy>  (47) 
-8.1199999999999992

>  <m_primary>  (47) 
energy

>  <rmsd>  (47) 
8.074532806635704

>  <m_score__min__rmsd>  (47) 
8.074532806635704

>  <meeko>  (47) 
{"free_energy": -7.77, "intermolecular_energy": -9.56, "internal_energy": -1.18, "cluster_size": 22, "cluster_id": 1, "rank_in_cluster": 15}

>  <energy>  (47) 
-6.7

>  <cluster_rmsd>  (47) 
1.83

>  <cluster>  (47) 
4

$$$$

     RDKit          3D

 48 50  0  0  0  0  0  0  0  0999 V2000
  141.0970   68.1700  228.2490 C   0  0  0  0  0  0  0  0  0  0  0  0
  140.6180   68.5310  226.8560 C   0  0  0  0  0  0  0  0  0  0  0  0
  139.5960   67.4860  226.4800 C   0  0  0  0  0  0  0  0  0  0  0  0
  139.9250   69.8810  226.9250 C   0  0  1  0  0  0  0  0  0  0  0  0
  140.6920   70.8200  227.8360 C   0  0  0  0  0  0  0  0  0  0  0  0
  140.9780   71.9970  226.9340 C   0  0  1  0  0  0  0  0  0  0  0  0
  142.1040   72.7090  227.2840 O   0  0  0  0  0  0  0  0  0  0  0  0
  141.1670   71.2830  225.5880 C   0  0  0  0  0  0  0  0  0  0  0  0
  139.9200   70.4980  225.6000 N   0  0  0  0  0  0  0  0  0  0  0  0
  138.9540   70.3810  224.5640 C   0  0  0  0  0  0  0  0  0  0  0  0
  137.7460   70.0970  224.7610 O   0  0  0  0  0  0  0  0  0  0  0  0
  139.4100   70.6130  223.1690 C   0  0  0  0  0  0  0  0  0  0  0  0
  139.5640   72.0270  222.8890 N   0  0  0  0  0  0  0  0  0  0  0  0
  140.6510   72.3950  222.0390 C   0  0  0  0  0  0  0  0  0  0  0  0
  141.3660   71.4270  221.6220 O   0  0  0  0  0  0  0  0  0  0  0  0
  140.9220   73.7800  221.6750 C   0  0  0  0  0  0  0  0  0  0  0  0
  141.8640   74.0050  220.6950 C   0  0  0  0  0  0  0  0  0  0  0  0
  142.2100   75.2770  220.2610 C   0  0  0  0  0  0  0  0  0  0  0  0
  141.5690   76.3310  220.8540 C   0  0  0  0  0  0  0  0  0  0  0  0
  141.8970   77.6040  220.4390 C   0  0  0  0  0  0  0  0  0  0  0  0
  141.2780   78.6930  221.0070 C   0  0  0  0  0  0  0  0  0  0  0  0
  140.3400   78.4470  221.9850 C   0  0  0  0  0  0  0  0  0  0  0  0
  140.0110   77.1630  222.4030 C   0  0  0  0  0  0  0  0  0  0  0  0
  140.6360   76.0620  221.8280 C   0  0  0  0  0  0  0  0  0  0  0  0
  140.3120   74.8250  222.2370 N   0  0  0  0  0  0  0  0  0  0  0  0
  140.4521   68.6560  228.9959 H   0  0  0  0  0  0  0  0  0  0  0  0
  141.0526   67.0788  228.3807 H   0  0  0  0  0  0  0  0  0  0  0  0
  142.1337   68.5133  228.3807 H   0  0  0  0  0  0  0  0  0  0  0  0
  141.4455   68.5732  226.1325 H   0  0  0  0  0  0  0  0  0  0  0  0
  139.1671   67.0474  227.3930 H   0  0  0  0  0  0  0  0  0  0  0  0
  138.7959   67.9525  225.8865 H   0  0  0  0  0  0  0  0  0  0  0  0
  140.0801   66.6965  225.8865 H   0  0  0  0  0  0  0  0  0  0  0  0
  138.9035   69.7184  227.2993 H   0  0  0  0  0  0  0  0  0  0  0  0
  140.0814   71.1214  228.6999 H   0  0  0  0  0  0  0  0  0  0  0  0
  141.5985   70.3684  228.2652 H   0  0  0  0  0  0  0  0  0  0  0  0
  140.1881   72.7620  226.9606 H   0  0  0  0  0  0  0  0  0  0  0  0
  141.7870   73.5130  227.7660 H   0  0  0  0  0  0  0  0  0  0  0  0
  141.2086   71.9874  224.7442 H   0  0  0  0  0  0  0  0  0  0  0  0
  142.0987   70.7102  225.4703 H   0  0  0  0  0  0  0  0  0  0  0  0
  140.3780   70.1118  223.0213 H   0  0  0  0  0  0  0  0  0  0  0  0
  138.6503   70.2063  222.4853 H   0  0  0  0  0  0  0  0  0  0  0  0
  138.9410   72.7610  223.2640 H   0  0  0  0  0  0  0  0  0  0  0  0
  142.3635   73.1388  220.2367 H   0  0  0  0  0  0  0  0  0  0  0  0
  142.9651   75.4311  219.4761 H   0  0  0  0  0  0  0  0  0  0  0  0
  142.6536   77.7488  219.6538 H   0  0  0  0  0  0  0  0  0  0  0  0
  141.5221   79.7186  220.6930 H   0  0  0  0  0  0  0  0  0  0  0  0
  139.8305   79.3015  222.4544 H   0  0  0  0  0  0  0  0  0  0  0  0
  139.2556   77.0176  223.1893 H   0  0  0  0  0  0  0  0  0  0  0  0
  1  2  1  0
  2  3  1  0
  2  4  1  0
  4  5  1  0
  5  6  1  0
  6  7  1  0
  6  8  1  0
  8  9  1  0
  9 10  1  0
 10 11  2  0
 10 12  1  0
 12 13  1  0
 13 14  1  0
 14 15  2  0
 14 16  1  0
 16 17  2  0
 17 18  1  0
 18 19  2  0
 19 20  1  0
 20 21  2  0
 21 22  1  0
 22 23  2  0
 23 24  1  0
 24 25  2  0
  9  4  1  0
 25 16  1  0
 24 19  1  0
  1 26  1  0
  1 27  1  0
  1 28  1  0
  2 29  1  0
  3 30  1  0
  3 31  1  0
  3 32  1  0
  4 33  1  1
  5 34  1  0
  5 35  1  0
  6 36  1  6
  7 37  1  0
  8 38  1  0
  8 39  1  0
 12 40  1  0
 12 41  1  0
 13 42  1  0
 17 43  1  0
 18 44  1  0
 20 45  1  0
 21 46  1  0
 22 47  1  0
 23 48  1  0
M  END
>  <smiles>  (48) 
CC(C)[C@H]1C[C@@H](O)CN1C(=O)CNC(=O)c1ccc2ccccc2n1

>  <score_type>  (48) 
oracle

>  <origin>  (48) 
autodockgpu

>  <m_score__min__energy>  (48) 
-8.1199999999999992

>  <m_primary>  (48) 
energy

>  <rmsd>  (48) 
8.302129636670761

>  <m_score__min__rmsd>  (48) 
8.302129636670761

>  <meeko>  (48) 
{"free_energy": -7.93, "intermolecular_energy": -9.72, "internal_energy": -1.26, "cluster_size": 22, "cluster_id": 1, "rank_in_cluster": 14}

>  <energy>  (48) 
-6.8

>  <cluster_rmsd>  (48) 
0.0

>  <cluster>  (48) 
5

$$$$

     RDKit          3D

 48 50  0  0  0  0  0  0  0  0999 V2000
  142.5670   79.8980  222.4620 C   0  0  0  0  0  0  0  0  0  0  0  0
  141.6210   78.7430  222.7300 C   0  0  0  0  0  0  0  0  0  0  0  0
  140.6370   79.2400  223.7620 C   0  0  0  0  0  0  0  0  0  0  0  0
  140.8650   78.4390  221.4490 C   0  0  1  0  0  0  0  0  0  0  0  0
  141.6050   79.0060  220.2530 C   0  0  0  0  0  0  0  0  0  0  0  0
  141.8120   77.7880  219.3840 C   0  0  1  0  0  0  0  0  0  0  0  0
  142.9100   77.8720  218.5560 O   0  0  0  0  0  0  0  0  0  0  0  0
  142.0050   76.7060  220.4550 C   0  0  0  0  0  0  0  0  0  0  0  0
  140.7980   76.9920  221.2510 N   0  0  0  0  0  0  0  0  0  0  0  0
  139.8160   76.0720  221.7060 C   0  0  0  0  0  0  0  0  0  0  0  0
  138.8510   76.3870  222.4470 O   0  0  0  0  0  0  0  0  0  0  0  0
  139.9450   74.6570  221.2740 C   0  0  0  0  0  0  0  0  0  0  0  0
  139.6190   73.7420  222.3500 N   0  0  0  0  0  0  0  0  0  0  0  0
  140.4750   72.6080  222.5050 C   0  0  0  0  0  0  0  0  0  0  0  0
  141.4340   72.5330  221.6710 O   0  0  0  0  0  0  0  0  0  0  0  0
  140.2640   71.6090  223.5450 C   0  0  0  0  0  0  0  0  0  0  0  0
  139.5960   70.4570  223.1920 C   0  0  0  0  0  0  0  0  0  0  0  0
  139.3340   69.4320  224.0900 C   0  0  0  0  0  0  0  0  0  0  0  0
  139.7710   69.6070  225.3760 C   0  0  0  0  0  0  0  0  0  0  0  0
  139.5220   68.6020  226.2850 C   0  0  0  0  0  0  0  0  0  0  0  0
  139.9430   68.7340  227.5880 C   0  0  0  0  0  0  0  0  0  0  0  0
  140.6080   69.8930  227.9220 C   0  0  0  0  0  0  0  0  0  0  0  0
  140.8590   70.9050  227.0030 C   0  0  0  0  0  0  0  0  0  0  0  0
  140.4330   70.7720  225.6860 C   0  0  0  0  0  0  0  0  0  0  0  0
  140.6790   71.7540  224.8050 N   0  0  0  0  0  0  0  0  0  0  0  0
  142.9118   80.3190  223.4180 H   0  0  0  0  0  0  0  0  0  0  0  0
  143.4325   79.5372  221.8868 H   0  0  0  0  0  0  0  0  0  0  0  0
  142.0428   80.6754  221.8868 H   0  0  0  0  0  0  0  0  0  0  0  0
  142.1529   77.8425  223.0709 H   0  0  0  0  0  0  0  0  0  0  0  0
  141.0307   79.0411  224.7697 H   0  0  0  0  0  0  0  0  0  0  0  0
  140.4867   80.3221  223.6340 H   0  0  0  0  0  0  0  0  0  0  0  0
  139.6768   78.7188  223.6340 H   0  0  0  0  0  0  0  0  0  0  0  0
  139.8620   78.8824  221.5348 H   0  0  0  0  0  0  0  0  0  0  0  0
  140.9999   79.7647  219.7352 H   0  0  0  0  0  0  0  0  0  0  0  0
  142.5421   79.5161  220.5207 H   0  0  0  0  0  0  0  0  0  0  0  0
  140.9863   77.6175  218.6775 H   0  0  0  0  0  0  0  0  0  0  0  0
  143.7050   77.8700  219.1450 H   0  0  0  0  0  0  0  0  0  0  0  0
  141.9937   75.6915  220.0299 H   0  0  0  0  0  0  0  0  0  0  0  0
  142.9605   76.7291  220.9995 H   0  0  0  0  0  0  0  0  0  0  0  0
  139.2611   74.4765  220.4316 H   0  0  0  0  0  0  0  0  0  0  0  0
  140.9889   74.4809  220.9751 H   0  0  0  0  0  0  0  0  0  0  0  0
  138.8200   73.8670  222.9930 H   0  0  0  0  0  0  0  0  0  0  0  0
  139.2552   70.3447  222.1522 H   0  0  0  0  0  0  0  0  0  0  0  0
  138.7998   68.5207  223.7829 H   0  0  0  0  0  0  0  0  0  0  0  0
  138.9868   67.6944  225.9690 H   0  0  0  0  0  0  0  0  0  0  0  0
  139.7562   67.9462  228.3326 H   0  0  0  0  0  0  0  0  0  0  0  0
  140.9544   70.0229  228.9579 H   0  0  0  0  0  0  0  0  0  0  0  0
  141.3953   71.8123  227.3179 H   0  0  0  0  0  0  0  0  0  0  0  0
  1  2  1  0
  2  3  1  0
  2  4  1  0
  4  5  1  0
  5  6  1  0
  6  7  1  0
  6  8  1  0
  8  9  1  0
  9 10  1  0
 10 11  2  0
 10 12  1  0
 12 13  1  0
 13 14  1  0
 14 15  2  0
 14 16  1  0
 16 17  2  0
 17 18  1  0
 18 19  2  0
 19 20  1  0
 20 21  2  0
 21 22  1  0
 22 23  2  0
 23 24  1  0
 24 25  2  0
  9  4  1  0
 25 16  1  0
 24 19  1  0
  1 26  1  0
  1 27  1  0
  1 28  1  0
  2 29  1  0
  3 30  1  0
  3 31  1  0
  3 32  1  0
  4 33  1  1
  5 34  1  0
  5 35  1  0
  6 36  1  6
  7 37  1  0
  8 38  1  0
  8 39  1  0
 12 40  1  0
 12 41  1  0
 13 42  1  0
 17 43  1  0
 18 44  1  0
 20 45  1  0
 21 46  1  0
 22 47  1  0
 23 48  1  0
M  END
>  <smiles>  (49) 
CC(C)[C@H]1C[C@@H](O)CN1C(=O)CNC(=O)c1ccc2ccccc2n1

>  <score_type>  (49) 
oracle

>  <origin>  (49) 
autodockgpu

>  <m_score__min__energy>  (49) 
-8.1199999999999992

>  <m_primary>  (49) 
energy

>  <rmsd>  (49) 
2.2713204165125727

>  <m_score__min__rmsd>  (49) 
2.2713204165125727

>  <meeko>  (49) 
{"free_energy": -7.89, "intermolecular_energy": -9.68, "internal_energy": -1.18, "cluster_size": 14, "cluster_id": 3, "rank_in_cluster": 5}

>  <energy>  (49) 
-6.71

>  <cluster_rmsd>  (49) 
0.0

>  <cluster>  (49) 
6

$$$$

     RDKit          3D

 48 50  0  0  0  0  0  0  0  0999 V2000
  140.9470   68.2690  227.9430 C   0  0  0  0  0  0  0  0  0  0  0  0
  140.3900   68.4210  226.5400 C   0  0  0  0  0  0  0  0  0  0  0  0
  139.3010   67.3840  226.4080 C   0  0  0  0  0  0  0  0  0  0  0  0
  139.7610   69.7980  226.4240 C   0  0  1  0  0  0  0  0  0  0  0  0
  140.1960   70.6760  227.5820 C   0  0  0  0  0  0  0  0  0  0  0  0
  140.8150   71.8630  226.8840 C   0  0  1  0  0  0  0  0  0  0  0  0
  141.7740   72.5130  227.6300 O   0  0  0  0  0  0  0  0  0  0  0  0
  141.4350   71.1790  225.6570 C   0  0  0  0  0  0  0  0  0  0  0  0
  140.2350   70.4520  225.2050 N   0  0  0  0  0  0  0  0  0  0  0  0
  139.6840   70.4090  223.8960 C   0  0  0  0  0  0  0  0  0  0  0  0
  140.2970   70.7840  222.8660 O   0  0  0  0  0  0  0  0  0  0  0  0
  138.3010   69.8870  223.7480 C   0  0  0  0  0  0  0  0  0  0  0  0
  137.3400   70.7280  224.4340 N   0  0  0  0  0  0  0  0  0  0  0  0
  136.0520   70.1590  224.6770 C   0  0  0  0  0  0  0  0  0  0  0  0
  135.8970   68.9670  224.2570 O   0  0  0  0  0  0  0  0  0  0  0  0
  134.9920   70.8930  225.3570 C   0  0  0  0  0  0  0  0  0  0  0  0
  134.0870   70.1610  226.0940 C   0  0  0  0  0  0  0  0  0  0  0  0
  133.0340   70.7410  226.7870 C   0  0  0  0  0  0  0  0  0  0  0  0
  132.9190   72.1040  226.7120 C   0  0  0  0  0  0  0  0  0  0  0  0
  131.8800   72.7030  227.3920 C   0  0  0  0  0  0  0  0  0  0  0  0
  131.7250   74.0680  227.3460 C   0  0  0  0  0  0  0  0  0  0  0  0
  132.6390   74.7820  226.6030 C   0  0  0  0  0  0  0  0  0  0  0  0
  133.6860   74.1770  225.9180 C   0  0  0  0  0  0  0  0  0  0  0  0
  133.8430   72.7960  225.9650 C   0  0  0  0  0  0  0  0  0  0  0  0
  134.8560   72.2190  225.3010 N   0  0  0  0  0  0  0  0  0  0  0  0
  140.1564   68.4847  228.6767 H   0  0  0  0  0  0  0  0  0  0  0  0
  141.3078   67.2396  228.0847 H   0  0  0  0  0  0  0  0  0  0  0  0
  141.7807   68.9725  228.0847 H   0  0  0  0  0  0  0  0  0  0  0  0
  141.1669   68.2999  225.7708 H   0  0  0  0  0  0  0  0  0  0  0  0
  138.9708   67.0696  227.4091 H   0  0  0  0  0  0  0  0  0  0  0  0
  138.4499   67.8138  225.8594 H   0  0  0  0  0  0  0  0  0  0  0  0
  139.6887   66.5130  225.8594 H   0  0  0  0  0  0  0  0  0  0  0  0
  138.6684   69.6711  226.4174 H   0  0  0  0  0  0  0  0  0  0  0  0
  139.3344   70.9808  228.1942 H   0  0  0  0  0  0  0  0  0  0  0  0
  140.8826   70.1720  228.2781 H   0  0  0  0  0  0  0  0  0  0  0  0
  140.0900   72.6618  226.6689 H   0  0  0  0  0  0  0  0  0  0  0  0
  141.8120   73.4410  227.2880 H   0  0  0  0  0  0  0  0  0  0  0  0
  141.7899   71.9041  224.9098 H   0  0  0  0  0  0  0  0  0  0  0  0
  142.3302   70.5676  225.8438 H   0  0  0  0  0  0  0  0  0  0  0  0
  138.0451   69.8505  222.6788 H   0  0  0  0  0  0  0  0  0  0  0  0
  138.2614   68.8824  224.1944 H   0  0  0  0  0  0  0  0  0  0  0  0
  137.5370   71.6920  224.7490 H   0  0  0  0  0  0  0  0  0  0  0  0
  134.2044   69.0681  226.1349 H   0  0  0  0  0  0  0  0  0  0  0  0
  132.3247   70.1346  227.3694 H   0  0  0  0  0  0  0  0  0  0  0  0
  131.1751   72.0886  227.9713 H   0  0  0  0  0  0  0  0  0  0  0  0
  130.9048   74.5695  227.8805 H   0  0  0  0  0  0  0  0  0  0  0  0
  132.5360   75.8759  226.5496 H   0  0  0  0  0  0  0  0  0  0  0  0
  134.3910   74.7909  225.3383 H   0  0  0  0  0  0  0  0  0  0  0  0
  1  2  1  0
  2  3  1  0
  2  4  1  0
  4  5  1  0
  5  6  1  0
  6  7  1  0
  6  8  1  0
  8  9  1  0
  9 10  1  0
 10 11  2  0
 10 12  1  0
 12 13  1  0
 13 14  1  0
 14 15  2  0
 14 16  1  0
 16 17  2  0
 17 18  1  0
 18 19  2  0
 19 20  1  0
 20 21  2  0
 21 22  1  0
 22 23  2  0
 23 24  1  0
 24 25  2  0
  9  4  1  0
 25 16  1  0
 24 19  1  0
  1 26  1  0
  1 27  1  0
  1 28  1  0
  2 29  1  0
  3 30  1  0
  3 31  1  0
  3 32  1  0
  4 33  1  6
  5 34  1  0
  5 35  1  0
  6 36  1  6
  7 37  1  0
  8 38  1  0
  8 39  1  0
 12 40  1  0
 12 41  1  0
 13 42  1  0
 17 43  1  0
 18 44  1  0
 20 45  1  0
 21 46  1  0
 22 47  1  0
 23 48  1  0
M  END
>  <smiles>  (50) 
CC(C)[C@H]1C[C@@H](O)CN1C(=O)CNC(=O)c1ccc2ccccc2n1

>  <score_type>  (50) 
oracle

>  <origin>  (50) 
autodockgpu

>  <m_score__min__energy>  (50) 
-8.1199999999999992

>  <m_primary>  (50) 
energy

>  <rmsd>  (50) 
7.965057062839358

>  <m_score__min__rmsd>  (50) 
7.965057062839358

>  <meeko>  (50) 
{"free_energy": -7.14, "intermolecular_energy": -8.93, "internal_energy": -1.32, "cluster_size": 5, "cluster_id": 2, "rank_in_cluster": 5}

>  <energy>  (50) 
-6.53

>  <cluster_rmsd>  (50) 
0.45

>  <cluster>  (50) 
6

$$$$
