
     RDKit          3D

 66 68  0  0  0  0  0  0  0  0999 V2000
  139.0230   73.5100  219.7460 C   0  0  0  0  0  0  0  0  0  0  0  0
  140.1970   72.7130  220.2990 C   0  0  0  0  0  0  0  0  0  0  0  0
  141.0670   73.6290  221.1330 C   0  0  0  0  0  0  0  0  0  0  0  0
  140.6630   73.7710  222.3070 O   0  0  0  0  0  0  0  0  0  0  0  0
  142.2270   74.2430  220.5730 N   0  0  0  0  0  0  0  0  0  0  0  0
  143.4640   73.5670  220.3970 C   0  0  0  0  0  0  0  0  0  0  0  0
  144.6650   74.1770  220.7650 C   0  0  0  0  0  0  0  0  0  0  0  0
  145.8870   73.5340  220.6100 C   0  0  0  0  0  0  0  0  0  0  0  0
  145.9740   72.2730  220.0900 C   0  0  0  0  0  0  0  0  0  0  0  0
  144.8090   71.6500  219.7220 C   0  0  0  0  0  0  0  0  0  0  0  0
  143.5820   72.2970  219.8770 C   0  0  0  0  0  0  0  0  0  0  0  0
  142.0660   75.6360  220.1840 C   0  0  0  0  0  0  0  0  0  0  0  0
  141.9340   75.8550  218.6960 C   0  0  0  0  0  0  0  0  0  0  0  0
  142.2460   77.3470  218.4880 C   0  0  0  0  0  0  0  0  0  0  0  0
  141.5000   78.1570  219.4270 N   0  0  0  0  0  0  0  0  0  0  0  0
  141.8600   79.5220  219.5750 C   0  0  0  0  0  0  0  0  0  0  0  0
  142.8330   79.9410  218.8980 O   0  0  0  0  0  0  0  0  0  0  0  0
  141.1010   80.4370  220.5160 C   0  0  2  0  0  0  0  0  0  0  0  0
  140.6240   81.5840  219.6310 C   0  0  0  0  0  0  0  0  0  0  0  0
  142.0370   80.8220  221.5170 N   0  0  0  0  0  0  0  0  0  0  0  0
  141.8390   80.3400  222.8360 C   0  0  0  0  0  0  0  0  0  0  0  0
  142.1910   81.3640  223.8980 C   0  0  0  0  0  0  0  0  0  0  0  0
  142.5400   79.0510  223.0990 C   0  0  0  0  0  0  0  0  0  0  0  0
  140.3690   80.0550  223.0040 C   0  0  0  0  0  0  0  0  0  0  0  0
  139.4800   81.0630  223.3560 C   0  0  0  0  0  0  0  0  0  0  0  0
  138.1300   80.8270  223.5150 C   0  0  0  0  0  0  0  0  0  0  0  0
  137.6220   79.5470  223.3240 C   0  0  0  0  0  0  0  0  0  0  0  0
  138.4950   78.5380  222.9750 C   0  0  0  0  0  0  0  0  0  0  0  0
  137.8280   76.7910  222.7150 Br  0  0  0  0  0  0  0  0  0  0  0  0
  139.8390   78.7980  222.8210 C   0  0  0  0  0  0  0  0  0  0  0  0
  140.4420   77.5170  220.1850 C   0  0  0  0  0  0  0  0  0  0  0  0
  141.1630   76.4500  221.0340 C   0  0  0  0  0  0  0  0  0  0  0  0
  138.4288   73.9134  220.5792 H   0  0  0  0  0  0  0  0  0  0  0  0
  139.4006   74.3392  219.1297 H   0  0  0  0  0  0  0  0  0  0  0  0
  138.3917   72.8530  219.1297 H   0  0  0  0  0  0  0  0  0  0  0  0
  139.8216   71.8903  220.9253 H   0  0  0  0  0  0  0  0  0  0  0  0
  140.7862   72.2959  219.4690 H   0  0  0  0  0  0  0  0  0  0  0  0
  144.6431   75.1921  221.1882 H   0  0  0  0  0  0  0  0  0  0  0  0
  146.8080   74.0532  220.9136 H   0  0  0  0  0  0  0  0  0  0  0  0
  146.9470   71.7740  219.9705 H   0  0  0  0  0  0  0  0  0  0  0  0
  144.8418   70.6339  219.3020 H   0  0  0  0  0  0  0  0  0  0  0  0
  142.6675   71.7685  219.5698 H   0  0  0  0  0  0  0  0  0  0  0  0
  143.0444   76.0762  220.4267 H   0  0  0  0  0  0  0  0  0  0  0  0
  142.6528   75.2288  218.1471 H   0  0  0  0  0  0  0  0  0  0  0  0
  140.9348   75.5844  218.3240 H   0  0  0  0  0  0  0  0  0  0  0  0
  143.3223   77.5162  218.6394 H   0  0  0  0  0  0  0  0  0  0  0  0
  141.9573   77.6314  217.4654 H   0  0  0  0  0  0  0  0  0  0  0  0
  140.2292   80.0050  221.0292 H   0  0  0  0  0  0  0  0  0  0  0  0
  140.2783   82.4154  220.2629 H   0  0  0  0  0  0  0  0  0  0  0  0
  141.4541   81.9268  218.9959 H   0  0  0  0  0  0  0  0  0  0  0  0
  139.7956   81.2370  218.9959 H   0  0  0  0  0  0  0  0  0  0  0  0
  143.0000   80.5820  221.1610 H   0  0  0  0  0  0  0  0  0  0  0  0
  142.0400   80.9248  224.8952 H   0  0  0  0  0  0  0  0  0  0  0  0
  143.2435   81.6630  223.7845 H   0  0  0  0  0  0  0  0  0  0  0  0
  141.5448   82.2469  223.7845 H   0  0  0  0  0  0  0  0  0  0  0  0
  142.6250   78.8947  224.1845 H   0  0  0  0  0  0  0  0  0  0  0  0
  141.9671   78.2245  222.6533 H   0  0  0  0  0  0  0  0  0  0  0  0
  143.5451   79.0827  222.6533 H   0  0  0  0  0  0  0  0  0  0  0  0
  139.8647   82.0815  223.5129 H   0  0  0  0  0  0  0  0  0  0  0  0
  137.4561   81.6509  223.7927 H   0  0  0  0  0  0  0  0  0  0  0  0
  136.5481   79.3437  223.4484 H   0  0  0  0  0  0  0  0  0  0  0  0
  140.5113   77.9732  222.5424 H   0  0  0  0  0  0  0  0  0  0  0  0
  139.9307   78.2464  220.8303 H   0  0  0  0  0  0  0  0  0  0  0  0
  139.6685   77.0810  219.5357 H   0  0  0  0  0  0  0  0  0  0  0  0
  141.7537   76.9482  221.8169 H   0  0  0  0  0  0  0  0  0  0  0  0
  140.4111   75.7894  221.4904 H   0  0  0  0  0  0  0  0  0  0  0  0
  1  2  1  0
  2  3  1  0
  3  4  2  0
  3  5  1  0
  5  6  1  0
  6  7  2  0
  7  8  1  0
  8  9  2  0
  9 10  1  0
 10 11  2  0
  5 12  1  0
 12 13  1  0
 13 14  1  0
 14 15  1  0
 15 16  1  0
 16 17  2  0
 16 18  1  0
 18 19  1  0
 18 20  1  0
 20 21  1  0
 21 22  1  0
 21 23  1  0
 21 24  1  0
 24 25  2  0
 25 26  1  0
 26 27  2  0
 27 28  1  0
 28 29  1  0
 28 30  2  0
 15 31  1  0
 31 32  1  0
 11  6  1  0
 32 12  1  0
 30 24  1  0
  1 33  1  0
  1 34  1  0
  1 35  1  0
  2 36  1  0
  2 37  1  0
  7 38  1  0
  8 39  1  0
  9 40  1  0
 10 41  1  0
 11 42  1  0
 12 43  1  0
 13 44  1  0
 13 45  1  0
 14 46  1  0
 14 47  1  0
 18 48  1  1
 19 49  1  0
 19 50  1  0
 19 51  1  0
 20 52  1  0
 22 53  1  0
 22 54  1  0
 22 55  1  0
 23 56  1  0
 23 57  1  0
 23 58  1  0
 25 59  1  0
 26 60  1  0
 27 61  1  0
 30 62  1  0
 31 63  1  0
 31 64  1  0
 32 65  1  0
 32 66  1  0
M  END
>  <smiles>  (1) 
CCC(=O)N(c1ccccc1)C1CCN(C(=O)[C@H](C)NC(C)(C)c2cccc(Br)c2)CC1

>  <score_type>  (1) 
oracle

>  <origin>  (1) 
autodockgpu

>  <m_score__min__energy>  (1) 
-8.9299999999999997

>  <m_primary>  (1) 
energy

>  <rmsd>  (1) 
3.2932583037477716

>  <m_score__min__rmsd>  (1) 
3.2932583037477716

>  <meeko>  (1) 
{"free_energy": -7.54, "intermolecular_energy": -9.93, "internal_energy": -3.26, "cluster_size": 10, "cluster_id": 9, "rank_in_cluster": 4}

>  <energy>  (1) 
-8.93

>  <cluster_rmsd>  (1) 
0.0

>  <cluster>  (1) 
1

$$$$

     RDKit          3D

 66 68  0  0  0  0  0  0  0  0999 V2000
  136.2410   74.4380  222.7330 C   0  0  0  0  0  0  0  0  0  0  0  0
  137.6010   74.4430  222.0480 C   0  0  0  0  0  0  0  0  0  0  0  0
  138.0390   73.0140  221.8070 C   0  0  0  0  0  0  0  0  0  0  0  0
  137.1560   72.3020  221.2830 O   0  0  0  0  0  0  0  0  0  0  0  0
  139.3500   72.5820  222.1690 N   0  0  0  0  0  0  0  0  0  0  0  0
  139.6070   71.6400  223.2010 C   0  0  0  0  0  0  0  0  0  0  0  0
  140.5550   71.9130  224.1900 C   0  0  0  0  0  0  0  0  0  0  0  0
  140.8190   71.0110  225.2150 C   0  0  0  0  0  0  0  0  0  0  0  0
  140.1660   69.8140  225.3030 C   0  0  0  0  0  0  0  0  0  0  0  0
  139.2290   69.5210  224.3450 C   0  0  0  0  0  0  0  0  0  0  0  0
  138.9650   70.4270  223.3170 C   0  0  0  0  0  0  0  0  0  0  0  0
  140.4340   73.1760  221.4010 C   0  0  0  0  0  0  0  0  0  0  0  0
  141.6390   72.2830  221.2310 C   0  0  0  0  0  0  0  0  0  0  0  0
  142.7810   73.2330  220.8330 C   0  0  0  0  0  0  0  0  0  0  0  0
  142.3570   74.1190  219.7690 N   0  0  0  0  0  0  0  0  0  0  0  0
  143.1710   75.2390  219.4600 C   0  0  0  0  0  0  0  0  0  0  0  0
  144.2050   75.4140  220.1550 O   0  0  0  0  0  0  0  0  0  0  0  0
  142.8050   76.1900  218.3380 C   0  0  2  0  0  0  0  0  0  0  0  0
  143.7660   75.8350  217.2080 C   0  0  0  0  0  0  0  0  0  0  0  0
  142.9850   77.4990  218.8680 N   0  0  0  0  0  0  0  0  0  0  0  0
  141.8280   78.2540  219.1870 C   0  0  0  0  0  0  0  0  0  0  0  0
  140.5520   77.6380  218.6460 C   0  0  0  0  0  0  0  0  0  0  0  0
  141.9320   79.6840  218.7800 C   0  0  0  0  0  0  0  0  0  0  0  0
  141.6830   78.2580  220.6870 C   0  0  0  0  0  0  0  0  0  0  0  0
  141.1030   77.1870  221.3540 C   0  0  0  0  0  0  0  0  0  0  0  0
  140.9600   77.1670  222.7260 C   0  0  0  0  0  0  0  0  0  0  0  0
  141.4020   78.2450  223.4850 C   0  0  0  0  0  0  0  0  0  0  0  0
  141.9790   79.3160  222.8340 C   0  0  0  0  0  0  0  0  0  0  0  0
  142.5820   80.7920  223.8440 Br  0  0  0  0  0  0  0  0  0  0  0  0
  142.1120   79.3120  221.4630 C   0  0  0  0  0  0  0  0  0  0  0  0
  141.1060   73.8220  219.0970 C   0  0  0  0  0  0  0  0  0  0  0  0
  140.0350   73.9490  220.1990 C   0  0  0  0  0  0  0  0  0  0  0  0
  136.3800   74.4385  223.8242 H   0  0  0  0  0  0  0  0  0  0  0  0
  135.6770   75.3341  222.4348 H   0  0  0  0  0  0  0  0  0  0  0  0
  135.6836   73.5378  222.4348 H   0  0  0  0  0  0  0  0  0  0  0  0
  137.5275   74.9729  221.0869 H   0  0  0  0  0  0  0  0  0  0  0  0
  138.3363   74.9534  222.6874 H   0  0  0  0  0  0  0  0  0  0  0  0
  141.1060   72.8645  224.1572 H   0  0  0  0  0  0  0  0  0  0  0  0
  141.5726   71.2677  225.9741 H   0  0  0  0  0  0  0  0  0  0  0  0
  140.3849   69.1072  226.1169 H   0  0  0  0  0  0  0  0  0  0  0  0
  138.6830   68.5670  224.3873 H   0  0  0  0  0  0  0  0  0  0  0  0
  138.2088   70.1599  222.5641 H   0  0  0  0  0  0  0  0  0  0  0  0
  140.7948   73.9776  222.0623 H   0  0  0  0  0  0  0  0  0  0  0  0
  141.8750   71.7674  222.1736 H   0  0  0  0  0  0  0  0  0  0  0  0
  141.4709   71.4986  220.4783 H   0  0  0  0  0  0  0  0  0  0  0  0
  143.0746   73.8322  221.7075 H   0  0  0  0  0  0  0  0  0  0  0  0
  143.6337   72.6351  220.4790 H   0  0  0  0  0  0  0  0  0  0  0  0
  141.7758   76.1289  217.9547 H   0  0  0  0  0  0  0  0  0  0  0  0
  144.7178   75.4834  217.6329 H   0  0  0  0  0  0  0  0  0  0  0  0
  143.3254   75.0403  216.5881 H   0  0  0  0  0  0  0  0  0  0  0  0
  143.9479   76.7253  216.5881 H   0  0  0  0  0  0  0  0  0  0  0  0
  143.6340   77.4210  219.6950 H   0  0  0  0  0  0  0  0  0  0  0  0
  139.9104   77.3283  219.4841 H   0  0  0  0  0  0  0  0  0  0  0  0
  140.0196   78.3783  218.0308 H   0  0  0  0  0  0  0  0  0  0  0  0
  140.8006   76.7607  218.0308 H   0  0  0  0  0  0  0  0  0  0  0  0
  141.9781   80.3183  219.6775 H   0  0  0  0  0  0  0  0  0  0  0  0
  142.8431   79.8294  218.1810 H   0  0  0  0  0  0  0  0  0  0  0  0
  141.0515   79.9597  218.1810 H   0  0  0  0  0  0  0  0  0  0  0  0
  140.7459   76.3264  220.7693 H   0  0  0  0  0  0  0  0  0  0  0  0
  140.4970   76.2994  223.2189 H   0  0  0  0  0  0  0  0  0  0  0  0
  141.2941   78.2440  224.5797 H   0  0  0  0  0  0  0  0  0  0  0  0
  142.5764   80.1796  220.9714 H   0  0  0  0  0  0  0  0  0  0  0  0
  140.9186   74.5433  218.2880 H   0  0  0  0  0  0  0  0  0  0  0  0
  141.1088   72.8262  218.6298 H   0  0  0  0  0  0  0  0  0  0  0  0
  139.9195   75.0084  220.4715 H   0  0  0  0  0  0  0  0  0  0  0  0
  139.0831   73.5501  219.8185 H   0  0  0  0  0  0  0  0  0  0  0  0
  1  2  1  0
  2  3  1  0
  3  4  2  0
  3  5  1  0
  5  6  1  0
  6  7  2  0
  7  8  1  0
  8  9  2  0
  9 10  1  0
 10 11  2  0
  5 12  1  0
 12 13  1  0
 13 14  1  0
 14 15  1  0
 15 16  1  0
 16 17  2  0
 16 18  1  0
 18 19  1  0
 18 20  1  0
 20 21  1  0
 21 22  1  0
 21 23  1  0
 21 24  1  0
 24 25  2  0
 25 26  1  0
 26 27  2  0
 27 28  1  0
 28 29  1  0
 28 30  2  0
 15 31  1  0
 31 32  1  0
 11  6  1  0
 32 12  1  0
 30 24  1  0
  1 33  1  0
  1 34  1  0
  1 35  1  0
  2 36  1  0
  2 37  1  0
  7 38  1  0
  8 39  1  0
  9 40  1  0
 10 41  1  0
 11 42  1  0
 12 43  1  0
 13 44  1  0
 13 45  1  0
 14 46  1  0
 14 47  1  0
 18 48  1  6
 19 49  1  0
 19 50  1  0
 19 51  1  0
 20 52  1  0
 22 53  1  0
 22 54  1  0
 22 55  1  0
 23 56  1  0
 23 57  1  0
 23 58  1  0
 25 59  1  0
 26 60  1  0
 27 61  1  0
 30 62  1  0
 31 63  1  0
 31 64  1  0
 32 65  1  0
 32 66  1  0
M  END
>  <smiles>  (2) 
CCC(=O)N(c1ccccc1)C1CCN(C(=O)[C@H](C)NC(C)(C)c2cccc(Br)c2)CC1

>  <score_type>  (2) 
oracle

>  <origin>  (2) 
autodockgpu

>  <m_score__min__energy>  (2) 
-8.9299999999999997

>  <m_primary>  (2) 
energy

>  <rmsd>  (2) 
4.544635109899092

>  <m_score__min__rmsd>  (2) 
4.544635109899092

>  <meeko>  (2) 
{"free_energy": -7.06, "intermolecular_energy": -9.45, "internal_energy": -3.33, "cluster_size": 7, "cluster_id": 5, "rank_in_cluster": 5}

>  <energy>  (2) 
-8.9

>  <cluster_rmsd>  (2) 
0.28

>  <cluster>  (2) 
1

$$$$

     RDKit          3D

 66 68  0  0  0  0  0  0  0  0999 V2000
  142.4560   80.5610  223.4800 C   0  0  0  0  0  0  0  0  0  0  0  0
  141.1060   79.8630  223.3750 C   0  0  0  0  0  0  0  0  0  0  0  0
  141.3300   78.3950  223.0860 C   0  0  0  0  0  0  0  0  0  0  0  0
  141.8630   77.7740  224.0320 O   0  0  0  0  0  0  0  0  0  0  0  0
  140.9480   77.8300  221.8320 N   0  0  0  0  0  0  0  0  0  0  0  0
  141.5790   78.1550  220.6020 C   0  0  0  0  0  0  0  0  0  0  0  0
  142.3260   77.1970  219.9130 C   0  0  0  0  0  0  0  0  0  0  0  0
  142.9470   77.4880  218.7040 C   0  0  0  0  0  0  0  0  0  0  0  0
  142.8580   78.7250  218.1310 C   0  0  0  0  0  0  0  0  0  0  0  0
  142.1300   79.6850  218.7860 C   0  0  0  0  0  0  0  0  0  0  0  0
  141.5070   79.3920  220.0000 C   0  0  0  0  0  0  0  0  0  0  0  0
  139.8470   76.8800  221.8890 C   0  0  0  0  0  0  0  0  0  0  0  0
  138.4870   77.4870  221.6460 C   0  0  0  0  0  0  0  0  0  0  0  0
  137.4900   76.4570  222.2020 C   0  0  0  0  0  0  0  0  0  0  0  0
  137.8080   75.1300  221.7190 N   0  0  0  0  0  0  0  0  0  0  0  0
  137.1770   74.0180  222.3360 C   0  0  0  0  0  0  0  0  0  0  0  0
  136.3970   74.2530  223.2940 O   0  0  0  0  0  0  0  0  0  0  0  0
  137.4390   72.6030  221.8600 C   0  0  2  0  0  0  0  0  0  0  0  0
  136.0980   72.1330  221.3060 C   0  0  0  0  0  0  0  0  0  0  0  0
  137.8810   71.8860  223.0070 N   0  0  0  0  0  0  0  0  0  0  0  0
  139.1750   71.3060  222.9730 C   0  0  0  0  0  0  0  0  0  0  0  0
  140.2740   72.3270  222.7530 C   0  0  0  0  0  0  0  0  0  0  0  0
  139.2900   70.1920  221.9880 C   0  0  0  0  0  0  0  0  0  0  0  0
  139.4390   70.6940  224.3240 C   0  0  0  0  0  0  0  0  0  0  0  0
  139.0960   69.3750  224.5930 C   0  0  0  0  0  0  0  0  0  0  0  0
  139.3290   68.7930  225.8220 C   0  0  0  0  0  0  0  0  0  0  0  0
  139.9220   69.5330  226.8390 C   0  0  0  0  0  0  0  0  0  0  0  0
  140.2660   70.8440  226.5850 C   0  0  0  0  0  0  0  0  0  0  0  0
  141.0690   71.8690  227.9520 Br  0  0  0  0  0  0  0  0  0  0  0  0
  140.0250   71.4030  225.3490 C   0  0  0  0  0  0  0  0  0  0  0  0
  138.7770   75.0130  220.6460 C   0  0  0  0  0  0  0  0  0  0  0  0
  140.0860   75.5650  221.2440 C   0  0  0  0  0  0  0  0  0  0  0  0
  142.7174   80.6962  224.5399 H   0  0  0  0  0  0  0  0  0  0  0  0
  143.2252   79.9476  222.9880 H   0  0  0  0  0  0  0  0  0  0  0  0
  142.4002   81.5432  222.9880 H   0  0  0  0  0  0  0  0  0  0  0  0
  140.5597   79.9727  224.3234 H   0  0  0  0  0  0  0  0  0  0  0  0
  140.5167   80.3151  222.5637 H   0  0  0  0  0  0  0  0  0  0  0  0
  142.4254   76.1871  220.3376 H   0  0  0  0  0  0  0  0  0  0  0  0
  143.5249   76.7022  218.1956 H   0  0  0  0  0  0  0  0  0  0  0  0
  143.3547   78.9441  217.1743 H   0  0  0  0  0  0  0  0  0  0  0  0
  142.0366   80.6915  218.3522 H   0  0  0  0  0  0  0  0  0  0  0  0
  140.9318   80.1856  220.4993 H   0  0  0  0  0  0  0  0  0  0  0  0
  139.8197   76.5972  222.9517 H   0  0  0  0  0  0  0  0  0  0  0  0
  138.3902   78.4454  222.1772 H   0  0  0  0  0  0  0  0  0  0  0  0
  138.3124   77.6998  220.5810 H   0  0  0  0  0  0  0  0  0  0  0  0
  137.5385   76.4633  223.3009 H   0  0  0  0  0  0  0  0  0  0  0  0
  136.4777   76.7246  221.8649 H   0  0  0  0  0  0  0  0  0  0  0  0
  138.2038   72.4776  221.0794 H   0  0  0  0  0  0  0  0  0  0  0  0
  135.4201   71.8954  222.1391 H   0  0  0  0  0  0  0  0  0  0  0  0
  135.6563   72.9299  220.6897 H   0  0  0  0  0  0  0  0  0  0  0  0
  136.2504   71.2347  220.6897 H   0  0  0  0  0  0  0  0  0  0  0  0
  137.7660   72.5190  223.8420 H   0  0  0  0  0  0  0  0  0  0  0  0
  140.6500   72.6764  223.7259 H   0  0  0  0  0  0  0  0  0  0  0  0
  141.0960   71.8647  222.1867 H   0  0  0  0  0  0  0  0  0  0  0  0
  139.8734   73.1807  222.1867 H   0  0  0  0  0  0  0  0  0  0  0  0
  139.3886   69.2368  222.5246 H   0  0  0  0  0  0  0  0  0  0  0  0
  138.3897   70.1666  221.3565 H   0  0  0  0  0  0  0  0  0  0  0  0
  140.1765   70.3510  221.3565 H   0  0  0  0  0  0  0  0  0  0  0  0
  138.6236   68.7755  223.8009 H   0  0  0  0  0  0  0  0  0  0  0  0
  139.0459   67.7446  225.9972 H   0  0  0  0  0  0  0  0  0  0  0  0
  140.1125   69.0826  227.8243 H   0  0  0  0  0  0  0  0  0  0  0  0
  140.3103   72.4510  225.1750 H   0  0  0  0  0  0  0  0  0  0  0  0
  138.8997   73.9618  220.3462 H   0  0  0  0  0  0  0  0  0  0  0  0
  138.4677   75.5590  219.7426 H   0  0  0  0  0  0  0  0  0  0  0  0
  140.4681   74.8574  221.9946 H   0  0  0  0  0  0  0  0  0  0  0  0
  140.8211   75.6928  220.4357 H   0  0  0  0  0  0  0  0  0  0  0  0
  1  2  1  0
  2  3  1  0
  3  4  2  0
  3  5  1  0
  5  6  1  0
  6  7  2  0
  7  8  1  0
  8  9  2  0
  9 10  1  0
 10 11  2  0
  5 12  1  0
 12 13  1  0
 13 14  1  0
 14 15  1  0
 15 16  1  0
 16 17  2  0
 16 18  1  0
 18 19  1  0
 18 20  1  0
 20 21  1  0
 21 22  1  0
 21 23  1  0
 21 24  1  0
 24 25  2  0
 25 26  1  0
 26 27  2  0
 27 28  1  0
 28 29  1  0
 28 30  2  0
 15 31  1  0
 31 32  1  0
 11  6  1  0
 32 12  1  0
 30 24  1  0
  1 33  1  0
  1 34  1  0
  1 35  1  0
  2 36  1  0
  2 37  1  0
  7 38  1  0
  8 39  1  0
  9 40  1  0
 10 41  1  0
 11 42  1  0
 12 43  1  0
 13 44  1  0
 13 45  1  0
 14 46  1  0
 14 47  1  0
 18 48  1  6
 19 49  1  0
 19 50  1  0
 19 51  1  0
 20 52  1  0
 22 53  1  0
 22 54  1  0
 22 55  1  0
 23 56  1  0
 23 57  1  0
 23 58  1  0
 25 59  1  0
 26 60  1  0
 27 61  1  0
 30 62  1  0
 31 63  1  0
 31 64  1  0
 32 65  1  0
 32 66  1  0
M  END
>  <smiles>  (3) 
CCC(=O)N(c1ccccc1)C1CCN(C(=O)[C@H](C)NC(C)(C)c2cccc(Br)c2)CC1

>  <score_type>  (3) 
oracle

>  <origin>  (3) 
autodockgpu

>  <m_score__min__energy>  (3) 
-8.9299999999999997

>  <m_primary>  (3) 
energy

>  <rmsd>  (3) 
8.305260104131502

>  <m_score__min__rmsd>  (3) 
8.305260104131502

>  <meeko>  (3) 
{"free_energy": -8.1, "intermolecular_energy": -10.49, "internal_energy": -2.62, "cluster_size": 16, "cluster_id": 2, "rank_in_cluster": 6}

>  <energy>  (3) 
-8.8

>  <cluster_rmsd>  (3) 
0.89

>  <cluster>  (3) 
1

$$$$

     RDKit          3D

 66 68  0  0  0  0  0  0  0  0999 V2000
  143.6940   76.1760  219.7250 C   0  0  0  0  0  0  0  0  0  0  0  0
  142.4950   76.5140  218.8500 C   0  0  0  0  0  0  0  0  0  0  0  0
  141.8090   77.7440  219.4050 C   0  0  0  0  0  0  0  0  0  0  0  0
  141.8640   78.7340  218.6440 O   0  0  0  0  0  0  0  0  0  0  0  0
  141.1780   77.7130  220.6850 N   0  0  0  0  0  0  0  0  0  0  0  0
  141.5740   78.5350  221.7730 C   0  0  0  0  0  0  0  0  0  0  0  0
  142.1720   79.7760  221.5450 C   0  0  0  0  0  0  0  0  0  0  0  0
  142.5610   80.6020  222.5930 C   0  0  0  0  0  0  0  0  0  0  0  0
  142.3800   80.2390  223.8970 C   0  0  0  0  0  0  0  0  0  0  0  0
  141.7940   79.0260  224.1510 C   0  0  0  0  0  0  0  0  0  0  0  0
  141.4030   78.1970  223.0980 C   0  0  0  0  0  0  0  0  0  0  0  0
  140.0790   76.7680  220.8120 C   0  0  0  0  0  0  0  0  0  0  0  0
  138.8020   77.2030  220.1340 C   0  0  0  0  0  0  0  0  0  0  0  0
  137.7020   76.3380  220.7730 C   0  0  0  0  0  0  0  0  0  0  0  0
  138.0970   74.9450  220.7890 N   0  0  0  0  0  0  0  0  0  0  0  0
  137.3430   74.0400  221.5800 C   0  0  0  0  0  0  0  0  0  0  0  0
  136.3880   74.5110  222.2490 O   0  0  0  0  0  0  0  0  0  0  0  0
  137.6800   72.5630  221.6200 C   0  0  2  0  0  0  0  0  0  0  0  0
  136.3290   71.8650  221.7350 C   0  0  0  0  0  0  0  0  0  0  0  0
  138.5250   72.3900  222.7530 N   0  0  0  0  0  0  0  0  0  0  0  0
  139.6250   71.5020  222.6360 C   0  0  0  0  0  0  0  0  0  0  0  0
  140.9290   72.2140  222.3330 C   0  0  0  0  0  0  0  0  0  0  0  0
  139.3880   70.4040  221.6550 C   0  0  0  0  0  0  0  0  0  0  0  0
  139.8170   70.8320  223.9710 C   0  0  0  0  0  0  0  0  0  0  0  0
  139.5330   69.4840  224.1440 C   0  0  0  0  0  0  0  0  0  0  0  0
  139.7020   68.8480  225.3570 C   0  0  0  0  0  0  0  0  0  0  0  0
  140.1690   69.5610  226.4550 C   0  0  0  0  0  0  0  0  0  0  0  0
  140.4540   70.9020  226.2970 C   0  0  0  0  0  0  0  0  0  0  0  0
  141.0860   71.8910  227.7740 Br  0  0  0  0  0  0  0  0  0  0  0  0
  140.2790   71.5140  225.0750 C   0  0  0  0  0  0  0  0  0  0  0  0
  139.2620   74.5610  220.0140 C   0  0  0  0  0  0  0  0  0  0  0  0
  140.4290   75.3350  220.6590 C   0  0  0  0  0  0  0  0  0  0  0  0
  143.4091   76.2563  220.7844 H   0  0  0  0  0  0  0  0  0  0  0  0
  144.0260   75.1493  219.5114 H   0  0  0  0  0  0  0  0  0  0  0  0
  144.5133   76.8782  219.5114 H   0  0  0  0  0  0  0  0  0  0  0  0
  142.8331   76.7128  217.8223 H   0  0  0  0  0  0  0  0  0  0  0  0
  141.7913   75.6685  218.8422 H   0  0  0  0  0  0  0  0  0  0  0  0
  142.3395   80.1083  220.5099 H   0  0  0  0  0  0  0  0  0  0  0  0
  143.0264   81.5726  222.3663 H   0  0  0  0  0  0  0  0  0  0  0  0
  142.6947   80.8996  224.7183 H   0  0  0  0  0  0  0  0  0  0  0  0
  141.6310   78.7041  225.1902 H   0  0  0  0  0  0  0  0  0  0  0  0
  140.9370   77.2296  223.3369 H   0  0  0  0  0  0  0  0  0  0  0  0
  139.8351   76.8160  221.8835 H   0  0  0  0  0  0  0  0  0  0  0  0
  138.6105   78.2706  220.3172 H   0  0  0  0  0  0  0  0  0  0  0  0
  138.8479   77.0758  219.0423 H   0  0  0  0  0  0  0  0  0  0  0  0
  137.5288   76.6770  221.8050 H   0  0  0  0  0  0  0  0  0  0  0  0
  136.7807   76.4396  220.1806 H   0  0  0  0  0  0  0  0  0  0  0  0
  138.2116   72.1547  220.7478 H   0  0  0  0  0  0  0  0  0  0  0  0
  136.0737   71.7331  222.7968 H   0  0  0  0  0  0  0  0  0  0  0  0
  135.5572   72.4772  221.2456 H   0  0  0  0  0  0  0  0  0  0  0  0
  136.3817   70.8813  221.2456 H   0  0  0  0  0  0  0  0  0  0  0  0
  138.8360   73.3470  223.0660 H   0  0  0  0  0  0  0  0  0  0  0  0
  141.4262   72.4855  223.2759 H   0  0  0  0  0  0  0  0  0  0  0  0
  141.5838   71.5482  221.7516 H   0  0  0  0  0  0  0  0  0  0  0  0
  140.7230   73.1248  221.7516 H   0  0  0  0  0  0  0  0  0  0  0  0
  139.1858   69.4672  222.1949 H   0  0  0  0  0  0  0  0  0  0  0  0
  138.5238   70.6570  221.0232 H   0  0  0  0  0  0  0  0  0  0  0  0
  140.2796   70.2780  221.0232 H   0  0  0  0  0  0  0  0  0  0  0  0
  139.1612   68.9042  223.2863 H   0  0  0  0  0  0  0  0  0  0  0  0
  139.4673   67.7778  225.4549 H   0  0  0  0  0  0  0  0  0  0  0  0
  140.3083   69.0674  227.4281 H   0  0  0  0  0  0  0  0  0  0  0  0
  140.5163   72.5837  224.9777 H   0  0  0  0  0  0  0  0  0  0  0  0
  139.4319   73.4762  220.0796 H   0  0  0  0  0  0  0  0  0  0  0  0
  139.1473   74.7929  218.9449 H   0  0  0  0  0  0  0  0  0  0  0  0
  140.6440   74.9070  221.6492 H   0  0  0  0  0  0  0  0  0  0  0  0
  141.3134   75.2517  220.0102 H   0  0  0  0  0  0  0  0  0  0  0  0
  1  2  1  0
  2  3  1  0
  3  4  2  0
  3  5  1  0
  5  6  1  0
  6  7  2  0
  7  8  1  0
  8  9  2  0
  9 10  1  0
 10 11  2  0
  5 12  1  0
 12 13  1  0
 13 14  1  0
 14 15  1  0
 15 16  1  0
 16 17  2  0
 16 18  1  0
 18 19  1  0
 18 20  1  0
 20 21  1  0
 21 22  1  0
 21 23  1  0
 21 24  1  0
 24 25  2  0
 25 26  1  0
 26 27  2  0
 27 28  1  0
 28 29  1  0
 28 30  2  0
 15 31  1  0
 31 32  1  0
 11  6  1  0
 32 12  1  0
 30 24  1  0
  1 33  1  0
  1 34  1  0
  1 35  1  0
  2 36  1  0
  2 37  1  0
  7 38  1  0
  8 39  1  0
  9 40  1  0
 10 41  1  0
 11 42  1  0
 12 43  1  0
 13 44  1  0
 13 45  1  0
 14 46  1  0
 14 47  1  0
 18 48  1  6
 19 49  1  0
 19 50  1  0
 19 51  1  0
 20 52  1  0
 22 53  1  0
 22 54  1  0
 22 55  1  0
 23 56  1  0
 23 57  1  0
 23 58  1  0
 25 59  1  0
 26 60  1  0
 27 61  1  0
 30 62  1  0
 31 63  1  0
 31 64  1  0
 32 65  1  0
 32 66  1  0
M  END
>  <smiles>  (4) 
CCC(=O)N(c1ccccc1)C1CCN(C(=O)[C@H](C)NC(C)(C)c2cccc(Br)c2)CC1

>  <score_type>  (4) 
oracle

>  <origin>  (4) 
autodockgpu

>  <m_score__min__energy>  (4) 
-8.9299999999999997

>  <m_primary>  (4) 
energy

>  <rmsd>  (4) 
7.976379621339056

>  <m_score__min__rmsd>  (4) 
7.976379621339056

>  <meeko>  (4) 
{"free_energy": -7.92, "intermolecular_energy": -10.31, "internal_energy": -2.19, "cluster_size": 16, "cluster_id": 2, "rank_in_cluster": 13}

>  <energy>  (4) 
-8.41

>  <cluster_rmsd>  (4) 
1.03

>  <cluster>  (4) 
1

$$$$

     RDKit          3D

 66 68  0  0  0  0  0  0  0  0999 V2000
  146.6870   73.3830  221.8960 C   0  0  0  0  0  0  0  0  0  0  0  0
  145.4880   73.7520  221.0320 C   0  0  0  0  0  0  0  0  0  0  0  0
  145.4310   72.8190  219.8410 C   0  0  0  0  0  0  0  0  0  0  0  0
  146.3370   73.0210  219.0040 O   0  0  0  0  0  0  0  0  0  0  0  0
  144.4130   71.8240  219.7410 N   0  0  0  0  0  0  0  0  0  0  0  0
  144.6500   70.5070  219.2660 C   0  0  0  0  0  0  0  0  0  0  0  0
  144.4410   69.4050  220.0990 C   0  0  0  0  0  0  0  0  0  0  0  0
  144.6580   68.1050  219.6550 C   0  0  0  0  0  0  0  0  0  0  0  0
  145.0870   67.8420  218.3850 C   0  0  0  0  0  0  0  0  0  0  0  0
  145.2980   68.9070  217.5460 C   0  0  0  0  0  0  0  0  0  0  0  0
  145.0800   70.2110  217.9920 C   0  0  0  0  0  0  0  0  0  0  0  0
  143.0870   72.2480  220.1640 C   0  0  0  0  0  0  0  0  0  0  0  0
  142.5940   73.5090  219.4960 C   0  0  0  0  0  0  0  0  0  0  0  0
  141.4520   74.0120  220.3950 C   0  0  0  0  0  0  0  0  0  0  0  0
  140.5400   72.9310  220.7080 N   0  0  0  0  0  0  0  0  0  0  0  0
  139.5870   73.1320  221.7400 C   0  0  0  0  0  0  0  0  0  0  0  0
  139.6120   74.2330  222.3470 O   0  0  0  0  0  0  0  0  0  0  0  0
  138.5810   72.0570  222.1000 C   0  0  2  0  0  0  0  0  0  0  0  0
  137.2780   72.8150  222.3340 C   0  0  0  0  0  0  0  0  0  0  0  0
  139.0990   71.4150  223.2600 N   0  0  0  0  0  0  0  0  0  0  0  0
  138.6980   70.0800  223.5190 C   0  0  0  0  0  0  0  0  0  0  0  0
  139.2550   69.0900  222.5140 C   0  0  0  0  0  0  0  0  0  0  0  0
  137.2200   69.9270  223.6410 C   0  0  0  0  0  0  0  0  0  0  0  0
  139.2680   69.6810  224.8550 C   0  0  0  0  0  0  0  0  0  0  0  0
  139.2730   68.3530  225.2640 C   0  0  0  0  0  0  0  0  0  0  0  0
  139.7900   67.9630  226.4830 C   0  0  0  0  0  0  0  0  0  0  0  0
  140.3270   68.9140  227.3450 C   0  0  0  0  0  0  0  0  0  0  0  0
  140.3270   70.2350  226.9500 C   0  0  0  0  0  0  0  0  0  0  0  0
  141.0470   71.5420  228.1060 Br  0  0  0  0  0  0  0  0  0  0  0  0
  139.8060   70.6000  225.7280 C   0  0  0  0  0  0  0  0  0  0  0  0
  140.6730   71.6930  219.9640 C   0  0  0  0  0  0  0  0  0  0  0  0
  142.0780   71.1730  220.3250 C   0  0  0  0  0  0  0  0  0  0  0  0
  146.4134   73.4672  222.9581 H   0  0  0  0  0  0  0  0  0  0  0  0
  146.9925   72.3493  221.6769 H   0  0  0  0  0  0  0  0  0  0  0  0
  147.5209   74.0661  221.6769 H   0  0  0  0  0  0  0  0  0  0  0  0
  144.5646   73.6537  221.6217 H   0  0  0  0  0  0  0  0  0  0  0  0
  145.5866   74.7911  220.6849 H   0  0  0  0  0  0  0  0  0  0  0  0
  144.0966   69.5695  221.1307 H   0  0  0  0  0  0  0  0  0  0  0  0
  144.4795   67.2667  220.3445 H   0  0  0  0  0  0  0  0  0  0  0  0
  145.2578   66.8096  218.0459 H   0  0  0  0  0  0  0  0  0  0  0  0
  145.6411   68.7317  216.5157 H   0  0  0  0  0  0  0  0  0  0  0  0
  145.2601   71.0412  217.2932 H   0  0  0  0  0  0  0  0  0  0  0  0
  143.2469   72.5509  221.2093 H   0  0  0  0  0  0  0  0  0  0  0  0
  143.3989   74.2565  219.4381 H   0  0  0  0  0  0  0  0  0  0  0  0
  142.2595   73.3275  218.4639 H   0  0  0  0  0  0  0  0  0  0  0  0
  141.8751   74.4107  221.3288 H   0  0  0  0  0  0  0  0  0  0  0  0
  140.9002   74.8004  219.8621 H   0  0  0  0  0  0  0  0  0  0  0  0
  138.4018   71.2771  221.3452 H   0  0  0  0  0  0  0  0  0  0  0  0
  137.1023   72.9172  223.4151 H   0  0  0  0  0  0  0  0  0  0  0  0
  137.3477   73.8135  221.8778 H   0  0  0  0  0  0  0  0  0  0  0  0
  136.4444   72.2609  221.8778 H   0  0  0  0  0  0  0  0  0  0  0  0
  140.1500   71.5010  223.2270 H   0  0  0  0  0  0  0  0  0  0  0  0
  139.7266   68.2518  223.0478 H   0  0  0  0  0  0  0  0  0  0  0  0
  138.4384   68.7097  221.8827 H   0  0  0  0  0  0  0  0  0  0  0  0
  140.0039   69.5905  221.8827 H   0  0  0  0  0  0  0  0  0  0  0  0
  136.9409   69.8981  224.7046 H   0  0  0  0  0  0  0  0  0  0  0  0
  136.7218   70.7784  223.1542 H   0  0  0  0  0  0  0  0  0  0  0  0
  136.9068   68.9916  223.1542 H   0  0  0  0  0  0  0  0  0  0  0  0
  138.8515   67.5882  224.5951 H   0  0  0  0  0  0  0  0  0  0  0  0
  139.7775   66.9019  226.7725 H   0  0  0  0  0  0  0  0  0  0  0  0
  140.7423   68.6186  228.3198 H   0  0  0  0  0  0  0  0  0  0  0  0
  139.8203   71.6615  225.4399 H   0  0  0  0  0  0  0  0  0  0  0  0
  139.9012   70.9712  220.2696 H   0  0  0  0  0  0  0  0  0  0  0  0
  140.5479   71.8410  218.8812 H   0  0  0  0  0  0  0  0  0  0  0  0
  142.0792   70.8289  221.3698 H   0  0  0  0  0  0  0  0  0  0  0  0
  142.3335   70.3416  219.6516 H   0  0  0  0  0  0  0  0  0  0  0  0
  1  2  1  0
  2  3  1  0
  3  4  2  0
  3  5  1  0
  5  6  1  0
  6  7  2  0
  7  8  1  0
  8  9  2  0
  9 10  1  0
 10 11  2  0
  5 12  1  0
 12 13  1  0
 13 14  1  0
 14 15  1  0
 15 16  1  0
 16 17  2  0
 16 18  1  0
 18 19  1  0
 18 20  1  0
 20 21  1  0
 21 22  1  0
 21 23  1  0
 21 24  1  0
 24 25  2  0
 25 26  1  0
 26 27  2  0
 27 28  1  0
 28 29  1  0
 28 30  2  0
 15 31  1  0
 31 32  1  0
 11  6  1  0
 32 12  1  0
 30 24  1  0
  1 33  1  0
  1 34  1  0
  1 35  1  0
  2 36  1  0
  2 37  1  0
  7 38  1  0
  8 39  1  0
  9 40  1  0
 10 41  1  0
 11 42  1  0
 12 43  1  0
 13 44  1  0
 13 45  1  0
 14 46  1  0
 14 47  1  0
 18 48  1  6
 19 49  1  0
 19 50  1  0
 19 51  1  0
 20 52  1  0
 22 53  1  0
 22 54  1  0
 22 55  1  0
 23 56  1  0
 23 57  1  0
 23 58  1  0
 25 59  1  0
 26 60  1  0
 27 61  1  0
 30 62  1  0
 31 63  1  0
 31 64  1  0
 32 65  1  0
 32 66  1  0
M  END
>  <smiles>  (5) 
CCC(=O)N(c1ccccc1)C1CCN(C(=O)[C@H](C)NC(C)(C)c2cccc(Br)c2)CC1

>  <score_type>  (5) 
oracle

>  <origin>  (5) 
autodockgpu

>  <m_score__min__energy>  (5) 
-8.9299999999999997

>  <m_primary>  (5) 
energy

>  <rmsd>  (5) 
9.37488435259578

>  <m_score__min__rmsd>  (5) 
9.37488435259578

>  <meeko>  (5) 
{"free_energy": -8.8, "intermolecular_energy": -11.19, "internal_energy": -1.98, "cluster_size": 5, "cluster_id": 1, "rank_in_cluster": 3}

>  <energy>  (5) 
-7.71

>  <cluster_rmsd>  (5) 
1.33

>  <cluster>  (5) 
1

$$$$

     RDKit          3D

 66 68  0  0  0  0  0  0  0  0999 V2000
  140.3160   71.3020  221.2400 C   0  0  0  0  0  0  0  0  0  0  0  0
  140.6150   72.4430  220.2760 C   0  0  0  0  0  0  0  0  0  0  0  0
  141.2560   73.5800  221.0410 C   0  0  0  0  0  0  0  0  0  0  0  0
  140.6840   73.8420  222.1220 O   0  0  0  0  0  0  0  0  0  0  0  0
  142.4040   74.2530  220.5240 N   0  0  0  0  0  0  0  0  0  0  0  0
  143.6740   73.6340  220.3770 C   0  0  0  0  0  0  0  0  0  0  0  0
  144.8350   74.2920  220.7890 C   0  0  0  0  0  0  0  0  0  0  0  0
  146.0890   73.7050  220.6630 C   0  0  0  0  0  0  0  0  0  0  0  0
  146.2470   72.4570  220.1300 C   0  0  0  0  0  0  0  0  0  0  0  0
  145.1230   71.7880  219.7190 C   0  0  0  0  0  0  0  0  0  0  0  0
  143.8640   72.3780  219.8450 C   0  0  0  0  0  0  0  0  0  0  0  0
  142.1920   75.6420  220.1460 C   0  0  0  0  0  0  0  0  0  0  0  0
  142.0510   75.8690  218.6610 C   0  0  0  0  0  0  0  0  0  0  0  0
  142.3090   77.3730  218.4650 C   0  0  0  0  0  0  0  0  0  0  0  0
  141.5350   78.1480  219.4120 N   0  0  0  0  0  0  0  0  0  0  0  0
  141.8460   79.5240  219.5700 C   0  0  0  0  0  0  0  0  0  0  0  0
  142.8030   79.9830  218.8960 O   0  0  0  0  0  0  0  0  0  0  0  0
  141.0560   80.4020  220.5200 C   0  0  2  0  0  0  0  0  0  0  0  0
  140.5190   81.5280  219.6420 C   0  0  0  0  0  0  0  0  0  0  0  0
  141.9830   80.8280  221.5130 N   0  0  0  0  0  0  0  0  0  0  0  0
  141.8270   80.3270  222.8300 C   0  0  0  0  0  0  0  0  0  0  0  0
  142.1950   81.3410  223.8960 C   0  0  0  0  0  0  0  0  0  0  0  0
  142.5510   79.0430  223.0560 C   0  0  0  0  0  0  0  0  0  0  0  0
  140.3660   80.0210  223.0340 C   0  0  0  0  0  0  0  0  0  0  0  0
  139.4790   81.0070  223.4490 C   0  0  0  0  0  0  0  0  0  0  0  0
  138.1370   80.7520  223.6420 C   0  0  0  0  0  0  0  0  0  0  0  0
  137.6350   79.4740  223.4230 C   0  0  0  0  0  0  0  0  0  0  0  0
  138.5060   78.4860  223.0120 C   0  0  0  0  0  0  0  0  0  0  0  0
  137.8480   76.7430  222.7130 Br  0  0  0  0  0  0  0  0  0  0  0  0
  139.8420   78.7660  222.8250 C   0  0  0  0  0  0  0  0  0  0  0  0
  140.5010   77.4630  220.1650 C   0  0  0  0  0  0  0  0  0  0  0  0
  141.2610   76.4170  221.0040 C   0  0  0  0  0  0  0  0  0  0  0  0
  140.4104   71.6622  222.2751 H   0  0  0  0  0  0  0  0  0  0  0  0
  139.2920   70.9376  221.0705 H   0  0  0  0  0  0  0  0  0  0  0  0
  141.0296   70.4823  221.0705 H   0  0  0  0  0  0  0  0  0  0  0  0
  141.3023   72.0926  219.4919 H   0  0  0  0  0  0  0  0  0  0  0  0
  139.6810   72.7894  219.8095 H   0  0  0  0  0  0  0  0  0  0  0  0
  144.7553   75.2993  221.2238 H   0  0  0  0  0  0  0  0  0  0  0  0
  146.9767   74.2596  221.0011 H   0  0  0  0  0  0  0  0  0  0  0  0
  147.2444   72.0033  220.0337 H   0  0  0  0  0  0  0  0  0  0  0  0
  145.2138   70.7803  219.2874 H   0  0  0  0  0  0  0  0  0  0  0  0
  142.9835   71.8139  219.5038 H   0  0  0  0  0  0  0  0  0  0  0  0
  143.1547   76.1143  220.3911 H   0  0  0  0  0  0  0  0  0  0  0  0
  142.7912   75.2737  218.1063 H   0  0  0  0  0  0  0  0  0  0  0  0
  141.0616   75.5662  218.2876 H   0  0  0  0  0  0  0  0  0  0  0  0
  143.3787   77.5796  218.6168 H   0  0  0  0  0  0  0  0  0  0  0  0
  142.0092   77.6554  217.4450 H   0  0  0  0  0  0  0  0  0  0  0  0
  140.2100   79.9296  221.0406 H   0  0  0  0  0  0  0  0  0  0  0  0
  140.1330   82.3374  220.2791 H   0  0  0  0  0  0  0  0  0  0  0  0
  141.3291   81.9159  219.0069 H   0  0  0  0  0  0  0  0  0  0  0  0
  139.7077   81.1426  219.0069 H   0  0  0  0  0  0  0  0  0  0  0  0
  142.9530   80.6420  221.1430 H   0  0  0  0  0  0  0  0  0  0  0  0
  142.0353   80.9009  224.8914 H   0  0  0  0  0  0  0  0  0  0  0  0
  143.2526   81.6224  223.7849 H   0  0  0  0  0  0  0  0  0  0  0  0
  141.5641   82.2352  223.7849 H   0  0  0  0  0  0  0  0  0  0  0  0
  142.6518   78.8642  224.1367 H   0  0  0  0  0  0  0  0  0  0  0  0
  141.9853   78.2177  222.5990 H   0  0  0  0  0  0  0  0  0  0  0  0
  143.5500   79.1000  222.5990 H   0  0  0  0  0  0  0  0  0  0  0  0
  139.8591   82.0234  223.6294 H   0  0  0  0  0  0  0  0  0  0  0  0
  137.4647   81.5590  223.9688 H   0  0  0  0  0  0  0  0  0  0  0  0
  136.5675   79.2555  223.5740 H   0  0  0  0  0  0  0  0  0  0  0  0
  140.5130   77.9583  222.4973 H   0  0  0  0  0  0  0  0  0  0  0  0
  139.9635   78.1676  220.8166 H   0  0  0  0  0  0  0  0  0  0  0  0
  139.7435   77.0045  219.5124 H   0  0  0  0  0  0  0  0  0  0  0  0
  141.8347   76.9302  221.7898 H   0  0  0  0  0  0  0  0  0  0  0  0
  140.5342   75.7262  221.4563 H   0  0  0  0  0  0  0  0  0  0  0  0
  1  2  1  0
  2  3  1  0
  3  4  2  0
  3  5  1  0
  5  6  1  0
  6  7  2  0
  7  8  1  0
  8  9  2  0
  9 10  1  0
 10 11  2  0
  5 12  1  0
 12 13  1  0
 13 14  1  0
 14 15  1  0
 15 16  1  0
 16 17  2  0
 16 18  1  0
 18 19  1  0
 18 20  1  0
 20 21  1  0
 21 22  1  0
 21 23  1  0
 21 24  1  0
 24 25  2  0
 25 26  1  0
 26 27  2  0
 27 28  1  0
 28 29  1  0
 28 30  2  0
 15 31  1  0
 31 32  1  0
 11  6  1  0
 32 12  1  0
 30 24  1  0
  1 33  1  0
  1 34  1  0
  1 35  1  0
  2 36  1  0
  2 37  1  0
  7 38  1  0
  8 39  1  0
  9 40  1  0
 10 41  1  0
 11 42  1  0
 12 43  1  0
 13 44  1  0
 13 45  1  0
 14 46  1  0
 14 47  1  0
 18 48  1  1
 19 49  1  0
 19 50  1  0
 19 51  1  0
 20 52  1  0
 22 53  1  0
 22 54  1  0
 22 55  1  0
 23 56  1  0
 23 57  1  0
 23 58  1  0
 25 59  1  0
 26 60  1  0
 27 61  1  0
 30 62  1  0
 31 63  1  0
 31 64  1  0
 32 65  1  0
 32 66  1  0
M  END
>  <smiles>  (6) 
CCC(=O)N(c1ccccc1)C1CCN(C(=O)[C@H](C)NC(C)(C)c2cccc(Br)c2)CC1

>  <score_type>  (6) 
oracle

>  <origin>  (6) 
autodockgpu

>  <m_score__min__energy>  (6) 
-8.9299999999999997

>  <m_primary>  (6) 
energy

>  <rmsd>  (6) 
3.3321164179744813

>  <m_score__min__rmsd>  (6) 
3.3321164179744813

>  <meeko>  (6) 
{"free_energy": -7.69, "intermolecular_energy": -10.07, "internal_energy": -3.12, "cluster_size": 10, "cluster_id": 9, "rank_in_cluster": 2}

>  <energy>  (6) 
-8.22

>  <cluster_rmsd>  (6) 
0.0

>  <cluster>  (6) 
2

$$$$

     RDKit          3D

 66 68  0  0  0  0  0  0  0  0999 V2000
  146.6570   73.3950  221.7220 C   0  0  0  0  0  0  0  0  0  0  0  0
  145.5380   74.1140  220.9790 C   0  0  0  0  0  0  0  0  0  0  0  0
  145.4000   73.5160  219.5950 C   0  0  0  0  0  0  0  0  0  0  0  0
  146.2730   72.6620  219.3290 O   0  0  0  0  0  0  0  0  0  0  0  0
  144.3490   73.9300  218.7220 N   0  0  0  0  0  0  0  0  0  0  0  0
  144.5270   74.1440  217.3290 C   0  0  0  0  0  0  0  0  0  0  0  0
  144.1360   75.3480  216.7400 C   0  0  0  0  0  0  0  0  0  0  0  0
  144.3060   75.5830  215.3800 C   0  0  0  0  0  0  0  0  0  0  0  0
  144.8630   74.6490  214.5550 C   0  0  0  0  0  0  0  0  0  0  0  0
  145.2580   73.4570  215.1070 C   0  0  0  0  0  0  0  0  0  0  0  0
  145.0870   73.2210  216.4720 C   0  0  0  0  0  0  0  0  0  0  0  0
  143.0550   74.1270  219.3580 C   0  0  0  0  0  0  0  0  0  0  0  0
  142.5570   75.5510  219.3280 C   0  0  0  0  0  0  0  0  0  0  0  0
  141.4710   75.6130  220.4160 C   0  0  0  0  0  0  0  0  0  0  0  0
  140.5530   74.5020  220.2800 N   0  0  0  0  0  0  0  0  0  0  0  0
  139.6570   74.2340  221.3470 C   0  0  0  0  0  0  0  0  0  0  0  0
  139.7360   74.9640  222.3680 O   0  0  0  0  0  0  0  0  0  0  0  0
  138.6470   73.1070  221.2600 C   0  0  2  0  0  0  0  0  0  0  0  0
  137.3050   73.8090  221.0890 C   0  0  0  0  0  0  0  0  0  0  0  0
  138.7750   72.3790  222.4770 N   0  0  0  0  0  0  0  0  0  0  0  0
  139.6800   71.2880  222.5100 C   0  0  0  0  0  0  0  0  0  0  0  0
  141.1120   71.6990  222.2230 C   0  0  0  0  0  0  0  0  0  0  0  0
  139.2710   70.1620  221.6220 C   0  0  0  0  0  0  0  0  0  0  0  0
  139.6800   70.7330  223.9110 C   0  0  0  0  0  0  0  0  0  0  0  0
  139.0810   69.5130  224.1970 C   0  0  0  0  0  0  0  0  0  0  0  0
  139.0690   68.9840  225.4720 C   0  0  0  0  0  0  0  0  0  0  0  0
  139.6660   69.6790  226.5180 C   0  0  0  0  0  0  0  0  0  0  0  0
  140.2630   70.8930  226.2450 C   0  0  0  0  0  0  0  0  0  0  0  0
  141.0760   71.8560  227.6500 Br  0  0  0  0  0  0  0  0  0  0  0  0
  140.2640   71.3990  224.9640 C   0  0  0  0  0  0  0  0  0  0  0  0
  140.6230   73.7080  219.0680 C   0  0  0  0  0  0  0  0  0  0  0  0
  142.0330   73.0850  219.0920 C   0  0  0  0  0  0  0  0  0  0  0  0
  146.5008   73.4954  222.8062 H   0  0  0  0  0  0  0  0  0  0  0  0
  146.6535   72.3296  221.4481 H   0  0  0  0  0  0  0  0  0  0  0  0
  147.6246   73.8409  221.4481 H   0  0  0  0  0  0  0  0  0  0  0  0
  144.5931   73.9926  221.5289 H   0  0  0  0  0  0  0  0  0  0  0  0
  145.7744   75.1853  220.8985 H   0  0  0  0  0  0  0  0  0  0  0  0
  143.6824   76.1297  217.3671 H   0  0  0  0  0  0  0  0  0  0  0  0
  143.9833   76.5463  214.9582 H   0  0  0  0  0  0  0  0  0  0  0  0
  144.9912   74.8462  213.4804 H   0  0  0  0  0  0  0  0  0  0  0  0
  145.7119   72.6831  214.4706 H   0  0  0  0  0  0  0  0  0  0  0  0
  145.4141   72.2543  216.8826 H   0  0  0  0  0  0  0  0  0  0  0  0
  143.2719   73.9497  220.4217 H   0  0  0  0  0  0  0  0  0  0  0  0
  143.3738   76.2516  219.5560 H   0  0  0  0  0  0  0  0  0  0  0  0
  142.1686   75.8333  218.3383 H   0  0  0  0  0  0  0  0  0  0  0  0
  141.9478   75.5694  221.4063 H   0  0  0  0  0  0  0  0  0  0  0  0
  140.9105   76.5531  220.3060 H   0  0  0  0  0  0  0  0  0  0  0  0
  138.7753   72.3918  220.4342 H   0  0  0  0  0  0  0  0  0  0  0  0
  136.8791   74.0318  222.0784 H   0  0  0  0  0  0  0  0  0  0  0  0
  137.4500   74.7468  220.5326 H   0  0  0  0  0  0  0  0  0  0  0  0
  136.6174   73.1551  220.5326 H   0  0  0  0  0  0  0  0  0  0  0  0
  138.9830   73.0740  223.2420 H   0  0  0  0  0  0  0  0  0  0  0  0
  141.6466   71.8524  223.1720 H   0  0  0  0  0  0  0  0  0  0  0  0
  141.6116   70.9080  221.6445 H   0  0  0  0  0  0  0  0  0  0  0  0
  141.1160   72.6346  221.6445 H   0  0  0  0  0  0  0  0  0  0  0  0
  138.9596   69.3047  222.2368 H   0  0  0  0  0  0  0  0  0  0  0  0
  138.4317   70.4820  220.9871 H   0  0  0  0  0  0  0  0  0  0  0  0
  140.1200   69.8687  220.9871 H   0  0  0  0  0  0  0  0  0  0  0  0
  138.6012   68.9508  223.3823 H   0  0  0  0  0  0  0  0  0  0  0  0
  138.5874   68.0131  225.6604 H   0  0  0  0  0  0  0  0  0  0  0  0
  139.6625   69.2707  227.5394 H   0  0  0  0  0  0  0  0  0  0  0  0
  140.7482   72.3687  224.7763 H   0  0  0  0  0  0  0  0  0  0  0  0
  139.8518   72.9236  219.0725 H   0  0  0  0  0  0  0  0  0  0  0  0
  140.4484   74.3102  218.1642 H   0  0  0  0  0  0  0  0  0  0  0  0
  142.0787   72.3223  219.8833 H   0  0  0  0  0  0  0  0  0  0  0  0
  142.2372   72.6270  218.1129 H   0  0  0  0  0  0  0  0  0  0  0  0
  1  2  1  0
  2  3  1  0
  3  4  2  0
  3  5  1  0
  5  6  1  0
  6  7  2  0
  7  8  1  0
  8  9  2  0
  9 10  1  0
 10 11  2  0
  5 12  1  0
 12 13  1  0
 13 14  1  0
 14 15  1  0
 15 16  1  0
 16 17  2  0
 16 18  1  0
 18 19  1  0
 18 20  1  0
 20 21  1  0
 21 22  1  0
 21 23  1  0
 21 24  1  0
 24 25  2  0
 25 26  1  0
 26 27  2  0
 27 28  1  0
 28 29  1  0
 28 30  2  0
 15 31  1  0
 31 32  1  0
 11  6  1  0
 32 12  1  0
 30 24  1  0
  1 33  1  0
  1 34  1  0
  1 35  1  0
  2 36  1  0
  2 37  1  0
  7 38  1  0
  8 39  1  0
  9 40  1  0
 10 41  1  0
 11 42  1  0
 12 43  1  0
 13 44  1  0
 13 45  1  0
 14 46  1  0
 14 47  1  0
 18 48  1  6
 19 49  1  0
 19 50  1  0
 19 51  1  0
 20 52  1  0
 22 53  1  0
 22 54  1  0
 22 55  1  0
 23 56  1  0
 23 57  1  0
 23 58  1  0
 25 59  1  0
 26 60  1  0
 27 61  1  0
 30 62  1  0
 31 63  1  0
 31 64  1  0
 32 65  1  0
 32 66  1  0
M  END
>  <smiles>  (7) 
CCC(=O)N(c1ccccc1)C1CCN(C(=O)[C@H](C)NC(C)(C)c2cccc(Br)c2)CC1

>  <score_type>  (7) 
oracle

>  <origin>  (7) 
autodockgpu

>  <m_score__min__energy>  (7) 
-8.9299999999999997

>  <m_primary>  (7) 
energy

>  <rmsd>  (7) 
8.10121913255843

>  <m_score__min__rmsd>  (7) 
8.10121913255843

>  <meeko>  (7) 
{"free_energy": -7.91, "intermolecular_energy": -10.29, "internal_energy": -2.66, "cluster_size": 3, "cluster_id": 4, "rank_in_cluster": 2}

>  <energy>  (7) 
-8.18

>  <cluster_rmsd>  (7) 
0.29

>  <cluster>  (7) 
2

$$$$

     RDKit          3D

 66 68  0  0  0  0  0  0  0  0999 V2000
  143.5550   74.9240  220.0460 C   0  0  0  0  0  0  0  0  0  0  0  0
  142.1980   75.6130  219.9900 C   0  0  0  0  0  0  0  0  0  0  0  0
  141.4240   75.2820  221.2480 C   0  0  0  0  0  0  0  0  0  0  0  0
  141.5750   74.1020  221.6330 O   0  0  0  0  0  0  0  0  0  0  0  0
  140.6130   76.2670  221.8880 N   0  0  0  0  0  0  0  0  0  0  0  0
  141.0690   77.5760  222.1980 C   0  0  0  0  0  0  0  0  0  0  0  0
  141.1440   78.5550  221.2050 C   0  0  0  0  0  0  0  0  0  0  0  0
  141.5810   79.8450  221.4850 C   0  0  0  0  0  0  0  0  0  0  0  0
  141.9570   80.2170  222.7440 C   0  0  0  0  0  0  0  0  0  0  0  0
  141.8920   79.2760  223.7390 C   0  0  0  0  0  0  0  0  0  0  0  0
  141.4540   77.9810  223.4570 C   0  0  0  0  0  0  0  0  0  0  0  0
  139.2590   75.8420  222.2110 C   0  0  0  0  0  0  0  0  0  0  0  0
  138.1900   76.8460  221.8540 C   0  0  0  0  0  0  0  0  0  0  0  0
  136.9620   76.4240  222.6790 C   0  0  0  0  0  0  0  0  0  0  0  0
  136.7220   75.0030  222.5420 N   0  0  0  0  0  0  0  0  0  0  0  0
  135.8110   74.3840  223.4370 C   0  0  0  0  0  0  0  0  0  0  0  0
  135.2870   75.1060  224.3230 O   0  0  0  0  0  0  0  0  0  0  0  0
  135.4880   72.9060  223.3310 C   0  0  2  0  0  0  0  0  0  0  0  0
  134.1010   72.7740  223.9490 C   0  0  0  0  0  0  0  0  0  0  0  0
  136.5160   72.2340  224.0520 N   0  0  0  0  0  0  0  0  0  0  0  0
  136.9940   71.0020  223.5400 C   0  0  0  0  0  0  0  0  0  0  0  0
  137.2150   71.0320  222.0400 C   0  0  0  0  0  0  0  0  0  0  0  0
  136.1400   69.8400  223.9190 C   0  0  0  0  0  0  0  0  0  0  0  0
  138.3450   70.7430  224.1540 C   0  0  0  0  0  0  0  0  0  0  0  0
  139.4510   71.5040  223.7980 C   0  0  0  0  0  0  0  0  0  0  0  0
  140.6980   71.2860  224.3470 C   0  0  0  0  0  0  0  0  0  0  0  0
  140.8760   70.2760  225.2860 C   0  0  0  0  0  0  0  0  0  0  0  0
  139.7860   69.5130  225.6470 C   0  0  0  0  0  0  0  0  0  0  0  0
  140.0040   68.1340  226.9170 Br  0  0  0  0  0  0  0  0  0  0  0  0
  138.5500   69.7510  225.0860 C   0  0  0  0  0  0  0  0  0  0  0  0
  137.4510   74.2880  221.5110 C   0  0  0  0  0  0  0  0  0  0  0  0
  138.9320   74.4250  221.9170 C   0  0  0  0  0  0  0  0  0  0  0  0
  143.8477   74.7754  221.0959 H   0  0  0  0  0  0  0  0  0  0  0  0
  143.4921   73.9487  219.5413 H   0  0  0  0  0  0  0  0  0  0  0  0
  144.3053   75.5503  219.5413 H   0  0  0  0  0  0  0  0  0  0  0  0
  142.3399   76.7016  219.9202 H   0  0  0  0  0  0  0  0  0  0  0  0
  141.6405   75.2639  219.1084 H   0  0  0  0  0  0  0  0  0  0  0  0
  140.8502   78.2994  220.1762 H   0  0  0  0  0  0  0  0  0  0  0  0
  141.6249   80.5845  220.6719 H   0  0  0  0  0  0  0  0  0  0  0  0
  142.3015   81.2404  222.9535 H   0  0  0  0  0  0  0  0  0  0  0  0
  142.1865   79.5429  224.7647 H   0  0  0  0  0  0  0  0  0  0  0  0
  141.4144   77.2501  224.2781 H   0  0  0  0  0  0  0  0  0  0  0  0
  139.2562   75.8385  223.3110 H   0  0  0  0  0  0  0  0  0  0  0  0
  138.5080   77.8634  222.1255 H   0  0  0  0  0  0  0  0  0  0  0  0
  137.9792   76.8614  220.7745 H   0  0  0  0  0  0  0  0  0  0  0  0
  137.1393   76.6605  223.7385 H   0  0  0  0  0  0  0  0  0  0  0  0
  136.0813   76.9703  222.3102 H   0  0  0  0  0  0  0  0  0  0  0  0
  135.4624   72.4768  222.3185 H   0  0  0  0  0  0  0  0  0  0  0  0
  134.1860   72.7821  225.0457 H   0  0  0  0  0  0  0  0  0  0  0  0
  133.4729   73.6164  223.6237 H   0  0  0  0  0  0  0  0  0  0  0  0
  133.6431   71.8282  223.6237 H   0  0  0  0  0  0  0  0  0  0  0  0
  137.3030   72.9210  224.1990 H   0  0  0  0  0  0  0  0  0  0  0  0
  138.2849   71.1772  221.8298 H   0  0  0  0  0  0  0  0  0  0  0  0
  136.8810   70.0803  221.6011 H   0  0  0  0  0  0  0  0  0  0  0  0
  136.6394   71.8602  221.6011 H   0  0  0  0  0  0  0  0  0  0  0  0
  136.0861   69.7667  225.0152 H   0  0  0  0  0  0  0  0  0  0  0  0
  135.1282   69.9799  223.5107 H   0  0  0  0  0  0  0  0  0  0  0  0
  136.5756   68.9161  223.5107 H   0  0  0  0  0  0  0  0  0  0  0  0
  139.3290   72.3058  223.0549 H   0  0  0  0  0  0  0  0  0  0  0  0
  141.5505   71.9107  224.0421 H   0  0  0  0  0  0  0  0  0  0  0  0
  141.8647   70.0899  225.7309 H   0  0  0  0  0  0  0  0  0  0  0  0
  137.6980   69.1268  225.3935 H   0  0  0  0  0  0  0  0  0  0  0  0
  137.1513   73.2299  221.4861 H   0  0  0  0  0  0  0  0  0  0  0  0
  137.2547   74.6898  220.5060 H   0  0  0  0  0  0  0  0  0  0  0  0
  139.1198   73.8162  222.8137 H   0  0  0  0  0  0  0  0  0  0  0  0
  139.5633   74.0783  221.0856 H   0  0  0  0  0  0  0  0  0  0  0  0
  1  2  1  0
  2  3  1  0
  3  4  2  0
  3  5  1  0
  5  6  1  0
  6  7  2  0
  7  8  1  0
  8  9  2  0
  9 10  1  0
 10 11  2  0
  5 12  1  0
 12 13  1  0
 13 14  1  0
 14 15  1  0
 15 16  1  0
 16 17  2  0
 16 18  1  0
 18 19  1  0
 18 20  1  0
 20 21  1  0
 21 22  1  0
 21 23  1  0
 21 24  1  0
 24 25  2  0
 25 26  1  0
 26 27  2  0
 27 28  1  0
 28 29  1  0
 28 30  2  0
 15 31  1  0
 31 32  1  0
 11  6  1  0
 32 12  1  0
 30 24  1  0
  1 33  1  0
  1 34  1  0
  1 35  1  0
  2 36  1  0
  2 37  1  0
  7 38  1  0
  8 39  1  0
  9 40  1  0
 10 41  1  0
 11 42  1  0
 12 43  1  0
 13 44  1  0
 13 45  1  0
 14 46  1  0
 14 47  1  0
 18 48  1  6
 19 49  1  0
 19 50  1  0
 19 51  1  0
 20 52  1  0
 22 53  1  0
 22 54  1  0
 22 55  1  0
 23 56  1  0
 23 57  1  0
 23 58  1  0
 25 59  1  0
 26 60  1  0
 27 61  1  0
 30 62  1  0
 31 63  1  0
 31 64  1  0
 32 65  1  0
 32 66  1  0
M  END
>  <smiles>  (8) 
CCC(=O)N(c1ccccc1)C1CCN(C(=O)[C@H](C)NC(C)(C)c2cccc(Br)c2)CC1

>  <score_type>  (8) 
oracle

>  <origin>  (8) 
autodockgpu

>  <m_score__min__energy>  (8) 
-8.9299999999999997

>  <m_primary>  (8) 
energy

>  <rmsd>  (8) 
8.68776506414525

>  <m_score__min__rmsd>  (8) 
8.68776506414525

>  <meeko>  (8) 
{"free_energy": -8.12, "intermolecular_energy": -10.51, "internal_energy": -2.37, "cluster_size": 16, "cluster_id": 2, "rank_in_cluster": 4}

>  <energy>  (8) 
-8.14

>  <cluster_rmsd>  (8) 
0.68

>  <cluster>  (8) 
2

$$$$

     RDKit          3D

 66 68  0  0  0  0  0  0  0  0999 V2000
  136.9470   81.9460  224.9470 C   0  0  0  0  0  0  0  0  0  0  0  0
  137.7390   80.6470  224.8790 C   0  0  0  0  0  0  0  0  0  0  0  0
  137.8410   80.2050  223.4350 C   0  0  0  0  0  0  0  0  0  0  0  0
  136.9930   80.7380  222.6870 O   0  0  0  0  0  0  0  0  0  0  0  0
  138.8330   79.2630  223.0280 N   0  0  0  0  0  0  0  0  0  0  0  0
  140.2120   79.5820  222.9020 C   0  0  0  0  0  0  0  0  0  0  0  0
  141.1370   79.1130  223.8360 C   0  0  0  0  0  0  0  0  0  0  0  0
  142.4920   79.4060  223.7300 C   0  0  0  0  0  0  0  0  0  0  0  0
  142.9840   80.1660  222.7080 C   0  0  0  0  0  0  0  0  0  0  0  0
  142.0970   80.6390  221.7750 C   0  0  0  0  0  0  0  0  0  0  0  0
  140.7370   80.3450  221.8820 C   0  0  0  0  0  0  0  0  0  0  0  0
  138.3390   77.9240  222.7440 C   0  0  0  0  0  0  0  0  0  0  0  0
  136.8780   77.8670  222.3700 C   0  0  0  0  0  0  0  0  0  0  0  0
  136.4750   76.3970  222.5760 C   0  0  0  0  0  0  0  0  0  0  0  0
  137.4370   75.5140  221.9510 N   0  0  0  0  0  0  0  0  0  0  0  0
  137.3880   74.1310  222.2670 C   0  0  0  0  0  0  0  0  0  0  0  0
  136.5250   73.7570  223.1010 O   0  0  0  0  0  0  0  0  0  0  0  0
  138.3430   73.1450  221.6250 C   0  0  2  0  0  0  0  0  0  0  0  0
  137.6440   72.7170  220.3400 C   0  0  0  0  0  0  0  0  0  0  0  0
  138.5130   72.0980  222.5750 N   0  0  0  0  0  0  0  0  0  0  0  0
  139.7300   71.3710  222.5560 C   0  0  0  0  0  0  0  0  0  0  0  0
  140.9060   72.2000  222.0750 C   0  0  0  0  0  0  0  0  0  0  0  0
  139.6380   70.0970  221.7870 C   0  0  0  0  0  0  0  0  0  0  0  0
  140.0520   70.9780  223.9740 C   0  0  0  0  0  0  0  0  0  0  0  0
  140.6770   71.8670  224.8390 C   0  0  0  0  0  0  0  0  0  0  0  0
  140.9810   71.5300  226.1430 C   0  0  0  0  0  0  0  0  0  0  0  0
  140.6610   70.2650  226.6250 C   0  0  0  0  0  0  0  0  0  0  0  0
  140.0410   69.3740  225.7750 C   0  0  0  0  0  0  0  0  0  0  0  0
  139.6020   67.6500  226.4070 Br  0  0  0  0  0  0  0  0  0  0  0  0
  139.7470   69.7340  224.4790 C   0  0  0  0  0  0  0  0  0  0  0  0
  138.4160   76.1020  221.0560 C   0  0  0  0  0  0  0  0  0  0  0  0
  139.2380   77.0510  221.9500 C   0  0  0  0  0  0  0  0  0  0  0  0
  136.7804   82.2192  225.9994 H   0  0  0  0  0  0  0  0  0  0  0  0
  137.5111   82.7461  224.4454 H   0  0  0  0  0  0  0  0  0  0  0  0
  135.9774   81.8110  224.4454 H   0  0  0  0  0  0  0  0  0  0  0  0
  138.7477   80.8086  225.2870 H   0  0  0  0  0  0  0  0  0  0  0  0
  137.2299   79.8709  225.4694 H   0  0  0  0  0  0  0  0  0  0  0  0
  140.7854   78.4965  224.6765 H   0  0  0  0  0  0  0  0  0  0  0  0
  143.1856   79.0154  224.4892 H   0  0  0  0  0  0  0  0  0  0  0  0
  144.0581   80.3919  222.6352 H   0  0  0  0  0  0  0  0  0  0  0  0
  142.4596   81.2535  220.9378 H   0  0  0  0  0  0  0  0  0  0  0  0
  140.0528   80.7406  221.1169 H   0  0  0  0  0  0  0  0  0  0  0  0
  138.3768   77.4324  223.7273 H   0  0  0  0  0  0  0  0  0  0  0  0
  136.2855   78.5259  223.0217 H   0  0  0  0  0  0  0  0  0  0  0  0
  136.7007   78.2048  221.3383 H   0  0  0  0  0  0  0  0  0  0  0  0
  136.4327   76.1811  223.6538 H   0  0  0  0  0  0  0  0  0  0  0  0
  135.4895   76.2311  222.1164 H   0  0  0  0  0  0  0  0  0  0  0  0
  139.3441   73.5224  221.3692 H   0  0  0  0  0  0  0  0  0  0  0  0
  136.7301   72.1575  220.5886 H   0  0  0  0  0  0  0  0  0  0  0  0
  137.3797   73.6083  219.7520 H   0  0  0  0  0  0  0  0  0  0  0  0
  138.3177   72.0764  219.7520 H   0  0  0  0  0  0  0  0  0  0  0  0
  138.3210   72.5020  223.5300 H   0  0  0  0  0  0  0  0  0  0  0  0
  141.4590   72.5898  222.9423 H   0  0  0  0  0  0  0  0  0  0  0  0
  141.5733   71.5715  221.4670 H   0  0  0  0  0  0  0  0  0  0  0  0
  140.5384   73.0397  221.4670 H   0  0  0  0  0  0  0  0  0  0  0  0
  139.5769   69.2502  222.4864 H   0  0  0  0  0  0  0  0  0  0  0  0
  138.7388   70.1151  221.1536 H   0  0  0  0  0  0  0  0  0  0  0  0
  140.5305   69.9858  221.1536 H   0  0  0  0  0  0  0  0  0  0  0  0
  140.9380   72.8712  224.4737 H   0  0  0  0  0  0  0  0  0  0  0  0
  141.4755   72.2608  226.7998 H   0  0  0  0  0  0  0  0  0  0  0  0
  140.8974   69.9818  227.6613 H   0  0  0  0  0  0  0  0  0  0  0  0
  139.2512   69.0023  223.8243 H   0  0  0  0  0  0  0  0  0  0  0  0
  139.0600   75.3243  220.6197 H   0  0  0  0  0  0  0  0  0  0  0  0
  137.9469   76.6266  220.2106 H   0  0  0  0  0  0  0  0  0  0  0  0
  139.8611   76.4556  222.6335 H   0  0  0  0  0  0  0  0  0  0  0  0
  139.8733   77.6815  221.3106 H   0  0  0  0  0  0  0  0  0  0  0  0
  1  2  1  0
  2  3  1  0
  3  4  2  0
  3  5  1  0
  5  6  1  0
  6  7  2  0
  7  8  1  0
  8  9  2  0
  9 10  1  0
 10 11  2  0
  5 12  1  0
 12 13  1  0
 13 14  1  0
 14 15  1  0
 15 16  1  0
 16 17  2  0
 16 18  1  0
 18 19  1  0
 18 20  1  0
 20 21  1  0
 21 22  1  0
 21 23  1  0
 21 24  1  0
 24 25  2  0
 25 26  1  0
 26 27  2  0
 27 28  1  0
 28 29  1  0
 28 30  2  0
 15 31  1  0
 31 32  1  0
 11  6  1  0
 32 12  1  0
 30 24  1  0
  1 33  1  0
  1 34  1  0
  1 35  1  0
  2 36  1  0
  2 37  1  0
  7 38  1  0
  8 39  1  0
  9 40  1  0
 10 41  1  0
 11 42  1  0
 12 43  1  0
 13 44  1  0
 13 45  1  0
 14 46  1  0
 14 47  1  0
 18 48  1  6
 19 49  1  0
 19 50  1  0
 19 51  1  0
 20 52  1  0
 22 53  1  0
 22 54  1  0
 22 55  1  0
 23 56  1  0
 23 57  1  0
 23 58  1  0
 25 59  1  0
 26 60  1  0
 27 61  1  0
 30 62  1  0
 31 63  1  0
 31 64  1  0
 32 65  1  0
 32 66  1  0
M  END
>  <smiles>  (9) 
CCC(=O)N(c1ccccc1)C1CCN(C(=O)[C@H](C)NC(C)(C)c2cccc(Br)c2)CC1

>  <score_type>  (9) 
oracle

>  <origin>  (9) 
autodockgpu

>  <m_score__min__energy>  (9) 
-8.9299999999999997

>  <m_primary>  (9) 
energy

>  <rmsd>  (9) 
8.230889502901638

>  <m_score__min__rmsd>  (9) 
8.230889502901638

>  <meeko>  (9) 
{"free_energy": -7.76, "intermolecular_energy": -10.15, "internal_energy": -2.49, "cluster_size": 2, "cluster_id": 3, "rank_in_cluster": 2}

>  <energy>  (9) 
-8.12

>  <cluster_rmsd>  (9) 
1.88

>  <cluster>  (9) 
2

$$$$

     RDKit          3D

 66 68  0  0  0  0  0  0  0  0999 V2000
  142.8990   74.5190  220.4630 C   0  0  0  0  0  0  0  0  0  0  0  0
  142.9370   75.9800  220.0350 C   0  0  0  0  0  0  0  0  0  0  0  0
  141.5210   76.5110  219.9610 C   0  0  0  0  0  0  0  0  0  0  0  0
  141.0470   76.5140  218.8040 O   0  0  0  0  0  0  0  0  0  0  0  0
  140.8450   76.9530  221.1380 N   0  0  0  0  0  0  0  0  0  0  0  0
  141.2860   78.0460  221.9300 C   0  0  0  0  0  0  0  0  0  0  0  0
  141.3680   77.9260  223.3200 C   0  0  0  0  0  0  0  0  0  0  0  0
  141.8040   78.9790  224.1170 C   0  0  0  0  0  0  0  0  0  0  0  0
  142.1710   80.1810  223.5810 C   0  0  0  0  0  0  0  0  0  0  0  0
  142.1010   80.3250  222.2190 C   0  0  0  0  0  0  0  0  0  0  0  0
  141.6630   79.2680  221.4190 C   0  0  0  0  0  0  0  0  0  0  0  0
  139.6490   76.2000  221.4860 C   0  0  0  0  0  0  0  0  0  0  0  0
  138.3720   77.0030  221.4360 C   0  0  0  0  0  0  0  0  0  0  0  0
  137.3610   76.1900  222.2630 C   0  0  0  0  0  0  0  0  0  0  0  0
  137.3800   74.7990  221.8610 N   0  0  0  0  0  0  0  0  0  0  0  0
  136.7260   73.8490  222.6880 C   0  0  0  0  0  0  0  0  0  0  0  0
  136.1910   74.2720  223.7450 O   0  0  0  0  0  0  0  0  0  0  0  0
  136.6780   72.3820  222.3130 C   0  0  2  0  0  0  0  0  0  0  0  0
  135.1930   72.0740  222.1620 C   0  0  0  0  0  0  0  0  0  0  0  0
  137.3130   71.6890  223.3820 N   0  0  0  0  0  0  0  0  0  0  0  0
  138.5560   71.0570  223.1230 C   0  0  0  0  0  0  0  0  0  0  0  0
  139.6440   72.0350  222.7220 C   0  0  0  0  0  0  0  0  0  0  0  0
  138.4530   69.9510  222.1290 C   0  0  0  0  0  0  0  0  0  0  0  0
  139.0230   70.4200  224.4060 C   0  0  0  0  0  0  0  0  0  0  0  0
  138.7810   69.0770  224.6690 C   0  0  0  0  0  0  0  0  0  0  0  0
  139.1990   68.4710  225.8350 C   0  0  0  0  0  0  0  0  0  0  0  0
  139.8840   69.2100  226.7940 C   0  0  0  0  0  0  0  0  0  0  0  0
  140.1290   70.5440  226.5460 C   0  0  0  0  0  0  0  0  0  0  0  0
  141.0530   71.5680  227.8350 Br  0  0  0  0  0  0  0  0  0  0  0  0
  139.7030   71.1270  225.3720 C   0  0  0  0  0  0  0  0  0  0  0  0
  138.0940   74.4530  220.6460 C   0  0  0  0  0  0  0  0  0  0  0  0
  139.5620   74.8240  220.9400 C   0  0  0  0  0  0  0  0  0  0  0  0
  142.8974   74.4586  221.5613 H   0  0  0  0  0  0  0  0  0  0  0  0
  141.9882   74.0449  220.0684 H   0  0  0  0  0  0  0  0  0  0  0  0
  143.7839   73.9982  220.0684 H   0  0  0  0  0  0  0  0  0  0  0  0
  143.5116   76.5641  220.7689 H   0  0  0  0  0  0  0  0  0  0  0  0
  143.4170   76.0652  219.0489 H   0  0  0  0  0  0  0  0  0  0  0  0
  141.0809   76.9762  223.7949 H   0  0  0  0  0  0  0  0  0  0  0  0
  141.8547   78.8406  225.2071 H   0  0  0  0  0  0  0  0  0  0  0  0
  142.5120   81.0074  224.2219 H   0  0  0  0  0  0  0  0  0  0  0  0
  142.3916   81.2787  221.7542 H   0  0  0  0  0  0  0  0  0  0  0  0
  141.6169   79.4182  220.3303 H   0  0  0  0  0  0  0  0  0  0  0  0
  139.7880   75.9966  222.5581 H   0  0  0  0  0  0  0  0  0  0  0  0
  138.5231   77.9984  221.8791 H   0  0  0  0  0  0  0  0  0  0  0  0
  138.0264   77.1678  220.4048 H   0  0  0  0  0  0  0  0  0  0  0  0
  137.6234   76.2625  223.3288 H   0  0  0  0  0  0  0  0  0  0  0  0
  136.3530   76.5962  222.0925 H   0  0  0  0  0  0  0  0  0  0  0  0
  137.1910   72.0933  221.3838 H   0  0  0  0  0  0  0  0  0  0  0  0
  134.7351   71.9790  223.1577 H   0  0  0  0  0  0  0  0  0  0  0  0
  134.7036   72.8898  221.6097 H   0  0  0  0  0  0  0  0  0  0  0  0
  135.0684   71.1309  221.6097 H   0  0  0  0  0  0  0  0  0  0  0  0
  137.3840   72.3570  224.1960 H   0  0  0  0  0  0  0  0  0  0  0  0
  140.1109   72.4547  223.6253 H   0  0  0  0  0  0  0  0  0  0  0  0
  140.4055   71.5118  222.1250 H   0  0  0  0  0  0  0  0  0  0  0  0
  139.2046   72.8477  222.1250 H   0  0  0  0  0  0  0  0  0  0  0  0
  138.3635   68.9903  222.6573 H   0  0  0  0  0  0  0  0  0  0  0  0
  137.5655   70.1065  221.4981 H   0  0  0  0  0  0  0  0  0  0  0  0
  139.3540   69.9400  221.4981 H   0  0  0  0  0  0  0  0  0  0  0  0
  138.2384   68.4780  223.9228 H   0  0  0  0  0  0  0  0  0  0  0  0
  138.9910   67.4046  226.0066 H   0  0  0  0  0  0  0  0  0  0  0  0
  140.2227   68.7406  227.7294 H   0  0  0  0  0  0  0  0  0  0  0  0
  139.9134   72.1931  225.2011 H   0  0  0  0  0  0  0  0  0  0  0  0
  138.0001   73.3779  220.4329 H   0  0  0  0  0  0  0  0  0  0  0  0
  137.6985   74.9795  219.7648 H   0  0  0  0  0  0  0  0  0  0  0  0
  139.9745   74.1162  221.6741 H   0  0  0  0  0  0  0  0  0  0  0  0
  140.1364   74.7753  220.0032 H   0  0  0  0  0  0  0  0  0  0  0  0
  1  2  1  0
  2  3  1  0
  3  4  2  0
  3  5  1  0
  5  6  1  0
  6  7  2  0
  7  8  1  0
  8  9  2  0
  9 10  1  0
 10 11  2  0
  5 12  1  0
 12 13  1  0
 13 14  1  0
 14 15  1  0
 15 16  1  0
 16 17  2  0
 16 18  1  0
 18 19  1  0
 18 20  1  0
 20 21  1  0
 21 22  1  0
 21 23  1  0
 21 24  1  0
 24 25  2  0
 25 26  1  0
 26 27  2  0
 27 28  1  0
 28 29  1  0
 28 30  2  0
 15 31  1  0
 31 32  1  0
 11  6  1  0
 32 12  1  0
 30 24  1  0
  1 33  1  0
  1 34  1  0
  1 35  1  0
  2 36  1  0
  2 37  1  0
  7 38  1  0
  8 39  1  0
  9 40  1  0
 10 41  1  0
 11 42  1  0
 12 43  1  0
 13 44  1  0
 13 45  1  0
 14 46  1  0
 14 47  1  0
 18 48  1  6
 19 49  1  0
 19 50  1  0
 19 51  1  0
 20 52  1  0
 22 53  1  0
 22 54  1  0
 22 55  1  0
 23 56  1  0
 23 57  1  0
 23 58  1  0
 25 59  1  0
 26 60  1  0
 27 61  1  0
 30 62  1  0
 31 63  1  0
 31 64  1  0
 32 65  1  0
 32 66  1  0
M  END
>  <smiles>  (10) 
CCC(=O)N(c1ccccc1)C1CCN(C(=O)[C@H](C)NC(C)(C)c2cccc(Br)c2)CC1

>  <score_type>  (10) 
oracle

>  <origin>  (10) 
autodockgpu

>  <m_score__min__energy>  (10) 
-8.9299999999999997

>  <m_primary>  (10) 
energy

>  <rmsd>  (10) 
8.530138515299063

>  <m_score__min__rmsd>  (10) 
8.530138515299063

>  <meeko>  (10) 
{"free_energy": -7.87, "intermolecular_energy": -10.26, "internal_energy": -2.78, "cluster_size": 16, "cluster_id": 2, "rank_in_cluster": 14}

>  <energy>  (10) 
-8.12

>  <cluster_rmsd>  (10) 
0.24

>  <cluster>  (10) 
2

$$$$

     RDKit          3D

 66 68  0  0  0  0  0  0  0  0999 V2000
  136.3920   72.2040  223.2380 C   0  0  0  0  0  0  0  0  0  0  0  0
  137.2170   73.0710  222.2970 C   0  0  0  0  0  0  0  0  0  0  0  0
  138.2540   72.2080  221.6100 C   0  0  0  0  0  0  0  0  0  0  0  0
  137.8350   71.6570  220.5680 O   0  0  0  0  0  0  0  0  0  0  0  0
  139.5670   72.0740  222.1510 N   0  0  0  0  0  0  0  0  0  0  0  0
  139.8570   71.3420  223.3330 C   0  0  0  0  0  0  0  0  0  0  0  0
  140.6850   71.8840  224.3190 C   0  0  0  0  0  0  0  0  0  0  0  0
  140.9770   71.1900  225.4880 C   0  0  0  0  0  0  0  0  0  0  0  0
  140.4690   69.9450  225.7290 C   0  0  0  0  0  0  0  0  0  0  0  0
  139.6510   69.3900  224.7790 C   0  0  0  0  0  0  0  0  0  0  0  0
  139.3590   70.0860  223.6050 C   0  0  0  0  0  0  0  0  0  0  0  0
  140.6190   72.7470  221.4030 C   0  0  0  0  0  0  0  0  0  0  0  0
  141.8650   71.9210  221.2000 C   0  0  0  0  0  0  0  0  0  0  0  0
  142.9590   72.9400  220.8350 C   0  0  0  0  0  0  0  0  0  0  0  0
  142.4880   73.8410  219.8030 N   0  0  0  0  0  0  0  0  0  0  0  0
  143.2460   75.0100  219.5340 C   0  0  0  0  0  0  0  0  0  0  0  0
  144.2710   75.2110  220.2330 O   0  0  0  0  0  0  0  0  0  0  0  0
  142.8300   75.9810  218.4470 C   0  0  2  0  0  0  0  0  0  0  0  0
  143.7030   75.6130  217.2520 C   0  0  0  0  0  0  0  0  0  0  0  0
  143.0790   77.2800  218.9730 N   0  0  0  0  0  0  0  0  0  0  0  0
  141.9680   78.1260  219.2160 C   0  0  0  0  0  0  0  0  0  0  0  0
  140.6770   77.5890  218.6280 C   0  0  0  0  0  0  0  0  0  0  0  0
  142.1970   79.5330  218.7780 C   0  0  0  0  0  0  0  0  0  0  0  0
  141.7530   78.1850  220.7060 C   0  0  0  0  0  0  0  0  0  0  0  0
  141.1190   77.1490  221.3800 C   0  0  0  0  0  0  0  0  0  0  0  0
  140.9120   77.1800  222.7440 C   0  0  0  0  0  0  0  0  0  0  0  0
  141.3410   78.2750  223.4860 C   0  0  0  0  0  0  0  0  0  0  0  0
  141.9700   79.3110  222.8280 C   0  0  0  0  0  0  0  0  0  0  0  0
  142.5570   80.8090  223.8150 Br  0  0  0  0  0  0  0  0  0  0  0  0
  142.1670   79.2560  221.4660 C   0  0  0  0  0  0  0  0  0  0  0  0
  141.2510   73.5070  219.1230 C   0  0  0  0  0  0  0  0  0  0  0  0
  140.1790   73.5420  220.2300 C   0  0  0  0  0  0  0  0  0  0  0  0
  136.6352   72.4596  224.2799 H   0  0  0  0  0  0  0  0  0  0  0  0
  135.3217   72.3821  223.0570 H   0  0  0  0  0  0  0  0  0  0  0  0
  136.6230   71.1439  223.0570 H   0  0  0  0  0  0  0  0  0  0  0  0
  136.5582   73.5261  221.5427 H   0  0  0  0  0  0  0  0  0  0  0  0
  137.7168   73.8668  222.8687 H   0  0  0  0  0  0  0  0  0  0  0  0
  141.1166   72.8843  224.1669 H   0  0  0  0  0  0  0  0  0  0  0  0
  141.6338   71.6553  226.2378 H   0  0  0  0  0  0  0  0  0  0  0  0
  140.7088   69.4045  226.6566 H   0  0  0  0  0  0  0  0  0  0  0  0
  139.2223   68.3903  224.9430 H   0  0  0  0  0  0  0  0  0  0  0  0
  138.7012   69.6103  222.8627 H   0  0  0  0  0  0  0  0  0  0  0  0
  140.9428   73.5410  222.0919 H   0  0  0  0  0  0  0  0  0  0  0  0
  142.1284   71.3841  222.1233 H   0  0  0  0  0  0  0  0  0  0  0  0
  141.7333   71.1568  220.4198 H   0  0  0  0  0  0  0  0  0  0  0  0
  143.2251   73.5218  221.7298 H   0  0  0  0  0  0  0  0  0  0  0  0
  143.8396   72.3980  220.4599 H   0  0  0  0  0  0  0  0  0  0  0  0
  141.7758   75.9494  218.1344 H   0  0  0  0  0  0  0  0  0  0  0  0
  144.6618   75.2088  217.6090 H   0  0  0  0  0  0  0  0  0  0  0  0
  143.1896   74.8547  216.6425 H   0  0  0  0  0  0  0  0  0  0  0  0
  143.8873   76.5100  216.6425 H   0  0  0  0  0  0  0  0  0  0  0  0
  143.6700   77.1640  219.8390 H   0  0  0  0  0  0  0  0  0  0  0  0
  139.9937   77.3048  219.4419 H   0  0  0  0  0  0  0  0  0  0  0  0
  140.2056   78.3657  218.0079 H   0  0  0  0  0  0  0  0  0  0  0  0
  140.8955   76.7071  218.0079 H   0  0  0  0  0  0  0  0  0  0  0  0
  142.3022   80.1796  219.6617 H   0  0  0  0  0  0  0  0  0  0  0  0
  143.1153   79.5843  218.1746 H   0  0  0  0  0  0  0  0  0  0  0  0
  141.3424   79.8729  218.1746 H   0  0  0  0  0  0  0  0  0  0  0  0
  140.7709   76.2761  220.8083 H   0  0  0  0  0  0  0  0  0  0  0  0
  140.4082   76.3395  223.2437 H   0  0  0  0  0  0  0  0  0  0  0  0
  141.1822   78.3140  224.5738 H   0  0  0  0  0  0  0  0  0  0  0  0
  142.6725   80.0966  220.9682 H   0  0  0  0  0  0  0  0  0  0  0  0
  141.0258   74.2465  218.3405 H   0  0  0  0  0  0  0  0  0  0  0  0
  141.3011   72.5297  218.6207 H   0  0  0  0  0  0  0  0  0  0  0  0
  140.0128   74.5841  220.5404 H   0  0  0  0  0  0  0  0  0  0  0  0
  139.2466   73.1108  219.8368 H   0  0  0  0  0  0  0  0  0  0  0  0
  1  2  1  0
  2  3  1  0
  3  4  2  0
  3  5  1  0
  5  6  1  0
  6  7  2  0
  7  8  1  0
  8  9  2  0
  9 10  1  0
 10 11  2  0
  5 12  1  0
 12 13  1  0
 13 14  1  0
 14 15  1  0
 15 16  1  0
 16 17  2  0
 16 18  1  0
 18 19  1  0
 18 20  1  0
 20 21  1  0
 21 22  1  0
 21 23  1  0
 21 24  1  0
 24 25  2  0
 25 26  1  0
 26 27  2  0
 27 28  1  0
 28 29  1  0
 28 30  2  0
 15 31  1  0
 31 32  1  0
 11  6  1  0
 32 12  1  0
 30 24  1  0
  1 33  1  0
  1 34  1  0
  1 35  1  0
  2 36  1  0
  2 37  1  0
  7 38  1  0
  8 39  1  0
  9 40  1  0
 10 41  1  0
 11 42  1  0
 12 43  1  0
 13 44  1  0
 13 45  1  0
 14 46  1  0
 14 47  1  0
 18 48  1  6
 19 49  1  0
 19 50  1  0
 19 51  1  0
 20 52  1  0
 22 53  1  0
 22 54  1  0
 22 55  1  0
 23 56  1  0
 23 57  1  0
 23 58  1  0
 25 59  1  0
 26 60  1  0
 27 61  1  0
 30 62  1  0
 31 63  1  0
 31 64  1  0
 32 65  1  0
 32 66  1  0
M  END
>  <smiles>  (11) 
CCC(=O)N(c1ccccc1)C1CCN(C(=O)[C@H](C)NC(C)(C)c2cccc(Br)c2)CC1

>  <score_type>  (11) 
oracle

>  <origin>  (11) 
autodockgpu

>  <m_score__min__energy>  (11) 
-8.9299999999999997

>  <m_primary>  (11) 
energy

>  <rmsd>  (11) 
4.640686982736999

>  <m_score__min__rmsd>  (11) 
4.640686982736999

>  <meeko>  (11) 
{"free_energy": -7.15, "intermolecular_energy": -9.54, "internal_energy": -3.26, "cluster_size": 7, "cluster_id": 5, "rank_in_cluster": 4}

>  <energy>  (11) 
-8.1

>  <cluster_rmsd>  (11) 
1.91

>  <cluster>  (11) 
2

$$$$

     RDKit          3D

 66 68  0  0  0  0  0  0  0  0999 V2000
  141.9230   81.5230  218.6150 C   0  0  0  0  0  0  0  0  0  0  0  0
  141.1030   80.2410  218.6560 C   0  0  0  0  0  0  0  0  0  0  0  0
  141.9000   79.1670  219.3650 C   0  0  0  0  0  0  0  0  0  0  0  0
  142.7750   78.6370  218.6460 O   0  0  0  0  0  0  0  0  0  0  0  0
  141.6280   78.8350  220.7260 N   0  0  0  0  0  0  0  0  0  0  0  0
  141.8510   79.7260  221.8090 C   0  0  0  0  0  0  0  0  0  0  0  0
  140.9710   80.7830  222.0510 C   0  0  0  0  0  0  0  0  0  0  0  0
  141.1630   81.6650  223.1080 C   0  0  0  0  0  0  0  0  0  0  0  0
  142.2220   81.5410  223.9620 C   0  0  0  0  0  0  0  0  0  0  0  0
  143.1020   80.5100  223.7490 C   0  0  0  0  0  0  0  0  0  0  0  0
  142.9080   79.6260  222.6870 C   0  0  0  0  0  0  0  0  0  0  0  0
  141.0980   77.4980  220.9450 C   0  0  0  0  0  0  0  0  0  0  0  0
  139.9960   77.4260  221.9750 C   0  0  0  0  0  0  0  0  0  0  0  0
  139.9270   75.9420  222.3750 C   0  0  0  0  0  0  0  0  0  0  0  0
  139.8990   75.1000  221.1980 N   0  0  0  0  0  0  0  0  0  0  0  0
  140.1130   73.7060  221.3620 C   0  0  0  0  0  0  0  0  0  0  0  0
  140.3460   73.2880  222.5250 O   0  0  0  0  0  0  0  0  0  0  0  0
  140.0660   72.7610  220.1780 C   0  0  2  0  0  0  0  0  0  0  0  0
  138.6350   72.2330  220.1670 C   0  0  0  0  0  0  0  0  0  0  0  0
  141.0530   71.7680  220.4380 N   0  0  0  0  0  0  0  0  0  0  0  0
  142.1610   71.6820  219.5570 C   0  0  0  0  0  0  0  0  0  0  0  0
  141.7720   71.8570  218.1020 C   0  0  0  0  0  0  0  0  0  0  0  0
  142.9570   70.4350  219.7400 C   0  0  0  0  0  0  0  0  0  0  0  0
  143.0920   72.8210  219.8790 C   0  0  0  0  0  0  0  0  0  0  0  0
  142.8390   74.1060  219.4160 C   0  0  0  0  0  0  0  0  0  0  0  0
  143.6760   75.1650  219.6980 C   0  0  0  0  0  0  0  0  0  0  0  0
  144.8180   74.9620  220.4660 C   0  0  0  0  0  0  0  0  0  0  0  0
  145.0810   73.6900  220.9300 C   0  0  0  0  0  0  0  0  0  0  0  0
  146.6270   73.3900  221.9710 Br  0  0  0  0  0  0  0  0  0  0  0  0
  144.2290   72.6490  220.6370 C   0  0  0  0  0  0  0  0  0  0  0  0
  139.6810   75.7360  219.9130 C   0  0  0  0  0  0  0  0  0  0  0  0
  140.8940   76.6690  219.7310 C   0  0  0  0  0  0  0  0  0  0  0  0
  142.1356   81.8553  219.6418 H   0  0  0  0  0  0  0  0  0  0  0  0
  142.8696   81.3361  218.0868 H   0  0  0  0  0  0  0  0  0  0  0  0
  141.3564   82.3040  218.0868 H   0  0  0  0  0  0  0  0  0  0  0  0
  140.1635   80.4216  219.1989 H   0  0  0  0  0  0  0  0  0  0  0  0
  140.8716   79.9156  217.6310 H   0  0  0  0  0  0  0  0  0  0  0  0
  140.1039   80.9211  221.3883 H   0  0  0  0  0  0  0  0  0  0  0  0
  140.4441   82.4835  223.2607 H   0  0  0  0  0  0  0  0  0  0  0  0
  142.3648   82.2457  224.7945 H   0  0  0  0  0  0  0  0  0  0  0  0
  143.9648   80.3797  224.4188 H   0  0  0  0  0  0  0  0  0  0  0  0
  143.6329   78.8111  222.5441 H   0  0  0  0  0  0  0  0  0  0  0  0
  141.9389   76.9750  221.4240 H   0  0  0  0  0  0  0  0  0  0  0  0
  140.2392   78.0512  222.8468 H   0  0  0  0  0  0  0  0  0  0  0  0
  139.0368   77.7950  221.5828 H   0  0  0  0  0  0  0  0  0  0  0  0
  140.8100   75.6889  222.9801 H   0  0  0  0  0  0  0  0  0  0  0  0
  139.0080   75.7725  222.9553 H   0  0  0  0  0  0  0  0  0  0  0  0
  140.2868   73.1942  219.1913 H   0  0  0  0  0  0  0  0  0  0  0  0
  138.2840   72.1035  221.2014 H   0  0  0  0  0  0  0  0  0  0  0  0
  137.9836   72.9500  219.6458 H   0  0  0  0  0  0  0  0  0  0  0  0
  138.6054   71.2648  219.6458 H   0  0  0  0  0  0  0  0  0  0  0  0
  141.3660   71.8850  221.4390 H   0  0  0  0  0  0  0  0  0  0  0  0
  140.7703   72.3076  218.0419 H   0  0  0  0  0  0  0  0  0  0  0  0
  142.5002   72.5142  217.6043 H   0  0  0  0  0  0  0  0  0  0  0  0
  141.7632   70.8761  217.6043 H   0  0  0  0  0  0  0  0  0  0  0  0
  143.0843   70.2356  220.8143 H   0  0  0  0  0  0  0  0  0  0  0  0
  142.4300   69.5914  219.2704 H   0  0  0  0  0  0  0  0  0  0  0  0
  143.9441   70.5579  219.2704 H   0  0  0  0  0  0  0  0  0  0  0  0
  141.9421   74.2846  218.8047 H   0  0  0  0  0  0  0  0  0  0  0  0
  143.4409   76.1694  219.3160 H   0  0  0  0  0  0  0  0  0  0  0  0
  145.4957   75.7968  220.6979 H   0  0  0  0  0  0  0  0  0  0  0  0
  144.4644   71.6456  221.0214 H   0  0  0  0  0  0  0  0  0  0  0  0
  139.6441   74.9857  219.1095 H   0  0  0  0  0  0  0  0  0  0  0  0
  138.7260   76.2804  219.8734 H   0  0  0  0  0  0  0  0  0  0  0  0
  141.7938   76.0623  219.5514 H   0  0  0  0  0  0  0  0  0  0  0  0
  140.7073   77.3327  218.8739 H   0  0  0  0  0  0  0  0  0  0  0  0
  1  2  1  0
  2  3  1  0
  3  4  2  0
  3  5  1  0
  5  6  1  0
  6  7  2  0
  7  8  1  0
  8  9  2  0
  9 10  1  0
 10 11  2  0
  5 12  1  0
 12 13  1  0
 13 14  1  0
 14 15  1  0
 15 16  1  0
 16 17  2  0
 16 18  1  0
 18 19  1  0
 18 20  1  0
 20 21  1  0
 21 22  1  0
 21 23  1  0
 21 24  1  0
 24 25  2  0
 25 26  1  0
 26 27  2  0
 27 28  1  0
 28 29  1  0
 28 30  2  0
 15 31  1  0
 31 32  1  0
 11  6  1  0
 32 12  1  0
 30 24  1  0
  1 33  1  0
  1 34  1  0
  1 35  1  0
  2 36  1  0
  2 37  1  0
  7 38  1  0
  8 39  1  0
  9 40  1  0
 10 41  1  0
 11 42  1  0
 12 43  1  0
 13 44  1  0
 13 45  1  0
 14 46  1  0
 14 47  1  0
 18 48  1  6
 19 49  1  0
 19 50  1  0
 19 51  1  0
 20 52  1  0
 22 53  1  0
 22 54  1  0
 22 55  1  0
 23 56  1  0
 23 57  1  0
 23 58  1  0
 25 59  1  0
 26 60  1  0
 27 61  1  0
 30 62  1  0
 31 63  1  0
 31 64  1  0
 32 65  1  0
 32 66  1  0
M  END
>  <smiles>  (12) 
CCC(=O)N(c1ccccc1)C1CCN(C(=O)[C@H](C)NC(C)(C)c2cccc(Br)c2)CC1

>  <score_type>  (12) 
oracle

>  <origin>  (12) 
autodockgpu

>  <m_score__min__energy>  (12) 
-8.9299999999999997

>  <m_primary>  (12) 
energy

>  <rmsd>  (12) 
7.102033931046885

>  <m_score__min__rmsd>  (12) 
7.102033931046885

>  <meeko>  (12) 
{"free_energy": -6.94, "intermolecular_energy": -9.33, "internal_energy": -3.44, "cluster_size": 1, "cluster_id": 11, "rank_in_cluster": 1}

>  <energy>  (12) 
-8.08

>  <cluster_rmsd>  (12) 
1.91

>  <cluster>  (12) 
2

$$$$

     RDKit          3D

 66 68  0  0  0  0  0  0  0  0999 V2000
  146.3710   73.3890  221.6890 C   0  0  0  0  0  0  0  0  0  0  0  0
  145.0050   73.2310  221.0350 C   0  0  0  0  0  0  0  0  0  0  0  0
  145.1430   73.4390  219.5420 C   0  0  0  0  0  0  0  0  0  0  0  0
  146.2080   72.9830  219.0700 O   0  0  0  0  0  0  0  0  0  0  0  0
  144.1210   74.1010  218.7990 N   0  0  0  0  0  0  0  0  0  0  0  0
  144.2960   74.5660  217.4690 C   0  0  0  0  0  0  0  0  0  0  0  0
  143.8760   75.8480  217.1040 C   0  0  0  0  0  0  0  0  0  0  0  0
  144.0430   76.3290  215.8100 C   0  0  0  0  0  0  0  0  0  0  0  0
  144.6260   75.5720  214.8330 C   0  0  0  0  0  0  0  0  0  0  0  0
  145.0480   74.3100  215.1640 C   0  0  0  0  0  0  0  0  0  0  0  0
  144.8800   73.8280  216.4630 C   0  0  0  0  0  0  0  0  0  0  0  0
  142.8580   74.2760  219.5010 C   0  0  0  0  0  0  0  0  0  0  0  0
  142.4330   75.7150  219.6680 C   0  0  0  0  0  0  0  0  0  0  0  0
  141.3850   75.6880  220.7940 C   0  0  0  0  0  0  0  0  0  0  0  0
  140.4070   74.6480  220.5530 N   0  0  0  0  0  0  0  0  0  0  0  0
  139.5310   74.2890  221.6100 C   0  0  0  0  0  0  0  0  0  0  0  0
  139.6780   74.8790  222.7110 O   0  0  0  0  0  0  0  0  0  0  0  0
  138.4620   73.2310  221.4190 C   0  0  2  0  0  0  0  0  0  0  0  0
  137.1580   74.0170  221.3390 C   0  0  0  0  0  0  0  0  0  0  0  0
  138.5600   72.3750  222.5510 N   0  0  0  0  0  0  0  0  0  0  0  0
  139.3420   71.1980  222.4320 C   0  0  0  0  0  0  0  0  0  0  0  0
  140.7390   71.4670  221.9070 C   0  0  0  0  0  0  0  0  0  0  0  0
  138.6770   70.1330  221.6280 C   0  0  0  0  0  0  0  0  0  0  0  0
  139.5210   70.6240  223.8140 C   0  0  0  0  0  0  0  0  0  0  0  0
  139.1070   69.3320  224.1120 C   0  0  0  0  0  0  0  0  0  0  0  0
  139.2610   68.7850  225.3700 C   0  0  0  0  0  0  0  0  0  0  0  0
  139.8450   69.5340  226.3860 C   0  0  0  0  0  0  0  0  0  0  0  0
  140.2590   70.8190  226.1020 C   0  0  0  0  0  0  0  0  0  0  0  0
  141.0500   71.8550  227.4660 Br  0  0  0  0  0  0  0  0  0  0  0  0
  140.0960   71.3420  224.8380 C   0  0  0  0  0  0  0  0  0  0  0  0
  140.4000   74.0130  219.2490 C   0  0  0  0  0  0  0  0  0  0  0  0
  141.7760   73.3260  219.1440 C   0  0  0  0  0  0  0  0  0  0  0  0
  146.2575   73.3759  222.7830 H   0  0  0  0  0  0  0  0  0  0  0  0
  147.0244   72.5604  221.3782 H   0  0  0  0  0  0  0  0  0  0  0  0
  146.8180   74.3448  221.3782 H   0  0  0  0  0  0  0  0  0  0  0  0
  144.6172   72.2206  221.2318 H   0  0  0  0  0  0  0  0  0  0  0  0
  144.3078   73.9740  221.4496 H   0  0  0  0  0  0  0  0  0  0  0  0
  143.4017   76.4924  217.8589 H   0  0  0  0  0  0  0  0  0  0  0  0
  143.6971   77.3445  215.5667 H   0  0  0  0  0  0  0  0  0  0  0  0
  144.7528   75.9629  213.8126 H   0  0  0  0  0  0  0  0  0  0  0  0
  145.5215   73.6740  214.4016 H   0  0  0  0  0  0  0  0  0  0  0  0
  145.2303   72.8113  216.6943 H   0  0  0  0  0  0  0  0  0  0  0  0
  143.0975   73.9540  220.5252 H   0  0  0  0  0  0  0  0  0  0  0  0
  143.2910   76.3418  219.9524 H   0  0  0  0  0  0  0  0  0  0  0  0
  142.0303   76.1394  218.7365 H   0  0  0  0  0  0  0  0  0  0  0  0
  141.8889   75.4957  221.7527 H   0  0  0  0  0  0  0  0  0  0  0  0
  140.8703   76.6597  220.8238 H   0  0  0  0  0  0  0  0  0  0  0  0
  138.5459   72.5998  220.5220 H   0  0  0  0  0  0  0  0  0  0  0  0
  136.7978   74.2341  222.3554 H   0  0  0  0  0  0  0  0  0  0  0  0
  137.3314   74.9612  220.8019 H   0  0  0  0  0  0  0  0  0  0  0  0
  136.4041   73.4228  220.8019 H   0  0  0  0  0  0  0  0  0  0  0  0
  138.8730   72.9630  223.3690 H   0  0  0  0  0  0  0  0  0  0  0  0
  141.4294   71.5999  222.7530 H   0  0  0  0  0  0  0  0  0  0  0  0
  141.0703   70.6162  221.2936 H   0  0  0  0  0  0  0  0  0  0  0  0
  140.7307   72.3800  221.2936 H   0  0  0  0  0  0  0  0  0  0  0  0
  138.2173   69.3967  222.3037 H   0  0  0  0  0  0  0  0  0  0  0  0
  137.8997   70.5840  220.9936 H   0  0  0  0  0  0  0  0  0  0  0  0
  139.4234   69.6326  220.9936 H   0  0  0  0  0  0  0  0  0  0  0  0
  138.6418   68.7258  223.3207 H   0  0  0  0  0  0  0  0  0  0  0  0
  138.9221   67.7576  225.5687 H   0  0  0  0  0  0  0  0  0  0  0  0
  139.9739   69.1113  227.3933 H   0  0  0  0  0  0  0  0  0  0  0  0
  140.4371   72.3689  224.6402 H   0  0  0  0  0  0  0  0  0  0  0  0
  139.5898   73.2720  219.1822 H   0  0  0  0  0  0  0  0  0  0  0  0
  140.2300   74.7332  218.4351 H   0  0  0  0  0  0  0  0  0  0  0  0
  141.8059   72.4679  219.8316 H   0  0  0  0  0  0  0  0  0  0  0  0
  141.9269   72.9868  218.1086 H   0  0  0  0  0  0  0  0  0  0  0  0
  1  2  1  0
  2  3  1  0
  3  4  2  0
  3  5  1  0
  5  6  1  0
  6  7  2  0
  7  8  1  0
  8  9  2  0
  9 10  1  0
 10 11  2  0
  5 12  1  0
 12 13  1  0
 13 14  1  0
 14 15  1  0
 15 16  1  0
 16 17  2  0
 16 18  1  0
 18 19  1  0
 18 20  1  0
 20 21  1  0
 21 22  1  0
 21 23  1  0
 21 24  1  0
 24 25  2  0
 25 26  1  0
 26 27  2  0
 27 28  1  0
 28 29  1  0
 28 30  2  0
 15 31  1  0
 31 32  1  0
 11  6  1  0
 32 12  1  0
 30 24  1  0
  1 33  1  0
  1 34  1  0
  1 35  1  0
  2 36  1  0
  2 37  1  0
  7 38  1  0
  8 39  1  0
  9 40  1  0
 10 41  1  0
 11 42  1  0
 12 43  1  0
 13 44  1  0
 13 45  1  0
 14 46  1  0
 14 47  1  0
 18 48  1  6
 19 49  1  0
 19 50  1  0
 19 51  1  0
 20 52  1  0
 22 53  1  0
 22 54  1  0
 22 55  1  0
 23 56  1  0
 23 57  1  0
 23 58  1  0
 25 59  1  0
 26 60  1  0
 27 61  1  0
 30 62  1  0
 31 63  1  0
 31 64  1  0
 32 65  1  0
 32 66  1  0
M  END
>  <smiles>  (13) 
CCC(=O)N(c1ccccc1)C1CCN(C(=O)[C@H](C)NC(C)(C)c2cccc(Br)c2)CC1

>  <score_type>  (13) 
oracle

>  <origin>  (13) 
autodockgpu

>  <m_score__min__energy>  (13) 
-8.9299999999999997

>  <m_primary>  (13) 
energy

>  <rmsd>  (13) 
8.203882225627515

>  <m_score__min__rmsd>  (13) 
8.203882225627515

>  <meeko>  (13) 
{"free_energy": -8.04, "intermolecular_energy": -10.43, "internal_energy": -2.66, "cluster_size": 3, "cluster_id": 4, "rank_in_cluster": 1}

>  <energy>  (13) 
-8.0

>  <cluster_rmsd>  (13) 
1.98

>  <cluster>  (13) 
2

$$$$

     RDKit          3D

 66 68  0  0  0  0  0  0  0  0999 V2000
  146.6820   73.3710  221.8920 C   0  0  0  0  0  0  0  0  0  0  0  0
  145.4840   73.7450  221.0280 C   0  0  0  0  0  0  0  0  0  0  0  0
  145.4290   72.8200  219.8320 C   0  0  0  0  0  0  0  0  0  0  0  0
  146.3160   73.0490  218.9810 O   0  0  0  0  0  0  0  0  0  0  0  0
  144.4340   71.8010  219.7420 N   0  0  0  0  0  0  0  0  0  0  0  0
  144.6930   70.4930  219.2520 C   0  0  0  0  0  0  0  0  0  0  0  0
  144.4510   69.3750  220.0530 C   0  0  0  0  0  0  0  0  0  0  0  0
  144.6900   68.0840  219.5940 C   0  0  0  0  0  0  0  0  0  0  0  0
  145.1730   67.8470  218.3380 C   0  0  0  0  0  0  0  0  0  0  0  0
  145.4190   68.9280  217.5300 C   0  0  0  0  0  0  0  0  0  0  0  0
  145.1790   70.2230  217.9920 C   0  0  0  0  0  0  0  0  0  0  0  0
  143.1050   72.1890  220.1920 C   0  0  0  0  0  0  0  0  0  0  0  0
  142.7340   73.6180  219.8770 C   0  0  0  0  0  0  0  0  0  0  0  0
  141.5580   73.9370  220.8160 C   0  0  0  0  0  0  0  0  0  0  0  0
  140.5670   72.8830  220.7640 N   0  0  0  0  0  0  0  0  0  0  0  0
  139.5530   72.8620  221.7560 C   0  0  0  0  0  0  0  0  0  0  0  0
  139.5950   73.7480  222.6470 O   0  0  0  0  0  0  0  0  0  0  0  0
  138.4650   71.8070  221.7440 C   0  0  2  0  0  0  0  0  0  0  0  0
  137.3350   72.4320  220.9330 C   0  0  0  0  0  0  0  0  0  0  0  0
  138.1420   71.5700  223.1110 N   0  0  0  0  0  0  0  0  0  0  0  0
  138.4280   70.2910  223.6520 C   0  0  0  0  0  0  0  0  0  0  0  0
  139.1360   69.3790  222.6700 C   0  0  0  0  0  0  0  0  0  0  0  0
  137.2280   69.6160  224.2230 C   0  0  0  0  0  0  0  0  0  0  0  0
  139.3820   70.4840  224.8020 C   0  0  0  0  0  0  0  0  0  0  0  0
  140.2470   71.5700  224.8410 C   0  0  0  0  0  0  0  0  0  0  0  0
  141.1290   71.7680  225.8840 C   0  0  0  0  0  0  0  0  0  0  0  0
  141.1720   70.8620  226.9380 C   0  0  0  0  0  0  0  0  0  0  0  0
  140.3180   69.7790  226.9100 C   0  0  0  0  0  0  0  0  0  0  0  0
  140.3610   68.5340  228.3290 Br  0  0  0  0  0  0  0  0  0  0  0  0
  139.4450   69.6040  225.8590 C   0  0  0  0  0  0  0  0  0  0  0  0
  140.6860   71.8910  219.7120 C   0  0  0  0  0  0  0  0  0  0  0  0
  142.0290   71.1880  219.9910 C   0  0  0  0  0  0  0  0  0  0  0  0
  146.4089   73.4562  222.9542 H   0  0  0  0  0  0  0  0  0  0  0  0
  146.9833   72.3360  221.6728 H   0  0  0  0  0  0  0  0  0  0  0  0
  147.5186   74.0507  221.6728 H   0  0  0  0  0  0  0  0  0  0  0  0
  144.5597   73.6429  221.6156 H   0  0  0  0  0  0  0  0  0  0  0  0
  145.5830   74.7862  220.6873 H   0  0  0  0  0  0  0  0  0  0  0  0
  144.0619   69.5189  221.0718 H   0  0  0  0  0  0  0  0  0  0  0  0
  144.4850   67.2321  220.2590 H   0  0  0  0  0  0  0  0  0  0  0  0
  145.3588   66.8216  217.9858 H   0  0  0  0  0  0  0  0  0  0  0  0
  145.8075   68.7734  216.5126 H   0  0  0  0  0  0  0  0  0  0  0  0
  145.3877   71.0672  217.3184 H   0  0  0  0  0  0  0  0  0  0  0  0
  143.2027   72.1802  221.2876 H   0  0  0  0  0  0  0  0  0  0  0  0
  143.5814   74.2907  220.0755 H   0  0  0  0  0  0  0  0  0  0  0  0
  142.4675   73.7532  218.8184 H   0  0  0  0  0  0  0  0  0  0  0  0
  141.9325   74.0312  221.8460 H   0  0  0  0  0  0  0  0  0  0  0  0
  141.0916   74.8798  220.4942 H   0  0  0  0  0  0  0  0  0  0  0  0
  138.7230   70.8369  221.2942 H   0  0  0  0  0  0  0  0  0  0  0  0
  136.5806   72.8492  221.6162 H   0  0  0  0  0  0  0  0  0  0  0  0
  137.7393   73.2347  220.2989 H   0  0  0  0  0  0  0  0  0  0  0  0
  136.8699   71.6629  220.2989 H   0  0  0  0  0  0  0  0  0  0  0  0
  138.5880   72.3380  223.6800 H   0  0  0  0  0  0  0  0  0  0  0  0
  139.7193   68.6276  223.2224 H   0  0  0  0  0  0  0  0  0  0  0  0
  138.3918   68.8730  222.0374 H   0  0  0  0  0  0  0  0  0  0  0  0
  139.8107   69.9745  222.0374 H   0  0  0  0  0  0  0  0  0  0  0  0
  137.2791   69.6447  225.3214 H   0  0  0  0  0  0  0  0  0  0  0  0
  136.3193   70.1354  223.8845 H   0  0  0  0  0  0  0  0  0  0  0  0
  137.2000   68.5698  223.8845 H   0  0  0  0  0  0  0  0  0  0  0  0
  140.2285   72.2954  224.0143 H   0  0  0  0  0  0  0  0  0  0  0  0
  141.7973   72.6417  225.8815 H   0  0  0  0  0  0  0  0  0  0  0  0
  141.8711   71.0056  227.7751 H   0  0  0  0  0  0  0  0  0  0  0  0
  138.7753   68.7314  225.8643 H   0  0  0  0  0  0  0  0  0  0  0  0
  139.8543   71.1726  219.7597 H   0  0  0  0  0  0  0  0  0  0  0  0
  140.6509   72.3405  218.7087 H   0  0  0  0  0  0  0  0  0  0  0  0
  141.9339   70.5713  220.8969 H   0  0  0  0  0  0  0  0  0  0  0  0
  142.2866   70.5558  219.1285 H   0  0  0  0  0  0  0  0  0  0  0  0
  1  2  1  0
  2  3  1  0
  3  4  2  0
  3  5  1  0
  5  6  1  0
  6  7  2  0
  7  8  1  0
  8  9  2  0
  9 10  1  0
 10 11  2  0
  5 12  1  0
 12 13  1  0
 13 14  1  0
 14 15  1  0
 15 16  1  0
 16 17  2  0
 16 18  1  0
 18 19  1  0
 18 20  1  0
 20 21  1  0
 21 22  1  0
 21 23  1  0
 21 24  1  0
 24 25  2  0
 25 26  1  0
 26 27  2  0
 27 28  1  0
 28 29  1  0
 28 30  2  0
 15 31  1  0
 31 32  1  0
 11  6  1  0
 32 12  1  0
 30 24  1  0
  1 33  1  0
  1 34  1  0
  1 35  1  0
  2 36  1  0
  2 37  1  0
  7 38  1  0
  8 39  1  0
  9 40  1  0
 10 41  1  0
 11 42  1  0
 12 43  1  0
 13 44  1  0
 13 45  1  0
 14 46  1  0
 14 47  1  0
 18 48  1  6
 19 49  1  0
 19 50  1  0
 19 51  1  0
 20 52  1  0
 22 53  1  0
 22 54  1  0
 22 55  1  0
 23 56  1  0
 23 57  1  0
 23 58  1  0
 25 59  1  0
 26 60  1  0
 27 61  1  0
 30 62  1  0
 31 63  1  0
 31 64  1  0
 32 65  1  0
 32 66  1  0
M  END
>  <smiles>  (14) 
CCC(=O)N(c1ccccc1)C1CCN(C(=O)[C@H](C)NC(C)(C)c2cccc(Br)c2)CC1

>  <score_type>  (14) 
oracle

>  <origin>  (14) 
autodockgpu

>  <m_score__min__energy>  (14) 
-8.9299999999999997

>  <m_primary>  (14) 
energy

>  <rmsd>  (14) 
8.860477200239613

>  <m_score__min__rmsd>  (14) 
8.860477200239613

>  <meeko>  (14) 
{"free_energy": -8.93, "intermolecular_energy": -11.31, "internal_energy": -2.65, "cluster_size": 5, "cluster_id": 1, "rank_in_cluster": 1}

>  <energy>  (14) 
-8.0

>  <cluster_rmsd>  (14) 
1.69

>  <cluster>  (14) 
2

$$$$

     RDKit          3D

 66 68  0  0  0  0  0  0  0  0999 V2000
  138.5740   67.5770  222.7240 C   0  0  0  0  0  0  0  0  0  0  0  0
  137.3090   68.4020  222.9230 C   0  0  0  0  0  0  0  0  0  0  0  0
  137.3640   69.0740  224.2780 C   0  0  0  0  0  0  0  0  0  0  0  0
  136.3400   68.8890  224.9710 O   0  0  0  0  0  0  0  0  0  0  0  0
  138.5070   69.8350  224.6690 N   0  0  0  0  0  0  0  0  0  0  0  0
  139.3250   69.5020  225.7820 C   0  0  0  0  0  0  0  0  0  0  0  0
  139.5330   68.1670  226.1360 C   0  0  0  0  0  0  0  0  0  0  0  0
  140.3350   67.8160  227.2160 C   0  0  0  0  0  0  0  0  0  0  0  0
  140.9600   68.7590  227.9830 C   0  0  0  0  0  0  0  0  0  0  0  0
  140.7740   70.0780  227.6560 C   0  0  0  0  0  0  0  0  0  0  0  0
  139.9680   70.4300  226.5720 C   0  0  0  0  0  0  0  0  0  0  0  0
  138.7910   70.9980  223.8430 C   0  0  0  0  0  0  0  0  0  0  0  0
  139.9590   70.8240  222.9040 C   0  0  0  0  0  0  0  0  0  0  0  0
  140.3610   72.2550  222.5040 C   0  0  0  0  0  0  0  0  0  0  0  0
  139.1950   73.0170  222.1070 N   0  0  0  0  0  0  0  0  0  0  0  0
  139.3240   74.4230  221.9720 C   0  0  0  0  0  0  0  0  0  0  0  0
  140.4440   74.9310  222.2370 O   0  0  0  0  0  0  0  0  0  0  0  0
  138.1550   75.2800  221.5290 C   0  0  2  0  0  0  0  0  0  0  0  0
  138.7920   76.4160  220.7360 C   0  0  0  0  0  0  0  0  0  0  0  0
  137.5060   75.6950  222.7260 N   0  0  0  0  0  0  0  0  0  0  0  0
  136.1120   75.9530  222.6740 C   0  0  0  0  0  0  0  0  0  0  0  0
  135.4480   75.3660  221.4440 C   0  0  0  0  0  0  0  0  0  0  0  0
  135.7800   77.4000  222.8090 C   0  0  0  0  0  0  0  0  0  0  0  0
  135.4750   75.2690  223.8560 C   0  0  0  0  0  0  0  0  0  0  0  0
  135.0800   75.9920  224.9740 C   0  0  0  0  0  0  0  0  0  0  0  0
  134.4940   75.3880  226.0680 C   0  0  0  0  0  0  0  0  0  0  0  0
  134.2850   74.0130  226.0730 C   0  0  0  0  0  0  0  0  0  0  0  0
  134.6740   73.2850  224.9680 C   0  0  0  0  0  0  0  0  0  0  0  0
  134.4030   71.4170  224.9540 Br  0  0  0  0  0  0  0  0  0  0  0  0
  135.2550   73.9100  223.8880 C   0  0  0  0  0  0  0  0  0  0  0  0
  137.9530   72.2970  221.8970 C   0  0  0  0  0  0  0  0  0  0  0  0
  137.6130   71.7000  223.2770 C   0  0  0  0  0  0  0  0  0  0  0  0
  138.9920   67.3044  223.7043 H   0  0  0  0  0  0  0  0  0  0  0  0
  138.3311   66.6631  222.1620 H   0  0  0  0  0  0  0  0  0  0  0  0
  139.3124   68.1677  222.1620 H   0  0  0  0  0  0  0  0  0  0  0  0
  137.2402   69.1666  222.1352 H   0  0  0  0  0  0  0  0  0  0  0  0
  136.4271   67.7467  222.8699 H   0  0  0  0  0  0  0  0  0  0  0  0
  139.0505   67.3740  225.5459 H   0  0  0  0  0  0  0  0  0  0  0  0
  140.4701   66.7518  227.4595 H   0  0  0  0  0  0  0  0  0  0  0  0
  141.5921   68.4693  228.8354 H   0  0  0  0  0  0  0  0  0  0  0  0
  141.2629   70.8631  228.2515 H   0  0  0  0  0  0  0  0  0  0  0  0
  139.8403   71.4971  226.3377 H   0  0  0  0  0  0  0  0  0  0  0  0
  139.1513   71.7377  224.5731 H   0  0  0  0  0  0  0  0  0  0  0  0
  140.7918   70.3156  223.4120 H   0  0  0  0  0  0  0  0  0  0  0  0
  139.7005   70.2067  222.0310 H   0  0  0  0  0  0  0  0  0  0  0  0
  140.8417   72.7490  223.3613 H   0  0  0  0  0  0  0  0  0  0  0  0
  141.0590   72.2045  221.6553 H   0  0  0  0  0  0  0  0  0  0  0  0
  137.3982   74.7936  220.8960 H   0  0  0  0  0  0  0  0  0  0  0  0
  139.2090   77.1596  221.4311 H   0  0  0  0  0  0  0  0  0  0  0  0
  139.5967   76.0147  220.1024 H   0  0  0  0  0  0  0  0  0  0  0  0
  138.0299   76.8932  220.1024 H   0  0  0  0  0  0  0  0  0  0  0  0
  137.7380   74.9900  223.4750 H   0  0  0  0  0  0  0  0  0  0  0  0
  134.6570   74.6667  221.7528 H   0  0  0  0  0  0  0  0  0  0  0  0
  135.0077   76.1756  220.8434 H   0  0  0  0  0  0  0  0  0  0  0  0
  136.1975   74.8298  220.8434 H   0  0  0  0  0  0  0  0  0  0  0  0
  135.7193   77.6644  223.8750 H   0  0  0  0  0  0  0  0  0  0  0  0
  136.5632   78.0025  222.3258 H   0  0  0  0  0  0  0  0  0  0  0  0
  134.8124   77.6008  222.3258 H   0  0  0  0  0  0  0  0  0  0  0  0
  135.2392   77.0803  224.9881 H   0  0  0  0  0  0  0  0  0  0  0  0
  134.1925   75.9937  226.9353 H   0  0  0  0  0  0  0  0  0  0  0  0
  133.8202   73.5176  226.9382 H   0  0  0  0  0  0  0  0  0  0  0  0
  135.5539   73.3030  223.0207 H   0  0  0  0  0  0  0  0  0  0  0  0
  137.1589   72.9812  221.5633 H   0  0  0  0  0  0  0  0  0  0  0  0
  138.0443   71.5248  221.1189 H   0  0  0  0  0  0  0  0  0  0  0  0
  137.3124   72.5100  223.9579 H   0  0  0  0  0  0  0  0  0  0  0  0
  136.7908   70.9787  223.1602 H   0  0  0  0  0  0  0  0  0  0  0  0
  1  2  1  0
  2  3  1  0
  3  4  2  0
  3  5  1  0
  5  6  1  0
  6  7  2  0
  7  8  1  0
  8  9  2  0
  9 10  1  0
 10 11  2  0
  5 12  1  0
 12 13  1  0
 13 14  1  0
 14 15  1  0
 15 16  1  0
 16 17  2  0
 16 18  1  0
 18 19  1  0
 18 20  1  0
 20 21  1  0
 21 22  1  0
 21 23  1  0
 21 24  1  0
 24 25  2  0
 25 26  1  0
 26 27  2  0
 27 28  1  0
 28 29  1  0
 28 30  2  0
 15 31  1  0
 31 32  1  0
 11  6  1  0
 32 12  1  0
 30 24  1  0
  1 33  1  0
  1 34  1  0
  1 35  1  0
  2 36  1  0
  2 37  1  0
  7 38  1  0
  8 39  1  0
  9 40  1  0
 10 41  1  0
 11 42  1  0
 12 43  1  0
 13 44  1  0
 13 45  1  0
 14 46  1  0
 14 47  1  0
 18 48  1  6
 19 49  1  0
 19 50  1  0
 19 51  1  0
 20 52  1  0
 22 53  1  0
 22 54  1  0
 22 55  1  0
 23 56  1  0
 23 57  1  0
 23 58  1  0
 25 59  1  0
 26 60  1  0
 27 61  1  0
 30 62  1  0
 31 63  1  0
 31 64  1  0
 32 65  1  0
 32 66  1  0
M  END
>  <smiles>  (15) 
CCC(=O)N(c1ccccc1)C1CCN(C(=O)[C@H](C)NC(C)(C)c2cccc(Br)c2)CC1

>  <score_type>  (15) 
oracle

>  <origin>  (15) 
autodockgpu

>  <m_score__min__energy>  (15) 
-8.9299999999999997

>  <m_primary>  (15) 
energy

>  <rmsd>  (15) 
7.43809321240634

>  <m_score__min__rmsd>  (15) 
7.43809321240634

>  <meeko>  (15) 
{"free_energy": -7.47, "intermolecular_energy": -9.86, "internal_energy": -2.95, "cluster_size": 2, "cluster_id": 10, "rank_in_cluster": 1}

>  <energy>  (15) 
-7.97

>  <cluster_rmsd>  (15) 
0.74

>  <cluster>  (15) 
2

$$$$

     RDKit          3D

 66 68  0  0  0  0  0  0  0  0999 V2000
  137.3580   74.7190  221.9120 C   0  0  0  0  0  0  0  0  0  0  0  0
  137.1600   73.2590  222.3010 C   0  0  0  0  0  0  0  0  0  0  0  0
  138.1660   72.4080  221.5560 C   0  0  0  0  0  0  0  0  0  0  0  0
  137.7170   71.9110  220.5010 O   0  0  0  0  0  0  0  0  0  0  0  0
  139.4870   72.2270  222.0640 N   0  0  0  0  0  0  0  0  0  0  0  0
  139.7880   71.4300  223.2000 C   0  0  0  0  0  0  0  0  0  0  0  0
  140.6730   71.8910  224.1770 C   0  0  0  0  0  0  0  0  0  0  0  0
  140.9770   71.1320  225.3010 C   0  0  0  0  0  0  0  0  0  0  0  0
  140.4260   69.9000  225.5060 C   0  0  0  0  0  0  0  0  0  0  0  0
  139.5510   69.4230  224.5630 C   0  0  0  0  0  0  0  0  0  0  0  0
  139.2470   70.1850  223.4340 C   0  0  0  0  0  0  0  0  0  0  0  0
  140.5340   72.9240  221.3320 C   0  0  0  0  0  0  0  0  0  0  0  0
  141.8230   72.1490  221.1990 C   0  0  0  0  0  0  0  0  0  0  0  0
  142.8830   73.2040  220.8390 C   0  0  0  0  0  0  0  0  0  0  0  0
  142.4110   74.0510  219.7640 N   0  0  0  0  0  0  0  0  0  0  0  0
  143.1260   75.2440  219.4830 C   0  0  0  0  0  0  0  0  0  0  0  0
  144.1150   75.5130  220.2110 O   0  0  0  0  0  0  0  0  0  0  0  0
  142.7080   76.1620  218.3520 C   0  0  2  0  0  0  0  0  0  0  0  0
  143.5710   75.7300  217.1710 C   0  0  0  0  0  0  0  0  0  0  0  0
  142.9670   77.4840  218.8110 N   0  0  0  0  0  0  0  0  0  0  0  0
  141.8580   78.3110  219.1220 C   0  0  0  0  0  0  0  0  0  0  0  0
  140.5550   77.7970  218.5390 C   0  0  0  0  0  0  0  0  0  0  0  0
  142.0700   79.7390  218.7490 C   0  0  0  0  0  0  0  0  0  0  0  0
  141.6780   78.2950  220.6180 C   0  0  0  0  0  0  0  0  0  0  0  0
  141.0890   77.2110  221.2570 C   0  0  0  0  0  0  0  0  0  0  0  0
  140.9150   77.1730  222.6250 C   0  0  0  0  0  0  0  0  0  0  0  0
  141.3340   78.2430  223.4080 C   0  0  0  0  0  0  0  0  0  0  0  0
  141.9190   79.3250  222.7860 C   0  0  0  0  0  0  0  0  0  0  0  0
  142.4920   80.7900  223.8280 Br  0  0  0  0  0  0  0  0  0  0  0  0
  142.0840   79.3390  221.4180 C   0  0  0  0  0  0  0  0  0  0  0  0
  141.2150   73.6410  219.0520 C   0  0  0  0  0  0  0  0  0  0  0  0
  140.1030   73.6610  220.1190 C   0  0  0  0  0  0  0  0  0  0  0  0
  137.4412   75.3326  222.8211 H   0  0  0  0  0  0  0  0  0  0  0  0
  138.2779   74.8184  221.3170 H   0  0  0  0  0  0  0  0  0  0  0  0
  136.4979   75.0598  221.3170 H   0  0  0  0  0  0  0  0  0  0  0  0
  137.3097   73.1428  223.3846 H   0  0  0  0  0  0  0  0  0  0  0  0
  136.1398   72.9408  222.0405 H   0  0  0  0  0  0  0  0  0  0  0  0
  141.1409   72.8789  224.0540 H   0  0  0  0  0  0  0  0  0  0  0  0
  141.6801   71.5347  226.0449 H   0  0  0  0  0  0  0  0  0  0  0  0
  140.6756   69.3083  226.3991 H   0  0  0  0  0  0  0  0  0  0  0  0
  139.0867   68.4349  224.6975 H   0  0  0  0  0  0  0  0  0  0  0  0
  138.5427   69.7722  222.6968 H   0  0  0  0  0  0  0  0  0  0  0  0
  140.7956   73.7530  222.0061 H   0  0  0  0  0  0  0  0  0  0  0  0
  142.0765   71.6536  222.1479 H   0  0  0  0  0  0  0  0  0  0  0  0
  141.7532   71.3559  220.4400 H   0  0  0  0  0  0  0  0  0  0  0  0
  143.0915   73.8240  221.7234 H   0  0  0  0  0  0  0  0  0  0  0  0
  143.7989   72.6905  220.5112 H   0  0  0  0  0  0  0  0  0  0  0  0
  141.6516   76.1208  218.0481 H   0  0  0  0  0  0  0  0  0  0  0  0
  144.4966   75.2667  217.5433 H   0  0  0  0  0  0  0  0  0  0  0  0
  143.0174   75.0027  216.5590 H   0  0  0  0  0  0  0  0  0  0  0  0
  143.8215   76.6090  216.5590 H   0  0  0  0  0  0  0  0  0  0  0  0
  143.6330   77.4130  219.6250 H   0  0  0  0  0  0  0  0  0  0  0  0
  139.8694   77.5265  219.3556 H   0  0  0  0  0  0  0  0  0  0  0  0
  140.0959   78.5814  217.9194 H   0  0  0  0  0  0  0  0  0  0  0  0
  140.7550   76.9104  217.9194 H   0  0  0  0  0  0  0  0  0  0  0  0
  142.1602   80.3468  219.6614 H   0  0  0  0  0  0  0  0  0  0  0  0
  142.9915   79.8300  218.1552 H   0  0  0  0  0  0  0  0  0  0  0  0
  141.2147   80.0937  218.1552 H   0  0  0  0  0  0  0  0  0  0  0  0
  140.7508   76.3561  220.6531 H   0  0  0  0  0  0  0  0  0  0  0  0
  140.4452   76.2970  223.0960 H   0  0  0  0  0  0  0  0  0  0  0  0
  141.2015   78.2263  224.4999 H   0  0  0  0  0  0  0  0  0  0  0  0
  142.5565   80.2147  220.9491 H   0  0  0  0  0  0  0  0  0  0  0  0
  140.9861   74.3456  218.2389 H   0  0  0  0  0  0  0  0  0  0  0  0
  141.3263   72.6522  218.5832 H   0  0  0  0  0  0  0  0  0  0  0  0
  139.8792   74.7036  220.3892 H   0  0  0  0  0  0  0  0  0  0  0  0
  139.2060   73.1752  219.7074 H   0  0  0  0  0  0  0  0  0  0  0  0
  1  2  1  0
  2  3  1  0
  3  4  2  0
  3  5  1  0
  5  6  1  0
  6  7  2  0
  7  8  1  0
  8  9  2  0
  9 10  1  0
 10 11  2  0
  5 12  1  0
 12 13  1  0
 13 14  1  0
 14 15  1  0
 15 16  1  0
 16 17  2  0
 16 18  1  0
 18 19  1  0
 18 20  1  0
 20 21  1  0
 21 22  1  0
 21 23  1  0
 21 24  1  0
 24 25  2  0
 25 26  1  0
 26 27  2  0
 27 28  1  0
 28 29  1  0
 28 30  2  0
 15 31  1  0
 31 32  1  0
 11  6  1  0
 32 12  1  0
 30 24  1  0
  1 33  1  0
  1 34  1  0
  1 35  1  0
  2 36  1  0
  2 37  1  0
  7 38  1  0
  8 39  1  0
  9 40  1  0
 10 41  1  0
 11 42  1  0
 12 43  1  0
 13 44  1  0
 13 45  1  0
 14 46  1  0
 14 47  1  0
 18 48  1  6
 19 49  1  0
 19 50  1  0
 19 51  1  0
 20 52  1  0
 22 53  1  0
 22 54  1  0
 22 55  1  0
 23 56  1  0
 23 57  1  0
 23 58  1  0
 25 59  1  0
 26 60  1  0
 27 61  1  0
 30 62  1  0
 31 63  1  0
 31 64  1  0
 32 65  1  0
 32 66  1  0
M  END
>  <smiles>  (16) 
CCC(=O)N(c1ccccc1)C1CCN(C(=O)[C@H](C)NC(C)(C)c2cccc(Br)c2)CC1

>  <score_type>  (16) 
oracle

>  <origin>  (16) 
autodockgpu

>  <m_score__min__energy>  (16) 
-8.9299999999999997

>  <m_primary>  (16) 
energy

>  <rmsd>  (16) 
4.576303568664582

>  <m_score__min__rmsd>  (16) 
4.576303568664582

>  <meeko>  (16) 
{"free_energy": -6.99, "intermolecular_energy": -9.38, "internal_energy": -3.37, "cluster_size": 7, "cluster_id": 5, "rank_in_cluster": 6}

>  <energy>  (16) 
-7.96

>  <cluster_rmsd>  (16) 
0.71

>  <cluster>  (16) 
2

$$$$

     RDKit          3D

 66 68  0  0  0  0  0  0  0  0999 V2000
  140.4160   71.2870  221.0150 C   0  0  0  0  0  0  0  0  0  0  0  0
  140.6840   72.4860  220.1160 C   0  0  0  0  0  0  0  0  0  0  0  0
  141.3080   73.5920  220.9410 C   0  0  0  0  0  0  0  0  0  0  0  0
  140.7210   73.8000  222.0250 O   0  0  0  0  0  0  0  0  0  0  0  0
  142.4560   74.2950  220.4690 N   0  0  0  0  0  0  0  0  0  0  0  0
  143.7450   73.7070  220.3600 C   0  0  0  0  0  0  0  0  0  0  0  0
  143.8980   72.4300  219.8150 C   0  0  0  0  0  0  0  0  0  0  0  0
  145.1490   71.8360  219.6900 C   0  0  0  0  0  0  0  0  0  0  0  0
  146.2880   72.4710  220.0950 C   0  0  0  0  0  0  0  0  0  0  0  0
  146.1670   73.7270  220.6330 C   0  0  0  0  0  0  0  0  0  0  0  0
  144.9110   74.3230  220.7580 C   0  0  0  0  0  0  0  0  0  0  0  0
  142.2260   75.6830  220.0970 C   0  0  0  0  0  0  0  0  0  0  0  0
  142.0040   75.9040  218.6210 C   0  0  0  0  0  0  0  0  0  0  0  0
  142.2520   77.4070  218.4050 C   0  0  0  0  0  0  0  0  0  0  0  0
  141.5320   78.1870  219.3890 N   0  0  0  0  0  0  0  0  0  0  0  0
  141.8530   79.5630  219.5240 C   0  0  0  0  0  0  0  0  0  0  0  0
  142.7720   80.0180  218.7970 O   0  0  0  0  0  0  0  0  0  0  0  0
  141.1170   80.4470  220.5120 C   0  0  2  0  0  0  0  0  0  0  0  0
  140.6210   81.6220  219.6760 C   0  0  0  0  0  0  0  0  0  0  0  0
  142.0760   80.7980  221.5040 N   0  0  0  0  0  0  0  0  0  0  0  0
  141.8720   80.3260  222.8250 C   0  0  0  0  0  0  0  0  0  0  0  0
  142.2280   81.3540  223.8810 C   0  0  0  0  0  0  0  0  0  0  0  0
  142.5650   79.0340  223.0970 C   0  0  0  0  0  0  0  0  0  0  0  0
  140.4000   80.0510  222.9920 C   0  0  0  0  0  0  0  0  0  0  0  0
  139.5170   81.0660  223.3360 C   0  0  0  0  0  0  0  0  0  0  0  0
  138.1650   80.8390  223.4940 C   0  0  0  0  0  0  0  0  0  0  0  0
  137.6500   79.5600  223.3100 C   0  0  0  0  0  0  0  0  0  0  0  0
  138.5170   78.5440  222.9700 C   0  0  0  0  0  0  0  0  0  0  0  0
  137.8410   76.8000  222.7190 Br  0  0  0  0  0  0  0  0  0  0  0  0
  139.8630   78.7960  222.8160 C   0  0  0  0  0  0  0  0  0  0  0  0
  140.5400   77.5070  220.2010 C   0  0  0  0  0  0  0  0  0  0  0  0
  141.3440   76.4630  221.0010 C   0  0  0  0  0  0  0  0  0  0  0  0
  140.4850   71.5959  222.0685 H   0  0  0  0  0  0  0  0  0  0  0  0
  139.4081   70.8953  220.8131 H   0  0  0  0  0  0  0  0  0  0  0  0
  141.1612   70.5035  220.8131 H   0  0  0  0  0  0  0  0  0  0  0  0
  141.3723   72.1950  219.3088 H   0  0  0  0  0  0  0  0  0  0  0  0
  139.7395   72.8387  219.6760 H   0  0  0  0  0  0  0  0  0  0  0  0
  143.0070   71.8808  219.4764 H   0  0  0  0  0  0  0  0  0  0  0  0
  145.2230   70.8289  219.2538 H   0  0  0  0  0  0  0  0  0  0  0  0
  147.2721   71.9902  219.9930 H   0  0  0  0  0  0  0  0  0  0  0  0
  147.0647   74.2675  220.9677 H   0  0  0  0  0  0  0  0  0  0  0  0
  144.8495   75.3309  221.1944 H   0  0  0  0  0  0  0  0  0  0  0  0
  143.2015   76.1544  220.2870 H   0  0  0  0  0  0  0  0  0  0  0  0
  142.7123   75.3057  218.0291 H   0  0  0  0  0  0  0  0  0  0  0  0
  140.9955   75.6005  218.3036 H   0  0  0  0  0  0  0  0  0  0  0  0
  143.3286   77.6130  218.4972 H   0  0  0  0  0  0  0  0  0  0  0  0
  141.8968   77.6852  217.4018 H   0  0  0  0  0  0  0  0  0  0  0  0
  140.2568   79.9991  221.0310 H   0  0  0  0  0  0  0  0  0  0  0  0
  140.2806   82.4283  220.3424 H   0  0  0  0  0  0  0  0  0  0  0  0
  141.4397   81.9919  219.0413 H   0  0  0  0  0  0  0  0  0  0  0  0
  139.7849   81.2933  219.0413 H   0  0  0  0  0  0  0  0  0  0  0  0
  143.0260   80.5230  221.1390 H   0  0  0  0  0  0  0  0  0  0  0  0
  142.0777   80.9200  224.8805 H   0  0  0  0  0  0  0  0  0  0  0  0
  143.2810   81.6500  223.7643 H   0  0  0  0  0  0  0  0  0  0  0  0
  141.5836   82.2378  223.7643 H   0  0  0  0  0  0  0  0  0  0  0  0
  142.6460   78.8830  224.1836 H   0  0  0  0  0  0  0  0  0  0  0  0
  141.9886   78.2084  222.6540 H   0  0  0  0  0  0  0  0  0  0  0  0
  143.5716   79.0575  222.6540 H   0  0  0  0  0  0  0  0  0  0  0  0
  139.9076   82.0831  223.4873 H   0  0  0  0  0  0  0  0  0  0  0  0
  137.4954   81.6685  223.7651 H   0  0  0  0  0  0  0  0  0  0  0  0
  136.5747   79.3638  223.4331 H   0  0  0  0  0  0  0  0  0  0  0  0
  140.5311   77.9658  222.5431 H   0  0  0  0  0  0  0  0  0  0  0  0
  140.0405   78.2153  220.8784 H   0  0  0  0  0  0  0  0  0  0  0  0
  139.7466   77.0473  219.5934 H   0  0  0  0  0  0  0  0  0  0  0  0
  141.9604   76.9786  221.7522 H   0  0  0  0  0  0  0  0  0  0  0  0
  140.6420   75.7748  221.4946 H   0  0  0  0  0  0  0  0  0  0  0  0
  1  2  1  0
  2  3  1  0
  3  4  2  0
  3  5  1  0
  5  6  1  0
  6  7  2  0
  7  8  1  0
  8  9  2  0
  9 10  1  0
 10 11  2  0
  5 12  1  0
 12 13  1  0
 13 14  1  0
 14 15  1  0
 15 16  1  0
 16 17  2  0
 16 18  1  0
 18 19  1  0
 18 20  1  0
 20 21  1  0
 21 22  1  0
 21 23  1  0
 21 24  1  0
 24 25  2  0
 25 26  1  0
 26 27  2  0
 27 28  1  0
 28 29  1  0
 28 30  2  0
 15 31  1  0
 31 32  1  0
 11  6  1  0
 32 12  1  0
 30 24  1  0
  1 33  1  0
  1 34  1  0
  1 35  1  0
  2 36  1  0
  2 37  1  0
  7 38  1  0
  8 39  1  0
  9 40  1  0
 10 41  1  0
 11 42  1  0
 12 43  1  0
 13 44  1  0
 13 45  1  0
 14 46  1  0
 14 47  1  0
 18 48  1  1
 19 49  1  0
 19 50  1  0
 19 51  1  0
 20 52  1  0
 22 53  1  0
 22 54  1  0
 22 55  1  0
 23 56  1  0
 23 57  1  0
 23 58  1  0
 25 59  1  0
 26 60  1  0
 27 61  1  0
 30 62  1  0
 31 63  1  0
 31 64  1  0
 32 65  1  0
 32 66  1  0
M  END
>  <smiles>  (17) 
CCC(=O)N(c1ccccc1)C1CCN(C(=O)[C@H](C)NC(C)(C)c2cccc(Br)c2)CC1

>  <score_type>  (17) 
oracle

>  <origin>  (17) 
autodockgpu

>  <m_score__min__energy>  (17) 
-8.9299999999999997

>  <m_primary>  (17) 
energy

>  <rmsd>  (17) 
3.3155813348300462

>  <m_score__min__rmsd>  (17) 
3.3155813348300462

>  <meeko>  (17) 
{"free_energy": -7.77, "intermolecular_energy": -10.15, "internal_energy": -3.01, "cluster_size": 10, "cluster_id": 9, "rank_in_cluster": 1}

>  <energy>  (17) 
-7.96

>  <cluster_rmsd>  (17) 
0.78

>  <cluster>  (17) 
2

$$$$

     RDKit          3D

 66 68  0  0  0  0  0  0  0  0999 V2000
  144.5750   74.2910  216.6980 C   0  0  0  0  0  0  0  0  0  0  0  0
  144.8330   72.7930  216.8020 C   0  0  0  0  0  0  0  0  0  0  0  0
  145.2030   72.4530  218.2290 C   0  0  0  0  0  0  0  0  0  0  0  0
  146.1800   73.1020  218.6620 O   0  0  0  0  0  0  0  0  0  0  0  0
  144.4670   71.4720  218.9600 N   0  0  0  0  0  0  0  0  0  0  0  0
  144.8590   70.1110  219.0570 C   0  0  0  0  0  0  0  0  0  0  0  0
  144.1340   69.2180  219.8500 C   0  0  0  0  0  0  0  0  0  0  0  0
  144.4930   67.8790  219.9550 C   0  0  0  0  0  0  0  0  0  0  0  0
  145.5730   67.3710  219.2900 C   0  0  0  0  0  0  0  0  0  0  0  0
  146.3020   68.2260  218.5030 C   0  0  0  0  0  0  0  0  0  0  0  0
  145.9420   69.5700  218.3980 C   0  0  0  0  0  0  0  0  0  0  0  0
  143.2630   71.9600  219.6160 C   0  0  0  0  0  0  0  0  0  0  0  0
  143.1870   73.4630  219.7400 C   0  0  0  0  0  0  0  0  0  0  0  0
  142.1330   73.7160  220.8310 C   0  0  0  0  0  0  0  0  0  0  0  0
  140.9430   72.9310  220.5780 N   0  0  0  0  0  0  0  0  0  0  0  0
  139.9780   72.8180  221.6130 C   0  0  0  0  0  0  0  0  0  0  0  0
  140.2300   73.3870  222.7050 O   0  0  0  0  0  0  0  0  0  0  0  0
  138.6940   72.0390  221.4070 C   0  0  2  0  0  0  0  0  0  0  0  0
  137.6860   73.0800  220.9340 C   0  0  0  0  0  0  0  0  0  0  0  0
  138.3870   71.4610  222.6720 N   0  0  0  0  0  0  0  0  0  0  0  0
  138.5700   70.0630  222.8280 C   0  0  0  0  0  0  0  0  0  0  0  0
  139.6300   69.4990  221.9020 C   0  0  0  0  0  0  0  0  0  0  0  0
  137.3010   69.2900  222.7040 C   0  0  0  0  0  0  0  0  0  0  0  0
  139.0700   69.8200  224.2290 C   0  0  0  0  0  0  0  0  0  0  0  0
  138.8810   68.5940  224.8540 C   0  0  0  0  0  0  0  0  0  0  0  0
  139.3300   68.3480  226.1350 C   0  0  0  0  0  0  0  0  0  0  0  0
  139.9930   69.3450  226.8420 C   0  0  0  0  0  0  0  0  0  0  0  0
  140.1850   70.5670  226.2330 C   0  0  0  0  0  0  0  0  0  0  0  0
  141.0780   71.9370  227.1750 Br  0  0  0  0  0  0  0  0  0  0  0  0
  139.7290   70.7890  224.9520 C   0  0  0  0  0  0  0  0  0  0  0  0
  140.8210   72.2790  219.2880 C   0  0  0  0  0  0  0  0  0  0  0  0
  141.9970   71.2840  219.2430 C   0  0  0  0  0  0  0  0  0  0  0  0
  144.5009   74.7213  217.7076 H   0  0  0  0  0  0  0  0  0  0  0  0
  145.4040   74.7691  216.1556 H   0  0  0  0  0  0  0  0  0  0  0  0
  143.6338   74.4642  216.1556 H   0  0  0  0  0  0  0  0  0  0  0  0
  143.9251   72.2420  216.5155 H   0  0  0  0  0  0  0  0  0  0  0  0
  145.6554   72.5107  216.1283 H   0  0  0  0  0  0  0  0  0  0  0  0
  143.2574   69.5834  220.4051 H   0  0  0  0  0  0  0  0  0  0  0  0
  143.8920   67.2113  220.5899 H   0  0  0  0  0  0  0  0  0  0  0  0
  145.8491   66.3103  219.3827 H   0  0  0  0  0  0  0  0  0  0  0  0
  147.1760   67.8496  217.9512 H   0  0  0  0  0  0  0  0  0  0  0  0
  146.5504   70.2279  217.7600 H   0  0  0  0  0  0  0  0  0  0  0  0
  143.3915   71.6184  220.6537 H   0  0  0  0  0  0  0  0  0  0  0  0
  144.1613   73.8766  220.0395 H   0  0  0  0  0  0  0  0  0  0  0  0
  142.9215   73.9447  218.7874 H   0  0  0  0  0  0  0  0  0  0  0  0
  142.5503   73.4358  221.8094 H   0  0  0  0  0  0  0  0  0  0  0  0
  141.8637   74.7825  220.8250 H   0  0  0  0  0  0  0  0  0  0  0  0
  138.7248   71.2227  220.6704 H   0  0  0  0  0  0  0  0  0  0  0  0
  137.2197   73.5616  221.8061 H   0  0  0  0  0  0  0  0  0  0  0  0
  138.2007   73.8396  220.3273 H   0  0  0  0  0  0  0  0  0  0  0  0
  136.9102   72.5900  220.3273 H   0  0  0  0  0  0  0  0  0  0  0  0
  138.9170   72.0020  223.4050 H   0  0  0  0  0  0  0  0  0  0  0  0
  140.4455   69.0651  222.4993 H   0  0  0  0  0  0  0  0  0  0  0  0
  139.1849   68.7185  221.2675 H   0  0  0  0  0  0  0  0  0  0  0  0
  140.0286   70.3043  221.2675 H   0  0  0  0  0  0  0  0  0  0  0  0
  136.9153   69.0550  223.7070 H   0  0  0  0  0  0  0  0  0  0  0  0
  136.5585   69.8894  222.1568 H   0  0  0  0  0  0  0  0  0  0  0  0
  137.4930   68.3553  222.1568 H   0  0  0  0  0  0  0  0  0  0  0  0
  138.3568   67.7941  224.3104 H   0  0  0  0  0  0  0  0  0  0  0  0
  139.1636   67.3636  226.5969 H   0  0  0  0  0  0  0  0  0  0  0  0
  140.3562   69.1629  227.8642 H   0  0  0  0  0  0  0  0  0  0  0  0
  139.8971   71.7736  224.4913 H   0  0  0  0  0  0  0  0  0  0  0  0
  139.8604   71.7487  219.2101 H   0  0  0  0  0  0  0  0  0  0  0  0
  140.8486   72.9956  218.4539 H   0  0  0  0  0  0  0  0  0  0  0  0
  141.8036   70.4626  219.9486 H   0  0  0  0  0  0  0  0  0  0  0  0
  142.0915   70.8905  218.2201 H   0  0  0  0  0  0  0  0  0  0  0  0
  1  2  1  0
  2  3  1  0
  3  4  2  0
  3  5  1  0
  5  6  1  0
  6  7  2  0
  7  8  1  0
  8  9  2  0
  9 10  1  0
 10 11  2  0
  5 12  1  0
 12 13  1  0
 13 14  1  0
 14 15  1  0
 15 16  1  0
 16 17  2  0
 16 18  1  0
 18 19  1  0
 18 20  1  0
 20 21  1  0
 21 22  1  0
 21 23  1  0
 21 24  1  0
 24 25  2  0
 25 26  1  0
 26 27  2  0
 27 28  1  0
 28 29  1  0
 28 30  2  0
 15 31  1  0
 31 32  1  0
 11  6  1  0
 32 12  1  0
 30 24  1  0
  1 33  1  0
  1 34  1  0
  1 35  1  0
  2 36  1  0
  2 37  1  0
  7 38  1  0
  8 39  1  0
  9 40  1  0
 10 41  1  0
 11 42  1  0
 12 43  1  0
 13 44  1  0
 13 45  1  0
 14 46  1  0
 14 47  1  0
 18 48  1  6
 19 49  1  0
 19 50  1  0
 19 51  1  0
 20 52  1  0
 22 53  1  0
 22 54  1  0
 22 55  1  0
 23 56  1  0
 23 57  1  0
 23 58  1  0
 25 59  1  0
 26 60  1  0
 27 61  1  0
 30 62  1  0
 31 63  1  0
 31 64  1  0
 32 65  1  0
 32 66  1  0
M  END
>  <smiles>  (18) 
CCC(=O)N(c1ccccc1)C1CCN(C(=O)[C@H](C)NC(C)(C)c2cccc(Br)c2)CC1

>  <score_type>  (18) 
oracle

>  <origin>  (18) 
autodockgpu

>  <m_score__min__energy>  (18) 
-8.9299999999999997

>  <m_primary>  (18) 
energy

>  <rmsd>  (18) 
9.17400313014283

>  <m_score__min__rmsd>  (18) 
9.17400313014283

>  <meeko>  (18) 
{"free_energy": -7.71, "intermolecular_energy": -10.1, "internal_energy": -2.73, "cluster_size": 5, "cluster_id": 1, "rank_in_cluster": 5}

>  <energy>  (18) 
-7.92

>  <cluster_rmsd>  (18) 
0.85

>  <cluster>  (18) 
2

$$$$

     RDKit          3D

 66 68  0  0  0  0  0  0  0  0999 V2000
  142.4190   80.4740  223.0450 C   0  0  0  0  0  0  0  0  0  0  0  0
  142.1990   79.0030  223.3710 C   0  0  0  0  0  0  0  0  0  0  0  0
  140.7980   78.6080  222.9550 C   0  0  0  0  0  0  0  0  0  0  0  0
  139.9110   79.0180  223.7340 O   0  0  0  0  0  0  0  0  0  0  0  0
  140.5770   77.8390  221.7740 N   0  0  0  0  0  0  0  0  0  0  0  0
  141.3310   78.0000  220.5810 C   0  0  0  0  0  0  0  0  0  0  0  0
  142.1880   76.9880  220.1410 C   0  0  0  0  0  0  0  0  0  0  0  0
  142.9310   77.1190  218.9730 C   0  0  0  0  0  0  0  0  0  0  0  0
  142.8590   78.2430  218.2000 C   0  0  0  0  0  0  0  0  0  0  0  0
  142.0240   79.2510  218.6070 C   0  0  0  0  0  0  0  0  0  0  0  0
  141.2790   79.1190  219.7800 C   0  0  0  0  0  0  0  0  0  0  0  0
  139.5080   76.8560  221.8650 C   0  0  0  0  0  0  0  0  0  0  0  0
  138.1200   77.4290  221.7120 C   0  0  0  0  0  0  0  0  0  0  0  0
  137.1830   76.3570  222.2950 C   0  0  0  0  0  0  0  0  0  0  0  0
  137.5110   75.0520  221.7590 N   0  0  0  0  0  0  0  0  0  0  0  0
  136.9460   73.9080  222.3800 C   0  0  0  0  0  0  0  0  0  0  0  0
  136.2140   74.0950  223.3850 O   0  0  0  0  0  0  0  0  0  0  0  0
  137.2200   72.5130  221.8530 C   0  0  2  0  0  0  0  0  0  0  0  0
  135.8670   72.0240  221.3460 C   0  0  0  0  0  0  0  0  0  0  0  0
  137.7300   71.7760  222.9590 N   0  0  0  0  0  0  0  0  0  0  0  0
  139.0750   71.3300  222.8990 C   0  0  0  0  0  0  0  0  0  0  0  0
  140.0660   72.4640  222.7220 C   0  0  0  0  0  0  0  0  0  0  0  0
  139.2960   70.2760  221.8690 C   0  0  0  0  0  0  0  0  0  0  0  0
  139.4050   70.6920  224.2240 C   0  0  0  0  0  0  0  0  0  0  0  0
  139.1310   69.3510  224.4610 C   0  0  0  0  0  0  0  0  0  0  0  0
  139.4250   68.7440  225.6650 C   0  0  0  0  0  0  0  0  0  0  0  0
  140.0130   69.4810  226.6870 C   0  0  0  0  0  0  0  0  0  0  0  0
  140.2900   70.8130  226.4640 C   0  0  0  0  0  0  0  0  0  0  0  0
  141.0840   71.8330  227.8390 Br  0  0  0  0  0  0  0  0  0  0  0  0
  139.9880   71.3960  225.2530 C   0  0  0  0  0  0  0  0  0  0  0  0
  138.4220   74.9900  220.6330 C   0  0  0  0  0  0  0  0  0  0  0  0
  139.7470   75.5650  221.1730 C   0  0  0  0  0  0  0  0  0  0  0  0
  142.5048   81.0478  223.9795 H   0  0  0  0  0  0  0  0  0  0  0  0
  143.3438   80.5856  222.4600 H   0  0  0  0  0  0  0  0  0  0  0  0
  141.5673   80.8513  222.4600 H   0  0  0  0  0  0  0  0  0  0  0  0
  142.9319   78.3910  222.8248 H   0  0  0  0  0  0  0  0  0  0  0  0
  142.3248   78.8399  224.4515 H   0  0  0  0  0  0  0  0  0  0  0  0
  142.2771   76.0652  220.7330 H   0  0  0  0  0  0  0  0  0  0  0  0
  143.5933   76.2970  218.6637 H   0  0  0  0  0  0  0  0  0  0  0  0
  143.4530   78.3363  217.2789 H   0  0  0  0  0  0  0  0  0  0  0  0
  141.9406   80.1686  218.0061 H   0  0  0  0  0  0  0  0  0  0  0  0
  140.6197   79.9474  220.0785 H   0  0  0  0  0  0  0  0  0  0  0  0
  139.5480   76.5459  222.9196 H   0  0  0  0  0  0  0  0  0  0  0  0
  138.0262   78.3711  222.2721 H   0  0  0  0  0  0  0  0  0  0  0  0
  137.8813   77.6620  220.6638 H   0  0  0  0  0  0  0  0  0  0  0  0
  137.2922   76.3369  223.3894 H   0  0  0  0  0  0  0  0  0  0  0  0
  136.1463   76.6037  222.0223 H   0  0  0  0  0  0  0  0  0  0  0  0
  137.9517   72.4287  221.0360 H   0  0  0  0  0  0  0  0  0  0  0  0
  135.2176   71.7893  222.2023 H   0  0  0  0  0  0  0  0  0  0  0  0
  135.3986   72.8097  220.7351 H   0  0  0  0  0  0  0  0  0  0  0  0
  136.0091   71.1204  220.7351 H   0  0  0  0  0  0  0  0  0  0  0  0
  137.5520   72.3440  223.8290 H   0  0  0  0  0  0  0  0  0  0  0  0
  140.3853   72.8294  223.7092 H   0  0  0  0  0  0  0  0  0  0  0  0
  140.9421   72.1016  222.1642 H   0  0  0  0  0  0  0  0  0  0  0  0
  139.5895   73.2836  222.1642 H   0  0  0  0  0  0  0  0  0  0  0  0
  139.4975   69.3151  222.3651 H   0  0  0  0  0  0  0  0  0  0  0  0
  138.3978   70.1831  221.2408 H   0  0  0  0  0  0  0  0  0  0  0  0
  140.1559   70.5518  221.2408 H   0  0  0  0  0  0  0  0  0  0  0  0
  138.6648   68.7538  223.6635 H   0  0  0  0  0  0  0  0  0  0  0  0
  139.1946   67.6790  225.8159 H   0  0  0  0  0  0  0  0  0  0  0  0
  140.2520   69.0114  227.6526 H   0  0  0  0  0  0  0  0  0  0  0  0
  140.2208   72.4606  225.1033 H   0  0  0  0  0  0  0  0  0  0  0  0
  138.5570   73.9505  220.2994 H   0  0  0  0  0  0  0  0  0  0  0  0
  138.0483   75.5493  219.7626 H   0  0  0  0  0  0  0  0  0  0  0  0
  140.1897   74.8503  221.8824 H   0  0  0  0  0  0  0  0  0  0  0  0
  140.4321   75.7344  220.3292 H   0  0  0  0  0  0  0  0  0  0  0  0
  1  2  1  0
  2  3  1  0
  3  4  2  0
  3  5  1  0
  5  6  1  0
  6  7  2  0
  7  8  1  0
  8  9  2  0
  9 10  1  0
 10 11  2  0
  5 12  1  0
 12 13  1  0
 13 14  1  0
 14 15  1  0
 15 16  1  0
 16 17  2  0
 16 18  1  0
 18 19  1  0
 18 20  1  0
 20 21  1  0
 21 22  1  0
 21 23  1  0
 21 24  1  0
 24 25  2  0
 25 26  1  0
 26 27  2  0
 27 28  1  0
 28 29  1  0
 28 30  2  0
 15 31  1  0
 31 32  1  0
 11  6  1  0
 32 12  1  0
 30 24  1  0
  1 33  1  0
  1 34  1  0
  1 35  1  0
  2 36  1  0
  2 37  1  0
  7 38  1  0
  8 39  1  0
  9 40  1  0
 10 41  1  0
 11 42  1  0
 12 43  1  0
 13 44  1  0
 13 45  1  0
 14 46  1  0
 14 47  1  0
 18 48  1  6
 19 49  1  0
 19 50  1  0
 19 51  1  0
 20 52  1  0
 22 53  1  0
 22 54  1  0
 22 55  1  0
 23 56  1  0
 23 57  1  0
 23 58  1  0
 25 59  1  0
 26 60  1  0
 27 61  1  0
 30 62  1  0
 31 63  1  0
 31 64  1  0
 32 65  1  0
 32 66  1  0
M  END
>  <smiles>  (19) 
CCC(=O)N(c1ccccc1)C1CCN(C(=O)[C@H](C)NC(C)(C)c2cccc(Br)c2)CC1

>  <score_type>  (19) 
oracle

>  <origin>  (19) 
autodockgpu

>  <m_score__min__energy>  (19) 
-8.9299999999999997

>  <m_primary>  (19) 
energy

>  <rmsd>  (19) 
8.328945708556272

>  <m_score__min__rmsd>  (19) 
8.328945708556272

>  <meeko>  (19) 
{"free_energy": -7.96, "intermolecular_energy": -10.35, "internal_energy": -2.67, "cluster_size": 1, "cluster_id": 6, "rank_in_cluster": 1}

>  <energy>  (19) 
-7.87

>  <cluster_rmsd>  (19) 
1.01

>  <cluster>  (19) 
2

$$$$

     RDKit          3D

 66 68  0  0  0  0  0  0  0  0999 V2000
  143.5800   75.8840  219.6710 C   0  0  0  0  0  0  0  0  0  0  0  0
  142.0680   76.0630  219.6680 C   0  0  0  0  0  0  0  0  0  0  0  0
  141.5170   75.6360  221.0120 C   0  0  0  0  0  0  0  0  0  0  0  0
  141.8180   74.4640  221.3270 O   0  0  0  0  0  0  0  0  0  0  0  0
  140.7330   76.5330  221.7990 N   0  0  0  0  0  0  0  0  0  0  0  0
  141.1770   77.8230  222.1910 C   0  0  0  0  0  0  0  0  0  0  0  0
  141.3460   78.8350  221.2430 C   0  0  0  0  0  0  0  0  0  0  0  0
  141.7720   80.1080  221.6040 C   0  0  0  0  0  0  0  0  0  0  0  0
  142.0480   80.4320  222.9020 C   0  0  0  0  0  0  0  0  0  0  0  0
  141.8890   79.4580  223.8540 C   0  0  0  0  0  0  0  0  0  0  0  0
  141.4620   78.1790  223.4910 C   0  0  0  0  0  0  0  0  0  0  0  0
  139.4210   76.0360  222.1840 C   0  0  0  0  0  0  0  0  0  0  0  0
  138.3450   77.0930  222.2350 C   0  0  0  0  0  0  0  0  0  0  0  0
  137.2220   76.4740  223.0850 C   0  0  0  0  0  0  0  0  0  0  0  0
  136.9240   75.1320  222.6300 N   0  0  0  0  0  0  0  0  0  0  0  0
  136.1190   74.3040  223.4560 C   0  0  0  0  0  0  0  0  0  0  0  0
  135.7360   74.7790  224.5560 O   0  0  0  0  0  0  0  0  0  0  0  0
  135.7400   72.9000  223.0290 C   0  0  2  0  0  0  0  0  0  0  0  0
  134.2180   72.8710  223.1170 C   0  0  0  0  0  0  0  0  0  0  0  0
  136.3950   72.0280  223.9440 N   0  0  0  0  0  0  0  0  0  0  0  0
  137.0820   70.9040  223.4200 C   0  0  0  0  0  0  0  0  0  0  0  0
  137.4010   71.0420  221.9440 C   0  0  0  0  0  0  0  0  0  0  0  0
  136.3820   69.6150  223.6860 C   0  0  0  0  0  0  0  0  0  0  0  0
  138.4100   70.8080  224.1250 C   0  0  0  0  0  0  0  0  0  0  0  0
  139.4870   71.5950  223.7340 C   0  0  0  0  0  0  0  0  0  0  0  0
  140.7120   71.5250  224.3640 C   0  0  0  0  0  0  0  0  0  0  0  0
  140.8980   70.6460  225.4250 C   0  0  0  0  0  0  0  0  0  0  0  0
  139.8370   69.8590  225.8220 C   0  0  0  0  0  0  0  0  0  0  0  0
  140.0680   68.6550  227.2570 Br  0  0  0  0  0  0  0  0  0  0  0  0
  138.6220   69.9470  225.1770 C   0  0  0  0  0  0  0  0  0  0  0  0
  137.4900   74.7020  221.3660 C   0  0  0  0  0  0  0  0  0  0  0  0
  139.0150   74.7370  221.5920 C   0  0  0  0  0  0  0  0  0  0  0  0
  143.9421   75.8411  220.7088 H   0  0  0  0  0  0  0  0  0  0  0  0
  143.8396   74.9489  219.1532 H   0  0  0  0  0  0  0  0  0  0  0  0
  144.0507   76.7327  219.1532 H   0  0  0  0  0  0  0  0  0  0  0  0
  141.8224   77.1200  219.4880 H   0  0  0  0  0  0  0  0  0  0  0  0
  141.6231   75.4477  218.8721 H   0  0  0  0  0  0  0  0  0  0  0  0
  141.1368   78.6192  220.1848 H   0  0  0  0  0  0  0  0  0  0  0  0
  141.8900   80.8746  220.8240 H   0  0  0  0  0  0  0  0  0  0  0  0
  142.3871   81.4422  223.1749 H   0  0  0  0  0  0  0  0  0  0  0  0
  142.0990   79.6854  224.9095 H   0  0  0  0  0  0  0  0  0  0  0  0
  141.3479   77.4206  224.2796 H   0  0  0  0  0  0  0  0  0  0  0  0
  139.5629   75.7568  223.2385 H   0  0  0  0  0  0  0  0  0  0  0  0
  138.7262   78.0108  222.7065 H   0  0  0  0  0  0  0  0  0  0  0  0
  137.9959   77.3773  221.2314 H   0  0  0  0  0  0  0  0  0  0  0  0
  137.5422   76.4371  224.1367 H   0  0  0  0  0  0  0  0  0  0  0  0
  136.3179   77.0927  222.9859 H   0  0  0  0  0  0  0  0  0  0  0  0
  136.0374   72.5956  222.0147 H   0  0  0  0  0  0  0  0  0  0  0  0
  133.9119   72.8652  224.1735 H   0  0  0  0  0  0  0  0  0  0  0  0
  133.8050   73.7614  222.6205 H   0  0  0  0  0  0  0  0  0  0  0  0
  133.8392   71.9655  222.6205 H   0  0  0  0  0  0  0  0  0  0  0  0
  137.0280   72.6180  224.5480 H   0  0  0  0  0  0  0  0  0  0  0  0
  138.4046   71.4762  221.8248 H   0  0  0  0  0  0  0  0  0  0  0  0
  137.3715   70.0506  221.4682 H   0  0  0  0  0  0  0  0  0  0  0  0
  136.6583   71.6993  221.4682 H   0  0  0  0  0  0  0  0  0  0  0  0
  136.2981   69.4606  224.7719 H   0  0  0  0  0  0  0  0  0  0  0  0
  135.3764   69.6453  223.2412 H   0  0  0  0  0  0  0  0  0  0  0  0
  136.9549   68.7880  223.2412 H   0  0  0  0  0  0  0  0  0  0  0  0
  139.3583   72.2956  222.8958 H   0  0  0  0  0  0  0  0  0  0  0  0
  141.5414   72.1643  224.0272 H   0  0  0  0  0  0  0  0  0  0  0  0
  141.8696   70.5796  225.9365 H   0  0  0  0  0  0  0  0  0  0  0  0
  137.7936   69.3070  225.5149 H   0  0  0  0  0  0  0  0  0  0  0  0
  137.1573   73.6833  221.1178 H   0  0  0  0  0  0  0  0  0  0  0  0
  137.1771   75.3431  220.5287 H   0  0  0  0  0  0  0  0  0  0  0  0
  139.2989   73.9229  222.2751 H   0  0  0  0  0  0  0  0  0  0  0  0
  139.5220   74.6123  220.6238 H   0  0  0  0  0  0  0  0  0  0  0  0
  1  2  1  0
  2  3  1  0
  3  4  2  0
  3  5  1  0
  5  6  1  0
  6  7  2  0
  7  8  1  0
  8  9  2  0
  9 10  1  0
 10 11  2  0
  5 12  1  0
 12 13  1  0
 13 14  1  0
 14 15  1  0
 15 16  1  0
 16 17  2  0
 16 18  1  0
 18 19  1  0
 18 20  1  0
 20 21  1  0
 21 22  1  0
 21 23  1  0
 21 24  1  0
 24 25  2  0
 25 26  1  0
 26 27  2  0
 27 28  1  0
 28 29  1  0
 28 30  2  0
 15 31  1  0
 31 32  1  0
 11  6  1  0
 32 12  1  0
 30 24  1  0
  1 33  1  0
  1 34  1  0
  1 35  1  0
  2 36  1  0
  2 37  1  0
  7 38  1  0
  8 39  1  0
  9 40  1  0
 10 41  1  0
 11 42  1  0
 12 43  1  0
 13 44  1  0
 13 45  1  0
 14 46  1  0
 14 47  1  0
 18 48  1  6
 19 49  1  0
 19 50  1  0
 19 51  1  0
 20 52  1  0
 22 53  1  0
 22 54  1  0
 22 55  1  0
 23 56  1  0
 23 57  1  0
 23 58  1  0
 25 59  1  0
 26 60  1  0
 27 61  1  0
 30 62  1  0
 31 63  1  0
 31 64  1  0
 32 65  1  0
 32 66  1  0
M  END
>  <smiles>  (20) 
CCC(=O)N(c1ccccc1)C1CCN(C(=O)[C@H](C)NC(C)(C)c2cccc(Br)c2)CC1

>  <score_type>  (20) 
oracle

>  <origin>  (20) 
autodockgpu

>  <m_score__min__energy>  (20) 
-8.9299999999999997

>  <m_primary>  (20) 
energy

>  <rmsd>  (20) 
8.634229083185863

>  <m_score__min__rmsd>  (20) 
8.634229083185863

>  <meeko>  (20) 
{"free_energy": -8.0, "intermolecular_energy": -10.38, "internal_energy": -2.63, "cluster_size": 16, "cluster_id": 2, "rank_in_cluster": 9}

>  <energy>  (20) 
-7.76

>  <cluster_rmsd>  (20) 
0.35

>  <cluster>  (20) 
2

$$$$

     RDKit          3D

 66 68  0  0  0  0  0  0  0  0999 V2000
  136.1370   72.7590  223.1050 C   0  0  0  0  0  0  0  0  0  0  0  0
  136.7440   71.5130  223.7370 C   0  0  0  0  0  0  0  0  0  0  0  0
  137.9920   71.1290  222.9720 C   0  0  0  0  0  0  0  0  0  0  0  0
  137.7600   70.4860  221.9250 O   0  0  0  0  0  0  0  0  0  0  0  0
  139.2850   71.4950  223.4530 N   0  0  0  0  0  0  0  0  0  0  0  0
  139.7800   71.1200  224.7310 C   0  0  0  0  0  0  0  0  0  0  0  0
  139.3440   69.9430  225.3440 C   0  0  0  0  0  0  0  0  0  0  0  0
  139.8190   69.5510  226.5900 C   0  0  0  0  0  0  0  0  0  0  0  0
  140.7340   70.2980  227.2760 C   0  0  0  0  0  0  0  0  0  0  0  0
  141.1810   71.4580  226.6970 C   0  0  0  0  0  0  0  0  0  0  0  0
  140.7030   71.8510  225.4460 C   0  0  0  0  0  0  0  0  0  0  0  0
  140.0860   72.2940  222.5380 C   0  0  0  0  0  0  0  0  0  0  0  0
  141.0650   71.4970  221.7110 C   0  0  0  0  0  0  0  0  0  0  0  0
  142.0830   72.5320  221.2000 C   0  0  0  0  0  0  0  0  0  0  0  0
  141.4020   73.6810  220.6420 N   0  0  0  0  0  0  0  0  0  0  0  0
  142.1610   74.8500  220.3760 C   0  0  0  0  0  0  0  0  0  0  0  0
  143.3830   74.8280  220.6710 O   0  0  0  0  0  0  0  0  0  0  0  0
  141.5200   76.0790  219.7630 C   0  0  2  0  0  0  0  0  0  0  0  0
  142.1540   76.1910  218.3800 C   0  0  0  0  0  0  0  0  0  0  0  0
  141.8350   77.1570  220.6380 N   0  0  0  0  0  0  0  0  0  0  0  0
  140.8290   77.6080  221.5290 C   0  0  0  0  0  0  0  0  0  0  0  0
  140.6170   76.6730  222.7040 C   0  0  0  0  0  0  0  0  0  0  0  0
  139.5330   77.8970  220.8500 C   0  0  0  0  0  0  0  0  0  0  0  0
  141.2900   78.9170  222.1170 C   0  0  0  0  0  0  0  0  0  0  0  0
  142.0390   78.9520  223.2860 C   0  0  0  0  0  0  0  0  0  0  0  0
  142.4740   80.1370  223.8430 C   0  0  0  0  0  0  0  0  0  0  0  0
  142.1610   81.3470  223.2320 C   0  0  0  0  0  0  0  0  0  0  0  0
  141.4160   81.3250  222.0710 C   0  0  0  0  0  0  0  0  0  0  0  0
  140.9770   82.9540  221.2270 Br  0  0  0  0  0  0  0  0  0  0  0  0
  140.9960   80.1280  221.5340 C   0  0  0  0  0  0  0  0  0  0  0  0
  139.9730   73.5780  220.4130 C   0  0  0  0  0  0  0  0  0  0  0  0
  139.3690   73.3750  221.8170 C   0  0  0  0  0  0  0  0  0  0  0  0
  135.8024   73.4457  223.8965 H   0  0  0  0  0  0  0  0  0  0  0  0
  136.8925   73.2589  222.4811 H   0  0  0  0  0  0  0  0  0  0  0  0
  135.2777   72.4722  222.4811 H   0  0  0  0  0  0  0  0  0  0  0  0
  137.0037   71.7208  224.7855 H   0  0  0  0  0  0  0  0  0  0  0  0
  136.0180   70.6874  223.7011 H   0  0  0  0  0  0  0  0  0  0  0  0
  138.6065   69.3108  224.8279 H   0  0  0  0  0  0  0  0  0  0  0  0
  139.4487   68.6156  227.0349 H   0  0  0  0  0  0  0  0  0  0  0  0
  141.1010   69.9789  228.2626 H   0  0  0  0  0  0  0  0  0  0  0  0
  141.9200   72.0818  227.2212 H   0  0  0  0  0  0  0  0  0  0  0  0
  141.0809   72.7879  225.0108 H   0  0  0  0  0  0  0  0  0  0  0  0
  140.7288   72.8766  223.2143 H   0  0  0  0  0  0  0  0  0  0  0  0
  141.5637   70.7353  222.3284 H   0  0  0  0  0  0  0  0  0  0  0  0
  140.5716   70.9590  220.8881 H   0  0  0  0  0  0  0  0  0  0  0  0
  142.7179   72.8587  222.0367 H   0  0  0  0  0  0  0  0  0  0  0  0
  142.6985   72.0678  220.4153 H   0  0  0  0  0  0  0  0  0  0  0  0
  140.4263   76.0587  219.6469 H   0  0  0  0  0  0  0  0  0  0  0  0
  143.2323   76.3815  218.4853 H   0  0  0  0  0  0  0  0  0  0  0  0
  141.9997   75.2517  217.8287 H   0  0  0  0  0  0  0  0  0  0  0  0
  141.6872   77.0206  217.8287 H   0  0  0  0  0  0  0  0  0  0  0  0
  142.7180   76.8990  221.1550 H   0  0  0  0  0  0  0  0  0  0  0  0
  140.7434   77.2306  223.6437 H   0  0  0  0  0  0  0  0  0  0  0  0
  139.6010   76.2537  222.6603 H   0  0  0  0  0  0  0  0  0  0  0  0
  141.3528   75.8565  222.6603 H   0  0  0  0  0  0  0  0  0  0  0  0
  138.7535   78.0708  221.6064 H   0  0  0  0  0  0  0  0  0  0  0  0
  139.6403   78.7933  220.2214 H   0  0  0  0  0  0  0  0  0  0  0  0
  139.2493   77.0401  220.2214 H   0  0  0  0  0  0  0  0  0  0  0  0
  142.2936   78.0047  223.7837 H   0  0  0  0  0  0  0  0  0  0  0  0
  143.0676   80.1250  224.7690 H   0  0  0  0  0  0  0  0  0  0  0  0
  142.4999   82.2998  223.6648 H   0  0  0  0  0  0  0  0  0  0  0  0
  140.4048   80.1408  220.6065 H   0  0  0  0  0  0  0  0  0  0  0  0
  139.5859   74.4991  219.9529 H   0  0  0  0  0  0  0  0  0  0  0  0
  139.7182   72.7575  219.7261 H   0  0  0  0  0  0  0  0  0  0  0  0
  139.4565   74.3112  222.3879 H   0  0  0  0  0  0  0  0  0  0  0  0
  138.3109   73.0930  221.7126 H   0  0  0  0  0  0  0  0  0  0  0  0
  1  2  1  0
  2  3  1  0
  3  4  2  0
  3  5  1  0
  5  6  1  0
  6  7  2  0
  7  8  1  0
  8  9  2  0
  9 10  1  0
 10 11  2  0
  5 12  1  0
 12 13  1  0
 13 14  1  0
 14 15  1  0
 15 16  1  0
 16 17  2  0
 16 18  1  0
 18 19  1  0
 18 20  1  0
 20 21  1  0
 21 22  1  0
 21 23  1  0
 21 24  1  0
 24 25  2  0
 25 26  1  0
 26 27  2  0
 27 28  1  0
 28 29  1  0
 28 30  2  0
 15 31  1  0
 31 32  1  0
 11  6  1  0
 32 12  1  0
 30 24  1  0
  1 33  1  0
  1 34  1  0
  1 35  1  0
  2 36  1  0
  2 37  1  0
  7 38  1  0
  8 39  1  0
  9 40  1  0
 10 41  1  0
 11 42  1  0
 12 43  1  0
 13 44  1  0
 13 45  1  0
 14 46  1  0
 14 47  1  0
 18 48  1  6
 19 49  1  0
 19 50  1  0
 19 51  1  0
 20 52  1  0
 22 53  1  0
 22 54  1  0
 22 55  1  0
 23 56  1  0
 23 57  1  0
 23 58  1  0
 25 59  1  0
 26 60  1  0
 27 61  1  0
 30 62  1  0
 31 63  1  0
 31 64  1  0
 32 65  1  0
 32 66  1  0
M  END
>  <smiles>  (21) 
CCC(=O)N(c1ccccc1)C1CCN(C(=O)[C@H](C)NC(C)(C)c2cccc(Br)c2)CC1

>  <score_type>  (21) 
oracle

>  <origin>  (21) 
autodockgpu

>  <m_score__min__energy>  (21) 
-8.9299999999999997

>  <m_primary>  (21) 
energy

>  <rmsd>  (21) 
4.110456175322402

>  <m_score__min__rmsd>  (21) 
4.110456175322402

>  <meeko>  (21) 
{"free_energy": -7.94, "intermolecular_energy": -10.33, "internal_energy": -2.85, "cluster_size": 7, "cluster_id": 5, "rank_in_cluster": 2}

>  <energy>  (21) 
-7.65

>  <cluster_rmsd>  (21) 
1.38

>  <cluster>  (21) 
2

$$$$

     RDKit          3D

 66 68  0  0  0  0  0  0  0  0999 V2000
  143.0580   76.1650  219.6980 C   0  0  0  0  0  0  0  0  0  0  0  0
  142.6380   77.4620  219.0190 C   0  0  0  0  0  0  0  0  0  0  0  0
  141.2150   77.7900  219.4180 C   0  0  0  0  0  0  0  0  0  0  0  0
  140.4900   78.1240  218.4560 O   0  0  0  0  0  0  0  0  0  0  0  0
  140.8020   77.7090  220.7820 N   0  0  0  0  0  0  0  0  0  0  0  0
  141.3600   78.5040  221.8180 C   0  0  0  0  0  0  0  0  0  0  0  0
  142.0230   79.6960  221.5190 C   0  0  0  0  0  0  0  0  0  0  0  0
  142.5710   80.4960  222.5160 C   0  0  0  0  0  0  0  0  0  0  0  0
  142.4880   80.1540  223.8360 C   0  0  0  0  0  0  0  0  0  0  0  0
  141.8400   78.9890  224.1580 C   0  0  0  0  0  0  0  0  0  0  0  0
  141.2910   78.1870  223.1570 C   0  0  0  0  0  0  0  0  0  0  0  0
  139.7510   76.7400  221.0550 C   0  0  0  0  0  0  0  0  0  0  0  0
  138.3500   77.2780  220.8870 C   0  0  0  0  0  0  0  0  0  0  0  0
  137.4540   76.2900  221.6530 C   0  0  0  0  0  0  0  0  0  0  0  0
  137.7750   74.9260  221.2890 N   0  0  0  0  0  0  0  0  0  0  0  0
  137.2520   73.8750  222.0860 C   0  0  0  0  0  0  0  0  0  0  0  0
  136.5620   74.1940  223.0870 O   0  0  0  0  0  0  0  0  0  0  0  0
  137.5220   72.4220  221.7450 C   0  0  2  0  0  0  0  0  0  0  0  0
  136.1790   71.8900  221.2560 C   0  0  0  0  0  0  0  0  0  0  0  0
  137.9840   71.8220  222.9500 N   0  0  0  0  0  0  0  0  0  0  0  0
  139.2770   71.2390  222.9520 C   0  0  0  0  0  0  0  0  0  0  0  0
  140.3870   72.2640  222.8310 C   0  0  0  0  0  0  0  0  0  0  0  0
  139.4370   70.1700  221.9260 C   0  0  0  0  0  0  0  0  0  0  0  0
  139.4750   70.5670  224.2860 C   0  0  0  0  0  0  0  0  0  0  0  0
  139.0660   69.2570  224.4960 C   0  0  0  0  0  0  0  0  0  0  0  0
  139.2370   68.6200  225.7080 C   0  0  0  0  0  0  0  0  0  0  0  0
  139.8350   69.2940  226.7670 C   0  0  0  0  0  0  0  0  0  0  0  0
  140.2440   70.5970  226.5720 C   0  0  0  0  0  0  0  0  0  0  0  0
  141.0540   71.5330  227.9970 Br  0  0  0  0  0  0  0  0  0  0  0  0
  140.0630   71.2100  225.3520 C   0  0  0  0  0  0  0  0  0  0  0  0
  138.6380   74.7150  220.1420 C   0  0  0  0  0  0  0  0  0  0  0  0
  139.9770   75.3680  220.5390 C   0  0  0  0  0  0  0  0  0  0  0  0
  143.0167   76.2926  220.7898 H   0  0  0  0  0  0  0  0  0  0  0  0
  142.3759   75.3561  219.3973 H   0  0  0  0  0  0  0  0  0  0  0  0
  144.0848   75.9095  219.3973 H   0  0  0  0  0  0  0  0  0  0  0  0
  143.3064   78.2766  219.3347 H   0  0  0  0  0  0  0  0  0  0  0  0
  142.7000   77.3462  217.9269 H   0  0  0  0  0  0  0  0  0  0  0  0
  142.1141   80.0101  220.4687 H   0  0  0  0  0  0  0  0  0  0  0  0
  143.0841   81.4274  222.2346 H   0  0  0  0  0  0  0  0  0  0  0  0
  142.9272   80.7931  224.6162 H   0  0  0  0  0  0  0  0  0  0  0  0
  141.7526   78.6851  225.2116 H   0  0  0  0  0  0  0  0  0  0  0  0
  140.7793   77.2585  223.4505 H   0  0  0  0  0  0  0  0  0  0  0  0
  139.8402   76.5774  222.1392 H   0  0  0  0  0  0  0  0  0  0  0  0
  138.2687   78.2875  221.3163 H   0  0  0  0  0  0  0  0  0  0  0  0
  138.0627   77.3636  219.8286 H   0  0  0  0  0  0  0  0  0  0  0  0
  137.6106   76.4225  222.7337 H   0  0  0  0  0  0  0  0  0  0  0  0
  136.4035   76.4890  221.3944 H   0  0  0  0  0  0  0  0  0  0  0  0
  138.2790   72.2286  220.9707 H   0  0  0  0  0  0  0  0  0  0  0  0
  135.5469   71.6396  222.1208 H   0  0  0  0  0  0  0  0  0  0  0  0
  135.6799   72.6583  220.6473 H   0  0  0  0  0  0  0  0  0  0  0  0
  136.3415   70.9883  220.6473 H   0  0  0  0  0  0  0  0  0  0  0  0
  137.8840   72.5360  223.7200 H   0  0  0  0  0  0  0  0  0  0  0  0
  140.7163   72.5681  223.8355 H   0  0  0  0  0  0  0  0  0  0  0  0
  141.2344   71.8240  222.2848 H   0  0  0  0  0  0  0  0  0  0  0  0
  140.0158   73.1437  222.2848 H   0  0  0  0  0  0  0  0  0  0  0  0
  139.5821   69.2009  222.4258 H   0  0  0  0  0  0  0  0  0  0  0  0
  138.5353   70.1271  221.2975 H   0  0  0  0  0  0  0  0  0  0  0  0
  140.3118   70.3930  221.2975 H   0  0  0  0  0  0  0  0  0  0  0  0
  138.5901   68.7091  223.6693 H   0  0  0  0  0  0  0  0  0  0  0  0
  138.9007   67.5805  225.8362 H   0  0  0  0  0  0  0  0  0  0  0  0
  139.9788   68.7991  227.7388 H   0  0  0  0  0  0  0  0  0  0  0  0
  140.3999   72.2494  225.2249 H   0  0  0  0  0  0  0  0  0  0  0  0
  138.7719   73.6404  219.9490 H   0  0  0  0  0  0  0  0  0  0  0  0
  138.2203   75.1459  219.2202 H   0  0  0  0  0  0  0  0  0  0  0  0
  140.4582   74.7616  221.3206 H   0  0  0  0  0  0  0  0  0  0  0  0
  140.6239   75.4231  219.6510 H   0  0  0  0  0  0  0  0  0  0  0  0
  1  2  1  0
  2  3  1  0
  3  4  2  0
  3  5  1  0
  5  6  1  0
  6  7  2  0
  7  8  1  0
  8  9  2  0
  9 10  1  0
 10 11  2  0
  5 12  1  0
 12 13  1  0
 13 14  1  0
 14 15  1  0
 15 16  1  0
 16 17  2  0
 16 18  1  0
 18 19  1  0
 18 20  1  0
 20 21  1  0
 21 22  1  0
 21 23  1  0
 21 24  1  0
 24 25  2  0
 25 26  1  0
 26 27  2  0
 27 28  1  0
 28 29  1  0
 28 30  2  0
 15 31  1  0
 31 32  1  0
 11  6  1  0
 32 12  1  0
 30 24  1  0
  1 33  1  0
  1 34  1  0
  1 35  1  0
  2 36  1  0
  2 37  1  0
  7 38  1  0
  8 39  1  0
  9 40  1  0
 10 41  1  0
 11 42  1  0
 12 43  1  0
 13 44  1  0
 13 45  1  0
 14 46  1  0
 14 47  1  0
 18 48  1  6
 19 49  1  0
 19 50  1  0
 19 51  1  0
 20 52  1  0
 22 53  1  0
 22 54  1  0
 22 55  1  0
 23 56  1  0
 23 57  1  0
 23 58  1  0
 25 59  1  0
 26 60  1  0
 27 61  1  0
 30 62  1  0
 31 63  1  0
 31 64  1  0
 32 65  1  0
 32 66  1  0
M  END
>  <smiles>  (22) 
CCC(=O)N(c1ccccc1)C1CCN(C(=O)[C@H](C)NC(C)(C)c2cccc(Br)c2)CC1

>  <score_type>  (22) 
oracle

>  <origin>  (22) 
autodockgpu

>  <m_score__min__energy>  (22) 
-8.9299999999999997

>  <m_primary>  (22) 
energy

>  <rmsd>  (22) 
8.278471248668529

>  <m_score__min__rmsd>  (22) 
8.278471248668529

>  <meeko>  (22) 
{"free_energy": -7.96, "intermolecular_energy": -10.34, "internal_energy": -2.79, "cluster_size": 16, "cluster_id": 2, "rank_in_cluster": 12}

>  <energy>  (22) 
-8.15

>  <cluster_rmsd>  (22) 
0.0

>  <cluster>  (22) 
3

$$$$

     RDKit          3D

 66 68  0  0  0  0  0  0  0  0999 V2000
  138.1380   68.2530  221.6500 C   0  0  0  0  0  0  0  0  0  0  0  0
  138.5030   67.8630  223.0760 C   0  0  0  0  0  0  0  0  0  0  0  0
  138.0340   68.9480  224.0210 C   0  0  0  0  0  0  0  0  0  0  0  0
  136.8130   68.8920  224.2800 O   0  0  0  0  0  0  0  0  0  0  0  0
  138.9500   69.9150  224.5340 N   0  0  0  0  0  0  0  0  0  0  0  0
  139.6430   69.7630  225.7640 C   0  0  0  0  0  0  0  0  0  0  0  0
  140.3260   70.8410  226.3320 C   0  0  0  0  0  0  0  0  0  0  0  0
  141.0060   70.7180  227.5390 C   0  0  0  0  0  0  0  0  0  0  0  0
  141.0400   69.5390  228.2270 C   0  0  0  0  0  0  0  0  0  0  0  0
  140.3760   68.4640  227.6930 C   0  0  0  0  0  0  0  0  0  0  0  0
  139.6940   68.5880  226.4810 C   0  0  0  0  0  0  0  0  0  0  0  0
  139.1360   71.0950  223.7030 C   0  0  0  0  0  0  0  0  0  0  0  0
  140.2130   70.9550  222.6550 C   0  0  0  0  0  0  0  0  0  0  0  0
  140.5520   72.3980  222.2420 C   0  0  0  0  0  0  0  0  0  0  0  0
  139.3420   73.1450  221.9690 N   0  0  0  0  0  0  0  0  0  0  0  0
  139.4350   74.5560  221.8450 C   0  0  0  0  0  0  0  0  0  0  0  0
  140.5660   75.0790  222.0110 O   0  0  0  0  0  0  0  0  0  0  0  0
  138.2150   75.3980  221.5280 C   0  0  2  0  0  0  0  0  0  0  0  0
  138.7820   76.7550  221.1240 C   0  0  0  0  0  0  0  0  0  0  0  0
  137.4410   75.4210  222.7230 N   0  0  0  0  0  0  0  0  0  0  0  0
  136.0340   75.5550  222.6040 C   0  0  0  0  0  0  0  0  0  0  0  0
  135.4720   74.8280  221.3980 C   0  0  0  0  0  0  0  0  0  0  0  0
  135.5800   76.9750  222.6190 C   0  0  0  0  0  0  0  0  0  0  0  0
  135.4080   74.9050  223.8100 C   0  0  0  0  0  0  0  0  0  0  0  0
  134.9970   75.6630  224.8990 C   0  0  0  0  0  0  0  0  0  0  0  0
  134.4200   75.0910  226.0150 C   0  0  0  0  0  0  0  0  0  0  0  0
  134.2370   73.7130  226.0720 C   0  0  0  0  0  0  0  0  0  0  0  0
  134.6430   72.9500  224.9970 C   0  0  0  0  0  0  0  0  0  0  0  0
  134.4080   71.0780  225.0550 Br  0  0  0  0  0  0  0  0  0  0  0  0
  135.2140   73.5450  223.8940 C   0  0  0  0  0  0  0  0  0  0  0  0
  138.0970   72.4070  221.8660 C   0  0  0  0  0  0  0  0  0  0  0  0
  137.8980   71.7850  223.2620 C   0  0  0  0  0  0  0  0  0  0  0  0
  137.3865   69.0560  221.6704 H   0  0  0  0  0  0  0  0  0  0  0  0
  139.0377   68.6061  221.1247 H   0  0  0  0  0  0  0  0  0  0  0  0
  137.7262   67.3786  221.1247 H   0  0  0  0  0  0  0  0  0  0  0  0
  138.0138   66.9123  223.3347 H   0  0  0  0  0  0  0  0  0  0  0  0
  139.5933   67.7437  223.1603 H   0  0  0  0  0  0  0  0  0  0  0  0
  140.3260   71.8104  225.8122 H   0  0  0  0  0  0  0  0  0  0  0  0
  141.5301   71.5934  227.9501 H   0  0  0  0  0  0  0  0  0  0  0  0
  141.5830   69.4539  229.1799 H   0  0  0  0  0  0  0  0  0  0  0  0
  140.3809   67.4997  228.2222 H   0  0  0  0  0  0  0  0  0  0  0  0
  139.1730   67.7061  226.0800 H   0  0  0  0  0  0  0  0  0  0  0  0
  139.5520   71.8303  224.4075 H   0  0  0  0  0  0  0  0  0  0  0  0
  141.0982   70.4541  223.0740 H   0  0  0  0  0  0  0  0  0  0  0  0
  139.8832   70.3459  221.8005 H   0  0  0  0  0  0  0  0  0  0  0  0
  141.1035   72.8880  223.0579 H   0  0  0  0  0  0  0  0  0  0  0  0
  141.1672   72.3719  221.3305 H   0  0  0  0  0  0  0  0  0  0  0  0
  137.5621   75.0366  220.7199 H   0  0  0  0  0  0  0  0  0  0  0  0
  139.0242   77.3347  222.0269 H   0  0  0  0  0  0  0  0  0  0  0  0
  139.6941   76.6082  220.5268 H   0  0  0  0  0  0  0  0  0  0  0  0
  138.0366   77.3008  220.5268 H   0  0  0  0  0  0  0  0  0  0  0  0
  137.6990   74.5670  223.2850 H   0  0  0  0  0  0  0  0  0  0  0  0
  134.8316   73.9995  221.7349 H   0  0  0  0  0  0  0  0  0  0  0  0
  134.8778   75.5278  220.7921 H   0  0  0  0  0  0  0  0  0  0  0  0
  136.2989   74.4292  220.7921 H   0  0  0  0  0  0  0  0  0  0  0  0
  135.4715   77.3143  223.6597 H   0  0  0  0  0  0  0  0  0  0  0  0
  136.3222   77.6027  222.1042 H   0  0  0  0  0  0  0  0  0  0  0  0
  134.6113   77.0557  222.1042 H   0  0  0  0  0  0  0  0  0  0  0  0
  135.1357   76.7539  224.8712 H   0  0  0  0  0  0  0  0  0  0  0  0
  134.1054   75.7238  226.8580 H   0  0  0  0  0  0  0  0  0  0  0  0
  133.7789   73.2425  226.9545 H   0  0  0  0  0  0  0  0  0  0  0  0
  135.5259   72.9112  223.0508 H   0  0  0  0  0  0  0  0  0  0  0  0
  137.2644   73.0823  221.6193 H   0  0  0  0  0  0  0  0  0  0  0  0
  138.1265   71.6474  221.0709 H   0  0  0  0  0  0  0  0  0  0  0  0
  137.6505   72.5799  223.9809 H   0  0  0  0  0  0  0  0  0  0  0  0
  137.0796   71.0517  223.2122 H   0  0  0  0  0  0  0  0  0  0  0  0
  1  2  1  0
  2  3  1  0
  3  4  2  0
  3  5  1  0
  5  6  1  0
  6  7  2  0
  7  8  1  0
  8  9  2  0
  9 10  1  0
 10 11  2  0
  5 12  1  0
 12 13  1  0
 13 14  1  0
 14 15  1  0
 15 16  1  0
 16 17  2  0
 16 18  1  0
 18 19  1  0
 18 20  1  0
 20 21  1  0
 21 22  1  0
 21 23  1  0
 21 24  1  0
 24 25  2  0
 25 26  1  0
 26 27  2  0
 27 28  1  0
 28 29  1  0
 28 30  2  0
 15 31  1  0
 31 32  1  0
 11  6  1  0
 32 12  1  0
 30 24  1  0
  1 33  1  0
  1 34  1  0
  1 35  1  0
  2 36  1  0
  2 37  1  0
  7 38  1  0
  8 39  1  0
  9 40  1  0
 10 41  1  0
 11 42  1  0
 12 43  1  0
 13 44  1  0
 13 45  1  0
 14 46  1  0
 14 47  1  0
 18 48  1  6
 19 49  1  0
 19 50  1  0
 19 51  1  0
 20 52  1  0
 22 53  1  0
 22 54  1  0
 22 55  1  0
 23 56  1  0
 23 57  1  0
 23 58  1  0
 25 59  1  0
 26 60  1  0
 27 61  1  0
 30 62  1  0
 31 63  1  0
 31 64  1  0
 32 65  1  0
 32 66  1  0
M  END
>  <smiles>  (23) 
CCC(=O)N(c1ccccc1)C1CCN(C(=O)[C@H](C)NC(C)(C)c2cccc(Br)c2)CC1

>  <score_type>  (23) 
oracle

>  <origin>  (23) 
autodockgpu

>  <m_score__min__energy>  (23) 
-8.9299999999999997

>  <m_primary>  (23) 
energy

>  <rmsd>  (23) 
7.529506133130364

>  <m_score__min__rmsd>  (23) 
7.529506133130364

>  <meeko>  (23) 
{"free_energy": -7.39, "intermolecular_energy": -9.77, "internal_energy": -2.9, "cluster_size": 2, "cluster_id": 10, "rank_in_cluster": 2}

>  <energy>  (23) 
-7.76

>  <cluster_rmsd>  (23) 
0.92

>  <cluster>  (23) 
3

$$$$

     RDKit          3D

 66 68  0  0  0  0  0  0  0  0999 V2000
  142.5260   79.0760  218.2560 C   0  0  0  0  0  0  0  0  0  0  0  0
  142.0090   77.6530  218.4210 C   0  0  0  0  0  0  0  0  0  0  0  0
  142.3430   77.1640  219.8140 C   0  0  0  0  0  0  0  0  0  0  0  0
  143.4240   76.5410  219.8800 O   0  0  0  0  0  0  0  0  0  0  0  0
  141.4640   77.4220  220.9090 N   0  0  0  0  0  0  0  0  0  0  0  0
  141.6730   78.4620  221.8530 C   0  0  0  0  0  0  0  0  0  0  0  0
  141.4380   78.2430  223.2130 C   0  0  0  0  0  0  0  0  0  0  0  0
  141.6430   79.2420  224.1580 C   0  0  0  0  0  0  0  0  0  0  0  0
  142.0830   80.4860  223.8030 C   0  0  0  0  0  0  0  0  0  0  0  0
  142.3230   80.7270  222.4750 C   0  0  0  0  0  0  0  0  0  0  0  0
  142.1170   79.7240  221.5270 C   0  0  0  0  0  0  0  0  0  0  0  0
  140.3130   76.5360  221.0020 C   0  0  0  0  0  0  0  0  0  0  0  0
  139.0170   77.1460  220.5260 C   0  0  0  0  0  0  0  0  0  0  0  0
  137.9160   76.2600  221.1340 C   0  0  0  0  0  0  0  0  0  0  0  0
  138.2070   74.8610  220.9050 N   0  0  0  0  0  0  0  0  0  0  0  0
  137.4610   73.8910  221.6230 C   0  0  0  0  0  0  0  0  0  0  0  0
  136.6070   74.3090  222.4460 O   0  0  0  0  0  0  0  0  0  0  0  0
  137.6900   72.4080  221.4100 C   0  0  2  0  0  0  0  0  0  0  0  0
  136.3770   71.9000  220.8220 C   0  0  0  0  0  0  0  0  0  0  0  0
  138.0000   71.8760  222.6930 N   0  0  0  0  0  0  0  0  0  0  0  0
  139.3330   71.4620  222.9390 C   0  0  0  0  0  0  0  0  0  0  0  0
  140.3110   72.6190  222.9940 C   0  0  0  0  0  0  0  0  0  0  0  0
  139.8080   70.4210  221.9830 C   0  0  0  0  0  0  0  0  0  0  0  0
  139.3700   70.8210  224.3030 C   0  0  0  0  0  0  0  0  0  0  0  0
  138.6960   69.6340  224.5550 C   0  0  0  0  0  0  0  0  0  0  0  0
  138.7150   69.0280  225.7950 C   0  0  0  0  0  0  0  0  0  0  0  0
  139.4250   69.6090  226.8400 C   0  0  0  0  0  0  0  0  0  0  0  0
  140.0990   70.7900  226.6020 C   0  0  0  0  0  0  0  0  0  0  0  0
  141.0650   71.5990  228.0060 Br  0  0  0  0  0  0  0  0  0  0  0  0
  140.0650   71.3740  225.3550 C   0  0  0  0  0  0  0  0  0  0  0  0
  139.2670   74.5320  219.9700 C   0  0  0  0  0  0  0  0  0  0  0  0
  140.5410   75.1250  220.6050 C   0  0  0  0  0  0  0  0  0  0  0  0
  142.6888   79.5242  219.2473 H   0  0  0  0  0  0  0  0  0  0  0  0
  143.4754   79.0591  217.7008 H   0  0  0  0  0  0  0  0  0  0  0  0
  141.7871   79.6725  217.7008 H   0  0  0  0  0  0  0  0  0  0  0  0
  140.9186   77.6381  218.2768 H   0  0  0  0  0  0  0  0  0  0  0  0
  142.4817   76.9977  217.6746 H   0  0  0  0  0  0  0  0  0  0  0  0
  141.0822   77.2562  223.5440 H   0  0  0  0  0  0  0  0  0  0  0  0
  141.4460   79.0254  225.2183 H   0  0  0  0  0  0  0  0  0  0  0  0
  142.2397   81.2695  224.5591 H   0  0  0  0  0  0  0  0  0  0  0  0
  142.6801   81.7169  222.1548 H   0  0  0  0  0  0  0  0  0  0  0  0
  142.3187   79.9521  220.4700 H   0  0  0  0  0  0  0  0  0  0  0  0
  140.1689   76.4325  222.0876 H   0  0  0  0  0  0  0  0  0  0  0  0
  138.9222   78.1817  220.8841 H   0  0  0  0  0  0  0  0  0  0  0  0
  138.9569   77.1867  219.4284 H   0  0  0  0  0  0  0  0  0  0  0  0
  137.8590   76.4453  222.2168 H   0  0  0  0  0  0  0  0  0  0  0  0
  136.9565   76.5066  220.6560 H   0  0  0  0  0  0  0  0  0  0  0  0
  138.5096   72.1275  220.7320 H   0  0  0  0  0  0  0  0  0  0  0  0
  135.6887   71.6337  221.6377 H   0  0  0  0  0  0  0  0  0  0  0  0
  135.9238   72.6877  220.2022 H   0  0  0  0  0  0  0  0  0  0  0  0
  136.5719   71.0124  220.2022 H   0  0  0  0  0  0  0  0  0  0  0  0
  137.6750   72.5750  223.4130 H   0  0  0  0  0  0  0  0  0  0  0  0
  140.5233   72.8701  224.0437 H   0  0  0  0  0  0  0  0  0  0  0  0
  141.2456   72.3334  222.4891 H   0  0  0  0  0  0  0  0  0  0  0  0
  139.8738   73.4930  222.4891 H   0  0  0  0  0  0  0  0  0  0  0  0
  140.2008   69.5601  222.5438 H   0  0  0  0  0  0  0  0  0  0  0  0
  138.9697   70.0946  221.3500 H   0  0  0  0  0  0  0  0  0  0  0  0
  140.6039   70.8403  221.3500 H   0  0  0  0  0  0  0  0  0  0  0  0
  138.1284   69.1610  223.7401 H   0  0  0  0  0  0  0  0  0  0  0  0
  138.1692   68.0867  225.9564 H   0  0  0  0  0  0  0  0  0  0  0  0
  139.4490   69.1382  227.8338 H   0  0  0  0  0  0  0  0  0  0  0  0
  140.6120   72.3147  225.1941 H   0  0  0  0  0  0  0  0  0  0  0  0
  139.3606   73.4419  219.8564 H   0  0  0  0  0  0  0  0  0  0  0  0
  139.0760   74.9331  218.9637 H   0  0  0  0  0  0  0  0  0  0  0  0
  140.8096   74.5371  221.4950 H   0  0  0  0  0  0  0  0  0  0  0  0
  141.3566   75.0894  219.8678 H   0  0  0  0  0  0  0  0  0  0  0  0
  1  2  1  0
  2  3  1  0
  3  4  2  0
  3  5  1  0
  5  6  1  0
  6  7  2  0
  7  8  1  0
  8  9  2  0
  9 10  1  0
 10 11  2  0
  5 12  1  0
 12 13  1  0
 13 14  1  0
 14 15  1  0
 15 16  1  0
 16 17  2  0
 16 18  1  0
 18 19  1  0
 18 20  1  0
 20 21  1  0
 21 22  1  0
 21 23  1  0
 21 24  1  0
 24 25  2  0
 25 26  1  0
 26 27  2  0
 27 28  1  0
 28 29  1  0
 28 30  2  0
 15 31  1  0
 31 32  1  0
 11  6  1  0
 32 12  1  0
 30 24  1  0
  1 33  1  0
  1 34  1  0
  1 35  1  0
  2 36  1  0
  2 37  1  0
  7 38  1  0
  8 39  1  0
  9 40  1  0
 10 41  1  0
 11 42  1  0
 12 43  1  0
 13 44  1  0
 13 45  1  0
 14 46  1  0
 14 47  1  0
 18 48  1  6
 19 49  1  0
 19 50  1  0
 19 51  1  0
 20 52  1  0
 22 53  1  0
 22 54  1  0
 22 55  1  0
 23 56  1  0
 23 57  1  0
 23 58  1  0
 25 59  1  0
 26 60  1  0
 27 61  1  0
 30 62  1  0
 31 63  1  0
 31 64  1  0
 32 65  1  0
 32 66  1  0
M  END
>  <smiles>  (24) 
CCC(=O)N(c1ccccc1)C1CCN(C(=O)[C@H](C)NC(C)(C)c2cccc(Br)c2)CC1

>  <score_type>  (24) 
oracle

>  <origin>  (24) 
autodockgpu

>  <m_score__min__energy>  (24) 
-8.9299999999999997

>  <m_primary>  (24) 
energy

>  <rmsd>  (24) 
8.045428020965886

>  <m_score__min__rmsd>  (24) 
8.045428020965886

>  <meeko>  (24) 
{"free_energy": -7.76, "intermolecular_energy": -10.15, "internal_energy": -2.77, "cluster_size": 16, "cluster_id": 2, "rank_in_cluster": 15}

>  <energy>  (24) 
-8.04

>  <cluster_rmsd>  (24) 
0.0

>  <cluster>  (24) 
4

$$$$

     RDKit          3D

 66 68  0  0  0  0  0  0  0  0999 V2000
  140.3010   72.1420  221.9120 C   0  0  0  0  0  0  0  0  0  0  0  0
  140.4130   73.1180  220.7480 C   0  0  0  0  0  0  0  0  0  0  0  0
  141.1930   74.3360  221.1970 C   0  0  0  0  0  0  0  0  0  0  0  0
  140.7210   74.8840  222.2170 O   0  0  0  0  0  0  0  0  0  0  0  0
  142.3490   74.7680  220.4800 N   0  0  0  0  0  0  0  0  0  0  0  0
  143.5530   74.0170  220.4110 C   0  0  0  0  0  0  0  0  0  0  0  0
  143.5200   72.6470  220.1420 C   0  0  0  0  0  0  0  0  0  0  0  0
  144.6850   71.8920  220.0620 C   0  0  0  0  0  0  0  0  0  0  0  0
  145.9180   72.4530  220.2410 C   0  0  0  0  0  0  0  0  0  0  0  0
  145.9790   73.7980  220.5050 C   0  0  0  0  0  0  0  0  0  0  0  0
  144.8090   74.5550  220.5860 C   0  0  0  0  0  0  0  0  0  0  0  0
  142.2190   76.0530  219.8100 C   0  0  0  0  0  0  0  0  0  0  0  0
  142.7540   76.0740  218.3980 C   0  0  0  0  0  0  0  0  0  0  0  0
  142.9480   77.5650  218.0730 C   0  0  0  0  0  0  0  0  0  0  0  0
  141.7670   78.3220  218.4320 N   0  0  0  0  0  0  0  0  0  0  0  0
  141.8580   79.7370  218.4650 C   0  0  0  0  0  0  0  0  0  0  0  0
  142.9760   80.2530  218.2080 O   0  0  0  0  0  0  0  0  0  0  0  0
  140.6530   80.5930  218.8010 C   0  0  2  0  0  0  0  0  0  0  0  0
  140.0710   80.9830  217.4460 C   0  0  0  0  0  0  0  0  0  0  0  0
  141.1570   81.6890  219.5570 N   0  0  0  0  0  0  0  0  0  0  0  0
  140.6300   81.9020  220.8570 C   0  0  0  0  0  0  0  0  0  0  0  0
  139.1420   82.1910  220.8510 C   0  0  0  0  0  0  0  0  0  0  0  0
  141.3640   82.9510  221.6200 C   0  0  0  0  0  0  0  0  0  0  0  0
  140.8020   80.6230  221.6360 C   0  0  0  0  0  0  0  0  0  0  0  0
  142.0160   80.3060  222.2310 C   0  0  0  0  0  0  0  0  0  0  0  0
  142.1980   79.1420  222.9500 C   0  0  0  0  0  0  0  0  0  0  0  0
  141.1460   78.2440  223.0940 C   0  0  0  0  0  0  0  0  0  0  0  0
  139.9360   78.5480  222.5060 C   0  0  0  0  0  0  0  0  0  0  0  0
  138.4950   77.3420  222.6850 Br  0  0  0  0  0  0  0  0  0  0  0  0
  139.7790   79.7170  221.7950 C   0  0  0  0  0  0  0  0  0  0  0  0
  140.5640   77.5830  218.7650 C   0  0  0  0  0  0  0  0  0  0  0  0
  140.9410   76.7740  220.0220 C   0  0  0  0  0  0  0  0  0  0  0  0
  140.3644   72.6944  222.8611 H   0  0  0  0  0  0  0  0  0  0  0  0
  139.3366   71.6158  221.8578 H   0  0  0  0  0  0  0  0  0  0  0  0
  141.1211   71.4110  221.8578 H   0  0  0  0  0  0  0  0  0  0  0  0
  140.9360   72.6338  219.9101 H   0  0  0  0  0  0  0  0  0  0  0  0
  139.4077   73.4214  220.4202 H   0  0  0  0  0  0  0  0  0  0  0  0
  142.5489   72.1532  219.9897 H   0  0  0  0  0  0  0  0  0  0  0  0
  144.6121   70.8153  219.8491 H   0  0  0  0  0  0  0  0  0  0  0  0
  146.8327   71.8455  220.1755 H   0  0  0  0  0  0  0  0  0  0  0  0
  146.9553   74.2825  220.6537 H   0  0  0  0  0  0  0  0  0  0  0  0
  144.8939   75.6308  220.7994 H   0  0  0  0  0  0  0  0  0  0  0  0
  142.9195   76.6942  220.3651 H   0  0  0  0  0  0  0  0  0  0  0  0
  143.7120   75.5367  218.3386 H   0  0  0  0  0  0  0  0  0  0  0  0
  142.0736   75.5797  217.6889 H   0  0  0  0  0  0  0  0  0  0  0  0
  143.8096   77.9493  218.6386 H   0  0  0  0  0  0  0  0  0  0  0  0
  143.1238   77.6728  216.9925 H   0  0  0  0  0  0  0  0  0  0  0  0
  139.8611   80.1175  219.3984 H   0  0  0  0  0  0  0  0  0  0  0  0
  139.1658   81.5896  217.5966 H   0  0  0  0  0  0  0  0  0  0  0  0
  140.8137   81.5665  216.8821 H   0  0  0  0  0  0  0  0  0  0  0  0
  139.8138   80.0742  216.8821 H   0  0  0  0  0  0  0  0  0  0  0  0
  142.2080   81.6040  219.5780 H   0  0  0  0  0  0  0  0  0  0  0  0
  138.7780   82.2617  221.8866 H   0  0  0  0  0  0  0  0  0  0  0  0
  138.9553   83.1422  220.3310 H   0  0  0  0  0  0  0  0  0  0  0  0
  138.6128   81.3788  220.3310 H   0  0  0  0  0  0  0  0  0  0  0  0
  141.2402   82.7741  222.6986 H   0  0  0  0  0  0  0  0  0  0  0  0
  142.4327   82.9117  221.3623 H   0  0  0  0  0  0  0  0  0  0  0  0
  140.9609   83.9415  221.3623 H   0  0  0  0  0  0  0  0  0  0  0  0
  142.8592   81.0046  222.1260 H   0  0  0  0  0  0  0  0  0  0  0  0
  143.1740   78.9249  223.4086 H   0  0  0  0  0  0  0  0  0  0  0  0
  141.2760   77.3122  223.6640 H   0  0  0  0  0  0  0  0  0  0  0  0
  138.8020   79.9338  221.3385 H   0  0  0  0  0  0  0  0  0  0  0  0
  139.7328   78.2706  218.9804 H   0  0  0  0  0  0  0  0  0  0  0  0
  140.2278   76.9388  217.9392 H   0  0  0  0  0  0  0  0  0  0  0  0
  141.0492   77.4598  220.8752 H   0  0  0  0  0  0  0  0  0  0  0  0
  140.1472   76.0400  220.2246 H   0  0  0  0  0  0  0  0  0  0  0  0
  1  2  1  0
  2  3  1  0
  3  4  2  0
  3  5  1  0
  5  6  1  0
  6  7  2  0
  7  8  1  0
  8  9  2  0
  9 10  1  0
 10 11  2  0
  5 12  1  0
 12 13  1  0
 13 14  1  0
 14 15  1  0
 15 16  1  0
 16 17  2  0
 16 18  1  0
 18 19  1  0
 18 20  1  0
 20 21  1  0
 21 22  1  0
 21 23  1  0
 21 24  1  0
 24 25  2  0
 25 26  1  0
 26 27  2  0
 27 28  1  0
 28 29  1  0
 28 30  2  0
 15 31  1  0
 31 32  1  0
 11  6  1  0
 32 12  1  0
 30 24  1  0
  1 33  1  0
  1 34  1  0
  1 35  1  0
  2 36  1  0
  2 37  1  0
  7 38  1  0
  8 39  1  0
  9 40  1  0
 10 41  1  0
 11 42  1  0
 12 43  1  0
 13 44  1  0
 13 45  1  0
 14 46  1  0
 14 47  1  0
 18 48  1  1
 19 49  1  0
 19 50  1  0
 19 51  1  0
 20 52  1  0
 22 53  1  0
 22 54  1  0
 22 55  1  0
 23 56  1  0
 23 57  1  0
 23 58  1  0
 25 59  1  0
 26 60  1  0
 27 61  1  0
 30 62  1  0
 31 63  1  0
 31 64  1  0
 32 65  1  0
 32 66  1  0
M  END
>  <smiles>  (25) 
CCC(=O)N(c1ccccc1)C1CCN(C(=O)[C@H](C)NC(C)(C)c2cccc(Br)c2)CC1

>  <score_type>  (25) 
oracle

>  <origin>  (25) 
autodockgpu

>  <m_score__min__energy>  (25) 
-8.9299999999999997

>  <m_primary>  (25) 
energy

>  <rmsd>  (25) 
4.277933433636175

>  <m_score__min__rmsd>  (25) 
4.277933433636175

>  <meeko>  (25) 
{"free_energy": -6.8, "intermolecular_energy": -9.18, "internal_energy": -3.84, "cluster_size": 10, "cluster_id": 9, "rank_in_cluster": 10}

>  <energy>  (25) 
-7.91

>  <cluster_rmsd>  (25) 
0.45

>  <cluster>  (25) 
4

$$$$

     RDKit          3D

 66 68  0  0  0  0  0  0  0  0999 V2000
  140.6730   71.2120  220.9070 C   0  0  0  0  0  0  0  0  0  0  0  0
  140.5950   72.5300  220.1490 C   0  0  0  0  0  0  0  0  0  0  0  0
  141.2610   73.6130  220.9700 C   0  0  0  0  0  0  0  0  0  0  0  0
  140.7000   73.8270  222.0660 O   0  0  0  0  0  0  0  0  0  0  0  0
  142.4180   74.2920  220.4820 N   0  0  0  0  0  0  0  0  0  0  0  0
  143.6920   73.6760  220.3570 C   0  0  0  0  0  0  0  0  0  0  0  0
  144.8460   74.3390  220.7820 C   0  0  0  0  0  0  0  0  0  0  0  0
  146.1030   73.7550  220.6770 C   0  0  0  0  0  0  0  0  0  0  0  0
  146.2720   72.5050  220.1530 C   0  0  0  0  0  0  0  0  0  0  0  0
  145.1560   71.8300  219.7300 C   0  0  0  0  0  0  0  0  0  0  0  0
  143.8940   72.4170  219.8350 C   0  0  0  0  0  0  0  0  0  0  0  0
  142.2120   75.6840  220.1120 C   0  0  0  0  0  0  0  0  0  0  0  0
  142.1060   75.9230  218.6250 C   0  0  0  0  0  0  0  0  0  0  0  0
  142.3650   77.4290  218.4480 C   0  0  0  0  0  0  0  0  0  0  0  0
  141.5670   78.1950  219.3830 N   0  0  0  0  0  0  0  0  0  0  0  0
  141.8720   79.5690  219.5610 C   0  0  0  0  0  0  0  0  0  0  0  0
  142.8430   80.0360  218.9130 O   0  0  0  0  0  0  0  0  0  0  0  0
  141.0580   80.4380  220.4990 C   0  0  2  0  0  0  0  0  0  0  0  0
  140.5170   81.5550  219.6120 C   0  0  0  0  0  0  0  0  0  0  0  0
  141.9670   80.8780  221.5030 N   0  0  0  0  0  0  0  0  0  0  0  0
  141.8350   80.3340  222.8060 C   0  0  0  0  0  0  0  0  0  0  0  0
  142.2200   81.3140  223.8970 C   0  0  0  0  0  0  0  0  0  0  0  0
  142.5660   79.0460  222.9780 C   0  0  0  0  0  0  0  0  0  0  0  0
  140.3780   80.0180  223.0260 C   0  0  0  0  0  0  0  0  0  0  0  0
  139.4910   80.9950  223.4580 C   0  0  0  0  0  0  0  0  0  0  0  0
  138.1530   80.7300  223.6660 C   0  0  0  0  0  0  0  0  0  0  0  0
  137.6560   79.4500  223.4440 C   0  0  0  0  0  0  0  0  0  0  0  0
  138.5280   78.4710  223.0160 C   0  0  0  0  0  0  0  0  0  0  0  0
  137.8770   76.7250  222.7130 Br  0  0  0  0  0  0  0  0  0  0  0  0
  139.8600   78.7600  222.8140 C   0  0  0  0  0  0  0  0  0  0  0  0
  140.5180   77.5010  220.1060 C   0  0  0  0  0  0  0  0  0  0  0  0
  141.2610   76.4490  220.9540 C   0  0  0  0  0  0  0  0  0  0  0  0
  140.6613   71.4100  221.9890 H   0  0  0  0  0  0  0  0  0  0  0  0
  139.8105   70.5838  220.6399 H   0  0  0  0  0  0  0  0  0  0  0  0
  141.6036   70.6899  220.6399 H   0  0  0  0  0  0  0  0  0  0  0  0
  141.1110   72.4304  219.1827 H   0  0  0  0  0  0  0  0  0  0  0  0
  139.5420   72.7939  219.9715 H   0  0  0  0  0  0  0  0  0  0  0  0
  144.7576   75.3483  221.2104 H   0  0  0  0  0  0  0  0  0  0  0  0
  146.9843   74.3139  221.0249 H   0  0  0  0  0  0  0  0  0  0  0  0
  147.2721   72.0540  220.0729 H   0  0  0  0  0  0  0  0  0  0  0  0
  145.2558   70.8201  219.3055 H   0  0  0  0  0  0  0  0  0  0  0  0
  143.0201   71.8480  219.4848 H   0  0  0  0  0  0  0  0  0  0  0  0
  143.1669   76.1572  220.3846 H   0  0  0  0  0  0  0  0  0  0  0  0
  142.8608   75.3340  218.0834 H   0  0  0  0  0  0  0  0  0  0  0  0
  141.1267   75.6209  218.2253 H   0  0  0  0  0  0  0  0  0  0  0  0
  143.4304   77.6364  218.6268 H   0  0  0  0  0  0  0  0  0  0  0  0
  142.0885   77.7192  217.4236 H   0  0  0  0  0  0  0  0  0  0  0  0
  140.2116   79.9555  221.0097 H   0  0  0  0  0  0  0  0  0  0  0  0
  140.1241   82.3662  220.2426 H   0  0  0  0  0  0  0  0  0  0  0  0
  141.3267   81.9436  218.9769 H   0  0  0  0  0  0  0  0  0  0  0  0
  139.7101   81.1606  218.9769 H   0  0  0  0  0  0  0  0  0  0  0  0
  142.9430   80.7450  221.1280 H   0  0  0  0  0  0  0  0  0  0  0  0
  142.0402   80.8564  224.8810 H   0  0  0  0  0  0  0  0  0  0  0  0
  143.2855   81.5699  223.8007 H   0  0  0  0  0  0  0  0  0  0  0  0
  141.6136   82.2267  223.8007 H   0  0  0  0  0  0  0  0  0  0  0  0
  142.6867   78.8333  224.0505 H   0  0  0  0  0  0  0  0  0  0  0  0
  141.9942   78.2339  222.5052 H   0  0  0  0  0  0  0  0  0  0  0  0
  143.5564   79.1205  222.5052 H   0  0  0  0  0  0  0  0  0  0  0  0
  139.8669   82.0126  223.6402 H   0  0  0  0  0  0  0  0  0  0  0  0
  137.4799   81.5304  224.0071 H   0  0  0  0  0  0  0  0  0  0  0  0
  136.5918   79.2238  223.6061 H   0  0  0  0  0  0  0  0  0  0  0  0
  140.5319   77.9590  222.4720 H   0  0  0  0  0  0  0  0  0  0  0  0
  139.9638   78.1987  220.7510 H   0  0  0  0  0  0  0  0  0  0  0  0
  139.7772   77.0461  219.4319 H   0  0  0  0  0  0  0  0  0  0  0  0
  141.8154   76.9567  221.7571 H   0  0  0  0  0  0  0  0  0  0  0  0
  140.5255   75.7531  221.3838 H   0  0  0  0  0  0  0  0  0  0  0  0
  1  2  1  0
  2  3  1  0
  3  4  2  0
  3  5  1  0
  5  6  1  0
  6  7  2  0
  7  8  1  0
  8  9  2  0
  9 10  1  0
 10 11  2  0
  5 12  1  0
 12 13  1  0
 13 14  1  0
 14 15  1  0
 15 16  1  0
 16 17  2  0
 16 18  1  0
 18 19  1  0
 18 20  1  0
 20 21  1  0
 21 22  1  0
 21 23  1  0
 21 24  1  0
 24 25  2  0
 25 26  1  0
 26 27  2  0
 27 28  1  0
 28 29  1  0
 28 30  2  0
 15 31  1  0
 31 32  1  0
 11  6  1  0
 32 12  1  0
 30 24  1  0
  1 33  1  0
  1 34  1  0
  1 35  1  0
  2 36  1  0
  2 37  1  0
  7 38  1  0
  8 39  1  0
  9 40  1  0
 10 41  1  0
 11 42  1  0
 12 43  1  0
 13 44  1  0
 13 45  1  0
 14 46  1  0
 14 47  1  0
 18 48  1  1
 19 49  1  0
 19 50  1  0
 19 51  1  0
 20 52  1  0
 22 53  1  0
 22 54  1  0
 22 55  1  0
 23 56  1  0
 23 57  1  0
 23 58  1  0
 25 59  1  0
 26 60  1  0
 27 61  1  0
 30 62  1  0
 31 63  1  0
 31 64  1  0
 32 65  1  0
 32 66  1  0
M  END
>  <smiles>  (26) 
CCC(=O)N(c1ccccc1)C1CCN(C(=O)[C@H](C)NC(C)(C)c2cccc(Br)c2)CC1

>  <score_type>  (26) 
oracle

>  <origin>  (26) 
autodockgpu

>  <m_score__min__energy>  (26) 
-8.9299999999999997

>  <m_primary>  (26) 
energy

>  <rmsd>  (26) 
3.355813520572005

>  <m_score__min__rmsd>  (26) 
3.355813520572005

>  <meeko>  (26) 
{"free_energy": -7.61, "intermolecular_energy": -9.99, "internal_energy": -3.2, "cluster_size": 10, "cluster_id": 9, "rank_in_cluster": 3}

>  <energy>  (26) 
-7.8

>  <cluster_rmsd>  (26) 
0.89

>  <cluster>  (26) 
4

$$$$

     RDKit          3D

 66 68  0  0  0  0  0  0  0  0999 V2000
  139.8460   71.7800  221.1980 C   0  0  0  0  0  0  0  0  0  0  0  0
  140.3370   72.8890  220.2770 C   0  0  0  0  0  0  0  0  0  0  0  0
  141.1110   73.9020  221.0930 C   0  0  0  0  0  0  0  0  0  0  0  0
  140.6250   74.1100  222.2250 O   0  0  0  0  0  0  0  0  0  0  0  0
  142.2780   74.5290  220.5610 N   0  0  0  0  0  0  0  0  0  0  0  0
  143.5270   73.8660  220.4200 C   0  0  0  0  0  0  0  0  0  0  0  0
  143.5780   72.5150  220.0730 C   0  0  0  0  0  0  0  0  0  0  0  0
  144.7880   71.8460  219.9220 C   0  0  0  0  0  0  0  0  0  0  0  0
  145.9850   72.4780  220.1050 C   0  0  0  0  0  0  0  0  0  0  0  0
  145.9640   73.8070  220.4460 C   0  0  0  0  0  0  0  0  0  0  0  0
  144.7490   74.4770  220.5980 C   0  0  0  0  0  0  0  0  0  0  0  0
  142.1110   75.9180  220.1640 C   0  0  0  0  0  0  0  0  0  0  0  0
  142.1170   76.1440  218.6710 C   0  0  0  0  0  0  0  0  0  0  0  0
  142.4000   77.6460  218.5000 C   0  0  0  0  0  0  0  0  0  0  0  0
  141.5400   78.4260  219.3650 N   0  0  0  0  0  0  0  0  0  0  0  0
  141.8410   79.8000  219.5520 C   0  0  0  0  0  0  0  0  0  0  0  0
  142.8610   80.2540  218.9750 O   0  0  0  0  0  0  0  0  0  0  0  0
  140.9660   80.6840  220.4190 C   0  0  2  0  0  0  0  0  0  0  0  0
  140.4270   81.7430  219.4630 C   0  0  0  0  0  0  0  0  0  0  0  0
  141.8220   81.1960  221.4350 N   0  0  0  0  0  0  0  0  0  0  0  0
  141.7580   80.6040  222.7220 C   0  0  0  0  0  0  0  0  0  0  0  0
  142.1430   81.5610  223.8330 C   0  0  0  0  0  0  0  0  0  0  0  0
  142.5430   79.3410  222.8230 C   0  0  0  0  0  0  0  0  0  0  0  0
  140.3230   80.2230  222.9810 C   0  0  0  0  0  0  0  0  0  0  0  0
  139.4060   81.1580  223.4430 C   0  0  0  0  0  0  0  0  0  0  0  0
  138.0880   80.8330  223.6870 C   0  0  0  0  0  0  0  0  0  0  0  0
  137.6410   79.5340  223.4710 C   0  0  0  0  0  0  0  0  0  0  0  0
  138.5430   78.5960  223.0130 C   0  0  0  0  0  0  0  0  0  0  0  0
  137.9610   76.8250  222.7180 Br  0  0  0  0  0  0  0  0  0  0  0  0
  139.8550   78.9450  222.7760 C   0  0  0  0  0  0  0  0  0  0  0  0
  140.4350   77.7470  220.0150 C   0  0  0  0  0  0  0  0  0  0  0  0
  141.1050   76.6980  220.9250 C   0  0  0  0  0  0  0  0  0  0  0  0
  139.9817   72.0865  222.2457 H   0  0  0  0  0  0  0  0  0  0  0  0
  138.7796   71.5898  221.0068 H   0  0  0  0  0  0  0  0  0  0  0  0
  140.4221   70.8626  221.0068 H   0  0  0  0  0  0  0  0  0  0  0  0
  140.9912   72.4623  219.5024 H   0  0  0  0  0  0  0  0  0  0  0  0
  139.4781   73.3788  219.7950 H   0  0  0  0  0  0  0  0  0  0  0  0
  142.6381   71.9659  219.9151 H   0  0  0  0  0  0  0  0  0  0  0  0
  144.7808   70.7806  219.6482 H   0  0  0  0  0  0  0  0  0  0  0  0
  146.9359   71.9386  219.9829 H   0  0  0  0  0  0  0  0  0  0  0  0
  146.9097   74.3472  220.6004 H   0  0  0  0  0  0  0  0  0  0  0  0
  144.7680   75.5420  220.8726 H   0  0  0  0  0  0  0  0  0  0  0  0
  143.0471   76.3857  220.5030 H   0  0  0  0  0  0  0  0  0  0  0  0
  142.9051   75.5446  218.1919 H   0  0  0  0  0  0  0  0  0  0  0  0
  141.1675   75.8453  218.2029 H   0  0  0  0  0  0  0  0  0  0  0  0
  143.4504   77.8479  218.7565 H   0  0  0  0  0  0  0  0  0  0  0  0
  142.2037   77.9282  217.4551 H   0  0  0  0  0  0  0  0  0  0  0  0
  140.1152   80.1983  220.9193 H   0  0  0  0  0  0  0  0  0  0  0  0
  140.0025   82.5770  220.0412 H   0  0  0  0  0  0  0  0  0  0  0  0
  141.2453   82.1153  218.8291 H   0  0  0  0  0  0  0  0  0  0  0  0
  139.6444   81.3005  218.8291 H   0  0  0  0  0  0  0  0  0  0  0  0
  142.8060   81.1870  221.0560 H   0  0  0  0  0  0  0  0  0  0  0  0
  141.9525   81.0874  224.8073 H   0  0  0  0  0  0  0  0  0  0  0  0
  143.2112   81.8098  223.7489 H   0  0  0  0  0  0  0  0  0  0  0  0
  141.5447   82.4802  223.7489 H   0  0  0  0  0  0  0  0  0  0  0  0
  142.6990   79.0900  223.8826 H   0  0  0  0  0  0  0  0  0  0  0  0
  141.9919   78.5263  222.3305 H   0  0  0  0  0  0  0  0  0  0  0  0
  143.5175   79.4746  222.3305 H   0  0  0  0  0  0  0  0  0  0  0  0
  139.7415   82.1905  223.6199 H   0  0  0  0  0  0  0  0  0  0  0  0
  137.3906   81.6012  224.0524 H   0  0  0  0  0  0  0  0  0  0  0  0
  136.5926   79.2607  223.6609 H   0  0  0  0  0  0  0  0  0  0  0  0
  140.5517   78.1762  222.4106 H   0  0  0  0  0  0  0  0  0  0  0  0
  139.8405   78.4551  220.6109 H   0  0  0  0  0  0  0  0  0  0  0  0
  139.7421   77.2911  219.2924 H   0  0  0  0  0  0  0  0  0  0  0  0
  141.6015   77.2096  221.7627 H   0  0  0  0  0  0  0  0  0  0  0  0
  140.3340   76.0110  221.3040 H   0  0  0  0  0  0  0  0  0  0  0  0
  1  2  1  0
  2  3  1  0
  3  4  2  0
  3  5  1  0
  5  6  1  0
  6  7  2  0
  7  8  1  0
  8  9  2  0
  9 10  1  0
 10 11  2  0
  5 12  1  0
 12 13  1  0
 13 14  1  0
 14 15  1  0
 15 16  1  0
 16 17  2  0
 16 18  1  0
 18 19  1  0
 18 20  1  0
 20 21  1  0
 21 22  1  0
 21 23  1  0
 21 24  1  0
 24 25  2  0
 25 26  1  0
 26 27  2  0
 27 28  1  0
 28 29  1  0
 28 30  2  0
 15 31  1  0
 31 32  1  0
 11  6  1  0
 32 12  1  0
 30 24  1  0
  1 33  1  0
  1 34  1  0
  1 35  1  0
  2 36  1  0
  2 37  1  0
  7 38  1  0
  8 39  1  0
  9 40  1  0
 10 41  1  0
 11 42  1  0
 12 43  1  0
 13 44  1  0
 13 45  1  0
 14 46  1  0
 14 47  1  0
 18 48  1  1
 19 49  1  0
 19 50  1  0
 19 51  1  0
 20 52  1  0
 22 53  1  0
 22 54  1  0
 22 55  1  0
 23 56  1  0
 23 57  1  0
 23 58  1  0
 25 59  1  0
 26 60  1  0
 27 61  1  0
 30 62  1  0
 31 63  1  0
 31 64  1  0
 32 65  1  0
 32 66  1  0
M  END
>  <smiles>  (27) 
CCC(=O)N(c1ccccc1)C1CCN(C(=O)[C@H](C)NC(C)(C)c2cccc(Br)c2)CC1

>  <score_type>  (27) 
oracle

>  <origin>  (27) 
autodockgpu

>  <m_score__min__energy>  (27) 
-8.9299999999999997

>  <m_primary>  (27) 
energy

>  <rmsd>  (27) 
3.4226717847359707

>  <m_score__min__rmsd>  (27) 
3.4226717847359707

>  <meeko>  (27) 
{"free_energy": -7.5, "intermolecular_energy": -9.89, "internal_energy": -3.29, "cluster_size": 10, "cluster_id": 9, "rank_in_cluster": 6}

>  <energy>  (27) 
-7.98

>  <cluster_rmsd>  (27) 
0.0

>  <cluster>  (27) 
5

$$$$

     RDKit          3D

 66 68  0  0  0  0  0  0  0  0999 V2000
  142.5550   80.2620  223.0020 C   0  0  0  0  0  0  0  0  0  0  0  0
  142.1270   78.8770  223.4700 C   0  0  0  0  0  0  0  0  0  0  0  0
  140.7380   78.5850  222.9460 C   0  0  0  0  0  0  0  0  0  0  0  0
  139.8260   79.0850  223.6400 O   0  0  0  0  0  0  0  0  0  0  0  0
  140.5520   77.8050  221.7650 N   0  0  0  0  0  0  0  0  0  0  0  0
  141.3180   77.9810  220.5820 C   0  0  0  0  0  0  0  0  0  0  0  0
  142.2050   76.9890  220.1570 C   0  0  0  0  0  0  0  0  0  0  0  0
  142.9600   77.1340  218.9990 C   0  0  0  0  0  0  0  0  0  0  0  0
  142.8720   78.2520  218.2200 C   0  0  0  0  0  0  0  0  0  0  0  0
  142.0070   79.2420  218.6120 C   0  0  0  0  0  0  0  0  0  0  0  0
  141.2490   79.0960  219.7760 C   0  0  0  0  0  0  0  0  0  0  0  0
  139.5070   76.7960  221.8460 C   0  0  0  0  0  0  0  0  0  0  0  0
  138.1100   77.3280  221.6360 C   0  0  0  0  0  0  0  0  0  0  0  0
  137.1840   76.2440  222.2140 C   0  0  0  0  0  0  0  0  0  0  0  0
  137.5630   74.9370  221.7210 N   0  0  0  0  0  0  0  0  0  0  0  0
  137.0090   73.7920  222.3510 C   0  0  0  0  0  0  0  0  0  0  0  0
  136.2400   73.9830  223.3280 O   0  0  0  0  0  0  0  0  0  0  0  0
  137.3360   72.3940  221.8670 C   0  0  2  0  0  0  0  0  0  0  0  0
  136.0160   71.8590  221.3240 C   0  0  0  0  0  0  0  0  0  0  0  0
  137.8250   71.6950  223.0070 N   0  0  0  0  0  0  0  0  0  0  0  0
  139.1450   71.1810  222.9590 C   0  0  0  0  0  0  0  0  0  0  0  0
  140.1900   72.2550  222.7260 C   0  0  0  0  0  0  0  0  0  0  0  0
  139.3050   70.0720  221.9750 C   0  0  0  0  0  0  0  0  0  0  0  0
  139.4550   70.5860  224.3090 C   0  0  0  0  0  0  0  0  0  0  0  0
  139.1820   69.2520  224.5830 C   0  0  0  0  0  0  0  0  0  0  0  0
  139.4570   68.6850  225.8110 C   0  0  0  0  0  0  0  0  0  0  0  0
  140.0250   69.4560  226.8200 C   0  0  0  0  0  0  0  0  0  0  0  0
  140.3000   70.7820  226.5590 C   0  0  0  0  0  0  0  0  0  0  0  0
  141.0660   71.8480  227.9150 Br  0  0  0  0  0  0  0  0  0  0  0  0
  140.0170   71.3250  225.3250 C   0  0  0  0  0  0  0  0  0  0  0  0
  138.5120   74.8730  220.6260 C   0  0  0  0  0  0  0  0  0  0  0  0
  139.8020   75.4970  221.1940 C   0  0  0  0  0  0  0  0  0  0  0  0
  142.7521   80.8998  223.8763 H   0  0  0  0  0  0  0  0  0  0  0  0
  143.4691   80.1780  222.3959 H   0  0  0  0  0  0  0  0  0  0  0  0
  141.7529   80.7083  222.3959 H   0  0  0  0  0  0  0  0  0  0  0  0
  142.8314   78.1244  223.0860 H   0  0  0  0  0  0  0  0  0  0  0  0
  142.1234   78.8419  224.5694 H   0  0  0  0  0  0  0  0  0  0  0  0
  142.3085   76.0705  220.7534 H   0  0  0  0  0  0  0  0  0  0  0  0
  143.6463   76.3271  218.7024 H   0  0  0  0  0  0  0  0  0  0  0  0
  143.4759   78.3556  217.3065 H   0  0  0  0  0  0  0  0  0  0  0  0
  141.9099   80.1553  218.0066 H   0  0  0  0  0  0  0  0  0  0  0  0
  140.5654   79.9088  220.0623 H   0  0  0  0  0  0  0  0  0  0  0  0
  139.5208   76.5112  222.9084 H   0  0  0  0  0  0  0  0  0  0  0  0
  137.9735   78.2794  222.1709 H   0  0  0  0  0  0  0  0  0  0  0  0
  137.8988   77.5315  220.5758 H   0  0  0  0  0  0  0  0  0  0  0  0
  137.2582   76.2523  223.3115 H   0  0  0  0  0  0  0  0  0  0  0  0
  136.1507   76.4558  221.9018 H   0  0  0  0  0  0  0  0  0  0  0  0
  138.0983   72.3106  221.0784 H   0  0  0  0  0  0  0  0  0  0  0  0
  135.3561   71.5915  222.1624 H   0  0  0  0  0  0  0  0  0  0  0  0
  135.5323   72.6321  220.7089 H   0  0  0  0  0  0  0  0  0  0  0  0
  136.2070   70.9673  220.7089 H   0  0  0  0  0  0  0  0  0  0  0  0
  137.6860   72.3190  223.8460 H   0  0  0  0  0  0  0  0  0  0  0  0
  140.5538   72.6289  223.6944 H   0  0  0  0  0  0  0  0  0  0  0  0
  141.0308   71.8312  222.1573 H   0  0  0  0  0  0  0  0  0  0  0  0
  139.7434   73.0839  222.1573 H   0  0  0  0  0  0  0  0  0  0  0  0
  139.4420   69.1220  222.5123 H   0  0  0  0  0  0  0  0  0  0  0  0
  138.4065   70.0097  221.3434 H   0  0  0  0  0  0  0  0  0  0  0  0
  140.1844   70.2662  221.3434 H   0  0  0  0  0  0  0  0  0  0  0  0
  138.7325   68.6278  223.7966 H   0  0  0  0  0  0  0  0  0  0  0  0
  139.2273   67.6245  225.9916 H   0  0  0  0  0  0  0  0  0  0  0  0
  140.2497   69.0180  227.8037 H   0  0  0  0  0  0  0  0  0  0  0  0
  140.2481   72.3854  225.1455 H   0  0  0  0  0  0  0  0  0  0  0  0
  138.6857   73.8300  220.3229 H   0  0  0  0  0  0  0  0  0  0  0  0
  138.1523   75.4005  219.7303 H   0  0  0  0  0  0  0  0  0  0  0  0
  140.2402   74.8116  221.9344 H   0  0  0  0  0  0  0  0  0  0  0  0
  140.5091   75.6657  220.3684 H   0  0  0  0  0  0  0  0  0  0  0  0
  1  2  1  0
  2  3  1  0
  3  4  2  0
  3  5  1  0
  5  6  1  0
  6  7  2  0
  7  8  1  0
  8  9  2  0
  9 10  1  0
 10 11  2  0
  5 12  1  0
 12 13  1  0
 13 14  1  0
 14 15  1  0
 15 16  1  0
 16 17  2  0
 16 18  1  0
 18 19  1  0
 18 20  1  0
 20 21  1  0
 21 22  1  0
 21 23  1  0
 21 24  1  0
 24 25  2  0
 25 26  1  0
 26 27  2  0
 27 28  1  0
 28 29  1  0
 28 30  2  0
 15 31  1  0
 31 32  1  0
 11  6  1  0
 32 12  1  0
 30 24  1  0
  1 33  1  0
  1 34  1  0
  1 35  1  0
  2 36  1  0
  2 37  1  0
  7 38  1  0
  8 39  1  0
  9 40  1  0
 10 41  1  0
 11 42  1  0
 12 43  1  0
 13 44  1  0
 13 45  1  0
 14 46  1  0
 14 47  1  0
 18 48  1  6
 19 49  1  0
 19 50  1  0
 19 51  1  0
 20 52  1  0
 22 53  1  0
 22 54  1  0
 22 55  1  0
 23 56  1  0
 23 57  1  0
 23 58  1  0
 25 59  1  0
 26 60  1  0
 27 61  1  0
 30 62  1  0
 31 63  1  0
 31 64  1  0
 32 65  1  0
 32 66  1  0
M  END
>  <smiles>  (28) 
CCC(=O)N(c1ccccc1)C1CCN(C(=O)[C@H](C)NC(C)(C)c2cccc(Br)c2)CC1

>  <score_type>  (28) 
oracle

>  <origin>  (28) 
autodockgpu

>  <m_score__min__energy>  (28) 
-8.9299999999999997

>  <m_primary>  (28) 
energy

>  <rmsd>  (28) 
8.383141814729457

>  <m_score__min__rmsd>  (28) 
8.383141814729457

>  <meeko>  (28) 
{"free_energy": -8.0, "intermolecular_energy": -10.39, "internal_energy": -2.64, "cluster_size": 16, "cluster_id": 2, "rank_in_cluster": 8}

>  <energy>  (28) 
-7.94

>  <cluster_rmsd>  (28) 
0.25

>  <cluster>  (28) 
5

$$$$

     RDKit          3D

 66 68  0  0  0  0  0  0  0  0999 V2000
  142.5680   78.9080  218.2100 C   0  0  0  0  0  0  0  0  0  0  0  0
  141.7940   77.6320  218.5130 C   0  0  0  0  0  0  0  0  0  0  0  0
  142.1790   77.1350  219.8900 C   0  0  0  0  0  0  0  0  0  0  0  0
  143.2450   76.4810  219.9060 O   0  0  0  0  0  0  0  0  0  0  0  0
  141.3610   77.4200  221.0240 N   0  0  0  0  0  0  0  0  0  0  0  0
  141.6240   78.4780  221.9340 C   0  0  0  0  0  0  0  0  0  0  0  0
  141.9640   79.7490  221.4650 C   0  0  0  0  0  0  0  0  0  0  0  0
  142.2190   80.8030  222.3360 C   0  0  0  0  0  0  0  0  0  0  0  0
  142.1500   80.6460  223.6910 C   0  0  0  0  0  0  0  0  0  0  0  0
  141.8170   79.4090  224.1790 C   0  0  0  0  0  0  0  0  0  0  0  0
  141.5610   78.3510  223.3040 C   0  0  0  0  0  0  0  0  0  0  0  0
  140.2140   76.5410  221.1970 C   0  0  0  0  0  0  0  0  0  0  0  0
  138.8800   77.2010  220.9440 C   0  0  0  0  0  0  0  0  0  0  0  0
  137.8490   76.2810  221.6190 C   0  0  0  0  0  0  0  0  0  0  0  0
  138.0790   74.9010  221.2440 N   0  0  0  0  0  0  0  0  0  0  0  0
  137.4120   73.8850  221.9760 C   0  0  0  0  0  0  0  0  0  0  0  0
  136.6800   74.2440  222.9330 O   0  0  0  0  0  0  0  0  0  0  0  0
  137.5800   72.4210  221.6190 C   0  0  2  0  0  0  0  0  0  0  0  0
  136.2190   72.0030  221.0710 C   0  0  0  0  0  0  0  0  0  0  0  0
  137.9490   71.7680  222.8290 N   0  0  0  0  0  0  0  0  0  0  0  0
  139.2680   71.2590  222.9370 C   0  0  0  0  0  0  0  0  0  0  0  0
  140.3280   72.3380  222.8290 C   0  0  0  0  0  0  0  0  0  0  0  0
  139.5480   70.1530  221.9770 C   0  0  0  0  0  0  0  0  0  0  0  0
  139.4180   70.6640  224.3130 C   0  0  0  0  0  0  0  0  0  0  0  0
  138.9080   69.4070  224.6080 C   0  0  0  0  0  0  0  0  0  0  0  0
  139.0340   68.8400  225.8600 C   0  0  0  0  0  0  0  0  0  0  0  0
  139.6880   69.5340  226.8730 C   0  0  0  0  0  0  0  0  0  0  0  0
  140.1980   70.7840  226.5920 C   0  0  0  0  0  0  0  0  0  0  0  0
  141.0840   71.7460  227.9520 Br  0  0  0  0  0  0  0  0  0  0  0  0
  140.0600   71.3280  225.3330 C   0  0  0  0  0  0  0  0  0  0  0  0
  139.0020   74.6380  220.1570 C   0  0  0  0  0  0  0  0  0  0  0  0
  140.3590   75.1650  220.6640 C   0  0  0  0  0  0  0  0  0  0  0  0
  142.8614   79.3917  219.1534 H   0  0  0  0  0  0  0  0  0  0  0  0
  143.4688   78.6612  217.6289 H   0  0  0  0  0  0  0  0  0  0  0  0
  141.9329   79.5928  217.6289 H   0  0  0  0  0  0  0  0  0  0  0  0
  140.7143   77.8406  218.4851 H   0  0  0  0  0  0  0  0  0  0  0  0
  142.0341   76.8654  217.7615 H   0  0  0  0  0  0  0  0  0  0  0  0
  142.0317   79.9205  220.3806 H   0  0  0  0  0  0  0  0  0  0  0  0
  142.4829   81.7878  221.9231 H   0  0  0  0  0  0  0  0  0  0  0  0
  142.3554   81.4866  224.3701 H   0  0  0  0  0  0  0  0  0  0  0  0
  141.7511   79.2489  225.2653 H   0  0  0  0  0  0  0  0  0  0  0  0
  141.2969   77.3712  223.7285 H   0  0  0  0  0  0  0  0  0  0  0  0
  140.2102   76.3513  222.2805 H   0  0  0  0  0  0  0  0  0  0  0  0
  138.8541   78.2054  221.3917 H   0  0  0  0  0  0  0  0  0  0  0  0
  138.6791   77.3305  219.8703 H   0  0  0  0  0  0  0  0  0  0  0  0
  137.9366   76.3789  222.7111 H   0  0  0  0  0  0  0  0  0  0  0  0
  136.8409   76.5755  221.2918 H   0  0  0  0  0  0  0  0  0  0  0  0
  138.3480   72.1805  220.8691 H   0  0  0  0  0  0  0  0  0  0  0  0
  135.5358   71.7932  221.9072 H   0  0  0  0  0  0  0  0  0  0  0  0
  135.8063   72.8158  220.4554 H   0  0  0  0  0  0  0  0  0  0  0  0
  136.3336   71.0987  220.4554 H   0  0  0  0  0  0  0  0  0  0  0  0
  137.7230   72.4220  223.6240 H   0  0  0  0  0  0  0  0  0  0  0  0
  140.6361   72.6516  223.8373 H   0  0  0  0  0  0  0  0  0  0  0  0
  141.1991   71.9431  222.2857 H   0  0  0  0  0  0  0  0  0  0  0  0
  139.9177   73.2020  222.2857 H   0  0  0  0  0  0  0  0  0  0  0  0
  139.7807   69.2337  222.5345 H   0  0  0  0  0  0  0  0  0  0  0  0
  138.6642   69.9842  221.3442 H   0  0  0  0  0  0  0  0  0  0  0  0
  140.4056   70.4251  221.3442 H   0  0  0  0  0  0  0  0  0  0  0  0
  138.3870   68.8451  223.8189 H   0  0  0  0  0  0  0  0  0  0  0  0
  138.6179   67.8409  226.0566 H   0  0  0  0  0  0  0  0  0  0  0  0
  139.7959   69.0953  227.8759 H   0  0  0  0  0  0  0  0  0  0  0  0
  140.4772   72.3268  225.1370 H   0  0  0  0  0  0  0  0  0  0  0  0
  139.0579   73.5596  219.9472 H   0  0  0  0  0  0  0  0  0  0  0  0
  138.6907   75.1209  219.2190 H   0  0  0  0  0  0  0  0  0  0  0  0
  140.7288   74.5045  221.4621 H   0  0  0  0  0  0  0  0  0  0  0  0
  141.0708   75.1809  219.8255 H   0  0  0  0  0  0  0  0  0  0  0  0
  1  2  1  0
  2  3  1  0
  3  4  2  0
  3  5  1  0
  5  6  1  0
  6  7  2  0
  7  8  1  0
  8  9  2  0
  9 10  1  0
 10 11  2  0
  5 12  1  0
 12 13  1  0
 13 14  1  0
 14 15  1  0
 15 16  1  0
 16 17  2  0
 16 18  1  0
 18 19  1  0
 18 20  1  0
 20 21  1  0
 21 22  1  0
 21 23  1  0
 21 24  1  0
 24 25  2  0
 25 26  1  0
 26 27  2  0
 27 28  1  0
 28 29  1  0
 28 30  2  0
 15 31  1  0
 31 32  1  0
 11  6  1  0
 32 12  1  0
 30 24  1  0
  1 33  1  0
  1 34  1  0
  1 35  1  0
  2 36  1  0
  2 37  1  0
  7 38  1  0
  8 39  1  0
  9 40  1  0
 10 41  1  0
 11 42  1  0
 12 43  1  0
 13 44  1  0
 13 45  1  0
 14 46  1  0
 14 47  1  0
 18 48  1  6
 19 49  1  0
 19 50  1  0
 19 51  1  0
 20 52  1  0
 22 53  1  0
 22 54  1  0
 22 55  1  0
 23 56  1  0
 23 57  1  0
 23 58  1  0
 25 59  1  0
 26 60  1  0
 27 61  1  0
 30 62  1  0
 31 63  1  0
 31 64  1  0
 32 65  1  0
 32 66  1  0
M  END
>  <smiles>  (29) 
CCC(=O)N(c1ccccc1)C1CCN(C(=O)[C@H](C)NC(C)(C)c2cccc(Br)c2)CC1

>  <score_type>  (29) 
oracle

>  <origin>  (29) 
autodockgpu

>  <m_score__min__energy>  (29) 
-8.9299999999999997

>  <m_primary>  (29) 
energy

>  <rmsd>  (29) 
8.197687879793937

>  <m_score__min__rmsd>  (29) 
8.197687879793937

>  <meeko>  (29) 
{"free_energy": -8.12, "intermolecular_energy": -10.5, "internal_energy": -2.79, "cluster_size": 16, "cluster_id": 2, "rank_in_cluster": 5}

>  <energy>  (29) 
-7.17

>  <cluster_rmsd>  (29) 
1.7

>  <cluster>  (29) 
5

$$$$

     RDKit          3D

 66 68  0  0  0  0  0  0  0  0999 V2000
  143.1580   75.2750  220.1360 C   0  0  0  0  0  0  0  0  0  0  0  0
  143.0310   76.7090  219.6400 C   0  0  0  0  0  0  0  0  0  0  0  0
  141.5790   77.1310  219.7130 C   0  0  0  0  0  0  0  0  0  0  0  0
  141.0380   77.2590  218.5940 O   0  0  0  0  0  0  0  0  0  0  0  0
  140.9440   77.3480  220.9730 N   0  0  0  0  0  0  0  0  0  0  0  0
  141.3630   78.3390  221.9010 C   0  0  0  0  0  0  0  0  0  0  0  0
  141.4270   78.0510  223.2660 C   0  0  0  0  0  0  0  0  0  0  0  0
  141.8410   79.0010  224.1930 C   0  0  0  0  0  0  0  0  0  0  0  0
  142.2040   80.2620  223.8140 C   0  0  0  0  0  0  0  0  0  0  0  0
  142.1530   80.5720  222.4790 C   0  0  0  0  0  0  0  0  0  0  0  0
  141.7370   79.6170  221.5490 C   0  0  0  0  0  0  0  0  0  0  0  0
  139.8160   76.4740  221.2590 C   0  0  0  0  0  0  0  0  0  0  0  0
  138.4680   77.1430  221.1510 C   0  0  0  0  0  0  0  0  0  0  0  0
  137.5070   76.2230  221.9230 C   0  0  0  0  0  0  0  0  0  0  0  0
  137.6880   74.8450  221.5160 N   0  0  0  0  0  0  0  0  0  0  0  0
  137.0950   73.8260  222.3050 C   0  0  0  0  0  0  0  0  0  0  0  0
  136.4690   74.1810  223.3360 O   0  0  0  0  0  0  0  0  0  0  0  0
  137.2160   72.3650  221.9200 C   0  0  2  0  0  0  0  0  0  0  0  0
  135.7960   71.9480  221.5500 C   0  0  0  0  0  0  0  0  0  0  0  0
  137.7370   71.7050  223.0690 N   0  0  0  0  0  0  0  0  0  0  0  0
  139.0600   71.1980  223.0050 C   0  0  0  0  0  0  0  0  0  0  0  0
  140.0960   72.2800  222.7690 C   0  0  0  0  0  0  0  0  0  0  0  0
  139.2160   70.0980  222.0110 C   0  0  0  0  0  0  0  0  0  0  0  0
  139.3860   70.5960  224.3470 C   0  0  0  0  0  0  0  0  0  0  0  0
  139.1000   69.2650  224.6230 C   0  0  0  0  0  0  0  0  0  0  0  0
  139.3900   68.6910  225.8440 C   0  0  0  0  0  0  0  0  0  0  0  0
  139.9860   69.4520  226.8440 C   0  0  0  0  0  0  0  0  0  0  0  0
  140.2740   70.7750  226.5820 C   0  0  0  0  0  0  0  0  0  0  0  0
  141.0800   71.8270  227.9260 Br  0  0  0  0  0  0  0  0  0  0  0  0
  139.9770   71.3250  225.3550 C   0  0  0  0  0  0  0  0  0  0  0  0
  138.4910   74.5860  220.3350 C   0  0  0  0  0  0  0  0  0  0  0  0
  139.8970   75.1020  220.7020 C   0  0  0  0  0  0  0  0  0  0  0  0
  143.1588   75.2662  221.2360 H   0  0  0  0  0  0  0  0  0  0  0  0
  142.3088   74.6822  219.7652 H   0  0  0  0  0  0  0  0  0  0  0  0
  144.0981   74.8407  219.7652 H   0  0  0  0  0  0  0  0  0  0  0  0
  143.6398   77.3726  220.2717 H   0  0  0  0  0  0  0  0  0  0  0  0
  143.3844   76.7745  218.6004 H   0  0  0  0  0  0  0  0  0  0  0  0
  141.1429   77.0478  223.6165 H   0  0  0  0  0  0  0  0  0  0  0  0
  141.8771   78.7302  225.2585 H   0  0  0  0  0  0  0  0  0  0  0  0
  142.5273   81.0061  224.5568 H   0  0  0  0  0  0  0  0  0  0  0  0
  142.4412   81.5777  222.1392 H   0  0  0  0  0  0  0  0  0  0  0  0
  141.7066   79.8984  220.4860 H   0  0  0  0  0  0  0  0  0  0  0  0
  139.9226   76.2753  222.3356 H   0  0  0  0  0  0  0  0  0  0  0  0
  138.4951   78.1440  221.6063 H   0  0  0  0  0  0  0  0  0  0  0  0
  138.1573   77.2824  220.1050 H   0  0  0  0  0  0  0  0  0  0  0  0
  137.7084   76.3116  223.0008 H   0  0  0  0  0  0  0  0  0  0  0  0
  136.4722   76.5256  221.7047 H   0  0  0  0  0  0  0  0  0  0  0  0
  137.8811   72.1308  221.0757 H   0  0  0  0  0  0  0  0  0  0  0  0
  135.2134   71.7769  222.4672 H   0  0  0  0  0  0  0  0  0  0  0  0
  135.3223   72.7450  220.9580 H   0  0  0  0  0  0  0  0  0  0  0  0
  135.8284   71.0214  220.9580 H   0  0  0  0  0  0  0  0  0  0  0  0
  137.6140   72.3540  223.8910 H   0  0  0  0  0  0  0  0  0  0  0  0
  140.4581   72.6582  223.7364 H   0  0  0  0  0  0  0  0  0  0  0  0
  140.9394   71.8622  222.1997 H   0  0  0  0  0  0  0  0  0  0  0  0
  139.6419   73.1045  222.1997 H   0  0  0  0  0  0  0  0  0  0  0  0
  139.3515   69.1428  222.5394 H   0  0  0  0  0  0  0  0  0  0  0  0
  138.3166   70.0437  221.3801 H   0  0  0  0  0  0  0  0  0  0  0  0
  140.0951   70.2959  221.3801 H   0  0  0  0  0  0  0  0  0  0  0  0
  138.6274   68.6491  223.8437 H   0  0  0  0  0  0  0  0  0  0  0  0
  139.1501   67.6330  226.0261 H   0  0  0  0  0  0  0  0  0  0  0  0
  140.2225   69.0084  227.8224 H   0  0  0  0  0  0  0  0  0  0  0  0
  140.2200   72.3824  225.1738 H   0  0  0  0  0  0  0  0  0  0  0  0
  138.5182   73.5092  220.1120 H   0  0  0  0  0  0  0  0  0  0  0  0
  138.0862   75.0780  219.4383 H   0  0  0  0  0  0  0  0  0  0  0  0
  140.3444   74.4326  221.4515 H   0  0  0  0  0  0  0  0  0  0  0  0
  140.5176   75.1220  219.7940 H   0  0  0  0  0  0  0  0  0  0  0  0
  1  2  1  0
  2  3  1  0
  3  4  2  0
  3  5  1  0
  5  6  1  0
  6  7  2  0
  7  8  1  0
  8  9  2  0
  9 10  1  0
 10 11  2  0
  5 12  1  0
 12 13  1  0
 13 14  1  0
 14 15  1  0
 15 16  1  0
 16 17  2  0
 16 18  1  0
 18 19  1  0
 18 20  1  0
 20 21  1  0
 21 22  1  0
 21 23  1  0
 21 24  1  0
 24 25  2  0
 25 26  1  0
 26 27  2  0
 27 28  1  0
 28 29  1  0
 28 30  2  0
 15 31  1  0
 31 32  1  0
 11  6  1  0
 32 12  1  0
 30 24  1  0
  1 33  1  0
  1 34  1  0
  1 35  1  0
  2 36  1  0
  2 37  1  0
  7 38  1  0
  8 39  1  0
  9 40  1  0
 10 41  1  0
 11 42  1  0
 12 43  1  0
 13 44  1  0
 13 45  1  0
 14 46  1  0
 14 47  1  0
 18 48  1  6
 19 49  1  0
 19 50  1  0
 19 51  1  0
 20 52  1  0
 22 53  1  0
 22 54  1  0
 22 55  1  0
 23 56  1  0
 23 57  1  0
 23 58  1  0
 25 59  1  0
 26 60  1  0
 27 61  1  0
 30 62  1  0
 31 63  1  0
 31 64  1  0
 32 65  1  0
 32 66  1  0
M  END
>  <smiles>  (30) 
CCC(=O)N(c1ccccc1)C1CCN(C(=O)[C@H](C)NC(C)(C)c2cccc(Br)c2)CC1

>  <score_type>  (30) 
oracle

>  <origin>  (30) 
autodockgpu

>  <m_score__min__energy>  (30) 
-8.9299999999999997

>  <m_primary>  (30) 
energy

>  <rmsd>  (30) 
8.31361023055849

>  <m_score__min__rmsd>  (30) 
8.31361023055849

>  <meeko>  (30) 
{"free_energy": -7.97, "intermolecular_energy": -10.36, "internal_energy": -2.85, "cluster_size": 16, "cluster_id": 2, "rank_in_cluster": 10}

>  <energy>  (30) 
-7.15

>  <cluster_rmsd>  (30) 
1.65

>  <cluster>  (30) 
5

$$$$

     RDKit          3D

 66 68  0  0  0  0  0  0  0  0999 V2000
  142.5270   78.7250  218.2730 C   0  0  0  0  0  0  0  0  0  0  0  0
  141.7430   77.4640  218.6100 C   0  0  0  0  0  0  0  0  0  0  0  0
  142.1130   77.0100  220.0060 C   0  0  0  0  0  0  0  0  0  0  0  0
  143.1740   76.3500  220.0530 O   0  0  0  0  0  0  0  0  0  0  0  0
  141.2860   77.3350  221.1230 N   0  0  0  0  0  0  0  0  0  0  0  0
  141.5510   78.4170  222.0040 C   0  0  0  0  0  0  0  0  0  0  0  0
  141.8630   79.6820  221.5010 C   0  0  0  0  0  0  0  0  0  0  0  0
  142.1190   80.7590  222.3430 C   0  0  0  0  0  0  0  0  0  0  0  0
  142.0770   80.6320  223.7020 C   0  0  0  0  0  0  0  0  0  0  0  0
  141.7710   79.4010  224.2230 C   0  0  0  0  0  0  0  0  0  0  0  0
  141.5150   78.3210  223.3780 C   0  0  0  0  0  0  0  0  0  0  0  0
  140.1290   76.4730  221.3110 C   0  0  0  0  0  0  0  0  0  0  0  0
  138.8020   77.1540  221.0790 C   0  0  0  0  0  0  0  0  0  0  0  0
  137.7670   76.2460  221.7670 C   0  0  0  0  0  0  0  0  0  0  0  0
  137.9710   74.8640  221.3840 N   0  0  0  0  0  0  0  0  0  0  0  0
  137.3000   73.8550  222.1230 C   0  0  0  0  0  0  0  0  0  0  0  0
  136.5870   74.2220  223.0920 O   0  0  0  0  0  0  0  0  0  0  0  0
  137.4410   72.3910  221.7580 C   0  0  2  0  0  0  0  0  0  0  0  0
  136.0520   71.9800  221.2820 C   0  0  0  0  0  0  0  0  0  0  0  0
  137.8680   71.7360  222.9490 N   0  0  0  0  0  0  0  0  0  0  0  0
  139.1820   71.2060  222.9840 C   0  0  0  0  0  0  0  0  0  0  0  0
  140.2530   72.2730  222.8630 C   0  0  0  0  0  0  0  0  0  0  0  0
  139.4040   70.1260  221.9810 C   0  0  0  0  0  0  0  0  0  0  0  0
  139.3830   70.5670  224.3340 C   0  0  0  0  0  0  0  0  0  0  0  0
  138.9410   69.2750  224.5870 C   0  0  0  0  0  0  0  0  0  0  0  0
  139.1140   68.6680  225.8140 C   0  0  0  0  0  0  0  0  0  0  0  0
  139.7460   69.3550  226.8450 C   0  0  0  0  0  0  0  0  0  0  0  0
  140.1890   70.6400  226.6060 C   0  0  0  0  0  0  0  0  0  0  0  0
  141.0460   71.5930  227.9910 Br  0  0  0  0  0  0  0  0  0  0  0  0
  140.0060   71.2230  225.3710 C   0  0  0  0  0  0  0  0  0  0  0  0
  138.8740   74.5910  220.2820 C   0  0  0  0  0  0  0  0  0  0  0  0
  140.2460   75.0970  220.7710 C   0  0  0  0  0  0  0  0  0  0  0  0
  142.8370   79.2236  219.2032 H   0  0  0  0  0  0  0  0  0  0  0  0
  143.4179   78.4570  217.6862 H   0  0  0  0  0  0  0  0  0  0  0  0
  141.8924   79.4054  217.6862 H   0  0  0  0  0  0  0  0  0  0  0  0
  140.6648   77.6775  218.5656 H   0  0  0  0  0  0  0  0  0  0  0  0
  141.9851   76.6720  217.8860 H   0  0  0  0  0  0  0  0  0  0  0  0
  141.9074   79.8302  220.4119 H   0  0  0  0  0  0  0  0  0  0  0  0
  142.3614   81.7377  221.9032 H   0  0  0  0  0  0  0  0  0  0  0  0
  142.2822   81.4905  224.3584 H   0  0  0  0  0  0  0  0  0  0  0  0
  141.7271   79.2644  225.3136 H   0  0  0  0  0  0  0  0  0  0  0  0
  141.2732   77.3476  223.8296 H   0  0  0  0  0  0  0  0  0  0  0  0
  140.1374   76.2795  222.3938 H   0  0  0  0  0  0  0  0  0  0  0  0
  138.7975   78.1573  221.5300 H   0  0  0  0  0  0  0  0  0  0  0  0
  138.5875   77.2906  220.0088 H   0  0  0  0  0  0  0  0  0  0  0  0
  137.8724   76.3387  222.8580 H   0  0  0  0  0  0  0  0  0  0  0  0
  136.7586   76.5564  221.4560 H   0  0  0  0  0  0  0  0  0  0  0  0
  138.1676   72.1467  220.9691 H   0  0  0  0  0  0  0  0  0  0  0  0
  135.4075   71.7893  222.1528 H   0  0  0  0  0  0  0  0  0  0  0  0
  135.6184   72.7883  220.6749 H   0  0  0  0  0  0  0  0  0  0  0  0
  136.1280   71.0659  220.6749 H   0  0  0  0  0  0  0  0  0  0  0  0
  137.6980   72.3970  223.7530 H   0  0  0  0  0  0  0  0  0  0  0  0
  140.5705   72.5894  223.8675 H   0  0  0  0  0  0  0  0  0  0  0  0
  141.1165   71.8655  222.3169 H   0  0  0  0  0  0  0  0  0  0  0  0
  139.8487   73.1380  222.3169 H   0  0  0  0  0  0  0  0  0  0  0  0
  139.5991   69.1767  222.5014 H   0  0  0  0  0  0  0  0  0  0  0  0
  138.5086   70.0213  221.3507 H   0  0  0  0  0  0  0  0  0  0  0  0
  140.2681   70.3829  221.3507 H   0  0  0  0  0  0  0  0  0  0  0  0
  138.4369   68.7178  223.7836 H   0  0  0  0  0  0  0  0  0  0  0  0
  138.7525   67.6419  225.9766 H   0  0  0  0  0  0  0  0  0  0  0  0
  139.8896   68.8846  227.8289 H   0  0  0  0  0  0  0  0  0  0  0  0
  140.3704   72.2481  225.2084 H   0  0  0  0  0  0  0  0  0  0  0  0
  138.9112   73.5126  220.0681 H   0  0  0  0  0  0  0  0  0  0  0  0
  138.5559   75.0811  219.3500 H   0  0  0  0  0  0  0  0  0  0  0  0
  140.6179   74.4283  221.5612 H   0  0  0  0  0  0  0  0  0  0  0  0
  140.9454   75.1060  219.9220 H   0  0  0  0  0  0  0  0  0  0  0  0
  1  2  1  0
  2  3  1  0
  3  4  2  0
  3  5  1  0
  5  6  1  0
  6  7  2  0
  7  8  1  0
  8  9  2  0
  9 10  1  0
 10 11  2  0
  5 12  1  0
 12 13  1  0
 13 14  1  0
 14 15  1  0
 15 16  1  0
 16 17  2  0
 16 18  1  0
 18 19  1  0
 18 20  1  0
 20 21  1  0
 21 22  1  0
 21 23  1  0
 21 24  1  0
 24 25  2  0
 25 26  1  0
 26 27  2  0
 27 28  1  0
 28 29  1  0
 28 30  2  0
 15 31  1  0
 31 32  1  0
 11  6  1  0
 32 12  1  0
 30 24  1  0
  1 33  1  0
  1 34  1  0
  1 35  1  0
  2 36  1  0
  2 37  1  0
  7 38  1  0
  8 39  1  0
  9 40  1  0
 10 41  1  0
 11 42  1  0
 12 43  1  0
 13 44  1  0
 13 45  1  0
 14 46  1  0
 14 47  1  0
 18 48  1  6
 19 49  1  0
 19 50  1  0
 19 51  1  0
 20 52  1  0
 22 53  1  0
 22 54  1  0
 22 55  1  0
 23 56  1  0
 23 57  1  0
 23 58  1  0
 25 59  1  0
 26 60  1  0
 27 61  1  0
 30 62  1  0
 31 63  1  0
 31 64  1  0
 32 65  1  0
 32 66  1  0
M  END
>  <smiles>  (31) 
CCC(=O)N(c1ccccc1)C1CCN(C(=O)[C@H](C)NC(C)(C)c2cccc(Br)c2)CC1

>  <score_type>  (31) 
oracle

>  <origin>  (31) 
autodockgpu

>  <m_score__min__energy>  (31) 
-8.9299999999999997

>  <m_primary>  (31) 
energy

>  <rmsd>  (31) 
8.294236637059997

>  <m_score__min__rmsd>  (31) 
8.294236637059997

>  <meeko>  (31) 
{"free_energy": -8.18, "intermolecular_energy": -10.56, "internal_energy": -2.77, "cluster_size": 16, "cluster_id": 2, "rank_in_cluster": 2}

>  <energy>  (31) 
-7.06

>  <cluster_rmsd>  (31) 
1.77

>  <cluster>  (31) 
5

$$$$

     RDKit          3D

 66 68  0  0  0  0  0  0  0  0999 V2000
  140.1920   71.6040  221.1140 C   0  0  0  0  0  0  0  0  0  0  0  0
  140.3560   72.8760  220.2920 C   0  0  0  0  0  0  0  0  0  0  0  0
  141.1380   73.8890  221.1000 C   0  0  0  0  0  0  0  0  0  0  0  0
  140.6620   74.0990  222.2360 O   0  0  0  0  0  0  0  0  0  0  0  0
  142.3020   74.5130  220.5580 N   0  0  0  0  0  0  0  0  0  0  0  0
  143.5480   73.8480  220.4050 C   0  0  0  0  0  0  0  0  0  0  0  0
  143.5920   72.4870  220.0950 C   0  0  0  0  0  0  0  0  0  0  0  0
  144.7990   71.8160  219.9340 C   0  0  0  0  0  0  0  0  0  0  0  0
  145.9990   72.4540  220.0700 C   0  0  0  0  0  0  0  0  0  0  0  0
  145.9840   73.7910  220.3730 C   0  0  0  0  0  0  0  0  0  0  0  0
  144.7730   74.4650  220.5360 C   0  0  0  0  0  0  0  0  0  0  0  0
  142.1340   75.9030  220.1620 C   0  0  0  0  0  0  0  0  0  0  0  0
  142.1250   76.1280  218.6690 C   0  0  0  0  0  0  0  0  0  0  0  0
  142.4100   77.6300  218.4950 C   0  0  0  0  0  0  0  0  0  0  0  0
  141.5620   78.4120  219.3690 N   0  0  0  0  0  0  0  0  0  0  0  0
  141.8670   79.7860  219.5530 C   0  0  0  0  0  0  0  0  0  0  0  0
  142.8830   80.2370  218.9650 O   0  0  0  0  0  0  0  0  0  0  0  0
  141.0040   80.6720  220.4280 C   0  0  2  0  0  0  0  0  0  0  0  0
  140.4680   81.7390  219.4810 C   0  0  0  0  0  0  0  0  0  0  0  0
  141.8680   81.1730  221.4430 N   0  0  0  0  0  0  0  0  0  0  0  0
  141.7920   80.5890  222.7330 C   0  0  0  0  0  0  0  0  0  0  0  0
  142.1700   81.5530  223.8410 C   0  0  0  0  0  0  0  0  0  0  0  0
  142.5730   79.3250  222.8490 C   0  0  0  0  0  0  0  0  0  0  0  0
  140.3540   80.2140  222.9810 C   0  0  0  0  0  0  0  0  0  0  0  0
  139.4360   81.1540  223.4300 C   0  0  0  0  0  0  0  0  0  0  0  0
  138.1140   80.8350  223.6650 C   0  0  0  0  0  0  0  0  0  0  0  0
  137.6660   79.5360  223.4530 C   0  0  0  0  0  0  0  0  0  0  0  0
  138.5690   78.5920  223.0080 C   0  0  0  0  0  0  0  0  0  0  0  0
  137.9840   76.8210  222.7180 Br  0  0  0  0  0  0  0  0  0  0  0  0
  139.8830   78.9360  222.7800 C   0  0  0  0  0  0  0  0  0  0  0  0
  140.4610   77.7360  220.0300 C   0  0  0  0  0  0  0  0  0  0  0  0
  141.1380   76.6860  220.9330 C   0  0  0  0  0  0  0  0  0  0  0  0
  140.2241   71.8528  222.1850 H   0  0  0  0  0  0  0  0  0  0  0  0
  139.2260   71.1352  220.8753 H   0  0  0  0  0  0  0  0  0  0  0  0
  141.0075   70.9055  220.8753 H   0  0  0  0  0  0  0  0  0  0  0  0
  140.8990   72.6471  219.3631 H   0  0  0  0  0  0  0  0  0  0  0  0
  139.3665   73.2857  220.0409 H   0  0  0  0  0  0  0  0  0  0  0  0
  142.6494   71.9328  219.9754 H   0  0  0  0  0  0  0  0  0  0  0  0
  144.7872   70.7433  219.6907 H   0  0  0  0  0  0  0  0  0  0  0  0
  146.9475   71.9122  219.9405 H   0  0  0  0  0  0  0  0  0  0  0  0
  146.9326   74.3359  220.4884 H   0  0  0  0  0  0  0  0  0  0  0  0
  144.7975   75.5373  220.7801 H   0  0  0  0  0  0  0  0  0  0  0  0
  143.0746   76.3687  220.4913 H   0  0  0  0  0  0  0  0  0  0  0  0
  142.9067   75.5265  218.1820 H   0  0  0  0  0  0  0  0  0  0  0  0
  141.1702   75.8312  218.2106 H   0  0  0  0  0  0  0  0  0  0  0  0
  143.4637   77.8291  218.7400 H   0  0  0  0  0  0  0  0  0  0  0  0
  142.2028   77.9127  217.4523 H   0  0  0  0  0  0  0  0  0  0  0  0
  140.1524   80.1896  220.9300 H   0  0  0  0  0  0  0  0  0  0  0  0
  140.0498   82.5716  220.0657 H   0  0  0  0  0  0  0  0  0  0  0  0
  141.2863   82.1109  218.8469 H   0  0  0  0  0  0  0  0  0  0  0  0
  139.6811   81.3046  218.8469 H   0  0  0  0  0  0  0  0  0  0  0  0
  142.8530   81.1420  221.0650 H   0  0  0  0  0  0  0  0  0  0  0  0
  141.9848   81.0806  224.8170 H   0  0  0  0  0  0  0  0  0  0  0  0
  143.2359   81.8109  223.7548 H   0  0  0  0  0  0  0  0  0  0  0  0
  141.5635   82.4667  223.7548 H   0  0  0  0  0  0  0  0  0  0  0  0
  142.7227   79.0827  223.9115 H   0  0  0  0  0  0  0  0  0  0  0  0
  142.0223   78.5076  222.3606 H   0  0  0  0  0  0  0  0  0  0  0  0
  143.5504   79.4518  222.3606 H   0  0  0  0  0  0  0  0  0  0  0  0
  139.7734   82.1864  223.6040 H   0  0  0  0  0  0  0  0  0  0  0  0
  137.4157   81.6074  224.0195 H   0  0  0  0  0  0  0  0  0  0  0  0
  136.6153   79.2667  223.6359 H   0  0  0  0  0  0  0  0  0  0  0  0
  140.5803   78.1629  222.4250 H   0  0  0  0  0  0  0  0  0  0  0  0
  139.8742   78.4457  220.6317 H   0  0  0  0  0  0  0  0  0  0  0  0
  139.7594   77.2821  219.3147 H   0  0  0  0  0  0  0  0  0  0  0  0
  141.6446   77.1968  221.7652 H   0  0  0  0  0  0  0  0  0  0  0  0
  140.3694   76.0010  221.3203 H   0  0  0  0  0  0  0  0  0  0  0  0
  1  2  1  0
  2  3  1  0
  3  4  2  0
  3  5  1  0
  5  6  1  0
  6  7  2  0
  7  8  1  0
  8  9  2  0
  9 10  1  0
 10 11  2  0
  5 12  1  0
 12 13  1  0
 13 14  1  0
 14 15  1  0
 15 16  1  0
 16 17  2  0
 16 18  1  0
 18 19  1  0
 18 20  1  0
 20 21  1  0
 21 22  1  0
 21 23  1  0
 21 24  1  0
 24 25  2  0
 25 26  1  0
 26 27  2  0
 27 28  1  0
 28 29  1  0
 28 30  2  0
 15 31  1  0
 31 32  1  0
 11  6  1  0
 32 12  1  0
 30 24  1  0
  1 33  1  0
  1 34  1  0
  1 35  1  0
  2 36  1  0
  2 37  1  0
  7 38  1  0
  8 39  1  0
  9 40  1  0
 10 41  1  0
 11 42  1  0
 12 43  1  0
 13 44  1  0
 13 45  1  0
 14 46  1  0
 14 47  1  0
 18 48  1  1
 19 49  1  0
 19 50  1  0
 19 51  1  0
 20 52  1  0
 22 53  1  0
 22 54  1  0
 22 55  1  0
 23 56  1  0
 23 57  1  0
 23 58  1  0
 25 59  1  0
 26 60  1  0
 27 61  1  0
 30 62  1  0
 31 63  1  0
 31 64  1  0
 32 65  1  0
 32 66  1  0
M  END
>  <smiles>  (32) 
CCC(=O)N(c1ccccc1)C1CCN(C(=O)[C@H](C)NC(C)(C)c2cccc(Br)c2)CC1

>  <score_type>  (32) 
oracle

>  <origin>  (32) 
autodockgpu

>  <m_score__min__energy>  (32) 
-8.9299999999999997

>  <m_primary>  (32) 
energy

>  <rmsd>  (32) 
3.420333546376431

>  <m_score__min__rmsd>  (32) 
3.420333546376431

>  <meeko>  (32) 
{"free_energy": -7.51, "intermolecular_energy": -9.9, "internal_energy": -3.29, "cluster_size": 10, "cluster_id": 9, "rank_in_cluster": 5}

>  <energy>  (32) 
-6.99

>  <cluster_rmsd>  (32) 
1.75

>  <cluster>  (32) 
5

$$$$

     RDKit          3D

 66 68  0  0  0  0  0  0  0  0999 V2000
  139.9710   73.4960  218.9750 C   0  0  0  0  0  0  0  0  0  0  0  0
  140.2860   72.8970  220.3390 C   0  0  0  0  0  0  0  0  0  0  0  0
  141.1150   73.8850  221.1320 C   0  0  0  0  0  0  0  0  0  0  0  0
  140.6730   74.1000  222.2820 O   0  0  0  0  0  0  0  0  0  0  0  0
  142.2810   74.4810  220.5650 N   0  0  0  0  0  0  0  0  0  0  0  0
  143.5120   73.7910  220.4000 C   0  0  0  0  0  0  0  0  0  0  0  0
  144.7270   74.4450  220.6190 C   0  0  0  0  0  0  0  0  0  0  0  0
  145.9440   73.7900  220.4710 C   0  0  0  0  0  0  0  0  0  0  0  0
  146.0120   72.4760  220.1050 C   0  0  0  0  0  0  0  0  0  0  0  0
  144.8340   71.8090  219.8860 C   0  0  0  0  0  0  0  0  0  0  0  0
  143.6120   72.4670  220.0340 C   0  0  0  0  0  0  0  0  0  0  0  0
  142.1320   75.8690  220.1560 C   0  0  0  0  0  0  0  0  0  0  0  0
  142.2540   76.0960  218.6690 C   0  0  0  0  0  0  0  0  0  0  0  0
  142.5350   77.6010  218.5210 C   0  0  0  0  0  0  0  0  0  0  0  0
  141.6030   78.3720  219.3160 N   0  0  0  0  0  0  0  0  0  0  0  0
  141.8750   79.7490  219.5260 C   0  0  0  0  0  0  0  0  0  0  0  0
  142.9330   80.2130  219.0310 O   0  0  0  0  0  0  0  0  0  0  0  0
  140.9260   80.6240  220.3220 C   0  0  2  0  0  0  0  0  0  0  0  0
  140.3850   81.6230  219.3050 C   0  0  0  0  0  0  0  0  0  0  0  0
  141.7140   81.2090  221.3530 N   0  0  0  0  0  0  0  0  0  0  0  0
  141.6980   80.5970  222.6330 C   0  0  0  0  0  0  0  0  0  0  0  0
  142.0890   81.5490  223.7470 C   0  0  0  0  0  0  0  0  0  0  0  0
  142.5170   79.3530  222.6960 C   0  0  0  0  0  0  0  0  0  0  0  0
  140.2810   80.1770  222.9230 C   0  0  0  0  0  0  0  0  0  0  0  0
  139.3530   81.0830  223.4200 C   0  0  0  0  0  0  0  0  0  0  0  0
  138.0490   80.7220  223.6920 C   0  0  0  0  0  0  0  0  0  0  0  0
  137.6310   79.4140  223.4720 C   0  0  0  0  0  0  0  0  0  0  0  0
  138.5440   78.5050  222.9790 C   0  0  0  0  0  0  0  0  0  0  0  0
  137.9990   76.7230  222.6760 Br  0  0  0  0  0  0  0  0  0  0  0  0
  139.8390   78.8900  222.7130 C   0  0  0  0  0  0  0  0  0  0  0  0
  140.4560   77.6820  219.8760 C   0  0  0  0  0  0  0  0  0  0  0  0
  141.0620   76.6390  220.8360 C   0  0  0  0  0  0  0  0  0  0  0  0
  139.4627   74.4625  219.1075 H   0  0  0  0  0  0  0  0  0  0  0  0
  140.9063   73.6472  218.4161 H   0  0  0  0  0  0  0  0  0  0  0  0
  139.3164   72.8111  218.4161 H   0  0  0  0  0  0  0  0  0  0  0  0
  139.3486   72.6880  220.8753 H   0  0  0  0  0  0  0  0  0  0  0  0
  140.8465   71.9590  220.2124 H   0  0  0  0  0  0  0  0  0  0  0  0
  144.7204   75.5042  220.9158 H   0  0  0  0  0  0  0  0  0  0  0  0
  146.8765   74.3443  220.6534 H   0  0  0  0  0  0  0  0  0  0  0  0
  146.9812   71.9687  219.9895 H   0  0  0  0  0  0  0  0  0  0  0  0
  144.8522   70.7492  219.5920 H   0  0  0  0  0  0  0  0  0  0  0  0
  142.6862   71.9022  219.8499 H   0  0  0  0  0  0  0  0  0  0  0  0
  143.0337   76.3460  220.5677 H   0  0  0  0  0  0  0  0  0  0  0  0
  143.0834   75.5046  218.2538 H   0  0  0  0  0  0  0  0  0  0  0  0
  141.3475   75.7884  218.1271 H   0  0  0  0  0  0  0  0  0  0  0  0
  143.5602   77.8126  218.8588 H   0  0  0  0  0  0  0  0  0  0  0  0
  142.4180   77.8822  217.4640 H   0  0  0  0  0  0  0  0  0  0  0  0
  140.0757   80.1196  220.8042 H   0  0  0  0  0  0  0  0  0  0  0  0
  139.9255   82.4715  219.8331 H   0  0  0  0  0  0  0  0  0  0  0  0
  141.2094   81.9868  218.6741 H   0  0  0  0  0  0  0  0  0  0  0  0
  139.6298   81.1314  218.6741 H   0  0  0  0  0  0  0  0  0  0  0  0
  142.6980   81.3060  220.9860 H   0  0  0  0  0  0  0  0  0  0  0  0
  141.8941   81.0745  224.7201 H   0  0  0  0  0  0  0  0  0  0  0  0
  143.1590   81.7903  223.6644 H   0  0  0  0  0  0  0  0  0  0  0  0
  141.4974   82.4727  223.6644 H   0  0  0  0  0  0  0  0  0  0  0  0
  142.6943   79.0836  223.7477 H   0  0  0  0  0  0  0  0  0  0  0  0
  141.9803   78.5348  222.1934 H   0  0  0  0  0  0  0  0  0  0  0  0
  143.4807   79.5226  222.1934 H   0  0  0  0  0  0  0  0  0  0  0  0
  139.6673   82.1212  223.6026 H   0  0  0  0  0  0  0  0  0  0  0  0
  137.3411   81.4680  224.0824 H   0  0  0  0  0  0  0  0  0  0  0  0
  136.5955   79.1110  223.6863 H   0  0  0  0  0  0  0  0  0  0  0  0
  140.5447   78.1437  222.3192 H   0  0  0  0  0  0  0  0  0  0  0  0
  139.8092   78.3839  220.4229 H   0  0  0  0  0  0  0  0  0  0  0  0
  139.8268   77.2203  219.1008 H   0  0  0  0  0  0  0  0  0  0  0  0
  141.4864   77.1546  221.7101 H   0  0  0  0  0  0  0  0  0  0  0  0
  140.2702   75.9446  221.1537 H   0  0  0  0  0  0  0  0  0  0  0  0
  1  2  1  0
  2  3  1  0
  3  4  2  0
  3  5  1  0
  5  6  1  0
  6  7  2  0
  7  8  1  0
  8  9  2  0
  9 10  1  0
 10 11  2  0
  5 12  1  0
 12 13  1  0
 13 14  1  0
 14 15  1  0
 15 16  1  0
 16 17  2  0
 16 18  1  0
 18 19  1  0
 18 20  1  0
 20 21  1  0
 21 22  1  0
 21 23  1  0
 21 24  1  0
 24 25  2  0
 25 26  1  0
 26 27  2  0
 27 28  1  0
 28 29  1  0
 28 30  2  0
 15 31  1  0
 31 32  1  0
 11  6  1  0
 32 12  1  0
 30 24  1  0
  1 33  1  0
  1 34  1  0
  1 35  1  0
  2 36  1  0
  2 37  1  0
  7 38  1  0
  8 39  1  0
  9 40  1  0
 10 41  1  0
 11 42  1  0
 12 43  1  0
 13 44  1  0
 13 45  1  0
 14 46  1  0
 14 47  1  0
 18 48  1  1
 19 49  1  0
 19 50  1  0
 19 51  1  0
 20 52  1  0
 22 53  1  0
 22 54  1  0
 22 55  1  0
 23 56  1  0
 23 57  1  0
 23 58  1  0
 25 59  1  0
 26 60  1  0
 27 61  1  0
 30 62  1  0
 31 63  1  0
 31 64  1  0
 32 65  1  0
 32 66  1  0
M  END
>  <smiles>  (33) 
CCC(=O)N(c1ccccc1)C1CCN(C(=O)[C@H](C)NC(C)(C)c2cccc(Br)c2)CC1

>  <score_type>  (33) 
oracle

>  <origin>  (33) 
autodockgpu

>  <m_score__min__energy>  (33) 
-8.9299999999999997

>  <m_primary>  (33) 
energy

>  <rmsd>  (33) 
3.4400381980450265

>  <m_score__min__rmsd>  (33) 
3.4400381980450265

>  <meeko>  (33) 
{"free_energy": -7.2, "intermolecular_energy": -9.58, "internal_energy": -3.47, "cluster_size": 10, "cluster_id": 9, "rank_in_cluster": 9}

>  <energy>  (33) 
-6.99

>  <cluster_rmsd>  (33) 
1.78

>  <cluster>  (33) 
5

$$$$

     RDKit          3D

 66 68  0  0  0  0  0  0  0  0999 V2000
  138.4370   67.6430  222.6970 C   0  0  0  0  0  0  0  0  0  0  0  0
  137.2200   68.5320  222.9150 C   0  0  0  0  0  0  0  0  0  0  0  0
  137.3340   69.2030  224.2670 C   0  0  0  0  0  0  0  0  0  0  0  0
  136.3140   69.0730  224.9780 O   0  0  0  0  0  0  0  0  0  0  0  0
  138.5210   69.9050  224.6360 N   0  0  0  0  0  0  0  0  0  0  0  0
  139.3130   69.5640  225.7650 C   0  0  0  0  0  0  0  0  0  0  0  0
  139.4950   68.2280  226.1270 C   0  0  0  0  0  0  0  0  0  0  0  0
  140.2710   67.8690  227.2230 C   0  0  0  0  0  0  0  0  0  0  0  0
  140.8930   68.8050  228.0000 C   0  0  0  0  0  0  0  0  0  0  0  0
  140.7320   70.1260  227.6660 C   0  0  0  0  0  0  0  0  0  0  0  0
  139.9520   70.4850  226.5660 C   0  0  0  0  0  0  0  0  0  0  0  0
  138.8810   71.0150  223.7680 C   0  0  0  0  0  0  0  0  0  0  0  0
  140.0770   70.7530  222.8860 C   0  0  0  0  0  0  0  0  0  0  0  0
  140.5490   72.1470  222.4350 C   0  0  0  0  0  0  0  0  0  0  0  0
  139.4300   72.9310  221.9560 N   0  0  0  0  0  0  0  0  0  0  0  0
  139.6180   74.3230  221.7600 C   0  0  0  0  0  0  0  0  0  0  0  0
  140.7450   74.8020  222.0460 O   0  0  0  0  0  0  0  0  0  0  0  0
  138.5000   75.1990  221.2300 C   0  0  2  0  0  0  0  0  0  0  0  0
  138.4170   74.8580  219.7470 C   0  0  0  0  0  0  0  0  0  0  0  0
  138.8990   76.5390  221.5000 N   0  0  0  0  0  0  0  0  0  0  0  0
  137.9210   77.4390  221.9950 C   0  0  0  0  0  0  0  0  0  0  0  0
  137.0570   76.8330  223.0840 C   0  0  0  0  0  0  0  0  0  0  0  0
  137.0720   78.0290  220.9200 C   0  0  0  0  0  0  0  0  0  0  0  0
  138.6450   78.5960  222.6340 C   0  0  0  0  0  0  0  0  0  0  0  0
  137.9490   79.5910  223.3080 C   0  0  0  0  0  0  0  0  0  0  0  0
  138.5890   80.6600  223.9020 C   0  0  0  0  0  0  0  0  0  0  0  0
  139.9750   80.7640  223.8340 C   0  0  0  0  0  0  0  0  0  0  0  0
  140.6760   79.7820  223.1660 C   0  0  0  0  0  0  0  0  0  0  0  0
  142.5560   79.9050  223.0570 Br  0  0  0  0  0  0  0  0  0  0  0  0
  140.0140   78.7240  222.5820 C   0  0  0  0  0  0  0  0  0  0  0  0
  138.1700   72.2480  221.7300 C   0  0  0  0  0  0  0  0  0  0  0  0
  137.7540   71.7310  223.1220 C   0  0  0  0  0  0  0  0  0  0  0  0
  138.8499   67.3414  223.6709 H   0  0  0  0  0  0  0  0  0  0  0  0
  138.1403   66.7475  222.1313 H   0  0  0  0  0  0  0  0  0  0  0  0
  139.1999   68.1980  222.1313 H   0  0  0  0  0  0  0  0  0  0  0  0
  137.1767   69.2974  222.1262 H   0  0  0  0  0  0  0  0  0  0  0  0
  136.3045   67.9232  222.8789 H   0  0  0  0  0  0  0  0  0  0  0  0
  139.0124   67.4400  225.5302 H   0  0  0  0  0  0  0  0  0  0  0  0
  140.3873   66.8037  227.4712 H   0  0  0  0  0  0  0  0  0  0  0  0
  141.5035   68.5089  228.8658 H   0  0  0  0  0  0  0  0  0  0  0  0
  141.2203   70.9061  228.2685 H   0  0  0  0  0  0  0  0  0  0  0  0
  139.8422   71.5532  226.3273 H   0  0  0  0  0  0  0  0  0  0  0  0
  139.2406   71.7755  224.4767 H   0  0  0  0  0  0  0  0  0  0  0  0
  140.8694   70.2400  223.4507 H   0  0  0  0  0  0  0  0  0  0  0  0
  139.8287   70.1038  222.0334 H   0  0  0  0  0  0  0  0  0  0  0  0
  141.0153   72.6643  223.2865 H   0  0  0  0  0  0  0  0  0  0  0  0
  141.2763   72.0292  221.6182 H   0  0  0  0  0  0  0  0  0  0  0  0
  137.5057   75.0551  221.6779 H   0  0  0  0  0  0  0  0  0  0  0  0
  138.1584   73.7954  219.6290 H   0  0  0  0  0  0  0  0  0  0  0  0
  137.6437   75.4786  219.2708 H   0  0  0  0  0  0  0  0  0  0  0  0
  139.3890   75.0539  219.2708 H   0  0  0  0  0  0  0  0  0  0  0  0
  139.7400   76.4990  222.1340 H   0  0  0  0  0  0  0  0  0  0  0  0
  137.4578   77.1141  224.0690 H   0  0  0  0  0  0  0  0  0  0  0  0
  136.0275   77.2080  222.9864 H   0  0  0  0  0  0  0  0  0  0  0  0
  137.0590   75.7373  222.9864 H   0  0  0  0  0  0  0  0  0  0  0  0
  136.2495   78.6006  221.3746 H   0  0  0  0  0  0  0  0  0  0  0  0
  137.6827   78.6983  220.2963 H   0  0  0  0  0  0  0  0  0  0  0  0
  136.6577   77.2232  220.2963 H   0  0  0  0  0  0  0  0  0  0  0  0
  136.8528   79.5251  223.3705 H   0  0  0  0  0  0  0  0  0  0  0  0
  138.0042   81.4287  224.4284 H   0  0  0  0  0  0  0  0  0  0  0  0
  140.4994   81.6100  224.3023 H   0  0  0  0  0  0  0  0  0  0  0  0
  140.5999   77.9556  222.0564 H   0  0  0  0  0  0  0  0  0  0  0  0
  137.4165   72.9441  221.3329 H   0  0  0  0  0  0  0  0  0  0  0  0
  138.2612   71.4364  220.9932 H   0  0  0  0  0  0  0  0  0  0  0  0
  137.4583   72.5834  223.7513 H   0  0  0  0  0  0  0  0  0  0  0  0
  136.9102   71.0350  223.0056 H   0  0  0  0  0  0  0  0  0  0  0  0
  1  2  1  0
  2  3  1  0
  3  4  2  0
  3  5  1  0
  5  6  1  0
  6  7  2  0
  7  8  1  0
  8  9  2  0
  9 10  1  0
 10 11  2  0
  5 12  1  0
 12 13  1  0
 13 14  1  0
 14 15  1  0
 15 16  1  0
 16 17  2  0
 16 18  1  0
 18 19  1  0
 18 20  1  0
 20 21  1  0
 21 22  1  0
 21 23  1  0
 21 24  1  0
 24 25  2  0
 25 26  1  0
 26 27  2  0
 27 28  1  0
 28 29  1  0
 28 30  2  0
 15 31  1  0
 31 32  1  0
 11  6  1  0
 32 12  1  0
 30 24  1  0
  1 33  1  0
  1 34  1  0
  1 35  1  0
  2 36  1  0
  2 37  1  0
  7 38  1  0
  8 39  1  0
  9 40  1  0
 10 41  1  0
 11 42  1  0
 12 43  1  0
 13 44  1  0
 13 45  1  0
 14 46  1  0
 14 47  1  0
 18 48  1  1
 19 49  1  0
 19 50  1  0
 19 51  1  0
 20 52  1  0
 22 53  1  0
 22 54  1  0
 22 55  1  0
 23 56  1  0
 23 57  1  0
 23 58  1  0
 25 59  1  0
 26 60  1  0
 27 61  1  0
 30 62  1  0
 31 63  1  0
 31 64  1  0
 32 65  1  0
 32 66  1  0
M  END
>  <smiles>  (34) 
CCC(=O)N(c1ccccc1)C1CCN(C(=O)[C@H](C)NC(C)(C)c2cccc(Br)c2)CC1

>  <score_type>  (34) 
oracle

>  <origin>  (34) 
autodockgpu

>  <m_score__min__energy>  (34) 
-8.9299999999999997

>  <m_primary>  (34) 
energy

>  <rmsd>  (34) 
5.049820123814247

>  <m_score__min__rmsd>  (34) 
5.049820123814247

>  <meeko>  (34) 
{"free_energy": -7.85, "intermolecular_energy": -10.24, "internal_energy": -2.64, "cluster_size": 2, "cluster_id": 7, "rank_in_cluster": 1}

>  <energy>  (34) 
-7.96

>  <cluster_rmsd>  (34) 
0.0

>  <cluster>  (34) 
6

$$$$

     RDKit          3D

 66 68  0  0  0  0  0  0  0  0999 V2000
  136.1960   74.0670  222.7740 C   0  0  0  0  0  0  0  0  0  0  0  0
  137.4940   74.2310  221.9940 C   0  0  0  0  0  0  0  0  0  0  0  0
  138.0460   72.8620  221.6590 C   0  0  0  0  0  0  0  0  0  0  0  0
  137.2470   72.1430  221.0200 O   0  0  0  0  0  0  0  0  0  0  0  0
  139.3620   72.4860  222.0630 N   0  0  0  0  0  0  0  0  0  0  0  0
  139.6260   71.5610  223.1080 C   0  0  0  0  0  0  0  0  0  0  0  0
  140.5120   71.8860  224.1370 C   0  0  0  0  0  0  0  0  0  0  0  0
  140.7810   71.0000  225.1740 C   0  0  0  0  0  0  0  0  0  0  0  0
  140.1920   69.7690  225.2370 C   0  0  0  0  0  0  0  0  0  0  0  0
  139.3160   69.4240  224.2400 C   0  0  0  0  0  0  0  0  0  0  0  0
  139.0470   70.3140  223.1990 C   0  0  0  0  0  0  0  0  0  0  0  0
  140.4430   73.1220  221.3260 C   0  0  0  0  0  0  0  0  0  0  0  0
  141.6920   72.2830  221.2060 C   0  0  0  0  0  0  0  0  0  0  0  0
  142.8040   73.2800  220.8370 C   0  0  0  0  0  0  0  0  0  0  0  0
  142.3770   74.1370  219.7500 N   0  0  0  0  0  0  0  0  0  0  0  0
  143.1500   75.2900  219.4580 C   0  0  0  0  0  0  0  0  0  0  0  0
  144.1500   75.5170  220.1850 O   0  0  0  0  0  0  0  0  0  0  0  0
  142.7800   76.2140  218.3150 C   0  0  2  0  0  0  0  0  0  0  0  0
  143.7100   75.8050  217.1770 C   0  0  0  0  0  0  0  0  0  0  0  0
  142.9970   77.5350  218.8000 N   0  0  0  0  0  0  0  0  0  0  0  0
  141.8630   78.3140  219.1430 C   0  0  0  0  0  0  0  0  0  0  0  0
  140.5700   77.7510  218.5870 C   0  0  0  0  0  0  0  0  0  0  0  0
  142.0090   79.7520  218.7750 C   0  0  0  0  0  0  0  0  0  0  0  0
  141.7200   78.2820  220.6420 C   0  0  0  0  0  0  0  0  0  0  0  0
  141.1540   77.1870  221.2840 C   0  0  0  0  0  0  0  0  0  0  0  0
  141.0130   77.1340  222.6550 C   0  0  0  0  0  0  0  0  0  0  0  0
  141.4420   78.1990  223.4390 C   0  0  0  0  0  0  0  0  0  0  0  0
  142.0050   79.2920  222.8140 C   0  0  0  0  0  0  0  0  0  0  0  0
  142.5900   80.7520  223.8570 Br  0  0  0  0  0  0  0  0  0  0  0  0
  142.1360   79.3220  221.4420 C   0  0  0  0  0  0  0  0  0  0  0  0
  141.1630   73.7790  219.0400 C   0  0  0  0  0  0  0  0  0  0  0  0
  140.0510   73.8660  220.1040 C   0  0  0  0  0  0  0  0  0  0  0  0
  136.4104   74.0941  223.8526 H   0  0  0  0  0  0  0  0  0  0  0  0
  135.5075   74.8853  222.5164 H   0  0  0  0  0  0  0  0  0  0  0  0
  135.7327   73.1032  222.5164 H   0  0  0  0  0  0  0  0  0  0  0  0
  137.2980   74.7867  221.0651 H   0  0  0  0  0  0  0  0  0  0  0  0
  138.2238   74.7868  222.6010 H   0  0  0  0  0  0  0  0  0  0  0  0
  141.0093   72.8671  224.1269 H   0  0  0  0  0  0  0  0  0  0  0  0
  141.4862   71.2978  225.9640 H   0  0  0  0  0  0  0  0  0  0  0  0
  140.4136   69.0760  226.0620 H   0  0  0  0  0  0  0  0  0  0  0  0
  138.8228   68.4410  224.2608 H   0  0  0  0  0  0  0  0  0  0  0  0
  138.3399   70.0056  222.4148 H   0  0  0  0  0  0  0  0  0  0  0  0
  140.7443   73.9453  221.9904 H   0  0  0  0  0  0  0  0  0  0  0  0
  141.9183   71.7868  222.1613 H   0  0  0  0  0  0  0  0  0  0  0  0
  141.5849   71.4855  220.4559 H   0  0  0  0  0  0  0  0  0  0  0  0
  143.0407   73.8994  221.7147 H   0  0  0  0  0  0  0  0  0  0  0  0
  143.6942   72.7180  220.5182 H   0  0  0  0  0  0  0  0  0  0  0  0
  141.7418   76.1624  217.9551 H   0  0  0  0  0  0  0  0  0  0  0  0
  144.6417   75.3953  217.5942 H   0  0  0  0  0  0  0  0  0  0  0  0
  143.2179   75.0403  216.5581 H   0  0  0  0  0  0  0  0  0  0  0  0
  143.9410   76.6846  216.5581 H   0  0  0  0  0  0  0  0  0  0  0  0
  143.6760   77.4700  219.6050 H   0  0  0  0  0  0  0  0  0  0  0  0
  139.9085   77.4630  219.4173 H   0  0  0  0  0  0  0  0  0  0  0  0
  140.0731   78.5142  217.9701 H   0  0  0  0  0  0  0  0  0  0  0  0
  140.7902   76.8673  217.9701 H   0  0  0  0  0  0  0  0  0  0  0  0
  142.0707   80.3601  219.6896 H   0  0  0  0  0  0  0  0  0  0  0  0
  142.9255   79.8875  218.1820 H   0  0  0  0  0  0  0  0  0  0  0  0
  141.1384   80.0689  218.1820 H   0  0  0  0  0  0  0  0  0  0  0  0
  140.8075   76.3357  220.6796 H   0  0  0  0  0  0  0  0  0  0  0  0
  140.5613   76.2495  223.1279 H   0  0  0  0  0  0  0  0  0  0  0  0
  141.3348   78.1705  224.5334 H   0  0  0  0  0  0  0  0  0  0  0  0
  142.5883   80.2070  220.9706 H   0  0  0  0  0  0  0  0  0  0  0  0
  140.9708   74.4850  218.2187 H   0  0  0  0  0  0  0  0  0  0  0  0
  141.2259   72.7805  218.5827 H   0  0  0  0  0  0  0  0  0  0  0  0
  139.8786   74.9213  220.3622 H   0  0  0  0  0  0  0  0  0  0  0  0
  139.1317   73.4209  219.6956 H   0  0  0  0  0  0  0  0  0  0  0  0
  1  2  1  0
  2  3  1  0
  3  4  2  0
  3  5  1  0
  5  6  1  0
  6  7  2  0
  7  8  1  0
  8  9  2  0
  9 10  1  0
 10 11  2  0
  5 12  1  0
 12 13  1  0
 13 14  1  0
 14 15  1  0
 15 16  1  0
 16 17  2  0
 16 18  1  0
 18 19  1  0
 18 20  1  0
 20 21  1  0
 21 22  1  0
 21 23  1  0
 21 24  1  0
 24 25  2  0
 25 26  1  0
 26 27  2  0
 27 28  1  0
 28 29  1  0
 28 30  2  0
 15 31  1  0
 31 32  1  0
 11  6  1  0
 32 12  1  0
 30 24  1  0
  1 33  1  0
  1 34  1  0
  1 35  1  0
  2 36  1  0
  2 37  1  0
  7 38  1  0
  8 39  1  0
  9 40  1  0
 10 41  1  0
 11 42  1  0
 12 43  1  0
 13 44  1  0
 13 45  1  0
 14 46  1  0
 14 47  1  0
 18 48  1  6
 19 49  1  0
 19 50  1  0
 19 51  1  0
 20 52  1  0
 22 53  1  0
 22 54  1  0
 22 55  1  0
 23 56  1  0
 23 57  1  0
 23 58  1  0
 25 59  1  0
 26 60  1  0
 27 61  1  0
 30 62  1  0
 31 63  1  0
 31 64  1  0
 32 65  1  0
 32 66  1  0
M  END
>  <smiles>  (35) 
CCC(=O)N(c1ccccc1)C1CCN(C(=O)[C@H](C)NC(C)(C)c2cccc(Br)c2)CC1

>  <score_type>  (35) 
oracle

>  <origin>  (35) 
autodockgpu

>  <m_score__min__energy>  (35) 
-8.9299999999999997

>  <m_primary>  (35) 
energy

>  <rmsd>  (35) 
4.555245291520627

>  <m_score__min__rmsd>  (35) 
4.555245291520627

>  <meeko>  (35) 
{"free_energy": -6.99, "intermolecular_energy": -9.38, "internal_energy": -3.33, "cluster_size": 7, "cluster_id": 5, "rank_in_cluster": 7}

>  <energy>  (35) 
-7.85

>  <cluster_rmsd>  (35) 
0.0

>  <cluster>  (35) 
7

$$$$

     RDKit          3D

 66 68  0  0  0  0  0  0  0  0999 V2000
  136.0230   70.4640  224.2450 C   0  0  0  0  0  0  0  0  0  0  0  0
  136.7420   71.6210  223.5640 C   0  0  0  0  0  0  0  0  0  0  0  0
  138.0100   71.1040  222.9190 C   0  0  0  0  0  0  0  0  0  0  0  0
  137.8040   70.3330  221.9580 O   0  0  0  0  0  0  0  0  0  0  0  0
  139.2910   71.4980  223.4110 N   0  0  0  0  0  0  0  0  0  0  0  0
  139.7800   71.1420  224.6960 C   0  0  0  0  0  0  0  0  0  0  0  0
  139.3350   69.9790  225.3280 C   0  0  0  0  0  0  0  0  0  0  0  0
  139.8030   69.6060  226.5830 C   0  0  0  0  0  0  0  0  0  0  0  0
  140.7210   70.3590  227.2590 C   0  0  0  0  0  0  0  0  0  0  0  0
  141.1760   71.5060  226.6610 C   0  0  0  0  0  0  0  0  0  0  0  0
  140.7050   71.8800  225.4010 C   0  0  0  0  0  0  0  0  0  0  0  0
  140.0870   72.3030  222.4960 C   0  0  0  0  0  0  0  0  0  0  0  0
  141.0510   71.5110  221.6470 C   0  0  0  0  0  0  0  0  0  0  0  0
  142.0700   72.5450  221.1380 C   0  0  0  0  0  0  0  0  0  0  0  0
  141.3910   73.7070  220.6040 N   0  0  0  0  0  0  0  0  0  0  0  0
  142.1540   74.8740  220.3440 C   0  0  0  0  0  0  0  0  0  0  0  0
  143.3800   74.8400  220.6250 O   0  0  0  0  0  0  0  0  0  0  0  0
  141.5150   76.1150  219.7550 C   0  0  2  0  0  0  0  0  0  0  0  0
  142.1440   76.2490  218.3720 C   0  0  0  0  0  0  0  0  0  0  0  0
  141.8360   77.1760  220.6480 N   0  0  0  0  0  0  0  0  0  0  0  0
  140.8220   77.6430  221.5220 C   0  0  0  0  0  0  0  0  0  0  0  0
  140.5760   76.7110  222.6930 C   0  0  0  0  0  0  0  0  0  0  0  0
  139.5430   77.9510  220.8210 C   0  0  0  0  0  0  0  0  0  0  0  0
  141.2930   78.9440  222.1180 C   0  0  0  0  0  0  0  0  0  0  0  0
  142.0230   78.9670  223.3000 C   0  0  0  0  0  0  0  0  0  0  0  0
  142.4660   80.1450  223.8650 C   0  0  0  0  0  0  0  0  0  0  0  0
  142.1830   81.3600  223.2490 C   0  0  0  0  0  0  0  0  0  0  0  0
  141.4570   81.3500  222.0760 C   0  0  0  0  0  0  0  0  0  0  0  0
  141.0570   82.9860  221.2260 Br  0  0  0  0  0  0  0  0  0  0  0  0
  141.0270   80.1600  221.5310 C   0  0  0  0  0  0  0  0  0  0  0  0
  139.9580   73.6160  220.3900 C   0  0  0  0  0  0  0  0  0  0  0  0
  139.3690   73.3980  221.7980 C   0  0  0  0  0  0  0  0  0  0  0  0
  136.0947   70.5793  225.3366 H   0  0  0  0  0  0  0  0  0  0  0  0
  134.9647   70.4626  223.9451 H   0  0  0  0  0  0  0  0  0  0  0  0
  136.4903   69.5144  223.9451 H   0  0  0  0  0  0  0  0  0  0  0  0
  136.0892   72.0589  222.7945 H   0  0  0  0  0  0  0  0  0  0  0  0
  136.9918   72.3919  224.3078 H   0  0  0  0  0  0  0  0  0  0  0  0
  138.5957   69.3420  224.8203 H   0  0  0  0  0  0  0  0  0  0  0  0
  139.4246   68.6813  227.0432 H   0  0  0  0  0  0  0  0  0  0  0  0
  141.0837   70.0547  228.2519 H   0  0  0  0  0  0  0  0  0  0  0  0
  141.9163   72.1351  227.1769 H   0  0  0  0  0  0  0  0  0  0  0  0
  141.0903   72.8066  224.9506 H   0  0  0  0  0  0  0  0  0  0  0  0
  140.7424   72.8714  223.1723 H   0  0  0  0  0  0  0  0  0  0  0  0
  141.5514   70.7377  222.2483 H   0  0  0  0  0  0  0  0  0  0  0  0
  140.5442   70.9879  220.8227 H   0  0  0  0  0  0  0  0  0  0  0  0
  142.7175   72.8554  221.9713 H   0  0  0  0  0  0  0  0  0  0  0  0
  142.6723   72.0871  220.3395 H   0  0  0  0  0  0  0  0  0  0  0  0
  140.4209   76.1004  219.6421 H   0  0  0  0  0  0  0  0  0  0  0  0
  143.2150   76.4772  218.4768 H   0  0  0  0  0  0  0  0  0  0  0  0
  142.0225   75.3048  217.8209 H   0  0  0  0  0  0  0  0  0  0  0  0
  141.6482   77.0617  217.8209 H   0  0  0  0  0  0  0  0  0  0  0  0
  142.7020   76.8920  221.1800 H   0  0  0  0  0  0  0  0  0  0  0  0
  140.7209   77.2599  223.6352 H   0  0  0  0  0  0  0  0  0  0  0  0
  139.5460   76.3278  222.6465 H   0  0  0  0  0  0  0  0  0  0  0  0
  141.2828   75.8694  222.6465 H   0  0  0  0  0  0  0  0  0  0  0  0
  138.7543   78.1409  221.5638 H   0  0  0  0  0  0  0  0  0  0  0  0
  139.6757   78.8429  220.1909 H   0  0  0  0  0  0  0  0  0  0  0  0
  139.2552   77.0965  220.1909 H   0  0  0  0  0  0  0  0  0  0  0  0
  142.2551   78.0157  223.8012 H   0  0  0  0  0  0  0  0  0  0  0  0
  143.0424   80.1237  224.8016 H   0  0  0  0  0  0  0  0  0  0  0  0
  142.5303   82.3072  223.6874 H   0  0  0  0  0  0  0  0  0  0  0  0
  140.4510   80.1826  220.5941 H   0  0  0  0  0  0  0  0  0  0  0  0
  139.5715   74.5456  219.9468 H   0  0  0  0  0  0  0  0  0  0  0  0
  139.6900   72.8064  219.6952 H   0  0  0  0  0  0  0  0  0  0  0  0
  139.4692   74.3258  222.3803 H   0  0  0  0  0  0  0  0  0  0  0  0
  138.3079   73.1242  221.7021 H   0  0  0  0  0  0  0  0  0  0  0  0
  1  2  1  0
  2  3  1  0
  3  4  2  0
  3  5  1  0
  5  6  1  0
  6  7  2  0
  7  8  1  0
  8  9  2  0
  9 10  1  0
 10 11  2  0
  5 12  1  0
 12 13  1  0
 13 14  1  0
 14 15  1  0
 15 16  1  0
 16 17  2  0
 16 18  1  0
 18 19  1  0
 18 20  1  0
 20 21  1  0
 21 22  1  0
 21 23  1  0
 21 24  1  0
 24 25  2  0
 25 26  1  0
 26 27  2  0
 27 28  1  0
 28 29  1  0
 28 30  2  0
 15 31  1  0
 31 32  1  0
 11  6  1  0
 32 12  1  0
 30 24  1  0
  1 33  1  0
  1 34  1  0
  1 35  1  0
  2 36  1  0
  2 37  1  0
  7 38  1  0
  8 39  1  0
  9 40  1  0
 10 41  1  0
 11 42  1  0
 12 43  1  0
 13 44  1  0
 13 45  1  0
 14 46  1  0
 14 47  1  0
 18 48  1  6
 19 49  1  0
 19 50  1  0
 19 51  1  0
 20 52  1  0
 22 53  1  0
 22 54  1  0
 22 55  1  0
 23 56  1  0
 23 57  1  0
 23 58  1  0
 25 59  1  0
 26 60  1  0
 27 61  1  0
 30 62  1  0
 31 63  1  0
 31 64  1  0
 32 65  1  0
 32 66  1  0
M  END
>  <smiles>  (36) 
CCC(=O)N(c1ccccc1)C1CCN(C(=O)[C@H](C)NC(C)(C)c2cccc(Br)c2)CC1

>  <score_type>  (36) 
oracle

>  <origin>  (36) 
autodockgpu

>  <m_score__min__energy>  (36) 
-8.9299999999999997

>  <m_primary>  (36) 
energy

>  <rmsd>  (36) 
4.089043429857557

>  <m_score__min__rmsd>  (36) 
4.089043429857557

>  <meeko>  (36) 
{"free_energy": -7.98, "intermolecular_energy": -10.36, "internal_energy": -2.82, "cluster_size": 7, "cluster_id": 5, "rank_in_cluster": 1}

>  <energy>  (36) 
-7.52

>  <cluster_rmsd>  (36) 
0.77

>  <cluster>  (36) 
7

$$$$

     RDKit          3D

 66 68  0  0  0  0  0  0  0  0999 V2000
  146.7180   73.3590  221.9420 C   0  0  0  0  0  0  0  0  0  0  0  0
  145.4310   73.6060  221.1660 C   0  0  0  0  0  0  0  0  0  0  0  0
  145.4070   72.7040  219.9510 C   0  0  0  0  0  0  0  0  0  0  0  0
  146.3050   72.9590  219.1200 O   0  0  0  0  0  0  0  0  0  0  0  0
  144.4240   71.6770  219.8230 N   0  0  0  0  0  0  0  0  0  0  0  0
  144.7150   70.3690  219.3500 C   0  0  0  0  0  0  0  0  0  0  0  0
  145.3220   70.1830  218.1060 C   0  0  0  0  0  0  0  0  0  0  0  0
  145.6230   68.9140  217.6240 C   0  0  0  0  0  0  0  0  0  0  0  0
  145.3390   67.7880  218.3430 C   0  0  0  0  0  0  0  0  0  0  0  0
  144.7440   67.9420  219.5690 C   0  0  0  0  0  0  0  0  0  0  0  0
  144.4420   69.2160  220.0520 C   0  0  0  0  0  0  0  0  0  0  0  0
  143.0750   72.0560  220.2150 C   0  0  0  0  0  0  0  0  0  0  0  0
  142.6000   73.3620  219.6260 C   0  0  0  0  0  0  0  0  0  0  0  0
  141.4110   73.7830  220.5070 C   0  0  0  0  0  0  0  0  0  0  0  0
  140.4980   72.6750  220.6910 N   0  0  0  0  0  0  0  0  0  0  0  0
  139.4960   72.7860  221.6900 C   0  0  0  0  0  0  0  0  0  0  0  0
  139.4810   73.8360  222.3820 O   0  0  0  0  0  0  0  0  0  0  0  0
  138.4870   71.6780  221.9160 C   0  0  2  0  0  0  0  0  0  0  0  0
  137.2430   72.1350  221.1620 C   0  0  0  0  0  0  0  0  0  0  0  0
  138.3160   71.5930  223.3270 N   0  0  0  0  0  0  0  0  0  0  0  0
  138.5140   70.3340  223.9480 C   0  0  0  0  0  0  0  0  0  0  0  0
  139.1240   69.3050  223.0160 C   0  0  0  0  0  0  0  0  0  0  0  0
  137.2780   69.7960  224.5850 C   0  0  0  0  0  0  0  0  0  0  0  0
  139.5080   70.5240  225.0640 C   0  0  0  0  0  0  0  0  0  0  0  0
  140.3320   71.6410  225.1060 C   0  0  0  0  0  0  0  0  0  0  0  0
  141.2490   71.8380  226.1180 C   0  0  0  0  0  0  0  0  0  0  0  0
  141.3700   70.8990  227.1370 C   0  0  0  0  0  0  0  0  0  0  0  0
  140.5580   69.7850  227.1060 C   0  0  0  0  0  0  0  0  0  0  0  0
  140.7080   68.4960  228.4760 Br  0  0  0  0  0  0  0  0  0  0  0  0
  139.6490   69.6120  226.0850 C   0  0  0  0  0  0  0  0  0  0  0  0
  140.6790   71.5000  219.8590 C   0  0  0  0  0  0  0  0  0  0  0  0
  142.0720   70.9630  220.2440 C   0  0  0  0  0  0  0  0  0  0  0  0
  146.5089   73.3991  223.0212 H   0  0  0  0  0  0  0  0  0  0  0  0
  147.1180   72.3677  221.6826 H   0  0  0  0  0  0  0  0  0  0  0  0
  147.4566   74.1318  221.6826 H   0  0  0  0  0  0  0  0  0  0  0  0
  144.5653   73.3839  221.8073 H   0  0  0  0  0  0  0  0  0  0  0  0
  145.3847   74.6582  220.8485 H   0  0  0  0  0  0  0  0  0  0  0  0
  145.5680   71.0622  217.4924 H   0  0  0  0  0  0  0  0  0  0  0  0
  146.1019   68.8144  216.6387 H   0  0  0  0  0  0  0  0  0  0  0  0
  145.5800   66.7889  217.9510 H   0  0  0  0  0  0  0  0  0  0  0  0
  144.5034   67.0562  220.1752 H   0  0  0  0  0  0  0  0  0  0  0  0
  143.9639   69.3033  221.0388 H   0  0  0  0  0  0  0  0  0  0  0  0
  143.1815   72.2769  221.2873 H   0  0  0  0  0  0  0  0  0  0  0  0
  143.3982   74.1178  219.6659 H   0  0  0  0  0  0  0  0  0  0  0  0
  142.3167   73.2609  218.5679 H   0  0  0  0  0  0  0  0  0  0  0  0
  141.7856   74.1100  221.4882 H   0  0  0  0  0  0  0  0  0  0  0  0
  140.8755   74.6062  220.0115 H   0  0  0  0  0  0  0  0  0  0  0  0
  138.7658   70.6761  221.5576 H   0  0  0  0  0  0  0  0  0  0  0  0
  136.4625   72.4217  221.8821 H   0  0  0  0  0  0  0  0  0  0  0  0
  137.4942   72.9995  220.5300 H   0  0  0  0  0  0  0  0  0  0  0  0
  136.8748   71.3134  220.5300 H   0  0  0  0  0  0  0  0  0  0  0  0
  138.9210   72.3370  223.7650 H   0  0  0  0  0  0  0  0  0  0  0  0
  139.5965   68.5079  223.6088 H   0  0  0  0  0  0  0  0  0  0  0  0
  138.3364   68.8723  222.3816 H   0  0  0  0  0  0  0  0  0  0  0  0
  139.8816   69.7883  222.3816 H   0  0  0  0  0  0  0  0  0  0  0  0
  137.3803   69.8405  225.6793 H   0  0  0  0  0  0  0  0  0  0  0  0
  136.4124   70.3988  224.2728 H   0  0  0  0  0  0  0  0  0  0  0  0
  137.1293   68.7518  224.2728 H   0  0  0  0  0  0  0  0  0  0  0  0
  140.2511   72.3927  224.3070 H   0  0  0  0  0  0  0  0  0  0  0  0
  141.8836   72.7365  226.1189 H   0  0  0  0  0  0  0  0  0  0  0  0
  142.0974   71.0420  227.9497 H   0  0  0  0  0  0  0  0  0  0  0  0
  139.0140   68.7138  226.0860 H   0  0  0  0  0  0  0  0  0  0  0  0
  139.9018   70.7508  220.0704 H   0  0  0  0  0  0  0  0  0  0  0  0
  140.6027   71.7320  218.7865 H   0  0  0  0  0  0  0  0  0  0  0  0
  142.0289   70.5377  221.2576 H   0  0  0  0  0  0  0  0  0  0  0  0
  142.3678   70.1886  219.5209 H   0  0  0  0  0  0  0  0  0  0  0  0
  1  2  1  0
  2  3  1  0
  3  4  2  0
  3  5  1  0
  5  6  1  0
  6  7  2  0
  7  8  1  0
  8  9  2  0
  9 10  1  0
 10 11  2  0
  5 12  1  0
 12 13  1  0
 13 14  1  0
 14 15  1  0
 15 16  1  0
 16 17  2  0
 16 18  1  0
 18 19  1  0
 18 20  1  0
 20 21  1  0
 21 22  1  0
 21 23  1  0
 21 24  1  0
 24 25  2  0
 25 26  1  0
 26 27  2  0
 27 28  1  0
 28 29  1  0
 28 30  2  0
 15 31  1  0
 31 32  1  0
 11  6  1  0
 32 12  1  0
 30 24  1  0
  1 33  1  0
  1 34  1  0
  1 35  1  0
  2 36  1  0
  2 37  1  0
  7 38  1  0
  8 39  1  0
  9 40  1  0
 10 41  1  0
 11 42  1  0
 12 43  1  0
 13 44  1  0
 13 45  1  0
 14 46  1  0
 14 47  1  0
 18 48  1  6
 19 49  1  0
 19 50  1  0
 19 51  1  0
 20 52  1  0
 22 53  1  0
 22 54  1  0
 22 55  1  0
 23 56  1  0
 23 57  1  0
 23 58  1  0
 25 59  1  0
 26 60  1  0
 27 61  1  0
 30 62  1  0
 31 63  1  0
 31 64  1  0
 32 65  1  0
 32 66  1  0
M  END
>  <smiles>  (37) 
CCC(=O)N(c1ccccc1)C1CCN(C(=O)[C@H](C)NC(C)(C)c2cccc(Br)c2)CC1

>  <score_type>  (37) 
oracle

>  <origin>  (37) 
autodockgpu

>  <m_score__min__energy>  (37) 
-8.9299999999999997

>  <m_primary>  (37) 
energy

>  <rmsd>  (37) 
8.890850888481223

>  <m_score__min__rmsd>  (37) 
8.890850888481223

>  <meeko>  (37) 
{"free_energy": -8.9, "intermolecular_energy": -11.28, "internal_energy": -2.57, "cluster_size": 5, "cluster_id": 1, "rank_in_cluster": 2}

>  <energy>  (37) 
-7.77

>  <cluster_rmsd>  (37) 
0.0

>  <cluster>  (37) 
8

$$$$

     RDKit          3D

 66 68  0  0  0  0  0  0  0  0999 V2000
  142.4240   80.5140  223.5010 C   0  0  0  0  0  0  0  0  0  0  0  0
  141.0760   79.8310  223.3100 C   0  0  0  0  0  0  0  0  0  0  0  0
  141.3020   78.3590  223.0380 C   0  0  0  0  0  0  0  0  0  0  0  0
  141.8380   77.7520  223.9900 O   0  0  0  0  0  0  0  0  0  0  0  0
  140.9180   77.7790  221.7920 N   0  0  0  0  0  0  0  0  0  0  0  0
  141.5600   78.0760  220.5600 C   0  0  0  0  0  0  0  0  0  0  0  0
  141.4530   79.3470  219.9920 C   0  0  0  0  0  0  0  0  0  0  0  0
  142.0770   79.6640  218.7910 C   0  0  0  0  0  0  0  0  0  0  0  0
  142.8250   78.7480  218.1070 C   0  0  0  0  0  0  0  0  0  0  0  0
  142.9480   77.4910  218.6430 C   0  0  0  0  0  0  0  0  0  0  0  0
  142.3210   77.1740  219.8490 C   0  0  0  0  0  0  0  0  0  0  0  0
  139.8050   76.8450  221.8590 C   0  0  0  0  0  0  0  0  0  0  0  0
  138.4530   77.4680  221.6120 C   0  0  0  0  0  0  0  0  0  0  0  0
  137.4420   76.4570  222.1790 C   0  0  0  0  0  0  0  0  0  0  0  0
  137.7420   75.1210  221.7070 N   0  0  0  0  0  0  0  0  0  0  0  0
  137.0970   74.0240  222.3360 C   0  0  0  0  0  0  0  0  0  0  0  0
  136.3210   74.2780  223.2920 O   0  0  0  0  0  0  0  0  0  0  0  0
  137.3390   72.6010  221.8720 C   0  0  2  0  0  0  0  0  0  0  0  0
  135.9730   72.1170  221.3980 C   0  0  0  0  0  0  0  0  0  0  0  0
  137.8430   71.9060  223.0080 N   0  0  0  0  0  0  0  0  0  0  0  0
  139.1540   71.3710  222.9340 C   0  0  0  0  0  0  0  0  0  0  0  0
  140.2170   72.4370  222.7500 C   0  0  0  0  0  0  0  0  0  0  0  0
  139.2950   70.3080  221.8990 C   0  0  0  0  0  0  0  0  0  0  0  0
  139.4550   70.7090  224.2540 C   0  0  0  0  0  0  0  0  0  0  0  0
  139.1920   69.3600  224.4540 C   0  0  0  0  0  0  0  0  0  0  0  0
  139.4590   68.7310  225.6530 C   0  0  0  0  0  0  0  0  0  0  0  0
  140.0060   69.4530  226.7090 C   0  0  0  0  0  0  0  0  0  0  0  0
  140.2700   70.7940  226.5220 C   0  0  0  0  0  0  0  0  0  0  0  0
  141.0080   71.7950  227.9420 Br  0  0  0  0  0  0  0  0  0  0  0  0
  139.9960   71.3990  225.3150 C   0  0  0  0  0  0  0  0  0  0  0  0
  138.7080   74.9810  220.6340 C   0  0  0  0  0  0  0  0  0  0  0  0
  140.0250   75.5210  221.2260 C   0  0  0  0  0  0  0  0  0  0  0  0
  142.6325   80.6196  224.5759 H   0  0  0  0  0  0  0  0  0  0  0  0
  143.2124   79.9066  223.0325 H   0  0  0  0  0  0  0  0  0  0  0  0
  142.4006   81.5090  223.0325 H   0  0  0  0  0  0  0  0  0  0  0  0
  140.4708   79.9488  224.2209 H   0  0  0  0  0  0  0  0  0  0  0  0
  140.5454   80.2879  222.4617 H   0  0  0  0  0  0  0  0  0  0  0  0
  140.8601   80.1167  220.5078 H   0  0  0  0  0  0  0  0  0  0  0  0
  141.9656   80.6786  218.3808 H   0  0  0  0  0  0  0  0  0  0  0  0
  143.3132   79.0099  217.1567 H   0  0  0  0  0  0  0  0  0  0  0  0
  143.5440   76.7290  218.1194 H   0  0  0  0  0  0  0  0  0  0  0  0
  142.4399   76.1568  220.2504 H   0  0  0  0  0  0  0  0  0  0  0  0
  139.7757   76.5725  222.9243 H   0  0  0  0  0  0  0  0  0  0  0  0
  138.3701   78.4326  222.1342 H   0  0  0  0  0  0  0  0  0  0  0  0
  138.2800   77.6727  220.5452 H   0  0  0  0  0  0  0  0  0  0  0  0
  137.4919   76.4725  223.2778 H   0  0  0  0  0  0  0  0  0  0  0  0
  136.4328   76.7355  221.8414 H   0  0  0  0  0  0  0  0  0  0  0  0
  138.0622   72.4639  221.0546 H   0  0  0  0  0  0  0  0  0  0  0  0
  135.3406   71.8929  222.2697 H   0  0  0  0  0  0  0  0  0  0  0  0
  135.4965   72.9010  220.7912 H   0  0  0  0  0  0  0  0  0  0  0  0
  136.0964   71.2079  220.7912 H   0  0  0  0  0  0  0  0  0  0  0  0
  137.7330   72.5400  223.8430 H   0  0  0  0  0  0  0  0  0  0  0  0
  140.5628   72.7838  223.7349 H   0  0  0  0  0  0  0  0  0  0  0  0
  141.0655   72.0160  222.1908 H   0  0  0  0  0  0  0  0  0  0  0  0
  139.7936   73.2844  222.1908 H   0  0  0  0  0  0  0  0  0  0  0  0
  139.4244   69.3325  222.3906 H   0  0  0  0  0  0  0  0  0  0  0  0
  138.3920   70.2854  221.2713 H   0  0  0  0  0  0  0  0  0  0  0  0
  140.1727   70.5215  221.2713 H   0  0  0  0  0  0  0  0  0  0  0  0
  138.7571   68.7744  223.6306 H   0  0  0  0  0  0  0  0  0  0  0  0
  139.2396   67.6599  225.7736 H   0  0  0  0  0  0  0  0  0  0  0  0
  140.2230   68.9657  227.6710 H   0  0  0  0  0  0  0  0  0  0  0  0
  140.2171   72.4699  225.1951 H   0  0  0  0  0  0  0  0  0  0  0  0
  138.8163   73.9255  220.3438 H   0  0  0  0  0  0  0  0  0  0  0  0
  138.4051   75.5226  219.7257 H   0  0  0  0  0  0  0  0  0  0  0  0
  140.3981   74.8153  221.9828 H   0  0  0  0  0  0  0  0  0  0  0  0
  140.7607   75.6315  220.4158 H   0  0  0  0  0  0  0  0  0  0  0  0
  1  2  1  0
  2  3  1  0
  3  4  2  0
  3  5  1  0
  5  6  1  0
  6  7  2  0
  7  8  1  0
  8  9  2  0
  9 10  1  0
 10 11  2  0
  5 12  1  0
 12 13  1  0
 13 14  1  0
 14 15  1  0
 15 16  1  0
 16 17  2  0
 16 18  1  0
 18 19  1  0
 18 20  1  0
 20 21  1  0
 21 22  1  0
 21 23  1  0
 21 24  1  0
 24 25  2  0
 25 26  1  0
 26 27  2  0
 27 28  1  0
 28 29  1  0
 28 30  2  0
 15 31  1  0
 31 32  1  0
 11  6  1  0
 32 12  1  0
 30 24  1  0
  1 33  1  0
  1 34  1  0
  1 35  1  0
  2 36  1  0
  2 37  1  0
  7 38  1  0
  8 39  1  0
  9 40  1  0
 10 41  1  0
 11 42  1  0
 12 43  1  0
 13 44  1  0
 13 45  1  0
 14 46  1  0
 14 47  1  0
 18 48  1  6
 19 49  1  0
 19 50  1  0
 19 51  1  0
 20 52  1  0
 22 53  1  0
 22 54  1  0
 22 55  1  0
 23 56  1  0
 23 57  1  0
 23 58  1  0
 25 59  1  0
 26 60  1  0
 27 61  1  0
 30 62  1  0
 31 63  1  0
 31 64  1  0
 32 65  1  0
 32 66  1  0
M  END
>  <smiles>  (38) 
CCC(=O)N(c1ccccc1)C1CCN(C(=O)[C@H](C)NC(C)(C)c2cccc(Br)c2)CC1

>  <score_type>  (38) 
oracle

>  <origin>  (38) 
autodockgpu

>  <m_score__min__energy>  (38) 
-8.9299999999999997

>  <m_primary>  (38) 
energy

>  <rmsd>  (38) 
8.293982740172451

>  <m_score__min__rmsd>  (38) 
8.293982740172451

>  <meeko>  (38) 
{"free_energy": -8.08, "intermolecular_energy": -10.47, "internal_energy": -2.62, "cluster_size": 16, "cluster_id": 2, "rank_in_cluster": 7}

>  <energy>  (38) 
-7.77

>  <cluster_rmsd>  (38) 
0.0

>  <cluster>  (38) 
9

$$$$

     RDKit          3D

 66 68  0  0  0  0  0  0  0  0999 V2000
  146.6950   73.3880  221.7930 C   0  0  0  0  0  0  0  0  0  0  0  0
  145.6640   74.0130  220.8620 C   0  0  0  0  0  0  0  0  0  0  0  0
  145.4830   73.1200  219.6540 C   0  0  0  0  0  0  0  0  0  0  0  0
  146.3330   73.3120  218.7570 O   0  0  0  0  0  0  0  0  0  0  0  0
  144.4220   72.1670  219.6020 N   0  0  0  0  0  0  0  0  0  0  0  0
  144.5990   70.8190  219.1910 C   0  0  0  0  0  0  0  0  0  0  0  0
  144.1580   69.7680  219.9980 C   0  0  0  0  0  0  0  0  0  0  0  0
  144.3130   68.4400  219.6150 C   0  0  0  0  0  0  0  0  0  0  0  0
  144.9030   68.0990  218.4310 C   0  0  0  0  0  0  0  0  0  0  0  0
  145.3430   69.1120  217.6180 C   0  0  0  0  0  0  0  0  0  0  0  0
  145.1880   70.4450  218.0040 C   0  0  0  0  0  0  0  0  0  0  0  0
  143.1170   72.6700  220.0040 C   0  0  0  0  0  0  0  0  0  0  0  0
  142.8900   74.1300  219.6960 C   0  0  0  0  0  0  0  0  0  0  0  0
  141.7100   74.5440  220.5910 C   0  0  0  0  0  0  0  0  0  0  0  0
  140.6300   73.5850  220.4830 N   0  0  0  0  0  0  0  0  0  0  0  0
  139.5780   73.6450  221.4330 C   0  0  0  0  0  0  0  0  0  0  0  0
  139.6620   74.5130  222.3380 O   0  0  0  0  0  0  0  0  0  0  0  0
  138.4000   72.6930  221.3600 C   0  0  2  0  0  0  0  0  0  0  0  0
  137.1990   73.5930  221.0880 C   0  0  0  0  0  0  0  0  0  0  0  0
  138.3600   72.0310  222.6200 N   0  0  0  0  0  0  0  0  0  0  0  0
  138.9770   70.7590  222.7250 C   0  0  0  0  0  0  0  0  0  0  0  0
  140.3230   70.6960  222.0280 C   0  0  0  0  0  0  0  0  0  0  0  0
  138.0990   69.6440  222.2680 C   0  0  0  0  0  0  0  0  0  0  0  0
  139.2520   70.5010  224.1830 C   0  0  0  0  0  0  0  0  0  0  0  0
  138.6940   69.4080  224.8340 C   0  0  0  0  0  0  0  0  0  0  0  0
  138.9320   69.1500  226.1690 C   0  0  0  0  0  0  0  0  0  0  0  0
  139.7500   70.0000  226.9050 C   0  0  0  0  0  0  0  0  0  0  0  0
  140.3090   71.0890  226.2700 C   0  0  0  0  0  0  0  0  0  0  0  0
  141.4200   72.2590  227.2500 Br  0  0  0  0  0  0  0  0  0  0  0  0
  140.0580   71.3240  224.9360 C   0  0  0  0  0  0  0  0  0  0  0  0
  140.7020   72.5990  219.4210 C   0  0  0  0  0  0  0  0  0  0  0  0
  141.9640   71.7740  219.7430 C   0  0  0  0  0  0  0  0  0  0  0  0
  146.4011   73.5661  222.8379 H   0  0  0  0  0  0  0  0  0  0  0  0
  146.7486   72.3052  221.6067 H   0  0  0  0  0  0  0  0  0  0  0  0
  147.6798   73.8413  221.6067 H   0  0  0  0  0  0  0  0  0  0  0  0
  144.7050   74.1165  221.3907 H   0  0  0  0  0  0  0  0  0  0  0  0
  146.0090   75.0067  220.5403 H   0  0  0  0  0  0  0  0  0  0  0  0
  143.6762   69.9961  220.9602 H   0  0  0  0  0  0  0  0  0  0  0  0
  143.9513   67.6440  220.2825 H   0  0  0  0  0  0  0  0  0  0  0  0
  145.0214   67.0451  218.1389 H   0  0  0  0  0  0  0  0  0  0  0  0
  145.8207   68.8731  216.6564 H   0  0  0  0  0  0  0  0  0  0  0  0
  145.5533   71.2326  217.3286 H   0  0  0  0  0  0  0  0  0  0  0  0
  143.1688   72.6405  221.1024 H   0  0  0  0  0  0  0  0  0  0  0  0
  143.7857   74.7206  219.9387 H   0  0  0  0  0  0  0  0  0  0  0  0
  142.6809   74.3008  218.6296 H   0  0  0  0  0  0  0  0  0  0  0  0
  142.0482   74.5919  221.6366 H   0  0  0  0  0  0  0  0  0  0  0  0
  141.3448   75.5290  220.2648 H   0  0  0  0  0  0  0  0  0  0  0  0
  138.4398   71.9166  220.5818 H   0  0  0  0  0  0  0  0  0  0  0  0
  136.7623   73.9203  222.0431 H   0  0  0  0  0  0  0  0  0  0  0  0
  137.5229   74.4726  220.5124 H   0  0  0  0  0  0  0  0  0  0  0  0
  136.4457   73.0352  220.5124 H   0  0  0  0  0  0  0  0  0  0  0  0
  138.7360   72.7010  223.3430 H   0  0  0  0  0  0  0  0  0  0  0  0
  141.1243   70.6585  222.7807 H   0  0  0  0  0  0  0  0  0  0  0  0
  140.3683   69.7947  221.3990 H   0  0  0  0  0  0  0  0  0  0  0  0
  140.4523   71.5891  221.3990 H   0  0  0  0  0  0  0  0  0  0  0  0
  137.6864   69.1200  223.1428 H   0  0  0  0  0  0  0  0  0  0  0  0
  137.2758   70.0503  221.6620 H   0  0  0  0  0  0  0  0  0  0  0  0
  138.6870   68.9390  221.6620 H   0  0  0  0  0  0  0  0  0  0  0  0
  138.0419   68.7266  224.2678 H   0  0  0  0  0  0  0  0  0  0  0  0
  138.4749   68.2727  226.6502 H   0  0  0  0  0  0  0  0  0  0  0  0
  139.9468   69.8080  227.9701 H   0  0  0  0  0  0  0  0  0  0  0  0
  140.5180   72.2003  224.4558 H   0  0  0  0  0  0  0  0  0  0  0  0
  139.8077   71.9584  219.4243 H   0  0  0  0  0  0  0  0  0  0  0  0
  140.7485   73.0616  218.4241 H   0  0  0  0  0  0  0  0  0  0  0  0
  141.7758   71.1571  220.6341 H   0  0  0  0  0  0  0  0  0  0  0  0
  142.1996   71.1325  218.8810 H   0  0  0  0  0  0  0  0  0  0  0  0
  1  2  1  0
  2  3  1  0
  3  4  2  0
  3  5  1  0
  5  6  1  0
  6  7  2  0
  7  8  1  0
  8  9  2  0
  9 10  1  0
 10 11  2  0
  5 12  1  0
 12 13  1  0
 13 14  1  0
 14 15  1  0
 15 16  1  0
 16 17  2  0
 16 18  1  0
 18 19  1  0
 18 20  1  0
 20 21  1  0
 21 22  1  0
 21 23  1  0
 21 24  1  0
 24 25  2  0
 25 26  1  0
 26 27  2  0
 27 28  1  0
 28 29  1  0
 28 30  2  0
 15 31  1  0
 31 32  1  0
 11  6  1  0
 32 12  1  0
 30 24  1  0
  1 33  1  0
  1 34  1  0
  1 35  1  0
  2 36  1  0
  2 37  1  0
  7 38  1  0
  8 39  1  0
  9 40  1  0
 10 41  1  0
 11 42  1  0
 12 43  1  0
 13 44  1  0
 13 45  1  0
 14 46  1  0
 14 47  1  0
 18 48  1  6
 19 49  1  0
 19 50  1  0
 19 51  1  0
 20 52  1  0
 22 53  1  0
 22 54  1  0
 22 55  1  0
 23 56  1  0
 23 57  1  0
 23 58  1  0
 25 59  1  0
 26 60  1  0
 27 61  1  0
 30 62  1  0
 31 63  1  0
 31 64  1  0
 32 65  1  0
 32 66  1  0
M  END
>  <smiles>  (39) 
CCC(=O)N(c1ccccc1)C1CCN(C(=O)[C@H](C)NC(C)(C)c2cccc(Br)c2)CC1

>  <score_type>  (39) 
oracle

>  <origin>  (39) 
autodockgpu

>  <m_score__min__energy>  (39) 
-8.9299999999999997

>  <m_primary>  (39) 
energy

>  <rmsd>  (39) 
8.481975979016376

>  <m_score__min__rmsd>  (39) 
8.481975979016376

>  <meeko>  (39) 
{"free_energy": -8.41, "intermolecular_energy": -10.8, "internal_energy": -2.45, "cluster_size": 5, "cluster_id": 1, "rank_in_cluster": 4}

>  <energy>  (39) 
-7.69

>  <cluster_rmsd>  (39) 
0.1

>  <cluster>  (39) 
9

$$$$

     RDKit          3D

 66 68  0  0  0  0  0  0  0  0999 V2000
  139.9520   71.7230  221.6720 C   0  0  0  0  0  0  0  0  0  0  0  0
  140.4370   72.6670  220.5790 C   0  0  0  0  0  0  0  0  0  0  0  0
  141.1780   73.8220  221.2160 C   0  0  0  0  0  0  0  0  0  0  0  0
  140.6950   74.1830  222.3120 O   0  0  0  0  0  0  0  0  0  0  0  0
  142.3140   74.4030  220.5770 N   0  0  0  0  0  0  0  0  0  0  0  0
  143.5260   73.7010  220.3430 C   0  0  0  0  0  0  0  0  0  0  0  0
  144.7380   74.1950  220.8310 C   0  0  0  0  0  0  0  0  0  0  0  0
  145.9370   73.5220  220.6210 C   0  0  0  0  0  0  0  0  0  0  0  0
  145.9880   72.3460  219.9300 C   0  0  0  0  0  0  0  0  0  0  0  0
  144.8120   71.8370  219.4410 C   0  0  0  0  0  0  0  0  0  0  0  0
  143.6090   72.5130  219.6510 C   0  0  0  0  0  0  0  0  0  0  0  0
  142.1540   75.7910  220.1680 C   0  0  0  0  0  0  0  0  0  0  0  0
  142.2230   76.0120  218.6760 C   0  0  0  0  0  0  0  0  0  0  0  0
  142.5030   77.5160  218.5130 C   0  0  0  0  0  0  0  0  0  0  0  0
  141.6010   78.2930  219.3390 N   0  0  0  0  0  0  0  0  0  0  0  0
  141.8840   79.6690  219.5340 C   0  0  0  0  0  0  0  0  0  0  0  0
  142.9250   80.1290  219.0000 O   0  0  0  0  0  0  0  0  0  0  0  0
  140.9670   80.5490  220.3600 C   0  0  2  0  0  0  0  0  0  0  0  0
  140.4150   81.5650  219.3650 C   0  0  0  0  0  0  0  0  0  0  0  0
  141.7870   81.1140  221.3770 N   0  0  0  0  0  0  0  0  0  0  0  0
  141.7530   80.5230  222.6660 C   0  0  0  0  0  0  0  0  0  0  0  0
  142.1470   81.4870  223.7680 C   0  0  0  0  0  0  0  0  0  0  0  0
  142.5560   79.2700  222.7550 C   0  0  0  0  0  0  0  0  0  0  0  0
  140.3280   80.1250  222.9510 C   0  0  0  0  0  0  0  0  0  0  0  0
  139.4120   81.0460  223.4400 C   0  0  0  0  0  0  0  0  0  0  0  0
  138.1020   80.7050  223.7080 C   0  0  0  0  0  0  0  0  0  0  0  0
  137.6650   79.4030  223.4900 C   0  0  0  0  0  0  0  0  0  0  0  0
  138.5670   78.4780  223.0060 C   0  0  0  0  0  0  0  0  0  0  0  0
  137.9970   76.7040  222.7070 Br  0  0  0  0  0  0  0  0  0  0  0  0
  139.8690   78.8430  222.7440 C   0  0  0  0  0  0  0  0  0  0  0  0
  140.4740   77.6080  219.9420 C   0  0  0  0  0  0  0  0  0  0  0  0
  141.1110   76.5660  220.8830 C   0  0  0  0  0  0  0  0  0  0  0  0
  140.1753   72.1576  222.6575 H   0  0  0  0  0  0  0  0  0  0  0  0
  138.8664   71.5753  221.5738 H   0  0  0  0  0  0  0  0  0  0  0  0
  140.4641   70.7545  221.5738 H   0  0  0  0  0  0  0  0  0  0  0  0
  141.1116   72.1270  219.8984 H   0  0  0  0  0  0  0  0  0  0  0  0
  139.5766   73.0476  220.0091 H   0  0  0  0  0  0  0  0  0  0  0  0
  144.7444   75.1393  221.3951 H   0  0  0  0  0  0  0  0  0  0  0  0
  146.8682   73.9485  221.0222 H   0  0  0  0  0  0  0  0  0  0  0  0
  146.9424   71.8229  219.7703 H   0  0  0  0  0  0  0  0  0  0  0  0
  144.8169   70.8907  218.8802 H   0  0  0  0  0  0  0  0  0  0  0  0
  142.6844   72.0768  219.2450 H   0  0  0  0  0  0  0  0  0  0  0  0
  143.0710   76.2674  220.5450 H   0  0  0  0  0  0  0  0  0  0  0  0
  143.0352   75.4166  218.2334 H   0  0  0  0  0  0  0  0  0  0  0  0
  141.2969   75.7050  218.1679 H   0  0  0  0  0  0  0  0  0  0  0  0
  143.5402   77.7257  218.8135 H   0  0  0  0  0  0  0  0  0  0  0  0
  142.3495   77.7942  217.4599 H   0  0  0  0  0  0  0  0  0  0  0  0
  140.1218   80.0513  220.8580 H   0  0  0  0  0  0  0  0  0  0  0  0
  139.9594   82.4036  219.9119 H   0  0  0  0  0  0  0  0  0  0  0  0
  141.2330   81.9408  218.7328 H   0  0  0  0  0  0  0  0  0  0  0  0
  139.6546   81.0832  218.7328 H   0  0  0  0  0  0  0  0  0  0  0  0
  142.7710   81.1620  221.0020 H   0  0  0  0  0  0  0  0  0  0  0  0
  141.9571   81.0224  224.7468 H   0  0  0  0  0  0  0  0  0  0  0  0
  143.2163   81.7292  223.6783 H   0  0  0  0  0  0  0  0  0  0  0  0
  141.5535   82.4088  223.6783 H   0  0  0  0  0  0  0  0  0  0  0  0
  142.7201   79.0140  223.8121 H   0  0  0  0  0  0  0  0  0  0  0  0
  142.0140   78.4512  222.2593 H   0  0  0  0  0  0  0  0  0  0  0  0
  143.5264   79.4204  222.2593 H   0  0  0  0  0  0  0  0  0  0  0  0
  139.7406   82.0803  223.6196 H   0  0  0  0  0  0  0  0  0  0  0  0
  137.4039   81.4626  224.0938 H   0  0  0  0  0  0  0  0  0  0  0  0
  136.6235   79.1170  223.6988 H   0  0  0  0  0  0  0  0  0  0  0  0
  140.5657   78.0851  222.3564 H   0  0  0  0  0  0  0  0  0  0  0  0
  139.8492   78.3133  220.5096 H   0  0  0  0  0  0  0  0  0  0  0  0
  139.8164   77.1455  219.1912 H   0  0  0  0  0  0  0  0  0  0  0  0
  141.5675   77.0830  221.7399 H   0  0  0  0  0  0  0  0  0  0  0  0
  140.3291   75.8748  221.2306 H   0  0  0  0  0  0  0  0  0  0  0  0
  1  2  1  0
  2  3  1  0
  3  4  2  0
  3  5  1  0
  5  6  1  0
  6  7  2  0
  7  8  1  0
  8  9  2  0
  9 10  1  0
 10 11  2  0
  5 12  1  0
 12 13  1  0
 13 14  1  0
 14 15  1  0
 15 16  1  0
 16 17  2  0
 16 18  1  0
 18 19  1  0
 18 20  1  0
 20 21  1  0
 21 22  1  0
 21 23  1  0
 21 24  1  0
 24 25  2  0
 25 26  1  0
 26 27  2  0
 27 28  1  0
 28 29  1  0
 28 30  2  0
 15 31  1  0
 31 32  1  0
 11  6  1  0
 32 12  1  0
 30 24  1  0
  1 33  1  0
  1 34  1  0
  1 35  1  0
  2 36  1  0
  2 37  1  0
  7 38  1  0
  8 39  1  0
  9 40  1  0
 10 41  1  0
 11 42  1  0
 12 43  1  0
 13 44  1  0
 13 45  1  0
 14 46  1  0
 14 47  1  0
 18 48  1  1
 19 49  1  0
 19 50  1  0
 19 51  1  0
 20 52  1  0
 22 53  1  0
 22 54  1  0
 22 55  1  0
 23 56  1  0
 23 57  1  0
 23 58  1  0
 25 59  1  0
 26 60  1  0
 27 61  1  0
 30 62  1  0
 31 63  1  0
 31 64  1  0
 32 65  1  0
 32 66  1  0
M  END
>  <smiles>  (40) 
CCC(=O)N(c1ccccc1)C1CCN(C(=O)[C@H](C)NC(C)(C)c2cccc(Br)c2)CC1

>  <score_type>  (40) 
oracle

>  <origin>  (40) 
autodockgpu

>  <m_score__min__energy>  (40) 
-8.9299999999999997

>  <m_primary>  (40) 
energy

>  <rmsd>  (40) 
3.4135631948240572

>  <m_score__min__rmsd>  (40) 
3.4135631948240572

>  <meeko>  (40) 
{"free_energy": -7.37, "intermolecular_energy": -9.76, "internal_energy": -3.31, "cluster_size": 10, "cluster_id": 9, "rank_in_cluster": 7}

>  <energy>  (40) 
-7.61

>  <cluster_rmsd>  (40) 
0.11

>  <cluster>  (40) 
9

$$$$

     RDKit          3D

 66 68  0  0  0  0  0  0  0  0999 V2000
  143.1680   75.5870  219.7630 C   0  0  0  0  0  0  0  0  0  0  0  0
  142.9780   77.0240  219.2940 C   0  0  0  0  0  0  0  0  0  0  0  0
  141.5280   77.4170  219.4810 C   0  0  0  0  0  0  0  0  0  0  0  0
  140.9270   77.6350  218.4060 O   0  0  0  0  0  0  0  0  0  0  0  0
  140.9600   77.5150  220.7860 N   0  0  0  0  0  0  0  0  0  0  0  0
  141.4120   78.4330  221.7710 C   0  0  0  0  0  0  0  0  0  0  0  0
  141.3130   78.1240  223.1290 C   0  0  0  0  0  0  0  0  0  0  0  0
  141.7550   79.0030  224.1110 C   0  0  0  0  0  0  0  0  0  0  0  0
  142.3080   80.2120  223.7960 C   0  0  0  0  0  0  0  0  0  0  0  0
  142.4190   80.5410  222.4690 C   0  0  0  0  0  0  0  0  0  0  0  0
  141.9740   79.6580  221.4840 C   0  0  0  0  0  0  0  0  0  0  0  0
  139.8640   76.5960  221.0570 C   0  0  0  0  0  0  0  0  0  0  0  0
  138.4910   77.1980  220.8860 C   0  0  0  0  0  0  0  0  0  0  0  0
  137.5480   76.2520  221.6490 C   0  0  0  0  0  0  0  0  0  0  0  0
  137.8060   74.8750  221.2850 N   0  0  0  0  0  0  0  0  0  0  0  0
  137.2330   73.8490  222.0800 C   0  0  0  0  0  0  0  0  0  0  0  0
  136.5560   74.2000  223.0800 O   0  0  0  0  0  0  0  0  0  0  0  0
  137.4350   72.3860  221.7380 C   0  0  2  0  0  0  0  0  0  0  0  0
  136.0690   71.9150  221.2520 C   0  0  0  0  0  0  0  0  0  0  0  0
  137.8720   71.7650  222.9420 N   0  0  0  0  0  0  0  0  0  0  0  0
  139.1920   71.2490  222.9860 C   0  0  0  0  0  0  0  0  0  0  0  0
  140.2530   72.3270  222.8770 C   0  0  0  0  0  0  0  0  0  0  0  0
  139.4330   70.1750  221.9800 C   0  0  0  0  0  0  0  0  0  0  0  0
  139.3900   70.6070  224.3340 C   0  0  0  0  0  0  0  0  0  0  0  0
  138.9340   69.3190  224.5880 C   0  0  0  0  0  0  0  0  0  0  0  0
  139.1030   68.7100  225.8150 C   0  0  0  0  0  0  0  0  0  0  0  0
  139.7470   69.3890  226.8440 C   0  0  0  0  0  0  0  0  0  0  0  0
  140.2030   70.6690  226.6040 C   0  0  0  0  0  0  0  0  0  0  0  0
  141.0750   71.6110  227.9870 Br  0  0  0  0  0  0  0  0  0  0  0  0
  140.0230   71.2550  225.3710 C   0  0  0  0  0  0  0  0  0  0  0  0
  138.6600   74.6250  220.1390 C   0  0  0  0  0  0  0  0  0  0  0  0
  140.0270   75.2150  220.5390 C   0  0  0  0  0  0  0  0  0  0  0  0
  143.1719   75.5577  220.8626 H   0  0  0  0  0  0  0  0  0  0  0  0
  142.3443   74.9652  219.3825 H   0  0  0  0  0  0  0  0  0  0  0  0
  144.1250   75.2006  219.3825 H   0  0  0  0  0  0  0  0  0  0  0  0
  143.6204   77.6928  219.8856 H   0  0  0  0  0  0  0  0  0  0  0  0
  143.2510   77.1069  218.2317 H   0  0  0  0  0  0  0  0  0  0  0  0
  140.8743   77.1610  223.4293 H   0  0  0  0  0  0  0  0  0  0  0  0
  141.6570   78.7179  225.1689 H   0  0  0  0  0  0  0  0  0  0  0  0
  142.6533   80.8999  224.5818 H   0  0  0  0  0  0  0  0  0  0  0  0
  142.8611   81.5058  222.1796 H   0  0  0  0  0  0  0  0  0  0  0  0
  142.0767   79.9537  220.4295 H   0  0  0  0  0  0  0  0  0  0  0  0
  139.9430   76.4294  222.1415 H   0  0  0  0  0  0  0  0  0  0  0  0
  138.4555   78.2099  221.3159 H   0  0  0  0  0  0  0  0  0  0  0  0
  138.2108   77.2976  219.8270 H   0  0  0  0  0  0  0  0  0  0  0  0
  137.7079   76.3764  222.7302 H   0  0  0  0  0  0  0  0  0  0  0  0
  136.5086   76.4997  221.3877 H   0  0  0  0  0  0  0  0  0  0  0  0
  138.1803   72.1592  220.9614 H   0  0  0  0  0  0  0  0  0  0  0  0
  135.4279   71.6939  222.1181 H   0  0  0  0  0  0  0  0  0  0  0  0
  135.6040   72.7047  220.6436 H   0  0  0  0  0  0  0  0  0  0  0  0
  136.1895   71.0065  220.6436 H   0  0  0  0  0  0  0  0  0  0  0  0
  137.6990   72.4440  223.7310 H   0  0  0  0  0  0  0  0  0  0  0  0
  140.5618   72.6408  223.8851 H   0  0  0  0  0  0  0  0  0  0  0  0
  141.1235   71.9311  222.3334 H   0  0  0  0  0  0  0  0  0  0  0  0
  139.8433   73.1911  222.3334 H   0  0  0  0  0  0  0  0  0  0  0  0
  139.6454   69.2282  222.4982 H   0  0  0  0  0  0  0  0  0  0  0  0
  138.5393   70.0556  221.3499 H   0  0  0  0  0  0  0  0  0  0  0  0
  140.2920   70.4489  221.3499 H   0  0  0  0  0  0  0  0  0  0  0  0
  138.4222   68.7674  223.7857 H   0  0  0  0  0  0  0  0  0  0  0  0
  138.7288   67.6887  225.9789 H   0  0  0  0  0  0  0  0  0  0  0  0
  139.8896   68.9162  227.8269 H   0  0  0  0  0  0  0  0  0  0  0  0
  140.3979   72.2763  225.2088 H   0  0  0  0  0  0  0  0  0  0  0  0
  138.7443   73.5455  219.9453 H   0  0  0  0  0  0  0  0  0  0  0  0
  138.2642   75.0753  219.2168 H   0  0  0  0  0  0  0  0  0  0  0  0
  140.4784   74.5859  221.3204 H   0  0  0  0  0  0  0  0  0  0  0  0
  140.6770   75.2415  219.6520 H   0  0  0  0  0  0  0  0  0  0  0  0
  1  2  1  0
  2  3  1  0
  3  4  2  0
  3  5  1  0
  5  6  1  0
  6  7  2  0
  7  8  1  0
  8  9  2  0
  9 10  1  0
 10 11  2  0
  5 12  1  0
 12 13  1  0
 13 14  1  0
 14 15  1  0
 15 16  1  0
 16 17  2  0
 16 18  1  0
 18 19  1  0
 18 20  1  0
 20 21  1  0
 21 22  1  0
 21 23  1  0
 21 24  1  0
 24 25  2  0
 25 26  1  0
 26 27  2  0
 27 28  1  0
 28 29  1  0
 28 30  2  0
 15 31  1  0
 31 32  1  0
 11  6  1  0
 32 12  1  0
 30 24  1  0
  1 33  1  0
  1 34  1  0
  1 35  1  0
  2 36  1  0
  2 37  1  0
  7 38  1  0
  8 39  1  0
  9 40  1  0
 10 41  1  0
 11 42  1  0
 12 43  1  0
 13 44  1  0
 13 45  1  0
 14 46  1  0
 14 47  1  0
 18 48  1  6
 19 49  1  0
 19 50  1  0
 19 51  1  0
 20 52  1  0
 22 53  1  0
 22 54  1  0
 22 55  1  0
 23 56  1  0
 23 57  1  0
 23 58  1  0
 25 59  1  0
 26 60  1  0
 27 61  1  0
 30 62  1  0
 31 63  1  0
 31 64  1  0
 32 65  1  0
 32 66  1  0
M  END
>  <smiles>  (41) 
CCC(=O)N(c1ccccc1)C1CCN(C(=O)[C@H](C)NC(C)(C)c2cccc(Br)c2)CC1

>  <score_type>  (41) 
oracle

>  <origin>  (41) 
autodockgpu

>  <m_score__min__energy>  (41) 
-8.9299999999999997

>  <m_primary>  (41) 
energy

>  <rmsd>  (41) 
8.257457191522164

>  <m_score__min__rmsd>  (41) 
8.257457191522164

>  <meeko>  (41) 
{"free_energy": -7.96, "intermolecular_energy": -10.35, "internal_energy": -2.84, "cluster_size": 16, "cluster_id": 2, "rank_in_cluster": 11}

>  <energy>  (41) 
-7.54

>  <cluster_rmsd>  (41) 
0.4

>  <cluster>  (41) 
9

$$$$

     RDKit          3D

 66 68  0  0  0  0  0  0  0  0999 V2000
  137.6030   74.7360  221.9580 C   0  0  0  0  0  0  0  0  0  0  0  0
  137.2480   73.2990  222.3150 C   0  0  0  0  0  0  0  0  0  0  0  0
  138.2430   72.3670  221.6570 C   0  0  0  0  0  0  0  0  0  0  0  0
  137.7900   71.7810  220.6500 O   0  0  0  0  0  0  0  0  0  0  0  0
  139.5600   72.2130  222.1860 N   0  0  0  0  0  0  0  0  0  0  0  0
  139.8500   71.4710  223.3620 C   0  0  0  0  0  0  0  0  0  0  0  0
  139.2820   70.2110  223.5640 C   0  0  0  0  0  0  0  0  0  0  0  0
  139.5560   69.4620  224.7030 C   0  0  0  0  0  0  0  0  0  0  0  0
  140.3930   69.9220  225.6800 C   0  0  0  0  0  0  0  0  0  0  0  0
  140.9660   71.1560  225.5060 C   0  0  0  0  0  0  0  0  0  0  0  0
  140.6900   71.9070  224.3630 C   0  0  0  0  0  0  0  0  0  0  0  0
  140.6130   72.8770  221.4330 C   0  0  0  0  0  0  0  0  0  0  0  0
  141.8590   72.0470  221.2410 C   0  0  0  0  0  0  0  0  0  0  0  0
  142.9550   73.0600  220.8660 C   0  0  0  0  0  0  0  0  0  0  0  0
  142.4870   73.9510  219.8240 N   0  0  0  0  0  0  0  0  0  0  0  0
  143.2460   75.1160  219.5440 C   0  0  0  0  0  0  0  0  0  0  0  0
  144.2710   75.3240  220.2430 O   0  0  0  0  0  0  0  0  0  0  0  0
  142.8340   76.0760  218.4450 C   0  0  2  0  0  0  0  0  0  0  0  0
  143.7010   75.6870  217.2530 C   0  0  0  0  0  0  0  0  0  0  0  0
  143.0920   77.3800  218.9550 N   0  0  0  0  0  0  0  0  0  0  0  0
  141.9850   78.2250  219.2180 C   0  0  0  0  0  0  0  0  0  0  0  0
  140.6880   77.6970  218.6360 C   0  0  0  0  0  0  0  0  0  0  0  0
  142.2130   79.6360  218.7950 C   0  0  0  0  0  0  0  0  0  0  0  0
  141.7840   78.2660  220.7110 C   0  0  0  0  0  0  0  0  0  0  0  0
  141.1750   77.2130  221.3810 C   0  0  0  0  0  0  0  0  0  0  0  0
  140.9810   77.2270  222.7470 C   0  0  0  0  0  0  0  0  0  0  0  0
  141.3990   78.3220  223.4960 C   0  0  0  0  0  0  0  0  0  0  0  0
  142.0040   79.3750  222.8420 C   0  0  0  0  0  0  0  0  0  0  0  0
  142.5750   80.8730  223.8370 Br  0  0  0  0  0  0  0  0  0  0  0  0
  142.1880   79.3370  221.4770 C   0  0  0  0  0  0  0  0  0  0  0  0
  141.2510   73.6120  219.1460 C   0  0  0  0  0  0  0  0  0  0  0  0
  140.1760   73.6590  220.2510 C   0  0  0  0  0  0  0  0  0  0  0  0
  137.7468   75.3181  222.8802 H   0  0  0  0  0  0  0  0  0  0  0  0
  138.5313   74.7486  221.3679 H   0  0  0  0  0  0  0  0  0  0  0  0
  136.7874   75.1794  221.3679 H   0  0  0  0  0  0  0  0  0  0  0  0
  137.2878   73.1697  223.4066 H   0  0  0  0  0  0  0  0  0  0  0  0
  136.2325   73.0683  221.9607 H   0  0  0  0  0  0  0  0  0  0  0  0
  138.6012   69.8012  222.8033 H   0  0  0  0  0  0  0  0  0  0  0  0
  139.0869   68.4740  224.8205 H   0  0  0  0  0  0  0  0  0  0  0  0
  140.6008   69.3216  226.5779 H   0  0  0  0  0  0  0  0  0  0  0  0
  141.6469   71.5558  226.2719 H   0  0  0  0  0  0  0  0  0  0  0  0
  141.1653   72.8932  224.2562 H   0  0  0  0  0  0  0  0  0  0  0  0
  140.9359   73.6787  222.1135 H   0  0  0  0  0  0  0  0  0  0  0  0
  142.1204   71.5203  222.1707 H   0  0  0  0  0  0  0  0  0  0  0  0
  141.7273   71.2744  220.4692 H   0  0  0  0  0  0  0  0  0  0  0  0
  143.2214   73.6508  221.7548 H   0  0  0  0  0  0  0  0  0  0  0  0
  143.8348   72.5122  220.4972 H   0  0  0  0  0  0  0  0  0  0  0  0
  141.7792   76.0475  218.1342 H   0  0  0  0  0  0  0  0  0  0  0  0
  144.6494   75.2615  217.6128 H   0  0  0  0  0  0  0  0  0  0  0  0
  143.1719   74.9400  216.6431 H   0  0  0  0  0  0  0  0  0  0  0  0
  143.9073   76.5789  216.6431 H   0  0  0  0  0  0  0  0  0  0  0  0
  143.7050   77.2730  219.8070 H   0  0  0  0  0  0  0  0  0  0  0  0
  140.0058   77.4193  219.4530 H   0  0  0  0  0  0  0  0  0  0  0  0
  140.2201   78.4762  218.0164 H   0  0  0  0  0  0  0  0  0  0  0  0
  140.8974   76.8125  218.0164 H   0  0  0  0  0  0  0  0  0  0  0  0
  142.3160   80.2736  219.6854 H   0  0  0  0  0  0  0  0  0  0  0  0
  143.1323   79.6946  218.1937 H   0  0  0  0  0  0  0  0  0  0  0  0
  141.3590   79.9811  218.1937 H   0  0  0  0  0  0  0  0  0  0  0  0
  140.8364   76.3397  220.8042 H   0  0  0  0  0  0  0  0  0  0  0  0
  140.4963   76.3732  223.2431 H   0  0  0  0  0  0  0  0  0  0  0  0
  141.2504   78.3476  224.5856 H   0  0  0  0  0  0  0  0  0  0  0  0
  142.6740   80.1909  220.9823 H   0  0  0  0  0  0  0  0  0  0  0  0
  141.0280   74.3441  218.3558 H   0  0  0  0  0  0  0  0  0  0  0  0
  141.3009   72.6295  218.6539 H   0  0  0  0  0  0  0  0  0  0  0  0
  140.0092   74.7044  220.5498 H   0  0  0  0  0  0  0  0  0  0  0  0
  139.2444   73.2236  219.8604 H   0  0  0  0  0  0  0  0  0  0  0  0
  1  2  1  0
  2  3  1  0
  3  4  2  0
  3  5  1  0
  5  6  1  0
  6  7  2  0
  7  8  1  0
  8  9  2  0
  9 10  1  0
 10 11  2  0
  5 12  1  0
 12 13  1  0
 13 14  1  0
 14 15  1  0
 15 16  1  0
 16 17  2  0
 16 18  1  0
 18 19  1  0
 18 20  1  0
 20 21  1  0
 21 22  1  0
 21 23  1  0
 21 24  1  0
 24 25  2  0
 25 26  1  0
 26 27  2  0
 27 28  1  0
 28 29  1  0
 28 30  2  0
 15 31  1  0
 31 32  1  0
 11  6  1  0
 32 12  1  0
 30 24  1  0
  1 33  1  0
  1 34  1  0
  1 35  1  0
  2 36  1  0
  2 37  1  0
  7 38  1  0
  8 39  1  0
  9 40  1  0
 10 41  1  0
 11 42  1  0
 12 43  1  0
 13 44  1  0
 13 45  1  0
 14 46  1  0
 14 47  1  0
 18 48  1  6
 19 49  1  0
 19 50  1  0
 19 51  1  0
 20 52  1  0
 22 53  1  0
 22 54  1  0
 22 55  1  0
 23 56  1  0
 23 57  1  0
 23 58  1  0
 25 59  1  0
 26 60  1  0
 27 61  1  0
 30 62  1  0
 31 63  1  0
 31 64  1  0
 32 65  1  0
 32 66  1  0
M  END
>  <smiles>  (42) 
CCC(=O)N(c1ccccc1)C1CCN(C(=O)[C@H](C)NC(C)(C)c2cccc(Br)c2)CC1

>  <score_type>  (42) 
oracle

>  <origin>  (42) 
autodockgpu

>  <m_score__min__energy>  (42) 
-8.9299999999999997

>  <m_primary>  (42) 
energy

>  <rmsd>  (42) 
4.604234798321202

>  <m_score__min__rmsd>  (42) 
4.604234798321202

>  <meeko>  (42) 
{"free_energy": -7.17, "intermolecular_energy": -9.55, "internal_energy": -3.36, "cluster_size": 7, "cluster_id": 5, "rank_in_cluster": 3}

>  <energy>  (42) 
-7.51

>  <cluster_rmsd>  (42) 
0.31

>  <cluster>  (42) 
9

$$$$

     RDKit          3D

 66 68  0  0  0  0  0  0  0  0999 V2000
  142.6990   74.0310  219.3860 C   0  0  0  0  0  0  0  0  0  0  0  0
  142.6400   74.9030  220.6330 C   0  0  0  0  0  0  0  0  0  0  0  0
  141.8180   76.1380  220.3340 C   0  0  0  0  0  0  0  0  0  0  0  0
  141.9120   76.5280  219.1510 O   0  0  0  0  0  0  0  0  0  0  0  0
  141.0300   76.7540  221.3520 N   0  0  0  0  0  0  0  0  0  0  0  0
  141.4280   77.9260  222.0490 C   0  0  0  0  0  0  0  0  0  0  0  0
  141.8280   79.0670  221.3490 C   0  0  0  0  0  0  0  0  0  0  0  0
  142.2150   80.2280  222.0080 C   0  0  0  0  0  0  0  0  0  0  0  0
  142.2230   80.3110  223.3710 C   0  0  0  0  0  0  0  0  0  0  0  0
  141.8330   79.2060  224.0840 C   0  0  0  0  0  0  0  0  0  0  0  0
  141.4460   78.0400  223.4220 C   0  0  0  0  0  0  0  0  0  0  0  0
  139.7640   76.0960  221.6420 C   0  0  0  0  0  0  0  0  0  0  0  0
  138.5510   76.9770  221.4710 C   0  0  0  0  0  0  0  0  0  0  0  0
  137.4330   76.2660  222.2520 C   0  0  0  0  0  0  0  0  0  0  0  0
  137.3860   74.8610  221.9060 N   0  0  0  0  0  0  0  0  0  0  0  0
  136.6130   73.9920  222.7190 C   0  0  0  0  0  0  0  0  0  0  0  0
  136.0360   74.4930  223.7170 O   0  0  0  0  0  0  0  0  0  0  0  0
  136.4930   72.5160  222.3970 C   0  0  2  0  0  0  0  0  0  0  0  0
  134.9970   72.2300  222.4670 C   0  0  0  0  0  0  0  0  0  0  0  0
  137.2640   71.8410  223.3850 N   0  0  0  0  0  0  0  0  0  0  0  0
  138.2680   70.9400  222.9480 C   0  0  0  0  0  0  0  0  0  0  0  0
  139.0860   71.4840  221.7930 C   0  0  0  0  0  0  0  0  0  0  0  0
  137.7370   69.5860  222.6220 C   0  0  0  0  0  0  0  0  0  0  0  0
  139.2360   70.7440  224.0860 C   0  0  0  0  0  0  0  0  0  0  0  0
  140.1480   71.7340  224.4290 C   0  0  0  0  0  0  0  0  0  0  0  0
  141.0430   71.5780  225.4670 C   0  0  0  0  0  0  0  0  0  0  0  0
  141.0500   70.4000  226.2070 C   0  0  0  0  0  0  0  0  0  0  0  0
  140.1490   69.4090  225.8750 C   0  0  0  0  0  0  0  0  0  0  0  0
  140.1430   67.8010  226.8620 Br  0  0  0  0  0  0  0  0  0  0  0  0
  139.2640   69.5890  224.8350 C   0  0  0  0  0  0  0  0  0  0  0  0
  138.1570   74.4190  220.7590 C   0  0  0  0  0  0  0  0  0  0  0  0
  139.6230   74.7060  221.1430 C   0  0  0  0  0  0  0  0  0  0  0  0
  142.7705   72.9737  219.6810 H   0  0  0  0  0  0  0  0  0  0  0  0
  141.7884   74.1841  218.7881 H   0  0  0  0  0  0  0  0  0  0  0  0
  143.5806   74.3053  218.7881 H   0  0  0  0  0  0  0  0  0  0  0  0
  142.1735   74.3399  221.4547 H   0  0  0  0  0  0  0  0  0  0  0  0
  143.6579   75.1974  220.9284 H   0  0  0  0  0  0  0  0  0  0  0  0
  141.8369   79.0460  220.2492 H   0  0  0  0  0  0  0  0  0  0  0  0
  142.5228   81.1027  221.4162 H   0  0  0  0  0  0  0  0  0  0  0  0
  142.5325   81.2351  223.8812 H   0  0  0  0  0  0  0  0  0  0  0  0
  141.8252   79.2391  225.1835 H   0  0  0  0  0  0  0  0  0  0  0  0
  141.1412   77.1715  224.0244 H   0  0  0  0  0  0  0  0  0  0  0  0
  139.8133   75.9305  222.7284 H   0  0  0  0  0  0  0  0  0  0  0  0
  138.7377   77.9779  221.8872 H   0  0  0  0  0  0  0  0  0  0  0  0
  138.2896   77.1213  220.4123 H   0  0  0  0  0  0  0  0  0  0  0  0
  137.6246   76.3668  223.3305 H   0  0  0  0  0  0  0  0  0  0  0  0
  136.4691   76.7282  221.9927 H   0  0  0  0  0  0  0  0  0  0  0  0
  136.8651   72.1936  221.4134 H   0  0  0  0  0  0  0  0  0  0  0  0
  134.6840   72.1702  223.5198 H   0  0  0  0  0  0  0  0  0  0  0  0
  134.4452   73.0389  221.9658 H   0  0  0  0  0  0  0  0  0  0  0  0
  134.7825   71.2746  221.9658 H   0  0  0  0  0  0  0  0  0  0  0  0
  137.6600   72.5730  224.0340 H   0  0  0  0  0  0  0  0  0  0  0  0
  139.9416   72.0530  222.1856 H   0  0  0  0  0  0  0  0  0  0  0  0
  139.4523   70.6490  221.1777 H   0  0  0  0  0  0  0  0  0  0  0  0
  138.4575   72.1447  221.1777 H   0  0  0  0  0  0  0  0  0  0  0  0
  137.5236   69.0417  223.5538 H   0  0  0  0  0  0  0  0  0  0  0  0
  136.8116   69.6864  222.0358 H   0  0  0  0  0  0  0  0  0  0  0  0
  138.4839   69.0306  222.0358 H   0  0  0  0  0  0  0  0  0  0  0  0
  140.1568   72.6721  223.8547 H   0  0  0  0  0  0  0  0  0  0  0  0
  141.7507   72.3845  225.7094 H   0  0  0  0  0  0  0  0  0  0  0  0
  141.7576   70.2617  227.0378 H   0  0  0  0  0  0  0  0  0  0  0  0
  138.5555   68.7826  224.5947 H   0  0  0  0  0  0  0  0  0  0  0  0
  138.0056   73.3443  220.5799 H   0  0  0  0  0  0  0  0  0  0  0  0
  137.8597   74.9328  219.8329 H   0  0  0  0  0  0  0  0  0  0  0  0
  139.9354   74.0046  221.9307 H   0  0  0  0  0  0  0  0  0  0  0  0
  140.2564   74.5805  220.2525 H   0  0  0  0  0  0  0  0  0  0  0  0
  1  2  1  0
  2  3  1  0
  3  4  2  0
  3  5  1  0
  5  6  1  0
  6  7  2  0
  7  8  1  0
  8  9  2  0
  9 10  1  0
 10 11  2  0
  5 12  1  0
 12 13  1  0
 13 14  1  0
 14 15  1  0
 15 16  1  0
 16 17  2  0
 16 18  1  0
 18 19  1  0
 18 20  1  0
 20 21  1  0
 21 22  1  0
 21 23  1  0
 21 24  1  0
 24 25  2  0
 25 26  1  0
 26 27  2  0
 27 28  1  0
 28 29  1  0
 28 30  2  0
 15 31  1  0
 31 32  1  0
 11  6  1  0
 32 12  1  0
 30 24  1  0
  1 33  1  0
  1 34  1  0
  1 35  1  0
  2 36  1  0
  2 37  1  0
  7 38  1  0
  8 39  1  0
  9 40  1  0
 10 41  1  0
 11 42  1  0
 12 43  1  0
 13 44  1  0
 13 45  1  0
 14 46  1  0
 14 47  1  0
 18 48  1  6
 19 49  1  0
 19 50  1  0
 19 51  1  0
 20 52  1  0
 22 53  1  0
 22 54  1  0
 22 55  1  0
 23 56  1  0
 23 57  1  0
 23 58  1  0
 25 59  1  0
 26 60  1  0
 27 61  1  0
 30 62  1  0
 31 63  1  0
 31 64  1  0
 32 65  1  0
 32 66  1  0
M  END
>  <smiles>  (43) 
CCC(=O)N(c1ccccc1)C1CCN(C(=O)[C@H](C)NC(C)(C)c2cccc(Br)c2)CC1

>  <score_type>  (43) 
oracle

>  <origin>  (43) 
autodockgpu

>  <m_score__min__energy>  (43) 
-8.9299999999999997

>  <m_primary>  (43) 
energy

>  <rmsd>  (43) 
8.318310308683278

>  <m_score__min__rmsd>  (43) 
8.318310308683278

>  <meeko>  (43) 
{"free_energy": -7.65, "intermolecular_energy": -10.04, "internal_energy": -2.48, "cluster_size": 16, "cluster_id": 2, "rank_in_cluster": 16}

>  <energy>  (43) 
-7.5

>  <cluster_rmsd>  (43) 
0.35

>  <cluster>  (43) 
9

$$$$

     RDKit          3D

 66 68  0  0  0  0  0  0  0  0999 V2000
  138.8350   66.5420  222.6940 C   0  0  0  0  0  0  0  0  0  0  0  0
  138.8090   68.0420  222.9580 C   0  0  0  0  0  0  0  0  0  0  0  0
  139.0270   68.2880  224.4360 C   0  0  0  0  0  0  0  0  0  0  0  0
  139.4690   67.2930  225.0490 O   0  0  0  0  0  0  0  0  0  0  0  0
  138.7340   69.5590  225.0150 N   0  0  0  0  0  0  0  0  0  0  0  0
  139.5620   70.1870  225.9840 C   0  0  0  0  0  0  0  0  0  0  0  0
  140.3820   71.2610  225.6280 C   0  0  0  0  0  0  0  0  0  0  0  0
  141.1950   71.8970  226.5590 C   0  0  0  0  0  0  0  0  0  0  0  0
  141.2320   71.5030  227.8670 C   0  0  0  0  0  0  0  0  0  0  0  0
  140.4360   70.4530  228.2440 C   0  0  0  0  0  0  0  0  0  0  0  0
  139.6200   69.8140  227.3090 C   0  0  0  0  0  0  0  0  0  0  0  0
  137.5100   70.1890  224.5450 C   0  0  0  0  0  0  0  0  0  0  0  0
  137.6150   70.8080  223.1730 C   0  0  0  0  0  0  0  0  0  0  0  0
  136.4270   71.7820  223.0870 C   0  0  0  0  0  0  0  0  0  0  0  0
  135.2070   71.1320  223.5170 N   0  0  0  0  0  0  0  0  0  0  0  0
  134.0670   71.9390  223.7690 C   0  0  0  0  0  0  0  0  0  0  0  0
  134.1950   73.1830  223.6330 O   0  0  0  0  0  0  0  0  0  0  0  0
  132.7480   71.3240  224.1910 C   0  0  2  0  0  0  0  0  0  0  0  0
  132.0530   70.9720  222.8800 C   0  0  0  0  0  0  0  0  0  0  0  0
  132.0820   72.3250  224.9550 N   0  0  0  0  0  0  0  0  0  0  0  0
  132.4220   72.4540  226.3250 C   0  0  0  0  0  0  0  0  0  0  0  0
  133.6020   71.5900  226.7260 C   0  0  0  0  0  0  0  0  0  0  0  0
  131.2670   72.2190  227.2390 C   0  0  0  0  0  0  0  0  0  0  0  0
  132.8520   73.8790  226.5590 C   0  0  0  0  0  0  0  0  0  0  0  0
  134.0910   74.3330  226.1250 C   0  0  0  0  0  0  0  0  0  0  0  0
  134.5070   75.6330  226.3260 C   0  0  0  0  0  0  0  0  0  0  0  0
  133.6760   76.5340  226.9830 C   0  0  0  0  0  0  0  0  0  0  0  0
  132.4440   76.0950  227.4200 C   0  0  0  0  0  0  0  0  0  0  0  0
  131.3010   77.2980  228.3180 Br  0  0  0  0  0  0  0  0  0  0  0  0
  132.0500   74.7920  227.2060 C   0  0  0  0  0  0  0  0  0  0  0  0
  135.2290   69.6920  223.6910 C   0  0  0  0  0  0  0  0  0  0  0  0
  136.2510   69.4540  224.8210 C   0  0  0  0  0  0  0  0  0  0  0  0
  138.8444   66.0012  223.6519 H   0  0  0  0  0  0  0  0  0  0  0  0
  137.9417   66.2552  222.1198 H   0  0  0  0  0  0  0  0  0  0  0  0
  139.7377   66.2864  222.1198 H   0  0  0  0  0  0  0  0  0  0  0  0
  139.6076   68.5316  222.3812 H   0  0  0  0  0  0  0  0  0  0  0  0
  137.8365   68.4556  222.6526 H   0  0  0  0  0  0  0  0  0  0  0  0
  140.3842   71.6118  224.5854 H   0  0  0  0  0  0  0  0  0  0  0  0
  141.8245   72.7387  226.2347 H   0  0  0  0  0  0  0  0  0  0  0  0
  141.8805   72.0128  228.5947 H   0  0  0  0  0  0  0  0  0  0  0  0
  140.4402   70.1117  229.2897 H   0  0  0  0  0  0  0  0  0  0  0  0
  138.9945   68.9741  227.6456 H   0  0  0  0  0  0  0  0  0  0  0  0
  137.4054   71.0557  225.2143 H   0  0  0  0  0  0  0  0  0  0  0  0
  138.5671   71.3480  223.0638 H   0  0  0  0  0  0  0  0  0  0  0  0
  137.5898   70.0521  222.3743 H   0  0  0  0  0  0  0  0  0  0  0  0
  136.6225   72.6496  223.7343 H   0  0  0  0  0  0  0  0  0  0  0  0
  136.3082   72.1072  222.0429 H   0  0  0  0  0  0  0  0  0  0  0  0
  132.8025   70.4179  224.8123 H   0  0  0  0  0  0  0  0  0  0  0  0
  131.0905   70.4845  223.0946 H   0  0  0  0  0  0  0  0  0  0  0  0
  131.8778   71.8900  222.2999 H   0  0  0  0  0  0  0  0  0  0  0  0
  132.6894   70.2875  222.2999 H   0  0  0  0  0  0  0  0  0  0  0  0
  132.1920   73.2400  224.4430 H   0  0  0  0  0  0  0  0  0  0  0  0
  133.6660   71.5431  227.8231 H   0  0  0  0  0  0  0  0  0  0  0  0
  133.4674   70.5754  226.3229 H   0  0  0  0  0  0  0  0  0  0  0  0
  134.5285   72.0247  226.3229 H   0  0  0  0  0  0  0  0  0  0  0  0
  131.6058   72.2879  228.2832 H   0  0  0  0  0  0  0  0  0  0  0  0
  130.4926   72.9780  227.0539 H   0  0  0  0  0  0  0  0  0  0  0  0
  130.8507   71.2178  227.0539 H   0  0  0  0  0  0  0  0  0  0  0  0
  134.7619   73.6337  225.6045 H   0  0  0  0  0  0  0  0  0  0  0  0
  135.4951   75.9565  225.9669 H   0  0  0  0  0  0  0  0  0  0  0  0
  133.9943   77.5735  227.1503 H   0  0  0  0  0  0  0  0  0  0  0  0
  131.0610   74.4704  227.5643 H   0  0  0  0  0  0  0  0  0  0  0  0
  134.2352   69.3204  223.9812 H   0  0  0  0  0  0  0  0  0  0  0  0
  135.4993   69.1633  222.7650 H   0  0  0  0  0  0  0  0  0  0  0  0
  135.8271   69.8065  225.7729 H   0  0  0  0  0  0  0  0  0  0  0  0
  136.4723   68.3781  224.8803 H   0  0  0  0  0  0  0  0  0  0  0  0
  1  2  1  0
  2  3  1  0
  3  4  2  0
  3  5  1  0
  5  6  1  0
  6  7  2  0
  7  8  1  0
  8  9  2  0
  9 10  1  0
 10 11  2  0
  5 12  1  0
 12 13  1  0
 13 14  1  0
 14 15  1  0
 15 16  1  0
 16 17  2  0
 16 18  1  0
 18 19  1  0
 18 20  1  0
 20 21  1  0
 21 22  1  0
 21 23  1  0
 21 24  1  0
 24 25  2  0
 25 26  1  0
 26 27  2  0
 27 28  1  0
 28 29  1  0
 28 30  2  0
 15 31  1  0
 31 32  1  0
 11  6  1  0
 32 12  1  0
 30 24  1  0
  1 33  1  0
  1 34  1  0
  1 35  1  0
  2 36  1  0
  2 37  1  0
  7 38  1  0
  8 39  1  0
  9 40  1  0
 10 41  1  0
 11 42  1  0
 12 43  1  0
 13 44  1  0
 13 45  1  0
 14 46  1  0
 14 47  1  0
 18 48  1  1
 19 49  1  0
 19 50  1  0
 19 51  1  0
 20 52  1  0
 22 53  1  0
 22 54  1  0
 22 55  1  0
 23 56  1  0
 23 57  1  0
 23 58  1  0
 25 59  1  0
 26 60  1  0
 27 61  1  0
 30 62  1  0
 31 63  1  0
 31 64  1  0
 32 65  1  0
 32 66  1  0
M  END
>  <smiles>  (44) 
CCC(=O)N(c1ccccc1)C1CCN(C(=O)[C@H](C)NC(C)(C)c2cccc(Br)c2)CC1

>  <score_type>  (44) 
oracle

>  <origin>  (44) 
autodockgpu

>  <m_score__min__energy>  (44) 
-8.9299999999999997

>  <m_primary>  (44) 
energy

>  <rmsd>  (44) 
10.069468363474332

>  <m_score__min__rmsd>  (44) 
10.069468363474332

>  <meeko>  (44) 
{"free_energy": -7.77, "intermolecular_energy": -10.16, "internal_energy": -2.63, "cluster_size": 1, "cluster_id": 8, "rank_in_cluster": 1}

>  <energy>  (44) 
-7.37

>  <cluster_rmsd>  (44) 
0.35

>  <cluster>  (44) 
9

$$$$

     RDKit          3D

 66 68  0  0  0  0  0  0  0  0999 V2000
  143.3290   75.1910  219.9940 C   0  0  0  0  0  0  0  0  0  0  0  0
  143.2530   76.6750  219.6580 C   0  0  0  0  0  0  0  0  0  0  0  0
  141.8050   77.1160  219.6900 C   0  0  0  0  0  0  0  0  0  0  0  0
  141.3060   77.2770  218.5560 O   0  0  0  0  0  0  0  0  0  0  0  0
  141.1290   77.3130  220.9320 N   0  0  0  0  0  0  0  0  0  0  0  0
  141.5100   78.2980  221.8820 C   0  0  0  0  0  0  0  0  0  0  0  0
  141.9650   79.5500  221.4630 C   0  0  0  0  0  0  0  0  0  0  0  0
  142.3360   80.5330  222.3740 C   0  0  0  0  0  0  0  0  0  0  0  0
  142.2740   80.3220  223.7220 C   0  0  0  0  0  0  0  0  0  0  0  0
  141.8280   79.1020  224.1620 C   0  0  0  0  0  0  0  0  0  0  0  0
  141.4570   78.1150  223.2470 C   0  0  0  0  0  0  0  0  0  0  0  0
  140.0010   76.4260  221.1730 C   0  0  0  0  0  0  0  0  0  0  0  0
  138.6510   77.0660  220.9630 C   0  0  0  0  0  0  0  0  0  0  0  0
  137.6600   76.1490  221.7010 C   0  0  0  0  0  0  0  0  0  0  0  0
  137.8900   74.7640  221.3460 N   0  0  0  0  0  0  0  0  0  0  0  0
  137.2670   73.7560  222.1260 C   0  0  0  0  0  0  0  0  0  0  0  0
  136.5730   74.1280  223.1070 O   0  0  0  0  0  0  0  0  0  0  0  0
  137.4370   72.2870  221.7920 C   0  0  2  0  0  0  0  0  0  0  0  0
  136.0460   71.8280  221.3690 C   0  0  0  0  0  0  0  0  0  0  0  0
  137.9180   71.6740  222.9840 N   0  0  0  0  0  0  0  0  0  0  0  0
  139.2430   71.1670  222.9860 C   0  0  0  0  0  0  0  0  0  0  0  0
  140.2880   72.2450  222.7740 C   0  0  0  0  0  0  0  0  0  0  0  0
  139.4420   70.0490  222.0200 C   0  0  0  0  0  0  0  0  0  0  0  0
  139.5110   70.5900  224.3510 C   0  0  0  0  0  0  0  0  0  0  0  0
  139.2010   69.2680  224.6430 C   0  0  0  0  0  0  0  0  0  0  0  0
  139.4380   68.7170  225.8860 C   0  0  0  0  0  0  0  0  0  0  0  0
  140.0030   69.4920  226.8930 C   0  0  0  0  0  0  0  0  0  0  0  0
  140.3130   70.8070  226.6150 C   0  0  0  0  0  0  0  0  0  0  0  0
  141.0760   71.8800  227.9680 Br  0  0  0  0  0  0  0  0  0  0  0  0
  140.0690   71.3340  225.3660 C   0  0  0  0  0  0  0  0  0  0  0  0
  138.7690   74.4880  220.2250 C   0  0  0  0  0  0  0  0  0  0  0  0
  140.1400   75.0410  220.6620 C   0  0  0  0  0  0  0  0  0  0  0  0
  143.3356   75.0623  221.0864 H   0  0  0  0  0  0  0  0  0  0  0  0
  142.4562   74.6737  219.5691 H   0  0  0  0  0  0  0  0  0  0  0  0
  144.2501   74.7655  219.5691 H   0  0  0  0  0  0  0  0  0  0  0  0
  143.8298   77.2502  220.3973 H   0  0  0  0  0  0  0  0  0  0  0  0
  143.6720   76.8504  218.6562 H   0  0  0  0  0  0  0  0  0  0  0  0
  142.0316   79.7639  220.3860 H   0  0  0  0  0  0  0  0  0  0  0  0
  142.6884   81.5054  221.9994 H   0  0  0  0  0  0  0  0  0  0  0  0
  142.5726   81.1065  224.4329 H   0  0  0  0  0  0  0  0  0  0  0  0
  141.7623   78.9001  225.2413 H   0  0  0  0  0  0  0  0  0  0  0  0
  141.1062   77.1466  223.6333 H   0  0  0  0  0  0  0  0  0  0  0  0
  140.0443   76.2591  222.2594 H   0  0  0  0  0  0  0  0  0  0  0  0
  138.6324   78.0795  221.3901 H   0  0  0  0  0  0  0  0  0  0  0  0
  138.4034   77.1706  219.8964 H   0  0  0  0  0  0  0  0  0  0  0  0
  137.7927   76.2714  222.7861 H   0  0  0  0  0  0  0  0  0  0  0  0
  136.6356   76.4254  221.4107 H   0  0  0  0  0  0  0  0  0  0  0  0
  138.1457   72.0420  220.9872 H   0  0  0  0  0  0  0  0  0  0  0  0
  135.4382   71.6274  222.2636 H   0  0  0  0  0  0  0  0  0  0  0  0
  135.5667   72.6156  220.7691 H   0  0  0  0  0  0  0  0  0  0  0  0
  136.1295   70.9098  220.7691 H   0  0  0  0  0  0  0  0  0  0  0  0
  137.7660   72.3540  223.7750 H   0  0  0  0  0  0  0  0  0  0  0  0
  140.6416   72.6098  223.7496 H   0  0  0  0  0  0  0  0  0  0  0  0
  141.1351   71.8285  222.2093 H   0  0  0  0  0  0  0  0  0  0  0  0
  139.8454   73.0788  222.2093 H   0  0  0  0  0  0  0  0  0  0  0  0
  139.6087   69.1125  222.5724 H   0  0  0  0  0  0  0  0  0  0  0  0
  138.5478   69.9474  221.3875 H   0  0  0  0  0  0  0  0  0  0  0  0
  140.3163   70.2622  221.3875 H   0  0  0  0  0  0  0  0  0  0  0  0
  138.7525   68.6404  223.8589 H   0  0  0  0  0  0  0  0  0  0  0  0
  139.1801   67.6654  226.0800 H   0  0  0  0  0  0  0  0  0  0  0  0
  140.1982   69.0662  227.8883 H   0  0  0  0  0  0  0  0  0  0  0  0
  140.3289   72.3853  225.1730 H   0  0  0  0  0  0  0  0  0  0  0  0
  138.8289   73.4061  220.0355 H   0  0  0  0  0  0  0  0  0  0  0  0
  138.4118   74.9471  219.2914 H   0  0  0  0  0  0  0  0  0  0  0  0
  140.5520   74.4014  221.4565 H   0  0  0  0  0  0  0  0  0  0  0  0
  140.8148   75.0478  219.7933 H   0  0  0  0  0  0  0  0  0  0  0  0
  1  2  1  0
  2  3  1  0
  3  4  2  0
  3  5  1  0
  5  6  1  0
  6  7  2  0
  7  8  1  0
  8  9  2  0
  9 10  1  0
 10 11  2  0
  5 12  1  0
 12 13  1  0
 13 14  1  0
 14 15  1  0
 15 16  1  0
 16 17  2  0
 16 18  1  0
 18 19  1  0
 18 20  1  0
 20 21  1  0
 21 22  1  0
 21 23  1  0
 21 24  1  0
 24 25  2  0
 25 26  1  0
 26 27  2  0
 27 28  1  0
 28 29  1  0
 28 30  2  0
 15 31  1  0
 31 32  1  0
 11  6  1  0
 32 12  1  0
 30 24  1  0
  1 33  1  0
  1 34  1  0
  1 35  1  0
  2 36  1  0
  2 37  1  0
  7 38  1  0
  8 39  1  0
  9 40  1  0
 10 41  1  0
 11 42  1  0
 12 43  1  0
 13 44  1  0
 13 45  1  0
 14 46  1  0
 14 47  1  0
 18 48  1  6
 19 49  1  0
 19 50  1  0
 19 51  1  0
 20 52  1  0
 22 53  1  0
 22 54  1  0
 22 55  1  0
 23 56  1  0
 23 57  1  0
 23 58  1  0
 25 59  1  0
 26 60  1  0
 27 61  1  0
 30 62  1  0
 31 63  1  0
 31 64  1  0
 32 65  1  0
 32 66  1  0
M  END
>  <smiles>  (45) 
CCC(=O)N(c1ccccc1)C1CCN(C(=O)[C@H](C)NC(C)(C)c2cccc(Br)c2)CC1

>  <score_type>  (45) 
oracle

>  <origin>  (45) 
autodockgpu

>  <m_score__min__energy>  (45) 
-8.9299999999999997

>  <m_primary>  (45) 
energy

>  <rmsd>  (45) 
8.26906923411024

>  <m_score__min__rmsd>  (45) 
8.26906923411024

>  <meeko>  (45) 
{"free_energy": -8.14, "intermolecular_energy": -10.53, "internal_energy": -2.82, "cluster_size": 16, "cluster_id": 2, "rank_in_cluster": 3}

>  <energy>  (45) 
-7.37

>  <cluster_rmsd>  (45) 
0.54

>  <cluster>  (45) 
9

$$$$

     RDKit          3D

 66 68  0  0  0  0  0  0  0  0999 V2000
  142.9240   77.2290  217.5420 C   0  0  0  0  0  0  0  0  0  0  0  0
  142.1780   77.9660  218.6460 C   0  0  0  0  0  0  0  0  0  0  0  0
  142.2790   77.1690  219.9290 C   0  0  0  0  0  0  0  0  0  0  0  0
  143.1410   76.2640  219.8890 O   0  0  0  0  0  0  0  0  0  0  0  0
  141.4400   77.4700  221.0440 N   0  0  0  0  0  0  0  0  0  0  0  0
  141.6910   78.5360  221.9470 C   0  0  0  0  0  0  0  0  0  0  0  0
  141.4940   78.3650  223.3190 C   0  0  0  0  0  0  0  0  0  0  0  0
  141.7390   79.3920  224.2240 C   0  0  0  0  0  0  0  0  0  0  0  0
  142.1850   80.6170  223.8170 C   0  0  0  0  0  0  0  0  0  0  0  0
  142.3890   80.8120  222.4740 C   0  0  0  0  0  0  0  0  0  0  0  0
  142.1420   79.7810  221.5660 C   0  0  0  0  0  0  0  0  0  0  0  0
  140.2860   76.5990  221.2050 C   0  0  0  0  0  0  0  0  0  0  0  0
  138.9600   77.2640  220.9250 C   0  0  0  0  0  0  0  0  0  0  0  0
  137.9140   76.3540  221.5900 C   0  0  0  0  0  0  0  0  0  0  0  0
  138.1410   74.9700  221.2280 N   0  0  0  0  0  0  0  0  0  0  0  0
  137.4570   73.9620  221.9560 C   0  0  0  0  0  0  0  0  0  0  0  0
  136.7120   74.3330  222.8990 O   0  0  0  0  0  0  0  0  0  0  0  0
  137.6230   72.4960  221.6120 C   0  0  2  0  0  0  0  0  0  0  0  0
  136.2610   72.0730  221.0720 C   0  0  0  0  0  0  0  0  0  0  0  0
  137.9950   71.8530  222.8260 N   0  0  0  0  0  0  0  0  0  0  0  0
  139.2920   71.2860  222.9120 C   0  0  0  0  0  0  0  0  0  0  0  0
  140.3970   72.3160  222.7730 C   0  0  0  0  0  0  0  0  0  0  0  0
  139.5010   70.1610  221.9570 C   0  0  0  0  0  0  0  0  0  0  0  0
  139.4450   70.6960  224.2900 C   0  0  0  0  0  0  0  0  0  0  0  0
  138.9650   69.4260  224.5820 C   0  0  0  0  0  0  0  0  0  0  0  0
  139.0930   68.8640  225.8350 C   0  0  0  0  0  0  0  0  0  0  0  0
  139.7190   69.5750  226.8540 C   0  0  0  0  0  0  0  0  0  0  0  0
  140.1980   70.8380  226.5760 C   0  0  0  0  0  0  0  0  0  0  0  0
  141.0470   71.8240  227.9440 Br  0  0  0  0  0  0  0  0  0  0  0  0
  140.0590   71.3770  225.3160 C   0  0  0  0  0  0  0  0  0  0  0  0
  139.0810   74.6940  220.1580 C   0  0  0  0  0  0  0  0  0  0  0  0
  140.4320   75.2180  220.6830 C   0  0  0  0  0  0  0  0  0  0  0  0
  143.6385   76.5231  217.9904 H   0  0  0  0  0  0  0  0  0  0  0  0
  142.2050   76.6768  216.9190 H   0  0  0  0  0  0  0  0  0  0  0  0
  143.4674   77.9547  216.9190 H   0  0  0  0  0  0  0  0  0  0  0  0
  142.6260   78.9598  218.7934 H   0  0  0  0  0  0  0  0  0  0  0  0
  141.1211   78.0834  218.3647 H   0  0  0  0  0  0  0  0  0  0  0  0
  141.1363   77.3943  223.6929 H   0  0  0  0  0  0  0  0  0  0  0  0
  141.5691   79.2130  225.2960 H   0  0  0  0  0  0  0  0  0  0  0  0
  142.3747   81.4217  224.5426 H   0  0  0  0  0  0  0  0  0  0  0  0
  142.7491   81.7860  222.1111 H   0  0  0  0  0  0  0  0  0  0  0  0
  142.3155   79.9713  220.4966 H   0  0  0  0  0  0  0  0  0  0  0  0
  140.2637   76.4176  222.2897 H   0  0  0  0  0  0  0  0  0  0  0  0
  138.9318   78.2719  221.3647 H   0  0  0  0  0  0  0  0  0  0  0  0
  138.7773   77.3869  219.8473 H   0  0  0  0  0  0  0  0  0  0  0  0
  137.9857   76.4586  222.6827 H   0  0  0  0  0  0  0  0  0  0  0  0
  136.9129   76.6520  221.2450 H   0  0  0  0  0  0  0  0  0  0  0  0
  138.3890   72.2496  220.8619 H   0  0  0  0  0  0  0  0  0  0  0  0
  135.5828   71.8624  221.9121 H   0  0  0  0  0  0  0  0  0  0  0  0
  135.8425   72.8835  220.4572 H   0  0  0  0  0  0  0  0  0  0  0  0
  136.3753   71.1680  220.4572 H   0  0  0  0  0  0  0  0  0  0  0  0
  137.8210   72.5350  223.6120 H   0  0  0  0  0  0  0  0  0  0  0  0
  140.7336   72.6298  223.7721 H   0  0  0  0  0  0  0  0  0  0  0  0
  141.2417   71.8756  222.2230 H   0  0  0  0  0  0  0  0  0  0  0  0
  140.0169   73.1896  222.2230 H   0  0  0  0  0  0  0  0  0  0  0  0
  139.6738   69.2309  222.5183 H   0  0  0  0  0  0  0  0  0  0  0  0
  138.6087   70.0469  221.3239 H   0  0  0  0  0  0  0  0  0  0  0  0
  140.3748   70.3750  221.3239 H   0  0  0  0  0  0  0  0  0  0  0  0
  138.4667   68.8498  223.7885 H   0  0  0  0  0  0  0  0  0  0  0  0
  138.7006   67.8547  226.0285 H   0  0  0  0  0  0  0  0  0  0  0  0
  139.8293   69.1398  227.8582 H   0  0  0  0  0  0  0  0  0  0  0  0
  140.4522   72.3861  225.1235 H   0  0  0  0  0  0  0  0  0  0  0  0
  139.1349   73.6138  219.9574 H   0  0  0  0  0  0  0  0  0  0  0  0
  138.7876   75.1714  219.2114 H   0  0  0  0  0  0  0  0  0  0  0  0
  140.7858   74.5610  221.4912 H   0  0  0  0  0  0  0  0  0  0  0  0
  141.1568   75.2251  219.8555 H   0  0  0  0  0  0  0  0  0  0  0  0
  1  2  1  0
  2  3  1  0
  3  4  2  0
  3  5  1  0
  5  6  1  0
  6  7  2  0
  7  8  1  0
  8  9  2  0
  9 10  1  0
 10 11  2  0
  5 12  1  0
 12 13  1  0
 13 14  1  0
 14 15  1  0
 15 16  1  0
 16 17  2  0
 16 18  1  0
 18 19  1  0
 18 20  1  0
 20 21  1  0
 21 22  1  0
 21 23  1  0
 21 24  1  0
 24 25  2  0
 25 26  1  0
 26 27  2  0
 27 28  1  0
 28 29  1  0
 28 30  2  0
 15 31  1  0
 31 32  1  0
 11  6  1  0
 32 12  1  0
 30 24  1  0
  1 33  1  0
  1 34  1  0
  1 35  1  0
  2 36  1  0
  2 37  1  0
  7 38  1  0
  8 39  1  0
  9 40  1  0
 10 41  1  0
 11 42  1  0
 12 43  1  0
 13 44  1  0
 13 45  1  0
 14 46  1  0
 14 47  1  0
 18 48  1  6
 19 49  1  0
 19 50  1  0
 19 51  1  0
 20 52  1  0
 22 53  1  0
 22 54  1  0
 22 55  1  0
 23 56  1  0
 23 57  1  0
 23 58  1  0
 25 59  1  0
 26 60  1  0
 27 61  1  0
 30 62  1  0
 31 63  1  0
 31 64  1  0
 32 65  1  0
 32 66  1  0
M  END
>  <smiles>  (46) 
CCC(=O)N(c1ccccc1)C1CCN(C(=O)[C@H](C)NC(C)(C)c2cccc(Br)c2)CC1

>  <score_type>  (46) 
oracle

>  <origin>  (46) 
autodockgpu

>  <m_score__min__energy>  (46) 
-8.9299999999999997

>  <m_primary>  (46) 
energy

>  <rmsd>  (46) 
8.170648226268186

>  <m_score__min__rmsd>  (46) 
8.170648226268186

>  <meeko>  (46) 
{"free_energy": -8.22, "intermolecular_energy": -10.6, "internal_energy": -2.72, "cluster_size": 16, "cluster_id": 2, "rank_in_cluster": 1}

>  <energy>  (46) 
-7.2

>  <cluster_rmsd>  (46) 
0.46

>  <cluster>  (46) 
9

$$$$

     RDKit          3D

 66 68  0  0  0  0  0  0  0  0999 V2000
  138.7490   73.9140  220.0480 C   0  0  0  0  0  0  0  0  0  0  0  0
  140.0980   73.2120  219.9680 C   0  0  0  0  0  0  0  0  0  0  0  0
  141.0570   73.8710  220.9370 C   0  0  0  0  0  0  0  0  0  0  0  0
  140.6960   73.7890  222.1310 O   0  0  0  0  0  0  0  0  0  0  0  0
  142.2430   74.5110  220.4690 N   0  0  0  0  0  0  0  0  0  0  0  0
  143.4990   73.8550  220.3670 C   0  0  0  0  0  0  0  0  0  0  0  0
  143.5660   72.4950  220.0570 C   0  0  0  0  0  0  0  0  0  0  0  0
  144.7830   71.8320  219.9440 C   0  0  0  0  0  0  0  0  0  0  0  0
  145.9720   72.4780  220.1310 C   0  0  0  0  0  0  0  0  0  0  0  0
  145.9350   73.8150  220.4350 C   0  0  0  0  0  0  0  0  0  0  0  0
  144.7130   74.4800  220.5490 C   0  0  0  0  0  0  0  0  0  0  0  0
  142.0880   75.9090  220.0930 C   0  0  0  0  0  0  0  0  0  0  0  0
  142.0960   76.1580  218.6050 C   0  0  0  0  0  0  0  0  0  0  0  0
  142.3930   77.6600  218.4570 C   0  0  0  0  0  0  0  0  0  0  0  0
  141.5400   78.4340  219.3350 N   0  0  0  0  0  0  0  0  0  0  0  0
  141.8520   79.8020  219.5440 C   0  0  0  0  0  0  0  0  0  0  0  0
  142.8760   80.2560  218.9740 O   0  0  0  0  0  0  0  0  0  0  0  0
  140.9840   80.6800  220.4240 C   0  0  2  0  0  0  0  0  0  0  0  0
  140.4360   81.7440  219.4800 C   0  0  0  0  0  0  0  0  0  0  0  0
  141.8490   81.1850  221.4360 N   0  0  0  0  0  0  0  0  0  0  0  0
  141.7820   80.5980  222.7250 C   0  0  0  0  0  0  0  0  0  0  0  0
  142.1590   81.5620  223.8330 C   0  0  0  0  0  0  0  0  0  0  0  0
  142.5710   79.3380  222.8360 C   0  0  0  0  0  0  0  0  0  0  0  0
  140.3470   80.2130  222.9800 C   0  0  0  0  0  0  0  0  0  0  0  0
  139.4270   81.1460  223.4410 C   0  0  0  0  0  0  0  0  0  0  0  0
  138.1080   80.8180  223.6810 C   0  0  0  0  0  0  0  0  0  0  0  0
  137.6660   79.5170  223.4630 C   0  0  0  0  0  0  0  0  0  0  0  0
  138.5710   78.5820  223.0060 C   0  0  0  0  0  0  0  0  0  0  0  0
  137.9940   76.8100  222.7070 Br  0  0  0  0  0  0  0  0  0  0  0  0
  139.8820   78.9350  222.7720 C   0  0  0  0  0  0  0  0  0  0  0  0
  140.4280   77.7540  219.9730 C   0  0  0  0  0  0  0  0  0  0  0  0
  141.0880   76.6850  220.8670 C   0  0  0  0  0  0  0  0  0  0  0  0
  138.4725   74.0579  221.1029 H   0  0  0  0  0  0  0  0  0  0  0  0
  138.8146   74.8923  219.5494 H   0  0  0  0  0  0  0  0  0  0  0  0
  137.9854   73.2989  219.5494 H   0  0  0  0  0  0  0  0  0  0  0  0
  139.9776   72.1512  220.2328 H   0  0  0  0  0  0  0  0  0  0  0  0
  140.4949   73.2868  218.9448 H   0  0  0  0  0  0  0  0  0  0  0  0
  142.6330   71.9344  219.8983 H   0  0  0  0  0  0  0  0  0  0  0  0
  144.7885   70.7599  219.6977 H   0  0  0  0  0  0  0  0  0  0  0  0
  146.9288   71.9429  220.0406 H   0  0  0  0  0  0  0  0  0  0  0  0
  146.8740   74.3666  220.5899 H   0  0  0  0  0  0  0  0  0  0  0  0
  144.7198   75.5520  220.7954 H   0  0  0  0  0  0  0  0  0  0  0  0
  143.0282   76.3640  220.4380 H   0  0  0  0  0  0  0  0  0  0  0  0
  142.8784   75.5587  218.1165 H   0  0  0  0  0  0  0  0  0  0  0  0
  141.1436   75.8756  218.1326 H   0  0  0  0  0  0  0  0  0  0  0  0
  143.4453   77.8483  218.7161 H   0  0  0  0  0  0  0  0  0  0  0  0
  142.1993   77.9604  217.4167 H   0  0  0  0  0  0  0  0  0  0  0  0
  140.1374   80.1914  220.9285 H   0  0  0  0  0  0  0  0  0  0  0  0
  140.0101   82.5709  220.0672 H   0  0  0  0  0  0  0  0  0  0  0  0
  141.2497   82.1257  218.8458 H   0  0  0  0  0  0  0  0  0  0  0  0
  139.6528   81.3032  218.8458 H   0  0  0  0  0  0  0  0  0  0  0  0
  142.8320   81.1630  221.0550 H   0  0  0  0  0  0  0  0  0  0  0  0
  141.9741   81.0893  224.8089 H   0  0  0  0  0  0  0  0  0  0  0  0
  143.2246   81.8209  223.7469 H   0  0  0  0  0  0  0  0  0  0  0  0
  141.5517   82.4751  223.7469 H   0  0  0  0  0  0  0  0  0  0  0  0
  142.7241   79.0935  223.8975 H   0  0  0  0  0  0  0  0  0  0  0  0
  142.0243   78.5187  222.3462 H   0  0  0  0  0  0  0  0  0  0  0  0
  143.5468   79.4720  222.3462 H   0  0  0  0  0  0  0  0  0  0  0  0
  139.7602   82.1789  223.6204 H   0  0  0  0  0  0  0  0  0  0  0  0
  137.4072   81.5842  224.0441 H   0  0  0  0  0  0  0  0  0  0  0  0
  136.6181   79.2402  223.6509 H   0  0  0  0  0  0  0  0  0  0  0  0
  140.5811   78.1685  222.4062 H   0  0  0  0  0  0  0  0  0  0  0  0
  139.8387   78.4576  220.5794 H   0  0  0  0  0  0  0  0  0  0  0  0
  139.7322   77.3156  219.2425 H   0  0  0  0  0  0  0  0  0  0  0  0
  141.5883   77.1787  221.7131 H   0  0  0  0  0  0  0  0  0  0  0  0
  140.3112   75.9988  221.2353 H   0  0  0  0  0  0  0  0  0  0  0  0
  1  2  1  0
  2  3  1  0
  3  4  2  0
  3  5  1  0
  5  6  1  0
  6  7  2  0
  7  8  1  0
  8  9  2  0
  9 10  1  0
 10 11  2  0
  5 12  1  0
 12 13  1  0
 13 14  1  0
 14 15  1  0
 15 16  1  0
 16 17  2  0
 16 18  1  0
 18 19  1  0
 18 20  1  0
 20 21  1  0
 21 22  1  0
 21 23  1  0
 21 24  1  0
 24 25  2  0
 25 26  1  0
 26 27  2  0
 27 28  1  0
 28 29  1  0
 28 30  2  0
 15 31  1  0
 31 32  1  0
 11  6  1  0
 32 12  1  0
 30 24  1  0
  1 33  1  0
  1 34  1  0
  1 35  1  0
  2 36  1  0
  2 37  1  0
  7 38  1  0
  8 39  1  0
  9 40  1  0
 10 41  1  0
 11 42  1  0
 12 43  1  0
 13 44  1  0
 13 45  1  0
 14 46  1  0
 14 47  1  0
 18 48  1  1
 19 49  1  0
 19 50  1  0
 19 51  1  0
 20 52  1  0
 22 53  1  0
 22 54  1  0
 22 55  1  0
 23 56  1  0
 23 57  1  0
 23 58  1  0
 25 59  1  0
 26 60  1  0
 27 61  1  0
 30 62  1  0
 31 63  1  0
 31 64  1  0
 32 65  1  0
 32 66  1  0
M  END
>  <smiles>  (47) 
CCC(=O)N(c1ccccc1)C1CCN(C(=O)[C@H](C)NC(C)(C)c2cccc(Br)c2)CC1

>  <score_type>  (47) 
oracle

>  <origin>  (47) 
autodockgpu

>  <m_score__min__energy>  (47) 
-8.9299999999999997

>  <m_primary>  (47) 
energy

>  <rmsd>  (47) 
3.413306648833248

>  <m_score__min__rmsd>  (47) 
3.413306648833248

>  <meeko>  (47) 
{"free_energy": -7.37, "intermolecular_energy": -9.75, "internal_energy": -3.47, "cluster_size": 10, "cluster_id": 9, "rank_in_cluster": 8}

>  <energy>  (47) 
-6.8

>  <cluster_rmsd>  (47) 
1.3

>  <cluster>  (47) 
9

$$$$

     RDKit          3D

 66 68  0  0  0  0  0  0  0  0999 V2000
  135.3820   70.5170  224.5280 C   0  0  0  0  0  0  0  0  0  0  0  0
  136.1870   69.2970  224.9580 C   0  0  0  0  0  0  0  0  0  0  0  0
  137.4810   69.2580  224.1730 C   0  0  0  0  0  0  0  0  0  0  0  0
  137.4380   68.5050  223.1750 O   0  0  0  0  0  0  0  0  0  0  0  0
  138.6090   70.0290  224.5840 N   0  0  0  0  0  0  0  0  0  0  0  0
  139.3570   69.7560  225.7600 C   0  0  0  0  0  0  0  0  0  0  0  0
  139.9740   70.7920  226.4650 C   0  0  0  0  0  0  0  0  0  0  0  0
  140.7060   70.5510  227.6230 C   0  0  0  0  0  0  0  0  0  0  0  0
  140.8570   69.2910  228.1270 C   0  0  0  0  0  0  0  0  0  0  0  0
  140.2600   68.2550  227.4550 C   0  0  0  0  0  0  0  0  0  0  0  0
  139.5260   68.4970  226.2930 C   0  0  0  0  0  0  0  0  0  0  0  0
  138.9560   71.1380  223.7080 C   0  0  0  0  0  0  0  0  0  0  0  0
  140.3340   71.0420  223.0990 C   0  0  0  0  0  0  0  0  0  0  0  0
  140.6570   72.4700  222.6280 C   0  0  0  0  0  0  0  0  0  0  0  0
  139.5490   73.0200  221.8760 N   0  0  0  0  0  0  0  0  0  0  0  0
  139.5470   74.4120  221.5990 C   0  0  0  0  0  0  0  0  0  0  0  0
  140.5000   75.0950  222.0540 O   0  0  0  0  0  0  0  0  0  0  0  0
  138.4350   75.0490  220.7900 C   0  0  2  0  0  0  0  0  0  0  0  0
  138.7270   74.6390  219.3500 C   0  0  0  0  0  0  0  0  0  0  0  0
  138.5370   76.4490  221.0300 N   0  0  0  0  0  0  0  0  0  0  0  0
  137.6230   77.0380  221.9400 C   0  0  0  0  0  0  0  0  0  0  0  0
  137.2330   76.1070  223.0710 C   0  0  0  0  0  0  0  0  0  0  0  0
  136.4090   77.5900  221.2740 C   0  0  0  0  0  0  0  0  0  0  0  0
  138.3120   78.2120  222.5870 C   0  0  0  0  0  0  0  0  0  0  0  0
  137.5820   79.2710  223.1100 C   0  0  0  0  0  0  0  0  0  0  0  0
  138.1900   80.3560  223.7080 C   0  0  0  0  0  0  0  0  0  0  0  0
  139.5770   80.4120  223.7980 C   0  0  0  0  0  0  0  0  0  0  0  0
  140.3130   79.3660  223.2800 C   0  0  0  0  0  0  0  0  0  0  0  0
  142.1960   79.4230  223.3870 Br  0  0  0  0  0  0  0  0  0  0  0  0
  139.6820   78.2930  222.6900 C   0  0  0  0  0  0  0  0  0  0  0  0
  138.4880   72.1160  221.4720 C   0  0  0  0  0  0  0  0  0  0  0  0
  137.8840   71.6100  222.7980 C   0  0  0  0  0  0  0  0  0  0  0  0
  135.0271   71.0549  225.4195 H   0  0  0  0  0  0  0  0  0  0  0  0
  136.0185   71.1831  223.9271 H   0  0  0  0  0  0  0  0  0  0  0  0
  134.5192   70.1938  223.9271 H   0  0  0  0  0  0  0  0  0  0  0  0
  136.4098   69.3625  226.0332 H   0  0  0  0  0  0  0  0  0  0  0  0
  135.6074   68.3824  224.7643 H   0  0  0  0  0  0  0  0  0  0  0  0
  139.8787   71.8237  226.0954 H   0  0  0  0  0  0  0  0  0  0  0  0
  141.1753   71.3972  228.1462 H   0  0  0  0  0  0  0  0  0  0  0  0
  141.4391   69.1124  229.0431 H   0  0  0  0  0  0  0  0  0  0  0  0
  140.3604   67.2273  227.8342 H   0  0  0  0  0  0  0  0  0  0  0  0
  139.0609   67.6430  225.7789 H   0  0  0  0  0  0  0  0  0  0  0  0
  139.0369   71.9872  224.4024 H   0  0  0  0  0  0  0  0  0  0  0  0
  141.0661   70.7064  223.8483 H   0  0  0  0  0  0  0  0  0  0  0  0
  140.3735   70.3145  222.2748 H   0  0  0  0  0  0  0  0  0  0  0  0
  140.8497   73.1053  223.5051 H   0  0  0  0  0  0  0  0  0  0  0  0
  141.5451   72.4378  221.9797 H   0  0  0  0  0  0  0  0  0  0  0  0
  137.4073   74.7459  221.0391 H   0  0  0  0  0  0  0  0  0  0  0  0
  139.3651   73.7430  219.3461 H   0  0  0  0  0  0  0  0  0  0  0  0
  137.7817   74.4181  218.8328 H   0  0  0  0  0  0  0  0  0  0  0  0
  139.2448   75.4602  218.8328 H   0  0  0  0  0  0  0  0  0  0  0  0
  139.5360   76.6530  221.3010 H   0  0  0  0  0  0  0  0  0  0  0  0
  137.4376   76.5955  224.0351 H   0  0  0  0  0  0  0  0  0  0  0  0
  136.1608   75.8720  222.9993 H   0  0  0  0  0  0  0  0  0  0  0  0
  137.8176   75.1780  222.9993 H   0  0  0  0  0  0  0  0  0  0  0  0
  135.6886   77.9176  222.0380 H   0  0  0  0  0  0  0  0  0  0  0  0
  136.6930   78.4475  220.6463 H   0  0  0  0  0  0  0  0  0  0  0  0
  135.9495   76.8123  220.6463 H   0  0  0  0  0  0  0  0  0  0  0  0
  136.4842   79.2443  223.0456 H   0  0  0  0  0  0  0  0  0  0  0  0
  137.5785   81.1757  224.1131 H   0  0  0  0  0  0  0  0  0  0  0  0
  140.0758   81.2706  224.2714 H   0  0  0  0  0  0  0  0  0  0  0  0
  140.2942   77.4726  222.2873 H   0  0  0  0  0  0  0  0  0  0  0  0
  137.7302   72.6473  220.8775 H   0  0  0  0  0  0  0  0  0  0  0  0
  138.8571   71.2943  220.8407 H   0  0  0  0  0  0  0  0  0  0  0  0
  137.3332   72.4302  223.2816 H   0  0  0  0  0  0  0  0  0  0  0  0
  137.2038   70.7725  222.5835 H   0  0  0  0  0  0  0  0  0  0  0  0
  1  2  1  0
  2  3  1  0
  3  4  2  0
  3  5  1  0
  5  6  1  0
  6  7  2  0
  7  8  1  0
  8  9  2  0
  9 10  1  0
 10 11  2  0
  5 12  1  0
 12 13  1  0
 13 14  1  0
 14 15  1  0
 15 16  1  0
 16 17  2  0
 16 18  1  0
 18 19  1  0
 18 20  1  0
 20 21  1  0
 21 22  1  0
 21 23  1  0
 21 24  1  0
 24 25  2  0
 25 26  1  0
 26 27  2  0
 27 28  1  0
 28 29  1  0
 28 30  2  0
 15 31  1  0
 31 32  1  0
 11  6  1  0
 32 12  1  0
 30 24  1  0
  1 33  1  0
  1 34  1  0
  1 35  1  0
  2 36  1  0
  2 37  1  0
  7 38  1  0
  8 39  1  0
  9 40  1  0
 10 41  1  0
 11 42  1  0
 12 43  1  0
 13 44  1  0
 13 45  1  0
 14 46  1  0
 14 47  1  0
 18 48  1  1
 19 49  1  0
 19 50  1  0
 19 51  1  0
 20 52  1  0
 22 53  1  0
 22 54  1  0
 22 55  1  0
 23 56  1  0
 23 57  1  0
 23 58  1  0
 25 59  1  0
 26 60  1  0
 27 61  1  0
 30 62  1  0
 31 63  1  0
 31 64  1  0
 32 65  1  0
 32 66  1  0
M  END
>  <smiles>  (48) 
CCC(=O)N(c1ccccc1)C1CCN(C(=O)[C@H](C)NC(C)(C)c2cccc(Br)c2)CC1

>  <score_type>  (48) 
oracle

>  <origin>  (48) 
autodockgpu

>  <m_score__min__energy>  (48) 
-8.9299999999999997

>  <m_primary>  (48) 
energy

>  <rmsd>  (48) 
5.128446516360627

>  <m_score__min__rmsd>  (48) 
5.128446516360627

>  <meeko>  (48) 
{"free_energy": -7.52, "intermolecular_energy": -9.91, "internal_energy": -2.7, "cluster_size": 2, "cluster_id": 7, "rank_in_cluster": 2}

>  <energy>  (48) 
-7.47

>  <cluster_rmsd>  (48) 
0.0

>  <cluster>  (48) 
10

$$$$

     RDKit          3D

 66 68  0  0  0  0  0  0  0  0999 V2000
  136.9210   82.0430  225.0210 C   0  0  0  0  0  0  0  0  0  0  0  0
  137.7530   80.7700  224.9340 C   0  0  0  0  0  0  0  0  0  0  0  0
  137.8810   80.3620  223.4820 C   0  0  0  0  0  0  0  0  0  0  0  0
  137.0230   80.8840  222.7370 O   0  0  0  0  0  0  0  0  0  0  0  0
  138.9050   79.4600  223.0640 N   0  0  0  0  0  0  0  0  0  0  0  0
  140.2790   79.8120  222.9970 C   0  0  0  0  0  0  0  0  0  0  0  0
  140.7510   80.6360  221.9720 C   0  0  0  0  0  0  0  0  0  0  0  0
  142.0900   81.0000  221.8880 C   0  0  0  0  0  0  0  0  0  0  0  0
  143.0090   80.5720  222.8030 C   0  0  0  0  0  0  0  0  0  0  0  0
  142.5730   79.7630  223.8210 C   0  0  0  0  0  0  0  0  0  0  0  0
  141.2280   79.3960  223.9040 C   0  0  0  0  0  0  0  0  0  0  0  0
  138.4480   78.1260  222.7040 C   0  0  0  0  0  0  0  0  0  0  0  0
  137.0630   78.0820  222.1060 C   0  0  0  0  0  0  0  0  0  0  0  0
  136.6190   76.6160  222.2450 C   0  0  0  0  0  0  0  0  0  0  0  0
  137.6580   75.7250  221.7750 N   0  0  0  0  0  0  0  0  0  0  0  0
  137.5480   74.3420  222.0770 C   0  0  0  0  0  0  0  0  0  0  0  0
  136.5620   73.9760  222.7660 O   0  0  0  0  0  0  0  0  0  0  0  0
  138.5820   73.3480  221.5900 C   0  0  2  0  0  0  0  0  0  0  0  0
  138.1610   73.0280  220.1590 C   0  0  0  0  0  0  0  0  0  0  0  0
  138.5050   72.2410  222.4820 N   0  0  0  0  0  0  0  0  0  0  0  0
  139.6060   71.3500  222.5380 C   0  0  0  0  0  0  0  0  0  0  0  0
  140.9380   72.0430  222.3240 C   0  0  0  0  0  0  0  0  0  0  0  0
  139.4660   70.1890  221.6140 C   0  0  0  0  0  0  0  0  0  0  0  0
  139.6580   70.7710  223.9280 C   0  0  0  0  0  0  0  0  0  0  0  0
  139.1380   69.5110  224.1990 C   0  0  0  0  0  0  0  0  0  0  0  0
  139.1750   68.9600  225.4630 C   0  0  0  0  0  0  0  0  0  0  0  0
  139.7420   69.6710  226.5150 C   0  0  0  0  0  0  0  0  0  0  0  0
  140.2600   70.9230  226.2590 C   0  0  0  0  0  0  0  0  0  0  0  0
  141.0320   71.9080  227.6710 Br  0  0  0  0  0  0  0  0  0  0  0  0
  140.2140   71.4520  224.9870 C   0  0  0  0  0  0  0  0  0  0  0  0
  138.7700   76.3040  221.0450 C   0  0  0  0  0  0  0  0  0  0  0  0
  139.4520   77.2450  222.0580 C   0  0  0  0  0  0  0  0  0  0  0  0
  136.7531   82.2998  226.0773 H   0  0  0  0  0  0  0  0  0  0  0  0
  137.4563   82.8656  224.5242 H   0  0  0  0  0  0  0  0  0  0  0  0
  135.9527   81.8828  224.5242 H   0  0  0  0  0  0  0  0  0  0  0  0
  138.7526   80.9535  225.3548 H   0  0  0  0  0  0  0  0  0  0  0  0
  137.2629   79.9666  225.5035 H   0  0  0  0  0  0  0  0  0  0  0  0
  140.0458   81.0057  221.2130 H   0  0  0  0  0  0  0  0  0  0  0  0
  142.4178   81.6497  221.0631 H   0  0  0  0  0  0  0  0  0  0  0  0
  144.0659   80.8669  222.7259 H   0  0  0  0  0  0  0  0  0  0  0  0
  143.2864   79.4013  224.5761 H   0  0  0  0  0  0  0  0  0  0  0  0
  140.9121   78.7446  224.7322 H   0  0  0  0  0  0  0  0  0  0  0  0
  138.3260   77.6350  223.6807 H   0  0  0  0  0  0  0  0  0  0  0  0
  136.3819   78.7467  222.6576 H   0  0  0  0  0  0  0  0  0  0  0  0
  137.0526   78.4206  221.0595 H   0  0  0  0  0  0  0  0  0  0  0  0
  136.4084   76.4003  223.3029 H   0  0  0  0  0  0  0  0  0  0  0  0
  135.7147   76.4592  221.6387 H   0  0  0  0  0  0  0  0  0  0  0  0
  139.6275   73.6898  221.5796 H   0  0  0  0  0  0  0  0  0  0  0  0
  137.2853   72.3624  220.1746 H   0  0  0  0  0  0  0  0  0  0  0  0
  137.9036   73.9605  219.6353 H   0  0  0  0  0  0  0  0  0  0  0  0
  138.9905   72.5304  219.6353 H   0  0  0  0  0  0  0  0  0  0  0  0
  138.2680   72.6200  223.4380 H   0  0  0  0  0  0  0  0  0  0  0  0
  141.3898   72.2781  223.2990 H   0  0  0  0  0  0  0  0  0  0  0  0
  141.6097   71.3800  221.7589 H   0  0  0  0  0  0  0  0  0  0  0  0
  140.7806   72.9735  221.7589 H   0  0  0  0  0  0  0  0  0  0  0  0
  139.3546   69.2650  222.2004 H   0  0  0  0  0  0  0  0  0  0  0  0
  138.5784   70.3301  220.9798 H   0  0  0  0  0  0  0  0  0  0  0  0
  140.3617   70.1150  220.9798 H   0  0  0  0  0  0  0  0  0  0  0  0
  138.6827   68.9351  223.3799 H   0  0  0  0  0  0  0  0  0  0  0  0
  138.7560   67.9582  225.6388 H   0  0  0  0  0  0  0  0  0  0  0  0
  139.7765   69.2444  227.5283 H   0  0  0  0  0  0  0  0  0  0  0  0
  140.6361   72.4527  224.8123 H   0  0  0  0  0  0  0  0  0  0  0  0
  139.4668   75.5203  220.7129 H   0  0  0  0  0  0  0  0  0  0  0  0
  138.4432   76.8336  220.1380 H   0  0  0  0  0  0  0  0  0  0  0  0
  139.9557   76.6435  222.8290 H   0  0  0  0  0  0  0  0  0  0  0  0
  140.1851   77.8697  221.5266 H   0  0  0  0  0  0  0  0  0  0  0  0
  1  2  1  0
  2  3  1  0
  3  4  2  0
  3  5  1  0
  5  6  1  0
  6  7  2  0
  7  8  1  0
  8  9  2  0
  9 10  1  0
 10 11  2  0
  5 12  1  0
 12 13  1  0
 13 14  1  0
 14 15  1  0
 15 16  1  0
 16 17  2  0
 16 18  1  0
 18 19  1  0
 18 20  1  0
 20 21  1  0
 21 22  1  0
 21 23  1  0
 21 24  1  0
 24 25  2  0
 25 26  1  0
 26 27  2  0
 27 28  1  0
 28 29  1  0
 28 30  2  0
 15 31  1  0
 31 32  1  0
 11  6  1  0
 32 12  1  0
 30 24  1  0
  1 33  1  0
  1 34  1  0
  1 35  1  0
  2 36  1  0
  2 37  1  0
  7 38  1  0
  8 39  1  0
  9 40  1  0
 10 41  1  0
 11 42  1  0
 12 43  1  0
 13 44  1  0
 13 45  1  0
 14 46  1  0
 14 47  1  0
 18 48  1  6
 19 49  1  0
 19 50  1  0
 19 51  1  0
 20 52  1  0
 22 53  1  0
 22 54  1  0
 22 55  1  0
 23 56  1  0
 23 57  1  0
 23 58  1  0
 25 59  1  0
 26 60  1  0
 27 61  1  0
 30 62  1  0
 31 63  1  0
 31 64  1  0
 32 65  1  0
 32 66  1  0
M  END
>  <smiles>  (49) 
CCC(=O)N(c1ccccc1)C1CCN(C(=O)[C@H](C)NC(C)(C)c2cccc(Br)c2)CC1

>  <score_type>  (49) 
oracle

>  <origin>  (49) 
autodockgpu

>  <m_score__min__energy>  (49) 
-8.9299999999999997

>  <m_primary>  (49) 
energy

>  <rmsd>  (49) 
8.340480220236545

>  <m_score__min__rmsd>  (49) 
8.340480220236545

>  <meeko>  (49) 
{"free_energy": -8.15, "intermolecular_energy": -10.54, "internal_energy": -2.37, "cluster_size": 2, "cluster_id": 3, "rank_in_cluster": 1}

>  <energy>  (49) 
-7.39

>  <cluster_rmsd>  (49) 
0.52

>  <cluster>  (49) 
10

$$$$

     RDKit          3D

 66 68  0  0  0  0  0  0  0  0999 V2000
  146.3230   73.1090  221.5840 C   0  0  0  0  0  0  0  0  0  0  0  0
  145.4120   74.1050  220.8800 C   0  0  0  0  0  0  0  0  0  0  0  0
  145.1450   73.6210  219.4710 C   0  0  0  0  0  0  0  0  0  0  0  0
  145.9500   72.7480  219.0810 O   0  0  0  0  0  0  0  0  0  0  0  0
  144.0610   74.1510  218.7090 N   0  0  0  0  0  0  0  0  0  0  0  0
  144.1730   74.5280  217.3440 C   0  0  0  0  0  0  0  0  0  0  0  0
  144.3980   73.5650  216.3580 C   0  0  0  0  0  0  0  0  0  0  0  0
  144.5040   73.9080  215.0150 C   0  0  0  0  0  0  0  0  0  0  0  0
  144.3950   75.2030  214.5940 C   0  0  0  0  0  0  0  0  0  0  0  0
  144.1720   76.1700  215.5420 C   0  0  0  0  0  0  0  0  0  0  0  0
  144.0660   75.8250  216.8900 C   0  0  0  0  0  0  0  0  0  0  0  0
  142.8040   74.2870  219.4290 C   0  0  0  0  0  0  0  0  0  0  0  0
  142.2920   75.7030  219.5280 C   0  0  0  0  0  0  0  0  0  0  0  0
  141.2710   75.6750  220.6780 C   0  0  0  0  0  0  0  0  0  0  0  0
  140.3560   74.5640  220.5170 N   0  0  0  0  0  0  0  0  0  0  0  0
  139.5250   74.2110  221.6120 C   0  0  0  0  0  0  0  0  0  0  0  0
  139.6560   74.8690  222.6750 O   0  0  0  0  0  0  0  0  0  0  0  0
  138.5220   73.0800  221.5030 C   0  0  2  0  0  0  0  0  0  0  0  0
  137.1730   73.7780  221.3710 C   0  0  0  0  0  0  0  0  0  0  0  0
  138.6700   72.3160  222.6960 N   0  0  0  0  0  0  0  0  0  0  0  0
  139.5080   71.1730  222.6560 C   0  0  0  0  0  0  0  0  0  0  0  0
  140.7470   71.3780  221.8060 C   0  0  0  0  0  0  0  0  0  0  0  0
  138.7880   69.9350  222.2410 C   0  0  0  0  0  0  0  0  0  0  0  0
  140.0020   70.9170  224.0560 C   0  0  0  0  0  0  0  0  0  0  0  0
  140.6940   71.8940  224.7610 C   0  0  0  0  0  0  0  0  0  0  0  0
  141.1550   71.6830  226.0440 C   0  0  0  0  0  0  0  0  0  0  0  0
  140.9330   70.4620  226.6700 C   0  0  0  0  0  0  0  0  0  0  0  0
  140.2470   69.4840  225.9800 C   0  0  0  0  0  0  0  0  0  0  0  0
  139.9370   67.8160  226.8080 Br  0  0  0  0  0  0  0  0  0  0  0  0
  139.7950   69.7180  224.7000 C   0  0  0  0  0  0  0  0  0  0  0  0
  140.3620   73.8580  219.2490 C   0  0  0  0  0  0  0  0  0  0  0  0
  141.7770   73.2530  219.1500 C   0  0  0  0  0  0  0  0  0  0  0  0
  146.2187   73.2230  222.6731 H   0  0  0  0  0  0  0  0  0  0  0  0
  146.0415   72.0860  221.2938 H   0  0  0  0  0  0  0  0  0  0  0  0
  147.3670   73.2983  221.2938 H   0  0  0  0  0  0  0  0  0  0  0  0
  144.4617   74.1862  221.4280 H   0  0  0  0  0  0  0  0  0  0  0  0
  145.8966   75.0920  220.8475 H   0  0  0  0  0  0  0  0  0  0  0  0
  144.4937   72.5091  216.6512 H   0  0  0  0  0  0  0  0  0  0  0  0
  144.6802   73.1161  214.2721 H   0  0  0  0  0  0  0  0  0  0  0  0
  144.4832   75.4626  213.5287 H   0  0  0  0  0  0  0  0  0  0  0  0
  144.0763   77.2227  215.2376 H   0  0  0  0  0  0  0  0  0  0  0  0
  143.8889   76.6249  217.6240 H   0  0  0  0  0  0  0  0  0  0  0  0
  143.0846   74.0389  220.4633 H   0  0  0  0  0  0  0  0  0  0  0  0
  143.1143   76.3967  219.7573 H   0  0  0  0  0  0  0  0  0  0  0  0
  141.8439   76.0483  218.5846 H   0  0  0  0  0  0  0  0  0  0  0  0
  141.8051   75.5685  221.6337 H   0  0  0  0  0  0  0  0  0  0  0  0
  140.6968   76.6132  220.6669 H   0  0  0  0  0  0  0  0  0  0  0  0
  138.6449   72.3913  220.6542 H   0  0  0  0  0  0  0  0  0  0  0  0
  136.7688   73.9871  222.3725 H   0  0  0  0  0  0  0  0  0  0  0  0
  137.3012   74.7229  220.8227 H   0  0  0  0  0  0  0  0  0  0  0  0
  136.4757   73.1275  220.8227 H   0  0  0  0  0  0  0  0  0  0  0  0
  138.9600   72.9790  223.4630 H   0  0  0  0  0  0  0  0  0  0  0  0
  141.6201   71.5225  222.4593 H   0  0  0  0  0  0  0  0  0  0  0  0
  140.9064   70.4940  221.1710 H   0  0  0  0  0  0  0  0  0  0  0  0
  140.6132   72.2662  221.1710 H   0  0  0  0  0  0  0  0  0  0  0  0
  138.4658   69.3810  223.1351 H   0  0  0  0  0  0  0  0  0  0  0  0
  137.9071   70.2069  221.6409 H   0  0  0  0  0  0  0  0  0  0  0  0
  139.4599   69.3038  221.6409 H   0  0  0  0  0  0  0  0  0  0  0  0
  140.8801   72.8662  224.2811 H   0  0  0  0  0  0  0  0  0  0  0  0
  141.6982   72.4809  226.5715 H   0  0  0  0  0  0  0  0  0  0  0  0
  141.2960   70.2797  227.6922 H   0  0  0  0  0  0  0  0  0  0  0  0
  139.2502   68.9198  224.1746 H   0  0  0  0  0  0  0  0  0  0  0  0
  139.5991   73.0656  219.2417 H   0  0  0  0  0  0  0  0  0  0  0  0
  140.1298   74.5193  218.4012 H   0  0  0  0  0  0  0  0  0  0  0  0
  141.8747   72.4385  219.8828 H   0  0  0  0  0  0  0  0  0  0  0  0
  141.9285   72.8663  218.1314 H   0  0  0  0  0  0  0  0  0  0  0  0
  1  2  1  0
  2  3  1  0
  3  4  2  0
  3  5  1  0
  5  6  1  0
  6  7  2  0
  7  8  1  0
  8  9  2  0
  9 10  1  0
 10 11  2  0
  5 12  1  0
 12 13  1  0
 13 14  1  0
 14 15  1  0
 15 16  1  0
 16 17  2  0
 16 18  1  0
 18 19  1  0
 18 20  1  0
 20 21  1  0
 21 22  1  0
 21 23  1  0
 21 24  1  0
 24 25  2  0
 25 26  1  0
 26 27  2  0
 27 28  1  0
 28 29  1  0
 28 30  2  0
 15 31  1  0
 31 32  1  0
 11  6  1  0
 32 12  1  0
 30 24  1  0
  1 33  1  0
  1 34  1  0
  1 35  1  0
  2 36  1  0
  2 37  1  0
  7 38  1  0
  8 39  1  0
  9 40  1  0
 10 41  1  0
 11 42  1  0
 12 43  1  0
 13 44  1  0
 13 45  1  0
 14 46  1  0
 14 47  1  0
 18 48  1  6
 19 49  1  0
 19 50  1  0
 19 51  1  0
 20 52  1  0
 22 53  1  0
 22 54  1  0
 22 55  1  0
 23 56  1  0
 23 57  1  0
 23 58  1  0
 25 59  1  0
 26 60  1  0
 27 61  1  0
 30 62  1  0
 31 63  1  0
 31 64  1  0
 32 65  1  0
 32 66  1  0
M  END
>  <smiles>  (50) 
CCC(=O)N(c1ccccc1)C1CCN(C(=O)[C@H](C)NC(C)(C)c2cccc(Br)c2)CC1

>  <score_type>  (50) 
oracle

>  <origin>  (50) 
autodockgpu

>  <m_score__min__energy>  (50) 
-8.9299999999999997

>  <m_primary>  (50) 
energy

>  <rmsd>  (50) 
8.022886352452032

>  <m_score__min__rmsd>  (50) 
8.022886352452032

>  <meeko>  (50) 
{"free_energy": -7.8, "intermolecular_energy": -10.18, "internal_energy": -2.8, "cluster_size": 3, "cluster_id": 4, "rank_in_cluster": 3}

>  <energy>  (50) 
-6.94

>  <cluster_rmsd>  (50) 
0.0

>  <cluster>  (50) 
11

$$$$
