
     RDKit          3D

 55 58  0  0  0  0  0  0  0  0999 V2000
  139.8380   74.1850  221.9730 O   0  0  0  0  0  0  0  0  0  0  0  0
  140.2130   75.3660  221.8030 C   0  0  0  0  0  0  0  0  0  0  0  0
  141.4750   75.7300  221.2550 N   0  0  0  0  0  0  0  0  0  0  0  0
  142.3770   74.6660  220.8700 C   0  0  0  0  0  0  0  0  0  0  0  0
  143.2570   75.1070  219.7740 C   0  0  0  0  0  0  0  0  0  0  0  0
  144.4880   74.8500  219.8240 O   0  0  0  0  0  0  0  0  0  0  0  0
  142.6690   75.8120  218.6910 N   0  0  0  0  0  0  0  0  0  0  0  0
  141.4200   75.5820  217.9980 C   0  0  0  0  0  0  0  0  0  0  0  0
  141.5600   76.1440  216.6260 C   0  0  1  0  0  0  0  0  0  0  0  0
  140.6660   77.1520  216.4130 F   0  0  0  0  0  0  0  0  0  0  0  0
  143.0010   76.6350  216.6050 C   0  0  0  0  0  0  0  0  0  0  0  0
  143.2920   77.0090  218.0320 C   0  0  1  0  0  0  0  0  0  0  0  0
  142.5670   78.1940  218.5610 C   0  0  0  0  0  0  0  0  0  0  0  0
  141.9050   78.1290  219.7310 O   0  0  0  0  0  0  0  0  0  0  0  0
  141.0600   79.1060  220.0980 C   0  0  0  0  0  0  0  0  0  0  0  0
  141.5710   79.8620  221.3230 C   0  0  0  0  0  0  0  0  0  0  0  0
  141.2940   81.2000  221.4930 C   0  0  0  0  0  0  0  0  0  0  0  0
  141.8040   81.8010  222.6410 C   0  0  0  0  0  0  0  0  0  0  0  0
  142.5510   81.0880  223.5650 C   0  0  0  0  0  0  0  0  0  0  0  0
  142.8210   79.7460  223.3790 C   0  0  0  0  0  0  0  0  0  0  0  0
  142.3190   79.1330  222.2370 C   0  0  0  0  0  0  0  0  0  0  0  0
  139.2990   76.4590  222.1930 C   0  0  0  0  0  0  0  0  0  0  0  0
  137.9500   76.3850  221.9340 C   0  0  0  0  0  0  0  0  0  0  0  0
  137.0650   77.3930  222.2870 C   0  0  0  0  0  0  0  0  0  0  0  0
  137.5880   78.5090  222.9260 C   0  0  0  0  0  0  0  0  0  0  0  0
  136.7670   79.5700  223.3160 C   0  0  0  0  0  0  0  0  0  0  0  0
  137.3360   80.6680  223.9530 C   0  0  0  0  0  0  0  0  0  0  0  0
  136.3170   82.0020  224.4450 Cl  0  0  0  0  0  0  0  0  0  0  0  0
  138.6880   80.7450  224.2150 C   0  0  0  0  0  0  0  0  0  0  0  0
  139.4860   79.6850  223.8220 C   0  0  0  0  0  0  0  0  0  0  0  0
  138.9340   78.5760  223.1810 C   0  0  0  0  0  0  0  0  0  0  0  0
  139.7430   77.5660  222.8160 N   0  0  0  0  0  0  0  0  0  0  0  0
  141.7350   76.7490  221.1370 H   0  0  0  0  0  0  0  0  0  0  0  0
  142.9924   74.3819  221.7363 H   0  0  0  0  0  0  0  0  0  0  0  0
  141.7852   73.8048  220.5265 H   0  0  0  0  0  0  0  0  0  0  0  0
  141.2142   74.5028  217.9427 H   0  0  0  0  0  0  0  0  0  0  0  0
  140.5866   76.0632  218.5309 H   0  0  0  0  0  0  0  0  0  0  0  0
  141.3506   75.4170  215.8275 H   0  0  0  0  0  0  0  0  0  0  0  0
  143.6786   75.8375  216.2661 H   0  0  0  0  0  0  0  0  0  0  0  0
  143.1456   77.4783  215.9137 H   0  0  0  0  0  0  0  0  0  0  0  0
  144.3548   77.2501  218.1816 H   0  0  0  0  0  0  0  0  0  0  0  0
  143.3116   78.9969  218.6656 H   0  0  0  0  0  0  0  0  0  0  0  0
  141.7578   78.3330  217.8290 H   0  0  0  0  0  0  0  0  0  0  0  0
  140.9483   79.8134  219.2631 H   0  0  0  0  0  0  0  0  0  0  0  0
  140.0945   78.6464  220.3559 H   0  0  0  0  0  0  0  0  0  0  0  0
  140.7003   81.7652  220.7595 H   0  0  0  0  0  0  0  0  0  0  0  0
  141.6089   82.8689  222.8189 H   0  0  0  0  0  0  0  0  0  0  0  0
  142.9350   81.5985  224.4605 H   0  0  0  0  0  0  0  0  0  0  0  0
  143.4148   79.1801  224.1119 H   0  0  0  0  0  0  0  0  0  0  0  0
  142.5153   78.0658  222.0569 H   0  0  0  0  0  0  0  0  0  0  0  0
  137.5577   75.4912  221.4270 H   0  0  0  0  0  0  0  0  0  0  0  0
  135.9899   77.3113  222.0690 H   0  0  0  0  0  0  0  0  0  0  0  0
  135.6847   79.5376  223.1219 H   0  0  0  0  0  0  0  0  0  0  0  0
  139.1186   81.6219  224.7207 H   0  0  0  0  0  0  0  0  0  0  0  0
  140.5680   79.7173  224.0174 H   0  0  0  0  0  0  0  0  0  0  0  0
  1  2  2  0
  2  3  1  0
  3  4  1  0
  4  5  1  0
  5  6  2  0
  5  7  1  0
  7  8  1  0
  8  9  1  0
  9 10  1  0
  9 11  1  0
 11 12  1  0
 12 13  1  0
 13 14  1  0
 14 15  1  0
 15 16  1  0
 16 17  2  0
 17 18  1  0
 18 19  2  0
 19 20  1  0
 20 21  2  0
  2 22  1  0
 22 23  2  0
 23 24  1  0
 24 25  2  0
 25 26  1  0
 26 27  2  0
 27 28  1  0
 27 29  1  0
 29 30  2  0
 30 31  1  0
 31 32  2  0
 12  7  1  0
 21 16  1  0
 32 22  1  0
 31 25  1  0
  3 33  1  0
  4 34  1  0
  4 35  1  0
  8 36  1  0
  8 37  1  0
  9 38  1  6
 11 39  1  0
 11 40  1  0
 12 41  1  6
 13 42  1  0
 13 43  1  0
 15 44  1  0
 15 45  1  0
 17 46  1  0
 18 47  1  0
 19 48  1  0
 20 49  1  0
 21 50  1  0
 23 51  1  0
 24 52  1  0
 26 53  1  0
 29 54  1  0
 30 55  1  0
M  END
>  <smiles>  (1) 
O=C(NCC(=O)N1C[C@@H](F)C[C@H]1COCc1ccccc1)c1ccc2cc(Cl)ccc2n1

>  <score_type>  (1) 
oracle

>  <origin>  (1) 
autodockgpu

>  <m_score__min__energy>  (1) 
-8.9600000000000009

>  <m_primary>  (1) 
energy

>  <rmsd>  (1) 
6.857884308082415

>  <m_score__min__rmsd>  (1) 
6.857884308082415

>  <meeko>  (1) 
{"free_energy": -6.47, "intermolecular_energy": -8.86, "internal_energy": -3.77, "cluster_size": 4, "cluster_id": 11, "rank_in_cluster": 1}

>  <energy>  (1) 
-8.96

>  <cluster_rmsd>  (1) 
0.0

>  <cluster>  (1) 
1

$$$$

     RDKit          3D

 55 58  0  0  0  0  0  0  0  0999 V2000
  138.0860   71.4100  220.7100 O   0  0  0  0  0  0  0  0  0  0  0  0
  138.5190   71.9880  221.7310 C   0  0  0  0  0  0  0  0  0  0  0  0
  138.7040   73.3950  221.8330 N   0  0  0  0  0  0  0  0  0  0  0  0
  138.3700   74.2060  220.6810 C   0  0  0  0  0  0  0  0  0  0  0  0
  139.4000   74.0700  219.6380 C   0  0  0  0  0  0  0  0  0  0  0  0
  139.1950   73.3080  218.6570 O   0  0  0  0  0  0  0  0  0  0  0  0
  140.5990   74.8160  219.7850 N   0  0  0  0  0  0  0  0  0  0  0  0
  141.0890   75.9500  219.0320 C   0  0  0  0  0  0  0  0  0  0  0  0
  142.5740   75.9550  219.1470 C   0  0  1  0  0  0  0  0  0  0  0  0
  143.0170   77.0860  219.7660 F   0  0  0  0  0  0  0  0  0  0  0  0
  142.8560   74.7000  219.9610 C   0  0  0  0  0  0  0  0  0  0  0  0
  141.6410   74.5340  220.8310 C   0  0  1  0  0  0  0  0  0  0  0  0
  141.4480   75.5570  221.8910 C   0  0  0  0  0  0  0  0  0  0  0  0
  140.2300   75.7760  222.4220 O   0  0  0  0  0  0  0  0  0  0  0  0
  139.6690   76.9960  222.3740 C   0  0  0  0  0  0  0  0  0  0  0  0
  140.7230   78.1010  222.3780 C   0  0  0  0  0  0  0  0  0  0  0  0
  141.4470   78.3810  223.5150 C   0  0  0  0  0  0  0  0  0  0  0  0
  142.3850   79.4060  223.4200 C   0  0  0  0  0  0  0  0  0  0  0  0
  142.5790   80.1080  222.2410 C   0  0  0  0  0  0  0  0  0  0  0  0
  141.8430   79.8150  221.1090 C   0  0  0  0  0  0  0  0  0  0  0  0
  140.9030   78.7940  221.1890 C   0  0  0  0  0  0  0  0  0  0  0  0
  138.8630   71.1690  222.9120 C   0  0  0  0  0  0  0  0  0  0  0  0
  138.4390   69.8650  223.0210 C   0  0  0  0  0  0  0  0  0  0  0  0
  138.7440   69.0690  224.1160 C   0  0  0  0  0  0  0  0  0  0  0  0
  139.5090   69.6360  225.1260 C   0  0  0  0  0  0  0  0  0  0  0  0
  139.8620   68.9050  226.2630 C   0  0  0  0  0  0  0  0  0  0  0  0
  140.6300   69.5160  227.2490 C   0  0  0  0  0  0  0  0  0  0  0  0
  141.0770   68.6100  228.6770 Cl  0  0  0  0  0  0  0  0  0  0  0  0
  141.0570   70.8230  227.1420 C   0  0  0  0  0  0  0  0  0  0  0  0
  140.6980   71.5320  226.0090 C   0  0  0  0  0  0  0  0  0  0  0  0
  139.9290   70.9380  225.0100 C   0  0  0  0  0  0  0  0  0  0  0  0
  139.6010   71.6590  223.9240 N   0  0  0  0  0  0  0  0  0  0  0  0
  139.0750   73.8250  222.7260 H   0  0  0  0  0  0  0  0  0  0  0  0
  137.4005   73.8790  220.2770 H   0  0  0  0  0  0  0  0  0  0  0  0
  138.3156   75.2598  220.9918 H   0  0  0  0  0  0  0  0  0  0  0  0
  140.7943   75.8557  217.9764 H   0  0  0  0  0  0  0  0  0  0  0  0
  140.6666   76.8872  219.4236 H   0  0  0  0  0  0  0  0  0  0  0  0
  143.0922   75.9531  218.1767 H   0  0  0  0  0  0  0  0  0  0  0  0
  142.9835   73.8292  219.3011 H   0  0  0  0  0  0  0  0  0  0  0  0
  143.7826   74.7819  220.5481 H   0  0  0  0  0  0  0  0  0  0  0  0
  141.6556   73.5779  221.3747 H   0  0  0  0  0  0  0  0  0  0  0  0
  142.1077   75.2740  222.7245 H   0  0  0  0  0  0  0  0  0  0  0  0
  141.6583   76.4991  221.3635 H   0  0  0  0  0  0  0  0  0  0  0  0
  139.0702   77.0774  221.4549 H   0  0  0  0  0  0  0  0  0  0  0  0
  139.0382   77.1195  223.2667 H   0  0  0  0  0  0  0  0  0  0  0  0
  141.2925   77.8236  224.4507 H   0  0  0  0  0  0  0  0  0  0  0  0
  142.9872   79.6650  224.3033 H   0  0  0  0  0  0  0  0  0  0  0  0
  143.3303   80.9107  222.2059 H   0  0  0  0  0  0  0  0  0  0  0  0
  141.9962   80.3725  220.1732 H   0  0  0  0  0  0  0  0  0  0  0  0
  140.2996   78.5343  220.3067 H   0  0  0  0  0  0  0  0  0  0  0  0
  137.8344   69.4363  222.2082 H   0  0  0  0  0  0  0  0  0  0  0  0
  138.3930   68.0285  224.1811 H   0  0  0  0  0  0  0  0  0  0  0  0
  139.5370   67.8603  226.3771 H   0  0  0  0  0  0  0  0  0  0  0  0
  141.6642   71.2876  227.9328 H   0  0  0  0  0  0  0  0  0  0  0  0
  141.0234   72.5766  225.8956 H   0  0  0  0  0  0  0  0  0  0  0  0
  1  2  2  0
  2  3  1  0
  3  4  1  0
  4  5  1  0
  5  6  2  0
  5  7  1  0
  7  8  1  0
  8  9  1  0
  9 10  1  0
  9 11  1  0
 11 12  1  0
 12 13  1  0
 13 14  1  0
 14 15  1  0
 15 16  1  0
 16 17  2  0
 17 18  1  0
 18 19  2  0
 19 20  1  0
 20 21  2  0
  2 22  1  0
 22 23  2  0
 23 24  1  0
 24 25  2  0
 25 26  1  0
 26 27  2  0
 27 28  1  0
 27 29  1  0
 29 30  2  0
 30 31  1  0
 31 32  2  0
 12  7  1  0
 21 16  1  0
 32 22  1  0
 31 25  1  0
  3 33  1  0
  4 34  1  0
  4 35  1  0
  8 36  1  0
  8 37  1  0
  9 38  1  6
 11 39  1  0
 11 40  1  0
 12 41  1  1
 13 42  1  0
 13 43  1  0
 15 44  1  0
 15 45  1  0
 17 46  1  0
 18 47  1  0
 19 48  1  0
 20 49  1  0
 21 50  1  0
 23 51  1  0
 24 52  1  0
 26 53  1  0
 29 54  1  0
 30 55  1  0
M  END
>  <smiles>  (2) 
O=C(NCC(=O)N1C[C@@H](F)C[C@H]1COCc1ccccc1)c1ccc2cc(Cl)ccc2n1

>  <score_type>  (2) 
oracle

>  <origin>  (2) 
autodockgpu

>  <m_score__min__energy>  (2) 
-8.9600000000000009

>  <m_primary>  (2) 
energy

>  <rmsd>  (2) 
2.029586801181597

>  <m_score__min__rmsd>  (2) 
2.029586801181597

>  <meeko>  (2) 
{"free_energy": -7.6, "intermolecular_energy": -9.98, "internal_energy": -2.89, "cluster_size": 18, "cluster_id": 3, "rank_in_cluster": 12}

>  <energy>  (2) 
-8.59

>  <cluster_rmsd>  (2) 
0.98

>  <cluster>  (2) 
1

$$$$

     RDKit          3D

 55 58  0  0  0  0  0  0  0  0999 V2000
  139.6970   72.5570  220.7990 O   0  0  0  0  0  0  0  0  0  0  0  0
  139.2210   73.4540  221.5300 C   0  0  0  0  0  0  0  0  0  0  0  0
  138.0680   73.2870  222.3480 N   0  0  0  0  0  0  0  0  0  0  0  0
  137.4080   72.0000  222.3300 C   0  0  0  0  0  0  0  0  0  0  0  0
  138.1180   71.0440  223.1960 C   0  0  0  0  0  0  0  0  0  0  0  0
  138.3410   71.3410  224.3980 O   0  0  0  0  0  0  0  0  0  0  0  0
  138.5250   69.8070  222.6290 N   0  0  0  0  0  0  0  0  0  0  0  0
  139.5500   69.5250  221.6470 C   0  0  0  0  0  0  0  0  0  0  0  0
  139.1710   68.2610  220.9570 C   0  0  1  0  0  0  0  0  0  0  0  0
  140.1060   67.2890  221.1590 F   0  0  0  0  0  0  0  0  0  0  0  0
  137.8310   67.9160  221.5900 C   0  0  0  0  0  0  0  0  0  0  0  0
  137.9140   68.4810  222.9810 C   0  0  1  0  0  0  0  0  0  0  0  0
  138.8740   67.8170  223.9010 C   0  0  0  0  0  0  0  0  0  0  0  0
  138.8230   68.0430  225.2280 O   0  0  0  0  0  0  0  0  0  0  0  0
  139.9390   68.0080  225.9740 C   0  0  0  0  0  0  0  0  0  0  0  0
  140.2960   69.3910  226.5170 C   0  0  0  0  0  0  0  0  0  0  0  0
  139.9380   69.7600  227.7950 C   0  0  0  0  0  0  0  0  0  0  0  0
  140.3080   71.0400  228.1990 C   0  0  0  0  0  0  0  0  0  0  0  0
  141.0000   71.8980  227.3580 C   0  0  0  0  0  0  0  0  0  0  0  0
  141.3500   71.5120  226.0790 C   0  0  0  0  0  0  0  0  0  0  0  0
  140.9870   70.2360  225.6620 C   0  0  0  0  0  0  0  0  0  0  0  0
  139.8890   74.7710  221.5540 C   0  0  0  0  0  0  0  0  0  0  0  0
  141.0450   74.9960  220.8440 C   0  0  0  0  0  0  0  0  0  0  0  0
  141.6970   76.2210  220.8440 C   0  0  0  0  0  0  0  0  0  0  0  0
  141.1380   77.2420  221.6010 C   0  0  0  0  0  0  0  0  0  0  0  0
  141.7300   78.5070  221.6580 C   0  0  0  0  0  0  0  0  0  0  0  0
  141.1330   79.4990  222.4300 C   0  0  0  0  0  0  0  0  0  0  0  0
  141.8660   81.0850  222.5080 Cl  0  0  0  0  0  0  0  0  0  0  0  0
  139.9740   79.2770  223.1430 C   0  0  0  0  0  0  0  0  0  0  0  0
  139.4020   78.0180  223.0750 C   0  0  0  0  0  0  0  0  0  0  0  0
  139.9850   77.0110  222.3080 C   0  0  0  0  0  0  0  0  0  0  0  0
  139.3980   75.8020  222.2670 N   0  0  0  0  0  0  0  0  0  0  0  0
  137.7140   74.0860  222.9450 H   0  0  0  0  0  0  0  0  0  0  0  0
  136.3756   72.1176  222.6909 H   0  0  0  0  0  0  0  0  0  0  0  0
  137.4081   71.6146  221.2997 H   0  0  0  0  0  0  0  0  0  0  0  0
  139.6094   70.3474  220.9189 H   0  0  0  0  0  0  0  0  0  0  0  0
  140.5330   69.4237  222.1302 H   0  0  0  0  0  0  0  0  0  0  0  0
  139.1077   68.3575  219.8631 H   0  0  0  0  0  0  0  0  0  0  0  0
  137.0057   68.3806  221.0304 H   0  0  0  0  0  0  0  0  0  0  0  0
  137.6350   66.8336  221.5896 H   0  0  0  0  0  0  0  0  0  0  0  0
  136.9482   68.4225  223.5043 H   0  0  0  0  0  0  0  0  0  0  0  0
  138.7447   66.7336  223.7616 H   0  0  0  0  0  0  0  0  0  0  0  0
  139.8377   68.2625  223.6132 H   0  0  0  0  0  0  0  0  0  0  0  0
  139.7819   67.3221  226.8195 H   0  0  0  0  0  0  0  0  0  0  0  0
  140.7676   67.6637  225.3377 H   0  0  0  0  0  0  0  0  0  0  0  0
  139.3885   69.0790  228.4615 H   0  0  0  0  0  0  0  0  0  0  0  0
  140.0445   71.3793  229.2116 H   0  0  0  0  0  0  0  0  0  0  0  0
  141.2745   72.9016  227.7150 H   0  0  0  0  0  0  0  0  0  0  0  0
  141.8986   72.1925  225.4112 H   0  0  0  0  0  0  0  0  0  0  0  0
  141.2492   69.8955  224.6494 H   0  0  0  0  0  0  0  0  0  0  0  0
  141.4699   74.1718  220.2523 H   0  0  0  0  0  0  0  0  0  0  0  0
  142.6204   76.3770  220.2670 H   0  0  0  0  0  0  0  0  0  0  0  0
  142.6550   78.7154  221.1003 H   0  0  0  0  0  0  0  0  0  0  0  0
  139.5180   80.0752  223.7470 H   0  0  0  0  0  0  0  0  0  0  0  0
  138.4769   77.8102  223.6327 H   0  0  0  0  0  0  0  0  0  0  0  0
  1  2  2  0
  2  3  1  0
  3  4  1  0
  4  5  1  0
  5  6  2  0
  5  7  1  0
  7  8  1  0
  8  9  1  0
  9 10  1  0
  9 11  1  0
 11 12  1  0
 12 13  1  0
 13 14  1  0
 14 15  1  0
 15 16  1  0
 16 17  2  0
 17 18  1  0
 18 19  2  0
 19 20  1  0
 20 21  2  0
  2 22  1  0
 22 23  2  0
 23 24  1  0
 24 25  2  0
 25 26  1  0
 26 27  2  0
 27 28  1  0
 27 29  1  0
 29 30  2  0
 30 31  1  0
 31 32  2  0
 12  7  1  0
 21 16  1  0
 32 22  1  0
 31 25  1  0
  3 33  1  0
  4 34  1  0
  4 35  1  0
  8 36  1  0
  8 37  1  0
  9 38  1  6
 11 39  1  0
 11 40  1  0
 12 41  1  1
 13 42  1  0
 13 43  1  0
 15 44  1  0
 15 45  1  0
 17 46  1  0
 18 47  1  0
 19 48  1  0
 20 49  1  0
 21 50  1  0
 23 51  1  0
 24 52  1  0
 26 53  1  0
 29 54  1  0
 30 55  1  0
M  END
>  <smiles>  (3) 
O=C(NCC(=O)N1C[C@@H](F)C[C@H]1COCc1ccccc1)c1ccc2cc(Cl)ccc2n1

>  <score_type>  (3) 
oracle

>  <origin>  (3) 
autodockgpu

>  <m_score__min__energy>  (3) 
-8.9600000000000009

>  <m_primary>  (3) 
energy

>  <rmsd>  (3) 
7.815306778399851

>  <m_score__min__rmsd>  (3) 
7.815306778399851

>  <meeko>  (3) 
{"free_energy": -8.2, "intermolecular_energy": -10.58, "internal_energy": -2.25, "cluster_size": 12, "cluster_id": 2, "rank_in_cluster": 5}

>  <energy>  (3) 
-8.43

>  <cluster_rmsd>  (3) 
0.94

>  <cluster>  (3) 
1

$$$$

     RDKit          3D

 55 58  0  0  0  0  0  0  0  0999 V2000
  139.6810   74.1980  221.9680 O   0  0  0  0  0  0  0  0  0  0  0  0
  140.1330   75.3630  221.9150 C   0  0  0  0  0  0  0  0  0  0  0  0
  141.4590   75.6860  221.5100 N   0  0  0  0  0  0  0  0  0  0  0  0
  142.3350   74.5960  221.1350 C   0  0  0  0  0  0  0  0  0  0  0  0
  143.2260   75.0060  220.0370 C   0  0  0  0  0  0  0  0  0  0  0  0
  144.4540   74.7370  220.1010 O   0  0  0  0  0  0  0  0  0  0  0  0
  142.6530   75.6950  218.9360 N   0  0  0  0  0  0  0  0  0  0  0  0
  141.4110   75.4590  218.2340 C   0  0  0  0  0  0  0  0  0  0  0  0
  141.5670   75.9970  216.8550 C   0  0  1  0  0  0  0  0  0  0  0  0
  140.6800   77.0050  216.6140 F   0  0  0  0  0  0  0  0  0  0  0  0
  143.0110   76.4800  216.8400 C   0  0  0  0  0  0  0  0  0  0  0  0
  143.2890   76.8780  218.2630 C   0  0  1  0  0  0  0  0  0  0  0  0
  142.5650   78.0750  218.7630 C   0  0  0  0  0  0  0  0  0  0  0  0
  141.6530   77.9650  219.7480 O   0  0  0  0  0  0  0  0  0  0  0  0
  140.9170   79.0240  220.1240 C   0  0  0  0  0  0  0  0  0  0  0  0
  141.5290   79.7350  221.3290 C   0  0  0  0  0  0  0  0  0  0  0  0
  142.3080   79.0470  222.2330 C   0  0  0  0  0  0  0  0  0  0  0  0
  142.8220   79.7820  223.2980 C   0  0  0  0  0  0  0  0  0  0  0  0
  142.5620   81.1370  223.4410 C   0  0  0  0  0  0  0  0  0  0  0  0
  141.7780   81.8110  222.5250 C   0  0  0  0  0  0  0  0  0  0  0  0
  141.2580   81.0900  221.4560 C   0  0  0  0  0  0  0  0  0  0  0  0
  139.2460   76.4820  222.2960 C   0  0  0  0  0  0  0  0  0  0  0  0
  137.8910   76.4240  222.0680 C   0  0  0  0  0  0  0  0  0  0  0  0
  137.0300   77.4560  222.4130 C   0  0  0  0  0  0  0  0  0  0  0  0
  137.5860   78.5800  223.0110 C   0  0  0  0  0  0  0  0  0  0  0  0
  136.7920   79.6650  223.3900 C   0  0  0  0  0  0  0  0  0  0  0  0
  137.3930   80.7690  223.9850 C   0  0  0  0  0  0  0  0  0  0  0  0
  136.4080   82.1320  224.4630 Cl  0  0  0  0  0  0  0  0  0  0  0  0
  138.7520   80.8300  224.2150 C   0  0  0  0  0  0  0  0  0  0  0  0
  139.5230   79.7460  223.8330 C   0  0  0  0  0  0  0  0  0  0  0  0
  138.9390   78.6300  223.2350 C   0  0  0  0  0  0  0  0  0  0  0  0
  139.7220   77.5970  222.8780 N   0  0  0  0  0  0  0  0  0  0  0  0
  141.7830   76.6930  221.4870 H   0  0  0  0  0  0  0  0  0  0  0  0
  142.9424   74.3040  222.0044 H   0  0  0  0  0  0  0  0  0  0  0  0
  141.7225   73.7466  220.7983 H   0  0  0  0  0  0  0  0  0  0  0  0
  141.2011   74.3799  218.1946 H   0  0  0  0  0  0  0  0  0  0  0  0
  140.5745   75.9529  218.7501 H   0  0  0  0  0  0  0  0  0  0  0  0
  141.3612   75.2574  216.0672 H   0  0  0  0  0  0  0  0  0  0  0  0
  143.6878   75.6730  216.5226 H   0  0  0  0  0  0  0  0  0  0  0  0
  143.1674   77.3099  216.1351 H   0  0  0  0  0  0  0  0  0  0  0  0
  144.3512   77.1169  218.4200 H   0  0  0  0  0  0  0  0  0  0  0  0
  143.3309   78.7787  219.1210 H   0  0  0  0  0  0  0  0  0  0  0  0
  141.9559   78.3729  217.8968 H   0  0  0  0  0  0  0  0  0  0  0  0
  140.8561   79.7324  219.2847 H   0  0  0  0  0  0  0  0  0  0  0  0
  139.9170   78.6644  220.4082 H   0  0  0  0  0  0  0  0  0  0  0  0
  142.5134   77.9723  222.1194 H   0  0  0  0  0  0  0  0  0  0  0  0
  143.4504   79.2751  224.0451 H   0  0  0  0  0  0  0  0  0  0  0  0
  142.9864   81.6829  224.2965 H   0  0  0  0  0  0  0  0  0  0  0  0
  141.5714   82.8855  222.6379 H   0  0  0  0  0  0  0  0  0  0  0  0
  140.6294   81.5955  220.7081 H   0  0  0  0  0  0  0  0  0  0  0  0
  137.4733   75.5239  221.5933 H   0  0  0  0  0  0  0  0  0  0  0  0
  135.9492   77.3868  222.2205 H   0  0  0  0  0  0  0  0  0  0  0  0
  135.7054   79.6464  223.2200 H   0  0  0  0  0  0  0  0  0  0  0  0
  139.2084   81.7125  224.6872 H   0  0  0  0  0  0  0  0  0  0  0  0
  140.6096   79.7651  224.0032 H   0  0  0  0  0  0  0  0  0  0  0  0
  1  2  2  0
  2  3  1  0
  3  4  1  0
  4  5  1  0
  5  6  2  0
  5  7  1  0
  7  8  1  0
  8  9  1  0
  9 10  1  0
  9 11  1  0
 11 12  1  0
 12 13  1  0
 13 14  1  0
 14 15  1  0
 15 16  1  0
 16 17  2  0
 17 18  1  0
 18 19  2  0
 19 20  1  0
 20 21  2  0
  2 22  1  0
 22 23  2  0
 23 24  1  0
 24 25  2  0
 25 26  1  0
 26 27  2  0
 27 28  1  0
 27 29  1  0
 29 30  2  0
 30 31  1  0
 31 32  2  0
 12  7  1  0
 21 16  1  0
 32 22  1  0
 31 25  1  0
  3 33  1  0
  4 34  1  0
  4 35  1  0
  8 36  1  0
  8 37  1  0
  9 38  1  6
 11 39  1  0
 11 40  1  0
 12 41  1  6
 13 42  1  0
 13 43  1  0
 15 44  1  0
 15 45  1  0
 17 46  1  0
 18 47  1  0
 19 48  1  0
 20 49  1  0
 21 50  1  0
 23 51  1  0
 24 52  1  0
 26 53  1  0
 29 54  1  0
 30 55  1  0
M  END
>  <smiles>  (4) 
O=C(NCC(=O)N1C[C@@H](F)C[C@H]1COCc1ccccc1)c1ccc2cc(Cl)ccc2n1

>  <score_type>  (4) 
oracle

>  <origin>  (4) 
autodockgpu

>  <m_score__min__energy>  (4) 
-8.9600000000000009

>  <m_primary>  (4) 
energy

>  <rmsd>  (4) 
6.8609476020130336

>  <m_score__min__rmsd>  (4) 
6.8609476020130336

>  <meeko>  (4) 
{"free_energy": -6.39, "intermolecular_energy": -8.77, "internal_energy": -3.81, "cluster_size": 4, "cluster_id": 11, "rank_in_cluster": 4}

>  <energy>  (4) 
-7.8

>  <cluster_rmsd>  (4) 
1.62

>  <cluster>  (4) 
1

$$$$

     RDKit          3D

 55 58  0  0  0  0  0  0  0  0999 V2000
  139.3540   72.0450  220.7680 O   0  0  0  0  0  0  0  0  0  0  0  0
  139.4290   72.4840  221.9370 C   0  0  0  0  0  0  0  0  0  0  0  0
  139.3310   73.8620  222.2790 N   0  0  0  0  0  0  0  0  0  0  0  0
  139.1320   74.8120  221.2050 C   0  0  0  0  0  0  0  0  0  0  0  0
  138.6840   76.1080  221.7400 C   0  0  0  0  0  0  0  0  0  0  0  0
  138.6290   76.2810  222.9860 O   0  0  0  0  0  0  0  0  0  0  0  0
  138.3280   77.1230  220.8140 N   0  0  0  0  0  0  0  0  0  0  0  0
  137.3590   78.1910  220.9270 C   0  0  0  0  0  0  0  0  0  0  0  0
  136.9320   78.5560  219.5490 C   0  0  1  0  0  0  0  0  0  0  0  0
  137.2550   79.8480  219.2580 F   0  0  0  0  0  0  0  0  0  0  0  0
  137.6910   77.5600  218.6830 C   0  0  0  0  0  0  0  0  0  0  0  0
  138.9500   77.2730  219.4540 C   0  0  1  0  0  0  0  0  0  0  0  0
  139.9200   78.3930  219.5660 C   0  0  0  0  0  0  0  0  0  0  0  0
  141.2410   78.1750  219.4210 O   0  0  0  0  0  0  0  0  0  0  0  0
  141.9910   77.7840  220.4640 C   0  0  0  0  0  0  0  0  0  0  0  0
  141.8760   78.7570  221.6360 C   0  0  0  0  0  0  0  0  0  0  0  0
  142.2110   80.0840  221.4870 C   0  0  0  0  0  0  0  0  0  0  0  0
  142.0720   80.8920  222.6120 C   0  0  0  0  0  0  0  0  0  0  0  0
  141.6200   80.3860  223.8210 C   0  0  0  0  0  0  0  0  0  0  0  0
  141.2880   79.0510  223.9540 C   0  0  0  0  0  0  0  0  0  0  0  0
  141.4220   78.2320  222.8380 C   0  0  0  0  0  0  0  0  0  0  0  0
  139.6310   71.5210  223.0390 C   0  0  0  0  0  0  0  0  0  0  0  0
  139.2990   70.1940  222.8950 C   0  0  0  0  0  0  0  0  0  0  0  0
  139.4760   69.2640  223.9090 C   0  0  0  0  0  0  0  0  0  0  0  0
  140.0120   69.7190  225.1070 C   0  0  0  0  0  0  0  0  0  0  0  0
  140.2230   68.8500  226.1800 C   0  0  0  0  0  0  0  0  0  0  0  0
  140.7620   69.3510  227.3610 C   0  0  0  0  0  0  0  0  0  0  0  0
  141.0310   68.2720  228.7110 Cl  0  0  0  0  0  0  0  0  0  0  0  0
  141.0960   70.6810  227.5090 C   0  0  0  0  0  0  0  0  0  0  0  0
  140.8800   71.5270  226.4350 C   0  0  0  0  0  0  0  0  0  0  0  0
  140.3400   71.0440  225.2440 C   0  0  0  0  0  0  0  0  0  0  0  0
  140.1460   71.8970  224.2240 N   0  0  0  0  0  0  0  0  0  0  0  0
  139.4020   74.1700  223.2890 H   0  0  0  0  0  0  0  0  0  0  0  0
  140.0800   74.9515  220.6648 H   0  0  0  0  0  0  0  0  0  0  0  0
  138.3612   74.4226  220.5237 H   0  0  0  0  0  0  0  0  0  0  0  0
  136.4913   77.8505  221.5111 H   0  0  0  0  0  0  0  0  0  0  0  0
  137.7983   79.0598  221.4391 H   0  0  0  0  0  0  0  0  0  0  0  0
  135.8439   78.5046  219.3960 H   0  0  0  0  0  0  0  0  0  0  0  0
  137.1035   76.6408  218.5418 H   0  0  0  0  0  0  0  0  0  0  0  0
  137.8974   77.9531  217.6766 H   0  0  0  0  0  0  0  0  0  0  0  0
  139.5293   76.4549  219.0011 H   0  0  0  0  0  0  0  0  0  0  0  0
  139.6375   79.1312  218.8010 H   0  0  0  0  0  0  0  0  0  0  0  0
  139.8343   78.6871  220.6225 H   0  0  0  0  0  0  0  0  0  0  0  0
  141.6554   76.7891  220.7919 H   0  0  0  0  0  0  0  0  0  0  0  0
  143.0422   77.7575  220.1409 H   0  0  0  0  0  0  0  0  0  0  0  0
  142.5702   80.4853  220.5279 H   0  0  0  0  0  0  0  0  0  0  0  0
  142.3274   81.9595  222.5398 H   0  0  0  0  0  0  0  0  0  0  0  0
  141.5242   81.0571  224.6873 H   0  0  0  0  0  0  0  0  0  0  0  0
  140.9289   78.6487  224.9128 H   0  0  0  0  0  0  0  0  0  0  0  0
  141.1672   77.1642  222.9082 H   0  0  0  0  0  0  0  0  0  0  0  0
  138.8761   69.8566  221.9372 H   0  0  0  0  0  0  0  0  0  0  0  0
  139.2026   68.2076  223.7698 H   0  0  0  0  0  0  0  0  0  0  0  0
  139.9665   67.7839  226.0926 H   0  0  0  0  0  0  0  0  0  0  0  0
  141.5208   71.0576  228.4512 H   0  0  0  0  0  0  0  0  0  0  0  0
  141.1375   72.5929  226.5223 H   0  0  0  0  0  0  0  0  0  0  0  0
  1  2  2  0
  2  3  1  0
  3  4  1  0
  4  5  1  0
  5  6  2  0
  5  7  1  0
  7  8  1  0
  8  9  1  0
  9 10  1  0
  9 11  1  0
 11 12  1  0
 12 13  1  0
 13 14  1  0
 14 15  1  0
 15 16  1  0
 16 17  2  0
 17 18  1  0
 18 19  2  0
 19 20  1  0
 20 21  2  0
  2 22  1  0
 22 23  2  0
 23 24  1  0
 24 25  2  0
 25 26  1  0
 26 27  2  0
 27 28  1  0
 27 29  1  0
 29 30  2  0
 30 31  1  0
 31 32  2  0
 12  7  1  0
 21 16  1  0
 32 22  1  0
 31 25  1  0
  3 33  1  0
  4 34  1  0
  4 35  1  0
  8 36  1  0
  8 37  1  0
  9 38  1  1
 11 39  1  0
 11 40  1  0
 12 41  1  6
 13 42  1  0
 13 43  1  0
 15 44  1  0
 15 45  1  0
 17 46  1  0
 18 47  1  0
 19 48  1  0
 20 49  1  0
 21 50  1  0
 23 51  1  0
 24 52  1  0
 26 53  1  0
 29 54  1  0
 30 55  1  0
M  END
>  <smiles>  (5) 
O=C(NCC(=O)N1C[C@@H](F)C[C@H]1COCc1ccccc1)c1ccc2cc(Cl)ccc2n1

>  <score_type>  (5) 
oracle

>  <origin>  (5) 
autodockgpu

>  <m_score__min__energy>  (5) 
-8.9600000000000009

>  <m_primary>  (5) 
energy

>  <rmsd>  (5) 
2.4571406496255768

>  <m_score__min__rmsd>  (5) 
2.4571406496255768

>  <meeko>  (5) 
{"free_energy": -7.39, "intermolecular_energy": -9.78, "internal_energy": -2.48, "cluster_size": 18, "cluster_id": 3, "rank_in_cluster": 18}

>  <energy>  (5) 
-8.72

>  <cluster_rmsd>  (5) 
0.0

>  <cluster>  (5) 
2

$$$$

     RDKit          3D

 55 58  0  0  0  0  0  0  0  0999 V2000
  138.3150   71.4420  221.0050 O   0  0  0  0  0  0  0  0  0  0  0  0
  138.8050   71.9470  222.0400 C   0  0  0  0  0  0  0  0  0  0  0  0
  139.0670   73.3360  222.2020 N   0  0  0  0  0  0  0  0  0  0  0  0
  138.7470   74.2170  221.0990 C   0  0  0  0  0  0  0  0  0  0  0  0
  139.7280   74.0600  220.0120 C   0  0  0  0  0  0  0  0  0  0  0  0
  139.6810   73.0410  219.2760 O   0  0  0  0  0  0  0  0  0  0  0  0
  140.6980   75.0820  219.8380 N   0  0  0  0  0  0  0  0  0  0  0  0
  141.0110   75.8810  218.6740 C   0  0  0  0  0  0  0  0  0  0  0  0
  142.4290   76.3180  218.7990 C   0  0  1  0  0  0  0  0  0  0  0  0
  142.5220   77.6770  218.8690 F   0  0  0  0  0  0  0  0  0  0  0  0
  142.8820   75.6390  220.0840 C   0  0  0  0  0  0  0  0  0  0  0  0
  141.6340   75.5430  220.9190 C   0  0  1  0  0  0  0  0  0  0  0  0
  141.0820   76.8270  221.4220 C   0  0  0  0  0  0  0  0  0  0  0  0
  139.8980   76.8620  222.0640 O   0  0  0  0  0  0  0  0  0  0  0  0
  139.5010   77.9690  222.7140 C   0  0  0  0  0  0  0  0  0  0  0  0
  140.6270   78.9960  222.8160 C   0  0  0  0  0  0  0  0  0  0  0  0
  141.5490   78.9320  223.8370 C   0  0  0  0  0  0  0  0  0  0  0  0
  142.5380   79.9120  223.8460 C   0  0  0  0  0  0  0  0  0  0  0  0
  142.5900   80.9020  222.8760 C   0  0  0  0  0  0  0  0  0  0  0  0
  141.6570   80.9520  221.8590 C   0  0  0  0  0  0  0  0  0  0  0  0
  140.6640   79.9790  221.8380 C   0  0  0  0  0  0  0  0  0  0  0  0
  139.1340   71.0550  223.1710 C   0  0  0  0  0  0  0  0  0  0  0  0
  138.8040   69.7200  223.1450 C   0  0  0  0  0  0  0  0  0  0  0  0
  139.0990   68.8560  224.1890 C   0  0  0  0  0  0  0  0  0  0  0  0
  139.7540   69.3870  225.2930 C   0  0  0  0  0  0  0  0  0  0  0  0
  140.0890   68.5870  226.3890 C   0  0  0  0  0  0  0  0  0  0  0  0
  140.7440   69.1630  227.4720 C   0  0  0  0  0  0  0  0  0  0  0  0
  141.1670   68.1710  228.8480 Cl  0  0  0  0  0  0  0  0  0  0  0  0
  141.0770   70.5010  227.5020 C   0  0  0  0  0  0  0  0  0  0  0  0
  140.7370   71.2780  226.4080 C   0  0  0  0  0  0  0  0  0  0  0  0
  140.0800   70.7190  225.3130 C   0  0  0  0  0  0  0  0  0  0  0  0
  139.7680   71.5070  224.2690 N   0  0  0  0  0  0  0  0  0  0  0  0
  139.4830   73.7020  223.1030 H   0  0  0  0  0  0  0  0  0  0  0  0
  137.7440   73.9723  220.7195 H   0  0  0  0  0  0  0  0  0  0  0  0
  138.7743   75.2574  221.4553 H   0  0  0  0  0  0  0  0  0  0  0  0
  140.8820   75.2812  217.7610 H   0  0  0  0  0  0  0  0  0  0  0  0
  140.3416   76.7515  218.6103 H   0  0  0  0  0  0  0  0  0  0  0  0
  143.0532   76.0447  217.9354 H   0  0  0  0  0  0  0  0  0  0  0  0
  143.2868   74.6382  219.8732 H   0  0  0  0  0  0  0  0  0  0  0  0
  143.6833   76.1960  220.5916 H   0  0  0  0  0  0  0  0  0  0  0  0
  141.7940   74.9410  221.8256 H   0  0  0  0  0  0  0  0  0  0  0  0
  141.8285   77.2393  222.1168 H   0  0  0  0  0  0  0  0  0  0  0  0
  140.8758   77.3846  220.4965 H   0  0  0  0  0  0  0  0  0  0  0  0
  138.6564   78.4182  222.1710 H   0  0  0  0  0  0  0  0  0  0  0  0
  139.2045   77.6814  223.7335 H   0  0  0  0  0  0  0  0  0  0  0  0
  141.5063   78.1467  224.6061 H   0  0  0  0  0  0  0  0  0  0  0  0
  143.2969   79.9008  224.6422 H   0  0  0  0  0  0  0  0  0  0  0  0
  143.3868   81.6592  222.9174 H   0  0  0  0  0  0  0  0  0  0  0  0
  141.6982   81.7371  221.0896 H   0  0  0  0  0  0  0  0  0  0  0  0
  139.9045   79.9888  221.0424 H   0  0  0  0  0  0  0  0  0  0  0  0
  138.2852   69.3216  222.2606 H   0  0  0  0  0  0  0  0  0  0  0  0
  138.8250   67.7916  224.1446 H   0  0  0  0  0  0  0  0  0  0  0  0
  139.8379   67.5161  226.3948 H   0  0  0  0  0  0  0  0  0  0  0  0
  141.5964   70.9370  228.3681 H   0  0  0  0  0  0  0  0  0  0  0  0
  140.9882   72.3489  226.4027 H   0  0  0  0  0  0  0  0  0  0  0  0
  1  2  2  0
  2  3  1  0
  3  4  1  0
  4  5  1  0
  5  6  2  0
  5  7  1  0
  7  8  1  0
  8  9  1  0
  9 10  1  0
  9 11  1  0
 11 12  1  0
 12 13  1  0
 13 14  1  0
 14 15  1  0
 15 16  1  0
 16 17  2  0
 17 18  1  0
 18 19  2  0
 19 20  1  0
 20 21  2  0
  2 22  1  0
 22 23  2  0
 23 24  1  0
 24 25  2  0
 25 26  1  0
 26 27  2  0
 27 28  1  0
 27 29  1  0
 29 30  2  0
 30 31  1  0
 31 32  2  0
 12  7  1  0
 21 16  1  0
 32 22  1  0
 31 25  1  0
  3 33  1  0
  4 34  1  0
  4 35  1  0
  8 36  1  0
  8 37  1  0
  9 38  1  6
 11 39  1  0
 11 40  1  0
 12 41  1  1
 13 42  1  0
 13 43  1  0
 15 44  1  0
 15 45  1  0
 17 46  1  0
 18 47  1  0
 19 48  1  0
 20 49  1  0
 21 50  1  0
 23 51  1  0
 24 52  1  0
 26 53  1  0
 29 54  1  0
 30 55  1  0
M  END
>  <smiles>  (6) 
O=C(NCC(=O)N1C[C@@H](F)C[C@H]1COCc1ccccc1)c1ccc2cc(Cl)ccc2n1

>  <score_type>  (6) 
oracle

>  <origin>  (6) 
autodockgpu

>  <m_score__min__energy>  (6) 
-8.9600000000000009

>  <m_primary>  (6) 
energy

>  <rmsd>  (6) 
1.7404816817123268

>  <m_score__min__rmsd>  (6) 
1.7404816817123268

>  <meeko>  (6) 
{"free_energy": -8.0, "intermolecular_energy": -10.38, "internal_energy": -1.88, "cluster_size": 18, "cluster_id": 3, "rank_in_cluster": 5}

>  <energy>  (6) 
-8.47

>  <cluster_rmsd>  (6) 
0.71

>  <cluster>  (6) 
2

$$$$

     RDKit          3D

 55 58  0  0  0  0  0  0  0  0999 V2000
  140.7000   72.4730  221.2430 O   0  0  0  0  0  0  0  0  0  0  0  0
  140.0060   73.4050  221.7060 C   0  0  0  0  0  0  0  0  0  0  0  0
  138.7630   73.2170  222.3720 N   0  0  0  0  0  0  0  0  0  0  0  0
  138.2730   71.8630  222.5210 C   0  0  0  0  0  0  0  0  0  0  0  0
  136.8700   71.8680  222.9650 C   0  0  0  0  0  0  0  0  0  0  0  0
  136.2170   72.9440  222.9520 O   0  0  0  0  0  0  0  0  0  0  0  0
  136.3030   70.6390  223.3940 N   0  0  0  0  0  0  0  0  0  0  0  0
  135.1540   69.9180  222.8930 C   0  0  0  0  0  0  0  0  0  0  0  0
  134.6260   69.0860  224.0100 C   0  0  1  0  0  0  0  0  0  0  0  0
  134.6910   67.7580  223.7090 F   0  0  0  0  0  0  0  0  0  0  0  0
  135.5330   69.4630  225.1720 C   0  0  0  0  0  0  0  0  0  0  0  0
  136.8450   69.8150  224.5270 C   0  0  1  0  0  0  0  0  0  0  0  0
  137.5900   68.6930  223.9010 C   0  0  0  0  0  0  0  0  0  0  0  0
  138.8480   68.4040  224.2830 O   0  0  0  0  0  0  0  0  0  0  0  0
  139.1640   68.2980  225.5850 C   0  0  0  0  0  0  0  0  0  0  0  0
  139.8480   69.5620  226.1020 C   0  0  0  0  0  0  0  0  0  0  0  0
  140.4370   70.4520  225.2310 C   0  0  0  0  0  0  0  0  0  0  0  0
  141.0350   71.5740  225.7980 C   0  0  0  0  0  0  0  0  0  0  0  0
  141.0370   71.7850  227.1680 C   0  0  0  0  0  0  0  0  0  0  0  0
  140.4420   70.8820  228.0280 C   0  0  0  0  0  0  0  0  0  0  0  0
  139.8410   69.7560  227.4760 C   0  0  0  0  0  0  0  0  0  0  0  0
  140.4980   74.7910  221.5600 C   0  0  0  0  0  0  0  0  0  0  0  0
  141.4590   75.1100  220.6290 C   0  0  0  0  0  0  0  0  0  0  0  0
  141.9420   76.4000  220.4650 C   0  0  0  0  0  0  0  0  0  0  0  0
  141.4170   77.3880  221.2870 C   0  0  0  0  0  0  0  0  0  0  0  0
  141.8470   78.7140  221.1890 C   0  0  0  0  0  0  0  0  0  0  0  0
  141.2920   79.6700  222.0340 C   0  0  0  0  0  0  0  0  0  0  0  0
  141.8240   81.3320  221.9190 Cl  0  0  0  0  0  0  0  0  0  0  0  0
  140.3280   79.3530  222.9680 C   0  0  0  0  0  0  0  0  0  0  0  0
  139.9140   78.0360  223.0510 C   0  0  0  0  0  0  0  0  0  0  0  0
  140.4590   77.0630  222.2140 C   0  0  0  0  0  0  0  0  0  0  0  0
  140.0300   75.7940  222.3240 N   0  0  0  0  0  0  0  0  0  0  0  0
  138.2220   74.0480  222.7430 H   0  0  0  0  0  0  0  0  0  0  0  0
  138.3447   71.3437  221.5539 H   0  0  0  0  0  0  0  0  0  0  0  0
  138.8830   71.3452  223.2759 H   0  0  0  0  0  0  0  0  0  0  0  0
  134.3834   70.6269  222.5559 H   0  0  0  0  0  0  0  0  0  0  0  0
  135.4358   69.2855  222.0383 H   0  0  0  0  0  0  0  0  0  0  0  0
  133.5632   69.2647  224.2304 H   0  0  0  0  0  0  0  0  0  0  0  0
  135.1252   70.3255  225.7195 H   0  0  0  0  0  0  0  0  0  0  0  0
  135.6327   68.6495  225.9057 H   0  0  0  0  0  0  0  0  0  0  0  0
  137.5543   70.2425  225.2510 H   0  0  0  0  0  0  0  0  0  0  0  0
  136.9932   67.7851  224.0732 H   0  0  0  0  0  0  0  0  0  0  0  0
  137.7219   69.0354  222.8640 H   0  0  0  0  0  0  0  0  0  0  0  0
  138.2437   68.1282  226.1631 H   0  0  0  0  0  0  0  0  0  0  0  0
  139.8624   67.4562  225.7023 H   0  0  0  0  0  0  0  0  0  0  0  0
  140.4349   70.2848  224.1438 H   0  0  0  0  0  0  0  0  0  0  0  0
  141.5186   72.3125  225.1417 H   0  0  0  0  0  0  0  0  0  0  0  0
  141.5196   72.6850  227.5767 H   0  0  0  0  0  0  0  0  0  0  0  0
  140.4437   71.0486  229.1153 H   0  0  0  0  0  0  0  0  0  0  0  0
  139.3581   69.0161  228.1312 H   0  0  0  0  0  0  0  0  0  0  0  0
  141.8605   74.3104  219.9891 H   0  0  0  0  0  0  0  0  0  0  0  0
  142.7109   76.6311  219.7131 H   0  0  0  0  0  0  0  0  0  0  0  0
  142.6141   78.9982  220.4536 H   0  0  0  0  0  0  0  0  0  0  0  0
  139.9015   80.1239  223.6267 H   0  0  0  0  0  0  0  0  0  0  0  0
  139.1459   77.7528  223.7858 H   0  0  0  0  0  0  0  0  0  0  0  0
  1  2  2  0
  2  3  1  0
  3  4  1  0
  4  5  1  0
  5  6  2  0
  5  7  1  0
  7  8  1  0
  8  9  1  0
  9 10  1  0
  9 11  1  0
 11 12  1  0
 12 13  1  0
 13 14  1  0
 14 15  1  0
 15 16  1  0
 16 17  2  0
 17 18  1  0
 18 19  2  0
 19 20  1  0
 20 21  2  0
  2 22  1  0
 22 23  2  0
 23 24  1  0
 24 25  2  0
 25 26  1  0
 26 27  2  0
 27 28  1  0
 27 29  1  0
 29 30  2  0
 30 31  1  0
 31 32  2  0
 12  7  1  0
 21 16  1  0
 32 22  1  0
 31 25  1  0
  3 33  1  0
  4 34  1  0
  4 35  1  0
  8 36  1  0
  8 37  1  0
  9 38  1  1
 11 39  1  0
 11 40  1  0
 12 41  1  1
 13 42  1  0
 13 43  1  0
 15 44  1  0
 15 45  1  0
 17 46  1  0
 18 47  1  0
 19 48  1  0
 20 49  1  0
 21 50  1  0
 23 51  1  0
 24 52  1  0
 26 53  1  0
 29 54  1  0
 30 55  1  0
M  END
>  <smiles>  (7) 
O=C(NCC(=O)N1C[C@@H](F)C[C@H]1COCc1ccccc1)c1ccc2cc(Cl)ccc2n1

>  <score_type>  (7) 
oracle

>  <origin>  (7) 
autodockgpu

>  <m_score__min__energy>  (7) 
-8.9600000000000009

>  <m_primary>  (7) 
energy

>  <rmsd>  (7) 
8.369270905888015

>  <m_score__min__rmsd>  (7) 
8.369270905888015

>  <meeko>  (7) 
{"free_energy": -7.8, "intermolecular_energy": -10.18, "internal_energy": -2.45, "cluster_size": 12, "cluster_id": 2, "rank_in_cluster": 10}

>  <energy>  (7) 
-8.27

>  <cluster_rmsd>  (7) 
1.67

>  <cluster>  (7) 
2

$$$$

     RDKit          3D

 55 58  0  0  0  0  0  0  0  0999 V2000
  137.9110   71.4280  220.7740 O   0  0  0  0  0  0  0  0  0  0  0  0
  138.4170   71.9900  221.7700 C   0  0  0  0  0  0  0  0  0  0  0  0
  138.6610   73.3900  221.8560 N   0  0  0  0  0  0  0  0  0  0  0  0
  138.3020   74.2100  220.7200 C   0  0  0  0  0  0  0  0  0  0  0  0
  139.3180   74.0990  219.6610 C   0  0  0  0  0  0  0  0  0  0  0  0
  139.0530   73.4590  218.6100 O   0  0  0  0  0  0  0  0  0  0  0  0
  140.5720   74.7300  219.8730 N   0  0  0  0  0  0  0  0  0  0  0  0
  141.2720   75.7080  219.0690 C   0  0  0  0  0  0  0  0  0  0  0  0
  142.7250   75.5730  219.3640 C   0  0  1  0  0  0  0  0  0  0  0  0
  143.2260   76.7190  219.9080 F   0  0  0  0  0  0  0  0  0  0  0  0
  142.7670   74.4030  220.3370 C   0  0  0  0  0  0  0  0  0  0  0  0
  141.4520   74.4690  221.0630 C   0  0  1  0  0  0  0  0  0  0  0  0
  141.2640   75.6270  221.9750 C   0  0  0  0  0  0  0  0  0  0  0  0
  140.0610   75.8840  222.5220 O   0  0  0  0  0  0  0  0  0  0  0  0
  139.5230   77.1130  222.4560 C   0  0  0  0  0  0  0  0  0  0  0  0
  140.5990   78.1970  222.4400 C   0  0  0  0  0  0  0  0  0  0  0  0
  141.2670   78.5440  223.5940 C   0  0  0  0  0  0  0  0  0  0  0  0
  142.2300   79.5430  223.4790 C   0  0  0  0  0  0  0  0  0  0  0  0
  142.5020   80.1570  222.2660 C   0  0  0  0  0  0  0  0  0  0  0  0
  141.8220   79.7970  221.1180 C   0  0  0  0  0  0  0  0  0  0  0  0
  140.8570   78.8010  221.2180 C   0  0  0  0  0  0  0  0  0  0  0  0
  138.7870   71.1610  222.9350 C   0  0  0  0  0  0  0  0  0  0  0  0
  138.3880   69.8480  223.0300 C   0  0  0  0  0  0  0  0  0  0  0  0
  138.7180   69.0420  224.1090 C   0  0  0  0  0  0  0  0  0  0  0  0
  139.4830   69.6090  225.1200 C   0  0  0  0  0  0  0  0  0  0  0  0
  139.8610   68.8680  226.2430 C   0  0  0  0  0  0  0  0  0  0  0  0
  140.6270   69.4790  227.2300 C   0  0  0  0  0  0  0  0  0  0  0  0
  141.1050   68.5610  228.6400 Cl  0  0  0  0  0  0  0  0  0  0  0  0
  141.0300   70.7950  227.1380 C   0  0  0  0  0  0  0  0  0  0  0  0
  140.6470   71.5130  226.0190 C   0  0  0  0  0  0  0  0  0  0  0  0
  139.8780   70.9190  225.0190 C   0  0  0  0  0  0  0  0  0  0  0  0
  139.5270   71.6500  223.9470 N   0  0  0  0  0  0  0  0  0  0  0  0
  139.0930   73.8060  222.7280 H   0  0  0  0  0  0  0  0  0  0  0  0
  137.3307   73.8767  220.3258 H   0  0  0  0  0  0  0  0  0  0  0  0
  138.2404   75.2592  221.0446 H   0  0  0  0  0  0  0  0  0  0  0  0
  141.0864   75.5187  218.0014 H   0  0  0  0  0  0  0  0  0  0  0  0
  140.9220   76.7241  219.3035 H   0  0  0  0  0  0  0  0  0  0  0  0
  143.3431   75.4003  218.4706 H   0  0  0  0  0  0  0  0  0  0  0  0
  142.8647   73.4505  219.7956 H   0  0  0  0  0  0  0  0  0  0  0  0
  143.6259   74.4595  221.0219 H   0  0  0  0  0  0  0  0  0  0  0  0
  141.2945   73.5885  221.7032 H   0  0  0  0  0  0  0  0  0  0  0  0
  141.9651   75.4855  222.8107 H   0  0  0  0  0  0  0  0  0  0  0  0
  141.4200   76.4896  221.3105 H   0  0  0  0  0  0  0  0  0  0  0  0
  138.9234   77.1914  221.5371 H   0  0  0  0  0  0  0  0  0  0  0  0
  138.8964   77.2629  223.3476 H   0  0  0  0  0  0  0  0  0  0  0  0
  141.0507   78.0570  224.5563 H   0  0  0  0  0  0  0  0  0  0  0  0
  142.7896   79.8532  224.3738 H   0  0  0  0  0  0  0  0  0  0  0  0
  143.2705   80.9424  222.2167 H   0  0  0  0  0  0  0  0  0  0  0  0
  142.0375   80.2833  220.1551 H   0  0  0  0  0  0  0  0  0  0  0  0
  140.2957   78.4906  220.3244 H   0  0  0  0  0  0  0  0  0  0  0  0
  137.7827   69.4202  222.2172 H   0  0  0  0  0  0  0  0  0  0  0  0
  138.3868   67.9944  224.1621 H   0  0  0  0  0  0  0  0  0  0  0  0
  139.5568   67.8158  226.3449 H   0  0  0  0  0  0  0  0  0  0  0  0
  141.6368   71.2591  227.9295 H   0  0  0  0  0  0  0  0  0  0  0  0
  140.9528   72.5647  225.9171 H   0  0  0  0  0  0  0  0  0  0  0  0
  1  2  2  0
  2  3  1  0
  3  4  1  0
  4  5  1  0
  5  6  2  0
  5  7  1  0
  7  8  1  0
  8  9  1  0
  9 10  1  0
  9 11  1  0
 11 12  1  0
 12 13  1  0
 13 14  1  0
 14 15  1  0
 15 16  1  0
 16 17  2  0
 17 18  1  0
 18 19  2  0
 19 20  1  0
 20 21  2  0
  2 22  1  0
 22 23  2  0
 23 24  1  0
 24 25  2  0
 25 26  1  0
 26 27  2  0
 27 28  1  0
 27 29  1  0
 29 30  2  0
 30 31  1  0
 31 32  2  0
 12  7  1  0
 21 16  1  0
 32 22  1  0
 31 25  1  0
  3 33  1  0
  4 34  1  0
  4 35  1  0
  8 36  1  0
  8 37  1  0
  9 38  1  6
 11 39  1  0
 11 40  1  0
 12 41  1  1
 13 42  1  0
 13 43  1  0
 15 44  1  0
 15 45  1  0
 17 46  1  0
 18 47  1  0
 19 48  1  0
 20 49  1  0
 21 50  1  0
 23 51  1  0
 24 52  1  0
 26 53  1  0
 29 54  1  0
 30 55  1  0
M  END
>  <smiles>  (8) 
O=C(NCC(=O)N1C[C@@H](F)C[C@H]1COCc1ccccc1)c1ccc2cc(Cl)ccc2n1

>  <score_type>  (8) 
oracle

>  <origin>  (8) 
autodockgpu

>  <m_score__min__energy>  (8) 
-8.9600000000000009

>  <m_primary>  (8) 
energy

>  <rmsd>  (8) 
2.140441992928645

>  <m_score__min__rmsd>  (8) 
2.140441992928645

>  <meeko>  (8) 
{"free_energy": -7.57, "intermolecular_energy": -9.96, "internal_energy": -2.85, "cluster_size": 18, "cluster_id": 3, "rank_in_cluster": 14}

>  <energy>  (8) 
-8.23

>  <cluster_rmsd>  (8) 
0.96

>  <cluster>  (8) 
2

$$$$

     RDKit          3D

 55 58  0  0  0  0  0  0  0  0999 V2000
  140.0200   74.1490  222.1780 O   0  0  0  0  0  0  0  0  0  0  0  0
  140.3560   72.9680  221.9370 C   0  0  0  0  0  0  0  0  0  0  0  0
  140.8230   72.5160  220.6710 N   0  0  0  0  0  0  0  0  0  0  0  0
  140.9140   73.4830  219.5990 C   0  0  0  0  0  0  0  0  0  0  0  0
  142.0820   74.3580  219.7910 C   0  0  0  0  0  0  0  0  0  0  0  0
  141.9300   75.6080  219.7880 O   0  0  0  0  0  0  0  0  0  0  0  0
  143.3500   73.7450  219.9770 N   0  0  0  0  0  0  0  0  0  0  0  0
  144.4670   74.1480  220.8020 C   0  0  0  0  0  0  0  0  0  0  0  0
  145.7010   73.5770  220.1940 C   0  0  1  0  0  0  0  0  0  0  0  0
  146.3110   72.7040  221.0450 F   0  0  0  0  0  0  0  0  0  0  0  0
  145.1760   72.8930  218.9400 C   0  0  0  0  0  0  0  0  0  0  0  0
  143.7760   72.4760  219.2960 C   0  0  1  0  0  0  0  0  0  0  0  0
  143.6500   71.4000  220.3130 C   0  0  0  0  0  0  0  0  0  0  0  0
  142.8150   70.3630  220.1180 O   0  0  0  0  0  0  0  0  0  0  0  0
  142.8940   69.6160  219.0050 C   0  0  0  0  0  0  0  0  0  0  0  0
  144.0170   68.5850  219.0990 C   0  0  0  0  0  0  0  0  0  0  0  0
  145.3230   68.9790  219.2920 C   0  0  0  0  0  0  0  0  0  0  0  0
  146.2750   67.9660  219.3650 C   0  0  0  0  0  0  0  0  0  0  0  0
  145.9260   66.6290  219.2480 C   0  0  0  0  0  0  0  0  0  0  0  0
  144.6120   66.2510  219.0530 C   0  0  0  0  0  0  0  0  0  0  0  0
  143.6500   67.2520  218.9780 C   0  0  0  0  0  0  0  0  0  0  0  0
  140.2670   71.9740  223.0260 C   0  0  0  0  0  0  0  0  0  0  0  0
  139.7460   70.7200  222.8030 C   0  0  0  0  0  0  0  0  0  0  0  0
  139.6480   69.7620  223.8020 C   0  0  0  0  0  0  0  0  0  0  0  0
  140.1010   70.1110  225.0680 C   0  0  0  0  0  0  0  0  0  0  0  0
  140.0400   69.2070  226.1320 C   0  0  0  0  0  0  0  0  0  0  0  0
  140.5060   69.6010  227.3820 C   0  0  0  0  0  0  0  0  0  0  0  0
  140.4330   68.4770  228.7200 Cl  0  0  0  0  0  0  0  0  0  0  0  0
  141.0290   70.8570  227.6080 C   0  0  0  0  0  0  0  0  0  0  0  0
  141.0820   71.7380  226.5430 C   0  0  0  0  0  0  0  0  0  0  0  0
  140.6190   71.3630  225.2830 C   0  0  0  0  0  0  0  0  0  0  0  0
  140.6890   72.2480  224.2730 N   0  0  0  0  0  0  0  0  0  0  0  0
  141.0920   71.5020  220.5300 H   0  0  0  0  0  0  0  0  0  0  0  0
  141.0130   72.9525  218.6405 H   0  0  0  0  0  0  0  0  0  0  0  0
  140.0035   74.1003  219.5988 H   0  0  0  0  0  0  0  0  0  0  0  0
  144.5358   75.2455  220.8312 H   0  0  0  0  0  0  0  0  0  0  0  0
  144.3388   73.7849  221.8324 H   0  0  0  0  0  0  0  0  0  0  0  0
  146.4732   74.3284  219.9723 H   0  0  0  0  0  0  0  0  0  0  0  0
  145.1693   73.5913  218.0901 H   0  0  0  0  0  0  0  0  0  0  0  0
  145.8014   72.0408  218.6357 H   0  0  0  0  0  0  0  0  0  0  0  0
  143.2304   72.0899  218.4223 H   0  0  0  0  0  0  0  0  0  0  0  0
  144.6552   70.9731  220.4445 H   0  0  0  0  0  0  0  0  0  0  0  0
  143.1950   71.9230  221.1671 H   0  0  0  0  0  0  0  0  0  0  0  0
  141.9385   69.0909  218.8588 H   0  0  0  0  0  0  0  0  0  0  0  0
  143.1091   70.2831  218.1572 H   0  0  0  0  0  0  0  0  0  0  0  0
  145.5993   70.0398  219.3837 H   0  0  0  0  0  0  0  0  0  0  0  0
  147.3309   68.2328  219.5194 H   0  0  0  0  0  0  0  0  0  0  0  0
  146.7077   65.8577  219.3115 H   0  0  0  0  0  0  0  0  0  0  0  0
  144.3351   65.1905  218.9599 H   0  0  0  0  0  0  0  0  0  0  0  0
  142.5940   66.9864  218.8222 H   0  0  0  0  0  0  0  0  0  0  0  0
  139.3931   70.4669  221.7923 H   0  0  0  0  0  0  0  0  0  0  0  0
  139.2282   68.7656  223.5995 H   0  0  0  0  0  0  0  0  0  0  0  0
  139.6290   68.1976  225.9830 H   0  0  0  0  0  0  0  0  0  0  0  0
  141.3927   71.1490  228.6042 H   0  0  0  0  0  0  0  0  0  0  0  0
  141.4945   72.7467  226.6923 H   0  0  0  0  0  0  0  0  0  0  0  0
  1  2  2  0
  2  3  1  0
  3  4  1  0
  4  5  1  0
  5  6  2  0
  5  7  1  0
  7  8  1  0
  8  9  1  0
  9 10  1  0
  9 11  1  0
 11 12  1  0
 12 13  1  0
 13 14  1  0
 14 15  1  0
 15 16  1  0
 16 17  2  0
 17 18  1  0
 18 19  2  0
 19 20  1  0
 20 21  2  0
  2 22  1  0
 22 23  2  0
 23 24  1  0
 24 25  2  0
 25 26  1  0
 26 27  2  0
 27 28  1  0
 27 29  1  0
 29 30  2  0
 30 31  1  0
 31 32  2  0
 12  7  1  0
 21 16  1  0
 32 22  1  0
 31 25  1  0
  3 33  1  0
  4 34  1  0
  4 35  1  0
  8 36  1  0
  8 37  1  0
  9 38  1  6
 11 39  1  0
 11 40  1  0
 12 41  1  6
 13 42  1  0
 13 43  1  0
 15 44  1  0
 15 45  1  0
 17 46  1  0
 18 47  1  0
 19 48  1  0
 20 49  1  0
 21 50  1  0
 23 51  1  0
 24 52  1  0
 26 53  1  0
 29 54  1  0
 30 55  1  0
M  END
>  <smiles>  (9) 
O=C(NCC(=O)N1C[C@@H](F)C[C@H]1COCc1ccccc1)c1ccc2cc(Cl)ccc2n1

>  <score_type>  (9) 
oracle

>  <origin>  (9) 
autodockgpu

>  <m_score__min__energy>  (9) 
-8.9600000000000009

>  <m_primary>  (9) 
energy

>  <rmsd>  (9) 
3.928750595577301

>  <m_score__min__rmsd>  (9) 
3.928750595577301

>  <meeko>  (9) 
{"free_energy": -8.03, "intermolecular_energy": -10.42, "internal_energy": -2.43, "cluster_size": 2, "cluster_id": 5, "rank_in_cluster": 1}

>  <energy>  (9) 
-8.2

>  <cluster_rmsd>  (9) 
1.36

>  <cluster>  (9) 
2

$$$$

     RDKit          3D

 55 58  0  0  0  0  0  0  0  0999 V2000
  141.0540   72.6700  221.2460 O   0  0  0  0  0  0  0  0  0  0  0  0
  140.3040   73.5660  221.6930 C   0  0  0  0  0  0  0  0  0  0  0  0
  139.0720   73.3140  222.3590 N   0  0  0  0  0  0  0  0  0  0  0  0
  138.6640   71.9360  222.5280 C   0  0  0  0  0  0  0  0  0  0  0  0
  137.2600   71.8640  222.9670 C   0  0  0  0  0  0  0  0  0  0  0  0
  136.6030   72.9250  223.1230 O   0  0  0  0  0  0  0  0  0  0  0  0
  136.7000   70.5790  223.1970 N   0  0  0  0  0  0  0  0  0  0  0  0
  135.9130   69.7360  222.3250 C   0  0  0  0  0  0  0  0  0  0  0  0
  135.0830   68.8510  223.1880 C   0  0  1  0  0  0  0  0  0  0  0  0
  135.3940   67.5380  222.9920 F   0  0  0  0  0  0  0  0  0  0  0  0
  135.4280   69.3250  224.5930 C   0  0  0  0  0  0  0  0  0  0  0  0
  136.8440   69.8200  224.4860 C   0  0  1  0  0  0  0  0  0  0  0  0
  137.8830   68.7860  224.2410 C   0  0  0  0  0  0  0  0  0  0  0  0
  138.5970   68.2740  225.2600 O   0  0  0  0  0  0  0  0  0  0  0  0
  139.9190   68.4950  225.3550 C   0  0  0  0  0  0  0  0  0  0  0  0
  140.2230   69.7290  226.2020 C   0  0  0  0  0  0  0  0  0  0  0  0
  140.9740   70.7660  225.6930 C   0  0  0  0  0  0  0  0  0  0  0  0
  141.1980   71.8470  226.5420 C   0  0  0  0  0  0  0  0  0  0  0  0
  140.6910   71.8770  227.8320 C   0  0  0  0  0  0  0  0  0  0  0  0
  139.9410   70.8280  228.3270 C   0  0  0  0  0  0  0  0  0  0  0  0
  139.7090   69.7420  227.4900 C   0  0  0  0  0  0  0  0  0  0  0  0
  140.7120   74.9760  221.5260 C   0  0  0  0  0  0  0  0  0  0  0  0
  141.5920   75.3490  220.5360 C   0  0  0  0  0  0  0  0  0  0  0  0
  141.9960   76.6630  220.3510 C   0  0  0  0  0  0  0  0  0  0  0  0
  141.4760   77.6190  221.2140 C   0  0  0  0  0  0  0  0  0  0  0  0
  141.8290   78.9660  221.0980 C   0  0  0  0  0  0  0  0  0  0  0  0
  141.2820   79.8880  221.9850 C   0  0  0  0  0  0  0  0  0  0  0  0
  141.7180   81.5760  221.8480 Cl  0  0  0  0  0  0  0  0  0  0  0  0
  140.3990   79.5170  222.9770 C   0  0  0  0  0  0  0  0  0  0  0  0
  140.0600   78.1790  223.0770 C   0  0  0  0  0  0  0  0  0  0  0  0
  140.5980   77.2400  222.1980 C   0  0  0  0  0  0  0  0  0  0  0  0
  140.2440   75.9490  222.3270 N   0  0  0  0  0  0  0  0  0  0  0  0
  138.4810   74.1170  222.7150 H   0  0  0  0  0  0  0  0  0  0  0  0
  138.7713   71.4066  221.5698 H   0  0  0  0  0  0  0  0  0  0  0  0
  139.3005   71.4678  223.2932 H   0  0  0  0  0  0  0  0  0  0  0  0
  135.2642   70.3558  221.6886 H   0  0  0  0  0  0  0  0  0  0  0  0
  136.5654   69.1386  221.6712 H   0  0  0  0  0  0  0  0  0  0  0  0
  134.0054   68.9119  222.9756 H   0  0  0  0  0  0  0  0  0  0  0  0
  134.7549   70.1368  224.9058 H   0  0  0  0  0  0  0  0  0  0  0  0
  135.3192   68.5270  225.3423 H   0  0  0  0  0  0  0  0  0  0  0  0
  137.1716   70.3235  225.4075 H   0  0  0  0  0  0  0  0  0  0  0  0
  137.3751   67.9390  223.7566 H   0  0  0  0  0  0  0  0  0  0  0  0
  138.6411   69.3331  223.6613 H   0  0  0  0  0  0  0  0  0  0  0  0
  140.3952   67.6181  225.8179 H   0  0  0  0  0  0  0  0  0  0  0  0
  140.3128   68.6670  224.3424 H   0  0  0  0  0  0  0  0  0  0  0  0
  141.3757   70.7414  224.6693 H   0  0  0  0  0  0  0  0  0  0  0  0
  141.7924   72.6988  226.1798 H   0  0  0  0  0  0  0  0  0  0  0  0
  140.8891   72.7499  228.4714 H   0  0  0  0  0  0  0  0  0  0  0  0
  139.5399   70.8509  229.3510 H   0  0  0  0  0  0  0  0  0  0  0  0
  139.1151   68.8894  227.8512 H   0  0  0  0  0  0  0  0  0  0  0  0
  141.9909   74.5743  219.8646 H   0  0  0  0  0  0  0  0  0  0  0  0
  142.7007   76.9372  219.5521 H   0  0  0  0  0  0  0  0  0  0  0  0
  142.5299   79.2931  220.3159 H   0  0  0  0  0  0  0  0  0  0  0  0
  139.9770   80.2618  223.6678 H   0  0  0  0  0  0  0  0  0  0  0  0
  139.3582   77.8527  223.8587 H   0  0  0  0  0  0  0  0  0  0  0  0
  1  2  2  0
  2  3  1  0
  3  4  1  0
  4  5  1  0
  5  6  2  0
  5  7  1  0
  7  8  1  0
  8  9  1  0
  9 10  1  0
  9 11  1  0
 11 12  1  0
 12 13  1  0
 13 14  1  0
 14 15  1  0
 15 16  1  0
 16 17  2  0
 17 18  1  0
 18 19  2  0
 19 20  1  0
 20 21  2  0
  2 22  1  0
 22 23  2  0
 23 24  1  0
 24 25  2  0
 25 26  1  0
 26 27  2  0
 27 28  1  0
 27 29  1  0
 29 30  2  0
 30 31  1  0
 31 32  2  0
 12  7  1  0
 21 16  1  0
 32 22  1  0
 31 25  1  0
  3 33  1  0
  4 34  1  0
  4 35  1  0
  8 36  1  0
  8 37  1  0
  9 38  1  6
 11 39  1  0
 11 40  1  0
 12 41  1  1
 13 42  1  0
 13 43  1  0
 15 44  1  0
 15 45  1  0
 17 46  1  0
 18 47  1  0
 19 48  1  0
 20 49  1  0
 21 50  1  0
 23 51  1  0
 24 52  1  0
 26 53  1  0
 29 54  1  0
 30 55  1  0
M  END
>  <smiles>  (10) 
O=C(NCC(=O)N1C[C@@H](F)C[C@H]1COCc1ccccc1)c1ccc2cc(Cl)ccc2n1

>  <score_type>  (10) 
oracle

>  <origin>  (10) 
autodockgpu

>  <m_score__min__energy>  (10) 
-8.9600000000000009

>  <m_primary>  (10) 
energy

>  <rmsd>  (10) 
8.350455375826487

>  <m_score__min__rmsd>  (10) 
8.350455375826487

>  <meeko>  (10) 
{"free_energy": -8.23, "intermolecular_energy": -10.61, "internal_energy": -2.33, "cluster_size": 12, "cluster_id": 2, "rank_in_cluster": 4}

>  <energy>  (10) 
-8.02

>  <cluster_rmsd>  (10) 
0.59

>  <cluster>  (10) 
2

$$$$

     RDKit          3D

 55 58  0  0  0  0  0  0  0  0999 V2000
  141.6620   72.9190  221.0380 O   0  0  0  0  0  0  0  0  0  0  0  0
  140.8810   73.7250  221.5900 C   0  0  0  0  0  0  0  0  0  0  0  0
  139.7550   73.3360  222.3690 N   0  0  0  0  0  0  0  0  0  0  0  0
  139.5010   71.9200  222.5300 C   0  0  0  0  0  0  0  0  0  0  0  0
  138.0670   71.6760  222.7550 C   0  0  0  0  0  0  0  0  0  0  0  0
  137.3120   72.6370  223.0560 O   0  0  0  0  0  0  0  0  0  0  0  0
  137.5890   70.3450  222.6190 N   0  0  0  0  0  0  0  0  0  0  0  0
  137.2710   69.5870  221.4290 C   0  0  0  0  0  0  0  0  0  0  0  0
  136.2680   68.5550  221.8100 C   0  0  1  0  0  0  0  0  0  0  0  0
  136.7560   67.2970  221.6140 F   0  0  0  0  0  0  0  0  0  0  0  0
  136.0140   68.8550  223.2810 C   0  0  0  0  0  0  0  0  0  0  0  0
  137.3120   69.4300  223.7770 C   0  0  1  0  0  0  0  0  0  0  0  0
  138.4620   68.4920  223.8450 C   0  0  0  0  0  0  0  0  0  0  0  0
  139.5110   68.7460  224.6500 O   0  0  0  0  0  0  0  0  0  0  0  0
  139.3570   68.7910  225.9840 C   0  0  0  0  0  0  0  0  0  0  0  0
  140.0140   70.0330  226.5840 C   0  0  0  0  0  0  0  0  0  0  0  0
  139.8270   70.3600  227.9090 C   0  0  0  0  0  0  0  0  0  0  0  0
  140.4670   71.5100  228.3630 C   0  0  0  0  0  0  0  0  0  0  0  0
  141.2520   72.2860  227.5240 C   0  0  0  0  0  0  0  0  0  0  0  0
  141.4290   71.9440  226.1970 C   0  0  0  0  0  0  0  0  0  0  0  0
  140.7950   70.7980  225.7300 C   0  0  0  0  0  0  0  0  0  0  0  0
  141.1320   75.1720  221.4320 C   0  0  0  0  0  0  0  0  0  0  0  0
  141.9230   75.6500  220.4130 C   0  0  0  0  0  0  0  0  0  0  0  0
  142.1790   77.0010  220.2350 C   0  0  0  0  0  0  0  0  0  0  0  0
  141.6010   77.8850  221.1370 C   0  0  0  0  0  0  0  0  0  0  0  0
  141.8060   79.2630  221.0320 C   0  0  0  0  0  0  0  0  0  0  0  0
  141.2070   80.1100  221.9590 C   0  0  0  0  0  0  0  0  0  0  0  0
  141.4580   81.8360  221.8360 Cl  0  0  0  0  0  0  0  0  0  0  0  0
  140.4130   79.6340  222.9810 C   0  0  0  0  0  0  0  0  0  0  0  0
  140.2200   78.2670  223.0700 C   0  0  0  0  0  0  0  0  0  0  0  0
  140.8130   77.4020  222.1520 C   0  0  0  0  0  0  0  0  0  0  0  0
  140.6010   76.0800  222.2710 N   0  0  0  0  0  0  0  0  0  0  0  0
  139.1300   74.0660  222.8110 H   0  0  0  0  0  0  0  0  0  0  0  0
  139.8203   71.3893  221.6209 H   0  0  0  0  0  0  0  0  0  0  0  0
  140.0651   71.5540  223.4005 H   0  0  0  0  0  0  0  0  0  0  0  0
  136.8513   70.2529  220.6606 H   0  0  0  0  0  0  0  0  0  0  0  0
  138.1753   69.1148  221.0175 H   0  0  0  0  0  0  0  0  0  0  0  0
  135.3483   68.5894  221.2076 H   0  0  0  0  0  0  0  0  0  0  0  0
  135.1976   69.5834  223.3940 H   0  0  0  0  0  0  0  0  0  0  0  0
  135.7103   67.9603  223.8442 H   0  0  0  0  0  0  0  0  0  0  0  0
  137.2194   69.8223  224.8005 H   0  0  0  0  0  0  0  0  0  0  0  0
  138.0553   67.5188  224.1571 H   0  0  0  0  0  0  0  0  0  0  0  0
  138.9009   68.5699  222.8394 H   0  0  0  0  0  0  0  0  0  0  0  0
  138.2825   68.8066  226.2190 H   0  0  0  0  0  0  0  0  0  0  0  0
  139.8407   67.9027  226.4165 H   0  0  0  0  0  0  0  0  0  0  0  0
  139.2040   69.7441  228.5742 H   0  0  0  0  0  0  0  0  0  0  0  0
  140.3468   71.8107  229.4143 H   0  0  0  0  0  0  0  0  0  0  0  0
  141.7414   73.1877  227.9208 H   0  0  0  0  0  0  0  0  0  0  0  0
  142.0519   72.5591  225.5309 H   0  0  0  0  0  0  0  0  0  0  0  0
  140.9132   70.4966  224.6787 H   0  0  0  0  0  0  0  0  0  0  0  0
  142.3706   74.9312  219.7109 H   0  0  0  0  0  0  0  0  0  0  0  0
  142.8149   77.3587  219.4118 H   0  0  0  0  0  0  0  0  0  0  0  0
  142.4331   79.6731  220.2266 H   0  0  0  0  0  0  0  0  0  0  0  0
  139.9472   80.3203  223.7035 H   0  0  0  0  0  0  0  0  0  0  0  0
  139.5913   77.8580  223.8746 H   0  0  0  0  0  0  0  0  0  0  0  0
  1  2  2  0
  2  3  1  0
  3  4  1  0
  4  5  1  0
  5  6  2  0
  5  7  1  0
  7  8  1  0
  8  9  1  0
  9 10  1  0
  9 11  1  0
 11 12  1  0
 12 13  1  0
 13 14  1  0
 14 15  1  0
 15 16  1  0
 16 17  2  0
 17 18  1  0
 18 19  2  0
 19 20  1  0
 20 21  2  0
  2 22  1  0
 22 23  2  0
 23 24  1  0
 24 25  2  0
 25 26  1  0
 26 27  2  0
 27 28  1  0
 27 29  1  0
 29 30  2  0
 30 31  1  0
 31 32  2  0
 12  7  1  0
 21 16  1  0
 32 22  1  0
 31 25  1  0
  3 33  1  0
  4 34  1  0
  4 35  1  0
  8 36  1  0
  8 37  1  0
  9 38  1  6
 11 39  1  0
 11 40  1  0
 12 41  1  1
 13 42  1  0
 13 43  1  0
 15 44  1  0
 15 45  1  0
 17 46  1  0
 18 47  1  0
 19 48  1  0
 20 49  1  0
 21 50  1  0
 23 51  1  0
 24 52  1  0
 26 53  1  0
 29 54  1  0
 30 55  1  0
M  END
>  <smiles>  (11) 
O=C(NCC(=O)N1C[C@@H](F)C[C@H]1COCc1ccccc1)c1ccc2cc(Cl)ccc2n1

>  <score_type>  (11) 
oracle

>  <origin>  (11) 
autodockgpu

>  <m_score__min__energy>  (11) 
-8.9600000000000009

>  <m_primary>  (11) 
energy

>  <rmsd>  (11) 
8.25937515429513

>  <m_score__min__rmsd>  (11) 
8.25937515429513

>  <meeko>  (11) 
{"free_energy": -8.02, "intermolecular_energy": -10.4, "internal_energy": -2.34, "cluster_size": 12, "cluster_id": 2, "rank_in_cluster": 6}

>  <energy>  (11) 
-7.99

>  <cluster_rmsd>  (11) 
1.63

>  <cluster>  (11) 
2

$$$$

     RDKit          3D

 55 58  0  0  0  0  0  0  0  0999 V2000
  137.5850   71.3910  220.8970 O   0  0  0  0  0  0  0  0  0  0  0  0
  138.1690   71.9440  221.8550 C   0  0  0  0  0  0  0  0  0  0  0  0
  138.4800   73.3320  221.9040 N   0  0  0  0  0  0  0  0  0  0  0  0
  138.0970   74.1510  220.7750 C   0  0  0  0  0  0  0  0  0  0  0  0
  139.0290   73.9510  219.6530 C   0  0  0  0  0  0  0  0  0  0  0  0
  138.7480   73.1190  218.7520 O   0  0  0  0  0  0  0  0  0  0  0  0
  140.2230   74.7200  219.6340 N   0  0  0  0  0  0  0  0  0  0  0  0
  140.5390   75.9330  218.9110 C   0  0  0  0  0  0  0  0  0  0  0  0
  142.0170   75.9760  218.7350 C   0  0  1  0  0  0  0  0  0  0  0  0
  142.5570   77.0600  219.3600 F   0  0  0  0  0  0  0  0  0  0  0  0
  142.4720   74.6620  219.3560 C   0  0  0  0  0  0  0  0  0  0  0  0
  141.4540   74.3790  220.4250 C   0  0  1  0  0  0  0  0  0  0  0  0
  141.4590   75.2950  221.5950 C   0  0  0  0  0  0  0  0  0  0  0  0
  140.3500   75.4660  222.3400 O   0  0  0  0  0  0  0  0  0  0  0  0
  139.6800   76.6300  222.3190 C   0  0  0  0  0  0  0  0  0  0  0  0
  140.6310   77.8250  222.2700 C   0  0  0  0  0  0  0  0  0  0  0  0
  140.7760   78.5630  221.1160 C   0  0  0  0  0  0  0  0  0  0  0  0
  141.6650   79.6330  221.1690 C   0  0  0  0  0  0  0  0  0  0  0  0
  142.3680   79.9390  222.3240 C   0  0  0  0  0  0  0  0  0  0  0  0
  142.2120   79.1870  223.4730 C   0  0  0  0  0  0  0  0  0  0  0  0
  141.3270   78.1160  223.4340 C   0  0  0  0  0  0  0  0  0  0  0  0
  138.5640   71.1160  223.0130 C   0  0  0  0  0  0  0  0  0  0  0  0
  138.1060   69.8260  223.1550 C   0  0  0  0  0  0  0  0  0  0  0  0
  138.4580   69.0220  224.2290 C   0  0  0  0  0  0  0  0  0  0  0  0
  139.3060   69.5660  225.1840 C   0  0  0  0  0  0  0  0  0  0  0  0
  139.7110   68.8250  226.2980 C   0  0  0  0  0  0  0  0  0  0  0  0
  140.5610   69.4120  227.2290 C   0  0  0  0  0  0  0  0  0  0  0  0
  141.0730   68.4930  228.6260 Cl  0  0  0  0  0  0  0  0  0  0  0  0
  141.0230   70.7040  227.0890 C   0  0  0  0  0  0  0  0  0  0  0  0
  140.6120   71.4230  225.9800 C   0  0  0  0  0  0  0  0  0  0  0  0
  139.7590   70.8530  225.0370 C   0  0  0  0  0  0  0  0  0  0  0  0
  139.3830   71.5830  223.9720 N   0  0  0  0  0  0  0  0  0  0  0  0
  138.9770   73.7410  222.7450 H   0  0  0  0  0  0  0  0  0  0  0  0
  137.0813   73.8748  220.4555 H   0  0  0  0  0  0  0  0  0  0  0  0
  138.1253   75.2084  221.0768 H   0  0  0  0  0  0  0  0  0  0  0  0
  140.0438   75.9248  217.9288 H   0  0  0  0  0  0  0  0  0  0  0  0
  140.1885   76.8167  219.4643 H   0  0  0  0  0  0  0  0  0  0  0  0
  142.3338   76.0785  217.6866 H   0  0  0  0  0  0  0  0  0  0  0  0
  142.4802   73.8589  218.6044 H   0  0  0  0  0  0  0  0  0  0  0  0
  143.4946   74.7207  219.7570 H   0  0  0  0  0  0  0  0  0  0  0  0
  141.5885   73.3784  220.8617 H   0  0  0  0  0  0  0  0  0  0  0  0
  142.2417   74.9300  222.2762 H   0  0  0  0  0  0  0  0  0  0  0  0
  141.5975   76.2830  221.1318 H   0  0  0  0  0  0  0  0  0  0  0  0
  139.0317   76.6529  221.4306 H   0  0  0  0  0  0  0  0  0  0  0  0
  139.0847   76.7013  223.2413 H   0  0  0  0  0  0  0  0  0  0  0  0
  140.2181   78.3194  220.1998 H   0  0  0  0  0  0  0  0  0  0  0  0
  141.8134   80.2515  220.2715 H   0  0  0  0  0  0  0  0  0  0  0  0
  143.0607   80.7935  222.3260 H   0  0  0  0  0  0  0  0  0  0  0  0
  142.7706   79.4284  224.3894 H   0  0  0  0  0  0  0  0  0  0  0  0
  141.1778   77.4962  224.3305 H   0  0  0  0  0  0  0  0  0  0  0  0
  137.4342   69.4163  222.3863 H   0  0  0  0  0  0  0  0  0  0  0  0
  138.0798   67.9931  224.3205 H   0  0  0  0  0  0  0  0  0  0  0  0
  139.3619   67.7911  226.4364 H   0  0  0  0  0  0  0  0  0  0  0  0
  141.6972   71.1492  227.8355 H   0  0  0  0  0  0  0  0  0  0  0  0
  140.9628   72.4563  225.8414 H   0  0  0  0  0  0  0  0  0  0  0  0
  1  2  2  0
  2  3  1  0
  3  4  1  0
  4  5  1  0
  5  6  2  0
  5  7  1  0
  7  8  1  0
  8  9  1  0
  9 10  1  0
  9 11  1  0
 11 12  1  0
 12 13  1  0
 13 14  1  0
 14 15  1  0
 15 16  1  0
 16 17  2  0
 17 18  1  0
 18 19  2  0
 19 20  1  0
 20 21  2  0
  2 22  1  0
 22 23  2  0
 23 24  1  0
 24 25  2  0
 25 26  1  0
 26 27  2  0
 27 28  1  0
 27 29  1  0
 29 30  2  0
 30 31  1  0
 31 32  2  0
 12  7  1  0
 21 16  1  0
 32 22  1  0
 31 25  1  0
  3 33  1  0
  4 34  1  0
  4 35  1  0
  8 36  1  0
  8 37  1  0
  9 38  1  6
 11 39  1  0
 11 40  1  0
 12 41  1  1
 13 42  1  0
 13 43  1  0
 15 44  1  0
 15 45  1  0
 17 46  1  0
 18 47  1  0
 19 48  1  0
 20 49  1  0
 21 50  1  0
 23 51  1  0
 24 52  1  0
 26 53  1  0
 29 54  1  0
 30 55  1  0
M  END
>  <smiles>  (12) 
O=C(NCC(=O)N1C[C@@H](F)C[C@H]1COCc1ccccc1)c1ccc2cc(Cl)ccc2n1

>  <score_type>  (12) 
oracle

>  <origin>  (12) 
autodockgpu

>  <m_score__min__energy>  (12) 
-8.9600000000000009

>  <m_primary>  (12) 
energy

>  <rmsd>  (12) 
1.8919574540729451

>  <m_score__min__rmsd>  (12) 
1.8919574540729451

>  <meeko>  (12) 
{"free_energy": -7.49, "intermolecular_energy": -9.87, "internal_energy": -2.92, "cluster_size": 18, "cluster_id": 3, "rank_in_cluster": 15}

>  <energy>  (12) 
-7.93

>  <cluster_rmsd>  (12) 
1.59

>  <cluster>  (12) 
2

$$$$

     RDKit          3D

 55 58  0  0  0  0  0  0  0  0999 V2000
  138.7110   71.6790  220.8800 O   0  0  0  0  0  0  0  0  0  0  0  0
  139.0710   72.1560  221.9790 C   0  0  0  0  0  0  0  0  0  0  0  0
  139.2530   73.5460  222.2240 N   0  0  0  0  0  0  0  0  0  0  0  0
  139.0040   74.4620  221.1320 C   0  0  0  0  0  0  0  0  0  0  0  0
  139.4880   75.8110  221.4700 C   0  0  0  0  0  0  0  0  0  0  0  0
  140.0470   76.0100  222.5800 O   0  0  0  0  0  0  0  0  0  0  0  0
  139.3020   76.8440  220.5140 N   0  0  0  0  0  0  0  0  0  0  0  0
  138.3950   76.9210  219.3900 C   0  0  0  0  0  0  0  0  0  0  0  0
  138.9960   77.8490  218.3930 C   0  0  1  0  0  0  0  0  0  0  0  0
  138.2000   78.9380  218.1900 F   0  0  0  0  0  0  0  0  0  0  0  0
  140.3290   78.2170  219.0310 C   0  0  0  0  0  0  0  0  0  0  0  0
  140.0740   78.1330  220.5100 C   0  0  1  0  0  0  0  0  0  0  0  0
  139.1630   79.1610  221.0780 C   0  0  0  0  0  0  0  0  0  0  0  0
  138.4000   78.8850  222.1530 O   0  0  0  0  0  0  0  0  0  0  0  0
  138.8090   79.2180  223.3890 C   0  0  0  0  0  0  0  0  0  0  0  0
  140.2780   79.6340  223.4020 C   0  0  0  0  0  0  0  0  0  0  0  0
  141.2790   78.6870  223.4230 C   0  0  0  0  0  0  0  0  0  0  0  0
  142.5870   79.1640  223.4340 C   0  0  0  0  0  0  0  0  0  0  0  0
  142.8670   80.5220  223.4250 C   0  0  0  0  0  0  0  0  0  0  0  0
  141.8520   81.4580  223.4050 C   0  0  0  0  0  0  0  0  0  0  0  0
  140.5400   80.9960  223.3940 C   0  0  0  0  0  0  0  0  0  0  0  0
  139.3270   71.2280  223.1000 C   0  0  0  0  0  0  0  0  0  0  0  0
  138.9620   69.9030  223.0250 C   0  0  0  0  0  0  0  0  0  0  0  0
  139.1880   69.0060  224.0580 C   0  0  0  0  0  0  0  0  0  0  0  0
  139.8080   69.4910  225.2020 C   0  0  0  0  0  0  0  0  0  0  0  0
  140.0740   68.6550  226.2900 C   0  0  0  0  0  0  0  0  0  0  0  0
  140.6970   69.1860  227.4150 C   0  0  0  0  0  0  0  0  0  0  0  0
  141.0330   68.1490  228.7820 Cl  0  0  0  0  0  0  0  0  0  0  0  0
  141.0650   70.5130  227.4930 C   0  0  0  0  0  0  0  0  0  0  0  0
  140.7950   71.3250  226.4060 C   0  0  0  0  0  0  0  0  0  0  0  0
  140.1700   70.8130  225.2700 C   0  0  0  0  0  0  0  0  0  0  0  0
  139.9250   71.6340  224.2350 N   0  0  0  0  0  0  0  0  0  0  0  0
  139.5600   73.8870  223.1770 H   0  0  0  0  0  0  0  0  0  0  0  0
  139.5273   74.1043  220.2330 H   0  0  0  0  0  0  0  0  0  0  0  0
  137.9207   74.5087  220.9468 H   0  0  0  0  0  0  0  0  0  0  0  0
  138.2641   75.9240  218.9440 H   0  0  0  0  0  0  0  0  0  0  0  0
  137.4083   77.2848  219.7125 H   0  0  0  0  0  0  0  0  0  0  0  0
  139.1151   77.4058  217.3933 H   0  0  0  0  0  0  0  0  0  0  0  0
  141.1132   77.5065  218.7306 H   0  0  0  0  0  0  0  0  0  0  0  0
  140.6795   79.2131  218.7228 H   0  0  0  0  0  0  0  0  0  0  0  0
  141.0020   78.2401  221.0909 H   0  0  0  0  0  0  0  0  0  0  0  0
  139.7916   80.0213  221.3514 H   0  0  0  0  0  0  0  0  0  0  0  0
  138.4199   79.2986  220.2787 H   0  0  0  0  0  0  0  0  0  0  0  0
  138.1973   80.0564  223.7536 H   0  0  0  0  0  0  0  0  0  0  0  0
  138.6951   78.3372  224.0380 H   0  0  0  0  0  0  0  0  0  0  0  0
  141.0561   77.6098  223.4307 H   0  0  0  0  0  0  0  0  0  0  0  0
  143.4195   78.4452  223.4503 H   0  0  0  0  0  0  0  0  0  0  0  0
  143.9141   80.8590  223.4339 H   0  0  0  0  0  0  0  0  0  0  0  0
  142.0740   82.5353  223.3980 H   0  0  0  0  0  0  0  0  0  0  0  0
  139.7067   81.7139  223.3789 H   0  0  0  0  0  0  0  0  0  0  0  0
  138.4716   69.5413  222.1092 H   0  0  0  0  0  0  0  0  0  0  0  0
  138.8878   67.9511  223.9745 H   0  0  0  0  0  0  0  0  0  0  0  0
  139.7946   67.5916  226.2573 H   0  0  0  0  0  0  0  0  0  0  0  0
  141.5577   70.9131  228.3914 H   0  0  0  0  0  0  0  0  0  0  0  0
  141.0770   72.3877  226.4385 H   0  0  0  0  0  0  0  0  0  0  0  0
  1  2  2  0
  2  3  1  0
  3  4  1  0
  4  5  1  0
  5  6  2  0
  5  7  1  0
  7  8  1  0
  8  9  1  0
  9 10  1  0
  9 11  1  0
 11 12  1  0
 12 13  1  0
 13 14  1  0
 14 15  1  0
 15 16  1  0
 16 17  2  0
 17 18  1  0
 18 19  2  0
 19 20  1  0
 20 21  2  0
  2 22  1  0
 22 23  2  0
 23 24  1  0
 24 25  2  0
 25 26  1  0
 26 27  2  0
 27 28  1  0
 27 29  1  0
 29 30  2  0
 30 31  1  0
 31 32  2  0
 12  7  1  0
 21 16  1  0
 32 22  1  0
 31 25  1  0
  3 33  1  0
  4 34  1  0
  4 35  1  0
  8 36  1  0
  8 37  1  0
  9 38  1  6
 11 39  1  0
 11 40  1  0
 12 41  1  1
 13 42  1  0
 13 43  1  0
 15 44  1  0
 15 45  1  0
 17 46  1  0
 18 47  1  0
 19 48  1  0
 20 49  1  0
 21 50  1  0
 23 51  1  0
 24 52  1  0
 26 53  1  0
 29 54  1  0
 30 55  1  0
M  END
>  <smiles>  (13) 
O=C(NCC(=O)N1C[C@@H](F)C[C@H]1COCc1ccccc1)c1ccc2cc(Cl)ccc2n1

>  <score_type>  (13) 
oracle

>  <origin>  (13) 
autodockgpu

>  <m_score__min__energy>  (13) 
-8.9600000000000009

>  <m_primary>  (13) 
energy

>  <rmsd>  (13) 
1.3591917511721106

>  <m_score__min__rmsd>  (13) 
1.3591917511721106

>  <meeko>  (13) 
{"free_energy": -7.92, "intermolecular_energy": -10.31, "internal_energy": -2.4, "cluster_size": 18, "cluster_id": 3, "rank_in_cluster": 6}

>  <energy>  (13) 
-7.88

>  <cluster_rmsd>  (13) 
1.69

>  <cluster>  (13) 
2

$$$$

     RDKit          3D

 55 58  0  0  0  0  0  0  0  0999 V2000
  136.2880   75.2730  221.5730 O   0  0  0  0  0  0  0  0  0  0  0  0
  137.4470   75.2480  222.0420 C   0  0  0  0  0  0  0  0  0  0  0  0
  138.1920   74.0550  222.2610 N   0  0  0  0  0  0  0  0  0  0  0  0
  137.5670   72.7950  221.9180 C   0  0  0  0  0  0  0  0  0  0  0  0
  138.5870   71.7560  221.7020 C   0  0  0  0  0  0  0  0  0  0  0  0
  139.6010   72.0150  221.0030 O   0  0  0  0  0  0  0  0  0  0  0  0
  138.3800   70.4860  222.3020 N   0  0  0  0  0  0  0  0  0  0  0  0
  138.8360   69.1760  221.8920 C   0  0  0  0  0  0  0  0  0  0  0  0
  137.8820   68.1760  222.4460 C   0  0  1  0  0  0  0  0  0  0  0  0
  138.5050   67.3310  223.3170 F   0  0  0  0  0  0  0  0  0  0  0  0
  136.8370   69.0460  223.1310 C   0  0  0  0  0  0  0  0  0  0  0  0
  137.5930   70.2720  223.5640 C   0  0  1  0  0  0  0  0  0  0  0  0
  138.5940   70.0780  224.6450 C   0  0  0  0  0  0  0  0  0  0  0  0
  138.6910   68.8990  225.2880 O   0  0  0  0  0  0  0  0  0  0  0  0
  139.7210   68.6480  226.1130 C   0  0  0  0  0  0  0  0  0  0  0  0
  140.2980   69.9350  226.6990 C   0  0  0  0  0  0  0  0  0  0  0  0
  139.8990   70.3880  227.9370 C   0  0  0  0  0  0  0  0  0  0  0  0
  140.4820   71.5700  228.3850 C   0  0  0  0  0  0  0  0  0  0  0  0
  141.4160   72.2560  227.6240 C   0  0  0  0  0  0  0  0  0  0  0  0
  141.8050   71.7880  226.3840 C   0  0  0  0  0  0  0  0  0  0  0  0
  141.2310   70.6090  225.9230 C   0  0  0  0  0  0  0  0  0  0  0  0
  138.0940   76.5280  222.3960 C   0  0  0  0  0  0  0  0  0  0  0  0
  137.3480   77.6580  222.6410 C   0  0  0  0  0  0  0  0  0  0  0  0
  137.9220   78.8760  222.9750 C   0  0  0  0  0  0  0  0  0  0  0  0
  139.3070   78.9270  223.0580 C   0  0  0  0  0  0  0  0  0  0  0  0
  139.9680   80.1140  223.3890 C   0  0  0  0  0  0  0  0  0  0  0  0
  141.3570   80.1170  223.4600 C   0  0  0  0  0  0  0  0  0  0  0  0
  142.1930   81.5970  223.8730 Cl  0  0  0  0  0  0  0  0  0  0  0  0
  142.1080   78.9860  223.2160 C   0  0  0  0  0  0  0  0  0  0  0  0
  141.4370   77.8210  222.8900 C   0  0  0  0  0  0  0  0  0  0  0  0
  140.0450   77.7970  222.8130 C   0  0  0  0  0  0  0  0  0  0  0  0
  139.4300   76.6450  222.4940 N   0  0  0  0  0  0  0  0  0  0  0  0
  139.1700   74.0990  222.6620 H   0  0  0  0  0  0  0  0  0  0  0  0
  136.9027   72.4852  222.7382 H   0  0  0  0  0  0  0  0  0  0  0  0
  136.9894   72.9249  220.9909 H   0  0  0  0  0  0  0  0  0  0  0  0
  138.8528   69.1109  220.7941 H   0  0  0  0  0  0  0  0  0  0  0  0
  139.8542   68.9867  222.2628 H   0  0  0  0  0  0  0  0  0  0  0  0
  137.4451   67.5132  221.6846 H   0  0  0  0  0  0  0  0  0  0  0  0
  136.0327   69.3127  222.4296 H   0  0  0  0  0  0  0  0  0  0  0  0
  136.3536   68.5327  223.9753 H   0  0  0  0  0  0  0  0  0  0  0  0
  136.9197   71.0505  223.9520 H   0  0  0  0  0  0  0  0  0  0  0  0
  139.5801   70.2749  224.1992 H   0  0  0  0  0  0  0  0  0  0  0  0
  138.2393   70.7588  225.4329 H   0  0  0  0  0  0  0  0  0  0  0  0
  139.3716   68.0065  226.9354 H   0  0  0  0  0  0  0  0  0  0  0  0
  140.5118   68.1485  225.5342 H   0  0  0  0  0  0  0  0  0  0  0  0
  139.1578   69.8438  228.5406 H   0  0  0  0  0  0  0  0  0  0  0  0
  140.1941   71.9702  229.3684 H   0  0  0  0  0  0  0  0  0  0  0  0
  141.8538   73.1869  228.0135 H   0  0  0  0  0  0  0  0  0  0  0  0
  142.5463   72.3317  225.7799 H   0  0  0  0  0  0  0  0  0  0  0  0
  141.5172   70.2085  224.9393 H   0  0  0  0  0  0  0  0  0  0  0  0
  136.2523   77.5929  222.5691 H   0  0  0  0  0  0  0  0  0  0  0  0
  137.3044   79.7659  223.1665 H   0  0  0  0  0  0  0  0  0  0  0  0
  139.3973   81.0326  223.5904 H   0  0  0  0  0  0  0  0  0  0  0  0
  143.2060   79.0097  223.2787 H   0  0  0  0  0  0  0  0  0  0  0  0
  142.0084   76.9027  222.6891 H   0  0  0  0  0  0  0  0  0  0  0  0
  1  2  2  0
  2  3  1  0
  3  4  1  0
  4  5  1  0
  5  6  2  0
  5  7  1  0
  7  8  1  0
  8  9  1  0
  9 10  1  0
  9 11  1  0
 11 12  1  0
 12 13  1  0
 13 14  1  0
 14 15  1  0
 15 16  1  0
 16 17  2  0
 17 18  1  0
 18 19  2  0
 19 20  1  0
 20 21  2  0
  2 22  1  0
 22 23  2  0
 23 24  1  0
 24 25  2  0
 25 26  1  0
 26 27  2  0
 27 28  1  0
 27 29  1  0
 29 30  2  0
 30 31  1  0
 31 32  2  0
 12  7  1  0
 21 16  1  0
 32 22  1  0
 31 25  1  0
  3 33  1  0
  4 34  1  0
  4 35  1  0
  8 36  1  0
  8 37  1  0
  9 38  1  6
 11 39  1  0
 11 40  1  0
 12 41  1  1
 13 42  1  0
 13 43  1  0
 15 44  1  0
 15 45  1  0
 17 46  1  0
 18 47  1  0
 19 48  1  0
 20 49  1  0
 21 50  1  0
 23 51  1  0
 24 52  1  0
 26 53  1  0
 29 54  1  0
 30 55  1  0
M  END
>  <smiles>  (14) 
O=C(NCC(=O)N1C[C@@H](F)C[C@H]1COCc1ccccc1)c1ccc2cc(Cl)ccc2n1

>  <score_type>  (14) 
oracle

>  <origin>  (14) 
autodockgpu

>  <m_score__min__energy>  (14) 
-8.9600000000000009

>  <m_primary>  (14) 
energy

>  <rmsd>  (14) 
8.173046775561655

>  <m_score__min__rmsd>  (14) 
8.173046775561655

>  <meeko>  (14) 
{"free_energy": -7.99, "intermolecular_energy": -10.37, "internal_energy": -1.59, "cluster_size": 12, "cluster_id": 2, "rank_in_cluster": 7}

>  <energy>  (14) 
-7.8

>  <cluster_rmsd>  (14) 
1.24

>  <cluster>  (14) 
2

$$$$

     RDKit          3D

 55 58  0  0  0  0  0  0  0  0999 V2000
  141.5070   75.2120  220.9070 O   0  0  0  0  0  0  0  0  0  0  0  0
  140.5340   75.2470  221.6930 C   0  0  0  0  0  0  0  0  0  0  0  0
  139.7870   74.1010  222.0870 N   0  0  0  0  0  0  0  0  0  0  0  0
  140.1800   72.8180  221.5450 C   0  0  0  0  0  0  0  0  0  0  0  0
  139.9470   71.7490  222.5290 C   0  0  0  0  0  0  0  0  0  0  0  0
  140.9160   71.2820  223.1820 O   0  0  0  0  0  0  0  0  0  0  0  0
  138.6160   71.2840  222.7040 N   0  0  0  0  0  0  0  0  0  0  0  0
  137.5490   71.1310  221.7400 C   0  0  0  0  0  0  0  0  0  0  0  0
  136.2610   71.2230  222.4810 C   0  0  1  0  0  0  0  0  0  0  0  0
  135.5500   70.0640  222.3800 F   0  0  0  0  0  0  0  0  0  0  0  0
  136.7090   71.5060  223.9080 C   0  0  0  0  0  0  0  0  0  0  0  0
  138.0500   70.8360  224.0210 C   0  0  1  0  0  0  0  0  0  0  0  0
  138.0460   69.3500  223.9840 C   0  0  0  0  0  0  0  0  0  0  0  0
  138.6780   68.6370  224.9360 O   0  0  0  0  0  0  0  0  0  0  0  0
  139.9800   68.8390  225.1960 C   0  0  0  0  0  0  0  0  0  0  0  0
  140.1790   69.8980  226.2790 C   0  0  0  0  0  0  0  0  0  0  0  0
  140.9760   70.9980  226.0520 C   0  0  0  0  0  0  0  0  0  0  0  0
  141.0960   71.9070  227.1000 C   0  0  0  0  0  0  0  0  0  0  0  0
  140.4450   71.7150  228.3090 C   0  0  0  0  0  0  0  0  0  0  0  0
  139.6490   70.6060  228.5200 C   0  0  0  0  0  0  0  0  0  0  0  0
  139.5210   69.6890  227.4830 C   0  0  0  0  0  0  0  0  0  0  0  0
  140.1260   76.5520  222.2510 C   0  0  0  0  0  0  0  0  0  0  0  0
  141.0600   77.4660  222.6810 C   0  0  0  0  0  0  0  0  0  0  0  0
  140.7100   78.7000  223.2100 C   0  0  0  0  0  0  0  0  0  0  0  0
  139.3570   78.9970  223.2980 C   0  0  0  0  0  0  0  0  0  0  0  0
  138.9170   80.2180  223.8180 C   0  0  0  0  0  0  0  0  0  0  0  0
  137.5510   80.4710  223.8870 C   0  0  0  0  0  0  0  0  0  0  0  0
  136.9910   81.9950  224.5360 Cl  0  0  0  0  0  0  0  0  0  0  0  0
  136.6120   79.5580  223.4570 C   0  0  0  0  0  0  0  0  0  0  0  0
  137.0660   78.3550  222.9440 C   0  0  0  0  0  0  0  0  0  0  0  0
  138.4310   78.0810  222.8680 C   0  0  0  0  0  0  0  0  0  0  0  0
  138.8310   76.9010  222.3630 N   0  0  0  0  0  0  0  0  0  0  0  0
  138.9730   74.1960  222.7560 H   0  0  0  0  0  0  0  0  0  0  0  0
  139.5901   72.6115  220.6398 H   0  0  0  0  0  0  0  0  0  0  0  0
  141.2520   72.8487  221.3005 H   0  0  0  0  0  0  0  0  0  0  0  0
  137.6065   71.9298  220.9859 H   0  0  0  0  0  0  0  0  0  0  0  0
  137.6301   70.1640  221.2220 H   0  0  0  0  0  0  0  0  0  0  0  0
  135.5818   71.9958  222.0917 H   0  0  0  0  0  0  0  0  0  0  0  0
  136.7996   72.5887  224.0797 H   0  0  0  0  0  0  0  0  0  0  0  0
  135.9911   71.1336  224.6536 H   0  0  0  0  0  0  0  0  0  0  0  0
  138.5519   71.0838  224.9679 H   0  0  0  0  0  0  0  0  0  0  0  0
  136.9914   69.0380  224.0058 H   0  0  0  0  0  0  0  0  0  0  0  0
  138.6314   69.1255  223.0802 H   0  0  0  0  0  0  0  0  0  0  0  0
  140.4273   67.8930  225.5351 H   0  0  0  0  0  0  0  0  0  0  0  0
  140.4641   69.1940  224.2743 H   0  0  0  0  0  0  0  0  0  0  0  0
  141.4913   71.1507  225.0922 H   0  0  0  0  0  0  0  0  0  0  0  0
  141.7234   72.8004  226.9652 H   0  0  0  0  0  0  0  0  0  0  0  0
  140.5642   72.4570  229.1123 H   0  0  0  0  0  0  0  0  0  0  0  0
  139.1323   70.4532  229.4790 H   0  0  0  0  0  0  0  0  0  0  0  0
  138.8956   68.7941  227.6173 H   0  0  0  0  0  0  0  0  0  0  0  0
  142.1265   77.2083  222.6023 H   0  0  0  0  0  0  0  0  0  0  0  0
  141.4750   79.4151  223.5466 H   0  0  0  0  0  0  0  0  0  0  0  0
  139.6413   80.9684  224.1678 H   0  0  0  0  0  0  0  0  0  0  0  0
  135.5361   79.7783  223.5195 H   0  0  0  0  0  0  0  0  0  0  0  0
  136.3411   77.6062  222.5921 H   0  0  0  0  0  0  0  0  0  0  0  0
  1  2  2  0
  2  3  1  0
  3  4  1  0
  4  5  1  0
  5  6  2  0
  5  7  1  0
  7  8  1  0
  8  9  1  0
  9 10  1  0
  9 11  1  0
 11 12  1  0
 12 13  1  0
 13 14  1  0
 14 15  1  0
 15 16  1  0
 16 17  2  0
 17 18  1  0
 18 19  2  0
 19 20  1  0
 20 21  2  0
  2 22  1  0
 22 23  2  0
 23 24  1  0
 24 25  2  0
 25 26  1  0
 26 27  2  0
 27 28  1  0
 27 29  1  0
 29 30  2  0
 30 31  1  0
 31 32  2  0
 12  7  1  0
 21 16  1  0
 32 22  1  0
 31 25  1  0
  3 33  1  0
  4 34  1  0
  4 35  1  0
  8 36  1  0
  8 37  1  0
  9 38  1  6
 11 39  1  0
 11 40  1  0
 12 41  1  1
 13 42  1  0
 13 43  1  0
 15 44  1  0
 15 45  1  0
 17 46  1  0
 18 47  1  0
 19 48  1  0
 20 49  1  0
 21 50  1  0
 23 51  1  0
 24 52  1  0
 26 53  1  0
 29 54  1  0
 30 55  1  0
M  END
>  <smiles>  (15) 
O=C(NCC(=O)N1C[C@@H](F)C[C@H]1COCc1ccccc1)c1ccc2cc(Cl)ccc2n1

>  <score_type>  (15) 
oracle

>  <origin>  (15) 
autodockgpu

>  <m_score__min__energy>  (15) 
-8.9600000000000009

>  <m_primary>  (15) 
energy

>  <rmsd>  (15) 
8.036201910951206

>  <m_score__min__rmsd>  (15) 
8.036201910951206

>  <meeko>  (15) 
{"free_energy": -7.9, "intermolecular_energy": -10.28, "internal_energy": -1.85, "cluster_size": 1, "cluster_id": 7, "rank_in_cluster": 1}

>  <energy>  (15) 
-7.49

>  <cluster_rmsd>  (15) 
0.89

>  <cluster>  (15) 
2

$$$$

     RDKit          3D

 55 58  0  0  0  0  0  0  0  0999 V2000
  140.3790   74.1640  222.3200 O   0  0  0  0  0  0  0  0  0  0  0  0
  139.9750   73.0110  222.0510 C   0  0  0  0  0  0  0  0  0  0  0  0
  139.5070   72.6100  220.7680 N   0  0  0  0  0  0  0  0  0  0  0  0
  139.4980   73.5990  219.7120 C   0  0  0  0  0  0  0  0  0  0  0  0
  140.6620   73.4210  218.8280 C   0  0  0  0  0  0  0  0  0  0  0  0
  140.7720   72.3660  218.1510 O   0  0  0  0  0  0  0  0  0  0  0  0
  141.6230   74.4640  218.7760 N   0  0  0  0  0  0  0  0  0  0  0  0
  142.0480   75.2850  217.6630 C   0  0  0  0  0  0  0  0  0  0  0  0
  143.4330   75.7480  217.9510 C   0  0  1  0  0  0  0  0  0  0  0  0
  143.4900   77.1070  218.0470 F   0  0  0  0  0  0  0  0  0  0  0  0
  143.7540   75.0600  219.2710 C   0  0  0  0  0  0  0  0  0  0  0  0
  142.4240   74.9280  219.9600 C   0  0  1  0  0  0  0  0  0  0  0  0
  141.7920   76.1940  220.4130 C   0  0  0  0  0  0  0  0  0  0  0  0
  140.4740   76.2470  220.6820 O   0  0  0  0  0  0  0  0  0  0  0  0
  139.8780   77.4140  220.9760 C   0  0  0  0  0  0  0  0  0  0  0  0
  140.8030   78.3330  221.7720 C   0  0  0  0  0  0  0  0  0  0  0  0
  141.0880   78.0730  223.0940 C   0  0  0  0  0  0  0  0  0  0  0  0
  141.9420   78.9670  223.7350 C   0  0  0  0  0  0  0  0  0  0  0  0
  142.4760   80.0630  223.0750 C   0  0  0  0  0  0  0  0  0  0  0  0
  142.1790   80.3100  221.7490 C   0  0  0  0  0  0  0  0  0  0  0  0
  141.3280   79.4250  221.0960 C   0  0  0  0  0  0  0  0  0  0  0  0
  139.9810   71.9940  223.1230 C   0  0  0  0  0  0  0  0  0  0  0  0
  139.4380   70.7460  222.9230 C   0  0  0  0  0  0  0  0  0  0  0  0
  139.4270   69.7690  223.9070 C   0  0  0  0  0  0  0  0  0  0  0  0
  139.9940   70.0900  225.1330 C   0  0  0  0  0  0  0  0  0  0  0  0
  140.0260   69.1650  226.1800 C   0  0  0  0  0  0  0  0  0  0  0  0
  140.6050   69.5320  227.3900 C   0  0  0  0  0  0  0  0  0  0  0  0
  140.6490   68.3820  228.7070 Cl  0  0  0  0  0  0  0  0  0  0  0  0
  141.1510   70.7820  227.5940 C   0  0  0  0  0  0  0  0  0  0  0  0
  141.1110   71.6850  226.5460 C   0  0  0  0  0  0  0  0  0  0  0  0
  140.5350   71.3370  225.3260 C   0  0  0  0  0  0  0  0  0  0  0  0
  140.5160   72.2420  224.3320 N   0  0  0  0  0  0  0  0  0  0  0  0
  139.1780   71.6180  220.6040 H   0  0  0  0  0  0  0  0  0  0  0  0
  138.5758   73.4904  219.1223 H   0  0  0  0  0  0  0  0  0  0  0  0
  139.5442   74.6012  220.1631 H   0  0  0  0  0  0  0  0  0  0  0  0
  142.0348   74.6951  216.7347 H   0  0  0  0  0  0  0  0  0  0  0  0
  141.3718   76.1430  217.5344 H   0  0  0  0  0  0  0  0  0  0  0  0
  144.1548   75.4991  217.1591 H   0  0  0  0  0  0  0  0  0  0  0  0
  144.2006   74.0703  219.0950 H   0  0  0  0  0  0  0  0  0  0  0  0
  144.4818   75.6256  219.8713 H   0  0  0  0  0  0  0  0  0  0  0  0
  142.4955   74.3166  220.8716 H   0  0  0  0  0  0  0  0  0  0  0  0
  142.3129   76.4928  221.3346 H   0  0  0  0  0  0  0  0  0  0  0  0
  141.8884   76.8449  219.5315 H   0  0  0  0  0  0  0  0  0  0  0  0
  139.5954   77.9165  220.0392 H   0  0  0  0  0  0  0  0  0  0  0  0
  138.9911   77.2020  221.5911 H   0  0  0  0  0  0  0  0  0  0  0  0
  140.6628   77.2036  223.6169 H   0  0  0  0  0  0  0  0  0  0  0  0
  142.1993   78.7994  224.7913 H   0  0  0  0  0  0  0  0  0  0  0  0
  143.1468   80.7467  223.6159 H   0  0  0  0  0  0  0  0  0  0  0  0
  142.6025   81.1799  221.2256 H   0  0  0  0  0  0  0  0  0  0  0  0
  141.0701   79.5913  220.0397 H   0  0  0  0  0  0  0  0  0  0  0  0
  138.9948   70.5138  221.9434 H   0  0  0  0  0  0  0  0  0  0  0  0
  138.9861   68.7781  223.7233 H   0  0  0  0  0  0  0  0  0  0  0  0
  139.5988   68.1599  226.0488 H   0  0  0  0  0  0  0  0  0  0  0  0
  141.6040   71.0527  228.5592 H   0  0  0  0  0  0  0  0  0  0  0  0
  141.5391   72.6897  226.6778 H   0  0  0  0  0  0  0  0  0  0  0  0
  1  2  2  0
  2  3  1  0
  3  4  1  0
  4  5  1  0
  5  6  2  0
  5  7  1  0
  7  8  1  0
  8  9  1  0
  9 10  1  0
  9 11  1  0
 11 12  1  0
 12 13  1  0
 13 14  1  0
 14 15  1  0
 15 16  1  0
 16 17  2  0
 17 18  1  0
 18 19  2  0
 19 20  1  0
 20 21  2  0
  2 22  1  0
 22 23  2  0
 23 24  1  0
 24 25  2  0
 25 26  1  0
 26 27  2  0
 27 28  1  0
 27 29  1  0
 29 30  2  0
 30 31  1  0
 31 32  2  0
 12  7  1  0
 21 16  1  0
 32 22  1  0
 31 25  1  0
  3 33  1  0
  4 34  1  0
  4 35  1  0
  8 36  1  0
  8 37  1  0
  9 38  1  6
 11 39  1  0
 11 40  1  0
 12 41  1  1
 13 42  1  0
 13 43  1  0
 15 44  1  0
 15 45  1  0
 17 46  1  0
 18 47  1  0
 19 48  1  0
 20 49  1  0
 21 50  1  0
 23 51  1  0
 24 52  1  0
 26 53  1  0
 29 54  1  0
 30 55  1  0
M  END
>  <smiles>  (16) 
O=C(NCC(=O)N1C[C@@H](F)C[C@H]1COCc1ccccc1)c1ccc2cc(Cl)ccc2n1

>  <score_type>  (16) 
oracle

>  <origin>  (16) 
autodockgpu

>  <m_score__min__energy>  (16) 
-8.9600000000000009

>  <m_primary>  (16) 
energy

>  <rmsd>  (16) 
2.499815521914068

>  <m_score__min__rmsd>  (16) 
2.499815521914068

>  <meeko>  (16) 
{"free_energy": -7.71, "intermolecular_energy": -10.1, "internal_energy": -1.88, "cluster_size": 18, "cluster_id": 3, "rank_in_cluster": 10}

>  <energy>  (16) 
-7.44

>  <cluster_rmsd>  (16) 
1.81

>  <cluster>  (16) 
2

$$$$

     RDKit          3D

 55 58  0  0  0  0  0  0  0  0999 V2000
  142.0600   73.0220  220.7850 O   0  0  0  0  0  0  0  0  0  0  0  0
  141.2450   73.7230  221.4260 C   0  0  0  0  0  0  0  0  0  0  0  0
  140.2200   73.1910  222.2570 N   0  0  0  0  0  0  0  0  0  0  0  0
  140.1160   71.7520  222.3660 C   0  0  0  0  0  0  0  0  0  0  0  0
  138.7650   71.3640  222.8050 C   0  0  0  0  0  0  0  0  0  0  0  0
  137.9130   72.2560  223.0540 O   0  0  0  0  0  0  0  0  0  0  0  0
  138.4780   69.9790  222.9300 N   0  0  0  0  0  0  0  0  0  0  0  0
  139.1820   68.8300  222.4050 C   0  0  0  0  0  0  0  0  0  0  0  0
  138.1960   67.7230  222.2710 C   0  0  1  0  0  0  0  0  0  0  0  0
  138.5300   66.6660  223.0640 F   0  0  0  0  0  0  0  0  0  0  0  0
  136.8900   68.3780  222.6980 C   0  0  0  0  0  0  0  0  0  0  0  0
  137.3030   69.4310  223.6890 C   0  0  1  0  0  0  0  0  0  0  0  0
  137.8420   68.9380  224.9830 C   0  0  0  0  0  0  0  0  0  0  0  0
  138.8900   68.0930  225.0140 O   0  0  0  0  0  0  0  0  0  0  0  0
  139.7030   68.0440  226.0820 C   0  0  0  0  0  0  0  0  0  0  0  0
  140.1720   69.4380  226.4950 C   0  0  0  0  0  0  0  0  0  0  0  0
  139.9690   69.8980  227.7780 C   0  0  0  0  0  0  0  0  0  0  0  0
  140.4310   71.1810  228.0590 C   0  0  0  0  0  0  0  0  0  0  0  0
  141.0630   71.9540  227.0980 C   0  0  0  0  0  0  0  0  0  0  0  0
  141.2580   71.4780  225.8160 C   0  0  0  0  0  0  0  0  0  0  0  0
  140.8010   70.1980  225.5200 C   0  0  0  0  0  0  0  0  0  0  0  0
  141.3440   75.1930  221.3210 C   0  0  0  0  0  0  0  0  0  0  0  0
  142.0810   75.7870  220.3230 C   0  0  0  0  0  0  0  0  0  0  0  0
  142.1940   77.1640  220.1960 C   0  0  0  0  0  0  0  0  0  0  0  0
  141.5260   77.9490  221.1260 C   0  0  0  0  0  0  0  0  0  0  0  0
  141.5860   79.3440  221.0720 C   0  0  0  0  0  0  0  0  0  0  0  0
  140.9010   80.0890  222.0260 C   0  0  0  0  0  0  0  0  0  0  0  0
  140.9690   81.8350  221.9670 Cl  0  0  0  0  0  0  0  0  0  0  0  0
  140.1600   79.4960  223.0270 C   0  0  0  0  0  0  0  0  0  0  0  0
  140.1120   78.1140  223.0660 C   0  0  0  0  0  0  0  0  0  0  0  0
  140.7930   77.3500  222.1190 C   0  0  0  0  0  0  0  0  0  0  0  0
  140.7200   76.0090  222.1900 N   0  0  0  0  0  0  0  0  0  0  0  0
  139.5600   73.8370  222.7740 H   0  0  0  0  0  0  0  0  0  0  0  0
  140.3219   71.2989  221.3850 H   0  0  0  0  0  0  0  0  0  0  0  0
  140.8465   71.3979  223.1083 H   0  0  0  0  0  0  0  0  0  0  0  0
  139.6124   69.0705  221.4217 H   0  0  0  0  0  0  0  0  0  0  0  0
  140.0025   68.5384  223.0771 H   0  0  0  0  0  0  0  0  0  0  0  0
  138.1433   67.2989  221.2574 H   0  0  0  0  0  0  0  0  0  0  0  0
  136.3833   68.8340  221.8347 H   0  0  0  0  0  0  0  0  0  0  0  0
  136.1804   67.6553  223.1271 H   0  0  0  0  0  0  0  0  0  0  0  0
  136.4597   70.0776  223.9733 H   0  0  0  0  0  0  0  0  0  0  0  0
  138.1381   69.8270  225.5592 H   0  0  0  0  0  0  0  0  0  0  0  0
  137.0185   68.3216  225.3727 H   0  0  0  0  0  0  0  0  0  0  0  0
  139.1612   67.5859  226.9226 H   0  0  0  0  0  0  0  0  0  0  0  0
  140.5880   67.4481  225.8142 H   0  0  0  0  0  0  0  0  0  0  0  0
  139.4680   69.2835  228.5405 H   0  0  0  0  0  0  0  0  0  0  0  0
  140.2907   71.5916  229.0698 H   0  0  0  0  0  0  0  0  0  0  0  0
  141.4150   72.9626  227.3603 H   0  0  0  0  0  0  0  0  0  0  0  0
  141.7590   72.0920  225.0531 H   0  0  0  0  0  0  0  0  0  0  0  0
  140.9389   69.7870  224.5090 H   0  0  0  0  0  0  0  0  0  0  0  0
  142.6013   75.1450  219.5970 H   0  0  0  0  0  0  0  0  0  0  0  0
  142.7899   77.6163  219.3895 H   0  0  0  0  0  0  0  0  0  0  0  0
  142.1675   79.8465  220.2851 H   0  0  0  0  0  0  0  0  0  0  0  0
  139.6239   80.1032  223.7712 H   0  0  0  0  0  0  0  0  0  0  0  0
  139.5300   77.6121  223.8530 H   0  0  0  0  0  0  0  0  0  0  0  0
  1  2  2  0
  2  3  1  0
  3  4  1  0
  4  5  1  0
  5  6  2  0
  5  7  1  0
  7  8  1  0
  8  9  1  0
  9 10  1  0
  9 11  1  0
 11 12  1  0
 12 13  1  0
 13 14  1  0
 14 15  1  0
 15 16  1  0
 16 17  2  0
 17 18  1  0
 18 19  2  0
 19 20  1  0
 20 21  2  0
  2 22  1  0
 22 23  2  0
 23 24  1  0
 24 25  2  0
 25 26  1  0
 26 27  2  0
 27 28  1  0
 27 29  1  0
 29 30  2  0
 30 31  1  0
 31 32  2  0
 12  7  1  0
 21 16  1  0
 32 22  1  0
 31 25  1  0
  3 33  1  0
  4 34  1  0
  4 35  1  0
  8 36  1  0
  8 37  1  0
  9 38  1  6
 11 39  1  0
 11 40  1  0
 12 41  1  1
 13 42  1  0
 13 43  1  0
 15 44  1  0
 15 45  1  0
 17 46  1  0
 18 47  1  0
 19 48  1  0
 20 49  1  0
 21 50  1  0
 23 51  1  0
 24 52  1  0
 26 53  1  0
 29 54  1  0
 30 55  1  0
M  END
>  <smiles>  (17) 
O=C(NCC(=O)N1C[C@@H](F)C[C@H]1COCc1ccccc1)c1ccc2cc(Cl)ccc2n1

>  <score_type>  (17) 
oracle

>  <origin>  (17) 
autodockgpu

>  <m_score__min__energy>  (17) 
-8.9600000000000009

>  <m_primary>  (17) 
energy

>  <rmsd>  (17) 
8.347161697125749

>  <m_score__min__rmsd>  (17) 
8.347161697125749

>  <meeko>  (17) 
{"free_energy": -8.47, "intermolecular_energy": -10.85, "internal_energy": -2.39, "cluster_size": 12, "cluster_id": 2, "rank_in_cluster": 2}

>  <energy>  (17) 
-8.35

>  <cluster_rmsd>  (17) 
0.0

>  <cluster>  (17) 
3

$$$$

     RDKit          3D

 55 58  0  0  0  0  0  0  0  0999 V2000
  139.6260   72.0030  220.6630 O   0  0  0  0  0  0  0  0  0  0  0  0
  139.6170   72.4610  221.8270 C   0  0  0  0  0  0  0  0  0  0  0  0
  139.5250   73.8470  222.1370 N   0  0  0  0  0  0  0  0  0  0  0  0
  139.4360   74.7820  221.0360 C   0  0  0  0  0  0  0  0  0  0  0  0
  140.4100   75.8730  221.2050 C   0  0  0  0  0  0  0  0  0  0  0  0
  140.6920   76.2800  222.3620 O   0  0  0  0  0  0  0  0  0  0  0  0
  140.9990   76.4250  220.0380 N   0  0  0  0  0  0  0  0  0  0  0  0
  140.9360   75.9820  218.6620 C   0  0  0  0  0  0  0  0  0  0  0  0
  142.1580   76.4820  217.9740 C   0  0  1  0  0  0  0  0  0  0  0  0
  141.8390   77.3380  216.9620 F   0  0  0  0  0  0  0  0  0  0  0  0
  142.9220   77.1710  219.0960 C   0  0  0  0  0  0  0  0  0  0  0  0
  141.8540   77.6610  220.0340 C   0  0  1  0  0  0  0  0  0  0  0  0
  140.9890   78.7580  219.5260 C   0  0  0  0  0  0  0  0  0  0  0  0
  141.5130   79.9580  219.2140 O   0  0  0  0  0  0  0  0  0  0  0  0
  141.8270   80.8420  220.1760 C   0  0  0  0  0  0  0  0  0  0  0  0
  141.4320   80.3320  221.5600 C   0  0  0  0  0  0  0  0  0  0  0  0
  140.1230   80.3890  221.9850 C   0  0  0  0  0  0  0  0  0  0  0  0
  139.8610   79.9000  223.2620 C   0  0  0  0  0  0  0  0  0  0  0  0
  140.8670   79.3820  224.0640 C   0  0  0  0  0  0  0  0  0  0  0  0
  142.1740   79.3330  223.6220 C   0  0  0  0  0  0  0  0  0  0  0  0
  142.4510   79.8180  222.3490 C   0  0  0  0  0  0  0  0  0  0  0  0
  139.7070   71.5150  222.9580 C   0  0  0  0  0  0  0  0  0  0  0  0
  139.2340   70.2280  222.8490 C   0  0  0  0  0  0  0  0  0  0  0  0
  139.3030   69.3150  223.8900 C   0  0  0  0  0  0  0  0  0  0  0  0
  139.8780   69.7430  225.0790 C   0  0  0  0  0  0  0  0  0  0  0  0
  139.9880   68.8880  226.1790 C   0  0  0  0  0  0  0  0  0  0  0  0
  140.5720   69.3620  227.3490 C   0  0  0  0  0  0  0  0  0  0  0  0
  140.7150   68.2990  228.7310 Cl  0  0  0  0  0  0  0  0  0  0  0  0
  141.0490   70.6510  227.4620 C   0  0  0  0  0  0  0  0  0  0  0  0
  140.9320   71.4840  226.3630 C   0  0  0  0  0  0  0  0  0  0  0  0
  140.3490   71.0280  225.1820 C   0  0  0  0  0  0  0  0  0  0  0  0
  140.2540   71.8670  224.1360 N   0  0  0  0  0  0  0  0  0  0  0  0
  139.5220   74.1730  223.1440 H   0  0  0  0  0  0  0  0  0  0  0  0
  139.6449   74.2531  220.0944 H   0  0  0  0  0  0  0  0  0  0  0  0
  138.4230   75.2101  221.0143 H   0  0  0  0  0  0  0  0  0  0  0  0
  140.9058   74.8831  218.6223 H   0  0  0  0  0  0  0  0  0  0  0  0
  140.0302   76.3684  218.1719 H   0  0  0  0  0  0  0  0  0  0  0  0
  142.7462   75.6897  217.4879 H   0  0  0  0  0  0  0  0  0  0  0  0
  143.5901   76.4605  219.6048 H   0  0  0  0  0  0  0  0  0  0  0  0
  143.5608   77.9870  218.7271 H   0  0  0  0  0  0  0  0  0  0  0  0
  142.2807   78.0585  220.9667 H   0  0  0  0  0  0  0  0  0  0  0  0
  140.5051   78.3796  218.6135 H   0  0  0  0  0  0  0  0  0  0  0  0
  140.3500   78.9871  220.3915 H   0  0  0  0  0  0  0  0  0  0  0  0
  142.9125   81.0190  220.1574 H   0  0  0  0  0  0  0  0  0  0  0  0
  141.2733   81.7724  219.9817 H   0  0  0  0  0  0  0  0  0  0  0  0
  139.3256   80.7998  221.3482 H   0  0  0  0  0  0  0  0  0  0  0  0
  138.8300   79.9251  223.6445 H   0  0  0  0  0  0  0  0  0  0  0  0
  140.6198   79.0046  225.0672 H   0  0  0  0  0  0  0  0  0  0  0  0
  142.9721   78.9225  224.2580 H   0  0  0  0  0  0  0  0  0  0  0  0
  143.4818   79.7942  221.9658 H   0  0  0  0  0  0  0  0  0  0  0  0
  138.7828   69.9103  221.8974 H   0  0  0  0  0  0  0  0  0  0  0  0
  138.9171   68.2910  223.7782 H   0  0  0  0  0  0  0  0  0  0  0  0
  139.6176   67.8539  226.1203 H   0  0  0  0  0  0  0  0  0  0  0  0
  141.5081   71.0060  228.3965 H   0  0  0  0  0  0  0  0  0  0  0  0
  141.3034   72.5177  226.4223 H   0  0  0  0  0  0  0  0  0  0  0  0
  1  2  2  0
  2  3  1  0
  3  4  1  0
  4  5  1  0
  5  6  2  0
  5  7  1  0
  7  8  1  0
  8  9  1  0
  9 10  1  0
  9 11  1  0
 11 12  1  0
 12 13  1  0
 13 14  1  0
 14 15  1  0
 15 16  1  0
 16 17  2  0
 17 18  1  0
 18 19  2  0
 19 20  1  0
 20 21  2  0
  2 22  1  0
 22 23  2  0
 23 24  1  0
 24 25  2  0
 25 26  1  0
 26 27  2  0
 27 28  1  0
 27 29  1  0
 29 30  2  0
 30 31  1  0
 31 32  2  0
 12  7  1  0
 21 16  1  0
 32 22  1  0
 31 25  1  0
  3 33  1  0
  4 34  1  0
  4 35  1  0
  8 36  1  0
  8 37  1  0
  9 38  1  6
 11 39  1  0
 11 40  1  0
 12 41  1  1
 13 42  1  0
 13 43  1  0
 15 44  1  0
 15 45  1  0
 17 46  1  0
 18 47  1  0
 19 48  1  0
 20 49  1  0
 21 50  1  0
 23 51  1  0
 24 52  1  0
 26 53  1  0
 29 54  1  0
 30 55  1  0
M  END
>  <smiles>  (18) 
O=C(NCC(=O)N1C[C@@H](F)C[C@H]1COCc1ccccc1)c1ccc2cc(Cl)ccc2n1

>  <score_type>  (18) 
oracle

>  <origin>  (18) 
autodockgpu

>  <m_score__min__energy>  (18) 
-8.9600000000000009

>  <m_primary>  (18) 
energy

>  <rmsd>  (18) 
1.5883132632080275

>  <m_score__min__rmsd>  (18) 
1.5883132632080275

>  <meeko>  (18) 
{"free_energy": -8.14, "intermolecular_energy": -10.53, "internal_energy": -2.04, "cluster_size": 18, "cluster_id": 3, "rank_in_cluster": 4}

>  <energy>  (18) 
-8.31

>  <cluster_rmsd>  (18) 
1.16

>  <cluster>  (18) 
3

$$$$

     RDKit          3D

 55 58  0  0  0  0  0  0  0  0999 V2000
  132.2500   70.0730  225.0690 O   0  0  0  0  0  0  0  0  0  0  0  0
  133.0860   70.6260  225.8180 C   0  0  0  0  0  0  0  0  0  0  0  0
  134.3400   70.0540  226.1710 N   0  0  0  0  0  0  0  0  0  0  0  0
  134.6660   68.7520  225.6290 C   0  0  0  0  0  0  0  0  0  0  0  0
  135.2540   68.8850  224.2860 C   0  0  0  0  0  0  0  0  0  0  0  0
  134.6190   68.4640  223.2850 O   0  0  0  0  0  0  0  0  0  0  0  0
  136.5320   69.4950  224.1770 N   0  0  0  0  0  0  0  0  0  0  0  0
  136.9070   70.8910  224.2370 C   0  0  0  0  0  0  0  0  0  0  0  0
  138.1760   71.0460  223.4740 C   0  0  1  0  0  0  0  0  0  0  0  0
  139.1860   71.4810  224.2810 F   0  0  0  0  0  0  0  0  0  0  0  0
  138.4250   69.6430  222.9390 C   0  0  0  0  0  0  0  0  0  0  0  0
  137.8100   68.7330  223.9660 C   0  0  1  0  0  0  0  0  0  0  0  0
  138.4840   68.6870  225.2890 C   0  0  0  0  0  0  0  0  0  0  0  0
  139.2820   67.6540  225.6180 O   0  0  0  0  0  0  0  0  0  0  0  0
  140.2950   67.8170  226.4860 C   0  0  0  0  0  0  0  0  0  0  0  0
  140.5360   69.2920  226.7990 C   0  0  0  0  0  0  0  0  0  0  0  0
  141.2900   70.0780  225.9560 C   0  0  0  0  0  0  0  0  0  0  0  0
  141.4530   71.4100  226.3270 C   0  0  0  0  0  0  0  0  0  0  0  0
  140.8850   71.9180  227.4850 C   0  0  0  0  0  0  0  0  0  0  0  0
  140.1320   71.1160  228.3200 C   0  0  0  0  0  0  0  0  0  0  0  0
  139.9610   69.7830  227.9620 C   0  0  0  0  0  0  0  0  0  0  0  0
  132.7620   71.9550  226.3760 C   0  0  0  0  0  0  0  0  0  0  0  0
  131.6690   72.1370  227.1920 C   0  0  0  0  0  0  0  0  0  0  0  0
  131.3370   73.3710  227.7330 C   0  0  0  0  0  0  0  0  0  0  0  0
  132.1580   74.4470  227.4210 C   0  0  0  0  0  0  0  0  0  0  0  0
  131.8960   75.7250  227.9230 C   0  0  0  0  0  0  0  0  0  0  0  0
  132.7460   76.7720  227.5840 C   0  0  0  0  0  0  0  0  0  0  0  0
  132.4280   78.3750  228.2070 Cl  0  0  0  0  0  0  0  0  0  0  0  0
  133.8430   76.5930  226.7670 C   0  0  0  0  0  0  0  0  0  0  0  0
  134.0870   75.3210  226.2800 C   0  0  0  0  0  0  0  0  0  0  0  0
  133.2460   74.2580  226.6070 C   0  0  0  0  0  0  0  0  0  0  0  0
  133.5170   73.0370  226.1140 N   0  0  0  0  0  0  0  0  0  0  0  0
  135.0050   70.5720  226.8110 H   0  0  0  0  0  0  0  0  0  0  0  0
  135.3883   68.2541  226.2927 H   0  0  0  0  0  0  0  0  0  0  0  0
  133.7443   68.1560  225.5563 H   0  0  0  0  0  0  0  0  0  0  0  0
  136.1189   71.5114  223.7854 H   0  0  0  0  0  0  0  0  0  0  0  0
  137.0404   71.2121  225.2806 H   0  0  0  0  0  0  0  0  0  0  0  0
  138.1210   71.7982  222.6733 H   0  0  0  0  0  0  0  0  0  0  0  0
  137.9406   69.5084  221.9606 H   0  0  0  0  0  0  0  0  0  0  0  0
  139.4948   69.4378  222.7858 H   0  0  0  0  0  0  0  0  0  0  0  0
  137.7981   67.6860  223.6290 H   0  0  0  0  0  0  0  0  0  0  0  0
  139.1006   69.5952  225.3593 H   0  0  0  0  0  0  0  0  0  0  0  0
  137.6426   68.5797  225.9893 H   0  0  0  0  0  0  0  0  0  0  0  0
  140.0530   67.2889  227.4201 H   0  0  0  0  0  0  0  0  0  0  0  0
  141.2085   67.4088  226.0289 H   0  0  0  0  0  0  0  0  0  0  0  0
  141.7401   69.6742  225.0371 H   0  0  0  0  0  0  0  0  0  0  0  0
  142.0477   72.0763  225.6848 H   0  0  0  0  0  0  0  0  0  0  0  0
  141.0364   72.9766  227.7429 H   0  0  0  0  0  0  0  0  0  0  0  0
  139.6817   71.5188  229.2392 H   0  0  0  0  0  0  0  0  0  0  0  0
  139.3674   69.1153  228.6037 H   0  0  0  0  0  0  0  0  0  0  0  0
  131.0333   71.2700  227.4247 H   0  0  0  0  0  0  0  0  0  0  0  0
  130.4582   73.4923  228.3834 H   0  0  0  0  0  0  0  0  0  0  0  0
  131.0292   75.9001  228.5773 H   0  0  0  0  0  0  0  0  0  0  0  0
  134.5030   77.4349  226.5107 H   0  0  0  0  0  0  0  0  0  0  0  0
  134.9549   75.1463  225.6271 H   0  0  0  0  0  0  0  0  0  0  0  0
  1  2  2  0
  2  3  1  0
  3  4  1  0
  4  5  1  0
  5  6  2  0
  5  7  1  0
  7  8  1  0
  8  9  1  0
  9 10  1  0
  9 11  1  0
 11 12  1  0
 12 13  1  0
 13 14  1  0
 14 15  1  0
 15 16  1  0
 16 17  2  0
 17 18  1  0
 18 19  2  0
 19 20  1  0
 20 21  2  0
  2 22  1  0
 22 23  2  0
 23 24  1  0
 24 25  2  0
 25 26  1  0
 26 27  2  0
 27 28  1  0
 27 29  1  0
 29 30  2  0
 30 31  1  0
 31 32  2  0
 12  7  1  0
 21 16  1  0
 32 22  1  0
 31 25  1  0
  3 33  1  0
  4 34  1  0
  4 35  1  0
  8 36  1  0
  8 37  1  0
  9 38  1  6
 11 39  1  0
 11 40  1  0
 12 41  1  6
 13 42  1  0
 13 43  1  0
 15 44  1  0
 15 45  1  0
 17 46  1  0
 18 47  1  0
 19 48  1  0
 20 49  1  0
 21 50  1  0
 23 51  1  0
 24 52  1  0
 26 53  1  0
 29 54  1  0
 30 55  1  0
M  END
>  <smiles>  (19) 
O=C(NCC(=O)N1C[C@@H](F)C[C@H]1COCc1ccccc1)c1ccc2cc(Cl)ccc2n1

>  <score_type>  (19) 
oracle

>  <origin>  (19) 
autodockgpu

>  <m_score__min__energy>  (19) 
-8.9600000000000009

>  <m_primary>  (19) 
energy

>  <rmsd>  (19) 
8.705519433386678

>  <m_score__min__rmsd>  (19) 
8.705519433386678

>  <meeko>  (19) 
{"free_energy": -8.43, "intermolecular_energy": -10.82, "internal_energy": -1.8, "cluster_size": 4, "cluster_id": 1, "rank_in_cluster": 3}

>  <energy>  (19) 
-8.17

>  <cluster_rmsd>  (19) 
1.17

>  <cluster>  (19) 
3

$$$$

     RDKit          3D

 55 58  0  0  0  0  0  0  0  0999 V2000
  138.9220   71.4280  220.9230 O   0  0  0  0  0  0  0  0  0  0  0  0
  139.2120   71.9410  222.0270 C   0  0  0  0  0  0  0  0  0  0  0  0
  139.3460   73.3410  222.2440 N   0  0  0  0  0  0  0  0  0  0  0  0
  139.1340   74.2240  221.1170 C   0  0  0  0  0  0  0  0  0  0  0  0
  140.0880   75.3450  221.1530 C   0  0  0  0  0  0  0  0  0  0  0  0
  140.1220   76.0990  222.1590 O   0  0  0  0  0  0  0  0  0  0  0  0
  140.9420   75.5280  220.0340 N   0  0  0  0  0  0  0  0  0  0  0  0
  140.7320   75.2110  218.6380 C   0  0  0  0  0  0  0  0  0  0  0  0
  142.0700   75.0080  218.0190 C   0  0  1  0  0  0  0  0  0  0  0  0
  142.3020   75.9230  217.0350 F   0  0  0  0  0  0  0  0  0  0  0  0
  143.0190   75.1710  219.1980 C   0  0  0  0  0  0  0  0  0  0  0  0
  142.3160   76.1320  220.1170 C   0  0  1  0  0  0  0  0  0  0  0  0
  142.1820   77.5290  219.6280 C   0  0  0  0  0  0  0  0  0  0  0  0
  141.0040   78.1760  219.7110 O   0  0  0  0  0  0  0  0  0  0  0  0
  140.9550   79.4680  220.0750 C   0  0  0  0  0  0  0  0  0  0  0  0
  141.4490   79.6690  221.5050 C   0  0  0  0  0  0  0  0  0  0  0  0
  142.1920   80.7780  221.8460 C   0  0  0  0  0  0  0  0  0  0  0  0
  142.5970   80.8730  223.1750 C   0  0  0  0  0  0  0  0  0  0  0  0
  142.2690   79.9000  224.1070 C   0  0  0  0  0  0  0  0  0  0  0  0
  141.5230   78.7940  223.7490 C   0  0  0  0  0  0  0  0  0  0  0  0
  141.1120   78.6860  222.4250 C   0  0  0  0  0  0  0  0  0  0  0  0
  139.4300   71.0490  223.1840 C   0  0  0  0  0  0  0  0  0  0  0  0
  139.0400   69.7300  223.1480 C   0  0  0  0  0  0  0  0  0  0  0  0
  139.2290   68.8650  224.2160 C   0  0  0  0  0  0  0  0  0  0  0  0
  139.8400   69.3770  225.3530 C   0  0  0  0  0  0  0  0  0  0  0  0
  140.0700   68.5760  226.4740 C   0  0  0  0  0  0  0  0  0  0  0  0
  140.6850   69.1330  227.5910 C   0  0  0  0  0  0  0  0  0  0  0  0
  140.9770   68.1380  228.9990 Cl  0  0  0  0  0  0  0  0  0  0  0  0
  141.0780   70.4550  227.6290 C   0  0  0  0  0  0  0  0  0  0  0  0
  140.8430   71.2340  226.5100 C   0  0  0  0  0  0  0  0  0  0  0  0
  140.2270   70.6940  225.3820 C   0  0  0  0  0  0  0  0  0  0  0  0
  140.0160   71.4830  224.3140 N   0  0  0  0  0  0  0  0  0  0  0  0
  139.5940   73.7140  223.2030 H   0  0  0  0  0  0  0  0  0  0  0  0
  139.2742   73.6593  220.1835 H   0  0  0  0  0  0  0  0  0  0  0  0
  138.1112   74.6258  221.1675 H   0  0  0  0  0  0  0  0  0  0  0  0
  140.1331   74.2928  218.5474 H   0  0  0  0  0  0  0  0  0  0  0  0
  140.1911   76.0249  218.1331 H   0  0  0  0  0  0  0  0  0  0  0  0
  142.1824   74.0343  217.5198 H   0  0  0  0  0  0  0  0  0  0  0  0
  143.1864   74.2060  219.6987 H   0  0  0  0  0  0  0  0  0  0  0  0
  144.0100   75.5357  218.8900 H   0  0  0  0  0  0  0  0  0  0  0  0
  142.8361   76.2296  221.0813 H   0  0  0  0  0  0  0  0  0  0  0  0
  142.9111   78.1303  220.1909 H   0  0  0  0  0  0  0  0  0  0  0  0
  142.3285   77.4242  218.5428 H   0  0  0  0  0  0  0  0  0  0  0  0
  141.5878   80.0550  219.3931 H   0  0  0  0  0  0  0  0  0  0  0  0
  139.9076   79.8000  220.0234 H   0  0  0  0  0  0  0  0  0  0  0  0
  142.4521   81.5492  221.1060 H   0  0  0  0  0  0  0  0  0  0  0  0
  143.1920   81.7417  223.4935 H   0  0  0  0  0  0  0  0  0  0  0  0
  142.6082   80.0107  225.1475 H   0  0  0  0  0  0  0  0  0  0  0  0
  141.2621   78.0225  224.4884 H   0  0  0  0  0  0  0  0  0  0  0  0
  140.5172   77.8177  222.1054 H   0  0  0  0  0  0  0  0  0  0  0  0
  138.5592   69.3461  222.2361 H   0  0  0  0  0  0  0  0  0  0  0  0
  138.9074   67.8144  224.1642 H   0  0  0  0  0  0  0  0  0  0  0  0
  139.7687   67.5181  226.4738 H   0  0  0  0  0  0  0  0  0  0  0  0
  141.5633   70.8767  228.5216 H   0  0  0  0  0  0  0  0  0  0  0  0
  141.1457   72.2915  226.5104 H   0  0  0  0  0  0  0  0  0  0  0  0
  1  2  2  0
  2  3  1  0
  3  4  1  0
  4  5  1  0
  5  6  2  0
  5  7  1  0
  7  8  1  0
  8  9  1  0
  9 10  1  0
  9 11  1  0
 11 12  1  0
 12 13  1  0
 13 14  1  0
 14 15  1  0
 15 16  1  0
 16 17  2  0
 17 18  1  0
 18 19  2  0
 19 20  1  0
 20 21  2  0
  2 22  1  0
 22 23  2  0
 23 24  1  0
 24 25  2  0
 25 26  1  0
 26 27  2  0
 27 28  1  0
 27 29  1  0
 29 30  2  0
 30 31  1  0
 31 32  2  0
 12  7  1  0
 21 16  1  0
 32 22  1  0
 31 25  1  0
  3 33  1  0
  4 34  1  0
  4 35  1  0
  8 36  1  0
  8 37  1  0
  9 38  1  6
 11 39  1  0
 11 40  1  0
 12 41  1  1
 13 42  1  0
 13 43  1  0
 15 44  1  0
 15 45  1  0
 17 46  1  0
 18 47  1  0
 19 48  1  0
 20 49  1  0
 21 50  1  0
 23 51  1  0
 24 52  1  0
 26 53  1  0
 29 54  1  0
 30 55  1  0
M  END
>  <smiles>  (20) 
O=C(NCC(=O)N1C[C@@H](F)C[C@H]1COCc1ccccc1)c1ccc2cc(Cl)ccc2n1

>  <score_type>  (20) 
oracle

>  <origin>  (20) 
autodockgpu

>  <m_score__min__energy>  (20) 
-8.9600000000000009

>  <m_primary>  (20) 
energy

>  <rmsd>  (20) 
1.5373214363261647

>  <m_score__min__rmsd>  (20) 
1.5373214363261647

>  <meeko>  (20) 
{"free_energy": -8.17, "intermolecular_energy": -10.55, "internal_energy": -2.0, "cluster_size": 18, "cluster_id": 3, "rank_in_cluster": 3}

>  <energy>  (20) 
-8.14

>  <cluster_rmsd>  (20) 
1.01

>  <cluster>  (20) 
3

$$$$

     RDKit          3D

 55 58  0  0  0  0  0  0  0  0999 V2000
  133.9920   70.2570  226.1040 O   0  0  0  0  0  0  0  0  0  0  0  0
  134.3010   71.4210  225.7670 C   0  0  0  0  0  0  0  0  0  0  0  0
  135.3500   71.7350  224.8580 N   0  0  0  0  0  0  0  0  0  0  0  0
  136.1020   70.6380  224.2880 C   0  0  0  0  0  0  0  0  0  0  0  0
  137.0820   71.1370  223.3100 C   0  0  0  0  0  0  0  0  0  0  0  0
  137.1670   72.3740  223.0910 O   0  0  0  0  0  0  0  0  0  0  0  0
  137.9040   70.1880  222.6470 N   0  0  0  0  0  0  0  0  0  0  0  0
  139.1310   70.3740  221.9040 C   0  0  0  0  0  0  0  0  0  0  0  0
  139.2400   69.2530  220.9310 C   0  0  1  0  0  0  0  0  0  0  0  0
  140.3460   68.4930  221.1760 F   0  0  0  0  0  0  0  0  0  0  0  0
  137.9470   68.4820  221.1550 C   0  0  0  0  0  0  0  0  0  0  0  0
  137.6150   68.7140  222.6030 C   0  0  1  0  0  0  0  0  0  0  0  0
  138.5280   68.0860  223.5930 C   0  0  0  0  0  0  0  0  0  0  0  0
  138.4490   68.4050  224.8990 O   0  0  0  0  0  0  0  0  0  0  0  0
  139.5020   68.2260  225.7150 C   0  0  0  0  0  0  0  0  0  0  0  0
  140.0450   69.5570  226.2310 C   0  0  0  0  0  0  0  0  0  0  0  0
  140.5940   70.4780  225.3670 C   0  0  0  0  0  0  0  0  0  0  0  0
  141.0620   71.6610  225.9320 C   0  0  0  0  0  0  0  0  0  0  0  0
  140.9790   71.8990  227.2960 C   0  0  0  0  0  0  0  0  0  0  0  0
  140.4270   70.9640  228.1490 C   0  0  0  0  0  0  0  0  0  0  0  0
  139.9550   69.7780  227.5980 C   0  0  0  0  0  0  0  0  0  0  0  0
  133.5390   72.5480  226.3430 C   0  0  0  0  0  0  0  0  0  0  0  0
  132.3500   72.3390  227.0030 C   0  0  0  0  0  0  0  0  0  0  0  0
  131.6100   73.3740  227.5560 C   0  0  0  0  0  0  0  0  0  0  0  0
  132.1130   74.6620  227.4230 C   0  0  0  0  0  0  0  0  0  0  0  0
  131.4310   75.7620  227.9500 C   0  0  0  0  0  0  0  0  0  0  0  0
  131.9740   77.0330  227.7920 C   0  0  0  0  0  0  0  0  0  0  0  0
  131.1290   78.4170  228.4470 Cl  0  0  0  0  0  0  0  0  0  0  0  0
  133.1660   77.2460  227.1310 C   0  0  0  0  0  0  0  0  0  0  0  0
  133.8270   76.1450  226.6170 C   0  0  0  0  0  0  0  0  0  0  0  0
  133.3000   74.8630  226.7640 C   0  0  0  0  0  0  0  0  0  0  0  0
  133.9720   73.8180  226.2500 N   0  0  0  0  0  0  0  0  0  0  0  0
  135.5640   72.7420  224.6130 H   0  0  0  0  0  0  0  0  0  0  0  0
  136.6318   70.1061  225.0920 H   0  0  0  0  0  0  0  0  0  0  0  0
  135.4053   69.9570  223.7772 H   0  0  0  0  0  0  0  0  0  0  0  0
  139.1038   71.3345  221.3686 H   0  0  0  0  0  0  0  0  0  0  0  0
  139.9968   70.3833  222.5825 H   0  0  0  0  0  0  0  0  0  0  0  0
  139.3591   69.5832  219.8885 H   0  0  0  0  0  0  0  0  0  0  0  0
  137.1470   68.8680  220.5062 H   0  0  0  0  0  0  0  0  0  0  0  0
  138.0511   67.4133  220.9162 H   0  0  0  0  0  0  0  0  0  0  0  0
  136.6201   68.3228  222.8620 H   0  0  0  0  0  0  0  0  0  0  0  0
  138.3671   67.0000  223.5244 H   0  0  0  0  0  0  0  0  0  0  0  0
  139.5132   68.4801  223.3031 H   0  0  0  0  0  0  0  0  0  0  0  0
  139.1892   67.6115  226.5721 H   0  0  0  0  0  0  0  0  0  0  0  0
  140.2990   67.7269  225.1443 H   0  0  0  0  0  0  0  0  0  0  0  0
  140.6594   70.2885  224.2854 H   0  0  0  0  0  0  0  0  0  0  0  0
  141.5089   72.4263  225.2804 H   0  0  0  0  0  0  0  0  0  0  0  0
  141.3588   72.8472  227.7044 H   0  0  0  0  0  0  0  0  0  0  0  0
  140.3627   71.1517  229.2310 H   0  0  0  0  0  0  0  0  0  0  0  0
  139.5083   69.0116  228.2484 H   0  0  0  0  0  0  0  0  0  0  0  0
  131.9711   71.3105  227.0959 H   0  0  0  0  0  0  0  0  0  0  0  0
  130.6617   73.1822  228.0795 H   0  0  0  0  0  0  0  0  0  0  0  0
  130.4782   75.6248  228.4823 H   0  0  0  0  0  0  0  0  0  0  0  0
  133.5778   78.2595  227.0163 H   0  0  0  0  0  0  0  0  0  0  0  0
  134.7803   76.2828  226.0857 H   0  0  0  0  0  0  0  0  0  0  0  0
  1  2  2  0
  2  3  1  0
  3  4  1  0
  4  5  1  0
  5  6  2  0
  5  7  1  0
  7  8  1  0
  8  9  1  0
  9 10  1  0
  9 11  1  0
 11 12  1  0
 12 13  1  0
 13 14  1  0
 14 15  1  0
 15 16  1  0
 16 17  2  0
 17 18  1  0
 18 19  2  0
 19 20  1  0
 20 21  2  0
  2 22  1  0
 22 23  2  0
 23 24  1  0
 24 25  2  0
 25 26  1  0
 26 27  2  0
 27 28  1  0
 27 29  1  0
 29 30  2  0
 30 31  1  0
 31 32  2  0
 12  7  1  0
 21 16  1  0
 32 22  1  0
 31 25  1  0
  3 33  1  0
  4 34  1  0
  4 35  1  0
  8 36  1  0
  8 37  1  0
  9 38  1  6
 11 39  1  0
 11 40  1  0
 12 41  1  1
 13 42  1  0
 13 43  1  0
 15 44  1  0
 15 45  1  0
 17 46  1  0
 18 47  1  0
 19 48  1  0
 20 49  1  0
 21 50  1  0
 23 51  1  0
 24 52  1  0
 26 53  1  0
 29 54  1  0
 30 55  1  0
M  END
>  <smiles>  (21) 
O=C(NCC(=O)N1C[C@@H](F)C[C@H]1COCc1ccccc1)c1ccc2cc(Cl)ccc2n1

>  <score_type>  (21) 
oracle

>  <origin>  (21) 
autodockgpu

>  <m_score__min__energy>  (21) 
-8.9600000000000009

>  <m_primary>  (21) 
energy

>  <rmsd>  (21) 
8.205706975109543

>  <m_score__min__rmsd>  (21) 
8.205706975109543

>  <meeko>  (21) 
{"free_energy": -7.8, "intermolecular_energy": -10.18, "internal_energy": -2.56, "cluster_size": 4, "cluster_id": 1, "rank_in_cluster": 4}

>  <energy>  (21) 
-8.0

>  <cluster_rmsd>  (21) 
1.21

>  <cluster>  (21) 
3

$$$$

     RDKit          3D

 55 58  0  0  0  0  0  0  0  0999 V2000
  138.7430   71.8320  220.8910 O   0  0  0  0  0  0  0  0  0  0  0  0
  139.0910   72.2870  222.0030 C   0  0  0  0  0  0  0  0  0  0  0  0
  139.2500   73.6730  222.2820 N   0  0  0  0  0  0  0  0  0  0  0  0
  138.9920   74.6120  221.2110 C   0  0  0  0  0  0  0  0  0  0  0  0
  139.2490   75.9900  221.6610 C   0  0  0  0  0  0  0  0  0  0  0  0
  140.1060   76.2020  222.5580 O   0  0  0  0  0  0  0  0  0  0  0  0
  138.5080   77.0380  221.0520 N   0  0  0  0  0  0  0  0  0  0  0  0
  137.3950   76.9780  220.1320 C   0  0  0  0  0  0  0  0  0  0  0  0
  137.3990   78.2410  219.3430 C   0  0  1  0  0  0  0  0  0  0  0  0
  136.2580   78.9580  219.5540 F   0  0  0  0  0  0  0  0  0  0  0  0
  138.6380   78.9600  219.8570 C   0  0  0  0  0  0  0  0  0  0  0  0
  138.7770   78.4980  221.2820 C   0  0  1  0  0  0  0  0  0  0  0  0
  137.7300   78.9660  222.2270 C   0  0  0  0  0  0  0  0  0  0  0  0
  138.0500   79.3220  223.4860 O   0  0  0  0  0  0  0  0  0  0  0  0
  138.7470   80.4450  223.7260 C   0  0  0  0  0  0  0  0  0  0  0  0
  140.2400   80.2460  223.4710 C   0  0  0  0  0  0  0  0  0  0  0  0
  140.9970   81.2450  222.8990 C   0  0  0  0  0  0  0  0  0  0  0  0
  142.3480   80.9700  222.7070 C   0  0  0  0  0  0  0  0  0  0  0  0
  142.9020   79.7520  223.0710 C   0  0  0  0  0  0  0  0  0  0  0  0
  142.1280   78.7600  223.6420 C   0  0  0  0  0  0  0  0  0  0  0  0
  140.7770   79.0220  223.8400 C   0  0  0  0  0  0  0  0  0  0  0  0
  139.3550   71.3360  223.1030 C   0  0  0  0  0  0  0  0  0  0  0  0
  139.0130   70.0080  222.9930 C   0  0  0  0  0  0  0  0  0  0  0  0
  139.2470   69.0890  224.0050 C   0  0  0  0  0  0  0  0  0  0  0  0
  139.8520   69.5560  225.1650 C   0  0  0  0  0  0  0  0  0  0  0  0
  140.1250   68.6980  226.2340 C   0  0  0  0  0  0  0  0  0  0  0  0
  140.7320   69.2110  227.3750 C   0  0  0  0  0  0  0  0  0  0  0  0
  141.0770   68.1460  228.7190 Cl  0  0  0  0  0  0  0  0  0  0  0  0
  141.0770   70.5420  227.4880 C   0  0  0  0  0  0  0  0  0  0  0  0
  140.8000   71.3760  226.4200 C   0  0  0  0  0  0  0  0  0  0  0  0
  140.1910   70.8820  225.2670 C   0  0  0  0  0  0  0  0  0  0  0  0
  139.9390   71.7240  224.2510 N   0  0  0  0  0  0  0  0  0  0  0  0
  139.5470   73.9960  223.2450 H   0  0  0  0  0  0  0  0  0  0  0  0
  139.6496   74.3804  220.3601 H   0  0  0  0  0  0  0  0  0  0  0  0
  137.9376   74.5269  220.9093 H   0  0  0  0  0  0  0  0  0  0  0  0
  137.5092   76.1147  219.4599 H   0  0  0  0  0  0  0  0  0  0  0  0
  136.4466   76.8646  220.6776 H   0  0  0  0  0  0  0  0  0  0  0  0
  137.4257   78.0814  218.2550 H   0  0  0  0  0  0  0  0  0  0  0  0
  139.5235   78.6779  219.2686 H   0  0  0  0  0  0  0  0  0  0  0  0
  138.5500   80.0537  219.7783 H   0  0  0  0  0  0  0  0  0  0  0  0
  139.7220   78.8367  221.7316 H   0  0  0  0  0  0  0  0  0  0  0  0
  137.2573   79.8440  221.7627 H   0  0  0  0  0  0  0  0  0  0  0  0
  137.1138   78.0670  222.3753 H   0  0  0  0  0  0  0  0  0  0  0  0
  138.3756   81.2433  223.0667 H   0  0  0  0  0  0  0  0  0  0  0  0
  138.6117   80.7142  224.7839 H   0  0  0  0  0  0  0  0  0  0  0  0
  140.5564   82.2103  222.6090 H   0  0  0  0  0  0  0  0  0  0  0  0
  142.9925   81.7384  222.2551 H   0  0  0  0  0  0  0  0  0  0  0  0
  143.9741   79.5728  222.9026 H   0  0  0  0  0  0  0  0  0  0  0  0
  142.5668   77.7935  223.9308 H   0  0  0  0  0  0  0  0  0  0  0  0
  140.1310   78.2546  224.2915 H   0  0  0  0  0  0  0  0  0  0  0  0
  138.5348   69.6611  222.0651 H   0  0  0  0  0  0  0  0  0  0  0  0
  138.9646   68.0317  223.8935 H   0  0  0  0  0  0  0  0  0  0  0  0
  139.8632   67.6313  226.1735 H   0  0  0  0  0  0  0  0  0  0  0  0
  141.5574   70.9279  228.3992 H   0  0  0  0  0  0  0  0  0  0  0  0
  141.0634   72.4423  226.4809 H   0  0  0  0  0  0  0  0  0  0  0  0
  1  2  2  0
  2  3  1  0
  3  4  1  0
  4  5  1  0
  5  6  2  0
  5  7  1  0
  7  8  1  0
  8  9  1  0
  9 10  1  0
  9 11  1  0
 11 12  1  0
 12 13  1  0
 13 14  1  0
 14 15  1  0
 15 16  1  0
 16 17  2  0
 17 18  1  0
 18 19  2  0
 19 20  1  0
 20 21  2  0
  2 22  1  0
 22 23  2  0
 23 24  1  0
 24 25  2  0
 25 26  1  0
 26 27  2  0
 27 28  1  0
 27 29  1  0
 29 30  2  0
 30 31  1  0
 31 32  2  0
 12  7  1  0
 21 16  1  0
 32 22  1  0
 31 25  1  0
  3 33  1  0
  4 34  1  0
  4 35  1  0
  8 36  1  0
  8 37  1  0
  9 38  1  6
 11 39  1  0
 11 40  1  0
 12 41  1  1
 13 42  1  0
 13 43  1  0
 15 44  1  0
 15 45  1  0
 17 46  1  0
 18 47  1  0
 19 48  1  0
 20 49  1  0
 21 50  1  0
 23 51  1  0
 24 52  1  0
 26 53  1  0
 29 54  1  0
 30 55  1  0
M  END
>  <smiles>  (22) 
O=C(NCC(=O)N1C[C@@H](F)C[C@H]1COCc1ccccc1)c1ccc2cc(Cl)ccc2n1

>  <score_type>  (22) 
oracle

>  <origin>  (22) 
autodockgpu

>  <m_score__min__energy>  (22) 
-8.9600000000000009

>  <m_primary>  (22) 
energy

>  <rmsd>  (22) 
2.064787343415445

>  <m_score__min__rmsd>  (22) 
2.064787343415445

>  <meeko>  (22) 
{"free_energy": -7.99, "intermolecular_energy": -10.38, "internal_energy": -2.25, "cluster_size": 3, "cluster_id": 6, "rank_in_cluster": 1}

>  <energy>  (22) 
-7.92

>  <cluster_rmsd>  (22) 
1.48

>  <cluster>  (22) 
3

$$$$

     RDKit          3D

 55 58  0  0  0  0  0  0  0  0999 V2000
  138.0440   71.4740  220.7040 O   0  0  0  0  0  0  0  0  0  0  0  0
  138.4820   72.0430  221.7290 C   0  0  0  0  0  0  0  0  0  0  0  0
  138.6500   73.4510  221.8480 N   0  0  0  0  0  0  0  0  0  0  0  0
  138.2930   74.2730  220.7120 C   0  0  0  0  0  0  0  0  0  0  0  0
  139.2840   74.1220  219.6340 C   0  0  0  0  0  0  0  0  0  0  0  0
  138.9870   73.4610  218.6050 O   0  0  0  0  0  0  0  0  0  0  0  0
  140.5500   74.7420  219.8030 N   0  0  0  0  0  0  0  0  0  0  0  0
  141.1720   75.8110  219.0540 C   0  0  0  0  0  0  0  0  0  0  0  0
  142.6460   75.6630  219.2010 C   0  0  1  0  0  0  0  0  0  0  0  0
  143.1910   76.7470  219.8230 F   0  0  0  0  0  0  0  0  0  0  0  0
  142.7790   74.3930  220.0300 C   0  0  0  0  0  0  0  0  0  0  0  0
  141.5340   74.3620  220.8730 C   0  0  1  0  0  0  0  0  0  0  0  0
  141.4260   75.4090  221.9220 C   0  0  0  0  0  0  0  0  0  0  0  0
  140.2380   75.6970  222.4860 O   0  0  0  0  0  0  0  0  0  0  0  0
  139.6430   76.8820  222.2680 C   0  0  0  0  0  0  0  0  0  0  0  0
  140.6550   78.0260  222.2640 C   0  0  0  0  0  0  0  0  0  0  0  0
  140.9240   78.7250  221.1080 C   0  0  0  0  0  0  0  0  0  0  0  0
  141.8610   79.7510  221.2040 C   0  0  0  0  0  0  0  0  0  0  0  0
  142.4900   80.0530  222.4030 C   0  0  0  0  0  0  0  0  0  0  0  0
  142.2090   79.3410  223.5530 C   0  0  0  0  0  0  0  0  0  0  0  0
  141.2750   78.3140  223.4710 C   0  0  0  0  0  0  0  0  0  0  0  0
  138.8490   71.2120  222.8940 C   0  0  0  0  0  0  0  0  0  0  0  0
  138.4530   69.8980  222.9840 C   0  0  0  0  0  0  0  0  0  0  0  0
  138.7810   69.0900  224.0630 C   0  0  0  0  0  0  0  0  0  0  0  0
  139.5400   69.6570  225.0780 C   0  0  0  0  0  0  0  0  0  0  0  0
  139.9150   68.9150  226.2010 C   0  0  0  0  0  0  0  0  0  0  0  0
  140.6760   69.5250  227.1930 C   0  0  0  0  0  0  0  0  0  0  0  0
  141.1500   68.6050  228.6030 Cl  0  0  0  0  0  0  0  0  0  0  0  0
  141.0760   70.8430  227.1050 C   0  0  0  0  0  0  0  0  0  0  0  0
  140.6950   71.5620  225.9860 C   0  0  0  0  0  0  0  0  0  0  0  0
  139.9320   70.9680  224.9820 C   0  0  0  0  0  0  0  0  0  0  0  0
  139.5830   71.7010  223.9100 N   0  0  0  0  0  0  0  0  0  0  0  0
  139.0260   73.8730  222.7430 H   0  0  0  0  0  0  0  0  0  0  0  0
  137.3042   73.9666  220.3401 H   0  0  0  0  0  0  0  0  0  0  0  0
  138.2697   75.3262  221.0286 H   0  0  0  0  0  0  0  0  0  0  0  0
  140.8914   75.7385  217.9929 H   0  0  0  0  0  0  0  0  0  0  0  0
  140.8419   76.7904  219.4307 H   0  0  0  0  0  0  0  0  0  0  0  0
  143.1809   75.5989  218.2419 H   0  0  0  0  0  0  0  0  0  0  0  0
  142.8303   73.5075  219.3794 H   0  0  0  0  0  0  0  0  0  0  0  0
  143.6960   74.3839  220.6375 H   0  0  0  0  0  0  0  0  0  0  0  0
  141.4368   73.4140  221.4224 H   0  0  0  0  0  0  0  0  0  0  0  0
  142.0964   75.1051  222.7394 H   0  0  0  0  0  0  0  0  0  0  0  0
  141.6669   76.3315  221.3734 H   0  0  0  0  0  0  0  0  0  0  0  0
  139.1339   76.8521  221.2933 H   0  0  0  0  0  0  0  0  0  0  0  0
  138.9239   77.0611  223.0809 H   0  0  0  0  0  0  0  0  0  0  0  0
  140.4244   78.4852  220.1578 H   0  0  0  0  0  0  0  0  0  0  0  0
  142.1085   80.3367  220.3064 H   0  0  0  0  0  0  0  0  0  0  0  0
  143.2237   80.8718  222.4386 H   0  0  0  0  0  0  0  0  0  0  0  0
  142.7084   79.5790  224.5038 H   0  0  0  0  0  0  0  0  0  0  0  0
  141.0266   77.7272  224.3676 H   0  0  0  0  0  0  0  0  0  0  0  0
  137.8521   69.4706  222.1677 H   0  0  0  0  0  0  0  0  0  0  0  0
  138.4527   68.0413  224.1125 H   0  0  0  0  0  0  0  0  0  0  0  0
  139.6124   67.8620  226.2994 H   0  0  0  0  0  0  0  0  0  0  0  0
  141.6787   71.3072  227.8995 H   0  0  0  0  0  0  0  0  0  0  0  0
  140.9978   72.6149  225.8875 H   0  0  0  0  0  0  0  0  0  0  0  0
  1  2  2  0
  2  3  1  0
  3  4  1  0
  4  5  1  0
  5  6  2  0
  5  7  1  0
  7  8  1  0
  8  9  1  0
  9 10  1  0
  9 11  1  0
 11 12  1  0
 12 13  1  0
 13 14  1  0
 14 15  1  0
 15 16  1  0
 16 17  2  0
 17 18  1  0
 18 19  2  0
 19 20  1  0
 20 21  2  0
  2 22  1  0
 22 23  2  0
 23 24  1  0
 24 25  2  0
 25 26  1  0
 26 27  2  0
 27 28  1  0
 27 29  1  0
 29 30  2  0
 30 31  1  0
 31 32  2  0
 12  7  1  0
 21 16  1  0
 32 22  1  0
 31 25  1  0
  3 33  1  0
  4 34  1  0
  4 35  1  0
  8 36  1  0
  8 37  1  0
  9 38  1  6
 11 39  1  0
 11 40  1  0
 12 41  1  1
 13 42  1  0
 13 43  1  0
 15 44  1  0
 15 45  1  0
 17 46  1  0
 18 47  1  0
 19 48  1  0
 20 49  1  0
 21 50  1  0
 23 51  1  0
 24 52  1  0
 26 53  1  0
 29 54  1  0
 30 55  1  0
M  END
>  <smiles>  (23) 
O=C(NCC(=O)N1C[C@@H](F)C[C@H]1COCc1ccccc1)c1ccc2cc(Cl)ccc2n1

>  <score_type>  (23) 
oracle

>  <origin>  (23) 
autodockgpu

>  <m_score__min__energy>  (23) 
-8.9600000000000009

>  <m_primary>  (23) 
energy

>  <rmsd>  (23) 
2.1103400183322134

>  <m_score__min__rmsd>  (23) 
2.1103400183322134

>  <meeko>  (23) 
{"free_energy": -7.46, "intermolecular_energy": -9.84, "internal_energy": -3.0, "cluster_size": 18, "cluster_id": 3, "rank_in_cluster": 17}

>  <energy>  (23) 
-7.86

>  <cluster_rmsd>  (23) 
1.54

>  <cluster>  (23) 
3

$$$$

     RDKit          3D

 55 58  0  0  0  0  0  0  0  0999 V2000
  139.2960   72.7410  220.5500 O   0  0  0  0  0  0  0  0  0  0  0  0
  139.9870   72.9660  221.5690 C   0  0  0  0  0  0  0  0  0  0  0  0
  140.8440   74.0930  221.7170 N   0  0  0  0  0  0  0  0  0  0  0  0
  140.9180   75.0340  220.6210 C   0  0  0  0  0  0  0  0  0  0  0  0
  140.4030   76.3500  221.0350 C   0  0  0  0  0  0  0  0  0  0  0  0
  141.1720   77.3460  221.0340 O   0  0  0  0  0  0  0  0  0  0  0  0
  139.0400   76.4390  221.4220 N   0  0  0  0  0  0  0  0  0  0  0  0
  138.3170   75.7340  222.4560 C   0  0  0  0  0  0  0  0  0  0  0  0
  136.8820   75.7060  222.0600 C   0  0  1  0  0  0  0  0  0  0  0  0
  136.1060   76.3660  222.9660 F   0  0  0  0  0  0  0  0  0  0  0  0
  136.8920   76.3880  220.6990 C   0  0  0  0  0  0  0  0  0  0  0  0
  138.0420   77.3550  220.7710 C   0  0  1  0  0  0  0  0  0  0  0  0
  137.8740   78.5050  221.6960 C   0  0  0  0  0  0  0  0  0  0  0  0
  138.4600   78.5040  222.9090 O   0  0  0  0  0  0  0  0  0  0  0  0
  138.7850   79.6570  223.5170 C   0  0  0  0  0  0  0  0  0  0  0  0
  140.2910   79.9080  223.4790 C   0  0  0  0  0  0  0  0  0  0  0  0
  141.1820   78.8570  223.4940 C   0  0  0  0  0  0  0  0  0  0  0  0
  142.5340   79.1870  223.4570 C   0  0  0  0  0  0  0  0  0  0  0  0
  142.9610   80.5050  223.4070 C   0  0  0  0  0  0  0  0  0  0  0  0
  142.0540   81.5470  223.3940 C   0  0  0  0  0  0  0  0  0  0  0  0
  140.7000   81.2320  223.4310 C   0  0  0  0  0  0  0  0  0  0  0  0
  139.9170   72.0110  222.6930 C   0  0  0  0  0  0  0  0  0  0  0  0
  139.2470   70.8150  222.5710 C   0  0  0  0  0  0  0  0  0  0  0  0
  139.1620   69.8960  223.6060 C   0  0  0  0  0  0  0  0  0  0  0  0
  139.7880   70.2210  224.8030 C   0  0  0  0  0  0  0  0  0  0  0  0
  139.7530   69.3520  225.8970 C   0  0  0  0  0  0  0  0  0  0  0  0
  140.3950   69.7210  227.0740 C   0  0  0  0  0  0  0  0  0  0  0  0
  140.3560   68.6410  228.4490 Cl  0  0  0  0  0  0  0  0  0  0  0  0
  141.0690   70.9180  227.2000 C   0  0  0  0  0  0  0  0  0  0  0  0
  141.0940   71.7650  226.1060 C   0  0  0  0  0  0  0  0  0  0  0  0
  140.4560   71.4150  224.9180 C   0  0  0  0  0  0  0  0  0  0  0  0
  140.5030   72.2650  223.8770 N   0  0  0  0  0  0  0  0  0  0  0  0
  141.4040   74.2270  222.6050 H   0  0  0  0  0  0  0  0  0  0  0  0
  141.9661   75.1389  220.3042 H   0  0  0  0  0  0  0  0  0  0  0  0
  140.3056   74.6585  219.7880 H   0  0  0  0  0  0  0  0  0  0  0  0
  138.7009   74.7074  222.5492 H   0  0  0  0  0  0  0  0  0  0  0  0
  138.4411   76.2366  223.4266 H   0  0  0  0  0  0  0  0  0  0  0  0
  136.4547   74.6931  222.0211 H   0  0  0  0  0  0  0  0  0  0  0  0
  137.0519   75.6526  219.8967 H   0  0  0  0  0  0  0  0  0  0  0  0
  135.9383   76.8881  220.4746 H   0  0  0  0  0  0  0  0  0  0  0  0
  138.2488   77.8180  219.7948 H   0  0  0  0  0  0  0  0  0  0  0  0
  138.2509   79.3921  221.1659 H   0  0  0  0  0  0  0  0  0  0  0  0
  136.8025   78.4671  221.9417 H   0  0  0  0  0  0  0  0  0  0  0  0
  138.2720   80.4861  223.0076 H   0  0  0  0  0  0  0  0  0  0  0  0
  138.4740   79.5901  224.5700 H   0  0  0  0  0  0  0  0  0  0  0  0
  140.8426   77.8114  223.5332 H   0  0  0  0  0  0  0  0  0  0  0  0
  143.2827   78.3812  223.4677 H   0  0  0  0  0  0  0  0  0  0  0  0
  144.0385   80.7245  223.3772 H   0  0  0  0  0  0  0  0  0  0  0  0
  142.3922   82.5930  223.3556 H   0  0  0  0  0  0  0  0  0  0  0  0
  139.9501   82.0368  223.4221 H   0  0  0  0  0  0  0  0  0  0  0  0
  138.7592   70.5785  221.6138 H   0  0  0  0  0  0  0  0  0  0  0  0
  138.6200   68.9466  223.4840 H   0  0  0  0  0  0  0  0  0  0  0  0
  139.2250   68.3895  225.8280 H   0  0  0  0  0  0  0  0  0  0  0  0
  141.5707   71.1905  228.1402 H   0  0  0  0  0  0  0  0  0  0  0  0
  141.6241   72.7264  226.1752 H   0  0  0  0  0  0  0  0  0  0  0  0
  1  2  2  0
  2  3  1  0
  3  4  1  0
  4  5  1  0
  5  6  2  0
  5  7  1  0
  7  8  1  0
  8  9  1  0
  9 10  1  0
  9 11  1  0
 11 12  1  0
 12 13  1  0
 13 14  1  0
 14 15  1  0
 15 16  1  0
 16 17  2  0
 17 18  1  0
 18 19  2  0
 19 20  1  0
 20 21  2  0
  2 22  1  0
 22 23  2  0
 23 24  1  0
 24 25  2  0
 25 26  1  0
 26 27  2  0
 27 28  1  0
 27 29  1  0
 29 30  2  0
 30 31  1  0
 31 32  2  0
 12  7  1  0
 21 16  1  0
 32 22  1  0
 31 25  1  0
  3 33  1  0
  4 34  1  0
  4 35  1  0
  8 36  1  0
  8 37  1  0
  9 38  1  6
 11 39  1  0
 11 40  1  0
 12 41  1  6
 13 42  1  0
 13 43  1  0
 15 44  1  0
 15 45  1  0
 17 46  1  0
 18 47  1  0
 19 48  1  0
 20 49  1  0
 21 50  1  0
 23 51  1  0
 24 52  1  0
 26 53  1  0
 29 54  1  0
 30 55  1  0
M  END
>  <smiles>  (24) 
O=C(NCC(=O)N1C[C@@H](F)C[C@H]1COCc1ccccc1)c1ccc2cc(Cl)ccc2n1

>  <score_type>  (24) 
oracle

>  <origin>  (24) 
autodockgpu

>  <m_score__min__energy>  (24) 
-8.9600000000000009

>  <m_primary>  (24) 
energy

>  <rmsd>  (24) 
3.088045765363036

>  <m_score__min__rmsd>  (24) 
3.088045765363036

>  <meeko>  (24) 
{"free_energy": -7.49, "intermolecular_energy": -9.88, "internal_energy": -2.2, "cluster_size": 3, "cluster_id": 6, "rank_in_cluster": 2}

>  <energy>  (24) 
-7.79

>  <cluster_rmsd>  (24) 
1.34

>  <cluster>  (24) 
3

$$$$

     RDKit          3D

 55 58  0  0  0  0  0  0  0  0999 V2000
  140.1310   72.4140  220.6830 O   0  0  0  0  0  0  0  0  0  0  0  0
  139.8960   72.8180  221.8440 C   0  0  0  0  0  0  0  0  0  0  0  0
  139.5790   74.1670  222.1690 N   0  0  0  0  0  0  0  0  0  0  0  0
  139.5270   75.1290  221.0890 C   0  0  0  0  0  0  0  0  0  0  0  0
  139.4280   76.4980  221.6210 C   0  0  0  0  0  0  0  0  0  0  0  0
  138.7510   76.7120  222.6610 O   0  0  0  0  0  0  0  0  0  0  0  0
  140.1110   77.5320  220.9290 N   0  0  0  0  0  0  0  0  0  0  0  0
  139.5900   78.6620  220.1920 C   0  0  0  0  0  0  0  0  0  0  0  0
  140.6160   79.0510  219.1860 C   0  0  1  0  0  0  0  0  0  0  0  0
  141.0680   80.3190  219.4070 F   0  0  0  0  0  0  0  0  0  0  0  0
  141.7030   78.0050  219.3860 C   0  0  0  0  0  0  0  0  0  0  0  0
  141.6070   77.6360  220.8410 C   0  0  1  0  0  0  0  0  0  0  0  0
  142.0050   78.6890  221.8120 C   0  0  0  0  0  0  0  0  0  0  0  0
  141.8400   78.5020  223.1350 O   0  0  0  0  0  0  0  0  0  0  0  0
  141.1770   79.4020  223.8800 C   0  0  0  0  0  0  0  0  0  0  0  0
  140.7480   80.6100  223.0510 C   0  0  0  0  0  0  0  0  0  0  0  0
  139.4290   80.7900  222.6960 C   0  0  0  0  0  0  0  0  0  0  0  0
  139.1360   81.9220  221.9400 C   0  0  0  0  0  0  0  0  0  0  0  0
  140.1220   82.8220  221.5650 C   0  0  0  0  0  0  0  0  0  0  0  0
  141.4400   82.6260  221.9280 C   0  0  0  0  0  0  0  0  0  0  0  0
  141.7470   81.5000  222.6830 C   0  0  0  0  0  0  0  0  0  0  0  0
  139.9460   71.8440  222.9530 C   0  0  0  0  0  0  0  0  0  0  0  0
  139.5000   70.5530  222.7880 C   0  0  0  0  0  0  0  0  0  0  0  0
  139.5330   69.6140  223.8070 C   0  0  0  0  0  0  0  0  0  0  0  0
  140.0430   70.0190  225.0340 C   0  0  0  0  0  0  0  0  0  0  0  0
  140.1140   69.1370  226.1150 C   0  0  0  0  0  0  0  0  0  0  0  0
  140.6320   69.5890  227.3250 C   0  0  0  0  0  0  0  0  0  0  0  0
  140.7240   68.4930  228.6840 Cl  0  0  0  0  0  0  0  0  0  0  0  0
  141.0810   70.8820  227.4940 C   0  0  0  0  0  0  0  0  0  0  0  0
  141.0040   71.7410  226.4120 C   0  0  0  0  0  0  0  0  0  0  0  0
  140.4870   71.3080  225.1920 C   0  0  0  0  0  0  0  0  0  0  0  0
  140.4290   72.1730  224.1650 N   0  0  0  0  0  0  0  0  0  0  0  0
  139.3910   74.4470  223.1720 H   0  0  0  0  0  0  0  0  0  0  0  0
  140.4405   75.0417  220.4824 H   0  0  0  0  0  0  0  0  0  0  0  0
  138.6402   74.9227  220.4718 H   0  0  0  0  0  0  0  0  0  0  0  0
  138.6548   78.3812  219.6855 H   0  0  0  0  0  0  0  0  0  0  0  0
  139.3744   79.5009  220.8701 H   0  0  0  0  0  0  0  0  0  0  0  0
  140.2364   79.0714  218.1538 H   0  0  0  0  0  0  0  0  0  0  0  0
  141.5197   77.1270  218.7492 H   0  0  0  0  0  0  0  0  0  0  0  0
  142.7005   78.3810  219.1146 H   0  0  0  0  0  0  0  0  0  0  0  0
  142.2507   76.7791  221.0887 H   0  0  0  0  0  0  0  0  0  0  0  0
  143.0774   78.8744  221.6523 H   0  0  0  0  0  0  0  0  0  0  0  0
  141.3018   79.5053  221.5903 H   0  0  0  0  0  0  0  0  0  0  0  0
  140.2818   78.9241  224.3045 H   0  0  0  0  0  0  0  0  0  0  0  0
  141.8499   79.7524  224.6765 H   0  0  0  0  0  0  0  0  0  0  0  0
  138.6473   80.0759  222.9945 H   0  0  0  0  0  0  0  0  0  0  0  0
  138.0962   82.1070  221.6325 H   0  0  0  0  0  0  0  0  0  0  0  0
  139.8502   83.7058  220.9692 H   0  0  0  0  0  0  0  0  0  0  0  0
  142.2226   83.3388  221.6289 H   0  0  0  0  0  0  0  0  0  0  0  0
  142.7867   81.3136  222.9902 H   0  0  0  0  0  0  0  0  0  0  0  0
  139.1010   70.2538  221.8075 H   0  0  0  0  0  0  0  0  0  0  0  0
  139.1694   68.5878  223.6501 H   0  0  0  0  0  0  0  0  0  0  0  0
  139.7651   68.0990  226.0112 H   0  0  0  0  0  0  0  0  0  0  0  0
  141.4875   71.2198  228.4587 H   0  0  0  0  0  0  0  0  0  0  0  0
  141.3551   72.7783  226.5158 H   0  0  0  0  0  0  0  0  0  0  0  0
  1  2  2  0
  2  3  1  0
  3  4  1  0
  4  5  1  0
  5  6  2  0
  5  7  1  0
  7  8  1  0
  8  9  1  0
  9 10  1  0
  9 11  1  0
 11 12  1  0
 12 13  1  0
 13 14  1  0
 14 15  1  0
 15 16  1  0
 16 17  2  0
 17 18  1  0
 18 19  2  0
 19 20  1  0
 20 21  2  0
  2 22  1  0
 22 23  2  0
 23 24  1  0
 24 25  2  0
 25 26  1  0
 26 27  2  0
 27 28  1  0
 27 29  1  0
 29 30  2  0
 30 31  1  0
 31 32  2  0
 12  7  1  0
 21 16  1  0
 32 22  1  0
 31 25  1  0
  3 33  1  0
  4 34  1  0
  4 35  1  0
  8 36  1  0
  8 37  1  0
  9 38  1  6
 11 39  1  0
 11 40  1  0
 12 41  1  6
 13 42  1  0
 13 43  1  0
 15 44  1  0
 15 45  1  0
 17 46  1  0
 18 47  1  0
 19 48  1  0
 20 49  1  0
 21 50  1  0
 23 51  1  0
 24 52  1  0
 26 53  1  0
 29 54  1  0
 30 55  1  0
M  END
>  <smiles>  (25) 
O=C(NCC(=O)N1C[C@@H](F)C[C@H]1COCc1ccccc1)c1ccc2cc(Cl)ccc2n1

>  <score_type>  (25) 
oracle

>  <origin>  (25) 
autodockgpu

>  <m_score__min__energy>  (25) 
-8.9600000000000009

>  <m_primary>  (25) 
energy

>  <rmsd>  (25) 
2.1345812973808886

>  <m_score__min__rmsd>  (25) 
2.1345812973808886

>  <meeko>  (25) 
{"free_energy": -7.86, "intermolecular_energy": -10.24, "internal_energy": -2.29, "cluster_size": 18, "cluster_id": 3, "rank_in_cluster": 7}

>  <energy>  (25) 
-7.74

>  <cluster_rmsd>  (25) 
1.74

>  <cluster>  (25) 
3

$$$$

     RDKit          3D

 55 58  0  0  0  0  0  0  0  0999 V2000
  136.3670   75.2170  221.5130 O   0  0  0  0  0  0  0  0  0  0  0  0
  137.5100   75.2180  222.0210 C   0  0  0  0  0  0  0  0  0  0  0  0
  138.2420   74.0390  222.3380 N   0  0  0  0  0  0  0  0  0  0  0  0
  137.6240   72.7620  222.0530 C   0  0  0  0  0  0  0  0  0  0  0  0
  138.2260   71.7020  222.8780 C   0  0  0  0  0  0  0  0  0  0  0  0
  139.3990   71.8420  223.3100 O   0  0  0  0  0  0  0  0  0  0  0  0
  137.4440   70.5490  223.1550 N   0  0  0  0  0  0  0  0  0  0  0  0
  136.3880   69.9310  222.3840 C   0  0  0  0  0  0  0  0  0  0  0  0
  135.5120   69.1930  223.3340 C   0  0  1  0  0  0  0  0  0  0  0  0
  135.5120   67.8560  223.0670 F   0  0  0  0  0  0  0  0  0  0  0  0
  136.1330   69.5130  224.6870 C   0  0  0  0  0  0  0  0  0  0  0  0
  137.5940   69.7120  224.3940 C   0  0  1  0  0  0  0  0  0  0  0  0
  138.3510   68.5010  223.9820 C   0  0  0  0  0  0  0  0  0  0  0  0
  139.2500   67.9370  224.8110 O   0  0  0  0  0  0  0  0  0  0  0  0
  139.1900   68.1480  226.1360 C   0  0  0  0  0  0  0  0  0  0  0  0
  139.8800   69.4530  226.5290 C   0  0  0  0  0  0  0  0  0  0  0  0
  139.6730   70.0140  227.7700 C   0  0  0  0  0  0  0  0  0  0  0  0
  140.3450   71.2040  228.0350 C   0  0  0  0  0  0  0  0  0  0  0  0
  141.1800   71.7940  227.0970 C   0  0  0  0  0  0  0  0  0  0  0  0
  141.3750   71.2180  225.8570 C   0  0  0  0  0  0  0  0  0  0  0  0
  140.7100   70.0300  225.5780 C   0  0  0  0  0  0  0  0  0  0  0  0
  138.1500   76.5160  222.3160 C   0  0  0  0  0  0  0  0  0  0  0  0
  137.4150   77.6780  222.3570 C   0  0  0  0  0  0  0  0  0  0  0  0
  137.9840   78.9140  222.6300 C   0  0  0  0  0  0  0  0  0  0  0  0
  139.3510   78.9490  222.8680 C   0  0  0  0  0  0  0  0  0  0  0  0
  140.0050   80.1510  223.1510 C   0  0  0  0  0  0  0  0  0  0  0  0
  141.3770   80.1380  223.3820 C   0  0  0  0  0  0  0  0  0  0  0  0
  142.2050   81.6370  223.7380 Cl  0  0  0  0  0  0  0  0  0  0  0  0
  142.1170   78.9740  223.3420 C   0  0  0  0  0  0  0  0  0  0  0  0
  141.4520   77.7930  223.0610 C   0  0  0  0  0  0  0  0  0  0  0  0
  140.0780   77.7860  222.8250 C   0  0  0  0  0  0  0  0  0  0  0  0
  139.4700   76.6180  222.5550 N   0  0  0  0  0  0  0  0  0  0  0  0
  139.2070   74.1060  222.7680 H   0  0  0  0  0  0  0  0  0  0  0  0
  136.5478   72.8238  222.2720 H   0  0  0  0  0  0  0  0  0  0  0  0
  137.7819   72.5195  220.9917 H   0  0  0  0  0  0  0  0  0  0  0  0
  135.8060   70.7026  221.8587 H   0  0  0  0  0  0  0  0  0  0  0  0
  136.8076   69.2459  221.6327 H   0  0  0  0  0  0  0  0  0  0  0  0
  134.4530   69.4848  223.2763 H   0  0  0  0  0  0  0  0  0  0  0  0
  135.6932   70.4283  225.1098 H   0  0  0  0  0  0  0  0  0  0  0  0
  135.9596   68.7163  225.4254 H   0  0  0  0  0  0  0  0  0  0  0  0
  138.1385   70.0897  225.2720 H   0  0  0  0  0  0  0  0  0  0  0  0
  137.6043   67.7261  223.7542 H   0  0  0  0  0  0  0  0  0  0  0  0
  138.9771   68.8721  223.1572 H   0  0  0  0  0  0  0  0  0  0  0  0
  138.1347   68.1957  226.4425 H   0  0  0  0  0  0  0  0  0  0  0  0
  139.7083   67.3191  226.6404 H   0  0  0  0  0  0  0  0  0  0  0  0
  139.0109   69.5458  228.5132 H   0  0  0  0  0  0  0  0  0  0  0  0
  140.2106   71.6890  229.0131 H   0  0  0  0  0  0  0  0  0  0  0  0
  141.6942   72.7343  227.3446 H   0  0  0  0  0  0  0  0  0  0  0  0
  142.0366   71.6854  225.1128 H   0  0  0  0  0  0  0  0  0  0  0  0
  140.8420   69.5451  224.5995 H   0  0  0  0  0  0  0  0  0  0  0  0
  136.3330   77.6254  222.1658 H   0  0  0  0  0  0  0  0  0  0  0  0
  137.3755   79.8300  222.6567 H   0  0  0  0  0  0  0  0  0  0  0  0
  139.4424   81.0954  223.1906 H   0  0  0  0  0  0  0  0  0  0  0  0
  143.2012   78.9843  223.5276 H   0  0  0  0  0  0  0  0  0  0  0  0
  142.0145   76.8484  223.0235 H   0  0  0  0  0  0  0  0  0  0  0  0
  1  2  2  0
  2  3  1  0
  3  4  1  0
  4  5  1  0
  5  6  2  0
  5  7  1  0
  7  8  1  0
  8  9  1  0
  9 10  1  0
  9 11  1  0
 11 12  1  0
 12 13  1  0
 13 14  1  0
 14 15  1  0
 15 16  1  0
 16 17  2  0
 17 18  1  0
 18 19  2  0
 19 20  1  0
 20 21  2  0
  2 22  1  0
 22 23  2  0
 23 24  1  0
 24 25  2  0
 25 26  1  0
 26 27  2  0
 27 28  1  0
 27 29  1  0
 29 30  2  0
 30 31  1  0
 31 32  2  0
 12  7  1  0
 21 16  1  0
 32 22  1  0
 31 25  1  0
  3 33  1  0
  4 34  1  0
  4 35  1  0
  8 36  1  0
  8 37  1  0
  9 38  1  1
 11 39  1  0
 11 40  1  0
 12 41  1  1
 13 42  1  0
 13 43  1  0
 15 44  1  0
 15 45  1  0
 17 46  1  0
 18 47  1  0
 19 48  1  0
 20 49  1  0
 21 50  1  0
 23 51  1  0
 24 52  1  0
 26 53  1  0
 29 54  1  0
 30 55  1  0
M  END
>  <smiles>  (26) 
O=C(NCC(=O)N1C[C@@H](F)C[C@H]1COCc1ccccc1)c1ccc2cc(Cl)ccc2n1

>  <score_type>  (26) 
oracle

>  <origin>  (26) 
autodockgpu

>  <m_score__min__energy>  (26) 
-8.9600000000000009

>  <m_primary>  (26) 
energy

>  <rmsd>  (26) 
8.412878114191924

>  <m_score__min__rmsd>  (26) 
8.412878114191924

>  <meeko>  (26) 
{"free_energy": -8.27, "intermolecular_energy": -10.65, "internal_energy": -2.27, "cluster_size": 12, "cluster_id": 2, "rank_in_cluster": 3}

>  <energy>  (26) 
-7.71

>  <cluster_rmsd>  (26) 
1.57

>  <cluster>  (26) 
3

$$$$

     RDKit          3D

 55 58  0  0  0  0  0  0  0  0999 V2000
  133.2090   69.6500  226.7970 O   0  0  0  0  0  0  0  0  0  0  0  0
  133.7420   70.6820  226.3340 C   0  0  0  0  0  0  0  0  0  0  0  0
  134.8820   70.6750  225.4810 N   0  0  0  0  0  0  0  0  0  0  0  0
  135.4560   69.3940  225.1300 C   0  0  0  0  0  0  0  0  0  0  0  0
  135.9510   69.4130  223.7440 C   0  0  0  0  0  0  0  0  0  0  0  0
  135.2340   68.9430  222.8220 O   0  0  0  0  0  0  0  0  0  0  0  0
  137.2340   69.9710  223.5020 N   0  0  0  0  0  0  0  0  0  0  0  0
  137.6980   71.3340  223.6360 C   0  0  0  0  0  0  0  0  0  0  0  0
  138.8510   71.5080  222.7110 C   0  0  1  0  0  0  0  0  0  0  0  0
  139.9910   71.8110  223.3950 F   0  0  0  0  0  0  0  0  0  0  0  0
  138.9340   70.1570  222.0150 C   0  0  0  0  0  0  0  0  0  0  0  0
  138.4190   69.1760  223.0320 C   0  0  1  0  0  0  0  0  0  0  0  0
  139.2740   68.9640  224.2290 C   0  0  0  0  0  0  0  0  0  0  0  0
  139.1870   67.8250  224.9430 O   0  0  0  0  0  0  0  0  0  0  0  0
  139.8730   67.6780  226.0880 C   0  0  0  0  0  0  0  0  0  0  0  0
  140.1950   69.0260  226.7290 C   0  0  0  0  0  0  0  0  0  0  0  0
  141.2340   69.8000  226.2610 C   0  0  0  0  0  0  0  0  0  0  0  0
  141.4490   71.0130  226.9100 C   0  0  0  0  0  0  0  0  0  0  0  0
  140.6570   71.4200  227.9720 C   0  0  0  0  0  0  0  0  0  0  0  0
  139.6190   70.6320  228.4300 C   0  0  0  0  0  0  0  0  0  0  0  0
  139.3930   69.4180  227.7910 C   0  0  0  0  0  0  0  0  0  0  0  0
  133.1620   71.9940  226.6860 C   0  0  0  0  0  0  0  0  0  0  0  0
  131.9220   72.0890  227.2740 C   0  0  0  0  0  0  0  0  0  0  0  0
  131.3490   73.3050  227.6180 C   0  0  0  0  0  0  0  0  0  0  0  0
  132.0780   74.4550  227.3460 C   0  0  0  0  0  0  0  0  0  0  0  0
  131.5760   75.7210  227.6590 C   0  0  0  0  0  0  0  0  0  0  0  0
  132.3420   76.8450  227.3680 C   0  0  0  0  0  0  0  0  0  0  0  0
  131.7230   78.4330  227.7560 Cl  0  0  0  0  0  0  0  0  0  0  0  0
  133.5860   76.7520  226.7790 C   0  0  0  0  0  0  0  0  0  0  0  0
  134.0680   75.4910  226.4750 C   0  0  0  0  0  0  0  0  0  0  0  0
  133.3150   74.3530  226.7590 C   0  0  0  0  0  0  0  0  0  0  0  0
  133.8170   73.1450  226.4500 N   0  0  0  0  0  0  0  0  0  0  0  0
  135.2870   71.5840  225.1210 H   0  0  0  0  0  0  0  0  0  0  0  0
  136.2921   69.1735  225.8100 H   0  0  0  0  0  0  0  0  0  0  0  0
  134.6797   68.6198  225.2198 H   0  0  0  0  0  0  0  0  0  0  0  0
  136.8923   72.0330  223.3672 H   0  0  0  0  0  0  0  0  0  0  0  0
  137.9997   71.5399  224.6736 H   0  0  0  0  0  0  0  0  0  0  0  0
  138.7276   72.3404  222.0026 H   0  0  0  0  0  0  0  0  0  0  0  0
  138.3063   70.1459  221.1118 H   0  0  0  0  0  0  0  0  0  0  0  0
  139.9560   69.9190  221.6851 H   0  0  0  0  0  0  0  0  0  0  0  0
  138.2942   68.1704  222.6041 H   0  0  0  0  0  0  0  0  0  0  0  0
  140.3169   69.0423  223.8881 H   0  0  0  0  0  0  0  0  0  0  0  0
  138.9033   69.7237  224.9329 H   0  0  0  0  0  0  0  0  0  0  0  0
  139.2708   67.0836  226.7908 H   0  0  0  0  0  0  0  0  0  0  0  0
  140.8220   67.1720  225.8572 H   0  0  0  0  0  0  0  0  0  0  0  0
  141.8617   69.4763  225.4177 H   0  0  0  0  0  0  0  0  0  0  0  0
  142.2680   71.6646  226.5713 H   0  0  0  0  0  0  0  0  0  0  0  0
  140.8582   72.3861  228.4580 H   0  0  0  0  0  0  0  0  0  0  0  0
  138.9911   70.9547  229.2735 H   0  0  0  0  0  0  0  0  0  0  0  0
  138.5746   68.7654  228.1290 H   0  0  0  0  0  0  0  0  0  0  0  0
  131.3626   71.1644  227.4796 H   0  0  0  0  0  0  0  0  0  0  0  0
  130.3558   73.3560  228.0880 H   0  0  0  0  0  0  0  0  0  0  0  0
  130.5875   75.8274  228.1296 H   0  0  0  0  0  0  0  0  0  0  0  0
  134.1769   77.6530  226.5577 H   0  0  0  0  0  0  0  0  0  0  0  0
  135.0564   75.3855  226.0040 H   0  0  0  0  0  0  0  0  0  0  0  0
  1  2  2  0
  2  3  1  0
  3  4  1  0
  4  5  1  0
  5  6  2  0
  5  7  1  0
  7  8  1  0
  8  9  1  0
  9 10  1  0
  9 11  1  0
 11 12  1  0
 12 13  1  0
 13 14  1  0
 14 15  1  0
 15 16  1  0
 16 17  2  0
 17 18  1  0
 18 19  2  0
 19 20  1  0
 20 21  2  0
  2 22  1  0
 22 23  2  0
 23 24  1  0
 24 25  2  0
 25 26  1  0
 26 27  2  0
 27 28  1  0
 27 29  1  0
 29 30  2  0
 30 31  1  0
 31 32  2  0
 12  7  1  0
 21 16  1  0
 32 22  1  0
 31 25  1  0
  3 33  1  0
  4 34  1  0
  4 35  1  0
  8 36  1  0
  8 37  1  0
  9 38  1  6
 11 39  1  0
 11 40  1  0
 12 41  1  6
 13 42  1  0
 13 43  1  0
 15 44  1  0
 15 45  1  0
 17 46  1  0
 18 47  1  0
 19 48  1  0
 20 49  1  0
 21 50  1  0
 23 51  1  0
 24 52  1  0
 26 53  1  0
 29 54  1  0
 30 55  1  0
M  END
>  <smiles>  (27) 
O=C(NCC(=O)N1C[C@@H](F)C[C@H]1COCc1ccccc1)c1ccc2cc(Cl)ccc2n1

>  <score_type>  (27) 
oracle

>  <origin>  (27) 
autodockgpu

>  <m_score__min__energy>  (27) 
-8.9600000000000009

>  <m_primary>  (27) 
energy

>  <rmsd>  (27) 
8.267771162562974

>  <m_score__min__rmsd>  (27) 
8.267771162562974

>  <meeko>  (27) 
{"free_energy": -8.59, "intermolecular_energy": -10.97, "internal_energy": -1.82, "cluster_size": 4, "cluster_id": 1, "rank_in_cluster": 2}

>  <energy>  (27) 
-7.63

>  <cluster_rmsd>  (27) 
1.13

>  <cluster>  (27) 
3

$$$$

     RDKit          3D

 55 58  0  0  0  0  0  0  0  0999 V2000
  139.3970   72.0460  220.7490 O   0  0  0  0  0  0  0  0  0  0  0  0
  139.5040   72.4900  221.9140 C   0  0  0  0  0  0  0  0  0  0  0  0
  139.4620   73.8730  222.2470 N   0  0  0  0  0  0  0  0  0  0  0  0
  139.2830   74.8220  221.1700 C   0  0  0  0  0  0  0  0  0  0  0  0
  140.2590   75.9190  221.2830 C   0  0  0  0  0  0  0  0  0  0  0  0
  140.2600   76.6460  222.3100 O   0  0  0  0  0  0  0  0  0  0  0  0
  141.1710   76.1120  220.2120 N   0  0  0  0  0  0  0  0  0  0  0  0
  141.3270   75.3760  218.9760 C   0  0  0  0  0  0  0  0  0  0  0  0
  142.7350   75.5500  218.5270 C   0  0  1  0  0  0  0  0  0  0  0  0
  142.7940   76.1820  217.3200 F   0  0  0  0  0  0  0  0  0  0  0  0
  143.3500   76.3790  219.6460 C   0  0  0  0  0  0  0  0  0  0  0  0
  142.2070   77.1990  220.1770 C   0  0  1  0  0  0  0  0  0  0  0  0
  141.6750   78.2480  219.2690 C   0  0  0  0  0  0  0  0  0  0  0  0
  142.1720   79.4990  219.2970 O   0  0  0  0  0  0  0  0  0  0  0  0
  141.5590   80.4670  219.9980 C   0  0  0  0  0  0  0  0  0  0  0  0
  141.4150   80.0890  221.4710 C   0  0  0  0  0  0  0  0  0  0  0  0
  140.1900   79.7360  221.9930 C   0  0  0  0  0  0  0  0  0  0  0  0
  140.1600   79.4080  223.3450 C   0  0  0  0  0  0  0  0  0  0  0  0
  141.3050   79.4350  224.1270 C   0  0  0  0  0  0  0  0  0  0  0  0
  142.5260   79.7920  223.5880 C   0  0  0  0  0  0  0  0  0  0  0  0
  142.5710   80.1220  222.2380 C   0  0  0  0  0  0  0  0  0  0  0  0
  139.6860   71.5280  223.0200 C   0  0  0  0  0  0  0  0  0  0  0  0
  139.3470   70.2030  222.8740 C   0  0  0  0  0  0  0  0  0  0  0  0
  139.5050   69.2740  223.8920 C   0  0  0  0  0  0  0  0  0  0  0  0
  140.0280   69.7270  225.0960 C   0  0  0  0  0  0  0  0  0  0  0  0
  140.2210   68.8580  226.1730 C   0  0  0  0  0  0  0  0  0  0  0  0
  140.7480   69.3590  227.3600 C   0  0  0  0  0  0  0  0  0  0  0  0
  140.9930   68.2800  228.7150 Cl  0  0  0  0  0  0  0  0  0  0  0  0
  141.0900   70.6860  227.5090 C   0  0  0  0  0  0  0  0  0  0  0  0
  140.8920   71.5320  226.4320 C   0  0  0  0  0  0  0  0  0  0  0  0
  140.3640   71.0500  225.2350 C   0  0  0  0  0  0  0  0  0  0  0  0
  140.1880   71.9030  224.2100 N   0  0  0  0  0  0  0  0  0  0  0  0
  139.5590   74.1850  223.2530 H   0  0  0  0  0  0  0  0  0  0  0  0
  139.4250   74.3086  220.2076 H   0  0  0  0  0  0  0  0  0  0  0  0
  138.2677   75.2410  221.2295 H   0  0  0  0  0  0  0  0  0  0  0  0
  141.1155   74.3098  219.1444 H   0  0  0  0  0  0  0  0  0  0  0  0
  140.6279   75.7479  218.2125 H   0  0  0  0  0  0  0  0  0  0  0  0
  143.2666   74.6006  218.3654 H   0  0  0  0  0  0  0  0  0  0  0  0
  143.7600   75.7280  220.4322 H   0  0  0  0  0  0  0  0  0  0  0  0
  144.1852   77.0027  219.2947 H   0  0  0  0  0  0  0  0  0  0  0  0
  142.4861   77.7454  221.0900 H   0  0  0  0  0  0  0  0  0  0  0  0
  141.8166   77.8767  218.2433 H   0  0  0  0  0  0  0  0  0  0  0  0
  140.6453   78.3855  219.6306 H   0  0  0  0  0  0  0  0  0  0  0  0
  142.1505   81.3914  219.9228 H   0  0  0  0  0  0  0  0  0  0  0  0
  140.5519   80.6100  219.5793 H   0  0  0  0  0  0  0  0  0  0  0  0
  139.2818   79.7145  221.3727 H   0  0  0  0  0  0  0  0  0  0  0  0
  139.2034   79.1199  223.8054 H   0  0  0  0  0  0  0  0  0  0  0  0
  141.2401   79.1682  225.1922 H   0  0  0  0  0  0  0  0  0  0  0  0
  143.4345   79.8145  224.2077 H   0  0  0  0  0  0  0  0  0  0  0  0
  143.5268   80.4104  221.7762 H   0  0  0  0  0  0  0  0  0  0  0  0
  138.9341   69.8666  221.9115 H   0  0  0  0  0  0  0  0  0  0  0  0
  139.2267   68.2192  223.7509 H   0  0  0  0  0  0  0  0  0  0  0  0
  139.9602   67.7931  226.0842 H   0  0  0  0  0  0  0  0  0  0  0  0
  141.5075   71.0610  228.4551 H   0  0  0  0  0  0  0  0  0  0  0  0
  141.1541   72.5966  226.5213 H   0  0  0  0  0  0  0  0  0  0  0  0
  1  2  2  0
  2  3  1  0
  3  4  1  0
  4  5  1  0
  5  6  2  0
  5  7  1  0
  7  8  1  0
  8  9  1  0
  9 10  1  0
  9 11  1  0
 11 12  1  0
 12 13  1  0
 13 14  1  0
 14 15  1  0
 15 16  1  0
 16 17  2  0
 17 18  1  0
 18 19  2  0
 19 20  1  0
 20 21  2  0
  2 22  1  0
 22 23  2  0
 23 24  1  0
 24 25  2  0
 25 26  1  0
 26 27  2  0
 27 28  1  0
 27 29  1  0
 29 30  2  0
 30 31  1  0
 31 32  2  0
 12  7  1  0
 21 16  1  0
 32 22  1  0
 31 25  1  0
  3 33  1  0
  4 34  1  0
  4 35  1  0
  8 36  1  0
  8 37  1  0
  9 38  1  6
 11 39  1  0
 11 40  1  0
 12 41  1  1
 13 42  1  0
 13 43  1  0
 15 44  1  0
 15 45  1  0
 17 46  1  0
 18 47  1  0
 19 48  1  0
 20 49  1  0
 21 50  1  0
 23 51  1  0
 24 52  1  0
 26 53  1  0
 29 54  1  0
 30 55  1  0
M  END
>  <smiles>  (28) 
O=C(NCC(=O)N1C[C@@H](F)C[C@H]1COCc1ccccc1)c1ccc2cc(Cl)ccc2n1

>  <score_type>  (28) 
oracle

>  <origin>  (28) 
autodockgpu

>  <m_score__min__energy>  (28) 
-8.9600000000000009

>  <m_primary>  (28) 
energy

>  <rmsd>  (28) 
1.8088425518361184

>  <m_score__min__rmsd>  (28) 
1.8088425518361184

>  <meeko>  (28) 
{"free_energy": -8.31, "intermolecular_energy": -10.7, "internal_energy": -2.15, "cluster_size": 18, "cluster_id": 3, "rank_in_cluster": 2}

>  <energy>  (28) 
-7.6

>  <cluster_rmsd>  (28) 
1.47

>  <cluster>  (28) 
3

$$$$

     RDKit          3D

 55 58  0  0  0  0  0  0  0  0999 V2000
  142.3550   72.9650  220.4010 O   0  0  0  0  0  0  0  0  0  0  0  0
  141.5800   73.6190  221.1330 C   0  0  0  0  0  0  0  0  0  0  0  0
  140.6370   73.0300  222.0220 N   0  0  0  0  0  0  0  0  0  0  0  0
  140.5740   71.5860  222.0800 C   0  0  0  0  0  0  0  0  0  0  0  0
  139.2320   71.1440  222.4960 C   0  0  0  0  0  0  0  0  0  0  0  0
  138.4680   71.9510  223.0860 O   0  0  0  0  0  0  0  0  0  0  0  0
  138.8520   69.8070  222.2060 N   0  0  0  0  0  0  0  0  0  0  0  0
  139.3460   68.8950  221.1980 C   0  0  0  0  0  0  0  0  0  0  0  0
  138.2580   67.9220  220.9030 C   0  0  1  0  0  0  0  0  0  0  0  0
  138.6370   66.6500  221.2150 F   0  0  0  0  0  0  0  0  0  0  0  0
  137.1140   68.4160  221.7770 C   0  0  0  0  0  0  0  0  0  0  0  0
  137.7910   69.0550  222.9580 C   0  0  1  0  0  0  0  0  0  0  0  0
  138.5100   68.1360  223.8780 C   0  0  0  0  0  0  0  0  0  0  0  0
  139.4690   68.6000  224.7010 O   0  0  0  0  0  0  0  0  0  0  0  0
  139.1920   68.8970  225.9810 C   0  0  0  0  0  0  0  0  0  0  0  0
  140.0140   70.0860  226.4740 C   0  0  0  0  0  0  0  0  0  0  0  0
  140.7750   70.8280  225.5980 C   0  0  0  0  0  0  0  0  0  0  0  0
  141.4900   71.8920  226.1420 C   0  0  0  0  0  0  0  0  0  0  0  0
  141.4390   72.1880  227.4950 C   0  0  0  0  0  0  0  0  0  0  0  0
  140.6720   71.4320  228.3600 C   0  0  0  0  0  0  0  0  0  0  0  0
  139.9520   70.3670  227.8310 C   0  0  0  0  0  0  0  0  0  0  0  0
  141.6370   75.0940  221.0810 C   0  0  0  0  0  0  0  0  0  0  0  0
  142.3080   75.7450  220.0710 C   0  0  0  0  0  0  0  0  0  0  0  0
  142.3810   77.1280  219.9920 C   0  0  0  0  0  0  0  0  0  0  0  0
  141.7430   77.8600  220.9840 C   0  0  0  0  0  0  0  0  0  0  0  0
  141.7660   79.2570  220.9810 C   0  0  0  0  0  0  0  0  0  0  0  0
  141.1120   79.9470  221.9960 C   0  0  0  0  0  0  0  0  0  0  0  0
  141.1360   81.6960  222.0010 Cl  0  0  0  0  0  0  0  0  0  0  0  0
  140.4380   79.2980  223.0090 C   0  0  0  0  0  0  0  0  0  0  0  0
  140.4250   77.9150  222.9960 C   0  0  0  0  0  0  0  0  0  0  0  0
  141.0750   77.2040  221.9880 C   0  0  0  0  0  0  0  0  0  0  0  0
  141.0390   75.8610  222.0110 N   0  0  0  0  0  0  0  0  0  0  0  0
  140.0070   73.6390  222.6160 H   0  0  0  0  0  0  0  0  0  0  0  0
  140.7986   71.1737  221.0852 H   0  0  0  0  0  0  0  0  0  0  0  0
  141.3101   71.2272  222.8145 H   0  0  0  0  0  0  0  0  0  0  0  0
  139.6105   69.4505  220.2861 H   0  0  0  0  0  0  0  0  0  0  0  0
  140.2461   68.3732  221.5552 H   0  0  0  0  0  0  0  0  0  0  0  0
  137.9848   67.8741  219.8386 H   0  0  0  0  0  0  0  0  0  0  0  0
  136.5007   69.1514  221.2356 H   0  0  0  0  0  0  0  0  0  0  0  0
  136.4337   67.6041  222.0737 H   0  0  0  0  0  0  0  0  0  0  0  0
  137.0735   69.5814  223.6046 H   0  0  0  0  0  0  0  0  0  0  0  0
  137.7458   67.6698  224.5172 H   0  0  0  0  0  0  0  0  0  0  0  0
  139.0706   67.4875  223.1887 H   0  0  0  0  0  0  0  0  0  0  0  0
  138.1231   69.1420  226.0671 H   0  0  0  0  0  0  0  0  0  0  0  0
  139.4465   68.0235  226.5992 H   0  0  0  0  0  0  0  0  0  0  0  0
  140.8158   70.5924  224.5243 H   0  0  0  0  0  0  0  0  0  0  0  0
  142.1114   72.5137  225.4807 H   0  0  0  0  0  0  0  0  0  0  0  0
  142.0180   73.0377  227.8859 H   0  0  0  0  0  0  0  0  0  0  0  0
  140.6322   71.6655  229.4342 H   0  0  0  0  0  0  0  0  0  0  0  0
  139.3304   69.7444  228.4913 H   0  0  0  0  0  0  0  0  0  0  0  0
  142.8063   75.1447  219.2955 H   0  0  0  0  0  0  0  0  0  0  0  0
  142.9236   77.6255  219.1747 H   0  0  0  0  0  0  0  0  0  0  0  0
  142.2945   79.8039  220.1863 H   0  0  0  0  0  0  0  0  0  0  0  0
  139.9267   79.8626  223.8026 H   0  0  0  0  0  0  0  0  0  0  0  0
  139.8953   77.3693  223.7907 H   0  0  0  0  0  0  0  0  0  0  0  0
  1  2  2  0
  2  3  1  0
  3  4  1  0
  4  5  1  0
  5  6  2  0
  5  7  1  0
  7  8  1  0
  8  9  1  0
  9 10  1  0
  9 11  1  0
 11 12  1  0
 12 13  1  0
 13 14  1  0
 14 15  1  0
 15 16  1  0
 16 17  2  0
 17 18  1  0
 18 19  2  0
 19 20  1  0
 20 21  2  0
  2 22  1  0
 22 23  2  0
 23 24  1  0
 24 25  2  0
 25 26  1  0
 26 27  2  0
 27 28  1  0
 27 29  1  0
 29 30  2  0
 30 31  1  0
 31 32  2  0
 12  7  1  0
 21 16  1  0
 32 22  1  0
 31 25  1  0
  3 33  1  0
  4 34  1  0
  4 35  1  0
  8 36  1  0
  8 37  1  0
  9 38  1  6
 11 39  1  0
 11 40  1  0
 12 41  1  1
 13 42  1  0
 13 43  1  0
 15 44  1  0
 15 45  1  0
 17 46  1  0
 18 47  1  0
 19 48  1  0
 20 49  1  0
 21 50  1  0
 23 51  1  0
 24 52  1  0
 26 53  1  0
 29 54  1  0
 30 55  1  0
M  END
>  <smiles>  (29) 
O=C(NCC(=O)N1C[C@@H](F)C[C@H]1COCc1ccccc1)c1ccc2cc(Cl)ccc2n1

>  <score_type>  (29) 
oracle

>  <origin>  (29) 
autodockgpu

>  <m_score__min__energy>  (29) 
-8.9600000000000009

>  <m_primary>  (29) 
energy

>  <rmsd>  (29) 
8.19949494802936

>  <m_score__min__rmsd>  (29) 
8.19949494802936

>  <meeko>  (29) 
{"free_energy": -7.49, "intermolecular_energy": -9.88, "internal_energy": -2.45, "cluster_size": 12, "cluster_id": 2, "rank_in_cluster": 11}

>  <energy>  (29) 
-7.58

>  <cluster_rmsd>  (29) 
1.64

>  <cluster>  (29) 
3

$$$$

     RDKit          3D

 55 58  0  0  0  0  0  0  0  0999 V2000
  139.7080   74.2230  221.9700 O   0  0  0  0  0  0  0  0  0  0  0  0
  140.1480   75.3920  221.9030 C   0  0  0  0  0  0  0  0  0  0  0  0
  141.4590   75.7250  221.4620 N   0  0  0  0  0  0  0  0  0  0  0  0
  142.3350   74.6430  221.0680 C   0  0  0  0  0  0  0  0  0  0  0  0
  143.3190   75.1110  220.0770 C   0  0  0  0  0  0  0  0  0  0  0  0
  144.5470   75.0470  220.3430 O   0  0  0  0  0  0  0  0  0  0  0  0
  142.8320   75.6200  218.8440 N   0  0  0  0  0  0  0  0  0  0  0  0
  141.8410   75.0800  217.9400 C   0  0  0  0  0  0  0  0  0  0  0  0
  142.1380   75.6100  216.5810 C   0  0  1  0  0  0  0  0  0  0  0  0
  141.1090   76.3720  216.1120 F   0  0  0  0  0  0  0  0  0  0  0  0
  143.4060   76.4230  216.8040 C   0  0  0  0  0  0  0  0  0  0  0  0
  143.2990   76.9060  218.2240 C   0  0  1  0  0  0  0  0  0  0  0  0
  142.2350   77.9060  218.4980 C   0  0  0  0  0  0  0  0  0  0  0  0
  141.7530   78.0730  219.7450 O   0  0  0  0  0  0  0  0  0  0  0  0
  140.9970   79.1400  220.0520 C   0  0  0  0  0  0  0  0  0  0  0  0
  141.5400   79.8820  221.2710 C   0  0  0  0  0  0  0  0  0  0  0  0
  141.2570   81.2150  221.4690 C   0  0  0  0  0  0  0  0  0  0  0  0
  141.7980   81.8040  222.6090 C   0  0  0  0  0  0  0  0  0  0  0  0
  142.5800   81.0850  223.4990 C   0  0  0  0  0  0  0  0  0  0  0  0
  142.8550   79.7480  223.2850 C   0  0  0  0  0  0  0  0  0  0  0  0
  142.3220   79.1470  222.1500 C   0  0  0  0  0  0  0  0  0  0  0  0
  139.2610   76.5030  222.3030 C   0  0  0  0  0  0  0  0  0  0  0  0
  137.9010   76.4360  222.1040 C   0  0  0  0  0  0  0  0  0  0  0  0
  137.0400   77.4610  222.4690 C   0  0  0  0  0  0  0  0  0  0  0  0
  137.6000   78.5880  223.0550 C   0  0  0  0  0  0  0  0  0  0  0  0
  136.8060   79.6670  223.4530 C   0  0  0  0  0  0  0  0  0  0  0  0
  137.4120   80.7750  224.0360 C   0  0  0  0  0  0  0  0  0  0  0  0
  136.4270   82.1300  224.5370 Cl  0  0  0  0  0  0  0  0  0  0  0  0
  138.7740   80.8450  224.2380 C   0  0  0  0  0  0  0  0  0  0  0  0
  139.5450   79.7680  223.8380 C   0  0  0  0  0  0  0  0  0  0  0  0
  138.9570   78.6490  223.2510 C   0  0  0  0  0  0  0  0  0  0  0  0
  139.7400   77.6220  222.8770 N   0  0  0  0  0  0  0  0  0  0  0  0
  141.7730   76.7360  221.4280 H   0  0  0  0  0  0  0  0  0  0  0  0
  142.8655   74.2656  221.9546 H   0  0  0  0  0  0  0  0  0  0  0  0
  141.7305   73.8416  220.6182 H   0  0  0  0  0  0  0  0  0  0  0  0
  141.8964   73.9814  217.9349 H   0  0  0  0  0  0  0  0  0  0  0  0
  140.8286   75.3714  218.2565 H   0  0  0  0  0  0  0  0  0  0  0  0
  142.2671   74.8263  215.8199 H   0  0  0  0  0  0  0  0  0  0  0  0
  144.2990   75.7941  216.6735 H   0  0  0  0  0  0  0  0  0  0  0  0
  143.5032   77.2513  216.0868 H   0  0  0  0  0  0  0  0  0  0  0  0
  144.2253   77.3946  218.5604 H   0  0  0  0  0  0  0  0  0  0  0  0
  142.6317   78.8818  218.1812 H   0  0  0  0  0  0  0  0  0  0  0  0
  141.3702   77.4996  217.9531 H   0  0  0  0  0  0  0  0  0  0  0  0
  140.9834   79.8269  219.1929 H   0  0  0  0  0  0  0  0  0  0  0  0
  139.9826   78.7862  220.2884 H   0  0  0  0  0  0  0  0  0  0  0  0
  140.6355   81.7853  220.7629 H   0  0  0  0  0  0  0  0  0  0  0  0
  141.5995   82.8674  222.8082 H   0  0  0  0  0  0  0  0  0  0  0  0
  142.9879   81.5863  224.3891 H   0  0  0  0  0  0  0  0  0  0  0  0
  143.4762   79.1768  223.9905 H   0  0  0  0  0  0  0  0  0  0  0  0
  142.5213   78.0842  221.9482 H   0  0  0  0  0  0  0  0  0  0  0  0
  137.4796   75.5337  221.6369 H   0  0  0  0  0  0  0  0  0  0  0  0
  135.9557   77.3836  222.3006 H   0  0  0  0  0  0  0  0  0  0  0  0
  135.7160   79.6404  223.3071 H   0  0  0  0  0  0  0  0  0  0  0  0
  139.2335   81.7297  224.7028 H   0  0  0  0  0  0  0  0  0  0  0  0
  140.6348   79.7952  223.9850 H   0  0  0  0  0  0  0  0  0  0  0  0
  1  2  2  0
  2  3  1  0
  3  4  1  0
  4  5  1  0
  5  6  2  0
  5  7  1  0
  7  8  1  0
  8  9  1  0
  9 10  1  0
  9 11  1  0
 11 12  1  0
 12 13  1  0
 13 14  1  0
 14 15  1  0
 15 16  1  0
 16 17  2  0
 17 18  1  0
 18 19  2  0
 19 20  1  0
 20 21  2  0
  2 22  1  0
 22 23  2  0
 23 24  1  0
 24 25  2  0
 25 26  1  0
 26 27  2  0
 27 28  1  0
 27 29  1  0
 29 30  2  0
 30 31  1  0
 31 32  2  0
 12  7  1  0
 21 16  1  0
 32 22  1  0
 31 25  1  0
  3 33  1  0
  4 34  1  0
  4 35  1  0
  8 36  1  0
  8 37  1  0
  9 38  1  6
 11 39  1  0
 11 40  1  0
 12 41  1  1
 13 42  1  0
 13 43  1  0
 15 44  1  0
 15 45  1  0
 17 46  1  0
 18 47  1  0
 19 48  1  0
 20 49  1  0
 21 50  1  0
 23 51  1  0
 24 52  1  0
 26 53  1  0
 29 54  1  0
 30 55  1  0
M  END
>  <smiles>  (30) 
O=C(NCC(=O)N1C[C@@H](F)C[C@H]1COCc1ccccc1)c1ccc2cc(Cl)ccc2n1

>  <score_type>  (30) 
oracle

>  <origin>  (30) 
autodockgpu

>  <m_score__min__energy>  (30) 
-8.9600000000000009

>  <m_primary>  (30) 
energy

>  <rmsd>  (30) 
6.903711467004082

>  <m_score__min__rmsd>  (30) 
6.903711467004082

>  <meeko>  (30) 
{"free_energy": -6.47, "intermolecular_energy": -8.85, "internal_energy": -3.72, "cluster_size": 4, "cluster_id": 11, "rank_in_cluster": 2}

>  <energy>  (30) 
-7.57

>  <cluster_rmsd>  (30) 
1.55

>  <cluster>  (30) 
3

$$$$

     RDKit          3D

 55 58  0  0  0  0  0  0  0  0999 V2000
  134.9660   68.5010  224.9700 O   0  0  0  0  0  0  0  0  0  0  0  0
  135.4740   69.6450  224.9690 C   0  0  0  0  0  0  0  0  0  0  0  0
  136.7550   69.9470  224.4280 N   0  0  0  0  0  0  0  0  0  0  0  0
  137.5150   68.8620  223.8450 C   0  0  0  0  0  0  0  0  0  0  0  0
  137.7730   69.1220  222.4190 C   0  0  0  0  0  0  0  0  0  0  0  0
  138.1260   68.1750  221.6690 O   0  0  0  0  0  0  0  0  0  0  0  0
  137.6090   70.4500  221.9440 N   0  0  0  0  0  0  0  0  0  0  0  0
  136.4210   71.2700  221.8620 C   0  0  0  0  0  0  0  0  0  0  0  0
  136.6360   72.2630  220.7730 C   0  0  1  0  0  0  0  0  0  0  0  0
  136.6130   73.5380  221.2570 F   0  0  0  0  0  0  0  0  0  0  0  0
  138.0030   71.8760  220.2260 C   0  0  0  0  0  0  0  0  0  0  0  0
  138.7300   71.2940  221.4070 C   0  0  1  0  0  0  0  0  0  0  0  0
  139.0870   72.2450  222.4920 C   0  0  0  0  0  0  0  0  0  0  0  0
  139.2150   71.8210  223.7630 O   0  0  0  0  0  0  0  0  0  0  0  0
  140.3710   71.2930  224.1990 C   0  0  0  0  0  0  0  0  0  0  0  0
  140.3170   70.9760  225.6920 C   0  0  0  0  0  0  0  0  0  0  0  0
  140.8700   71.8350  226.6160 C   0  0  0  0  0  0  0  0  0  0  0  0
  140.7710   71.4590  227.9530 C   0  0  0  0  0  0  0  0  0  0  0  0
  140.1470   70.2810  228.3340 C   0  0  0  0  0  0  0  0  0  0  0  0
  139.5980   69.4300  227.3940 C   0  0  0  0  0  0  0  0  0  0  0  0
  139.6900   69.7930  226.0550 C   0  0  0  0  0  0  0  0  0  0  0  0
  134.7050   70.7580  225.5620 C   0  0  0  0  0  0  0  0  0  0  0  0
  133.6570   70.5210  226.4210 C   0  0  0  0  0  0  0  0  0  0  0  0
  132.9150   71.5420  226.9960 C   0  0  0  0  0  0  0  0  0  0  0  0
  133.2660   72.8470  226.6730 C   0  0  0  0  0  0  0  0  0  0  0  0
  132.5710   73.9350  227.2070 C   0  0  0  0  0  0  0  0  0  0  0  0
  132.9590   75.2240  226.8540 C   0  0  0  0  0  0  0  0  0  0  0  0
  132.0960   76.5940  227.5160 Cl  0  0  0  0  0  0  0  0  0  0  0  0
  134.0090   75.4650  225.9930 C   0  0  0  0  0  0  0  0  0  0  0  0
  134.6850   74.3750  225.4740 C   0  0  0  0  0  0  0  0  0  0  0  0
  134.3120   73.0760  225.8150 C   0  0  0  0  0  0  0  0  0  0  0  0
  134.9940   72.0430  225.2900 N   0  0  0  0  0  0  0  0  0  0  0  0
  137.1300   70.9360  224.4580 H   0  0  0  0  0  0  0  0  0  0  0  0
  138.4742   68.7661  224.3749 H   0  0  0  0  0  0  0  0  0  0  0  0
  136.9360   67.9314  223.9382 H   0  0  0  0  0  0  0  0  0  0  0  0
  135.5472   70.6430  221.6312 H   0  0  0  0  0  0  0  0  0  0  0  0
  136.2352   71.7792  222.8192 H   0  0  0  0  0  0  0  0  0  0  0  0
  135.8530   72.2483  220.0006 H   0  0  0  0  0  0  0  0  0  0  0  0
  137.9039   71.1297  219.4240 H   0  0  0  0  0  0  0  0  0  0  0  0
  138.5359   72.7325  219.7873 H   0  0  0  0  0  0  0  0  0  0  0  0
  139.6895   70.8429  221.1139 H   0  0  0  0  0  0  0  0  0  0  0  0
  140.0515   72.6935  222.2118 H   0  0  0  0  0  0  0  0  0  0  0  0
  138.2069   72.9030  222.5406 H   0  0  0  0  0  0  0  0  0  0  0  0
  140.5711   70.3646  223.6440 H   0  0  0  0  0  0  0  0  0  0  0  0
  141.1702   72.0303  224.0327 H   0  0  0  0  0  0  0  0  0  0  0  0
  141.3643   72.7699  226.3132 H   0  0  0  0  0  0  0  0  0  0  0  0
  141.1988   72.1134  228.7268 H   0  0  0  0  0  0  0  0  0  0  0  0
  140.0881   70.0199  229.4009 H   0  0  0  0  0  0  0  0  0  0  0  0
  139.1037   68.4947  227.6955 H   0  0  0  0  0  0  0  0  0  0  0  0
  139.2637   69.1391  225.2799 H   0  0  0  0  0  0  0  0  0  0  0  0
  133.3970   69.4796  226.6616 H   0  0  0  0  0  0  0  0  0  0  0  0
  132.0814   71.3271  227.6808 H   0  0  0  0  0  0  0  0  0  0  0  0
  131.7291   73.7750  227.8966 H   0  0  0  0  0  0  0  0  0  0  0  0
  134.3001   76.4919  225.7271 H   0  0  0  0  0  0  0  0  0  0  0  0
  135.5267   74.5355  224.7842 H   0  0  0  0  0  0  0  0  0  0  0  0
  1  2  2  0
  2  3  1  0
  3  4  1  0
  4  5  1  0
  5  6  2  0
  5  7  1  0
  7  8  1  0
  8  9  1  0
  9 10  1  0
  9 11  1  0
 11 12  1  0
 12 13  1  0
 13 14  1  0
 14 15  1  0
 15 16  1  0
 16 17  2  0
 17 18  1  0
 18 19  2  0
 19 20  1  0
 20 21  2  0
  2 22  1  0
 22 23  2  0
 23 24  1  0
 24 25  2  0
 25 26  1  0
 26 27  2  0
 27 28  1  0
 27 29  1  0
 29 30  2  0
 30 31  1  0
 31 32  2  0
 12  7  1  0
 21 16  1  0
 32 22  1  0
 31 25  1  0
  3 33  1  0
  4 34  1  0
  4 35  1  0
  8 36  1  0
  8 37  1  0
  9 38  1  6
 11 39  1  0
 11 40  1  0
 12 41  1  6
 13 42  1  0
 13 43  1  0
 15 44  1  0
 15 45  1  0
 17 46  1  0
 18 47  1  0
 19 48  1  0
 20 49  1  0
 21 50  1  0
 23 51  1  0
 24 52  1  0
 26 53  1  0
 29 54  1  0
 30 55  1  0
M  END
>  <smiles>  (31) 
O=C(NCC(=O)N1C[C@@H](F)C[C@H]1COCc1ccccc1)c1ccc2cc(Cl)ccc2n1

>  <score_type>  (31) 
oracle

>  <origin>  (31) 
autodockgpu

>  <m_score__min__energy>  (31) 
-8.9600000000000009

>  <m_primary>  (31) 
energy

>  <rmsd>  (31) 
6.707398408436297

>  <m_score__min__rmsd>  (31) 
6.707398408436297

>  <meeko>  (31) 
{"free_energy": -6.79, "intermolecular_energy": -9.18, "internal_energy": -2.86, "cluster_size": 2, "cluster_id": 10, "rank_in_cluster": 2}

>  <energy>  (31) 
-7.49

>  <cluster_rmsd>  (31) 
1.52

>  <cluster>  (31) 
3

$$$$

     RDKit          3D

 55 58  0  0  0  0  0  0  0  0999 V2000
  138.2720   71.4860  221.1660 O   0  0  0  0  0  0  0  0  0  0  0  0
  138.8210   71.9690  222.1810 C   0  0  0  0  0  0  0  0  0  0  0  0
  139.1470   73.3460  222.3310 N   0  0  0  0  0  0  0  0  0  0  0  0
  138.8230   74.2400  221.2400 C   0  0  0  0  0  0  0  0  0  0  0  0
  139.1140   75.6340  221.6120 C   0  0  0  0  0  0  0  0  0  0  0  0
  139.6410   75.8830  222.7280 O   0  0  0  0  0  0  0  0  0  0  0  0
  138.7840   76.6540  220.6810 N   0  0  0  0  0  0  0  0  0  0  0  0
  137.6040   76.8210  219.8610 C   0  0  0  0  0  0  0  0  0  0  0  0
  137.9950   77.6280  218.6730 C   0  0  1  0  0  0  0  0  0  0  0  0
  137.3150   78.8090  218.6330 F   0  0  0  0  0  0  0  0  0  0  0  0
  139.4910   77.8280  218.8750 C   0  0  0  0  0  0  0  0  0  0  0  0
  139.6730   77.8240  220.3680 C   0  0  1  0  0  0  0  0  0  0  0  0
  139.1010   78.9840  221.1010 C   0  0  0  0  0  0  0  0  0  0  0  0
  138.3810   78.8000  222.2240 O   0  0  0  0  0  0  0  0  0  0  0  0
  138.7610   79.3600  223.3840 C   0  0  0  0  0  0  0  0  0  0  0  0
  140.2260   79.7890  223.3480 C   0  0  0  0  0  0  0  0  0  0  0  0
  140.5690   81.1150  223.1950 C   0  0  0  0  0  0  0  0  0  0  0  0
  141.9300   81.4080  223.1740 C   0  0  0  0  0  0  0  0  0  0  0  0
  142.8900   80.4160  223.2990 C   0  0  0  0  0  0  0  0  0  0  0  0
  142.5300   79.0910  223.4500 C   0  0  0  0  0  0  0  0  0  0  0  0
  141.1740   78.7840  223.4730 C   0  0  0  0  0  0  0  0  0  0  0  0
  139.1560   71.0640  223.3000 C   0  0  0  0  0  0  0  0  0  0  0  0
  138.8670   69.7200  223.2390 C   0  0  0  0  0  0  0  0  0  0  0  0
  139.1680   68.8430  224.2710 C   0  0  0  0  0  0  0  0  0  0  0  0
  139.7850   69.3700  225.3980 C   0  0  0  0  0  0  0  0  0  0  0  0
  140.1230   68.5570  226.4830 C   0  0  0  0  0  0  0  0  0  0  0  0
  140.7400   69.1300  227.5910 C   0  0  0  0  0  0  0  0  0  0  0  0
  141.1670   68.1220  228.9550 Cl  0  0  0  0  0  0  0  0  0  0  0  0
  141.0310   70.4760  227.6550 C   0  0  0  0  0  0  0  0  0  0  0  0
  140.6890   71.2660  226.5710 C   0  0  0  0  0  0  0  0  0  0  0  0
  140.0700   70.7110  225.4520 C   0  0  0  0  0  0  0  0  0  0  0  0
  139.7540   71.5110  224.4190 N   0  0  0  0  0  0  0  0  0  0  0  0
  139.6130   73.6940  223.2160 H   0  0  0  0  0  0  0  0  0  0  0  0
  139.4225   73.9678  220.3588 H   0  0  0  0  0  0  0  0  0  0  0  0
  137.7507   74.1491  221.0121 H   0  0  0  0  0  0  0  0  0  0  0  0
  137.2275   75.8385  219.5402 H   0  0  0  0  0  0  0  0  0  0  0  0
  136.8073   77.3258  220.4270 H   0  0  0  0  0  0  0  0  0  0  0  0
  137.7599   77.1435  217.7139 H   0  0  0  0  0  0  0  0  0  0  0  0
  140.0590   77.0077  218.4118 H   0  0  0  0  0  0  0  0  0  0  0  0
  139.8553   78.7567  218.4116 H   0  0  0  0  0  0  0  0  0  0  0  0
  140.7362   77.8199  220.6501 H   0  0  0  0  0  0  0  0  0  0  0  0
  139.9471   79.6322  221.3729 H   0  0  0  0  0  0  0  0  0  0  0  0
  138.3562   79.3780  220.3938 H   0  0  0  0  0  0  0  0  0  0  0  0
  138.1349   80.2439  223.5757 H   0  0  0  0  0  0  0  0  0  0  0  0
  138.6409   78.6128  224.1823 H   0  0  0  0  0  0  0  0  0  0  0  0
  139.8066   81.9016  223.0946 H   0  0  0  0  0  0  0  0  0  0  0  0
  142.2515   82.4532  223.0552 H   0  0  0  0  0  0  0  0  0  0  0  0
  143.9556   80.6883  223.2776 H   0  0  0  0  0  0  0  0  0  0  0  0
  143.2918   78.3037  223.5489 H   0  0  0  0  0  0  0  0  0  0  0  0
  140.8514   77.7390  223.5909 H   0  0  0  0  0  0  0  0  0  0  0  0
  138.3779   69.3253  222.3362 H   0  0  0  0  0  0  0  0  0  0  0  0
  138.9273   67.7720  224.1994 H   0  0  0  0  0  0  0  0  0  0  0  0
  139.9044   67.4791  226.4617 H   0  0  0  0  0  0  0  0  0  0  0  0
  141.5199   70.9089  228.5402 H   0  0  0  0  0  0  0  0  0  0  0  0
  140.9081   72.3437  226.5928 H   0  0  0  0  0  0  0  0  0  0  0  0
  1  2  2  0
  2  3  1  0
  3  4  1  0
  4  5  1  0
  5  6  2  0
  5  7  1  0
  7  8  1  0
  8  9  1  0
  9 10  1  0
  9 11  1  0
 11 12  1  0
 12 13  1  0
 13 14  1  0
 14 15  1  0
 15 16  1  0
 16 17  2  0
 17 18  1  0
 18 19  2  0
 19 20  1  0
 20 21  2  0
  2 22  1  0
 22 23  2  0
 23 24  1  0
 24 25  2  0
 25 26  1  0
 26 27  2  0
 27 28  1  0
 27 29  1  0
 29 30  2  0
 30 31  1  0
 31 32  2  0
 12  7  1  0
 21 16  1  0
 32 22  1  0
 31 25  1  0
  3 33  1  0
  4 34  1  0
  4 35  1  0
  8 36  1  0
  8 37  1  0
  9 38  1  6
 11 39  1  0
 11 40  1  0
 12 41  1  6
 13 42  1  0
 13 43  1  0
 15 44  1  0
 15 45  1  0
 17 46  1  0
 18 47  1  0
 19 48  1  0
 20 49  1  0
 21 50  1  0
 23 51  1  0
 24 52  1  0
 26 53  1  0
 29 54  1  0
 30 55  1  0
M  END
>  <smiles>  (32) 
O=C(NCC(=O)N1C[C@@H](F)C[C@H]1COCc1ccccc1)c1ccc2cc(Cl)ccc2n1

>  <score_type>  (32) 
oracle

>  <origin>  (32) 
autodockgpu

>  <m_score__min__energy>  (32) 
-8.9600000000000009

>  <m_primary>  (32) 
energy

>  <rmsd>  (32) 
1.4863709281873183

>  <m_score__min__rmsd>  (32) 
1.4863709281873183

>  <meeko>  (32) 
{"free_energy": -7.74, "intermolecular_energy": -10.12, "internal_energy": -2.43, "cluster_size": 18, "cluster_id": 3, "rank_in_cluster": 9}

>  <energy>  (32) 
-7.46

>  <cluster_rmsd>  (32) 
1.51

>  <cluster>  (32) 
3

$$$$

     RDKit          3D

 55 58  0  0  0  0  0  0  0  0999 V2000
  139.9840   74.1810  221.9790 O   0  0  0  0  0  0  0  0  0  0  0  0
  140.3400   75.3660  221.7970 C   0  0  0  0  0  0  0  0  0  0  0  0
  141.5940   75.7440  221.2410 N   0  0  0  0  0  0  0  0  0  0  0  0
  142.5120   74.6910  220.8640 C   0  0  0  0  0  0  0  0  0  0  0  0
  143.2500   75.0620  219.6450 C   0  0  0  0  0  0  0  0  0  0  0  0
  144.4810   74.8130  219.5650 O   0  0  0  0  0  0  0  0  0  0  0  0
  142.5310   75.6940  218.5970 N   0  0  0  0  0  0  0  0  0  0  0  0
  141.6720   75.1260  217.5810 C   0  0  0  0  0  0  0  0  0  0  0  0
  141.6820   76.0530  216.4170 C   0  0  1  0  0  0  0  0  0  0  0  0
  140.4360   76.5520  216.1730 F   0  0  0  0  0  0  0  0  0  0  0  0
  142.6630   77.1330  216.8500 C   0  0  0  0  0  0  0  0  0  0  0  0
  142.5390   77.1760  218.3490 C   0  0  1  0  0  0  0  0  0  0  0  0
  141.2520   77.6900  218.8850 C   0  0  0  0  0  0  0  0  0  0  0  0
  141.2300   78.4990  219.9610 O   0  0  0  0  0  0  0  0  0  0  0  0
  141.8450   79.6930  219.9370 C   0  0  0  0  0  0  0  0  0  0  0  0
  142.0190   80.2650  221.3420 C   0  0  0  0  0  0  0  0  0  0  0  0
  141.6180   81.5500  221.6360 C   0  0  0  0  0  0  0  0  0  0  0  0
  141.8180   81.9810  222.9440 C   0  0  0  0  0  0  0  0  0  0  0  0
  142.3920   81.1590  223.9020 C   0  0  0  0  0  0  0  0  0  0  0  0
  142.7900   79.8730  223.5910 C   0  0  0  0  0  0  0  0  0  0  0  0
  142.5960   79.4290  222.2870 C   0  0  0  0  0  0  0  0  0  0  0  0
  139.4100   76.4480  222.1790 C   0  0  0  0  0  0  0  0  0  0  0  0
  138.0550   76.3260  221.9780 C   0  0  0  0  0  0  0  0  0  0  0  0
  137.1540   77.3220  222.3260 C   0  0  0  0  0  0  0  0  0  0  0  0
  137.6690   78.4780  222.8970 C   0  0  0  0  0  0  0  0  0  0  0  0
  136.8320   79.5310  223.2760 C   0  0  0  0  0  0  0  0  0  0  0  0
  137.3940   80.6700  223.8450 C   0  0  0  0  0  0  0  0  0  0  0  0
  136.3560   81.9940  224.3230 Cl  0  0  0  0  0  0  0  0  0  0  0  0
  138.7520   80.7960  224.0480 C   0  0  0  0  0  0  0  0  0  0  0  0
  139.5650   79.7430  223.6660 C   0  0  0  0  0  0  0  0  0  0  0  0
  139.0220   78.5940  223.0940 C   0  0  0  0  0  0  0  0  0  0  0  0
  139.8440   77.5920  222.7370 N   0  0  0  0  0  0  0  0  0  0  0  0
  141.8380   76.7660  221.1120 H   0  0  0  0  0  0  0  0  0  0  0  0
  143.2269   74.5236  221.6831 H   0  0  0  0  0  0  0  0  0  0  0  0
  141.9388   73.7730  220.6673 H   0  0  0  0  0  0  0  0  0  0  0  0
  142.0508   74.1387  217.2780 H   0  0  0  0  0  0  0  0  0  0  0  0
  140.6494   74.9982  217.9656 H   0  0  0  0  0  0  0  0  0  0  0  0
  141.9751   75.5716  215.4724 H   0  0  0  0  0  0  0  0  0  0  0  0
  143.6884   76.8688  216.5522 H   0  0  0  0  0  0  0  0  0  0  0  0
  142.4463   78.1058  216.3844 H   0  0  0  0  0  0  0  0  0  0  0  0
  143.3028   77.8235  218.8044 H   0  0  0  0  0  0  0  0  0  0  0  0
  140.7690   78.2432  218.0660 H   0  0  0  0  0  0  0  0  0  0  0  0
  140.7581   76.7787  219.2531 H   0  0  0  0  0  0  0  0  0  0  0  0
  142.8361   79.5746  219.4747 H   0  0  0  0  0  0  0  0  0  0  0  0
  141.2212   80.3893  219.3573 H   0  0  0  0  0  0  0  0  0  0  0  0
  141.1630   82.2019  220.8757 H   0  0  0  0  0  0  0  0  0  0  0  0
  141.5130   82.9998  223.2252 H   0  0  0  0  0  0  0  0  0  0  0  0
  142.5327   81.5367  224.9255 H   0  0  0  0  0  0  0  0  0  0  0  0
  143.2459   79.2208  224.3505 H   0  0  0  0  0  0  0  0  0  0  0  0
  142.9013   78.4108  222.0040 H   0  0  0  0  0  0  0  0  0  0  0  0
  137.6700   75.4015  221.5230 H   0  0  0  0  0  0  0  0  0  0  0  0
  136.0740   77.2006  222.1562 H   0  0  0  0  0  0  0  0  0  0  0  0
  135.7445   79.4606  223.1267 H   0  0  0  0  0  0  0  0  0  0  0  0
  139.1760   81.7051  224.4995 H   0  0  0  0  0  0  0  0  0  0  0  0
  140.6525   79.8139  223.8156 H   0  0  0  0  0  0  0  0  0  0  0  0
  1  2  2  0
  2  3  1  0
  3  4  1  0
  4  5  1  0
  5  6  2  0
  5  7  1  0
  7  8  1  0
  8  9  1  0
  9 10  1  0
  9 11  1  0
 11 12  1  0
 12 13  1  0
 13 14  1  0
 14 15  1  0
 15 16  1  0
 16 17  2  0
 17 18  1  0
 18 19  2  0
 19 20  1  0
 20 21  2  0
  2 22  1  0
 22 23  2  0
 23 24  1  0
 24 25  2  0
 25 26  1  0
 26 27  2  0
 27 28  1  0
 27 29  1  0
 29 30  2  0
 30 31  1  0
 31 32  2  0
 12  7  1  0
 21 16  1  0
 32 22  1  0
 31 25  1  0
  3 33  1  0
  4 34  1  0
  4 35  1  0
  8 36  1  0
  8 37  1  0
  9 38  1  6
 11 39  1  0
 11 40  1  0
 12 41  1  1
 13 42  1  0
 13 43  1  0
 15 44  1  0
 15 45  1  0
 17 46  1  0
 18 47  1  0
 19 48  1  0
 20 49  1  0
 21 50  1  0
 23 51  1  0
 24 52  1  0
 26 53  1  0
 29 54  1  0
 30 55  1  0
M  END
>  <smiles>  (33) 
O=C(NCC(=O)N1C[C@@H](F)C[C@H]1COCc1ccccc1)c1ccc2cc(Cl)ccc2n1

>  <score_type>  (33) 
oracle

>  <origin>  (33) 
autodockgpu

>  <m_score__min__energy>  (33) 
-8.9600000000000009

>  <m_primary>  (33) 
energy

>  <rmsd>  (33) 
6.8430976313658505

>  <m_score__min__rmsd>  (33) 
6.8430976313658505

>  <meeko>  (33) 
{"free_energy": -6.46, "intermolecular_energy": -8.85, "internal_energy": -3.58, "cluster_size": 4, "cluster_id": 11, "rank_in_cluster": 3}

>  <energy>  (33) 
-7.46

>  <cluster_rmsd>  (33) 
1.52

>  <cluster>  (33) 
3

$$$$

     RDKit          3D

 55 58  0  0  0  0  0  0  0  0999 V2000
  135.2250   68.5160  224.2240 O   0  0  0  0  0  0  0  0  0  0  0  0
  135.8400   69.5770  224.4670 C   0  0  0  0  0  0  0  0  0  0  0  0
  137.2160   69.7870  224.1690 N   0  0  0  0  0  0  0  0  0  0  0  0
  137.9450   68.7040  223.5450 C   0  0  0  0  0  0  0  0  0  0  0  0
  138.4990   69.1330  222.2510 C   0  0  0  0  0  0  0  0  0  0  0  0
  138.7780   68.2710  221.3770 O   0  0  0  0  0  0  0  0  0  0  0  0
  138.6970   70.5240  222.0400 N   0  0  0  0  0  0  0  0  0  0  0  0
  137.7330   71.5950  221.9210 C   0  0  0  0  0  0  0  0  0  0  0  0
  138.3640   72.6780  221.1170 C   0  0  1  0  0  0  0  0  0  0  0  0
  138.4790   73.8270  221.8420 F   0  0  0  0  0  0  0  0  0  0  0  0
  139.7180   72.0850  220.7510 C   0  0  0  0  0  0  0  0  0  0  0  0
  140.0480   71.1660  221.8950 C   0  0  1  0  0  0  0  0  0  0  0  0
  140.3350   71.8190  223.1990 C   0  0  0  0  0  0  0  0  0  0  0  0
  139.7680   71.3670  224.3330 O   0  0  0  0  0  0  0  0  0  0  0  0
  140.3670   71.5510  225.5220 C   0  0  0  0  0  0  0  0  0  0  0  0
  140.3320   70.2830  226.3720 C   0  0  0  0  0  0  0  0  0  0  0  0
  140.4320   69.0390  225.7880 C   0  0  0  0  0  0  0  0  0  0  0  0
  140.3900   67.9430  226.6460 C   0  0  0  0  0  0  0  0  0  0  0  0
  140.2550   68.0970  228.0170 C   0  0  0  0  0  0  0  0  0  0  0  0
  140.1550   69.3510  228.5860 C   0  0  0  0  0  0  0  0  0  0  0  0
  140.1950   70.4550  227.7420 C   0  0  0  0  0  0  0  0  0  0  0  0
  135.1040   70.6890  225.1030 C   0  0  0  0  0  0  0  0  0  0  0  0
  134.1380   70.4510  226.0540 C   0  0  0  0  0  0  0  0  0  0  0  0
  133.4290   71.4710  226.6710 C   0  0  0  0  0  0  0  0  0  0  0  0
  133.7260   72.7740  226.2950 C   0  0  0  0  0  0  0  0  0  0  0  0
  133.0590   73.8610  226.8660 C   0  0  0  0  0  0  0  0  0  0  0  0
  133.3900   75.1490  226.4570 C   0  0  0  0  0  0  0  0  0  0  0  0
  132.5610   76.5170  227.1660 Cl  0  0  0  0  0  0  0  0  0  0  0  0
  134.3570   75.3910  225.5050 C   0  0  0  0  0  0  0  0  0  0  0  0
  135.0070   74.3030  224.9500 C   0  0  0  0  0  0  0  0  0  0  0  0
  134.6900   73.0040  225.3460 C   0  0  0  0  0  0  0  0  0  0  0  0
  135.3440   71.9730  224.7840 N   0  0  0  0  0  0  0  0  0  0  0  0
  137.6800   70.7100  224.4000 H   0  0  0  0  0  0  0  0  0  0  0  0
  138.7678   68.3936  224.2058 H   0  0  0  0  0  0  0  0  0  0  0  0
  137.2564   67.8631  223.3756 H   0  0  0  0  0  0  0  0  0  0  0  0
  136.8272   71.2304  221.4145 H   0  0  0  0  0  0  0  0  0  0  0  0
  137.4441   71.9683  222.9146 H   0  0  0  0  0  0  0  0  0  0  0  0
  137.7789   72.9696  220.2323 H   0  0  0  0  0  0  0  0  0  0  0  0
  139.6544   71.5236  219.8072 H   0  0  0  0  0  0  0  0  0  0  0  0
  140.4862   72.8577  220.6001 H   0  0  0  0  0  0  0  0  0  0  0  0
  140.9442   70.5625  221.6885 H   0  0  0  0  0  0  0  0  0  0  0  0
  141.4234   71.7606  223.3469 H   0  0  0  0  0  0  0  0  0  0  0  0
  139.8839   72.8150  223.0792 H   0  0  0  0  0  0  0  0  0  0  0  0
  141.4152   71.8384  225.3528 H   0  0  0  0  0  0  0  0  0  0  0  0
  139.8247   72.3415  226.0614 H   0  0  0  0  0  0  0  0  0  0  0  0
  140.5395   68.9179  224.7000 H   0  0  0  0  0  0  0  0  0  0  0  0
  140.4659   66.9295  226.2252 H   0  0  0  0  0  0  0  0  0  0  0  0
  140.2271   67.2062  228.6617 H   0  0  0  0  0  0  0  0  0  0  0  0
  140.0470   69.4728  229.6739 H   0  0  0  0  0  0  0  0  0  0  0  0
  140.1178   71.4688  228.1619 H   0  0  0  0  0  0  0  0  0  0  0  0
  133.9195   69.4104  226.3360 H   0  0  0  0  0  0  0  0  0  0  0  0
  132.6612   71.2559  227.4288 H   0  0  0  0  0  0  0  0  0  0  0  0
  132.2827   73.7006  227.6286 H   0  0  0  0  0  0  0  0  0  0  0  0
  134.6043   76.4174  225.1961 H   0  0  0  0  0  0  0  0  0  0  0  0
  135.7830   74.4646  224.1873 H   0  0  0  0  0  0  0  0  0  0  0  0
  1  2  2  0
  2  3  1  0
  3  4  1  0
  4  5  1  0
  5  6  2  0
  5  7  1  0
  7  8  1  0
  8  9  1  0
  9 10  1  0
  9 11  1  0
 11 12  1  0
 12 13  1  0
 13 14  1  0
 14 15  1  0
 15 16  1  0
 16 17  2  0
 17 18  1  0
 18 19  2  0
 19 20  1  0
 20 21  2  0
  2 22  1  0
 22 23  2  0
 23 24  1  0
 24 25  2  0
 25 26  1  0
 26 27  2  0
 27 28  1  0
 27 29  1  0
 29 30  2  0
 30 31  1  0
 31 32  2  0
 12  7  1  0
 21 16  1  0
 32 22  1  0
 31 25  1  0
  3 33  1  0
  4 34  1  0
  4 35  1  0
  8 36  1  0
  8 37  1  0
  9 38  1  6
 11 39  1  0
 11 40  1  0
 12 41  1  6
 13 42  1  0
 13 43  1  0
 15 44  1  0
 15 45  1  0
 17 46  1  0
 18 47  1  0
 19 48  1  0
 20 49  1  0
 21 50  1  0
 23 51  1  0
 24 52  1  0
 26 53  1  0
 29 54  1  0
 30 55  1  0
M  END
>  <smiles>  (34) 
O=C(NCC(=O)N1C[C@@H](F)C[C@H]1COCc1ccccc1)c1ccc2cc(Cl)ccc2n1

>  <score_type>  (34) 
oracle

>  <origin>  (34) 
autodockgpu

>  <m_score__min__energy>  (34) 
-8.9600000000000009

>  <m_primary>  (34) 
energy

>  <rmsd>  (34) 
6.326668172661888

>  <m_score__min__rmsd>  (34) 
6.326668172661888

>  <meeko>  (34) 
{"free_energy": -6.88, "intermolecular_energy": -9.27, "internal_energy": -3.01, "cluster_size": 2, "cluster_id": 10, "rank_in_cluster": 1}

>  <energy>  (34) 
-7.39

>  <cluster_rmsd>  (34) 
1.89

>  <cluster>  (34) 
3

$$$$

     RDKit          3D

 55 58  0  0  0  0  0  0  0  0999 V2000
  138.1700   71.1900  221.2660 O   0  0  0  0  0  0  0  0  0  0  0  0
  138.7380   71.7160  222.2480 C   0  0  0  0  0  0  0  0  0  0  0  0
  139.0550   73.1010  222.3370 N   0  0  0  0  0  0  0  0  0  0  0  0
  138.6960   73.9490  221.2220 C   0  0  0  0  0  0  0  0  0  0  0  0
  139.3170   75.2770  221.3630 C   0  0  0  0  0  0  0  0  0  0  0  0
  140.0850   75.5030  222.3340 O   0  0  0  0  0  0  0  0  0  0  0  0
  139.0180   76.2590  220.3820 N   0  0  0  0  0  0  0  0  0  0  0  0
  137.7630   76.5860  219.7420 C   0  0  0  0  0  0  0  0  0  0  0  0
  138.0790   77.1950  218.4210 C   0  0  1  0  0  0  0  0  0  0  0  0
  137.6280   78.4800  218.3490 F   0  0  0  0  0  0  0  0  0  0  0  0
  139.5980   77.1110  218.3630 C   0  0  0  0  0  0  0  0  0  0  0  0
  140.0360   77.1980  219.7990 C   0  0  1  0  0  0  0  0  0  0  0  0
  139.8220   78.5060  220.4710 C   0  0  0  0  0  0  0  0  0  0  0  0
  140.1460   79.6580  219.8530 O   0  0  0  0  0  0  0  0  0  0  0  0
  141.3620   80.2050  220.0120 C   0  0  0  0  0  0  0  0  0  0  0  0
  141.7140   80.3740  221.4890 C   0  0  0  0  0  0  0  0  0  0  0  0
  141.5250   81.5810  222.1250 C   0  0  0  0  0  0  0  0  0  0  0  0
  141.8750   81.6360  223.4720 C   0  0  0  0  0  0  0  0  0  0  0  0
  142.3880   80.5330  224.1370 C   0  0  0  0  0  0  0  0  0  0  0  0
  142.5720   79.3300  223.4830 C   0  0  0  0  0  0  0  0  0  0  0  0
  142.2270   79.2600  222.1380 C   0  0  0  0  0  0  0  0  0  0  0  0
  139.1080   70.8570  223.3920 C   0  0  0  0  0  0  0  0  0  0  0  0
  138.8190   69.5120  223.3950 C   0  0  0  0  0  0  0  0  0  0  0  0
  139.1520   68.6780  224.4520 C   0  0  0  0  0  0  0  0  0  0  0  0
  139.8020   69.2510  225.5380 C   0  0  0  0  0  0  0  0  0  0  0  0
  140.1740   68.4830  226.6450 C   0  0  0  0  0  0  0  0  0  0  0  0
  140.8230   69.1000  227.7090 C   0  0  0  0  0  0  0  0  0  0  0  0
  141.2930   68.1490  229.0990 Cl  0  0  0  0  0  0  0  0  0  0  0  0
  141.1150   70.4480  227.7090 C   0  0  0  0  0  0  0  0  0  0  0  0
  140.7390   71.1930  226.6040 C   0  0  0  0  0  0  0  0  0  0  0  0
  140.0870   70.5930  225.5280 C   0  0  0  0  0  0  0  0  0  0  0  0
  139.7390   71.3500  224.4730 N   0  0  0  0  0  0  0  0  0  0  0  0
  139.5370   73.4860  223.1970 H   0  0  0  0  0  0  0  0  0  0  0  0
  139.0433   73.4844  220.2874 H   0  0  0  0  0  0  0  0  0  0  0  0
  137.6026   74.0678  221.2030 H   0  0  0  0  0  0  0  0  0  0  0  0
  137.1644   75.6739  219.6014 H   0  0  0  0  0  0  0  0  0  0  0  0
  137.1829   77.2854  220.3620 H   0  0  0  0  0  0  0  0  0  0  0  0
  137.5953   76.6867  217.5738 H   0  0  0  0  0  0  0  0  0  0  0  0
  139.9178   76.1580  217.9162 H   0  0  0  0  0  0  0  0  0  0  0  0
  140.0372   77.9066  217.7432 H   0  0  0  0  0  0  0  0  0  0  0  0
  141.1135   77.0068  219.9101 H   0  0  0  0  0  0  0  0  0  0  0  0
  138.7491   78.5666  220.7060 H   0  0  0  0  0  0  0  0  0  0  0  0
  140.5326   78.4697  221.3098 H   0  0  0  0  0  0  0  0  0  0  0  0
  142.1112   79.5533  219.5388 H   0  0  0  0  0  0  0  0  0  0  0  0
  141.3553   81.2004  219.5439 H   0  0  0  0  0  0  0  0  0  0  0  0
  141.1187   82.4561  221.5966 H   0  0  0  0  0  0  0  0  0  0  0  0
  141.7409   82.5789  224.0224 H   0  0  0  0  0  0  0  0  0  0  0  0
  142.6525   80.6169  225.2014 H   0  0  0  0  0  0  0  0  0  0  0  0
  142.9789   78.4545  224.0102 H   0  0  0  0  0  0  0  0  0  0  0  0
  142.3612   78.3179  221.5862 H   0  0  0  0  0  0  0  0  0  0  0  0
  138.3032   69.0808  222.5244 H   0  0  0  0  0  0  0  0  0  0  0  0
  138.9109   67.6049  224.4313 H   0  0  0  0  0  0  0  0  0  0  0  0
  139.9563   67.4051  226.6742 H   0  0  0  0  0  0  0  0  0  0  0  0
  141.6305   70.9166  228.5603 H   0  0  0  0  0  0  0  0  0  0  0  0
  140.9573   72.2707  226.5750 H   0  0  0  0  0  0  0  0  0  0  0  0
  1  2  2  0
  2  3  1  0
  3  4  1  0
  4  5  1  0
  5  6  2  0
  5  7  1  0
  7  8  1  0
  8  9  1  0
  9 10  1  0
  9 11  1  0
 11 12  1  0
 12 13  1  0
 13 14  1  0
 14 15  1  0
 15 16  1  0
 16 17  2  0
 17 18  1  0
 18 19  2  0
 19 20  1  0
 20 21  2  0
  2 22  1  0
 22 23  2  0
 23 24  1  0
 24 25  2  0
 25 26  1  0
 26 27  2  0
 27 28  1  0
 27 29  1  0
 29 30  2  0
 30 31  1  0
 31 32  2  0
 12  7  1  0
 21 16  1  0
 32 22  1  0
 31 25  1  0
  3 33  1  0
  4 34  1  0
  4 35  1  0
  8 36  1  0
  8 37  1  0
  9 38  1  6
 11 39  1  0
 11 40  1  0
 12 41  1  6
 13 42  1  0
 13 43  1  0
 15 44  1  0
 15 45  1  0
 17 46  1  0
 18 47  1  0
 19 48  1  0
 20 49  1  0
 21 50  1  0
 23 51  1  0
 24 52  1  0
 26 53  1  0
 29 54  1  0
 30 55  1  0
M  END
>  <smiles>  (35) 
O=C(NCC(=O)N1C[C@@H](F)C[C@H]1COCc1ccccc1)c1ccc2cc(Cl)ccc2n1

>  <score_type>  (35) 
oracle

>  <origin>  (35) 
autodockgpu

>  <m_score__min__energy>  (35) 
-8.9600000000000009

>  <m_primary>  (35) 
energy

>  <rmsd>  (35) 
1.2682472574365777

>  <m_score__min__rmsd>  (35) 
1.2682472574365777

>  <meeko>  (35) 
{"free_energy": -7.58, "intermolecular_energy": -9.96, "internal_energy": -2.03, "cluster_size": 18, "cluster_id": 3, "rank_in_cluster": 13}

>  <energy>  (35) 
-8.31

>  <cluster_rmsd>  (35) 
0.0

>  <cluster>  (35) 
4

$$$$

     RDKit          3D

 55 58  0  0  0  0  0  0  0  0999 V2000
  137.6230   76.0530  222.3610 O   0  0  0  0  0  0  0  0  0  0  0  0
  138.1370   74.9370  222.1220 C   0  0  0  0  0  0  0  0  0  0  0  0
  137.4480   73.6990  222.2490 N   0  0  0  0  0  0  0  0  0  0  0  0
  136.0670   73.7350  222.6830 C   0  0  0  0  0  0  0  0  0  0  0  0
  135.8440   72.7730  223.7740 C   0  0  0  0  0  0  0  0  0  0  0  0
  135.2400   73.1430  224.8150 O   0  0  0  0  0  0  0  0  0  0  0  0
  136.3250   71.4480  223.6030 N   0  0  0  0  0  0  0  0  0  0  0  0
  135.7700   70.3450  222.8510 C   0  0  0  0  0  0  0  0  0  0  0  0
  136.2650   69.0850  223.4720 C   0  0  1  0  0  0  0  0  0  0  0  0
  137.0210   68.3660  222.5940 F   0  0  0  0  0  0  0  0  0  0  0  0
  137.0750   69.5870  224.6580 C   0  0  0  0  0  0  0  0  0  0  0  0
  137.5930   70.9290  224.2200 C   0  0  1  0  0  0  0  0  0  0  0  0
  138.6060   70.9180  223.1330 C   0  0  0  0  0  0  0  0  0  0  0  0
  139.9090   70.7200  223.4090 O   0  0  0  0  0  0  0  0  0  0  0  0
  140.5800   71.5690  224.2040 C   0  0  0  0  0  0  0  0  0  0  0  0
  140.6890   71.0360  225.6310 C   0  0  0  0  0  0  0  0  0  0  0  0
  140.9620   71.8840  226.6820 C   0  0  0  0  0  0  0  0  0  0  0  0
  141.0420   71.3050  227.9450 C   0  0  0  0  0  0  0  0  0  0  0  0
  140.8560   69.9440  228.1360 C   0  0  0  0  0  0  0  0  0  0  0  0
  140.5830   69.1070  227.0710 C   0  0  0  0  0  0  0  0  0  0  0  0
  140.5010   69.6720  225.8030 C   0  0  0  0  0  0  0  0  0  0  0  0
  139.5450   74.8900  221.6780 C   0  0  0  0  0  0  0  0  0  0  0  0
  140.2070   76.0310  221.2860 C   0  0  0  0  0  0  0  0  0  0  0  0
  141.5280   76.0220  220.8650 C   0  0  0  0  0  0  0  0  0  0  0  0
  142.1860   74.7990  220.8480 C   0  0  0  0  0  0  0  0  0  0  0  0
  143.5180   74.7000  220.4380 C   0  0  0  0  0  0  0  0  0  0  0  0
  144.1350   73.4530  220.4380 C   0  0  0  0  0  0  0  0  0  0  0  0
  145.8020   73.3180  219.9270 Cl  0  0  0  0  0  0  0  0  0  0  0  0
  143.4750   72.3070  220.8320 C   0  0  0  0  0  0  0  0  0  0  0  0
  142.1570   72.4250  221.2350 C   0  0  0  0  0  0  0  0  0  0  0  0
  141.5200   73.6650  221.2410 C   0  0  0  0  0  0  0  0  0  0  0  0
  140.2390   73.7380  221.6400 N   0  0  0  0  0  0  0  0  0  0  0  0
  137.9380   72.7870  222.0320 H   0  0  0  0  0  0  0  0  0  0  0  0
  135.8256   74.7476  223.0384 H   0  0  0  0  0  0  0  0  0  0  0  0
  135.4205   73.4665  221.8345 H   0  0  0  0  0  0  0  0  0  0  0  0
  134.6713   70.3775  222.8923 H   0  0  0  0  0  0  0  0  0  0  0  0
  136.0759   70.4029  221.7960 H   0  0  0  0  0  0  0  0  0  0  0  0
  135.4624   68.3949  223.7713 H   0  0  0  0  0  0  0  0  0  0  0  0
  136.4378   69.6882  225.5490 H   0  0  0  0  0  0  0  0  0  0  0  0
  137.8852   68.8958  224.9335 H   0  0  0  0  0  0  0  0  0  0  0  0
  138.0840   71.4664  225.0447 H   0  0  0  0  0  0  0  0  0  0  0  0
  138.3085   70.1221  222.4344 H   0  0  0  0  0  0  0  0  0  0  0  0
  138.5875   71.9563  222.7704 H   0  0  0  0  0  0  0  0  0  0  0  0
  141.5923   71.7132  223.7985 H   0  0  0  0  0  0  0  0  0  0  0  0
  140.0293   72.5208  224.2334 H   0  0  0  0  0  0  0  0  0  0  0  0
  141.1092   72.9635  226.5306 H   0  0  0  0  0  0  0  0  0  0  0  0
  141.2584   71.9434  228.8143 H   0  0  0  0  0  0  0  0  0  0  0  0
  140.9269   69.5246  229.1504 H   0  0  0  0  0  0  0  0  0  0  0  0
  140.4351   68.0274  227.2215 H   0  0  0  0  0  0  0  0  0  0  0  0
  140.2862   69.0348  224.9325 H   0  0  0  0  0  0  0  0  0  0  0  0
  139.6664   76.9887  221.3075 H   0  0  0  0  0  0  0  0  0  0  0  0
  142.0354   76.9479  220.5563 H   0  0  0  0  0  0  0  0  0  0  0  0
  144.0713   75.5958  220.1195 H   0  0  0  0  0  0  0  0  0  0  0  0
  143.9811   71.3303  220.8258 H   0  0  0  0  0  0  0  0  0  0  0  0
  141.6046   71.5291  221.5548 H   0  0  0  0  0  0  0  0  0  0  0  0
  1  2  2  0
  2  3  1  0
  3  4  1  0
  4  5  1  0
  5  6  2  0
  5  7  1  0
  7  8  1  0
  8  9  1  0
  9 10  1  0
  9 11  1  0
 11 12  1  0
 12 13  1  0
 13 14  1  0
 14 15  1  0
 15 16  1  0
 16 17  2  0
 17 18  1  0
 18 19  2  0
 19 20  1  0
 20 21  2  0
  2 22  1  0
 22 23  2  0
 23 24  1  0
 24 25  2  0
 25 26  1  0
 26 27  2  0
 27 28  1  0
 27 29  1  0
 29 30  2  0
 30 31  1  0
 31 32  2  0
 12  7  1  0
 21 16  1  0
 32 22  1  0
 31 25  1  0
  3 33  1  0
  4 34  1  0
  4 35  1  0
  8 36  1  0
  8 37  1  0
  9 38  1  1
 11 39  1  0
 11 40  1  0
 12 41  1  1
 13 42  1  0
 13 43  1  0
 15 44  1  0
 15 45  1  0
 17 46  1  0
 18 47  1  0
 19 48  1  0
 20 49  1  0
 21 50  1  0
 23 51  1  0
 24 52  1  0
 26 53  1  0
 29 54  1  0
 30 55  1  0
M  END
>  <smiles>  (36) 
O=C(NCC(=O)N1C[C@@H](F)C[C@H]1COCc1ccccc1)c1ccc2cc(Cl)ccc2n1

>  <score_type>  (36) 
oracle

>  <origin>  (36) 
autodockgpu

>  <m_score__min__energy>  (36) 
-8.9600000000000009

>  <m_primary>  (36) 
energy

>  <rmsd>  (36) 
7.495048864153981

>  <m_score__min__rmsd>  (36) 
7.495048864153981

>  <meeko>  (36) 
{"free_energy": -7.22, "intermolecular_energy": -9.61, "internal_energy": -2.5, "cluster_size": 1, "cluster_id": 9, "rank_in_cluster": 1}

>  <energy>  (36) 
-7.74

>  <cluster_rmsd>  (36) 
1.55

>  <cluster>  (36) 
4

$$$$

     RDKit          3D

 55 58  0  0  0  0  0  0  0  0999 V2000
  140.6130   74.0730  222.2020 O   0  0  0  0  0  0  0  0  0  0  0  0
  140.0810   72.9620  221.9820 C   0  0  0  0  0  0  0  0  0  0  0  0
  139.4780   72.5990  220.7450 N   0  0  0  0  0  0  0  0  0  0  0  0
  139.4840   73.5760  219.6770 C   0  0  0  0  0  0  0  0  0  0  0  0
  140.8330   73.7070  219.1040 C   0  0  0  0  0  0  0  0  0  0  0  0
  141.4550   72.6760  218.7380 O   0  0  0  0  0  0  0  0  0  0  0  0
  141.3830   75.0110  218.9860 N   0  0  0  0  0  0  0  0  0  0  0  0
  141.0570   76.0800  218.0690 C   0  0  0  0  0  0  0  0  0  0  0  0
  142.2650   76.9390  217.9340 C   0  0  1  0  0  0  0  0  0  0  0  0
  142.0210   78.2070  218.3730 F   0  0  0  0  0  0  0  0  0  0  0  0
  143.2930   76.2170  218.7940 C   0  0  0  0  0  0  0  0  0  0  0  0
  142.4810   75.5410  219.8640 C   0  0  1  0  0  0  0  0  0  0  0  0
  141.8220   76.4360  220.8510 C   0  0  0  0  0  0  0  0  0  0  0  0
  140.4810   76.4700  220.9610 O   0  0  0  0  0  0  0  0  0  0  0  0
  139.8560   77.5650  221.4240 C   0  0  0  0  0  0  0  0  0  0  0  0
  140.8490   78.5900  221.9710 C   0  0  0  0  0  0  0  0  0  0  0  0
  141.3290   79.6030  221.1710 C   0  0  0  0  0  0  0  0  0  0  0  0
  142.2290   80.4880  221.7590 C   0  0  0  0  0  0  0  0  0  0  0  0
  142.6220   80.3540  223.0820 C   0  0  0  0  0  0  0  0  0  0  0  0
  142.1320   79.3320  223.8700 C   0  0  0  0  0  0  0  0  0  0  0  0
  141.2320   78.4410  223.2960 C   0  0  0  0  0  0  0  0  0  0  0  0
  140.0710   71.9580  223.0650 C   0  0  0  0  0  0  0  0  0  0  0  0
  139.5760   70.6920  222.8570 C   0  0  0  0  0  0  0  0  0  0  0  0
  139.5520   69.7260  223.8520 C   0  0  0  0  0  0  0  0  0  0  0  0
  140.0540   70.0780  225.0980 C   0  0  0  0  0  0  0  0  0  0  0  0
  140.0690   69.1650  226.1560 C   0  0  0  0  0  0  0  0  0  0  0  0
  140.5820   69.5640  227.3860 C   0  0  0  0  0  0  0  0  0  0  0  0
  140.6040   68.4300  228.7170 Cl  0  0  0  0  0  0  0  0  0  0  0  0
  141.0810   70.8320  227.5980 C   0  0  0  0  0  0  0  0  0  0  0  0
  141.0590   71.7220  226.5380 C   0  0  0  0  0  0  0  0  0  0  0  0
  140.5470   71.3430  225.2980 C   0  0  0  0  0  0  0  0  0  0  0  0
  140.5440   72.2360  224.2930 N   0  0  0  0  0  0  0  0  0  0  0  0
  139.0430   71.6420  220.6210 H   0  0  0  0  0  0  0  0  0  0  0  0
  138.7861   73.2554  218.8895 H   0  0  0  0  0  0  0  0  0  0  0  0
  139.1753   74.5498  220.0848 H   0  0  0  0  0  0  0  0  0  0  0  0
  140.7815   75.6630  217.0891 H   0  0  0  0  0  0  0  0  0  0  0  0
  140.2054   76.6661  218.4449 H   0  0  0  0  0  0  0  0  0  0  0  0
  142.6003   77.0684  216.8944 H   0  0  0  0  0  0  0  0  0  0  0  0
  143.8459   75.4754  218.1987 H   0  0  0  0  0  0  0  0  0  0  0  0
  144.0454   76.9028  219.2106 H   0  0  0  0  0  0  0  0  0  0  0  0
  143.0952   74.8641  220.4760 H   0  0  0  0  0  0  0  0  0  0  0  0
  142.2111   76.1530  221.8402 H   0  0  0  0  0  0  0  0  0  0  0  0
  142.0618   77.4395  220.4696 H   0  0  0  0  0  0  0  0  0  0  0  0
  139.2848   78.0238  220.6035 H   0  0  0  0  0  0  0  0  0  0  0  0
  139.1893   77.2600  222.2440 H   0  0  0  0  0  0  0  0  0  0  0  0
  141.0174   79.7077  220.1213 H   0  0  0  0  0  0  0  0  0  0  0  0
  142.6384   81.3140  221.1590 H   0  0  0  0  0  0  0  0  0  0  0  0
  143.3354   81.0734  223.5103 H   0  0  0  0  0  0  0  0  0  0  0  0
  142.4439   79.2258  224.9195 H   0  0  0  0  0  0  0  0  0  0  0  0
  140.8220   77.6145  223.8950 H   0  0  0  0  0  0  0  0  0  0  0  0
  139.1835   70.4352  221.8620 H   0  0  0  0  0  0  0  0  0  0  0  0
  139.1507   68.7197  223.6615 H   0  0  0  0  0  0  0  0  0  0  0  0
  139.6806   68.1451  226.0181 H   0  0  0  0  0  0  0  0  0  0  0  0
  141.4837   71.1268  228.5783 H   0  0  0  0  0  0  0  0  0  0  0  0
  141.4503   72.7408  226.6758 H   0  0  0  0  0  0  0  0  0  0  0  0
  1  2  2  0
  2  3  1  0
  3  4  1  0
  4  5  1  0
  5  6  2  0
  5  7  1  0
  7  8  1  0
  8  9  1  0
  9 10  1  0
  9 11  1  0
 11 12  1  0
 12 13  1  0
 13 14  1  0
 14 15  1  0
 15 16  1  0
 16 17  2  0
 17 18  1  0
 18 19  2  0
 19 20  1  0
 20 21  2  0
  2 22  1  0
 22 23  2  0
 23 24  1  0
 24 25  2  0
 25 26  1  0
 26 27  2  0
 27 28  1  0
 27 29  1  0
 29 30  2  0
 30 31  1  0
 31 32  2  0
 12  7  1  0
 21 16  1  0
 32 22  1  0
 31 25  1  0
  3 33  1  0
  4 34  1  0
  4 35  1  0
  8 36  1  0
  8 37  1  0
  9 38  1  6
 11 39  1  0
 11 40  1  0
 12 41  1  1
 13 42  1  0
 13 43  1  0
 15 44  1  0
 15 45  1  0
 17 46  1  0
 18 47  1  0
 19 48  1  0
 20 49  1  0
 21 50  1  0
 23 51  1  0
 24 52  1  0
 26 53  1  0
 29 54  1  0
 30 55  1  0
M  END
>  <smiles>  (37) 
O=C(NCC(=O)N1C[C@@H](F)C[C@H]1COCc1ccccc1)c1ccc2cc(Cl)ccc2n1

>  <score_type>  (37) 
oracle

>  <origin>  (37) 
autodockgpu

>  <m_score__min__energy>  (37) 
-8.9600000000000009

>  <m_primary>  (37) 
energy

>  <rmsd>  (37) 
2.105574561084694

>  <m_score__min__rmsd>  (37) 
2.105574561084694

>  <meeko>  (37) 
{"free_energy": -7.79, "intermolecular_energy": -10.18, "internal_energy": -1.95, "cluster_size": 18, "cluster_id": 3, "rank_in_cluster": 8}

>  <energy>  (37) 
-8.03

>  <cluster_rmsd>  (37) 
0.0

>  <cluster>  (37) 
5

$$$$

     RDKit          3D

 55 58  0  0  0  0  0  0  0  0999 V2000
  137.9110   72.8460  220.8830 O   0  0  0  0  0  0  0  0  0  0  0  0
  137.7530   73.6590  221.8200 C   0  0  0  0  0  0  0  0  0  0  0  0
  136.6960   73.5840  222.7700 N   0  0  0  0  0  0  0  0  0  0  0  0
  135.7470   72.4990  222.6420 C   0  0  0  0  0  0  0  0  0  0  0  0
  136.1160   71.3840  223.5300 C   0  0  0  0  0  0  0  0  0  0  0  0
  135.3740   71.0930  224.5040 O   0  0  0  0  0  0  0  0  0  0  0  0
  137.3110   70.6730  223.2440 N   0  0  0  0  0  0  0  0  0  0  0  0
  137.7380   70.0190  222.0260 C   0  0  0  0  0  0  0  0  0  0  0  0
  138.6960   68.9450  222.4070 C   0  0  1  0  0  0  0  0  0  0  0  0
  139.9280   69.1700  221.8690 F   0  0  0  0  0  0  0  0  0  0  0  0
  138.7050   69.0210  223.9270 C   0  0  0  0  0  0  0  0  0  0  0  0
  138.4220   70.4650  224.2340 C   0  0  1  0  0  0  0  0  0  0  0  0
  139.4870   71.4340  223.8670 C   0  0  0  0  0  0  0  0  0  0  0  0
  140.7450   71.2770  224.3210 O   0  0  0  0  0  0  0  0  0  0  0  0
  141.0560   71.5540  225.5980 C   0  0  0  0  0  0  0  0  0  0  0  0
  140.7530   70.3750  226.5190 C   0  0  0  0  0  0  0  0  0  0  0  0
  140.0180   70.5490  227.6710 C   0  0  0  0  0  0  0  0  0  0  0  0
  139.7940   69.4140  228.4450 C   0  0  0  0  0  0  0  0  0  0  0  0
  140.2870   68.1720  228.0760 C   0  0  0  0  0  0  0  0  0  0  0  0
  141.0230   68.0140  226.9180 C   0  0  0  0  0  0  0  0  0  0  0  0
  141.2540   69.1390  226.1340 C   0  0  0  0  0  0  0  0  0  0  0  0
  138.7170   74.7700  221.9590 C   0  0  0  0  0  0  0  0  0  0  0  0
  140.0380   74.6130  221.6120 C   0  0  0  0  0  0  0  0  0  0  0  0
  140.9690   75.6350  221.7300 C   0  0  0  0  0  0  0  0  0  0  0  0
  140.5210   76.8550  222.2200 C   0  0  0  0  0  0  0  0  0  0  0  0
  141.3910   77.9380  222.3700 C   0  0  0  0  0  0  0  0  0  0  0  0
  140.8960   79.1400  222.8660 C   0  0  0  0  0  0  0  0  0  0  0  0
  141.9770   80.5010  223.0580 Cl  0  0  0  0  0  0  0  0  0  0  0  0
  139.5710   79.3010  223.2140 C   0  0  0  0  0  0  0  0  0  0  0  0
  138.7240   78.2180  223.0580 C   0  0  0  0  0  0  0  0  0  0  0  0
  139.2010   77.0050  222.5640 C   0  0  0  0  0  0  0  0  0  0  0  0
  138.3460   75.9760  222.4270 N   0  0  0  0  0  0  0  0  0  0  0  0
  136.6160   74.3050  223.5420 H   0  0  0  0  0  0  0  0  0  0  0  0
  134.7443   72.8611  222.9131 H   0  0  0  0  0  0  0  0  0  0  0  0
  135.7527   72.1421  221.6015 H   0  0  0  0  0  0  0  0  0  0  0  0
  136.8702   69.5825  221.5100 H   0  0  0  0  0  0  0  0  0  0  0  0
  138.2148   70.7400  221.3457 H   0  0  0  0  0  0  0  0  0  0  0  0
  138.4127   67.9487  222.0366 H   0  0  0  0  0  0  0  0  0  0  0  0
  137.9251   68.3729  224.3532 H   0  0  0  0  0  0  0  0  0  0  0  0
  139.6589   68.6814  224.3569 H   0  0  0  0  0  0  0  0  0  0  0  0
  138.2615   70.6298  225.3097 H   0  0  0  0  0  0  0  0  0  0  0  0
  139.5470   71.4340  222.7686 H   0  0  0  0  0  0  0  0  0  0  0  0
  139.1599   72.3585  224.3653 H   0  0  0  0  0  0  0  0  0  0  0  0
  142.1286   71.7897  225.6611 H   0  0  0  0  0  0  0  0  0  0  0  0
  140.4458   72.4097  225.9227 H   0  0  0  0  0  0  0  0  0  0  0  0
  139.6279   71.5348  227.9643 H   0  0  0  0  0  0  0  0  0  0  0  0
  139.2109   69.5049  229.3733 H   0  0  0  0  0  0  0  0  0  0  0  0
  140.0890   67.2990  228.7152 H   0  0  0  0  0  0  0  0  0  0  0  0
  141.4144   67.0286  226.6250 H   0  0  0  0  0  0  0  0  0  0  0  0
  141.8361   69.0491  225.2050 H   0  0  0  0  0  0  0  0  0  0  0  0
  140.3701   73.6382  221.2254 H   0  0  0  0  0  0  0  0  0  0  0  0
  142.0212   75.4849  221.4464 H   0  0  0  0  0  0  0  0  0  0  0  0
  142.4529   77.8416  222.0996 H   0  0  0  0  0  0  0  0  0  0  0  0
  139.1993   80.2603  223.6034 H   0  0  0  0  0  0  0  0  0  0  0  0
  137.6618   78.3154  223.3270 H   0  0  0  0  0  0  0  0  0  0  0  0
  1  2  2  0
  2  3  1  0
  3  4  1  0
  4  5  1  0
  5  6  2  0
  5  7  1  0
  7  8  1  0
  8  9  1  0
  9 10  1  0
  9 11  1  0
 11 12  1  0
 12 13  1  0
 13 14  1  0
 14 15  1  0
 15 16  1  0
 16 17  2  0
 17 18  1  0
 18 19  2  0
 19 20  1  0
 20 21  2  0
  2 22  1  0
 22 23  2  0
 23 24  1  0
 24 25  2  0
 25 26  1  0
 26 27  2  0
 27 28  1  0
 27 29  1  0
 29 30  2  0
 30 31  1  0
 31 32  2  0
 12  7  1  0
 21 16  1  0
 32 22  1  0
 31 25  1  0
  3 33  1  0
  4 34  1  0
  4 35  1  0
  8 36  1  0
  8 37  1  0
  9 38  1  1
 11 39  1  0
 11 40  1  0
 12 41  1  1
 13 42  1  0
 13 43  1  0
 15 44  1  0
 15 45  1  0
 17 46  1  0
 18 47  1  0
 19 48  1  0
 20 49  1  0
 21 50  1  0
 23 51  1  0
 24 52  1  0
 26 53  1  0
 29 54  1  0
 30 55  1  0
M  END
>  <smiles>  (38) 
O=C(NCC(=O)N1C[C@@H](F)C[C@H]1COCc1ccccc1)c1ccc2cc(Cl)ccc2n1

>  <score_type>  (38) 
oracle

>  <origin>  (38) 
autodockgpu

>  <m_score__min__energy>  (38) 
-8.9600000000000009

>  <m_primary>  (38) 
energy

>  <rmsd>  (38) 
7.5603944456478995

>  <m_score__min__rmsd>  (38) 
7.5603944456478995

>  <meeko>  (38) 
{"free_energy": -7.79, "intermolecular_energy": -10.18, "internal_energy": -2.23, "cluster_size": 1, "cluster_id": 8, "rank_in_cluster": 1}

>  <energy>  (38) 
-7.28

>  <cluster_rmsd>  (38) 
0.65

>  <cluster>  (38) 
5

$$$$

     RDKit          3D

 55 58  0  0  0  0  0  0  0  0999 V2000
  141.8860   71.5410  221.3850 O   0  0  0  0  0  0  0  0  0  0  0  0
  140.7950   72.0530  221.7200 C   0  0  0  0  0  0  0  0  0  0  0  0
  139.6540   71.3050  222.1240 N   0  0  0  0  0  0  0  0  0  0  0  0
  139.7650   69.8630  222.1490 C   0  0  0  0  0  0  0  0  0  0  0  0
  138.4540   69.2390  221.9040 C   0  0  0  0  0  0  0  0  0  0  0  0
  138.2600   68.5990  220.8380 O   0  0  0  0  0  0  0  0  0  0  0  0
  137.4510   69.3880  222.8980 N   0  0  0  0  0  0  0  0  0  0  0  0
  136.0760   68.9380  222.9090 C   0  0  0  0  0  0  0  0  0  0  0  0
  135.3170   69.8390  223.8190 C   0  0  1  0  0  0  0  0  0  0  0  0
  134.8000   69.1500  224.8760 F   0  0  0  0  0  0  0  0  0  0  0  0
  136.3690   70.8530  224.2470 C   0  0  0  0  0  0  0  0  0  0  0  0
  137.6650   70.0920  224.2080 C   0  0  1  0  0  0  0  0  0  0  0  0
  137.8290   69.0230  225.2270 C   0  0  0  0  0  0  0  0  0  0  0  0
  138.8440   68.1430  225.1430 O   0  0  0  0  0  0  0  0  0  0  0  0
  139.7830   68.0830  226.1020 C   0  0  0  0  0  0  0  0  0  0  0  0
  140.2150   69.4760  226.5550 C   0  0  0  0  0  0  0  0  0  0  0  0
  139.9570   69.9130  227.8350 C   0  0  0  0  0  0  0  0  0  0  0  0
  140.3890   71.1980  228.1530 C   0  0  0  0  0  0  0  0  0  0  0  0
  141.0450   71.9960  227.2280 C   0  0  0  0  0  0  0  0  0  0  0  0
  141.2940   71.5430  225.9480 C   0  0  0  0  0  0  0  0  0  0  0  0
  140.8680   70.2610  225.6160 C   0  0  0  0  0  0  0  0  0  0  0  0
  140.6710   73.5250  221.6970 C   0  0  0  0  0  0  0  0  0  0  0  0
  141.6610   74.3150  221.1580 C   0  0  0  0  0  0  0  0  0  0  0  0
  141.5760   75.6990  221.1210 C   0  0  0  0  0  0  0  0  0  0  0  0
  140.4370   76.2840  221.6570 C   0  0  0  0  0  0  0  0  0  0  0  0
  140.2700   77.6720  221.6600 C   0  0  0  0  0  0  0  0  0  0  0  0
  139.1120   78.2130  222.2080 C   0  0  0  0  0  0  0  0  0  0  0  0
  138.8940   79.9480  222.2180 Cl  0  0  0  0  0  0  0  0  0  0  0  0
  138.1170   77.4250  222.7490 C   0  0  0  0  0  0  0  0  0  0  0  0
  138.2990   76.0530  222.7360 C   0  0  0  0  0  0  0  0  0  0  0  0
  139.4540   75.4910  222.1930 C   0  0  0  0  0  0  0  0  0  0  0  0
  139.5930   74.1540  222.1990 N   0  0  0  0  0  0  0  0  0  0  0  0
  138.7570   71.7980  222.3950 H   0  0  0  0  0  0  0  0  0  0  0  0
  140.4703   69.5409  221.3688 H   0  0  0  0  0  0  0  0  0  0  0  0
  140.1267   69.5518  223.1401 H   0  0  0  0  0  0  0  0  0  0  0  0
  135.6560   68.9894  221.8936 H   0  0  0  0  0  0  0  0  0  0  0  0
  136.0125   67.8957  223.2547 H   0  0  0  0  0  0  0  0  0  0  0  0
  134.4435   70.3116  223.3460 H   0  0  0  0  0  0  0  0  0  0  0  0
  136.3962   71.7028  223.5491 H   0  0  0  0  0  0  0  0  0  0  0  0
  136.1622   71.2751  225.2415 H   0  0  0  0  0  0  0  0  0  0  0  0
  138.5310   70.7523  224.3631 H   0  0  0  0  0  0  0  0  0  0  0  0
  137.9310   69.5283  226.1987 H   0  0  0  0  0  0  0  0  0  0  0  0
  136.9431   68.3915  225.0644 H   0  0  0  0  0  0  0  0  0  0  0  0
  139.3763   67.5370  226.9660 H   0  0  0  0  0  0  0  0  0  0  0  0
  140.6629   67.5674  225.6897 H   0  0  0  0  0  0  0  0  0  0  0  0
  139.4365   69.2797  228.5685 H   0  0  0  0  0  0  0  0  0  0  0  0
  140.2051   71.5902  229.1641 H   0  0  0  0  0  0  0  0  0  0  0  0
  141.3719   73.0053  227.5186 H   0  0  0  0  0  0  0  0  0  0  0  0
  141.8132   72.1761  225.2134 H   0  0  0  0  0  0  0  0  0  0  0  0
  141.0497   69.8682  224.6047 H   0  0  0  0  0  0  0  0  0  0  0  0
  142.5551   73.8294  220.7400 H   0  0  0  0  0  0  0  0  0  0  0  0
  142.3800   76.3093  220.6839 H   0  0  0  0  0  0  0  0  0  0  0  0
  141.0442   78.3274  221.2346 H   0  0  0  0  0  0  0  0  0  0  0  0
  137.2081   77.8729  223.1770 H   0  0  0  0  0  0  0  0  0  0  0  0
  137.5232   75.3980  223.1591 H   0  0  0  0  0  0  0  0  0  0  0  0
  1  2  2  0
  2  3  1  0
  3  4  1  0
  4  5  1  0
  5  6  2  0
  5  7  1  0
  7  8  1  0
  8  9  1  0
  9 10  1  0
  9 11  1  0
 11 12  1  0
 12 13  1  0
 13 14  1  0
 14 15  1  0
 15 16  1  0
 16 17  2  0
 17 18  1  0
 18 19  2  0
 19 20  1  0
 20 21  2  0
  2 22  1  0
 22 23  2  0
 23 24  1  0
 24 25  2  0
 25 26  1  0
 26 27  2  0
 27 28  1  0
 27 29  1  0
 29 30  2  0
 30 31  1  0
 31 32  2  0
 12  7  1  0
 21 16  1  0
 32 22  1  0
 31 25  1  0
  3 33  1  0
  4 34  1  0
  4 35  1  0
  8 36  1  0
  8 37  1  0
  9 38  1  6
 11 39  1  0
 11 40  1  0
 12 41  1  6
 13 42  1  0
 13 43  1  0
 15 44  1  0
 15 45  1  0
 17 46  1  0
 18 47  1  0
 19 48  1  0
 20 49  1  0
 21 50  1  0
 23 51  1  0
 24 52  1  0
 26 53  1  0
 29 54  1  0
 30 55  1  0
M  END
>  <smiles>  (39) 
O=C(NCC(=O)N1C[C@@H](F)C[C@H]1COCc1ccccc1)c1ccc2cc(Cl)ccc2n1

>  <score_type>  (39) 
oracle

>  <origin>  (39) 
autodockgpu

>  <m_score__min__energy>  (39) 
-8.9600000000000009

>  <m_primary>  (39) 
energy

>  <rmsd>  (39) 
7.712786111125299

>  <m_score__min__rmsd>  (39) 
7.712786111125299

>  <meeko>  (39) 
{"free_energy": -7.44, "intermolecular_energy": -9.83, "internal_energy": -2.36, "cluster_size": 12, "cluster_id": 2, "rank_in_cluster": 12}

>  <energy>  (39) 
-7.99

>  <cluster_rmsd>  (39) 
0.0

>  <cluster>  (39) 
6

$$$$

     RDKit          3D

 55 58  0  0  0  0  0  0  0  0999 V2000
  140.0840   72.5790  220.7480 O   0  0  0  0  0  0  0  0  0  0  0  0
  139.8630   72.9440  221.9240 C   0  0  0  0  0  0  0  0  0  0  0  0
  139.5560   74.2830  222.2980 N   0  0  0  0  0  0  0  0  0  0  0  0
  139.4960   75.2810  221.2510 C   0  0  0  0  0  0  0  0  0  0  0  0
  139.2540   76.6150  221.8240 C   0  0  0  0  0  0  0  0  0  0  0  0
  138.0970   76.9260  222.2080 O   0  0  0  0  0  0  0  0  0  0  0  0
  140.3550   77.5070  221.9220 N   0  0  0  0  0  0  0  0  0  0  0  0
  141.1400   77.8960  223.0730 C   0  0  0  0  0  0  0  0  0  0  0  0
  141.7080   79.2430  222.7920 C   0  0  1  0  0  0  0  0  0  0  0  0
  143.0710   79.2080  222.7720 F   0  0  0  0  0  0  0  0  0  0  0  0
  141.1170   79.5850  221.4320 C   0  0  0  0  0  0  0  0  0  0  0  0
  140.9350   78.2540  220.7550 C   0  0  1  0  0  0  0  0  0  0  0  0
  142.1790   77.5330  220.3820 C   0  0  0  0  0  0  0  0  0  0  0  0
  142.1380   76.4790  219.5450 O   0  0  0  0  0  0  0  0  0  0  0  0
  143.2690   75.9570  219.0400 C   0  0  0  0  0  0  0  0  0  0  0  0
  143.6870   74.6920  219.7850 C   0  0  0  0  0  0  0  0  0  0  0  0
  144.8900   74.6330  220.4540 C   0  0  0  0  0  0  0  0  0  0  0  0
  145.1830   73.4360  221.1040 C   0  0  0  0  0  0  0  0  0  0  0  0
  144.3080   72.3610  221.0790 C   0  0  0  0  0  0  0  0  0  0  0  0
  143.1060   72.4370  220.4020 C   0  0  0  0  0  0  0  0  0  0  0  0
  142.8010   73.6250  219.7490 C   0  0  0  0  0  0  0  0  0  0  0  0
  139.9210   71.9330  222.9990 C   0  0  0  0  0  0  0  0  0  0  0  0
  139.4900   70.6440  222.7870 C   0  0  0  0  0  0  0  0  0  0  0  0
  139.5310   69.6700  223.7740 C   0  0  0  0  0  0  0  0  0  0  0  0
  140.0320   70.0380  225.0150 C   0  0  0  0  0  0  0  0  0  0  0  0
  140.1090   69.1200  226.0660 C   0  0  0  0  0  0  0  0  0  0  0  0
  140.6180   69.5350  227.2920 C   0  0  0  0  0  0  0  0  0  0  0  0
  140.7190   68.3940  228.6130 Cl  0  0  0  0  0  0  0  0  0  0  0  0
  141.0520   70.8270  227.5070 C   0  0  0  0  0  0  0  0  0  0  0  0
  140.9680   71.7220  226.4560 C   0  0  0  0  0  0  0  0  0  0  0  0
  140.4600   71.3260  225.2200 C   0  0  0  0  0  0  0  0  0  0  0  0
  140.3960   72.2250  224.2230 N   0  0  0  0  0  0  0  0  0  0  0  0
  139.3780   74.5290  223.3120 H   0  0  0  0  0  0  0  0  0  0  0  0
  140.4503   75.2896  220.7040 H   0  0  0  0  0  0  0  0  0  0  0  0
  138.6701   75.0316  220.5686 H   0  0  0  0  0  0  0  0  0  0  0  0
  140.5008   77.9369  223.9673 H   0  0  0  0  0  0  0  0  0  0  0  0
  141.9431   77.1676  223.2586 H   0  0  0  0  0  0  0  0  0  0  0  0
  141.4636   79.9940  223.5577 H   0  0  0  0  0  0  0  0  0  0  0  0
  140.1510   80.0986  221.5459 H   0  0  0  0  0  0  0  0  0  0  0  0
  141.7619   80.2634  220.8543 H   0  0  0  0  0  0  0  0  0  0  0  0
  140.3806   78.3488  219.8097 H   0  0  0  0  0  0  0  0  0  0  0  0
  142.8459   78.2756  219.9197 H   0  0  0  0  0  0  0  0  0  0  0  0
  142.4937   77.0787  221.3331 H   0  0  0  0  0  0  0  0  0  0  0  0
  143.1058   75.7097  217.9807 H   0  0  0  0  0  0  0  0  0  0  0  0
  144.0707   76.7019  219.1511 H   0  0  0  0  0  0  0  0  0  0  0  0
  145.5833   75.4868  220.4739 H   0  0  0  0  0  0  0  0  0  0  0  0
  146.1327   73.3415  221.6509 H   0  0  0  0  0  0  0  0  0  0  0  0
  144.5748   71.4332  221.6063 H   0  0  0  0  0  0  0  0  0  0  0  0
  142.4122   71.5837  220.3806 H   0  0  0  0  0  0  0  0  0  0  0  0
  141.8521   73.7200  219.2007 H   0  0  0  0  0  0  0  0  0  0  0  0
  139.0972   70.3748  221.7954 H   0  0  0  0  0  0  0  0  0  0  0  0
  139.1800   68.6456  223.5806 H   0  0  0  0  0  0  0  0  0  0  0  0
  139.7714   68.0826  225.9254 H   0  0  0  0  0  0  0  0  0  0  0  0
  141.4524   71.1356  228.4840 H   0  0  0  0  0  0  0  0  0  0  0  0
  141.3063   72.7591  226.5973 H   0  0  0  0  0  0  0  0  0  0  0  0
  1  2  2  0
  2  3  1  0
  3  4  1  0
  4  5  1  0
  5  6  2  0
  5  7  1  0
  7  8  1  0
  8  9  1  0
  9 10  1  0
  9 11  1  0
 11 12  1  0
 12 13  1  0
 13 14  1  0
 14 15  1  0
 15 16  1  0
 16 17  2  0
 17 18  1  0
 18 19  2  0
 19 20  1  0
 20 21  2  0
  2 22  1  0
 22 23  2  0
 23 24  1  0
 24 25  2  0
 25 26  1  0
 26 27  2  0
 27 28  1  0
 27 29  1  0
 29 30  2  0
 30 31  1  0
 31 32  2  0
 12  7  1  0
 21 16  1  0
 32 22  1  0
 31 25  1  0
  3 33  1  0
  4 34  1  0
  4 35  1  0
  8 36  1  0
  8 37  1  0
  9 38  1  1
 11 39  1  0
 11 40  1  0
 12 41  1  6
 13 42  1  0
 13 43  1  0
 15 44  1  0
 15 45  1  0
 17 46  1  0
 18 47  1  0
 19 48  1  0
 20 49  1  0
 21 50  1  0
 23 51  1  0
 24 52  1  0
 26 53  1  0
 29 54  1  0
 30 55  1  0
M  END
>  <smiles>  (40) 
O=C(NCC(=O)N1C[C@@H](F)C[C@H]1COCc1ccccc1)c1ccc2cc(Cl)ccc2n1

>  <score_type>  (40) 
oracle

>  <origin>  (40) 
autodockgpu

>  <m_score__min__energy>  (40) 
-8.9600000000000009

>  <m_primary>  (40) 
energy

>  <rmsd>  (40) 
3.1414811424563616

>  <m_score__min__rmsd>  (40) 
3.1414811424563616

>  <meeko>  (40) 
{"free_energy": -8.31, "intermolecular_energy": -10.69, "internal_energy": -2.19, "cluster_size": 2, "cluster_id": 4, "rank_in_cluster": 1}

>  <energy>  (40) 
-7.49

>  <cluster_rmsd>  (40) 
1.35

>  <cluster>  (40) 
6

$$$$

     RDKit          3D

 55 58  0  0  0  0  0  0  0  0999 V2000
  138.2420   71.3760  221.1100 O   0  0  0  0  0  0  0  0  0  0  0  0
  138.7850   71.8760  222.1200 C   0  0  0  0  0  0  0  0  0  0  0  0
  139.1080   73.2560  222.2500 N   0  0  0  0  0  0  0  0  0  0  0  0
  138.7880   74.1320  221.1440 C   0  0  0  0  0  0  0  0  0  0  0  0
  139.0550   75.5350  221.5030 C   0  0  0  0  0  0  0  0  0  0  0  0
  139.9420   75.8000  222.3550 O   0  0  0  0  0  0  0  0  0  0  0  0
  138.2900   76.5440  220.8600 N   0  0  0  0  0  0  0  0  0  0  0  0
  137.4430   77.5720  221.4240 C   0  0  0  0  0  0  0  0  0  0  0  0
  136.4300   77.9320  220.3940 C   0  0  1  0  0  0  0  0  0  0  0  0
  136.5480   79.2380  220.0210 F   0  0  0  0  0  0  0  0  0  0  0  0
  136.7480   76.9730  219.2550 C   0  0  0  0  0  0  0  0  0  0  0  0
  138.2270   76.7290  219.3700 C   0  0  1  0  0  0  0  0  0  0  0  0
  139.1090   77.8840  219.0620 C   0  0  0  0  0  0  0  0  0  0  0  0
  140.0700   78.2660  219.9250 O   0  0  0  0  0  0  0  0  0  0  0  0
  140.1940   79.5530  220.2900 C   0  0  0  0  0  0  0  0  0  0  0  0
  141.0410   79.7000  221.5520 C   0  0  0  0  0  0  0  0  0  0  0  0
  142.1250   80.5490  221.5780 C   0  0  0  0  0  0  0  0  0  0  0  0
  142.8360   80.6160  222.7740 C   0  0  0  0  0  0  0  0  0  0  0  0
  142.4690   79.8660  223.8800 C   0  0  0  0  0  0  0  0  0  0  0  0
  141.3800   79.0180  223.8370 C   0  0  0  0  0  0  0  0  0  0  0  0
  140.6610   78.9420  222.6490 C   0  0  0  0  0  0  0  0  0  0  0  0
  139.1140   70.9900  223.2550 C   0  0  0  0  0  0  0  0  0  0  0  0
  138.8120   69.6480  223.2210 C   0  0  0  0  0  0  0  0  0  0  0  0
  139.1080   68.7880  224.2690 C   0  0  0  0  0  0  0  0  0  0  0  0
  139.7340   69.3300  225.3830 C   0  0  0  0  0  0  0  0  0  0  0  0
  140.0680   68.5350  226.4830 C   0  0  0  0  0  0  0  0  0  0  0  0
  140.6950   69.1220  227.5770 C   0  0  0  0  0  0  0  0  0  0  0  0
  141.1170   68.1370  228.9590 Cl  0  0  0  0  0  0  0  0  0  0  0  0
  141.0000   70.4670  227.6140 C   0  0  0  0  0  0  0  0  0  0  0  0
  140.6630   71.2390  226.5160 C   0  0  0  0  0  0  0  0  0  0  0  0
  140.0330   70.6690  225.4100 C   0  0  0  0  0  0  0  0  0  0  0  0
  139.7220   71.4520  224.3630 N   0  0  0  0  0  0  0  0  0  0  0  0
  139.5670   73.6190  223.1320 H   0  0  0  0  0  0  0  0  0  0  0  0
  139.4037   73.8573  220.2748 H   0  0  0  0  0  0  0  0  0  0  0  0
  137.7204   74.0238  220.9020 H   0  0  0  0  0  0  0  0  0  0  0  0
  136.9421   77.1925  222.3268 H   0  0  0  0  0  0  0  0  0  0  0  0
  138.0383   78.4528  221.7064 H   0  0  0  0  0  0  0  0  0  0  0  0
  135.3916   77.8402  220.7450 H   0  0  0  0  0  0  0  0  0  0  0  0
  136.1887   76.0329  219.3707 H   0  0  0  0  0  0  0  0  0  0  0  0
  136.4666   77.3817  218.2733 H   0  0  0  0  0  0  0  0  0  0  0  0
  138.5643   75.9377  218.6843 H   0  0  0  0  0  0  0  0  0  0  0  0
  139.6141   77.6491  218.1135 H   0  0  0  0  0  0  0  0  0  0  0  0
  138.4124   78.7352  219.0791 H   0  0  0  0  0  0  0  0  0  0  0  0
  140.6723   80.1116  219.4719 H   0  0  0  0  0  0  0  0  0  0  0  0
  139.1898   79.9491  220.5014 H   0  0  0  0  0  0  0  0  0  0  0  0
  142.4146   81.1439  220.6992 H   0  0  0  0  0  0  0  0  0  0  0  0
  143.7100   81.2804  222.8422 H   0  0  0  0  0  0  0  0  0  0  0  0
  143.0548   79.9475  224.8075 H   0  0  0  0  0  0  0  0  0  0  0  0
  141.0904   78.4215  224.7147 H   0  0  0  0  0  0  0  0  0  0  0  0
  139.7870   78.2777  222.5794 H   0  0  0  0  0  0  0  0  0  0  0  0
  138.3162   69.2407  222.3275 H   0  0  0  0  0  0  0  0  0  0  0  0
  138.8563   67.7183  224.2189 H   0  0  0  0  0  0  0  0  0  0  0  0
  139.8380   67.4593  226.4835 H   0  0  0  0  0  0  0  0  0  0  0  0
  141.4958   70.9120  228.4893 H   0  0  0  0  0  0  0  0  0  0  0  0
  140.8946   72.3143  226.5156 H   0  0  0  0  0  0  0  0  0  0  0  0
  1  2  2  0
  2  3  1  0
  3  4  1  0
  4  5  1  0
  5  6  2  0
  5  7  1  0
  7  8  1  0
  8  9  1  0
  9 10  1  0
  9 11  1  0
 11 12  1  0
 12 13  1  0
 13 14  1  0
 14 15  1  0
 15 16  1  0
 16 17  2  0
 17 18  1  0
 18 19  2  0
 19 20  1  0
 20 21  2  0
  2 22  1  0
 22 23  2  0
 23 24  1  0
 24 25  2  0
 25 26  1  0
 26 27  2  0
 27 28  1  0
 27 29  1  0
 29 30  2  0
 30 31  1  0
 31 32  2  0
 12  7  1  0
 21 16  1  0
 32 22  1  0
 31 25  1  0
  3 33  1  0
  4 34  1  0
  4 35  1  0
  8 36  1  0
  8 37  1  0
  9 38  1  1
 11 39  1  0
 11 40  1  0
 12 41  1  6
 13 42  1  0
 13 43  1  0
 15 44  1  0
 15 45  1  0
 17 46  1  0
 18 47  1  0
 19 48  1  0
 20 49  1  0
 21 50  1  0
 23 51  1  0
 24 52  1  0
 26 53  1  0
 29 54  1  0
 30 55  1  0
M  END
>  <smiles>  (41) 
O=C(NCC(=O)N1C[C@@H](F)C[C@H]1COCc1ccccc1)c1ccc2cc(Cl)ccc2n1

>  <score_type>  (41) 
oracle

>  <origin>  (41) 
autodockgpu

>  <m_score__min__energy>  (41) 
-8.9600000000000009

>  <m_primary>  (41) 
energy

>  <rmsd>  (41) 
2.579033360287738

>  <m_score__min__rmsd>  (41) 
2.579033360287738

>  <meeko>  (41) 
{"free_energy": -7.33, "intermolecular_energy": -9.72, "internal_energy": -2.36, "cluster_size": 3, "cluster_id": 6, "rank_in_cluster": 3}

>  <energy>  (41) 
-7.33

>  <cluster_rmsd>  (41) 
1.03

>  <cluster>  (41) 
6

$$$$

     RDKit          3D

 55 58  0  0  0  0  0  0  0  0999 V2000
  141.9100   73.0430  221.0700 O   0  0  0  0  0  0  0  0  0  0  0  0
  141.0830   73.8220  221.5940 C   0  0  0  0  0  0  0  0  0  0  0  0
  139.9670   73.3950  222.3690 N   0  0  0  0  0  0  0  0  0  0  0  0
  139.7810   71.9730  222.5590 C   0  0  0  0  0  0  0  0  0  0  0  0
  138.4470   71.5600  222.0940 C   0  0  0  0  0  0  0  0  0  0  0  0
  137.7350   72.3730  221.4480 O   0  0  0  0  0  0  0  0  0  0  0  0
  138.0140   70.2430  222.3980 N   0  0  0  0  0  0  0  0  0  0  0  0
  137.7550   69.1210  221.5220 C   0  0  0  0  0  0  0  0  0  0  0  0
  136.7730   68.2360  222.2070 C   0  0  1  0  0  0  0  0  0  0  0  0
  137.3040   67.0030  222.4480 F   0  0  0  0  0  0  0  0  0  0  0  0
  136.4670   68.9960  223.4900 C   0  0  0  0  0  0  0  0  0  0  0  0
  137.7310   69.7520  223.7900 C   0  0  1  0  0  0  0  0  0  0  0  0
  138.9070   68.9340  224.1850 C   0  0  0  0  0  0  0  0  0  0  0  0
  138.8400   68.0970  225.2380 O   0  0  0  0  0  0  0  0  0  0  0  0
  139.8390   68.0400  226.1350 C   0  0  0  0  0  0  0  0  0  0  0  0
  140.2400   69.4310  226.6200 C   0  0  0  0  0  0  0  0  0  0  0  0
  141.0930   70.2180  225.8770 C   0  0  0  0  0  0  0  0  0  0  0  0
  141.4000   71.4700  226.4020 C   0  0  0  0  0  0  0  0  0  0  0  0
  140.8740   71.9030  227.6100 C   0  0  0  0  0  0  0  0  0  0  0  0
  140.0210   71.1000  228.3430 C   0  0  0  0  0  0  0  0  0  0  0  0
  139.7050   69.8470  227.8310 C   0  0  0  0  0  0  0  0  0  0  0  0
  141.2650   75.2750  221.4050 C   0  0  0  0  0  0  0  0  0  0  0  0
  141.8760   75.7760  220.2790 C   0  0  0  0  0  0  0  0  0  0  0  0
  142.0630   77.1340  220.0700 C   0  0  0  0  0  0  0  0  0  0  0  0
  141.6040   78.0010  221.0540 C   0  0  0  0  0  0  0  0  0  0  0  0
  141.7510   79.3850  220.9240 C   0  0  0  0  0  0  0  0  0  0  0  0
  141.2760   80.2140  221.9350 C   0  0  0  0  0  0  0  0  0  0  0  0
  141.4550   81.9470  221.7820 Cl  0  0  0  0  0  0  0  0  0  0  0  0
  140.6610   79.7150  223.0650 C   0  0  0  0  0  0  0  0  0  0  0  0
  140.5240   78.3430  223.1760 C   0  0  0  0  0  0  0  0  0  0  0  0
  140.9950   77.4950  222.1740 C   0  0  0  0  0  0  0  0  0  0  0  0
  140.8420   76.1680  222.3190 N   0  0  0  0  0  0  0  0  0  0  0  0
  139.3020   74.1040  222.7860 H   0  0  0  0  0  0  0  0  0  0  0  0
  140.5477   71.4284  221.9884 H   0  0  0  0  0  0  0  0  0  0  0  0
  139.8706   71.7430  223.6310 H   0  0  0  0  0  0  0  0  0  0  0  0
  137.3382   69.4774  220.5685 H   0  0  0  0  0  0  0  0  0  0  0  0
  138.6851   68.5745  221.3070 H   0  0  0  0  0  0  0  0  0  0  0  0
  135.8704   68.0341  221.6115 H   0  0  0  0  0  0  0  0  0  0  0  0
  135.6258   69.6888  223.3403 H   0  0  0  0  0  0  0  0  0  0  0  0
  136.1743   68.3271  224.3128 H   0  0  0  0  0  0  0  0  0  0  0  0
  137.5965   70.4567  224.6238 H   0  0  0  0  0  0  0  0  0  0  0  0
  139.1699   68.3194  223.3114 H   0  0  0  0  0  0  0  0  0  0  0  0
  139.6312   69.6914  224.5195 H   0  0  0  0  0  0  0  0  0  0  0  0
  139.5101   67.4423  226.9979 H   0  0  0  0  0  0  0  0  0  0  0  0
  140.7121   67.5808  225.6483 H   0  0  0  0  0  0  0  0  0  0  0  0
  141.5097   69.8746  224.9187 H   0  0  0  0  0  0  0  0  0  0  0  0
  142.0775   72.1333  225.8442 H   0  0  0  0  0  0  0  0  0  0  0  0
  141.1397   72.9004  227.9903 H   0  0  0  0  0  0  0  0  0  0  0  0
  139.6049   71.4419  229.3021 H   0  0  0  0  0  0  0  0  0  0  0  0
  139.0281   69.1825  228.3880 H   0  0  0  0  0  0  0  0  0  0  0  0
  142.2307   75.0706  219.5131 H   0  0  0  0  0  0  0  0  0  0  0  0
  142.5553   77.5101  219.1610 H   0  0  0  0  0  0  0  0  0  0  0  0
  142.2358   79.8128  220.0341 H   0  0  0  0  0  0  0  0  0  0  0  0
  140.2911   80.3874  223.8531 H   0  0  0  0  0  0  0  0  0  0  0  0
  140.0377   77.9157  224.0653 H   0  0  0  0  0  0  0  0  0  0  0  0
  1  2  2  0
  2  3  1  0
  3  4  1  0
  4  5  1  0
  5  6  2  0
  5  7  1  0
  7  8  1  0
  8  9  1  0
  9 10  1  0
  9 11  1  0
 11 12  1  0
 12 13  1  0
 13 14  1  0
 14 15  1  0
 15 16  1  0
 16 17  2  0
 17 18  1  0
 18 19  2  0
 19 20  1  0
 20 21  2  0
  2 22  1  0
 22 23  2  0
 23 24  1  0
 24 25  2  0
 25 26  1  0
 26 27  2  0
 27 28  1  0
 27 29  1  0
 29 30  2  0
 30 31  1  0
 31 32  2  0
 12  7  1  0
 21 16  1  0
 32 22  1  0
 31 25  1  0
  3 33  1  0
  4 34  1  0
  4 35  1  0
  8 36  1  0
  8 37  1  0
  9 38  1  6
 11 39  1  0
 11 40  1  0
 12 41  1  1
 13 42  1  0
 13 43  1  0
 15 44  1  0
 15 45  1  0
 17 46  1  0
 18 47  1  0
 19 48  1  0
 20 49  1  0
 21 50  1  0
 23 51  1  0
 24 52  1  0
 26 53  1  0
 29 54  1  0
 30 55  1  0
M  END
>  <smiles>  (42) 
O=C(NCC(=O)N1C[C@@H](F)C[C@H]1COCc1ccccc1)c1ccc2cc(Cl)ccc2n1

>  <score_type>  (42) 
oracle

>  <origin>  (42) 
autodockgpu

>  <m_score__min__energy>  (42) 
-8.9600000000000009

>  <m_primary>  (42) 
energy

>  <rmsd>  (42) 
8.282486237295112

>  <m_score__min__rmsd>  (42) 
8.282486237295112

>  <meeko>  (42) 
{"free_energy": -8.72, "intermolecular_energy": -11.11, "internal_energy": -1.76, "cluster_size": 12, "cluster_id": 2, "rank_in_cluster": 1}

>  <energy>  (42) 
-7.9

>  <cluster_rmsd>  (42) 
0.0

>  <cluster>  (42) 
7

$$$$

     RDKit          3D

 55 58  0  0  0  0  0  0  0  0999 V2000
  136.6290   74.6020  221.3870 O   0  0  0  0  0  0  0  0  0  0  0  0
  137.7490   74.7240  221.9310 C   0  0  0  0  0  0  0  0  0  0  0  0
  138.5610   73.6280  222.3360 N   0  0  0  0  0  0  0  0  0  0  0  0
  138.0590   72.2910  222.1010 C   0  0  0  0  0  0  0  0  0  0  0  0
  139.0090   71.2870  222.6080 C   0  0  0  0  0  0  0  0  0  0  0  0
  140.1590   71.6460  222.9710 O   0  0  0  0  0  0  0  0  0  0  0  0
  138.5790   69.9350  222.6680 N   0  0  0  0  0  0  0  0  0  0  0  0
  139.2180   68.7310  222.1820 C   0  0  0  0  0  0  0  0  0  0  0  0
  138.1480   67.7290  221.9250 C   0  0  1  0  0  0  0  0  0  0  0  0
  138.3000   66.6300  222.7190 F   0  0  0  0  0  0  0  0  0  0  0  0
  136.8750   68.5010  222.2420 C   0  0  0  0  0  0  0  0  0  0  0  0
  137.2880   69.4910  223.2960 C   0  0  1  0  0  0  0  0  0  0  0  0
  137.6490   68.9260  224.6220 C   0  0  0  0  0  0  0  0  0  0  0  0
  138.9380   68.8080  224.9920 O   0  0  0  0  0  0  0  0  0  0  0  0
  139.2780   68.7500  226.2900 C   0  0  0  0  0  0  0  0  0  0  0  0
  140.0200   70.0090  226.7340 C   0  0  0  0  0  0  0  0  0  0  0  0
  139.9740   70.4290  228.0450 C   0  0  0  0  0  0  0  0  0  0  0  0
  140.6830   71.5870  228.3530 C   0  0  0  0  0  0  0  0  0  0  0  0
  141.3970   72.2820  227.3890 C   0  0  0  0  0  0  0  0  0  0  0  0
  141.4320   71.8470  226.0790 C   0  0  0  0  0  0  0  0  0  0  0  0
  140.7290   70.6910  225.7570 C   0  0  0  0  0  0  0  0  0  0  0  0
  138.2700   76.0840  222.1740 C   0  0  0  0  0  0  0  0  0  0  0  0
  137.4560   77.1880  222.0690 C   0  0  0  0  0  0  0  0  0  0  0  0
  137.9130   78.4790  222.2910 C   0  0  0  0  0  0  0  0  0  0  0  0
  139.2500   78.6340  222.6310 C   0  0  0  0  0  0  0  0  0  0  0  0
  139.7930   79.8990  222.8720 C   0  0  0  0  0  0  0  0  0  0  0  0
  141.1380   80.0040  223.2100 C   0  0  0  0  0  0  0  0  0  0  0  0
  141.8280   81.5830  223.5130 Cl  0  0  0  0  0  0  0  0  0  0  0  0
  141.9580   78.9000  223.3170 C   0  0  0  0  0  0  0  0  0  0  0  0
  141.4030   77.6560  223.0750 C   0  0  0  0  0  0  0  0  0  0  0  0
  140.0570   77.5290  222.7340 C   0  0  0  0  0  0  0  0  0  0  0  0
  139.5550   76.3020  222.5080 N   0  0  0  0  0  0  0  0  0  0  0  0
  139.5010   73.7960  222.7920 H   0  0  0  0  0  0  0  0  0  0  0  0
  137.0951   72.1703  222.6170 H   0  0  0  0  0  0  0  0  0  0  0  0
  137.9305   72.1444  221.0184 H   0  0  0  0  0  0  0  0  0  0  0  0
  139.7636   68.9450  221.2511 H   0  0  0  0  0  0  0  0  0  0  0  0
  139.9372   68.3487  222.9213 H   0  0  0  0  0  0  0  0  0  0  0  0
  138.1543   67.3299  220.9000 H   0  0  0  0  0  0  0  0  0  0  0  0
  136.5014   69.0194  221.3466 H   0  0  0  0  0  0  0  0  0  0  0  0
  136.0607   67.8439  222.5813 H   0  0  0  0  0  0  0  0  0  0  0  0
  136.4860   70.2112  223.5154 H   0  0  0  0  0  0  0  0  0  0  0  0
  137.1626   69.5612  225.3769 H   0  0  0  0  0  0  0  0  0  0  0  0
  137.3214   67.8792  224.5393 H   0  0  0  0  0  0  0  0  0  0  0  0
  138.3648   68.6423  226.8937 H   0  0  0  0  0  0  0  0  0  0  0  0
  139.9469   67.8884  226.4321 H   0  0  0  0  0  0  0  0  0  0  0  0
  139.4064   69.8779  228.8093 H   0  0  0  0  0  0  0  0  0  0  0  0
  140.6765   71.9600  229.3878 H   0  0  0  0  0  0  0  0  0  0  0  0
  141.9438   73.1936  227.6720 H   0  0  0  0  0  0  0  0  0  0  0  0
  141.9985   72.3978  225.3136 H   0  0  0  0  0  0  0  0  0  0  0  0
  140.7355   70.3162  224.7229 H   0  0  0  0  0  0  0  0  0  0  0  0
  136.4000   77.0413  221.7981 H   0  0  0  0  0  0  0  0  0  0  0  0
  137.2420   79.3460  222.2011 H   0  0  0  0  0  0  0  0  0  0  0  0
  139.1653   80.7991  222.7954 H   0  0  0  0  0  0  0  0  0  0  0  0
  143.0193   79.0053  223.5862 H   0  0  0  0  0  0  0  0  0  0  0  0
  142.0312   76.7563  223.1525 H   0  0  0  0  0  0  0  0  0  0  0  0
  1  2  2  0
  2  3  1  0
  3  4  1  0
  4  5  1  0
  5  6  2  0
  5  7  1  0
  7  8  1  0
  8  9  1  0
  9 10  1  0
  9 11  1  0
 11 12  1  0
 12 13  1  0
 13 14  1  0
 14 15  1  0
 15 16  1  0
 16 17  2  0
 17 18  1  0
 18 19  2  0
 19 20  1  0
 20 21  2  0
  2 22  1  0
 22 23  2  0
 23 24  1  0
 24 25  2  0
 25 26  1  0
 26 27  2  0
 27 28  1  0
 27 29  1  0
 29 30  2  0
 30 31  1  0
 31 32  2  0
 12  7  1  0
 21 16  1  0
 32 22  1  0
 31 25  1  0
  3 33  1  0
  4 34  1  0
  4 35  1  0
  8 36  1  0
  8 37  1  0
  9 38  1  6
 11 39  1  0
 11 40  1  0
 12 41  1  1
 13 42  1  0
 13 43  1  0
 15 44  1  0
 15 45  1  0
 17 46  1  0
 18 47  1  0
 19 48  1  0
 20 49  1  0
 21 50  1  0
 23 51  1  0
 24 52  1  0
 26 53  1  0
 29 54  1  0
 30 55  1  0
M  END
>  <smiles>  (43) 
O=C(NCC(=O)N1C[C@@H](F)C[C@H]1COCc1ccccc1)c1ccc2cc(Cl)ccc2n1

>  <score_type>  (43) 
oracle

>  <origin>  (43) 
autodockgpu

>  <m_score__min__energy>  (43) 
-8.9600000000000009

>  <m_primary>  (43) 
energy

>  <rmsd>  (43) 
8.173276303131706

>  <m_score__min__rmsd>  (43) 
8.173276303131706

>  <meeko>  (43) 
{"free_energy": -7.93, "intermolecular_energy": -10.32, "internal_energy": -2.44, "cluster_size": 12, "cluster_id": 2, "rank_in_cluster": 8}

>  <energy>  (43) 
-7.79

>  <cluster_rmsd>  (43) 
0.0

>  <cluster>  (43) 
8

$$$$

     RDKit          3D

 55 58  0  0  0  0  0  0  0  0999 V2000
  140.3220   72.1170  220.6710 O   0  0  0  0  0  0  0  0  0  0  0  0
  140.0540   72.5480  221.8150 C   0  0  0  0  0  0  0  0  0  0  0  0
  139.7720   73.9120  222.1060 N   0  0  0  0  0  0  0  0  0  0  0  0
  139.7960   74.8570  221.0100 C   0  0  0  0  0  0  0  0  0  0  0  0
  141.1830   75.1390  220.6030 C   0  0  0  0  0  0  0  0  0  0  0  0
  142.1310   74.5370  221.1700 O   0  0  0  0  0  0  0  0  0  0  0  0
  141.3930   76.0910  219.5700 N   0  0  0  0  0  0  0  0  0  0  0  0
  140.9650   76.0770  218.1890 C   0  0  0  0  0  0  0  0  0  0  0  0
  141.9190   76.9200  217.4170 C   0  0  1  0  0  0  0  0  0  0  0  0
  141.2880   77.9900  216.8530 F   0  0  0  0  0  0  0  0  0  0  0  0
  142.9350   77.3370  218.4710 C   0  0  0  0  0  0  0  0  0  0  0  0
  142.1520   77.3740  219.7550 C   0  0  1  0  0  0  0  0  0  0  0  0
  141.1280   78.4460  219.8670 C   0  0  0  0  0  0  0  0  0  0  0  0
  140.1170   78.3410  220.7500 O   0  0  0  0  0  0  0  0  0  0  0  0
  140.3600   78.0830  222.0460 C   0  0  0  0  0  0  0  0  0  0  0  0
  141.1270   79.2240  222.7120 C   0  0  0  0  0  0  0  0  0  0  0  0
  140.4590   80.2900  223.2720 C   0  0  0  0  0  0  0  0  0  0  0  0
  141.2450   81.2800  223.8560 C   0  0  0  0  0  0  0  0  0  0  0  0
  142.6290   81.1970  223.8710 C   0  0  0  0  0  0  0  0  0  0  0  0
  143.2830   80.1200  223.3040 C   0  0  0  0  0  0  0  0  0  0  0  0
  142.5110   79.1240  222.7170 C   0  0  0  0  0  0  0  0  0  0  0  0
  140.0270   71.5910  222.9400 C   0  0  0  0  0  0  0  0  0  0  0  0
  139.5040   70.3280  222.7870 C   0  0  0  0  0  0  0  0  0  0  0  0
  139.4630   69.4060  223.8230 C   0  0  0  0  0  0  0  0  0  0  0  0
  139.9770   69.8000  225.0510 C   0  0  0  0  0  0  0  0  0  0  0  0
  139.9750   68.9330  226.1470 C   0  0  0  0  0  0  0  0  0  0  0  0
  140.5010   69.3730  227.3580 C   0  0  0  0  0  0  0  0  0  0  0  0
  140.5040   68.2960  228.7360 Cl  0  0  0  0  0  0  0  0  0  0  0  0
  141.0270   70.6380  227.5140 C   0  0  0  0  0  0  0  0  0  0  0  0
  141.0210   71.4820  226.4170 C   0  0  0  0  0  0  0  0  0  0  0  0
  140.4970   71.0610  225.1960 C   0  0  0  0  0  0  0  0  0  0  0  0
  140.5100   71.9110  224.1540 N   0  0  0  0  0  0  0  0  0  0  0  0
  139.5530   74.2150  223.0960 H   0  0  0  0  0  0  0  0  0  0  0  0
  139.2467   74.4346  220.1557 H   0  0  0  0  0  0  0  0  0  0  0  0
  139.3237   75.7947  221.3381 H   0  0  0  0  0  0  0  0  0  0  0  0
  140.9761   75.0471  217.8027 H   0  0  0  0  0  0  0  0  0  0  0  0
  139.9406   76.4669  218.0966 H   0  0  0  0  0  0  0  0  0  0  0  0
  142.3829   76.3963  216.5682 H   0  0  0  0  0  0  0  0  0  0  0  0
  143.7522   76.6035  218.5349 H   0  0  0  0  0  0  0  0  0  0  0  0
  143.4048   78.3043  218.2395 H   0  0  0  0  0  0  0  0  0  0  0  0
  142.8041   77.5266  220.6276 H   0  0  0  0  0  0  0  0  0  0  0  0
  141.6679   79.3715  220.1160 H   0  0  0  0  0  0  0  0  0  0  0  0
  140.6125   78.3951  218.8966 H   0  0  0  0  0  0  0  0  0  0  0  0
  139.4018   77.9443  222.5682 H   0  0  0  0  0  0  0  0  0  0  0  0
  140.9754   77.1733  222.1063 H   0  0  0  0  0  0  0  0  0  0  0  0
  139.3611   80.3561  223.2587 H   0  0  0  0  0  0  0  0  0  0  0  0
  140.7553   82.1503  224.3173 H   0  0  0  0  0  0  0  0  0  0  0  0
  143.2150   82.0004  224.3412 H   0  0  0  0  0  0  0  0  0  0  0  0
  144.3809   80.0528  223.3167 H   0  0  0  0  0  0  0  0  0  0  0  0
  142.9991   78.2533  222.2547 H   0  0  0  0  0  0  0  0  0  0  0  0
  139.1026   70.0376  221.8049 H   0  0  0  0  0  0  0  0  0  0  0  0
  139.0395   68.4014  223.6770 H   0  0  0  0  0  0  0  0  0  0  0  0
  139.5635   67.9171  226.0538 H   0  0  0  0  0  0  0  0  0  0  0  0
  141.4385   70.9661  228.4799 H   0  0  0  0  0  0  0  0  0  0  0  0
  141.4347   72.4970  226.5099 H   0  0  0  0  0  0  0  0  0  0  0  0
  1  2  2  0
  2  3  1  0
  3  4  1  0
  4  5  1  0
  5  6  2  0
  5  7  1  0
  7  8  1  0
  8  9  1  0
  9 10  1  0
  9 11  1  0
 11 12  1  0
 12 13  1  0
 13 14  1  0
 14 15  1  0
 15 16  1  0
 16 17  2  0
 17 18  1  0
 18 19  2  0
 19 20  1  0
 20 21  2  0
  2 22  1  0
 22 23  2  0
 23 24  1  0
 24 25  2  0
 25 26  1  0
 26 27  2  0
 27 28  1  0
 27 29  1  0
 29 30  2  0
 30 31  1  0
 31 32  2  0
 12  7  1  0
 21 16  1  0
 32 22  1  0
 31 25  1  0
  3 33  1  0
  4 34  1  0
  4 35  1  0
  8 36  1  0
  8 37  1  0
  9 38  1  6
 11 39  1  0
 11 40  1  0
 12 41  1  1
 13 42  1  0
 13 43  1  0
 15 44  1  0
 15 45  1  0
 17 46  1  0
 18 47  1  0
 19 48  1  0
 20 49  1  0
 21 50  1  0
 23 51  1  0
 24 52  1  0
 26 53  1  0
 29 54  1  0
 30 55  1  0
M  END
>  <smiles>  (44) 
O=C(NCC(=O)N1C[C@@H](F)C[C@H]1COCc1ccccc1)c1ccc2cc(Cl)ccc2n1

>  <score_type>  (44) 
oracle

>  <origin>  (44) 
autodockgpu

>  <m_score__min__energy>  (44) 
-8.9600000000000009

>  <m_primary>  (44) 
energy

>  <rmsd>  (44) 
1.664818624249698

>  <m_score__min__rmsd>  (44) 
1.664818624249698

>  <meeko>  (44) 
{"free_energy": -8.35, "intermolecular_energy": -10.74, "internal_energy": -1.78, "cluster_size": 18, "cluster_id": 3, "rank_in_cluster": 1}

>  <energy>  (44) 
-7.22

>  <cluster_rmsd>  (44) 
0.0

>  <cluster>  (44) 
9

$$$$

     RDKit          3D

 55 58  0  0  0  0  0  0  0  0999 V2000
  138.1270   71.2590  220.6690 O   0  0  0  0  0  0  0  0  0  0  0  0
  138.5100   71.8620  221.6960 C   0  0  0  0  0  0  0  0  0  0  0  0
  138.6340   73.2760  221.7900 N   0  0  0  0  0  0  0  0  0  0  0  0
  138.2960   74.0640  220.6240 C   0  0  0  0  0  0  0  0  0  0  0  0
  139.3730   73.9940  219.6230 C   0  0  0  0  0  0  0  0  0  0  0  0
  139.2300   73.2690  218.6050 O   0  0  0  0  0  0  0  0  0  0  0  0
  140.5460   74.7620  219.8530 N   0  0  0  0  0  0  0  0  0  0  0  0
  141.1090   75.8540  219.0900 C   0  0  0  0  0  0  0  0  0  0  0  0
  142.5720   75.8820  219.3630 C   0  0  1  0  0  0  0  0  0  0  0  0
  142.9400   77.0530  219.9570 F   0  0  0  0  0  0  0  0  0  0  0  0
  142.7710   74.6820  220.2780 C   0  0  0  0  0  0  0  0  0  0  0  0
  141.4690   74.5540  221.0200 C   0  0  1  0  0  0  0  0  0  0  0  0
  141.1580   75.6360  221.9890 C   0  0  0  0  0  0  0  0  0  0  0  0
  139.9000   75.8220  222.4320 O   0  0  0  0  0  0  0  0  0  0  0  0
  139.4460   77.0540  222.7160 C   0  0  0  0  0  0  0  0  0  0  0  0
  140.5120   78.1180  222.4630 C   0  0  0  0  0  0  0  0  0  0  0  0
  140.6370   78.7130  221.2270 C   0  0  0  0  0  0  0  0  0  0  0  0
  141.6380   79.6710  221.0940 C   0  0  0  0  0  0  0  0  0  0  0  0
  142.4670   80.0090  222.1530 C   0  0  0  0  0  0  0  0  0  0  0  0
  142.3290   79.4030  223.3860 C   0  0  0  0  0  0  0  0  0  0  0  0
  141.3340   78.4440  223.5330 C   0  0  0  0  0  0  0  0  0  0  0  0
  138.8580   71.0670  222.8910 C   0  0  0  0  0  0  0  0  0  0  0  0
  138.4490   69.7600  223.0210 C   0  0  0  0  0  0  0  0  0  0  0  0
  138.7580   68.9850  224.1290 C   0  0  0  0  0  0  0  0  0  0  0  0
  139.5130   69.5780  225.1330 C   0  0  0  0  0  0  0  0  0  0  0  0
  139.8690   68.8700  226.2840 C   0  0  0  0  0  0  0  0  0  0  0  0
  140.6260   69.5060  227.2620 C   0  0  0  0  0  0  0  0  0  0  0  0
  141.0770   68.6290  228.7070 Cl  0  0  0  0  0  0  0  0  0  0  0  0
  141.0390   70.8160  227.1360 C   0  0  0  0  0  0  0  0  0  0  0  0
  140.6760   71.5020  225.9900 C   0  0  0  0  0  0  0  0  0  0  0  0
  139.9180   70.8820  224.9970 C   0  0  0  0  0  0  0  0  0  0  0  0
  139.5870   71.5820  223.8980 N   0  0  0  0  0  0  0  0  0  0  0  0
  138.9650   73.7270  222.6880 H   0  0  0  0  0  0  0  0  0  0  0  0
  137.3661   73.6763  220.1825 H   0  0  0  0  0  0  0  0  0  0  0  0
  138.1631   75.1122  220.9300 H   0  0  0  0  0  0  0  0  0  0  0  0
  140.9301   75.6938  218.0165 H   0  0  0  0  0  0  0  0  0  0  0  0
  140.6427   76.8082  219.3766 H   0  0  0  0  0  0  0  0  0  0  0  0
  143.1912   75.8272  218.4555 H   0  0  0  0  0  0  0  0  0  0  0  0
  142.9745   73.7746  219.6904 H   0  0  0  0  0  0  0  0  0  0  0  0
  143.6278   74.8104  220.9558 H   0  0  0  0  0  0  0  0  0  0  0  0
  141.4284   73.6319  221.6184 H   0  0  0  0  0  0  0  0  0  0  0  0
  141.7796   75.4503  222.8773 H   0  0  0  0  0  0  0  0  0  0  0  0
  141.3501   76.5492  221.4066 H   0  0  0  0  0  0  0  0  0  0  0  0
  138.5718   77.2670  222.0833 H   0  0  0  0  0  0  0  0  0  0  0  0
  139.1760   77.0840  223.7819 H   0  0  0  0  0  0  0  0  0  0  0  0
  139.9789   78.4446  220.3874 H   0  0  0  0  0  0  0  0  0  0  0  0
  141.7749   80.1725  220.1246 H   0  0  0  0  0  0  0  0  0  0  0  0
  143.2465   80.7716  222.0086 H   0  0  0  0  0  0  0  0  0  0  0  0
  142.9865   79.6711  224.2262 H   0  0  0  0  0  0  0  0  0  0  0  0
  141.1972   77.9410  224.5016 H   0  0  0  0  0  0  0  0  0  0  0  0
  137.8525   69.3111  222.2131 H   0  0  0  0  0  0  0  0  0  0  0  0
  138.4185   67.9418  224.2095 H   0  0  0  0  0  0  0  0  0  0  0  0
  139.5548   67.8240  226.4147 H   0  0  0  0  0  0  0  0  0  0  0  0
  141.6379   71.3002  227.9214 H   0  0  0  0  0  0  0  0  0  0  0  0
  140.9891   72.5486  225.8609 H   0  0  0  0  0  0  0  0  0  0  0  0
  1  2  2  0
  2  3  1  0
  3  4  1  0
  4  5  1  0
  5  6  2  0
  5  7  1  0
  7  8  1  0
  8  9  1  0
  9 10  1  0
  9 11  1  0
 11 12  1  0
 12 13  1  0
 13 14  1  0
 14 15  1  0
 15 16  1  0
 16 17  2  0
 17 18  1  0
 18 19  2  0
 19 20  1  0
 20 21  2  0
  2 22  1  0
 22 23  2  0
 23 24  1  0
 24 25  2  0
 25 26  1  0
 26 27  2  0
 27 28  1  0
 27 29  1  0
 29 30  2  0
 30 31  1  0
 31 32  2  0
 12  7  1  0
 21 16  1  0
 32 22  1  0
 31 25  1  0
  3 33  1  0
  4 34  1  0
  4 35  1  0
  8 36  1  0
  8 37  1  0
  9 38  1  6
 11 39  1  0
 11 40  1  0
 12 41  1  1
 13 42  1  0
 13 43  1  0
 15 44  1  0
 15 45  1  0
 17 46  1  0
 18 47  1  0
 19 48  1  0
 20 49  1  0
 21 50  1  0
 23 51  1  0
 24 52  1  0
 26 53  1  0
 29 54  1  0
 30 55  1  0
M  END
>  <smiles>  (45) 
O=C(NCC(=O)N1C[C@@H](F)C[C@H]1COCc1ccccc1)c1ccc2cc(Cl)ccc2n1

>  <score_type>  (45) 
oracle

>  <origin>  (45) 
autodockgpu

>  <m_score__min__energy>  (45) 
-8.9600000000000009

>  <m_primary>  (45) 
energy

>  <rmsd>  (45) 
2.0521050415093787

>  <m_score__min__rmsd>  (45) 
2.0521050415093787

>  <meeko>  (45) 
{"free_energy": -7.46, "intermolecular_energy": -9.85, "internal_energy": -2.84, "cluster_size": 18, "cluster_id": 3, "rank_in_cluster": 16}

>  <energy>  (45) 
-6.88

>  <cluster_rmsd>  (45) 
0.0

>  <cluster>  (45) 
10

$$$$

     RDKit          3D

 55 58  0  0  0  0  0  0  0  0999 V2000
  139.9740   74.1020  222.0490 O   0  0  0  0  0  0  0  0  0  0  0  0
  140.4210   72.9490  221.8600 C   0  0  0  0  0  0  0  0  0  0  0  0
  141.0340   72.5210  220.6490 N   0  0  0  0  0  0  0  0  0  0  0  0
  141.1450   73.4810  219.5720 C   0  0  0  0  0  0  0  0  0  0  0  0
  142.3990   74.2440  219.6890 C   0  0  0  0  0  0  0  0  0  0  0  0
  142.3540   75.4860  219.8900 O   0  0  0  0  0  0  0  0  0  0  0  0
  143.6230   73.5350  219.5690 N   0  0  0  0  0  0  0  0  0  0  0  0
  144.5810   73.1520  220.5830 C   0  0  0  0  0  0  0  0  0  0  0  0
  145.9060   73.0130  219.9180 C   0  0  1  0  0  0  0  0  0  0  0  0
  146.3730   71.7360  220.0130 F   0  0  0  0  0  0  0  0  0  0  0  0
  145.6080   73.4150  218.4800 C   0  0  0  0  0  0  0  0  0  0  0  0
  144.1720   73.0210  218.2690 C   0  0  1  0  0  0  0  0  0  0  0  0
  143.8890   71.5630  218.2490 C   0  0  0  0  0  0  0  0  0  0  0  0
  142.9840   71.0270  219.0900 O   0  0  0  0  0  0  0  0  0  0  0  0
  143.3690   70.2130  220.0870 C   0  0  0  0  0  0  0  0  0  0  0  0
  144.0880   68.9750  219.5560 C   0  0  0  0  0  0  0  0  0  0  0  0
  145.4440   68.9980  219.3120 C   0  0  0  0  0  0  0  0  0  0  0  0
  146.0090   67.8200  218.8290 C   0  0  0  0  0  0  0  0  0  0  0  0
  145.2460   66.6850  218.6050 C   0  0  0  0  0  0  0  0  0  0  0  0
  143.8880   66.6790  218.8550 C   0  0  0  0  0  0  0  0  0  0  0  0
  143.3100   67.8480  219.3370 C   0  0  0  0  0  0  0  0  0  0  0  0
  140.3120   71.9630  222.9540 C   0  0  0  0  0  0  0  0  0  0  0  0
  139.7730   70.7150  222.7360 C   0  0  0  0  0  0  0  0  0  0  0  0
  139.6560   69.7660  223.7400 C   0  0  0  0  0  0  0  0  0  0  0  0
  140.1080   70.1150  225.0060 C   0  0  0  0  0  0  0  0  0  0  0  0
  140.0280   69.2180  226.0750 C   0  0  0  0  0  0  0  0  0  0  0  0
  140.4940   69.6120  227.3250 C   0  0  0  0  0  0  0  0  0  0  0  0
  140.3980   68.4980  228.6700 Cl  0  0  0  0  0  0  0  0  0  0  0  0
  141.0350   70.8620  227.5470 C   0  0  0  0  0  0  0  0  0  0  0  0
  141.1060   71.7360  226.4770 C   0  0  0  0  0  0  0  0  0  0  0  0
  140.6440   71.3600  225.2160 C   0  0  0  0  0  0  0  0  0  0  0  0
  140.7320   72.2380  224.2020 N   0  0  0  0  0  0  0  0  0  0  0  0
  141.3920   71.5300  220.5500 H   0  0  0  0  0  0  0  0  0  0  0  0
  141.1337   72.9484  218.6096 H   0  0  0  0  0  0  0  0  0  0  0  0
  140.2969   74.1792  219.6288 H   0  0  0  0  0  0  0  0  0  0  0  0
  144.6317   73.9259  221.3630 H   0  0  0  0  0  0  0  0  0  0  0  0
  144.2847   72.2049  221.0576 H   0  0  0  0  0  0  0  0  0  0  0  0
  146.6957   73.6289  220.3731 H   0  0  0  0  0  0  0  0  0  0  0  0
  145.7378   74.4989  218.3444 H   0  0  0  0  0  0  0  0  0  0  0  0
  146.2849   72.9301  217.7612 H   0  0  0  0  0  0  0  0  0  0  0  0
  143.7852   73.3870  217.3065 H   0  0  0  0  0  0  0  0  0  0  0  0
  143.5522   71.3222  217.2299 H   0  0  0  0  0  0  0  0  0  0  0  0
  144.8363   71.1244  218.5960 H   0  0  0  0  0  0  0  0  0  0  0  0
  144.0496   70.7626  220.7539 H   0  0  0  0  0  0  0  0  0  0  0  0
  142.4701   69.8831  220.6284 H   0  0  0  0  0  0  0  0  0  0  0  0
  146.0487   69.8996  219.4894 H   0  0  0  0  0  0  0  0  0  0  0  0
  147.0885   67.7898  218.6200 H   0  0  0  0  0  0  0  0  0  0  0  0
  145.7299   65.7744  218.2220 H   0  0  0  0  0  0  0  0  0  0  0  0
  143.2826   65.7777  218.6784 H   0  0  0  0  0  0  0  0  0  0  0  0
  142.2304   67.8792  219.5457 H   0  0  0  0  0  0  0  0  0  0  0  0
  139.4212   70.4607  221.7252 H   0  0  0  0  0  0  0  0  0  0  0  0
  139.2220   68.7749  223.5415 H   0  0  0  0  0  0  0  0  0  0  0  0
  139.6023   68.2142  225.9297 H   0  0  0  0  0  0  0  0  0  0  0  0
  141.3983   71.1542  228.5433 H   0  0  0  0  0  0  0  0  0  0  0  0
  141.5320   72.7397  226.6226 H   0  0  0  0  0  0  0  0  0  0  0  0
  1  2  2  0
  2  3  1  0
  3  4  1  0
  4  5  1  0
  5  6  2  0
  5  7  1  0
  7  8  1  0
  8  9  1  0
  9 10  1  0
  9 11  1  0
 11 12  1  0
 12 13  1  0
 13 14  1  0
 14 15  1  0
 15 16  1  0
 16 17  2  0
 17 18  1  0
 18 19  2  0
 19 20  1  0
 20 21  2  0
  2 22  1  0
 22 23  2  0
 23 24  1  0
 24 25  2  0
 25 26  1  0
 26 27  2  0
 27 28  1  0
 27 29  1  0
 29 30  2  0
 30 31  1  0
 31 32  2  0
 12  7  1  0
 21 16  1  0
 32 22  1  0
 31 25  1  0
  3 33  1  0
  4 34  1  0
  4 35  1  0
  8 36  1  0
  8 37  1  0
  9 38  1  1
 11 39  1  0
 11 40  1  0
 12 41  1  6
 13 42  1  0
 13 43  1  0
 15 44  1  0
 15 45  1  0
 17 46  1  0
 18 47  1  0
 19 48  1  0
 20 49  1  0
 21 50  1  0
 23 51  1  0
 24 52  1  0
 26 53  1  0
 29 54  1  0
 30 55  1  0
M  END
>  <smiles>  (46) 
O=C(NCC(=O)N1C[C@@H](F)C[C@H]1COCc1ccccc1)c1ccc2cc(Cl)ccc2n1

>  <score_type>  (46) 
oracle

>  <origin>  (46) 
autodockgpu

>  <m_score__min__energy>  (46) 
-8.9600000000000009

>  <m_primary>  (46) 
energy

>  <rmsd>  (46) 
4.0342208688894114

>  <m_score__min__rmsd>  (46) 
4.0342208688894114

>  <meeko>  (46) 
{"free_energy": -7.28, "intermolecular_energy": -9.67, "internal_energy": -2.53, "cluster_size": 2, "cluster_id": 5, "rank_in_cluster": 2}

>  <energy>  (46) 
-6.79

>  <cluster_rmsd>  (46) 
0.98

>  <cluster>  (46) 
10

$$$$

     RDKit          3D

 55 58  0  0  0  0  0  0  0  0999 V2000
  133.1270   69.9060  226.0980 O   0  0  0  0  0  0  0  0  0  0  0  0
  133.2380   70.9800  225.4670 C   0  0  0  0  0  0  0  0  0  0  0  0
  133.7240   71.0740  224.1320 N   0  0  0  0  0  0  0  0  0  0  0  0
  134.1120   69.8490  223.4670 C   0  0  0  0  0  0  0  0  0  0  0  0
  135.1740   69.1650  224.2230 C   0  0  0  0  0  0  0  0  0  0  0  0
  134.8920   68.1520  224.9140 O   0  0  0  0  0  0  0  0  0  0  0  0
  136.4930   69.6860  224.1360 N   0  0  0  0  0  0  0  0  0  0  0  0
  136.9510   71.0550  224.0570 C   0  0  0  0  0  0  0  0  0  0  0  0
  138.2750   71.0450  223.3770 C   0  0  1  0  0  0  0  0  0  0  0  0
  139.2550   71.5200  224.1990 F   0  0  0  0  0  0  0  0  0  0  0  0
  138.4700   69.5750  223.0340 C   0  0  0  0  0  0  0  0  0  0  0  0
  137.7310   68.8350  224.1140 C   0  0  1  0  0  0  0  0  0  0  0  0
  138.3110   68.9150  225.4790 C   0  0  0  0  0  0  0  0  0  0  0  0
  138.9890   67.8760  226.0010 O   0  0  0  0  0  0  0  0  0  0  0  0
  140.2270   68.0420  226.4960 C   0  0  0  0  0  0  0  0  0  0  0  0
  140.4880   69.4960  226.8810 C   0  0  0  0  0  0  0  0  0  0  0  0
  140.0440   69.9990  228.0840 C   0  0  0  0  0  0  0  0  0  0  0  0
  140.3310   71.3360  228.3450 C   0  0  0  0  0  0  0  0  0  0  0  0
  141.0280   72.1210  227.4400 C   0  0  0  0  0  0  0  0  0  0  0  0
  141.4660   71.6020  226.2370 C   0  0  0  0  0  0  0  0  0  0  0  0
  141.1860   70.2680  225.9630 C   0  0  0  0  0  0  0  0  0  0  0  0
  132.8440   72.2360  226.1380 C   0  0  0  0  0  0  0  0  0  0  0  0
  131.8210   72.2610  227.0570 C   0  0  0  0  0  0  0  0  0  0  0  0
  131.4260   73.4220  227.7050 C   0  0  0  0  0  0  0  0  0  0  0  0
  132.1080   74.5910  227.3950 C   0  0  0  0  0  0  0  0  0  0  0  0
  131.7750   75.8050  228.0010 C   0  0  0  0  0  0  0  0  0  0  0  0
  132.4870   76.9500  227.6590 C   0  0  0  0  0  0  0  0  0  0  0  0
  132.0780   78.4750  228.4120 Cl  0  0  0  0  0  0  0  0  0  0  0  0
  133.5140   76.9290  226.7390 C   0  0  0  0  0  0  0  0  0  0  0  0
  133.8300   75.7170  226.1480 C   0  0  0  0  0  0  0  0  0  0  0  0
  133.1280   74.5590  226.4780 C   0  0  0  0  0  0  0  0  0  0  0  0
  133.4650   73.4010  225.8830 N   0  0  0  0  0  0  0  0  0  0  0  0
  133.7940   72.0140  223.6520 H   0  0  0  0  0  0  0  0  0  0  0  0
  133.2376   69.1860  223.3909 H   0  0  0  0  0  0  0  0  0  0  0  0
  134.4912   70.0939  222.4639 H   0  0  0  0  0  0  0  0  0  0  0  0
  136.2358   71.6575  223.4778 H   0  0  0  0  0  0  0  0  0  0  0  0
  137.0348   71.4942  225.0620 H   0  0  0  0  0  0  0  0  0  0  0  0
  138.3209   71.6945  222.4904 H   0  0  0  0  0  0  0  0  0  0  0  0
  138.0449   69.3467  222.0455 H   0  0  0  0  0  0  0  0  0  0  0  0
  139.5325   69.2941  222.9864 H   0  0  0  0  0  0  0  0  0  0  0  0
  137.6747   67.7564  223.9053 H   0  0  0  0  0  0  0  0  0  0  0  0
  139.0016   69.7712  225.4769 H   0  0  0  0  0  0  0  0  0  0  0  0
  137.4193   68.9721  226.1205 H   0  0  0  0  0  0  0  0  0  0  0  0
  140.3421   67.4101  227.3890 H   0  0  0  0  0  0  0  0  0  0  0  0
  140.9499   67.7572  225.7174 H   0  0  0  0  0  0  0  0  0  0  0  0
  139.4907   69.3759  228.8020 H   0  0  0  0  0  0  0  0  0  0  0  0
  139.9960   71.7808  229.2937 H   0  0  0  0  0  0  0  0  0  0  0  0
  141.2356   73.1735  227.6834 H   0  0  0  0  0  0  0  0  0  0  0  0
  142.0190   72.2247  225.5184 H   0  0  0  0  0  0  0  0  0  0  0  0
  141.5193   69.8224  225.0141 H   0  0  0  0  0  0  0  0  0  0  0  0
  131.2951   71.3227  227.2873 H   0  0  0  0  0  0  0  0  0  0  0  0
  130.6042   73.4168  228.4362 H   0  0  0  0  0  0  0  0  0  0  0  0
  130.9606   75.8547  228.7388 H   0  0  0  0  0  0  0  0  0  0  0  0
  134.0649   77.8460  226.4826 H   0  0  0  0  0  0  0  0  0  0  0  0
  134.6441   75.6677  225.4099 H   0  0  0  0  0  0  0  0  0  0  0  0
  1  2  2  0
  2  3  1  0
  3  4  1  0
  4  5  1  0
  5  6  2  0
  5  7  1  0
  7  8  1  0
  8  9  1  0
  9 10  1  0
  9 11  1  0
 11 12  1  0
 12 13  1  0
 13 14  1  0
 14 15  1  0
 15 16  1  0
 16 17  2  0
 17 18  1  0
 18 19  2  0
 19 20  1  0
 20 21  2  0
  2 22  1  0
 22 23  2  0
 23 24  1  0
 24 25  2  0
 25 26  1  0
 26 27  2  0
 27 28  1  0
 27 29  1  0
 29 30  2  0
 30 31  1  0
 31 32  2  0
 12  7  1  0
 21 16  1  0
 32 22  1  0
 31 25  1  0
  3 33  1  0
  4 34  1  0
  4 35  1  0
  8 36  1  0
  8 37  1  0
  9 38  1  6
 11 39  1  0
 11 40  1  0
 12 41  1  6
 13 42  1  0
 13 43  1  0
 15 44  1  0
 15 45  1  0
 17 46  1  0
 18 47  1  0
 19 48  1  0
 20 49  1  0
 21 50  1  0
 23 51  1  0
 24 52  1  0
 26 53  1  0
 29 54  1  0
 30 55  1  0
M  END
>  <smiles>  (47) 
O=C(NCC(=O)N1C[C@@H](F)C[C@H]1COCc1ccccc1)c1ccc2cc(Cl)ccc2n1

>  <score_type>  (47) 
oracle

>  <origin>  (47) 
autodockgpu

>  <m_score__min__energy>  (47) 
-8.9600000000000009

>  <m_primary>  (47) 
energy

>  <rmsd>  (47) 
8.590670548631818

>  <m_score__min__rmsd>  (47) 
8.590670548631818

>  <meeko>  (47) 
{"free_energy": -8.96, "intermolecular_energy": -11.35, "internal_energy": -1.83, "cluster_size": 4, "cluster_id": 1, "rank_in_cluster": 1}

>  <energy>  (47) 
-6.47

>  <cluster_rmsd>  (47) 
0.0

>  <cluster>  (47) 
11

$$$$

     RDKit          3D

 55 58  0  0  0  0  0  0  0  0999 V2000
  137.0360   71.2890  221.2580 O   0  0  0  0  0  0  0  0  0  0  0  0
  137.7710   71.8340  222.1120 C   0  0  0  0  0  0  0  0  0  0  0  0
  138.1720   73.1980  222.0640 N   0  0  0  0  0  0  0  0  0  0  0  0
  137.6980   74.0030  220.9580 C   0  0  0  0  0  0  0  0  0  0  0  0
  137.4160   75.3780  221.4050 C   0  0  0  0  0  0  0  0  0  0  0  0
  136.2230   75.7680  221.4980 O   0  0  0  0  0  0  0  0  0  0  0  0
  138.5190   76.2150  221.7180 N   0  0  0  0  0  0  0  0  0  0  0  0
  138.6400   77.2680  222.7020 C   0  0  0  0  0  0  0  0  0  0  0  0
  139.6940   78.2060  222.2280 C   0  0  1  0  0  0  0  0  0  0  0  0
  140.7420   78.2520  223.1000 F   0  0  0  0  0  0  0  0  0  0  0  0
  140.0890   77.6190  220.8800 C   0  0  0  0  0  0  0  0  0  0  0  0
  139.8510   76.1410  221.0280 C   0  0  1  0  0  0  0  0  0  0  0  0
  140.7580   75.4210  221.9590 C   0  0  0  0  0  0  0  0  0  0  0  0
  140.7560   74.0760  222.0180 O   0  0  0  0  0  0  0  0  0  0  0  0
  141.1400   73.3400  220.9620 C   0  0  0  0  0  0  0  0  0  0  0  0
  142.6470   73.4330  220.7310 C   0  0  0  0  0  0  0  0  0  0  0  0
  143.2410   74.6390  220.4270 C   0  0  0  0  0  0  0  0  0  0  0  0
  144.6190   74.6220  220.2340 C   0  0  0  0  0  0  0  0  0  0  0  0
  145.3560   73.4530  220.3410 C   0  0  0  0  0  0  0  0  0  0  0  0
  144.7450   72.2520  220.6460 C   0  0  0  0  0  0  0  0  0  0  0  0
  143.3680   72.2530  220.8410 C   0  0  0  0  0  0  0  0  0  0  0  0
  138.2590   71.0200  223.2440 C   0  0  0  0  0  0  0  0  0  0  0  0
  137.8620   69.7130  223.4040 C   0  0  0  0  0  0  0  0  0  0  0  0
  138.3010   68.9210  224.4550 C   0  0  0  0  0  0  0  0  0  0  0  0
  139.1770   69.4960  225.3660 C   0  0  0  0  0  0  0  0  0  0  0  0
  139.6680   68.7700  226.4540 C   0  0  0  0  0  0  0  0  0  0  0  0
  140.5430   69.3890  227.3410 C   0  0  0  0  0  0  0  0  0  0  0  0
  141.1650   68.4890  228.7060 Cl  0  0  0  0  0  0  0  0  0  0  0  0
  140.9450   70.6990  227.1830 C   0  0  0  0  0  0  0  0  0  0  0  0
  140.4480   71.4030  226.1000 C   0  0  0  0  0  0  0  0  0  0  0  0
  139.5690   70.8010  225.2000 C   0  0  0  0  0  0  0  0  0  0  0  0
  139.1090   71.5170  224.1600 N   0  0  0  0  0  0  0  0  0  0  0  0
  138.7960   73.6010  222.8170 H   0  0  0  0  0  0  0  0  0  0  0  0
  138.4677   74.0283  220.1726 H   0  0  0  0  0  0  0  0  0  0  0  0
  136.7711   73.5589  220.5661 H   0  0  0  0  0  0  0  0  0  0  0  0
  137.6822   77.7995  222.8027 H   0  0  0  0  0  0  0  0  0  0  0  0
  138.9066   76.8508  223.6843 H   0  0  0  0  0  0  0  0  0  0  0  0
  139.3544   79.2495  222.1512 H   0  0  0  0  0  0  0  0  0  0  0  0
  139.4634   78.0350  220.0765 H   0  0  0  0  0  0  0  0  0  0  0  0
  141.1307   77.8500  220.6124 H   0  0  0  0  0  0  0  0  0  0  0  0
  139.9656   75.6108  220.0711 H   0  0  0  0  0  0  0  0  0  0  0  0
  141.7825   75.7224  221.6953 H   0  0  0  0  0  0  0  0  0  0  0  0
  140.3737   75.7103  222.9483 H   0  0  0  0  0  0  0  0  0  0  0  0
  140.8705   72.2889  221.1424 H   0  0  0  0  0  0  0  0  0  0  0  0
  140.6299   73.7280  220.0680 H   0  0  0  0  0  0  0  0  0  0  0  0
  142.6562   75.5667  220.3414 H   0  0  0  0  0  0  0  0  0  0  0  0
  145.1371   75.5612  219.9900 H   0  0  0  0  0  0  0  0  0  0  0  0
  146.4439   73.4819  220.1807 H   0  0  0  0  0  0  0  0  0  0  0  0
  145.3294   71.3240  220.7319 H   0  0  0  0  0  0  0  0  0  0  0  0
  142.8484   71.3142  221.0835 H   0  0  0  0  0  0  0  0  0  0  0  0
  137.1685   69.2782  222.6691 H   0  0  0  0  0  0  0  0  0  0  0  0
  137.9681   67.8781  224.5625 H   0  0  0  0  0  0  0  0  0  0  0  0
  139.3668   67.7232  226.6072 H   0  0  0  0  0  0  0  0  0  0  0  0
  141.6388   71.1693  227.8953 H   0  0  0  0  0  0  0  0  0  0  0  0
  140.7498   72.4497  225.9473 H   0  0  0  0  0  0  0  0  0  0  0  0
  1  2  2  0
  2  3  1  0
  3  4  1  0
  4  5  1  0
  5  6  2  0
  5  7  1  0
  7  8  1  0
  8  9  1  0
  9 10  1  0
  9 11  1  0
 11 12  1  0
 12 13  1  0
 13 14  1  0
 14 15  1  0
 15 16  1  0
 16 17  2  0
 17 18  1  0
 18 19  2  0
 19 20  1  0
 20 21  2  0
  2 22  1  0
 22 23  2  0
 23 24  1  0
 24 25  2  0
 25 26  1  0
 26 27  2  0
 27 28  1  0
 27 29  1  0
 29 30  2  0
 30 31  1  0
 31 32  2  0
 12  7  1  0
 21 16  1  0
 32 22  1  0
 31 25  1  0
  3 33  1  0
  4 34  1  0
  4 35  1  0
  8 36  1  0
  8 37  1  0
  9 38  1  6
 11 39  1  0
 11 40  1  0
 12 41  1  6
 13 42  1  0
 13 43  1  0
 15 44  1  0
 15 45  1  0
 17 46  1  0
 18 47  1  0
 19 48  1  0
 20 49  1  0
 21 50  1  0
 23 51  1  0
 24 52  1  0
 26 53  1  0
 29 54  1  0
 30 55  1  0
M  END
>  <smiles>  (48) 
O=C(NCC(=O)N1C[C@@H](F)C[C@H]1COCc1ccccc1)c1ccc2cc(Cl)ccc2n1

>  <score_type>  (48) 
oracle

>  <origin>  (48) 
autodockgpu

>  <m_score__min__energy>  (48) 
-8.9600000000000009

>  <m_primary>  (48) 
energy

>  <rmsd>  (48) 
2.5592169399373743

>  <m_score__min__rmsd>  (48) 
2.5592169399373743

>  <meeko>  (48) 
{"free_energy": -7.74, "intermolecular_energy": -10.13, "internal_energy": -2.66, "cluster_size": 2, "cluster_id": 4, "rank_in_cluster": 2}

>  <energy>  (48) 
-6.47

>  <cluster_rmsd>  (48) 
0.32

>  <cluster>  (48) 
11

$$$$

     RDKit          3D

 55 58  0  0  0  0  0  0  0  0999 V2000
  138.6240   72.8390  221.0270 O   0  0  0  0  0  0  0  0  0  0  0  0
  139.6160   72.8740  221.7890 C   0  0  0  0  0  0  0  0  0  0  0  0
  140.6940   73.7920  221.6520 N   0  0  0  0  0  0  0  0  0  0  0  0
  140.6380   74.7430  220.5630 C   0  0  0  0  0  0  0  0  0  0  0  0
  141.9950   75.0970  220.1160 C   0  0  0  0  0  0  0  0  0  0  0  0
  142.9750   74.8800  220.8750 O   0  0  0  0  0  0  0  0  0  0  0  0
  142.1430   75.6760  218.8280 N   0  0  0  0  0  0  0  0  0  0  0  0
  141.3510   75.4990  217.6310 C   0  0  0  0  0  0  0  0  0  0  0  0
  142.2300   75.7910  216.4660 C   0  0  1  0  0  0  0  0  0  0  0  0
  141.7650   76.8570  215.7520 F   0  0  0  0  0  0  0  0  0  0  0  0
  143.5760   76.0730  217.1170 C   0  0  0  0  0  0  0  0  0  0  0  0
  143.2300   76.6470  218.4640 C   0  0  1  0  0  0  0  0  0  0  0  0
  142.5970   77.9920  218.4610 C   0  0  0  0  0  0  0  0  0  0  0  0
  141.7460   78.3530  219.4390 O   0  0  0  0  0  0  0  0  0  0  0  0
  141.7790   79.5920  219.9560 C   0  0  0  0  0  0  0  0  0  0  0  0
  141.8040   79.5640  221.4830 C   0  0  0  0  0  0  0  0  0  0  0  0
  142.2110   80.6660  222.2020 C   0  0  0  0  0  0  0  0  0  0  0  0
  142.2000   80.5440  223.5890 C   0  0  0  0  0  0  0  0  0  0  0  0
  141.8000   79.3730  224.2130 C   0  0  0  0  0  0  0  0  0  0  0  0
  141.3950   78.2760  223.4770 C   0  0  0  0  0  0  0  0  0  0  0  0
  141.4020   78.3840  222.0910 C   0  0  0  0  0  0  0  0  0  0  0  0
  139.6820   71.9070  222.9040 C   0  0  0  0  0  0  0  0  0  0  0  0
  139.1230   70.6540  222.7940 C   0  0  0  0  0  0  0  0  0  0  0  0
  139.1680   69.7230  223.8210 C   0  0  0  0  0  0  0  0  0  0  0  0
  139.8080   70.0960  224.9950 C   0  0  0  0  0  0  0  0  0  0  0  0
  139.8990   69.2190  226.0800 C   0  0  0  0  0  0  0  0  0  0  0  0
  140.5510   69.6370  227.2350 C   0  0  0  0  0  0  0  0  0  0  0  0
  140.6700   68.5470  228.5980 Cl  0  0  0  0  0  0  0  0  0  0  0  0
  141.1130   70.8920  227.3490 C   0  0  0  0  0  0  0  0  0  0  0  0
  141.0130   71.7470  226.2650 C   0  0  0  0  0  0  0  0  0  0  0  0
  140.3640   71.3470  225.0980 C   0  0  0  0  0  0  0  0  0  0  0  0
  140.2890   72.2060  224.0670 N   0  0  0  0  0  0  0  0  0  0  0  0
  141.5060   73.7710  222.3300 H   0  0  0  0  0  0  0  0  0  0  0  0
  140.0847   74.2985  219.7226 H   0  0  0  0  0  0  0  0  0  0  0  0
  140.1302   75.6540  220.9126 H   0  0  0  0  0  0  0  0  0  0  0  0
  140.9830   74.4640  217.5738 H   0  0  0  0  0  0  0  0  0  0  0  0
  140.4813   76.1725  217.6387 H   0  0  0  0  0  0  0  0  0  0  0  0
  142.2797   74.9711  215.7343 H   0  0  0  0  0  0  0  0  0  0  0  0
  144.1566   75.1452  217.2272 H   0  0  0  0  0  0  0  0  0  0  0  0
  144.1956   76.7564  216.5177 H   0  0  0  0  0  0  0  0  0  0  0  0
  144.1206   76.7662  219.0985 H   0  0  0  0  0  0  0  0  0  0  0  0
  143.4170   78.7252  218.4715 H   0  0  0  0  0  0  0  0  0  0  0  0
  141.9489   77.9560  217.5730 H   0  0  0  0  0  0  0  0  0  0  0  0
  142.6815   80.1060  219.5936 H   0  0  0  0  0  0  0  0  0  0  0  0
  140.8697   80.1223  219.6366 H   0  0  0  0  0  0  0  0  0  0  0  0
  142.5285   81.5950  221.7059 H   0  0  0  0  0  0  0  0  0  0  0  0
  142.5168   81.3986  224.2049 H   0  0  0  0  0  0  0  0  0  0  0  0
  141.8050   79.3160  225.3115 H   0  0  0  0  0  0  0  0  0  0  0  0
  141.0771   77.3466  223.9721 H   0  0  0  0  0  0  0  0  0  0  0  0
  141.0872   77.5297  221.4737 H   0  0  0  0  0  0  0  0  0  0  0  0
  138.6207   70.3802  221.8544 H   0  0  0  0  0  0  0  0  0  0  0  0
  138.7140   68.7273  223.7095 H   0  0  0  0  0  0  0  0  0  0  0  0
  139.4607   68.2118  226.0208 H   0  0  0  0  0  0  0  0  0  0  0  0
  141.6243   71.2032  228.2719 H   0  0  0  0  0  0  0  0  0  0  0  0
  141.4510   72.7543  226.3252 H   0  0  0  0  0  0  0  0  0  0  0  0
  1  2  2  0
  2  3  1  0
  3  4  1  0
  4  5  1  0
  5  6  2  0
  5  7  1  0
  7  8  1  0
  8  9  1  0
  9 10  1  0
  9 11  1  0
 11 12  1  0
 12 13  1  0
 13 14  1  0
 14 15  1  0
 15 16  1  0
 16 17  2  0
 17 18  1  0
 18 19  2  0
 19 20  1  0
 20 21  2  0
  2 22  1  0
 22 23  2  0
 23 24  1  0
 24 25  2  0
 25 26  1  0
 26 27  2  0
 27 28  1  0
 27 29  1  0
 29 30  2  0
 30 31  1  0
 31 32  2  0
 12  7  1  0
 21 16  1  0
 32 22  1  0
 31 25  1  0
  3 33  1  0
  4 34  1  0
  4 35  1  0
  8 36  1  0
  8 37  1  0
  9 38  1  6
 11 39  1  0
 11 40  1  0
 12 41  1  1
 13 42  1  0
 13 43  1  0
 15 44  1  0
 15 45  1  0
 17 46  1  0
 18 47  1  0
 19 48  1  0
 20 49  1  0
 21 50  1  0
 23 51  1  0
 24 52  1  0
 26 53  1  0
 29 54  1  0
 30 55  1  0
M  END
>  <smiles>  (49) 
O=C(NCC(=O)N1C[C@@H](F)C[C@H]1COCc1ccccc1)c1ccc2cc(Cl)ccc2n1

>  <score_type>  (49) 
oracle

>  <origin>  (49) 
autodockgpu

>  <m_score__min__energy>  (49) 
-8.9600000000000009

>  <m_primary>  (49) 
energy

>  <rmsd>  (49) 
2.2382930870807907

>  <m_score__min__rmsd>  (49) 
2.2382930870807907

>  <meeko>  (49) 
{"free_energy": -7.63, "intermolecular_energy": -10.02, "internal_energy": -2.21, "cluster_size": 18, "cluster_id": 3, "rank_in_cluster": 11}

>  <energy>  (49) 
-6.46

>  <cluster_rmsd>  (49) 
0.47

>  <cluster>  (49) 
11

$$$$

     RDKit          3D

 55 58  0  0  0  0  0  0  0  0999 V2000
  136.3290   75.2370  221.5030 O   0  0  0  0  0  0  0  0  0  0  0  0
  137.4700   75.2140  222.0160 C   0  0  0  0  0  0  0  0  0  0  0  0
  138.1960   74.0210  222.2900 N   0  0  0  0  0  0  0  0  0  0  0  0
  137.5740   72.7590  221.9530 C   0  0  0  0  0  0  0  0  0  0  0  0
  138.1020   71.6800  222.8040 C   0  0  0  0  0  0  0  0  0  0  0  0
  139.2370   71.8060  223.3350 O   0  0  0  0  0  0  0  0  0  0  0  0
  137.2960   70.5270  222.9950 N   0  0  0  0  0  0  0  0  0  0  0  0
  136.7480   69.6020  222.0270 C   0  0  0  0  0  0  0  0  0  0  0  0
  135.5310   68.9930  222.6300 C   0  0  1  0  0  0  0  0  0  0  0  0
  135.6730   67.6440  222.7710 F   0  0  0  0  0  0  0  0  0  0  0  0
  135.4200   69.7070  223.9690 C   0  0  0  0  0  0  0  0  0  0  0  0
  136.8400   70.0350  224.3400 C   0  0  1  0  0  0  0  0  0  0  0  0
  137.7150   68.8800  224.6730 C   0  0  0  0  0  0  0  0  0  0  0  0
  139.0490   68.9590  224.5110 O   0  0  0  0  0  0  0  0  0  0  0  0
  139.8840   68.6160  225.5060 C   0  0  0  0  0  0  0  0  0  0  0  0
  140.2760   69.8240  226.3540 C   0  0  0  0  0  0  0  0  0  0  0  0
  139.8160   69.9590  227.6460 C   0  0  0  0  0  0  0  0  0  0  0  0
  140.2280   71.0940  228.3380 C   0  0  0  0  0  0  0  0  0  0  0  0
  141.0580   72.0400  227.7560 C   0  0  0  0  0  0  0  0  0  0  0  0
  141.5090   71.8910  226.4590 C   0  0  0  0  0  0  0  0  0  0  0  0
  141.1060   70.7610  225.7560 C   0  0  0  0  0  0  0  0  0  0  0  0
  138.1130   76.4980  222.3640 C   0  0  0  0  0  0  0  0  0  0  0  0
  137.3670   77.6370  222.5620 C   0  0  0  0  0  0  0  0  0  0  0  0
  137.9390   78.8580  222.8900 C   0  0  0  0  0  0  0  0  0  0  0  0
  139.3210   78.9030  223.0150 C   0  0  0  0  0  0  0  0  0  0  0  0
  139.9790   80.0920  223.3420 C   0  0  0  0  0  0  0  0  0  0  0  0
  141.3650   80.0890  223.4570 C   0  0  0  0  0  0  0  0  0  0  0  0
  142.1980   81.5710  223.8660 Cl  0  0  0  0  0  0  0  0  0  0  0  0
  142.1160   78.9490  223.2590 C   0  0  0  0  0  0  0  0  0  0  0  0
  141.4480   77.7810  222.9360 C   0  0  0  0  0  0  0  0  0  0  0  0
  140.0590   77.7630  222.8160 C   0  0  0  0  0  0  0  0  0  0  0  0
  139.4470   76.6090  222.5010 N   0  0  0  0  0  0  0  0  0  0  0  0
  139.1590   74.0680  222.7270 H   0  0  0  0  0  0  0  0  0  0  0  0
  136.4873   72.8396  222.1033 H   0  0  0  0  0  0  0  0  0  0  0  0
  137.7952   72.5231  220.9016 H   0  0  0  0  0  0  0  0  0  0  0  0
  136.4819   70.1380  221.1040 H   0  0  0  0  0  0  0  0  0  0  0  0
  137.4846   68.8256  221.7726 H   0  0  0  0  0  0  0  0  0  0  0  0
  134.6272   69.1109  222.0142 H   0  0  0  0  0  0  0  0  0  0  0  0
  134.8217   70.6249  223.8717 H   0  0  0  0  0  0  0  0  0  0  0  0
  134.9203   69.0911  224.7312 H   0  0  0  0  0  0  0  0  0  0  0  0
  136.8907   70.6815  225.2285 H   0  0  0  0  0  0  0  0  0  0  0  0
  137.5405   68.6495  225.7343 H   0  0  0  0  0  0  0  0  0  0  0  0
  137.4216   68.1271  223.9266 H   0  0  0  0  0  0  0  0  0  0  0  0
  139.3871   67.8747  226.1492 H   0  0  0  0  0  0  0  0  0  0  0  0
  140.7984   68.1989  225.0588 H   0  0  0  0  0  0  0  0  0  0  0  0
  139.1571   69.2083  228.1066 H   0  0  0  0  0  0  0  0  0  0  0  0
  139.8866   71.2444  229.3728 H   0  0  0  0  0  0  0  0  0  0  0  0
  141.3622   72.9234  228.3366 H   0  0  0  0  0  0  0  0  0  0  0  0
  142.1661   72.6424  225.9969 H   0  0  0  0  0  0  0  0  0  0  0  0
  141.4468   70.6094  224.7212 H   0  0  0  0  0  0  0  0  0  0  0  0
  136.2737   77.5774  222.4561 H   0  0  0  0  0  0  0  0  0  0  0  0
  137.3216   79.7551  223.0449 H   0  0  0  0  0  0  0  0  0  0  0  0
  139.4082   81.0179  223.5062 H   0  0  0  0  0  0  0  0  0  0  0  0
  143.2116   78.9678  223.3549 H   0  0  0  0  0  0  0  0  0  0  0  0
  142.0196   76.8556  222.7720 H   0  0  0  0  0  0  0  0  0  0  0  0
  1  2  2  0
  2  3  1  0
  3  4  1  0
  4  5  1  0
  5  6  2  0
  5  7  1  0
  7  8  1  0
  8  9  1  0
  9 10  1  0
  9 11  1  0
 11 12  1  0
 12 13  1  0
 13 14  1  0
 14 15  1  0
 15 16  1  0
 16 17  2  0
 17 18  1  0
 18 19  2  0
 19 20  1  0
 20 21  2  0
  2 22  1  0
 22 23  2  0
 23 24  1  0
 24 25  2  0
 25 26  1  0
 26 27  2  0
 27 28  1  0
 27 29  1  0
 29 30  2  0
 30 31  1  0
 31 32  2  0
 12  7  1  0
 21 16  1  0
 32 22  1  0
 31 25  1  0
  3 33  1  0
  4 34  1  0
  4 35  1  0
  8 36  1  0
  8 37  1  0
  9 38  1  6
 11 39  1  0
 11 40  1  0
 12 41  1  1
 13 42  1  0
 13 43  1  0
 15 44  1  0
 15 45  1  0
 17 46  1  0
 18 47  1  0
 19 48  1  0
 20 49  1  0
 21 50  1  0
 23 51  1  0
 24 52  1  0
 26 53  1  0
 29 54  1  0
 30 55  1  0
M  END
>  <smiles>  (50) 
O=C(NCC(=O)N1C[C@@H](F)C[C@H]1COCc1ccccc1)c1ccc2cc(Cl)ccc2n1

>  <score_type>  (50) 
oracle

>  <origin>  (50) 
autodockgpu

>  <m_score__min__energy>  (50) 
-8.9600000000000009

>  <m_primary>  (50) 
energy

>  <rmsd>  (50) 
8.341797937866085

>  <m_score__min__rmsd>  (50) 
8.341797937866085

>  <meeko>  (50) 
{"free_energy": -7.88, "intermolecular_energy": -10.26, "internal_energy": -2.26, "cluster_size": 12, "cluster_id": 2, "rank_in_cluster": 9}

>  <energy>  (50) 
-6.39

>  <cluster_rmsd>  (50) 
0.2

>  <cluster>  (50) 
11

$$$$
