
     RDKit          3D

 51 54  0  0  0  0  0  0  0  0999 V2000
  136.8680   77.3030  222.4200 O   0  0  0  0  0  0  0  0  0  0  0  0
  138.1280   77.1520  222.4160 C   0  0  0  0  0  0  0  0  0  0  0  0
  138.7530   75.9300  222.0450 N   0  0  0  0  0  0  0  0  0  0  0  0
  137.9950   74.7750  221.6450 C   0  0  0  0  0  0  0  0  0  0  0  0
  138.8740   73.5730  221.6990 C   0  0  0  0  0  0  0  0  0  0  0  0
  139.9620   73.7200  222.3440 O   0  0  0  0  0  0  0  0  0  0  0  0
  138.5180   72.3500  221.0710 N   0  0  0  0  0  0  0  0  0  0  0  0
  137.9390   72.2870  219.7190 C   0  0  0  0  0  0  0  0  0  0  0  0
  137.5280   70.8250  219.5580 C   0  0  0  0  0  0  0  0  0  0  0  0
  138.6590   70.1660  220.3590 C   0  0  0  0  0  0  0  0  0  0  0  0
  138.6490   71.0260  221.6070 C   0  0  1  0  0  0  0  0  0  0  0  0
  139.8890   70.7920  222.4190 C   0  0  0  0  0  0  0  0  0  0  0  0
  139.6600   71.4080  223.7340 N   0  0  0  0  0  0  0  0  0  0  0  0
  140.0020   70.7020  224.9230 C   0  0  0  0  0  0  0  0  0  0  0  0
  139.7400   69.3970  225.0910 N   0  0  0  0  0  0  0  0  0  0  0  0
  140.0450   68.6930  226.1950 C   0  0  0  0  0  0  0  0  0  0  0  0
  140.6700   69.3330  227.2380 C   0  0  0  0  0  0  0  0  0  0  0  0
  141.0760   68.4380  228.6790 Cl  0  0  0  0  0  0  0  0  0  0  0  0
  140.9520   70.6820  227.0840 C   0  0  0  0  0  0  0  0  0  0  0  0
  140.6220   71.3340  225.9550 N   0  0  0  0  0  0  0  0  0  0  0  0
  138.9810   78.2910  222.8120 C   0  0  0  0  0  0  0  0  0  0  0  0
  138.4130   79.4220  223.3560 C   0  0  0  0  0  0  0  0  0  0  0  0
  139.2590   80.4730  223.7160 C   0  0  0  0  0  0  0  0  0  0  0  0
  140.6350   80.3720  223.5270 C   0  0  0  0  0  0  0  0  0  0  0  0
  141.4840   81.4070  223.8800 C   0  0  0  0  0  0  0  0  0  0  0  0
  142.8440   81.2710  223.6780 C   0  0  0  0  0  0  0  0  0  0  0  0
  143.3630   80.1150  223.1290 C   0  0  0  0  0  0  0  0  0  0  0  0
  142.5100   79.0710  222.7720 C   0  0  0  0  0  0  0  0  0  0  0  0
  141.1510   79.2350  222.9870 C   0  0  0  0  0  0  0  0  0  0  0  0
  140.3280   78.2300  222.6440 N   0  0  0  0  0  0  0  0  0  0  0  0
  139.8020   75.8980  222.0710 H   0  0  0  0  0  0  0  0  0  0  0  0
  137.1428   74.6392  222.3272 H   0  0  0  0  0  0  0  0  0  0  0  0
  137.6198   74.9143  220.6204 H   0  0  0  0  0  0  0  0  0  0  0  0
  137.0649   72.9497  219.6372 H   0  0  0  0  0  0  0  0  0  0  0  0
  138.6446   72.6154  218.9416 H   0  0  0  0  0  0  0  0  0  0  0  0
  136.5400   70.6238  219.9978 H   0  0  0  0  0  0  0  0  0  0  0  0
  137.4189   70.4765  218.5204 H   0  0  0  0  0  0  0  0  0  0  0  0
  138.4346   69.1139  220.5887 H   0  0  0  0  0  0  0  0  0  0  0  0
  139.6268   70.1247  219.8378 H   0  0  0  0  0  0  0  0  0  0  0  0
  137.8413   70.8085  222.3214 H   0  0  0  0  0  0  0  0  0  0  0  0
  140.0687   69.7128  222.5328 H   0  0  0  0  0  0  0  0  0  0  0  0
  140.7704   71.2292  221.9272 H   0  0  0  0  0  0  0  0  0  0  0  0
  139.2520   72.3530  223.8460 H   0  0  0  0  0  0  0  0  0  0  0  0
  139.7985   67.6231  226.2622 H   0  0  0  0  0  0  0  0  0  0  0  0
  141.4532   71.2270  227.8975 H   0  0  0  0  0  0  0  0  0  0  0  0
  137.3252   79.4950  223.5025 H   0  0  0  0  0  0  0  0  0  0  0  0
  138.8347   81.3890  224.1529 H   0  0  0  0  0  0  0  0  0  0  0  0
  141.0787   82.3310  224.3182 H   0  0  0  0  0  0  0  0  0  0  0  0
  143.5205   82.0922  223.9574 H   0  0  0  0  0  0  0  0  0  0  0  0
  144.4476   80.0178  222.9735 H   0  0  0  0  0  0  0  0  0  0  0  0
  142.9050   78.1434  222.3321 H   0  0  0  0  0  0  0  0  0  0  0  0
  1  2  2  0
  2  3  1  0
  3  4  1  0
  4  5  1  0
  5  6  2  0
  5  7  1  0
  7  8  1  0
  8  9  1  0
  9 10  1  0
 10 11  1  0
 11 12  1  0
 12 13  1  0
 13 14  1  0
 14 15  2  0
 15 16  1  0
 16 17  2  0
 17 18  1  0
 17 19  1  0
 19 20  2  0
  2 21  1  0
 21 22  2  0
 22 23  1  0
 23 24  2  0
 24 25  1  0
 25 26  2  0
 26 27  1  0
 27 28  2  0
 28 29  1  0
 29 30  2  0
 11  7  1  0
 20 14  1  0
 30 21  1  0
 29 24  1  0
  3 31  1  0
  4 32  1  0
  4 33  1  0
  8 34  1  0
  8 35  1  0
  9 36  1  0
  9 37  1  0
 10 38  1  0
 10 39  1  0
 11 40  1  1
 12 41  1  0
 12 42  1  0
 13 43  1  0
 16 44  1  0
 19 45  1  0
 22 46  1  0
 23 47  1  0
 25 48  1  0
 26 49  1  0
 27 50  1  0
 28 51  1  0
M  END
>  <smiles>  (1) 
O=C(NCC(=O)N1CCC[C@H]1CNc1ncc(Cl)cn1)c1ccc2ccccc2n1

>  <score_type>  (1) 
oracle

>  <origin>  (1) 
autodockgpu

>  <m_score__min__energy>  (1) 
-8.8699999999999992

>  <m_primary>  (1) 
energy

>  <rmsd>  (1) 
8.179575498439771

>  <m_score__min__rmsd>  (1) 
8.179575498439771

>  <meeko>  (1) 
{"free_energy": -7.6, "intermolecular_energy": -9.69, "internal_energy": -2.55, "cluster_size": 10, "cluster_id": 4, "rank_in_cluster": 8}

>  <energy>  (1) 
-8.87

>  <cluster_rmsd>  (1) 
0.0

>  <cluster>  (1) 
1

$$$$

     RDKit          3D

 51 54  0  0  0  0  0  0  0  0999 V2000
  138.9640   75.0740  221.3600 O   0  0  0  0  0  0  0  0  0  0  0  0
  140.1010   75.5800  221.6080 C   0  0  0  0  0  0  0  0  0  0  0  0
  141.3190   74.8920  221.3530 N   0  0  0  0  0  0  0  0  0  0  0  0
  141.3450   73.5680  220.7920 C   0  0  0  0  0  0  0  0  0  0  0  0
  140.6920   72.6240  221.7410 C   0  0  0  0  0  0  0  0  0  0  0  0
  140.6430   73.0130  222.9530 O   0  0  0  0  0  0  0  0  0  0  0  0
  140.1630   71.3750  221.3200 N   0  0  0  0  0  0  0  0  0  0  0  0
  140.9060   70.4480  220.4500 C   0  0  0  0  0  0  0  0  0  0  0  0
  139.8830   69.3710  220.0950 C   0  0  0  0  0  0  0  0  0  0  0  0
  139.1000   69.3360  221.4140 C   0  0  0  0  0  0  0  0  0  0  0  0
  138.8810   70.8180  221.6430 C   0  0  1  0  0  0  0  0  0  0  0  0
  138.4180   71.0720  223.0480 C   0  0  0  0  0  0  0  0  0  0  0  0
  138.1910   69.7580  223.6660 N   0  0  0  0  0  0  0  0  0  0  0  0
  138.8870   69.4000  224.8570 C   0  0  0  0  0  0  0  0  0  0  0  0
  138.9110   68.1460  225.3330 N   0  0  0  0  0  0  0  0  0  0  0  0
  139.5530   67.7650  226.4510 C   0  0  0  0  0  0  0  0  0  0  0  0
  140.2420   68.7100  227.1740 C   0  0  0  0  0  0  0  0  0  0  0  0
  141.0830   68.2370  228.6270 Cl  0  0  0  0  0  0  0  0  0  0  0  0
  140.2310   70.0130  226.6990 C   0  0  0  0  0  0  0  0  0  0  0  0
  139.5690   70.3330  225.5740 N   0  0  0  0  0  0  0  0  0  0  0  0
  140.1640   76.9390  222.1850 C   0  0  0  0  0  0  0  0  0  0  0  0
  139.0110   77.5610  222.6110 C   0  0  0  0  0  0  0  0  0  0  0  0
  139.1200   78.8450  223.1500 C   0  0  0  0  0  0  0  0  0  0  0  0
  140.3610   79.4700  223.2490 C   0  0  0  0  0  0  0  0  0  0  0  0
  140.4810   80.7420  223.7810 C   0  0  0  0  0  0  0  0  0  0  0  0
  141.7290   81.3300  223.8630 C   0  0  0  0  0  0  0  0  0  0  0  0
  142.8540   80.6620  223.4210 C   0  0  0  0  0  0  0  0  0  0  0  0
  142.7360   79.3810  222.8850 C   0  0  0  0  0  0  0  0  0  0  0  0
  141.4720   78.8160  222.8150 C   0  0  0  0  0  0  0  0  0  0  0  0
  141.3570   77.5810  222.2980 N   0  0  0  0  0  0  0  0  0  0  0  0
  142.2130   75.3900  221.5890 H   0  0  0  0  0  0  0  0  0  0  0  0
  140.8024   73.5626  219.8351 H   0  0  0  0  0  0  0  0  0  0  0  0
  142.3865   73.2589  220.6194 H   0  0  0  0  0  0  0  0  0  0  0  0
  141.2620   70.9621  219.5450 H   0  0  0  0  0  0  0  0  0  0  0  0
  141.8012   70.0358  220.9385 H   0  0  0  0  0  0  0  0  0  0  0  0
  139.2487   69.6687  219.2471 H   0  0  0  0  0  0  0  0  0  0  0  0
  140.3044   68.4082  219.7704 H   0  0  0  0  0  0  0  0  0  0  0  0
  138.1475   68.7963  221.3069 H   0  0  0  0  0  0  0  0  0  0  0  0
  139.6108   68.8150  222.2372 H   0  0  0  0  0  0  0  0  0  0  0  0
  138.0873   71.2753  221.0340 H   0  0  0  0  0  0  0  0  0  0  0  0
  139.1881   71.6247  223.6061 H   0  0  0  0  0  0  0  0  0  0  0  0
  137.4985   71.6757  223.0568 H   0  0  0  0  0  0  0  0  0  0  0  0
  137.5360   69.0590  223.2730 H   0  0  0  0  0  0  0  0  0  0  0  0
  139.5275   66.7161  226.7814 H   0  0  0  0  0  0  0  0  0  0  0  0
  140.7719   70.7958  227.2510 H   0  0  0  0  0  0  0  0  0  0  0  0
  138.0343   77.0617  222.5292 H   0  0  0  0  0  0  0  0  0  0  0  0
  138.2174   79.3676  223.4996 H   0  0  0  0  0  0  0  0  0  0  0  0
  139.5900   81.2808  224.1358 H   0  0  0  0  0  0  0  0  0  0  0  0
  141.8273   82.3411  224.2849 H   0  0  0  0  0  0  0  0  0  0  0  0
  143.8420   81.1404  223.4919 H   0  0  0  0  0  0  0  0  0  0  0  0
  143.6207   78.8337  222.5276 H   0  0  0  0  0  0  0  0  0  0  0  0
  1  2  2  0
  2  3  1  0
  3  4  1  0
  4  5  1  0
  5  6  2  0
  5  7  1  0
  7  8  1  0
  8  9  1  0
  9 10  1  0
 10 11  1  0
 11 12  1  0
 12 13  1  0
 13 14  1  0
 14 15  2  0
 15 16  1  0
 16 17  2  0
 17 18  1  0
 17 19  1  0
 19 20  2  0
  2 21  1  0
 21 22  2  0
 22 23  1  0
 23 24  2  0
 24 25  1  0
 25 26  2  0
 26 27  1  0
 27 28  2  0
 28 29  1  0
 29 30  2  0
 11  7  1  0
 20 14  1  0
 30 21  1  0
 29 24  1  0
  3 31  1  0
  4 32  1  0
  4 33  1  0
  8 34  1  0
  8 35  1  0
  9 36  1  0
  9 37  1  0
 10 38  1  0
 10 39  1  0
 11 40  1  6
 12 41  1  0
 12 42  1  0
 13 43  1  0
 16 44  1  0
 19 45  1  0
 22 46  1  0
 23 47  1  0
 25 48  1  0
 26 49  1  0
 27 50  1  0
 28 51  1  0
M  END
>  <smiles>  (2) 
O=C(NCC(=O)N1CCC[C@H]1CNc1ncc(Cl)cn1)c1ccc2ccccc2n1

>  <score_type>  (2) 
oracle

>  <origin>  (2) 
autodockgpu

>  <m_score__min__energy>  (2) 
-8.8699999999999992

>  <m_primary>  (2) 
energy

>  <rmsd>  (2) 
8.199339100153859

>  <m_score__min__rmsd>  (2) 
8.199339100153859

>  <meeko>  (2) 
{"free_energy": -8.2, "intermolecular_energy": -10.29, "internal_energy": -1.65, "cluster_size": 10, "cluster_id": 4, "rank_in_cluster": 1}

>  <energy>  (2) 
-8.15

>  <cluster_rmsd>  (2) 
1.83

>  <cluster>  (2) 
1

$$$$

     RDKit          3D

 51 54  0  0  0  0  0  0  0  0999 V2000
  138.0770   70.7570  221.7550 O   0  0  0  0  0  0  0  0  0  0  0  0
  138.7450   71.2760  222.7010 C   0  0  0  0  0  0  0  0  0  0  0  0
  139.1700   72.6320  222.6860 N   0  0  0  0  0  0  0  0  0  0  0  0
  138.8700   73.5140  221.5910 C   0  0  0  0  0  0  0  0  0  0  0  0
  139.4520   74.8570  221.8720 C   0  0  0  0  0  0  0  0  0  0  0  0
  140.7170   74.8860  222.0120 O   0  0  0  0  0  0  0  0  0  0  0  0
  138.6450   76.0210  221.9780 N   0  0  0  0  0  0  0  0  0  0  0  0
  137.1860   75.9660  222.1610 C   0  0  0  0  0  0  0  0  0  0  0  0
  136.7360   77.4170  222.0040 C   0  0  0  0  0  0  0  0  0  0  0  0
  137.9500   78.1160  222.6290 C   0  0  0  0  0  0  0  0  0  0  0  0
  139.0790   77.3880  221.9270 C   0  0  1  0  0  0  0  0  0  0  0  0
  140.3880   77.6620  222.6070 C   0  0  0  0  0  0  0  0  0  0  0  0
  141.4430   77.4220  221.6120 N   0  0  0  0  0  0  0  0  0  0  0  0
  141.7220   78.4030  220.6170 C   0  0  0  0  0  0  0  0  0  0  0  0
  141.5720   79.7180  220.8340 N   0  0  0  0  0  0  0  0  0  0  0  0
  141.8240   80.6760  219.9250 C   0  0  0  0  0  0  0  0  0  0  0  0
  142.2660   80.3060  218.6780 C   0  0  0  0  0  0  0  0  0  0  0  0
  142.5990   81.5330  217.4830 Cl  0  0  0  0  0  0  0  0  0  0  0  0
  142.4290   78.9510  218.4320 C   0  0  0  0  0  0  0  0  0  0  0  0
  142.1610   78.0390  219.3820 N   0  0  0  0  0  0  0  0  0  0  0  0
  139.0940   70.4380  223.8670 C   0  0  0  0  0  0  0  0  0  0  0  0
  138.8230   69.0870  223.8520 C   0  0  0  0  0  0  0  0  0  0  0  0
  139.1720   68.3360  224.9760 C   0  0  0  0  0  0  0  0  0  0  0  0
  139.7760   68.9420  226.0750 C   0  0  0  0  0  0  0  0  0  0  0  0
  140.1260   68.2070  227.1940 C   0  0  0  0  0  0  0  0  0  0  0  0
  140.7240   68.8430  228.2650 C   0  0  0  0  0  0  0  0  0  0  0  0
  140.9750   70.2010  228.2300 C   0  0  0  0  0  0  0  0  0  0  0  0
  140.6230   70.9430  227.1030 C   0  0  0  0  0  0  0  0  0  0  0  0
  140.0250   70.2790  226.0440 C   0  0  0  0  0  0  0  0  0  0  0  0
  139.6860   70.9930  224.9570 N   0  0  0  0  0  0  0  0  0  0  0  0
  139.7180   72.9750  223.5130 H   0  0  0  0  0  0  0  0  0  0  0  0
  139.3042   73.1111  220.6641 H   0  0  0  0  0  0  0  0  0  0  0  0
  137.7797   73.6003  221.4730 H   0  0  0  0  0  0  0  0  0  0  0  0
  136.7202   75.3277  221.3957 H   0  0  0  0  0  0  0  0  0  0  0  0
  136.8982   75.5374  223.1323 H   0  0  0  0  0  0  0  0  0  0  0  0
  136.5992   77.6941  220.9483 H   0  0  0  0  0  0  0  0  0  0  0  0
  135.7645   77.6619  222.4581 H   0  0  0  0  0  0  0  0  0  0  0  0
  137.9591   79.1927  222.4040 H   0  0  0  0  0  0  0  0  0  0  0  0
  137.9891   78.0722  223.7274 H   0  0  0  0  0  0  0  0  0  0  0  0
  139.2693   77.7033  220.8905 H   0  0  0  0  0  0  0  0  0  0  0  0
  140.4239   78.7057  222.9525 H   0  0  0  0  0  0  0  0  0  0  0  0
  140.5195   77.0130  223.4854 H   0  0  0  0  0  0  0  0  0  0  0  0
  142.0100   76.5560  221.5930 H   0  0  0  0  0  0  0  0  0  0  0  0
  141.6788   81.7373  220.1753 H   0  0  0  0  0  0  0  0  0  0  0  0
  142.7827   78.6179  217.4451 H   0  0  0  0  0  0  0  0  0  0  0  0
  138.3460   68.6145  222.9807 H   0  0  0  0  0  0  0  0  0  0  0  0
  138.9680   67.2552  224.9938 H   0  0  0  0  0  0  0  0  0  0  0  0
  139.9298   67.1253  227.2306 H   0  0  0  0  0  0  0  0  0  0  0  0
  141.0034   68.2613  229.1558 H   0  0  0  0  0  0  0  0  0  0  0  0
  141.4514   70.6959  229.0891 H   0  0  0  0  0  0  0  0  0  0  0  0
  140.8147   72.0251  227.0560 H   0  0  0  0  0  0  0  0  0  0  0  0
  1  2  2  0
  2  3  1  0
  3  4  1  0
  4  5  1  0
  5  6  2  0
  5  7  1  0
  7  8  1  0
  8  9  1  0
  9 10  1  0
 10 11  1  0
 11 12  1  0
 12 13  1  0
 13 14  1  0
 14 15  2  0
 15 16  1  0
 16 17  2  0
 17 18  1  0
 17 19  1  0
 19 20  2  0
  2 21  1  0
 21 22  2  0
 22 23  1  0
 23 24  2  0
 24 25  1  0
 25 26  2  0
 26 27  1  0
 27 28  2  0
 28 29  1  0
 29 30  2  0
 11  7  1  0
 20 14  1  0
 30 21  1  0
 29 24  1  0
  3 31  1  0
  4 32  1  0
  4 33  1  0
  8 34  1  0
  8 35  1  0
  9 36  1  0
  9 37  1  0
 10 38  1  0
 10 39  1  0
 11 40  1  6
 12 41  1  0
 12 42  1  0
 13 43  1  0
 16 44  1  0
 19 45  1  0
 22 46  1  0
 23 47  1  0
 25 48  1  0
 26 49  1  0
 27 50  1  0
 28 51  1  0
M  END
>  <smiles>  (3) 
O=C(NCC(=O)N1CCC[C@H]1CNc1ncc(Cl)cn1)c1ccc2ccccc2n1

>  <score_type>  (3) 
oracle

>  <origin>  (3) 
autodockgpu

>  <m_score__min__energy>  (3) 
-8.8699999999999992

>  <m_primary>  (3) 
energy

>  <rmsd>  (3) 
2.6387528308601818

>  <m_score__min__rmsd>  (3) 
2.6387528308601818

>  <meeko>  (3) 
{"free_energy": -8.03, "intermolecular_energy": -10.12, "internal_energy": -2.25, "cluster_size": 4, "cluster_id": 5, "rank_in_cluster": 2}

>  <energy>  (3) 
-8.15

>  <cluster_rmsd>  (3) 
0.55

>  <cluster>  (3) 
1

$$$$

     RDKit          3D

 51 54  0  0  0  0  0  0  0  0999 V2000
  137.3260   76.2580  222.1410 O   0  0  0  0  0  0  0  0  0  0  0  0
  138.5900   76.3640  222.1690 C   0  0  0  0  0  0  0  0  0  0  0  0
  139.4580   75.3070  221.7820 N   0  0  0  0  0  0  0  0  0  0  0  0
  138.9590   74.0360  221.3310 C   0  0  0  0  0  0  0  0  0  0  0  0
  139.8960   72.9620  221.7650 C   0  0  0  0  0  0  0  0  0  0  0  0
  140.9620   73.3640  222.3350 O   0  0  0  0  0  0  0  0  0  0  0  0
  139.6170   71.5860  221.5540 N   0  0  0  0  0  0  0  0  0  0  0  0
  140.4780   70.7130  220.7390 C   0  0  0  0  0  0  0  0  0  0  0  0
  139.6840   69.4130  220.6210 C   0  0  0  0  0  0  0  0  0  0  0  0
  139.0180   69.4090  222.0020 C   0  0  0  0  0  0  0  0  0  0  0  0
  138.5060   70.8340  222.0650 C   0  0  1  0  0  0  0  0  0  0  0  0
  138.0960   71.1870  223.4660 C   0  0  0  0  0  0  0  0  0  0  0  0
  139.3260   71.5210  224.1980 N   0  0  0  0  0  0  0  0  0  0  0  0
  139.7520   70.7070  225.2880 C   0  0  0  0  0  0  0  0  0  0  0  0
  140.3540   71.2100  226.3750 N   0  0  0  0  0  0  0  0  0  0  0  0
  140.7710   70.4790  227.4240 C   0  0  0  0  0  0  0  0  0  0  0  0
  140.5770   69.1190  227.4030 C   0  0  0  0  0  0  0  0  0  0  0  0
  141.1090   68.1520  228.7540 Cl  0  0  0  0  0  0  0  0  0  0  0  0
  139.9540   68.5790  226.2880 C   0  0  0  0  0  0  0  0  0  0  0  0
  139.5590   69.3610  225.2690 N   0  0  0  0  0  0  0  0  0  0  0  0
  139.1860   77.6390  222.6190 C   0  0  0  0  0  0  0  0  0  0  0  0
  138.3750   78.6590  223.0660 C   0  0  0  0  0  0  0  0  0  0  0  0
  138.9830   79.8460  223.4830 C   0  0  0  0  0  0  0  0  0  0  0  0
  140.3680   79.9840  223.4430 C   0  0  0  0  0  0  0  0  0  0  0  0
  140.9820   81.1550  223.8530 C   0  0  0  0  0  0  0  0  0  0  0  0
  142.3590   81.2570  223.7990 C   0  0  0  0  0  0  0  0  0  0  0  0
  143.1270   80.2040  223.3420 C   0  0  0  0  0  0  0  0  0  0  0  0
  142.5110   79.0230  222.9280 C   0  0  0  0  0  0  0  0  0  0  0  0
  141.1280   78.9490  222.9930 C   0  0  0  0  0  0  0  0  0  0  0  0
  140.5330   77.8130  222.5960 N   0  0  0  0  0  0  0  0  0  0  0  0
  140.4910   75.4860  221.8370 H   0  0  0  0  0  0  0  0  0  0  0  0
  137.9649   73.8553  221.7659 H   0  0  0  0  0  0  0  0  0  0  0  0
  138.8798   74.0374  220.2338 H   0  0  0  0  0  0  0  0  0  0  0  0
  140.6545   71.1544  219.7470 H   0  0  0  0  0  0  0  0  0  0  0  0
  141.4714   70.5622  221.1867 H   0  0  0  0  0  0  0  0  0  0  0  0
  138.9449   69.4541  219.8073 H   0  0  0  0  0  0  0  0  0  0  0  0
  140.2767   68.5182  220.3803 H   0  0  0  0  0  0  0  0  0  0  0  0
  138.1964   68.6795  222.0547 H   0  0  0  0  0  0  0  0  0  0  0  0
  139.6824   69.1233  222.8308 H   0  0  0  0  0  0  0  0  0  0  0  0
  137.5938   71.0313  221.4828 H   0  0  0  0  0  0  0  0  0  0  0  0
  137.4156   72.0513  223.4549 H   0  0  0  0  0  0  0  0  0  0  0  0
  137.5672   70.3497  223.9449 H   0  0  0  0  0  0  0  0  0  0  0  0
  139.9160   72.3380  223.9600 H   0  0  0  0  0  0  0  0  0  0  0  0
  141.2588   70.9615  228.2838 H   0  0  0  0  0  0  0  0  0  0  0  0
  139.7805   67.4940  226.2368 H   0  0  0  0  0  0  0  0  0  0  0  0
  137.2815   78.5425  223.0938 H   0  0  0  0  0  0  0  0  0  0  0  0
  138.3623   80.6784  223.8459 H   0  0  0  0  0  0  0  0  0  0  0  0
  140.3780   81.9983  224.2192 H   0  0  0  0  0  0  0  0  0  0  0  0
  142.8488   82.1870  224.1235 H   0  0  0  0  0  0  0  0  0  0  0  0
  144.2225   80.2965  223.3046 H   0  0  0  0  0  0  0  0  0  0  0  0
  143.1059   78.1740  222.5602 H   0  0  0  0  0  0  0  0  0  0  0  0
  1  2  2  0
  2  3  1  0
  3  4  1  0
  4  5  1  0
  5  6  2  0
  5  7  1  0
  7  8  1  0
  8  9  1  0
  9 10  1  0
 10 11  1  0
 11 12  1  0
 12 13  1  0
 13 14  1  0
 14 15  2  0
 15 16  1  0
 16 17  2  0
 17 18  1  0
 17 19  1  0
 19 20  2  0
  2 21  1  0
 21 22  2  0
 22 23  1  0
 23 24  2  0
 24 25  1  0
 25 26  2  0
 26 27  1  0
 27 28  2  0
 28 29  1  0
 29 30  2  0
 11  7  1  0
 20 14  1  0
 30 21  1  0
 29 24  1  0
  3 31  1  0
  4 32  1  0
  4 33  1  0
  8 34  1  0
  8 35  1  0
  9 36  1  0
  9 37  1  0
 10 38  1  0
 10 39  1  0
 11 40  1  6
 12 41  1  0
 12 42  1  0
 13 43  1  0
 16 44  1  0
 19 45  1  0
 22 46  1  0
 23 47  1  0
 25 48  1  0
 26 49  1  0
 27 50  1  0
 28 51  1  0
M  END
>  <smiles>  (4) 
O=C(NCC(=O)N1CCC[C@H]1CNc1ncc(Cl)cn1)c1ccc2ccccc2n1

>  <score_type>  (4) 
oracle

>  <origin>  (4) 
autodockgpu

>  <m_score__min__energy>  (4) 
-8.8699999999999992

>  <m_primary>  (4) 
energy

>  <rmsd>  (4) 
8.175290798594304

>  <m_score__min__rmsd>  (4) 
8.175290798594304

>  <meeko>  (4) 
{"free_energy": -7.75, "intermolecular_energy": -9.84, "internal_energy": -2.76, "cluster_size": 10, "cluster_id": 4, "rank_in_cluster": 5}

>  <energy>  (4) 
-8.13

>  <cluster_rmsd>  (4) 
1.82

>  <cluster>  (4) 
1

$$$$

     RDKit          3D

 51 54  0  0  0  0  0  0  0  0999 V2000
  140.2480   77.1980  218.4530 O   0  0  0  0  0  0  0  0  0  0  0  0
  141.4150   77.2070  218.9510 C   0  0  0  0  0  0  0  0  0  0  0  0
  142.0870   78.4070  219.3110 N   0  0  0  0  0  0  0  0  0  0  0  0
  141.4850   79.7010  219.1340 C   0  0  0  0  0  0  0  0  0  0  0  0
  140.9120   80.1540  220.4320 C   0  0  0  0  0  0  0  0  0  0  0  0
  139.7770   80.7290  220.3580 O   0  0  0  0  0  0  0  0  0  0  0  0
  141.5880   79.9570  221.6660 N   0  0  0  0  0  0  0  0  0  0  0  0
  142.2010   81.0590  222.4230 C   0  0  0  0  0  0  0  0  0  0  0  0
  142.9790   80.3590  223.5360 C   0  0  0  0  0  0  0  0  0  0  0  0
  142.0340   79.1760  223.7840 C   0  0  0  0  0  0  0  0  0  0  0  0
  141.7880   78.7170  222.3610 C   0  0  1  0  0  0  0  0  0  0  0  0
  140.6270   77.7680  222.3060 C   0  0  0  0  0  0  0  0  0  0  0  0
  141.1660   76.4600  221.9040 N   0  0  0  0  0  0  0  0  0  0  0  0
  140.3200   75.3130  221.8910 C   0  0  0  0  0  0  0  0  0  0  0  0
  140.7950   74.0610  221.9620 N   0  0  0  0  0  0  0  0  0  0  0  0
  140.0340   72.9530  221.9520 C   0  0  0  0  0  0  0  0  0  0  0  0
  138.6690   73.0880  221.8630 C   0  0  0  0  0  0  0  0  0  0  0  0
  137.6630   71.6630  221.8490 Cl  0  0  0  0  0  0  0  0  0  0  0  0
  138.1560   74.3740  221.7890 C   0  0  0  0  0  0  0  0  0  0  0  0
  138.9690   75.4440  221.8030 N   0  0  0  0  0  0  0  0  0  0  0  0
  142.1060   75.9190  219.1680 C   0  0  0  0  0  0  0  0  0  0  0  0
  141.5260   74.7450  218.7370 C   0  0  0  0  0  0  0  0  0  0  0  0
  142.2160   73.5520  218.9630 C   0  0  0  0  0  0  0  0  0  0  0  0
  143.4520   73.5580  219.6060 C   0  0  0  0  0  0  0  0  0  0  0  0
  144.1440   72.3820  219.8350 C   0  0  0  0  0  0  0  0  0  0  0  0
  145.3680   72.4270  220.4750 C   0  0  0  0  0  0  0  0  0  0  0  0
  145.9060   73.6310  220.8860 C   0  0  0  0  0  0  0  0  0  0  0  0
  145.2100   74.8170  220.6560 C   0  0  0  0  0  0  0  0  0  0  0  0
  143.9850   74.7420  220.0120 C   0  0  0  0  0  0  0  0  0  0  0  0
  143.3130   75.8840  219.7900 N   0  0  0  0  0  0  0  0  0  0  0  0
  143.0510   78.3170  219.7170 H   0  0  0  0  0  0  0  0  0  0  0  0
  142.2474   80.4189  218.7974 H   0  0  0  0  0  0  0  0  0  0  0  0
  140.6877   79.6384  218.3788 H   0  0  0  0  0  0  0  0  0  0  0  0
  142.8772   81.6441  221.7824 H   0  0  0  0  0  0  0  0  0  0  0  0
  141.4567   81.7700  222.8110 H   0  0  0  0  0  0  0  0  0  0  0  0
  143.9730   80.0291  223.1996 H   0  0  0  0  0  0  0  0  0  0  0  0
  143.2028   80.9779  224.4174 H   0  0  0  0  0  0  0  0  0  0  0  0
  142.5149   78.3913  224.3865 H   0  0  0  0  0  0  0  0  0  0  0  0
  141.1240   79.4265  224.3489 H   0  0  0  0  0  0  0  0  0  0  0  0
  142.6040   78.1362  221.9063 H   0  0  0  0  0  0  0  0  0  0  0  0
  140.1514   77.6938  223.2951 H   0  0  0  0  0  0  0  0  0  0  0  0
  139.8654   78.1170  221.5932 H   0  0  0  0  0  0  0  0  0  0  0  0
  142.1530   76.3220  221.6240 H   0  0  0  0  0  0  0  0  0  0  0  0
  140.4953   71.9563  222.0139 H   0  0  0  0  0  0  0  0  0  0  0  0
  137.0681   74.5205  221.7178 H   0  0  0  0  0  0  0  0  0  0  0  0
  140.5495   74.7478  218.2305 H   0  0  0  0  0  0  0  0  0  0  0  0
  141.7796   72.5987  218.6302 H   0  0  0  0  0  0  0  0  0  0  0  0
  143.7233   71.4189  219.5103 H   0  0  0  0  0  0  0  0  0  0  0  0
  145.9200   71.4935  220.6592 H   0  0  0  0  0  0  0  0  0  0  0  0
  146.8816   73.6540  221.3937 H   0  0  0  0  0  0  0  0  0  0  0  0
  145.6217   75.7853  220.9768 H   0  0  0  0  0  0  0  0  0  0  0  0
  1  2  2  0
  2  3  1  0
  3  4  1  0
  4  5  1  0
  5  6  2  0
  5  7  1  0
  7  8  1  0
  8  9  1  0
  9 10  1  0
 10 11  1  0
 11 12  1  0
 12 13  1  0
 13 14  1  0
 14 15  2  0
 15 16  1  0
 16 17  2  0
 17 18  1  0
 17 19  1  0
 19 20  2  0
  2 21  1  0
 21 22  2  0
 22 23  1  0
 23 24  2  0
 24 25  1  0
 25 26  2  0
 26 27  1  0
 27 28  2  0
 28 29  1  0
 29 30  2  0
 11  7  1  0
 20 14  1  0
 30 21  1  0
 29 24  1  0
  3 31  1  0
  4 32  1  0
  4 33  1  0
  8 34  1  0
  8 35  1  0
  9 36  1  0
  9 37  1  0
 10 38  1  0
 10 39  1  0
 11 40  1  6
 12 41  1  0
 12 42  1  0
 13 43  1  0
 16 44  1  0
 19 45  1  0
 22 46  1  0
 23 47  1  0
 25 48  1  0
 26 49  1  0
 27 50  1  0
 28 51  1  0
M  END
>  <smiles>  (5) 
O=C(NCC(=O)N1CCC[C@H]1CNc1ncc(Cl)cn1)c1ccc2ccccc2n1

>  <score_type>  (5) 
oracle

>  <origin>  (5) 
autodockgpu

>  <m_score__min__energy>  (5) 
-8.8699999999999992

>  <m_primary>  (5) 
energy

>  <rmsd>  (5) 
7.216934607689142

>  <m_score__min__rmsd>  (5) 
7.216934607689142

>  <meeko>  (5) 
{"free_energy": -7.01, "intermolecular_energy": -9.09, "internal_energy": -3.35, "cluster_size": 2, "cluster_id": 9, "rank_in_cluster": 2}

>  <energy>  (5) 
-7.51

>  <cluster_rmsd>  (5) 
1.06

>  <cluster>  (5) 
1

$$$$

     RDKit          3D

 51 54  0  0  0  0  0  0  0  0999 V2000
  140.3480   71.3210  221.1680 O   0  0  0  0  0  0  0  0  0  0  0  0
  140.0930   71.9980  222.2110 C   0  0  0  0  0  0  0  0  0  0  0  0
  139.8470   73.3980  222.1760 N   0  0  0  0  0  0  0  0  0  0  0  0
  139.8700   74.1470  220.9480 C   0  0  0  0  0  0  0  0  0  0  0  0
  140.7360   75.3470  221.1250 C   0  0  0  0  0  0  0  0  0  0  0  0
  141.0430   75.6260  222.3280 O   0  0  0  0  0  0  0  0  0  0  0  0
  141.1840   76.1230  220.0230 N   0  0  0  0  0  0  0  0  0  0  0  0
  140.4180   77.2580  219.4840 C   0  0  0  0  0  0  0  0  0  0  0  0
  141.1620   77.6360  218.2050 C   0  0  0  0  0  0  0  0  0  0  0  0
  142.5950   77.3230  218.6570 C   0  0  0  0  0  0  0  0  0  0  0  0
  142.3950   75.9530  219.2730 C   0  0  1  0  0  0  0  0  0  0  0  0
  143.5930   75.5610  220.0880 C   0  0  0  0  0  0  0  0  0  0  0  0
  143.2410   74.3200  220.7930 N   0  0  0  0  0  0  0  0  0  0  0  0
  143.7770   73.0740  220.3580 C   0  0  0  0  0  0  0  0  0  0  0  0
  143.0990   71.9210  220.4510 N   0  0  0  0  0  0  0  0  0  0  0  0
  143.5670   70.7250  220.0530 C   0  0  0  0  0  0  0  0  0  0  0  0
  144.8270   70.6540  219.5090 C   0  0  0  0  0  0  0  0  0  0  0  0
  145.4540   69.1130  218.9850 Cl  0  0  0  0  0  0  0  0  0  0  0  0
  145.5460   71.8360  219.4020 C   0  0  0  0  0  0  0  0  0  0  0  0
  145.0240   73.0020  219.8190 N   0  0  0  0  0  0  0  0  0  0  0  0
  140.0490   71.3050  223.5150 C   0  0  0  0  0  0  0  0  0  0  0  0
  139.5000   70.0450  223.6080 C   0  0  0  0  0  0  0  0  0  0  0  0
  139.4800   69.4290  224.8610 C   0  0  0  0  0  0  0  0  0  0  0  0
  140.0030   70.0770  225.9780 C   0  0  0  0  0  0  0  0  0  0  0  0
  139.9890   69.4760  227.2240 C   0  0  0  0  0  0  0  0  0  0  0  0
  140.5160   70.1500  228.3100 C   0  0  0  0  0  0  0  0  0  0  0  0
  141.0560   71.4120  228.1630 C   0  0  0  0  0  0  0  0  0  0  0  0
  141.0710   72.0190  226.9080 C   0  0  0  0  0  0  0  0  0  0  0  0
  140.5350   71.3210  225.8370 C   0  0  0  0  0  0  0  0  0  0  0  0
  140.5490   71.9040  224.6270 N   0  0  0  0  0  0  0  0  0  0  0  0
  139.6450   73.8750  223.0880 H   0  0  0  0  0  0  0  0  0  0  0  0
  140.2726   73.5180  220.1404 H   0  0  0  0  0  0  0  0  0  0  0  0
  138.8489   74.4620  220.6868 H   0  0  0  0  0  0  0  0  0  0  0  0
  139.3832   76.9595  219.2600 H   0  0  0  0  0  0  0  0  0  0  0  0
  140.3475   78.0950  220.1943 H   0  0  0  0  0  0  0  0  0  0  0  0
  140.8545   77.0152  217.3505 H   0  0  0  0  0  0  0  0  0  0  0  0
  140.9934   78.6621  217.8462 H   0  0  0  0  0  0  0  0  0  0  0  0
  143.2912   77.2883  217.8060 H   0  0  0  0  0  0  0  0  0  0  0  0
  143.0369   78.0702  219.3326 H   0  0  0  0  0  0  0  0  0  0  0  0
  142.3015   75.1244  218.5556 H   0  0  0  0  0  0  0  0  0  0  0  0
  144.4585   75.3905  219.4308 H   0  0  0  0  0  0  0  0  0  0  0  0
  143.8629   76.3555  220.7993 H   0  0  0  0  0  0  0  0  0  0  0  0
  142.6060   74.3010  221.6120 H   0  0  0  0  0  0  0  0  0  0  0  0
  142.9521   69.8193  220.1609 H   0  0  0  0  0  0  0  0  0  0  0  0
  146.5574   71.8183  218.9698 H   0  0  0  0  0  0  0  0  0  0  0  0
  139.0896   69.5392  222.7216 H   0  0  0  0  0  0  0  0  0  0  0  0
  139.0475   68.4232  224.9671 H   0  0  0  0  0  0  0  0  0  0  0  0
  139.5620   68.4701  227.3496 H   0  0  0  0  0  0  0  0  0  0  0  0
  140.5049   69.6754  229.3023 H   0  0  0  0  0  0  0  0  0  0  0  0
  141.4736   71.9376  229.0344 H   0  0  0  0  0  0  0  0  0  0  0  0
  141.4965   73.0242  226.7714 H   0  0  0  0  0  0  0  0  0  0  0  0
  1  2  2  0
  2  3  1  0
  3  4  1  0
  4  5  1  0
  5  6  2  0
  5  7  1  0
  7  8  1  0
  8  9  1  0
  9 10  1  0
 10 11  1  0
 11 12  1  0
 12 13  1  0
 13 14  1  0
 14 15  2  0
 15 16  1  0
 16 17  2  0
 17 18  1  0
 17 19  1  0
 19 20  2  0
  2 21  1  0
 21 22  2  0
 22 23  1  0
 23 24  2  0
 24 25  1  0
 25 26  2  0
 26 27  1  0
 27 28  2  0
 28 29  1  0
 29 30  2  0
 11  7  1  0
 20 14  1  0
 30 21  1  0
 29 24  1  0
  3 31  1  0
  4 32  1  0
  4 33  1  0
  8 34  1  0
  8 35  1  0
  9 36  1  0
  9 37  1  0
 10 38  1  0
 10 39  1  0
 11 40  1  6
 12 41  1  0
 12 42  1  0
 13 43  1  0
 16 44  1  0
 19 45  1  0
 22 46  1  0
 23 47  1  0
 25 48  1  0
 26 49  1  0
 27 50  1  0
 28 51  1  0
M  END
>  <smiles>  (6) 
O=C(NCC(=O)N1CCC[C@H]1CNc1ncc(Cl)cn1)c1ccc2ccccc2n1

>  <score_type>  (6) 
oracle

>  <origin>  (6) 
autodockgpu

>  <m_score__min__energy>  (6) 
-8.8699999999999992

>  <m_primary>  (6) 
energy

>  <rmsd>  (6) 
2.2912743682355488

>  <m_score__min__rmsd>  (6) 
2.2912743682355488

>  <meeko>  (6) 
{"free_energy": -7.5, "intermolecular_energy": -9.59, "internal_energy": -2.58, "cluster_size": 6, "cluster_id": 1, "rank_in_cluster": 6}

>  <energy>  (6) 
-7.5

>  <cluster_rmsd>  (6) 
0.96

>  <cluster>  (6) 
1

$$$$

     RDKit          3D

 51 54  0  0  0  0  0  0  0  0999 V2000
  140.4030   71.0970  221.1850 O   0  0  0  0  0  0  0  0  0  0  0  0
  140.1630   71.8000  222.2130 C   0  0  0  0  0  0  0  0  0  0  0  0
  139.9710   73.2080  222.1520 N   0  0  0  0  0  0  0  0  0  0  0  0
  140.0380   73.9350  220.9130 C   0  0  0  0  0  0  0  0  0  0  0  0
  140.7410   75.2280  221.1430 C   0  0  0  0  0  0  0  0  0  0  0  0
  140.7010   75.6670  222.3380 O   0  0  0  0  0  0  0  0  0  0  0  0
  141.4080   75.9210  220.0980 N   0  0  0  0  0  0  0  0  0  0  0  0
  142.5910   75.3780  219.4100 C   0  0  0  0  0  0  0  0  0  0  0  0
  143.0790   76.5350  218.5410 C   0  0  0  0  0  0  0  0  0  0  0  0
  141.7240   77.1590  218.1840 C   0  0  0  0  0  0  0  0  0  0  0  0
  141.0740   77.2050  219.5530 C   0  0  1  0  0  0  0  0  0  0  0  0
  139.6030   77.4760  219.4300 C   0  0  0  0  0  0  0  0  0  0  0  0
  139.3670   78.8130  219.9940 N   0  0  0  0  0  0  0  0  0  0  0  0
  140.2330   79.3230  221.0050 C   0  0  0  0  0  0  0  0  0  0  0  0
  140.2760   78.8160  222.2450 N   0  0  0  0  0  0  0  0  0  0  0  0
  141.0750   79.2670  223.2280 C   0  0  0  0  0  0  0  0  0  0  0  0
  141.9180   80.3210  222.9650 C   0  0  0  0  0  0  0  0  0  0  0  0
  142.9640   80.9200  224.2250 Cl  0  0  0  0  0  0  0  0  0  0  0  0
  141.8900   80.8590  221.6880 C   0  0  0  0  0  0  0  0  0  0  0  0
  141.0670   80.3650  220.7470 N   0  0  0  0  0  0  0  0  0  0  0  0
  140.0760   71.1310  223.5270 C   0  0  0  0  0  0  0  0  0  0  0  0
  139.4510   69.9080  223.6380 C   0  0  0  0  0  0  0  0  0  0  0  0
  139.3940   69.3140  224.9010 C   0  0  0  0  0  0  0  0  0  0  0  0
  139.9530   69.9460  226.0080 C   0  0  0  0  0  0  0  0  0  0  0  0
  139.9030   69.3660  227.2640 C   0  0  0  0  0  0  0  0  0  0  0  0
  140.4690   70.0230  228.3400 C   0  0  0  0  0  0  0  0  0  0  0  0
  141.0840   71.2480  228.1750 C   0  0  0  0  0  0  0  0  0  0  0  0
  141.1360   71.8340  226.9110 C   0  0  0  0  0  0  0  0  0  0  0  0
  140.5600   71.1530  225.8500 C   0  0  0  0  0  0  0  0  0  0  0  0
  140.6100   71.7160  224.6310 N   0  0  0  0  0  0  0  0  0  0  0  0
  139.7760   73.7070  223.0540 H   0  0  0  0  0  0  0  0  0  0  0  0
  140.5902   73.3431  220.1682 H   0  0  0  0  0  0  0  0  0  0  0  0
  139.0208   74.1276  220.5413 H   0  0  0  0  0  0  0  0  0  0  0  0
  143.3630   75.0816  220.1354 H   0  0  0  0  0  0  0  0  0  0  0  0
  142.3618   74.4763  218.8232 H   0  0  0  0  0  0  0  0  0  0  0  0
  143.7180   77.2317  219.1034 H   0  0  0  0  0  0  0  0  0  0  0  0
  143.7075   76.2496  217.6845 H   0  0  0  0  0  0  0  0  0  0  0  0
  141.8403   78.1653  217.7553 H   0  0  0  0  0  0  0  0  0  0  0  0
  141.1517   76.6092  217.4223 H   0  0  0  0  0  0  0  0  0  0  0  0
  141.4206   78.0155  220.2111 H   0  0  0  0  0  0  0  0  0  0  0  0
  139.3011   77.4528  218.3725 H   0  0  0  0  0  0  0  0  0  0  0  0
  139.0160   76.7140  219.9638 H   0  0  0  0  0  0  0  0  0  0  0  0
  138.5860   79.4200  219.6900 H   0  0  0  0  0  0  0  0  0  0  0  0
  141.0546   78.8013  224.2243 H   0  0  0  0  0  0  0  0  0  0  0  0
  142.5511   81.7028  221.4409 H   0  0  0  0  0  0  0  0  0  0  0  0
  139.0105   69.4146  222.7591 H   0  0  0  0  0  0  0  0  0  0  0  0
  138.9026   68.3373  225.0219 H   0  0  0  0  0  0  0  0  0  0  0  0
  139.4164   68.3895  227.4045 H   0  0  0  0  0  0  0  0  0  0  0  0
  140.4291   69.5648  229.3392 H   0  0  0  0  0  0  0  0  0  0  0  0
  141.5320   71.7606  229.0390 H   0  0  0  0  0  0  0  0  0  0  0  0
  141.6207   72.8098  226.7599 H   0  0  0  0  0  0  0  0  0  0  0  0
  1  2  2  0
  2  3  1  0
  3  4  1  0
  4  5  1  0
  5  6  2  0
  5  7  1  0
  7  8  1  0
  8  9  1  0
  9 10  1  0
 10 11  1  0
 11 12  1  0
 12 13  1  0
 13 14  1  0
 14 15  2  0
 15 16  1  0
 16 17  2  0
 17 18  1  0
 17 19  1  0
 19 20  2  0
  2 21  1  0
 21 22  2  0
 22 23  1  0
 23 24  2  0
 24 25  1  0
 25 26  2  0
 26 27  1  0
 27 28  2  0
 28 29  1  0
 29 30  2  0
 11  7  1  0
 20 14  1  0
 30 21  1  0
 29 24  1  0
  3 31  1  0
  4 32  1  0
  4 33  1  0
  8 34  1  0
  8 35  1  0
  9 36  1  0
  9 37  1  0
 10 38  1  0
 10 39  1  0
 11 40  1  1
 12 41  1  0
 12 42  1  0
 13 43  1  0
 16 44  1  0
 19 45  1  0
 22 46  1  0
 23 47  1  0
 25 48  1  0
 26 49  1  0
 27 50  1  0
 28 51  1  0
M  END
>  <smiles>  (7) 
O=C(NCC(=O)N1CCC[C@H]1CNc1ncc(Cl)cn1)c1ccc2ccccc2n1

>  <score_type>  (7) 
oracle

>  <origin>  (7) 
autodockgpu

>  <m_score__min__energy>  (7) 
-8.8699999999999992

>  <m_primary>  (7) 
energy

>  <rmsd>  (7) 
1.9966017484185454

>  <m_score__min__rmsd>  (7) 
1.9966017484185454

>  <meeko>  (7) 
{"free_energy": -7.89, "intermolecular_energy": -9.97, "internal_energy": -2.13, "cluster_size": 7, "cluster_id": 3, "rank_in_cluster": 5}

>  <energy>  (7) 
-8.77

>  <cluster_rmsd>  (7) 
0.0

>  <cluster>  (7) 
2

$$$$

     RDKit          3D

 51 54  0  0  0  0  0  0  0  0999 V2000
  140.1010   70.7970  221.2650 O   0  0  0  0  0  0  0  0  0  0  0  0
  139.8990   71.4640  222.3260 C   0  0  0  0  0  0  0  0  0  0  0  0
  139.7280   72.8750  222.3260 N   0  0  0  0  0  0  0  0  0  0  0  0
  139.7730   73.6490  221.1140 C   0  0  0  0  0  0  0  0  0  0  0  0
  140.4960   74.9250  221.3760 C   0  0  0  0  0  0  0  0  0  0  0  0
  140.0490   75.6160  222.3480 O   0  0  0  0  0  0  0  0  0  0  0  0
  141.6050   75.3380  220.5920 N   0  0  0  0  0  0  0  0  0  0  0  0
  142.8230   74.5250  220.4440 C   0  0  0  0  0  0  0  0  0  0  0  0
  143.7990   75.4460  219.7130 C   0  0  0  0  0  0  0  0  0  0  0  0
  142.8010   76.1990  218.8240 C   0  0  0  0  0  0  0  0  0  0  0  0
  141.7380   76.5550  219.8440 C   0  0  1  0  0  0  0  0  0  0  0  0
  140.4840   77.0170  219.1610 C   0  0  0  0  0  0  0  0  0  0  0  0
  139.8010   77.9260  220.0930 N   0  0  0  0  0  0  0  0  0  0  0  0
  140.5510   78.6340  221.0770 C   0  0  0  0  0  0  0  0  0  0  0  0
  141.4290   79.5980  220.7650 N   0  0  0  0  0  0  0  0  0  0  0  0
  142.1560   80.2890  221.6600 C   0  0  0  0  0  0  0  0  0  0  0  0
  142.0050   80.0050  222.9970 C   0  0  0  0  0  0  0  0  0  0  0  0
  142.9380   80.8900  224.1750 Cl  0  0  0  0  0  0  0  0  0  0  0  0
  141.1020   79.0110  223.3420 C   0  0  0  0  0  0  0  0  0  0  0  0
  140.4030   78.3540  222.4000 N   0  0  0  0  0  0  0  0  0  0  0  0
  139.8380   70.7450  223.6160 C   0  0  0  0  0  0  0  0  0  0  0  0
  139.2900   69.4820  223.6760 C   0  0  0  0  0  0  0  0  0  0  0  0
  139.2550   68.8420  224.9170 C   0  0  0  0  0  0  0  0  0  0  0  0
  139.7590   69.4690  226.0530 C   0  0  0  0  0  0  0  0  0  0  0  0
  139.7290   68.8430  227.2880 C   0  0  0  0  0  0  0  0  0  0  0  0
  140.2390   69.4970  228.3940 C   0  0  0  0  0  0  0  0  0  0  0  0
  140.7780   70.7630  228.2790 C   0  0  0  0  0  0  0  0  0  0  0  0
  140.8090   71.3950  227.0360 C   0  0  0  0  0  0  0  0  0  0  0  0
  140.2910   70.7160  225.9450 C   0  0  0  0  0  0  0  0  0  0  0  0
  140.3210   71.3230  224.7470 N   0  0  0  0  0  0  0  0  0  0  0  0
  139.5660   73.3420  223.2510 H   0  0  0  0  0  0  0  0  0  0  0  0
  140.3002   73.0807  220.3335 H   0  0  0  0  0  0  0  0  0  0  0  0
  138.7493   73.8664  220.7753 H   0  0  0  0  0  0  0  0  0  0  0  0
  143.2213   74.2357  221.4277 H   0  0  0  0  0  0  0  0  0  0  0  0
  142.6406   73.5862  219.9005 H   0  0  0  0  0  0  0  0  0  0  0  0
  144.3257   76.1204  220.4042 H   0  0  0  0  0  0  0  0  0  0  0  0
  144.6176   74.9397  219.1805 H   0  0  0  0  0  0  0  0  0  0  0  0
  143.2522   77.0972  218.3771 H   0  0  0  0  0  0  0  0  0  0  0  0
  142.4338   75.6264  217.9595 H   0  0  0  0  0  0  0  0  0  0  0  0
  141.9850   77.3992  220.5046 H   0  0  0  0  0  0  0  0  0  0  0  0
  140.7335   77.5470  218.2300 H   0  0  0  0  0  0  0  0  0  0  0  0
  139.8404   76.1640  218.8998 H   0  0  0  0  0  0  0  0  0  0  0  0
  138.7790   78.0860  220.0730 H   0  0  0  0  0  0  0  0  0  0  0  0
  142.8590   81.0676  221.3289 H   0  0  0  0  0  0  0  0  0  0  0  0
  140.9554   78.7562  224.4020 H   0  0  0  0  0  0  0  0  0  0  0  0
  138.8924   68.9930  222.7744 H   0  0  0  0  0  0  0  0  0  0  0  0
  138.8250   67.8327  224.9974 H   0  0  0  0  0  0  0  0  0  0  0  0
  139.3029   67.8338  227.3880 H   0  0  0  0  0  0  0  0  0  0  0  0
  140.2151   69.0033  229.3767 H   0  0  0  0  0  0  0  0  0  0  0  0
  141.1823   71.2723  229.1662 H   0  0  0  0  0  0  0  0  0  0  0  0
  141.2328   72.4040  226.9250 H   0  0  0  0  0  0  0  0  0  0  0  0
  1  2  2  0
  2  3  1  0
  3  4  1  0
  4  5  1  0
  5  6  2  0
  5  7  1  0
  7  8  1  0
  8  9  1  0
  9 10  1  0
 10 11  1  0
 11 12  1  0
 12 13  1  0
 13 14  1  0
 14 15  2  0
 15 16  1  0
 16 17  2  0
 17 18  1  0
 17 19  1  0
 19 20  2  0
  2 21  1  0
 21 22  2  0
 22 23  1  0
 23 24  2  0
 24 25  1  0
 25 26  2  0
 26 27  1  0
 27 28  2  0
 28 29  1  0
 29 30  2  0
 11  7  1  0
 20 14  1  0
 30 21  1  0
 29 24  1  0
  3 31  1  0
  4 32  1  0
  4 33  1  0
  8 34  1  0
  8 35  1  0
  9 36  1  0
  9 37  1  0
 10 38  1  0
 10 39  1  0
 11 40  1  1
 12 41  1  0
 12 42  1  0
 13 43  1  0
 16 44  1  0
 19 45  1  0
 22 46  1  0
 23 47  1  0
 25 48  1  0
 26 49  1  0
 27 50  1  0
 28 51  1  0
M  END
>  <smiles>  (8) 
O=C(NCC(=O)N1CCC[C@H]1CNc1ncc(Cl)cn1)c1ccc2ccccc2n1

>  <score_type>  (8) 
oracle

>  <origin>  (8) 
autodockgpu

>  <m_score__min__energy>  (8) 
-8.8699999999999992

>  <m_primary>  (8) 
energy

>  <rmsd>  (8) 
2.162383954631422

>  <m_score__min__rmsd>  (8) 
2.162383954631422

>  <meeko>  (8) 
{"free_energy": -8.4, "intermolecular_energy": -10.48, "internal_energy": -1.96, "cluster_size": 7, "cluster_id": 3, "rank_in_cluster": 2}

>  <energy>  (8) 
-8.68

>  <cluster_rmsd>  (8) 
0.12

>  <cluster>  (8) 
2

$$$$

     RDKit          3D

 51 54  0  0  0  0  0  0  0  0999 V2000
  137.1410   76.2480  222.0890 O   0  0  0  0  0  0  0  0  0  0  0  0
  138.4030   76.3460  222.1660 C   0  0  0  0  0  0  0  0  0  0  0  0
  139.2790   75.2730  221.8440 N   0  0  0  0  0  0  0  0  0  0  0  0
  138.7890   73.9940  221.4060 C   0  0  0  0  0  0  0  0  0  0  0  0
  139.7160   72.9290  221.8800 C   0  0  0  0  0  0  0  0  0  0  0  0
  140.8180   73.3400  222.3670 O   0  0  0  0  0  0  0  0  0  0  0  0
  139.3880   71.5490  221.7910 N   0  0  0  0  0  0  0  0  0  0  0  0
  140.1300   70.6080  220.9370 C   0  0  0  0  0  0  0  0  0  0  0  0
  139.3050   69.3230  220.9950 C   0  0  0  0  0  0  0  0  0  0  0  0
  138.8090   69.4200  222.4440 C   0  0  0  0  0  0  0  0  0  0  0  0
  138.3340   70.8590  222.4770 C   0  0  1  0  0  0  0  0  0  0  0  0
  138.1010   71.3050  223.8910 C   0  0  0  0  0  0  0  0  0  0  0  0
  139.4240   71.5540  224.4820 N   0  0  0  0  0  0  0  0  0  0  0  0
  139.8870   70.7450  225.5600 C   0  0  0  0  0  0  0  0  0  0  0  0
  140.5280   71.2520  226.6230 N   0  0  0  0  0  0  0  0  0  0  0  0
  140.9820   70.5260  227.6600 C   0  0  0  0  0  0  0  0  0  0  0  0
  140.7860   69.1660  227.6520 C   0  0  0  0  0  0  0  0  0  0  0  0
  141.3660   68.2050  228.9870 Cl  0  0  0  0  0  0  0  0  0  0  0  0
  140.1240   68.6200  226.5620 C   0  0  0  0  0  0  0  0  0  0  0  0
  139.6940   69.3990  225.5540 N   0  0  0  0  0  0  0  0  0  0  0  0
  138.9900   77.6290  222.6070 C   0  0  0  0  0  0  0  0  0  0  0  0
  138.1710   78.6500  223.0370 C   0  0  0  0  0  0  0  0  0  0  0  0
  138.7710   79.8440  223.4450 C   0  0  0  0  0  0  0  0  0  0  0  0
  140.1560   79.9880  223.4150 C   0  0  0  0  0  0  0  0  0  0  0  0
  140.7610   81.1660  223.8170 C   0  0  0  0  0  0  0  0  0  0  0  0
  142.1380   81.2730  223.7730 C   0  0  0  0  0  0  0  0  0  0  0  0
  142.9140   80.2180  223.3340 C   0  0  0  0  0  0  0  0  0  0  0  0
  142.3060   79.0300  222.9280 C   0  0  0  0  0  0  0  0  0  0  0  0
  140.9240   78.9510  222.9830 C   0  0  0  0  0  0  0  0  0  0  0  0
  140.3370   77.8080  222.5930 N   0  0  0  0  0  0  0  0  0  0  0  0
  140.3090   75.4470  221.9360 H   0  0  0  0  0  0  0  0  0  0  0  0
  137.7857   73.8214  221.8228 H   0  0  0  0  0  0  0  0  0  0  0  0
  138.7330   73.9748  220.3076 H   0  0  0  0  0  0  0  0  0  0  0  0
  140.1947   70.9844  219.9054 H   0  0  0  0  0  0  0  0  0  0  0  0
  141.1668   70.4599  221.2732 H   0  0  0  0  0  0  0  0  0  0  0  0
  138.4747   69.3332  220.2735 H   0  0  0  0  0  0  0  0  0  0  0  0
  139.8484   68.4006  220.7422 H   0  0  0  0  0  0  0  0  0  0  0  0
  137.9866   68.7162  222.6398 H   0  0  0  0  0  0  0  0  0  0  0  0
  139.5628   69.1683  223.2046 H   0  0  0  0  0  0  0  0  0  0  0  0
  137.3625   71.0453  221.9960 H   0  0  0  0  0  0  0  0  0  0  0  0
  137.5013   72.2271  223.9032 H   0  0  0  0  0  0  0  0  0  0  0  0
  137.5522   70.5404  224.4604 H   0  0  0  0  0  0  0  0  0  0  0  0
  140.0540   72.3050  224.1500 H   0  0  0  0  0  0  0  0  0  0  0  0
  141.5008   71.0121  228.4994 H   0  0  0  0  0  0  0  0  0  0  0  0
  139.9484   67.5348  226.5218 H   0  0  0  0  0  0  0  0  0  0  0  0
  137.0779   78.5288  223.0585 H   0  0  0  0  0  0  0  0  0  0  0  0
  138.1438   80.6779  223.7931 H   0  0  0  0  0  0  0  0  0  0  0  0
  140.1504   82.0106  224.1689 H   0  0  0  0  0  0  0  0  0  0  0  0
  142.6214   82.2085  224.0910 H   0  0  0  0  0  0  0  0  0  0  0  0
  144.0094   80.3145  223.3046 H   0  0  0  0  0  0  0  0  0  0  0  0
  142.9072   78.1795  222.5740 H   0  0  0  0  0  0  0  0  0  0  0  0
  1  2  2  0
  2  3  1  0
  3  4  1  0
  4  5  1  0
  5  6  2  0
  5  7  1  0
  7  8  1  0
  8  9  1  0
  9 10  1  0
 10 11  1  0
 11 12  1  0
 12 13  1  0
 13 14  1  0
 14 15  2  0
 15 16  1  0
 16 17  2  0
 17 18  1  0
 17 19  1  0
 19 20  2  0
  2 21  1  0
 21 22  2  0
 22 23  1  0
 23 24  2  0
 24 25  1  0
 25 26  2  0
 26 27  1  0
 27 28  2  0
 28 29  1  0
 29 30  2  0
 11  7  1  0
 20 14  1  0
 30 21  1  0
 29 24  1  0
  3 31  1  0
  4 32  1  0
  4 33  1  0
  8 34  1  0
  8 35  1  0
  9 36  1  0
  9 37  1  0
 10 38  1  0
 10 39  1  0
 11 40  1  6
 12 41  1  0
 12 42  1  0
 13 43  1  0
 16 44  1  0
 19 45  1  0
 22 46  1  0
 23 47  1  0
 25 48  1  0
 26 49  1  0
 27 50  1  0
 28 51  1  0
M  END
>  <smiles>  (9) 
O=C(NCC(=O)N1CCC[C@H]1CNc1ncc(Cl)cn1)c1ccc2ccccc2n1

>  <score_type>  (9) 
oracle

>  <origin>  (9) 
autodockgpu

>  <m_score__min__energy>  (9) 
-8.8699999999999992

>  <m_primary>  (9) 
energy

>  <rmsd>  (9) 
8.222635780799369

>  <m_score__min__rmsd>  (9) 
8.222635780799369

>  <meeko>  (9) 
{"free_energy": -7.51, "intermolecular_energy": -9.6, "internal_energy": -2.81, "cluster_size": 10, "cluster_id": 4, "rank_in_cluster": 9}

>  <energy>  (9) 
-8.41

>  <cluster_rmsd>  (9) 
0.0

>  <cluster>  (9) 
3

$$$$

     RDKit          3D

 51 54  0  0  0  0  0  0  0  0999 V2000
  139.6470   74.3560  221.9740 O   0  0  0  0  0  0  0  0  0  0  0  0
  140.5950   75.1880  221.8290 C   0  0  0  0  0  0  0  0  0  0  0  0
  141.8510   74.8310  221.2660 N   0  0  0  0  0  0  0  0  0  0  0  0
  142.1350   73.4940  220.8200 C   0  0  0  0  0  0  0  0  0  0  0  0
  143.5360   73.4340  220.3180 C   0  0  0  0  0  0  0  0  0  0  0  0
  144.3290   74.3020  220.8070 O   0  0  0  0  0  0  0  0  0  0  0  0
  143.9540   72.4740  219.3580 N   0  0  0  0  0  0  0  0  0  0  0  0
  144.0830   71.0410  219.6690 C   0  0  0  0  0  0  0  0  0  0  0  0
  144.7530   70.4510  218.4290 C   0  0  0  0  0  0  0  0  0  0  0  0
  144.1130   71.3450  217.3590 C   0  0  0  0  0  0  0  0  0  0  0  0
  144.3090   72.7100  217.9880 C   0  0  1  0  0  0  0  0  0  0  0  0
  143.4730   73.7400  217.2870 C   0  0  0  0  0  0  0  0  0  0  0  0
  144.1850   75.0200  217.4060 N   0  0  0  0  0  0  0  0  0  0  0  0
  143.5020   76.1750  217.8880 C   0  0  0  0  0  0  0  0  0  0  0  0
  143.1500   77.1930  217.0900 N   0  0  0  0  0  0  0  0  0  0  0  0
  142.5050   78.2990  217.5010 C   0  0  0  0  0  0  0  0  0  0  0  0
  142.1740   78.4170  218.8300 C   0  0  0  0  0  0  0  0  0  0  0  0
  141.3370   79.8430  219.3850 Cl  0  0  0  0  0  0  0  0  0  0  0  0
  142.5280   77.3740  219.6730 C   0  0  0  0  0  0  0  0  0  0  0  0
  143.1730   76.2930  219.2020 N   0  0  0  0  0  0  0  0  0  0  0  0
  140.3850   76.5860  222.2600 C   0  0  0  0  0  0  0  0  0  0  0  0
  139.1070   77.0770  222.4100 C   0  0  0  0  0  0  0  0  0  0  0  0
  138.9580   78.4030  222.8210 C   0  0  0  0  0  0  0  0  0  0  0  0
  140.0740   79.1980  223.0680 C   0  0  0  0  0  0  0  0  0  0  0  0
  139.9390   80.5140  223.4760 C   0  0  0  0  0  0  0  0  0  0  0  0
  141.0690   81.2730  223.7120 C   0  0  0  0  0  0  0  0  0  0  0  0
  142.3300   80.7320  223.5470 C   0  0  0  0  0  0  0  0  0  0  0  0
  142.4680   79.4070  223.1370 C   0  0  0  0  0  0  0  0  0  0  0  0
  141.3170   78.6700  222.9070 C   0  0  0  0  0  0  0  0  0  0  0  0
  141.4490   77.3920  222.5120 N   0  0  0  0  0  0  0  0  0  0  0  0
  142.5750   75.5870  221.1840 H   0  0  0  0  0  0  0  0  0  0  0  0
  142.0141   72.7926  221.6587 H   0  0  0  0  0  0  0  0  0  0  0  0
  141.4404   73.2176  220.0131 H   0  0  0  0  0  0  0  0  0  0  0  0
  144.7089   70.8895  220.5608 H   0  0  0  0  0  0  0  0  0  0  0  0
  143.1153   70.5680  219.8922 H   0  0  0  0  0  0  0  0  0  0  0  0
  145.8469   70.5629  218.4591 H   0  0  0  0  0  0  0  0  0  0  0  0
  144.6128   69.3694  218.2861 H   0  0  0  0  0  0  0  0  0  0  0  0
  144.6363   71.2630  216.3949 H   0  0  0  0  0  0  0  0  0  0  0  0
  143.0689   71.0965  217.1179 H   0  0  0  0  0  0  0  0  0  0  0  0
  145.3258   73.1222  217.9089 H   0  0  0  0  0  0  0  0  0  0  0  0
  143.3519   73.4715  216.2272 H   0  0  0  0  0  0  0  0  0  0  0  0
  142.4700   73.8041  217.7341 H   0  0  0  0  0  0  0  0  0  0  0  0
  145.1830   75.1330  217.1530 H   0  0  0  0  0  0  0  0  0  0  0  0
  142.2470   79.0948  216.7868 H   0  0  0  0  0  0  0  0  0  0  0  0
  142.2772   77.4324  220.7424 H   0  0  0  0  0  0  0  0  0  0  0  0
  138.2299   76.4434  222.2119 H   0  0  0  0  0  0  0  0  0  0  0  0
  137.9498   78.8234  222.9508 H   0  0  0  0  0  0  0  0  0  0  0  0
  138.9392   80.9522  223.6113 H   0  0  0  0  0  0  0  0  0  0  0  0
  140.9639   82.3193  224.0348 H   0  0  0  0  0  0  0  0  0  0  0  0
  143.2226   81.3456  223.7388 H   0  0  0  0  0  0  0  0  0  0  0  0
  143.4630   78.9586  222.9997 H   0  0  0  0  0  0  0  0  0  0  0  0
  1  2  2  0
  2  3  1  0
  3  4  1  0
  4  5  1  0
  5  6  2  0
  5  7  1  0
  7  8  1  0
  8  9  1  0
  9 10  1  0
 10 11  1  0
 11 12  1  0
 12 13  1  0
 13 14  1  0
 14 15  2  0
 15 16  1  0
 16 17  2  0
 17 18  1  0
 17 19  1  0
 19 20  2  0
  2 21  1  0
 21 22  2  0
 22 23  1  0
 23 24  2  0
 24 25  1  0
 25 26  2  0
 26 27  1  0
 27 28  2  0
 28 29  1  0
 29 30  2  0
 11  7  1  0
 20 14  1  0
 30 21  1  0
 29 24  1  0
  3 31  1  0
  4 32  1  0
  4 33  1  0
  8 34  1  0
  8 35  1  0
  9 36  1  0
  9 37  1  0
 10 38  1  0
 10 39  1  0
 11 40  1  1
 12 41  1  0
 12 42  1  0
 13 43  1  0
 16 44  1  0
 19 45  1  0
 22 46  1  0
 23 47  1  0
 25 48  1  0
 26 49  1  0
 27 50  1  0
 28 51  1  0
M  END
>  <smiles>  (10) 
O=C(NCC(=O)N1CCC[C@H]1CNc1ncc(Cl)cn1)c1ccc2ccccc2n1

>  <score_type>  (10) 
oracle

>  <origin>  (10) 
autodockgpu

>  <m_score__min__energy>  (10) 
-8.8699999999999992

>  <m_primary>  (10) 
energy

>  <rmsd>  (10) 
7.6990550736376635

>  <m_score__min__rmsd>  (10) 
7.6990550736376635

>  <meeko>  (10) 
{"free_energy": -6.98, "intermolecular_energy": -9.06, "internal_energy": -3.66, "cluster_size": 3, "cluster_id": 11, "rank_in_cluster": 1}

>  <energy>  (10) 
-8.4

>  <cluster_rmsd>  (10) 
1.59

>  <cluster>  (10) 
3

$$$$

     RDKit          3D

 51 54  0  0  0  0  0  0  0  0999 V2000
  139.8150   74.3080  221.9610 O   0  0  0  0  0  0  0  0  0  0  0  0
  140.7110   75.1930  221.8080 C   0  0  0  0  0  0  0  0  0  0  0  0
  141.9800   74.9110  221.2310 N   0  0  0  0  0  0  0  0  0  0  0  0
  142.3370   73.5920  220.7810 C   0  0  0  0  0  0  0  0  0  0  0  0
  143.7320   73.6170  220.2580 C   0  0  0  0  0  0  0  0  0  0  0  0
  144.5060   74.4670  220.8060 O   0  0  0  0  0  0  0  0  0  0  0  0
  144.1640   72.7500  219.2190 N   0  0  0  0  0  0  0  0  0  0  0  0
  144.4270   71.3180  219.4340 C   0  0  0  0  0  0  0  0  0  0  0  0
  145.0620   70.8560  218.1240 C   0  0  0  0  0  0  0  0  0  0  0  0
  144.2850   71.7510  217.1490 C   0  0  0  0  0  0  0  0  0  0  0  0
  144.4100   73.0910  217.8470 C   0  0  1  0  0  0  0  0  0  0  0  0
  143.4500   74.0840  217.2600 C   0  0  0  0  0  0  0  0  0  0  0  0
  144.0820   75.4060  217.3750 N   0  0  0  0  0  0  0  0  0  0  0  0
  143.3440   76.5070  217.8970 C   0  0  0  0  0  0  0  0  0  0  0  0
  142.9500   76.5740  219.1770 N   0  0  0  0  0  0  0  0  0  0  0  0
  142.2520   77.5920  219.7100 C   0  0  0  0  0  0  0  0  0  0  0  0
  141.9070   78.6520  218.9050 C   0  0  0  0  0  0  0  0  0  0  0  0
  141.0020   79.9830  219.5760 Cl  0  0  0  0  0  0  0  0  0  0  0  0
  142.3050   78.6030  217.5780 C   0  0  0  0  0  0  0  0  0  0  0  0
  143.0010   77.5570  217.1020 N   0  0  0  0  0  0  0  0  0  0  0  0
  140.4250   76.5760  222.2430 C   0  0  0  0  0  0  0  0  0  0  0  0
  139.1220   77.0140  222.3360 C   0  0  0  0  0  0  0  0  0  0  0  0
  138.9000   78.3290  222.7530 C   0  0  0  0  0  0  0  0  0  0  0  0
  139.9700   79.1640  223.0620 C   0  0  0  0  0  0  0  0  0  0  0  0
  139.7620   80.4690  223.4760 C   0  0  0  0  0  0  0  0  0  0  0  0
  140.8490   81.2690  223.7750 C   0  0  0  0  0  0  0  0  0  0  0  0
  142.1360   80.7800  223.6660 C   0  0  0  0  0  0  0  0  0  0  0  0
  142.3480   79.4670  223.2490 C   0  0  0  0  0  0  0  0  0  0  0  0
  141.2400   78.6870  222.9560 C   0  0  0  0  0  0  0  0  0  0  0  0
  141.4420   77.4210  222.5550 N   0  0  0  0  0  0  0  0  0  0  0  0
  142.6580   75.7070  221.1440 H   0  0  0  0  0  0  0  0  0  0  0  0
  142.2712   72.8855  221.6216 H   0  0  0  0  0  0  0  0  0  0  0  0
  141.6482   73.2726  219.9851 H   0  0  0  0  0  0  0  0  0  0  0  0
  145.1183   71.1700  220.2767 H   0  0  0  0  0  0  0  0  0  0  0  0
  143.5163   70.7540  219.6841 H   0  0  0  0  0  0  0  0  0  0  0  0
  146.1430   71.0578  218.0964 H   0  0  0  0  0  0  0  0  0  0  0  0
  145.0007   69.7760  217.9247 H   0  0  0  0  0  0  0  0  0  0  0  0
  144.7508   71.7668  216.1526 H   0  0  0  0  0  0  0  0  0  0  0  0
  143.2512   71.4292  216.9550 H   0  0  0  0  0  0  0  0  0  0  0  0
  145.3828   73.5916  217.7332 H   0  0  0  0  0  0  0  0  0  0  0  0
  143.2588   73.8465  216.2031 H   0  0  0  0  0  0  0  0  0  0  0  0
  142.4858   74.0605  217.7889 H   0  0  0  0  0  0  0  0  0  0  0  0
  145.0610   75.5860  217.0900 H   0  0  0  0  0  0  0  0  0  0  0  0
  141.9621   77.5772  220.7710 H   0  0  0  0  0  0  0  0  0  0  0  0
  142.0470   79.4334  216.9043 H   0  0  0  0  0  0  0  0  0  0  0  0
  138.2817   76.3484  222.0894 H   0  0  0  0  0  0  0  0  0  0  0  0
  137.8707   78.7077  222.8379 H   0  0  0  0  0  0  0  0  0  0  0  0
  138.7400   80.8658  223.5662 H   0  0  0  0  0  0  0  0  0  0  0  0
  140.6871   82.3063  224.1033 H   0  0  0  0  0  0  0  0  0  0  0  0
  142.9928   81.4260  223.9080 H   0  0  0  0  0  0  0  0  0  0  0  0
  143.3660   79.0611  223.1550 H   0  0  0  0  0  0  0  0  0  0  0  0
  1  2  2  0
  2  3  1  0
  3  4  1  0
  4  5  1  0
  5  6  2  0
  5  7  1  0
  7  8  1  0
  8  9  1  0
  9 10  1  0
 10 11  1  0
 11 12  1  0
 12 13  1  0
 13 14  1  0
 14 15  2  0
 15 16  1  0
 16 17  2  0
 17 18  1  0
 17 19  1  0
 19 20  2  0
  2 21  1  0
 21 22  2  0
 22 23  1  0
 23 24  2  0
 24 25  1  0
 25 26  2  0
 26 27  1  0
 27 28  2  0
 28 29  1  0
 29 30  2  0
 11  7  1  0
 20 14  1  0
 30 21  1  0
 29 24  1  0
  3 31  1  0
  4 32  1  0
  4 33  1  0
  8 34  1  0
  8 35  1  0
  9 36  1  0
  9 37  1  0
 10 38  1  0
 10 39  1  0
 11 40  1  1
 12 41  1  0
 12 42  1  0
 13 43  1  0
 16 44  1  0
 19 45  1  0
 22 46  1  0
 23 47  1  0
 25 48  1  0
 26 49  1  0
 27 50  1  0
 28 51  1  0
M  END
>  <smiles>  (11) 
O=C(NCC(=O)N1CCC[C@H]1CNc1ncc(Cl)cn1)c1ccc2ccccc2n1

>  <score_type>  (11) 
oracle

>  <origin>  (11) 
autodockgpu

>  <m_score__min__energy>  (11) 
-8.8699999999999992

>  <m_primary>  (11) 
energy

>  <rmsd>  (11) 
7.6575095253434275

>  <m_score__min__rmsd>  (11) 
7.6575095253434275

>  <meeko>  (11) 
{"free_energy": -6.96, "intermolecular_energy": -9.05, "internal_energy": -3.64, "cluster_size": 3, "cluster_id": 11, "rank_in_cluster": 2}

>  <energy>  (11) 
-8.28

>  <cluster_rmsd>  (11) 
0.41

>  <cluster>  (11) 
3

$$$$

     RDKit          3D

 51 54  0  0  0  0  0  0  0  0999 V2000
  139.5960   74.3710  222.0080 O   0  0  0  0  0  0  0  0  0  0  0  0
  140.5480   75.1960  221.8560 C   0  0  0  0  0  0  0  0  0  0  0  0
  141.7910   74.8350  221.2670 N   0  0  0  0  0  0  0  0  0  0  0  0
  142.0550   73.5000  220.8020 C   0  0  0  0  0  0  0  0  0  0  0  0
  143.4700   73.4150  220.3430 C   0  0  0  0  0  0  0  0  0  0  0  0
  144.2600   74.2780  220.8450 O   0  0  0  0  0  0  0  0  0  0  0  0
  143.9030   72.4360  219.4090 N   0  0  0  0  0  0  0  0  0  0  0  0
  144.0110   71.0070  219.7440 C   0  0  0  0  0  0  0  0  0  0  0  0
  144.7050   70.3920  218.5300 C   0  0  0  0  0  0  0  0  0  0  0  0
  144.1000   71.2750  217.4310 C   0  0  0  0  0  0  0  0  0  0  0  0
  144.2930   72.6480  218.0440 C   0  0  1  0  0  0  0  0  0  0  0  0
  143.4830   73.6740  217.3070 C   0  0  0  0  0  0  0  0  0  0  0  0
  144.1770   74.9600  217.4660 N   0  0  0  0  0  0  0  0  0  0  0  0
  143.4620   76.1060  217.9190 C   0  0  0  0  0  0  0  0  0  0  0  0
  142.9870   77.0400  217.0830 N   0  0  0  0  0  0  0  0  0  0  0  0
  142.3080   78.1350  217.4680 C   0  0  0  0  0  0  0  0  0  0  0  0
  142.0720   78.3320  218.8070 C   0  0  0  0  0  0  0  0  0  0  0  0
  141.1920   79.7460  219.3280 Cl  0  0  0  0  0  0  0  0  0  0  0  0
  142.5540   77.3770  219.6890 C   0  0  0  0  0  0  0  0  0  0  0  0
  143.2270   76.3020  219.2450 N   0  0  0  0  0  0  0  0  0  0  0  0
  140.3580   76.5910  222.3050 C   0  0  0  0  0  0  0  0  0  0  0  0
  139.0880   77.0800  222.5190 C   0  0  0  0  0  0  0  0  0  0  0  0
  138.9580   78.4040  222.9440 C   0  0  0  0  0  0  0  0  0  0  0  0
  140.0840   79.1990  223.1430 C   0  0  0  0  0  0  0  0  0  0  0  0
  139.9670   80.5120  223.5640 C   0  0  0  0  0  0  0  0  0  0  0  0
  141.1070   81.2700  223.7510 C   0  0  0  0  0  0  0  0  0  0  0  0
  142.3580   80.7320  223.5230 C   0  0  0  0  0  0  0  0  0  0  0  0
  142.4780   79.4090  223.0980 C   0  0  0  0  0  0  0  0  0  0  0  0
  141.3180   78.6720  222.9190 C   0  0  0  0  0  0  0  0  0  0  0  0
  141.4330   77.3980  222.5110 N   0  0  0  0  0  0  0  0  0  0  0  0
  142.5200   75.5850  221.1810 H   0  0  0  0  0  0  0  0  0  0  0  0
  141.8899   72.7850  221.6215 H   0  0  0  0  0  0  0  0  0  0  0  0
  141.3796   73.2574  219.9684 H   0  0  0  0  0  0  0  0  0  0  0  0
  144.6137   70.8633  220.6529 H   0  0  0  0  0  0  0  0  0  0  0  0
  143.0336   70.5464  219.9503 H   0  0  0  0  0  0  0  0  0  0  0  0
  145.7988   70.4943  218.5851 H   0  0  0  0  0  0  0  0  0  0  0  0
  144.5577   69.3097  218.4002 H   0  0  0  0  0  0  0  0  0  0  0  0
  144.6462   71.1735  216.4816 H   0  0  0  0  0  0  0  0  0  0  0  0
  143.0599   71.0321  217.1678 H   0  0  0  0  0  0  0  0  0  0  0  0
  145.3150   73.0504  217.9836 H   0  0  0  0  0  0  0  0  0  0  0  0
  143.4163   73.4093  216.2414 H   0  0  0  0  0  0  0  0  0  0  0  0
  142.4588   73.7273  217.7048 H   0  0  0  0  0  0  0  0  0  0  0  0
  145.1850   75.0820  217.2620 H   0  0  0  0  0  0  0  0  0  0  0  0
  141.9478   78.8604  216.7237 H   0  0  0  0  0  0  0  0  0  0  0  0
  142.3829   77.5012  220.7685 H   0  0  0  0  0  0  0  0  0  0  0  0
  138.2028   76.4466  222.3599 H   0  0  0  0  0  0  0  0  0  0  0  0
  137.9568   78.8228  223.1233 H   0  0  0  0  0  0  0  0  0  0  0  0
  138.9744   80.9488  223.7483 H   0  0  0  0  0  0  0  0  0  0  0  0
  141.0169   82.3141  224.0854 H   0  0  0  0  0  0  0  0  0  0  0  0
  143.2581   81.3455  223.6762 H   0  0  0  0  0  0  0  0  0  0  0  0
  143.4658   78.9630  222.9101 H   0  0  0  0  0  0  0  0  0  0  0  0
  1  2  2  0
  2  3  1  0
  3  4  1  0
  4  5  1  0
  5  6  2  0
  5  7  1  0
  7  8  1  0
  8  9  1  0
  9 10  1  0
 10 11  1  0
 11 12  1  0
 12 13  1  0
 13 14  1  0
 14 15  2  0
 15 16  1  0
 16 17  2  0
 17 18  1  0
 17 19  1  0
 19 20  2  0
  2 21  1  0
 21 22  2  0
 22 23  1  0
 23 24  2  0
 24 25  1  0
 25 26  2  0
 26 27  1  0
 27 28  2  0
 28 29  1  0
 29 30  2  0
 11  7  1  0
 20 14  1  0
 30 21  1  0
 29 24  1  0
  3 31  1  0
  4 32  1  0
  4 33  1  0
  8 34  1  0
  8 35  1  0
  9 36  1  0
  9 37  1  0
 10 38  1  0
 10 39  1  0
 11 40  1  1
 12 41  1  0
 12 42  1  0
 13 43  1  0
 16 44  1  0
 19 45  1  0
 22 46  1  0
 23 47  1  0
 25 48  1  0
 26 49  1  0
 27 50  1  0
 28 51  1  0
M  END
>  <smiles>  (12) 
O=C(NCC(=O)N1CCC[C@H]1CNc1ncc(Cl)cn1)c1ccc2ccccc2n1

>  <score_type>  (12) 
oracle

>  <origin>  (12) 
autodockgpu

>  <m_score__min__energy>  (12) 
-8.8699999999999992

>  <m_primary>  (12) 
energy

>  <rmsd>  (12) 
7.693631260001737

>  <m_score__min__rmsd>  (12) 
7.693631260001737

>  <meeko>  (12) 
{"free_energy": -6.91, "intermolecular_energy": -8.99, "internal_energy": -3.69, "cluster_size": 3, "cluster_id": 11, "rank_in_cluster": 3}

>  <energy>  (12) 
-8.2

>  <cluster_rmsd>  (12) 
1.75

>  <cluster>  (12) 
3

$$$$

     RDKit          3D

 51 54  0  0  0  0  0  0  0  0999 V2000
  140.0530   73.4630  222.5390 O   0  0  0  0  0  0  0  0  0  0  0  0
  140.1460   72.2020  222.4360 C   0  0  0  0  0  0  0  0  0  0  0  0
  140.2920   71.5430  221.1840 N   0  0  0  0  0  0  0  0  0  0  0  0
  140.3450   72.2660  219.9420 C   0  0  0  0  0  0  0  0  0  0  0  0
  141.7180   72.1620  219.3750 C   0  0  0  0  0  0  0  0  0  0  0  0
  141.8380   71.3860  218.3730 O   0  0  0  0  0  0  0  0  0  0  0  0
  142.8160   72.8810  219.9190 N   0  0  0  0  0  0  0  0  0  0  0  0
  144.2030   72.3970  219.8390 C   0  0  0  0  0  0  0  0  0  0  0  0
  144.9860   73.3630  220.7270 C   0  0  0  0  0  0  0  0  0  0  0  0
  144.1960   74.6470  220.4430 C   0  0  0  0  0  0  0  0  0  0  0  0
  142.7770   74.1380  220.6090 C   0  0  1  0  0  0  0  0  0  0  0  0
  141.7940   75.1300  220.0600 C   0  0  0  0  0  0  0  0  0  0  0  0
  141.0240   75.6430  221.2030 N   0  0  0  0  0  0  0  0  0  0  0  0
  141.2530   76.9650  221.6830 C   0  0  0  0  0  0  0  0  0  0  0  0
  141.5920   77.9800  220.8760 N   0  0  0  0  0  0  0  0  0  0  0  0
  141.8180   79.2400  221.2860 C   0  0  0  0  0  0  0  0  0  0  0  0
  141.6980   79.5330  222.6230 C   0  0  0  0  0  0  0  0  0  0  0  0
  141.9860   81.1620  223.1770 Cl  0  0  0  0  0  0  0  0  0  0  0  0
  141.3470   78.4970  223.4760 C   0  0  0  0  0  0  0  0  0  0  0  0
  141.1340   77.2560  223.0060 N   0  0  0  0  0  0  0  0  0  0  0  0
  140.1020   71.3820  223.6650 C   0  0  0  0  0  0  0  0  0  0  0  0
  139.5800   70.1080  223.6260 C   0  0  0  0  0  0  0  0  0  0  0  0
  139.5610   69.3710  224.8120 C   0  0  0  0  0  0  0  0  0  0  0  0
  140.0560   69.9160  225.9940 C   0  0  0  0  0  0  0  0  0  0  0  0
  140.0420   69.1950  227.1750 C   0  0  0  0  0  0  0  0  0  0  0  0
  140.5420   69.7690  228.3280 C   0  0  0  0  0  0  0  0  0  0  0  0
  141.0560   71.0510  228.3130 C   0  0  0  0  0  0  0  0  0  0  0  0
  141.0710   71.7790  227.1240 C   0  0  0  0  0  0  0  0  0  0  0  0
  140.5630   71.1790  225.9830 C   0  0  0  0  0  0  0  0  0  0  0  0
  140.5770   71.8790  224.8370 N   0  0  0  0  0  0  0  0  0  0  0  0
  140.3620   70.4960  221.1960 H   0  0  0  0  0  0  0  0  0  0  0  0
  139.6209   71.8359  219.2344 H   0  0  0  0  0  0  0  0  0  0  0  0
  140.0961   73.3229  220.1179 H   0  0  0  0  0  0  0  0  0  0  0  0
  144.2800   71.3676  220.2189 H   0  0  0  0  0  0  0  0  0  0  0  0
  144.5822   72.3704  218.8068 H   0  0  0  0  0  0  0  0  0  0  0  0
  144.9398   73.0769  221.7881 H   0  0  0  0  0  0  0  0  0  0  0  0
  146.0661   73.4189  220.5266 H   0  0  0  0  0  0  0  0  0  0  0  0
  144.4316   75.4384  221.1698 H   0  0  0  0  0  0  0  0  0  0  0  0
  144.4068   75.1097  219.4676 H   0  0  0  0  0  0  0  0  0  0  0  0
  142.4424   74.0071  221.6487 H   0  0  0  0  0  0  0  0  0  0  0  0
  142.3258   75.9538  219.5615 H   0  0  0  0  0  0  0  0  0  0  0  0
  141.1322   74.6601  219.3176 H   0  0  0  0  0  0  0  0  0  0  0  0
  140.3040   75.0810  221.6910 H   0  0  0  0  0  0  0  0  0  0  0  0
  142.0941   80.0226  220.5640 H   0  0  0  0  0  0  0  0  0  0  0  0
  141.2414   78.6941  224.5530 H   0  0  0  0  0  0  0  0  0  0  0  0
  139.1899   69.6839  222.6890 H   0  0  0  0  0  0  0  0  0  0  0  0
  139.1511   68.3502  224.8125 H   0  0  0  0  0  0  0  0  0  0  0  0
  139.6360   68.1729  227.1957 H   0  0  0  0  0  0  0  0  0  0  0  0
  140.5306   69.1986  229.2685 H   0  0  0  0  0  0  0  0  0  0  0  0
  141.4526   71.4966  229.2372 H   0  0  0  0  0  0  0  0  0  0  0  0
  141.4750   72.8016  227.0926 H   0  0  0  0  0  0  0  0  0  0  0  0
  1  2  2  0
  2  3  1  0
  3  4  1  0
  4  5  1  0
  5  6  2  0
  5  7  1  0
  7  8  1  0
  8  9  1  0
  9 10  1  0
 10 11  1  0
 11 12  1  0
 12 13  1  0
 13 14  1  0
 14 15  2  0
 15 16  1  0
 16 17  2  0
 17 18  1  0
 17 19  1  0
 19 20  2  0
  2 21  1  0
 21 22  2  0
 22 23  1  0
 23 24  2  0
 24 25  1  0
 25 26  2  0
 26 27  1  0
 27 28  2  0
 28 29  1  0
 29 30  2  0
 11  7  1  0
 20 14  1  0
 30 21  1  0
 29 24  1  0
  3 31  1  0
  4 32  1  0
  4 33  1  0
  8 34  1  0
  8 35  1  0
  9 36  1  0
  9 37  1  0
 10 38  1  0
 10 39  1  0
 11 40  1  1
 12 41  1  0
 12 42  1  0
 13 43  1  0
 16 44  1  0
 19 45  1  0
 22 46  1  0
 23 47  1  0
 25 48  1  0
 26 49  1  0
 27 50  1  0
 28 51  1  0
M  END
>  <smiles>  (13) 
O=C(NCC(=O)N1CCC[C@H]1CNc1ncc(Cl)cn1)c1ccc2ccccc2n1

>  <score_type>  (13) 
oracle

>  <origin>  (13) 
autodockgpu

>  <m_score__min__energy>  (13) 
-8.8699999999999992

>  <m_primary>  (13) 
energy

>  <rmsd>  (13) 
3.4181963699398823

>  <m_score__min__rmsd>  (13) 
3.4181963699398823

>  <meeko>  (13) 
{"free_energy": -8.28, "intermolecular_energy": -10.36, "internal_energy": -2.08, "cluster_size": 7, "cluster_id": 3, "rank_in_cluster": 3}

>  <energy>  (13) 
-7.89

>  <cluster_rmsd>  (13) 
1.9

>  <cluster>  (13) 
3

$$$$

     RDKit          3D

 51 54  0  0  0  0  0  0  0  0999 V2000
  137.3530   76.2680  222.2470 O   0  0  0  0  0  0  0  0  0  0  0  0
  138.6160   76.3820  222.2300 C   0  0  0  0  0  0  0  0  0  0  0  0
  139.4760   75.3290  221.8130 N   0  0  0  0  0  0  0  0  0  0  0  0
  138.9670   74.0550  221.3800 C   0  0  0  0  0  0  0  0  0  0  0  0
  139.9310   72.9870  221.7690 C   0  0  0  0  0  0  0  0  0  0  0  0
  140.9940   73.3930  222.3410 O   0  0  0  0  0  0  0  0  0  0  0  0
  139.6780   71.6130  221.5150 N   0  0  0  0  0  0  0  0  0  0  0  0
  140.5750   70.7730  220.7060 C   0  0  0  0  0  0  0  0  0  0  0  0
  139.8040   69.4660  220.5310 C   0  0  0  0  0  0  0  0  0  0  0  0
  139.0970   69.4180  221.8910 C   0  0  0  0  0  0  0  0  0  0  0  0
  138.5630   70.8340  221.9740 C   0  0  1  0  0  0  0  0  0  0  0  0
  138.1060   71.1450  223.3690 C   0  0  0  0  0  0  0  0  0  0  0  0
  139.3030   71.5180  224.1360 N   0  0  0  0  0  0  0  0  0  0  0  0
  139.7310   70.7090  225.2290 C   0  0  0  0  0  0  0  0  0  0  0  0
  140.3430   71.2160  226.3090 N   0  0  0  0  0  0  0  0  0  0  0  0
  140.7620   70.4900  227.3600 C   0  0  0  0  0  0  0  0  0  0  0  0
  140.5600   69.1310  227.3500 C   0  0  0  0  0  0  0  0  0  0  0  0
  141.0950   68.1710  228.7040 Cl  0  0  0  0  0  0  0  0  0  0  0  0
  139.9270   68.5860  226.2430 C   0  0  0  0  0  0  0  0  0  0  0  0
  139.5310   69.3640  225.2210 N   0  0  0  0  0  0  0  0  0  0  0  0
  139.2210   77.6600  222.6590 C   0  0  0  0  0  0  0  0  0  0  0  0
  138.4180   78.6900  223.0950 C   0  0  0  0  0  0  0  0  0  0  0  0
  139.0350   79.8800  223.4910 C   0  0  0  0  0  0  0  0  0  0  0  0
  140.4210   80.0100  223.4420 C   0  0  0  0  0  0  0  0  0  0  0  0
  141.0420   81.1830  223.8320 C   0  0  0  0  0  0  0  0  0  0  0  0
  142.4200   81.2760  223.7700 C   0  0  0  0  0  0  0  0  0  0  0  0
  143.1800   80.2120  223.3250 C   0  0  0  0  0  0  0  0  0  0  0  0
  142.5550   79.0290  222.9320 C   0  0  0  0  0  0  0  0  0  0  0  0
  141.1730   78.9640  223.0050 C   0  0  0  0  0  0  0  0  0  0  0  0
  140.5700   77.8250  222.6260 N   0  0  0  0  0  0  0  0  0  0  0  0
  140.5090   75.5130  221.8310 H   0  0  0  0  0  0  0  0  0  0  0  0
  137.9945   73.8652  221.8577 H   0  0  0  0  0  0  0  0  0  0  0  0
  138.8392   74.0589  220.2875 H   0  0  0  0  0  0  0  0  0  0  0  0
  140.7753   71.2417  219.7312 H   0  0  0  0  0  0  0  0  0  0  0  0
  141.5562   70.6242  221.1805 H   0  0  0  0  0  0  0  0  0  0  0  0
  139.0892   69.5178  219.6965 H   0  0  0  0  0  0  0  0  0  0  0  0
  140.4163   68.5857  220.2857 H   0  0  0  0  0  0  0  0  0  0  0  0
  138.2847   68.6763  221.9006 H   0  0  0  0  0  0  0  0  0  0  0  0
  139.7404   69.1204  222.7321 H   0  0  0  0  0  0  0  0  0  0  0  0
  137.6659   71.0346  221.3699 H   0  0  0  0  0  0  0  0  0  0  0  0
  137.3899   71.9798  223.3554 H   0  0  0  0  0  0  0  0  0  0  0  0
  137.6023   70.2780  223.8213 H   0  0  0  0  0  0  0  0  0  0  0  0
  139.8680   72.3580  223.9210 H   0  0  0  0  0  0  0  0  0  0  0  0
  141.2580   70.9756  228.2133 H   0  0  0  0  0  0  0  0  0  0  0  0
  139.7465   67.5017  226.2007 H   0  0  0  0  0  0  0  0  0  0  0  0
  137.3241   78.5797  223.1306 H   0  0  0  0  0  0  0  0  0  0  0  0
  138.4207   80.7212  223.8444 H   0  0  0  0  0  0  0  0  0  0  0  0
  140.4443   82.0348  224.1885 H   0  0  0  0  0  0  0  0  0  0  0  0
  142.9167   82.2077  224.0785 H   0  0  0  0  0  0  0  0  0  0  0  0
  144.2758   80.2976  223.2807 H   0  0  0  0  0  0  0  0  0  0  0  0
  143.1430   78.1711  222.5739 H   0  0  0  0  0  0  0  0  0  0  0  0
  1  2  2  0
  2  3  1  0
  3  4  1  0
  4  5  1  0
  5  6  2  0
  5  7  1  0
  7  8  1  0
  8  9  1  0
  9 10  1  0
 10 11  1  0
 11 12  1  0
 12 13  1  0
 13 14  1  0
 14 15  2  0
 15 16  1  0
 16 17  2  0
 17 18  1  0
 17 19  1  0
 19 20  2  0
  2 21  1  0
 21 22  2  0
 22 23  1  0
 23 24  2  0
 24 25  1  0
 25 26  2  0
 26 27  1  0
 27 28  2  0
 28 29  1  0
 29 30  2  0
 11  7  1  0
 20 14  1  0
 30 21  1  0
 29 24  1  0
  3 31  1  0
  4 32  1  0
  4 33  1  0
  8 34  1  0
  8 35  1  0
  9 36  1  0
  9 37  1  0
 10 38  1  0
 10 39  1  0
 11 40  1  6
 12 41  1  0
 12 42  1  0
 13 43  1  0
 16 44  1  0
 19 45  1  0
 22 46  1  0
 23 47  1  0
 25 48  1  0
 26 49  1  0
 27 50  1  0
 28 51  1  0
M  END
>  <smiles>  (14) 
O=C(NCC(=O)N1CCC[C@H]1CNc1ncc(Cl)cn1)c1ccc2ccccc2n1

>  <score_type>  (14) 
oracle

>  <origin>  (14) 
autodockgpu

>  <m_score__min__energy>  (14) 
-8.8699999999999992

>  <m_primary>  (14) 
energy

>  <rmsd>  (14) 
8.174644390413064

>  <m_score__min__rmsd>  (14) 
8.174644390413064

>  <meeko>  (14) 
{"free_energy": -7.81, "intermolecular_energy": -9.9, "internal_energy": -2.73, "cluster_size": 10, "cluster_id": 4, "rank_in_cluster": 2}

>  <energy>  (14) 
-7.88

>  <cluster_rmsd>  (14) 
0.96

>  <cluster>  (14) 
3

$$$$

     RDKit          3D

 51 54  0  0  0  0  0  0  0  0999 V2000
  141.8810   76.0410  218.7180 O   0  0  0  0  0  0  0  0  0  0  0  0
  141.8520   76.3350  219.9530 C   0  0  0  0  0  0  0  0  0  0  0  0
  141.8340   75.3490  220.9770 N   0  0  0  0  0  0  0  0  0  0  0  0
  141.8460   73.9410  220.6810 C   0  0  0  0  0  0  0  0  0  0  0  0
  140.7770   73.2680  221.4700 C   0  0  0  0  0  0  0  0  0  0  0  0
  140.2030   73.9950  222.3450 O   0  0  0  0  0  0  0  0  0  0  0  0
  140.4250   71.9080  221.2590 N   0  0  0  0  0  0  0  0  0  0  0  0
  141.2520   70.9860  220.4640 C   0  0  0  0  0  0  0  0  0  0  0  0
  140.3900   69.7320  220.3350 C   0  0  0  0  0  0  0  0  0  0  0  0
  139.6970   69.7710  221.7030 C   0  0  0  0  0  0  0  0  0  0  0  0
  139.2650   71.2220  221.7510 C   0  0  1  0  0  0  0  0  0  0  0  0
  138.8470   71.6030  223.1420 C   0  0  0  0  0  0  0  0  0  0  0  0
  140.0800   71.7630  223.9270 N   0  0  0  0  0  0  0  0  0  0  0  0
  140.3070   70.9460  225.0730 C   0  0  0  0  0  0  0  0  0  0  0  0
  140.8010   71.4300  226.2210 N   0  0  0  0  0  0  0  0  0  0  0  0
  141.0300   70.6960  227.3240 C   0  0  0  0  0  0  0  0  0  0  0  0
  140.7450   69.3520  227.2970 C   0  0  0  0  0  0  0  0  0  0  0  0
  141.0340   68.3820  228.7160 Cl  0  0  0  0  0  0  0  0  0  0  0  0
  140.2320   68.8310  226.1190 C   0  0  0  0  0  0  0  0  0  0  0  0
  140.0250   69.6160  225.0470 N   0  0  0  0  0  0  0  0  0  0  0  0
  141.8400   77.7600  220.3440 C   0  0  0  0  0  0  0  0  0  0  0  0
  141.8370   78.7400  219.3750 C   0  0  0  0  0  0  0  0  0  0  0  0
  141.8240   80.0730  219.7930 C   0  0  0  0  0  0  0  0  0  0  0  0
  141.8150   80.3920  221.1480 C   0  0  0  0  0  0  0  0  0  0  0  0
  141.8020   81.7090  221.5730 C   0  0  0  0  0  0  0  0  0  0  0  0
  141.7930   81.9870  222.9270 C   0  0  0  0  0  0  0  0  0  0  0  0
  141.7960   80.9670  223.8570 C   0  0  0  0  0  0  0  0  0  0  0  0
  141.8090   79.6390  223.4310 C   0  0  0  0  0  0  0  0  0  0  0  0
  141.8180   79.3900  222.0680 C   0  0  0  0  0  0  0  0  0  0  0  0
  141.8300   78.1110  221.6560 N   0  0  0  0  0  0  0  0  0  0  0  0
  141.8110   75.6860  221.9700 H   0  0  0  0  0  0  0  0  0  0  0  0
  141.6624   73.7888  219.6072 H   0  0  0  0  0  0  0  0  0  0  0  0
  142.8253   73.5151  220.9450 H   0  0  0  0  0  0  0  0  0  0  0  0
  141.4716   71.4127  219.4742 H   0  0  0  0  0  0  0  0  0  0  0  0
  142.2269   70.7827  220.9312 H   0  0  0  0  0  0  0  0  0  0  0  0
  139.6706   69.8101  219.5065 H   0  0  0  0  0  0  0  0  0  0  0  0
  140.9370   68.8047  220.1096 H   0  0  0  0  0  0  0  0  0  0  0  0
  138.8349   69.0889  221.7413 H   0  0  0  0  0  0  0  0  0  0  0  0
  140.3275   69.4519  222.5460 H   0  0  0  0  0  0  0  0  0  0  0  0
  138.3771   71.4682  221.1502 H   0  0  0  0  0  0  0  0  0  0  0  0
  138.2848   72.5483  223.1230 H   0  0  0  0  0  0  0  0  0  0  0  0
  138.1952   70.8344  223.5829 H   0  0  0  0  0  0  0  0  0  0  0  0
  140.8120   72.4550  223.6880 H   0  0  0  0  0  0  0  0  0  0  0  0
  141.4384   71.1633  228.2322 H   0  0  0  0  0  0  0  0  0  0  0  0
  139.9907   67.7594  226.0604 H   0  0  0  0  0  0  0  0  0  0  0  0
  141.8446   78.4808  218.3060 H   0  0  0  0  0  0  0  0  0  0  0  0
  141.8209   80.8785  219.0439 H   0  0  0  0  0  0  0  0  0  0  0  0
  141.7989   82.5283  220.8390 H   0  0  0  0  0  0  0  0  0  0  0  0
  141.7833   83.0330  223.2673 H   0  0  0  0  0  0  0  0  0  0  0  0
  141.7882   81.2010  224.9318 H   0  0  0  0  0  0  0  0  0  0  0  0
  141.8120   78.8124  224.1568 H   0  0  0  0  0  0  0  0  0  0  0  0
  1  2  2  0
  2  3  1  0
  3  4  1  0
  4  5  1  0
  5  6  2  0
  5  7  1  0
  7  8  1  0
  8  9  1  0
  9 10  1  0
 10 11  1  0
 11 12  1  0
 12 13  1  0
 13 14  1  0
 14 15  2  0
 15 16  1  0
 16 17  2  0
 17 18  1  0
 17 19  1  0
 19 20  2  0
  2 21  1  0
 21 22  2  0
 22 23  1  0
 23 24  2  0
 24 25  1  0
 25 26  2  0
 26 27  1  0
 27 28  2  0
 28 29  1  0
 29 30  2  0
 11  7  1  0
 20 14  1  0
 30 21  1  0
 29 24  1  0
  3 31  1  0
  4 32  1  0
  4 33  1  0
  8 34  1  0
  8 35  1  0
  9 36  1  0
  9 37  1  0
 10 38  1  0
 10 39  1  0
 11 40  1  6
 12 41  1  0
 12 42  1  0
 13 43  1  0
 16 44  1  0
 19 45  1  0
 22 46  1  0
 23 47  1  0
 25 48  1  0
 26 49  1  0
 27 50  1  0
 28 51  1  0
M  END
>  <smiles>  (15) 
O=C(NCC(=O)N1CCC[C@H]1CNc1ncc(Cl)cn1)c1ccc2ccccc2n1

>  <score_type>  (15) 
oracle

>  <origin>  (15) 
autodockgpu

>  <m_score__min__energy>  (15) 
-8.8699999999999992

>  <m_primary>  (15) 
energy

>  <rmsd>  (15) 
8.61279510056604

>  <m_score__min__rmsd>  (15) 
8.61279510056604

>  <meeko>  (15) 
{"free_energy": -7.8, "intermolecular_energy": -9.89, "internal_energy": -2.54, "cluster_size": 10, "cluster_id": 4, "rank_in_cluster": 3}

>  <energy>  (15) 
-7.74

>  <cluster_rmsd>  (15) 
1.84

>  <cluster>  (15) 
3

$$$$

     RDKit          3D

 51 54  0  0  0  0  0  0  0  0999 V2000
  139.9760   70.8140  220.4800 O   0  0  0  0  0  0  0  0  0  0  0  0
  140.3750   71.5180  221.4570 C   0  0  0  0  0  0  0  0  0  0  0  0
  141.0590   72.7530  221.2850 N   0  0  0  0  0  0  0  0  0  0  0  0
  141.3470   73.2900  219.9820 C   0  0  0  0  0  0  0  0  0  0  0  0
  142.5480   74.1680  220.0720 C   0  0  0  0  0  0  0  0  0  0  0  0
  143.1610   74.1420  221.1870 O   0  0  0  0  0  0  0  0  0  0  0  0
  142.9740   74.9770  218.9850 N   0  0  0  0  0  0  0  0  0  0  0  0
  143.4520   74.4140  217.7120 C   0  0  0  0  0  0  0  0  0  0  0  0
  143.9920   75.6220  216.9500 C   0  0  0  0  0  0  0  0  0  0  0  0
  142.9970   76.6820  217.4390 C   0  0  0  0  0  0  0  0  0  0  0  0
  143.0170   76.4100  218.9300 C   0  0  1  0  0  0  0  0  0  0  0  0
  141.8710   77.1030  219.6090 C   0  0  0  0  0  0  0  0  0  0  0  0
  141.7420   76.5030  220.9450 N   0  0  0  0  0  0  0  0  0  0  0  0
  140.4520   76.3100  221.5190 C   0  0  0  0  0  0  0  0  0  0  0  0
  139.9600   75.0960  221.8040 N   0  0  0  0  0  0  0  0  0  0  0  0
  138.7500   74.8690  222.3450 C   0  0  0  0  0  0  0  0  0  0  0  0
  137.9420   75.9430  222.6350 C   0  0  0  0  0  0  0  0  0  0  0  0
  136.3690   75.6710  223.3370 Cl  0  0  0  0  0  0  0  0  0  0  0  0
  138.4320   77.2080  222.3480 C   0  0  0  0  0  0  0  0  0  0  0  0
  139.6510   77.3710  221.8060 N   0  0  0  0  0  0  0  0  0  0  0  0
  140.1170   71.0390  222.8310 C   0  0  0  0  0  0  0  0  0  0  0  0
  139.2450   69.9930  223.0440 C   0  0  0  0  0  0  0  0  0  0  0  0
  139.0340   69.5740  224.3590 C   0  0  0  0  0  0  0  0  0  0  0  0
  139.6880   70.2010  225.4170 C   0  0  0  0  0  0  0  0  0  0  0  0
  139.4860   69.7940  226.7240 C   0  0  0  0  0  0  0  0  0  0  0  0
  140.1540   70.4390  227.7480 C   0  0  0  0  0  0  0  0  0  0  0  0
  141.0180   71.4820  227.4800 C   0  0  0  0  0  0  0  0  0  0  0  0
  141.2230   71.8940  226.1640 C   0  0  0  0  0  0  0  0  0  0  0  0
  140.5410   71.2290  225.1570 C   0  0  0  0  0  0  0  0  0  0  0  0
  140.7370   71.6240  223.8890 N   0  0  0  0  0  0  0  0  0  0  0  0
  141.3500   73.2680  222.1510 H   0  0  0  0  0  0  0  0  0  0  0  0
  141.5441   72.4668  219.2795 H   0  0  0  0  0  0  0  0  0  0  0  0
  140.4867   73.8738  219.6229 H   0  0  0  0  0  0  0  0  0  0  0  0
  144.2476   73.6747  217.8863 H   0  0  0  0  0  0  0  0  0  0  0  0
  142.6603   73.8861  217.1601 H   0  0  0  0  0  0  0  0  0  0  0  0
  145.0257   75.8629  217.2388 H   0  0  0  0  0  0  0  0  0  0  0  0
  144.0553   75.5018  215.8584 H   0  0  0  0  0  0  0  0  0  0  0  0
  143.3416   77.7006  217.2070 H   0  0  0  0  0  0  0  0  0  0  0  0
  142.0011   76.6254  216.9753 H   0  0  0  0  0  0  0  0  0  0  0  0
  143.8946   76.7995  219.4667 H   0  0  0  0  0  0  0  0  0  0  0  0
  142.0778   78.1799  219.6960 H   0  0  0  0  0  0  0  0  0  0  0  0
  140.9416   76.9853  219.0325 H   0  0  0  0  0  0  0  0  0  0  0  0
  142.5590   76.2050  221.5070 H   0  0  0  0  0  0  0  0  0  0  0  0
  138.4127   73.8426  222.5518 H   0  0  0  0  0  0  0  0  0  0  0  0
  137.8139   78.0911  222.5672 H   0  0  0  0  0  0  0  0  0  0  0  0
  138.7311   69.5034  222.2037 H   0  0  0  0  0  0  0  0  0  0  0  0
  138.3448   68.7409  224.5614 H   0  0  0  0  0  0  0  0  0  0  0  0
  138.7994   68.9639  226.9464 H   0  0  0  0  0  0  0  0  0  0  0  0
  139.9954   70.1177  228.7880 H   0  0  0  0  0  0  0  0  0  0  0  0
  141.5438   71.9872  228.3036 H   0  0  0  0  0  0  0  0  0  0  0  0
  141.9068   72.7236  225.9313 H   0  0  0  0  0  0  0  0  0  0  0  0
  1  2  2  0
  2  3  1  0
  3  4  1  0
  4  5  1  0
  5  6  2  0
  5  7  1  0
  7  8  1  0
  8  9  1  0
  9 10  1  0
 10 11  1  0
 11 12  1  0
 12 13  1  0
 13 14  1  0
 14 15  2  0
 15 16  1  0
 16 17  2  0
 17 18  1  0
 17 19  1  0
 19 20  2  0
  2 21  1  0
 21 22  2  0
 22 23  1  0
 23 24  2  0
 24 25  1  0
 25 26  2  0
 26 27  1  0
 27 28  2  0
 28 29  1  0
 29 30  2  0
 11  7  1  0
 20 14  1  0
 30 21  1  0
 29 24  1  0
  3 31  1  0
  4 32  1  0
  4 33  1  0
  8 34  1  0
  8 35  1  0
  9 36  1  0
  9 37  1  0
 10 38  1  0
 10 39  1  0
 11 40  1  1
 12 41  1  0
 12 42  1  0
 13 43  1  0
 16 44  1  0
 19 45  1  0
 22 46  1  0
 23 47  1  0
 25 48  1  0
 26 49  1  0
 27 50  1  0
 28 51  1  0
M  END
>  <smiles>  (16) 
O=C(NCC(=O)N1CCC[C@H]1CNc1ncc(Cl)cn1)c1ccc2ccccc2n1

>  <score_type>  (16) 
oracle

>  <origin>  (16) 
autodockgpu

>  <m_score__min__energy>  (16) 
-8.8699999999999992

>  <m_primary>  (16) 
energy

>  <rmsd>  (16) 
2.5782591531001677

>  <m_score__min__rmsd>  (16) 
2.5782591531001677

>  <meeko>  (16) 
{"free_energy": -6.49, "intermolecular_energy": -8.57, "internal_energy": -3.15, "cluster_size": 1, "cluster_id": 13, "rank_in_cluster": 1}

>  <energy>  (16) 
-8.2

>  <cluster_rmsd>  (16) 
0.0

>  <cluster>  (16) 
4

$$$$

     RDKit          3D

 51 54  0  0  0  0  0  0  0  0999 V2000
  140.1850   73.1190  222.7710 O   0  0  0  0  0  0  0  0  0  0  0  0
  140.3030   71.8570  222.8330 C   0  0  0  0  0  0  0  0  0  0  0  0
  140.3470   71.0320  221.6760 N   0  0  0  0  0  0  0  0  0  0  0  0
  140.2600   71.5760  220.3470 C   0  0  0  0  0  0  0  0  0  0  0  0
  141.6120   71.5530  219.7210 C   0  0  0  0  0  0  0  0  0  0  0  0
  141.7610   70.7150  218.7740 O   0  0  0  0  0  0  0  0  0  0  0  0
  142.6600   72.4070  220.1560 N   0  0  0  0  0  0  0  0  0  0  0  0
  144.0790   72.0230  220.0940 C   0  0  0  0  0  0  0  0  0  0  0  0
  144.8000   73.1370  220.8520 C   0  0  0  0  0  0  0  0  0  0  0  0
  143.9070   74.3190  220.4510 C   0  0  0  0  0  0  0  0  0  0  0  0
  142.5360   73.7270  220.7070 C   0  0  1  0  0  0  0  0  0  0  0  0
  141.4690   74.5750  220.0790 C   0  0  0  0  0  0  0  0  0  0  0  0
  140.7590   75.2480  221.1770 N   0  0  0  0  0  0  0  0  0  0  0  0
  141.1250   76.5720  221.5580 C   0  0  0  0  0  0  0  0  0  0  0  0
  141.5110   77.5010  220.6710 N   0  0  0  0  0  0  0  0  0  0  0  0
  141.8640   78.7590  220.9860 C   0  0  0  0  0  0  0  0  0  0  0  0
  141.8360   79.1440  222.3050 C   0  0  0  0  0  0  0  0  0  0  0  0
  142.2900   80.7720  222.7370 Cl  0  0  0  0  0  0  0  0  0  0  0  0
  141.4390   78.1990  223.2390 C   0  0  0  0  0  0  0  0  0  0  0  0
  141.0980   76.9550  222.8620 N   0  0  0  0  0  0  0  0  0  0  0  0
  140.4000   71.2170  224.1610 C   0  0  0  0  0  0  0  0  0  0  0  0
  140.9510   71.9070  225.2200 C   0  0  0  0  0  0  0  0  0  0  0  0
  141.0210   71.2610  226.4570 C   0  0  0  0  0  0  0  0  0  0  0  0
  140.5460   69.9600  226.6050 C   0  0  0  0  0  0  0  0  0  0  0  0
  140.6110   69.3110  227.8260 C   0  0  0  0  0  0  0  0  0  0  0  0
  140.1300   68.0200  227.9360 C   0  0  0  0  0  0  0  0  0  0  0  0
  139.5870   67.3740  226.8430 C   0  0  0  0  0  0  0  0  0  0  0  0
  139.5210   68.0260  225.6120 C   0  0  0  0  0  0  0  0  0  0  0  0
  140.0110   69.3200  225.5310 C   0  0  0  0  0  0  0  0  0  0  0  0
  139.9480   69.9500  224.3460 N   0  0  0  0  0  0  0  0  0  0  0  0
  140.4470   69.9980  221.8240 H   0  0  0  0  0  0  0  0  0  0  0  0
  139.5655   70.9706  219.7460 H   0  0  0  0  0  0  0  0  0  0  0  0
  139.8910   72.6112  220.3939 H   0  0  0  0  0  0  0  0  0  0  0  0
  144.2420   71.0503  220.5812 H   0  0  0  0  0  0  0  0  0  0  0  0
  144.4415   71.9118  219.0614 H   0  0  0  0  0  0  0  0  0  0  0  0
  144.7948   72.9665  221.9387 H   0  0  0  0  0  0  0  0  0  0  0  0
  145.8689   73.2519  220.6191 H   0  0  0  0  0  0  0  0  0  0  0  0
  144.0929   75.2009  221.0816 H   0  0  0  0  0  0  0  0  0  0  0  0
  144.0643   74.6858  219.4260 H   0  0  0  0  0  0  0  0  0  0  0  0
  142.2313   73.6874  221.7632 H   0  0  0  0  0  0  0  0  0  0  0  0
  141.9230   75.3199  219.4090 H   0  0  0  0  0  0  0  0  0  0  0  0
  140.7792   73.9618  219.4806 H   0  0  0  0  0  0  0  0  0  0  0  0
  139.9880   74.8020  221.7030 H   0  0  0  0  0  0  0  0  0  0  0  0
  142.1698   79.4677  220.2022 H   0  0  0  0  0  0  0  0  0  0  0  0
  141.4027   78.4716  224.3041 H   0  0  0  0  0  0  0  0  0  0  0  0
  141.3240   72.9343  225.0949 H   0  0  0  0  0  0  0  0  0  0  0  0
  141.4551   71.7845  227.3216 H   0  0  0  0  0  0  0  0  0  0  0  0
  141.0419   69.8187  228.7015 H   0  0  0  0  0  0  0  0  0  0  0  0
  140.1803   67.5014  228.9048 H   0  0  0  0  0  0  0  0  0  0  0  0
  139.2071   66.3466  226.9432 H   0  0  0  0  0  0  0  0  0  0  0  0
  139.0922   67.5274  224.7302 H   0  0  0  0  0  0  0  0  0  0  0  0
  1  2  2  0
  2  3  1  0
  3  4  1  0
  4  5  1  0
  5  6  2  0
  5  7  1  0
  7  8  1  0
  8  9  1  0
  9 10  1  0
 10 11  1  0
 11 12  1  0
 12 13  1  0
 13 14  1  0
 14 15  2  0
 15 16  1  0
 16 17  2  0
 17 18  1  0
 17 19  1  0
 19 20  2  0
  2 21  1  0
 21 22  2  0
 22 23  1  0
 23 24  2  0
 24 25  1  0
 25 26  2  0
 26 27  1  0
 27 28  2  0
 28 29  1  0
 29 30  2  0
 11  7  1  0
 20 14  1  0
 30 21  1  0
 29 24  1  0
  3 31  1  0
  4 32  1  0
  4 33  1  0
  8 34  1  0
  8 35  1  0
  9 36  1  0
  9 37  1  0
 10 38  1  0
 10 39  1  0
 11 40  1  1
 12 41  1  0
 12 42  1  0
 13 43  1  0
 16 44  1  0
 19 45  1  0
 22 46  1  0
 23 47  1  0
 25 48  1  0
 26 49  1  0
 27 50  1  0
 28 51  1  0
M  END
>  <smiles>  (17) 
O=C(NCC(=O)N1CCC[C@H]1CNc1ncc(Cl)cn1)c1ccc2ccccc2n1

>  <score_type>  (17) 
oracle

>  <origin>  (17) 
autodockgpu

>  <m_score__min__energy>  (17) 
-8.8699999999999992

>  <m_primary>  (17) 
energy

>  <rmsd>  (17) 
4.148919361262727

>  <m_score__min__rmsd>  (17) 
4.148919361262727

>  <meeko>  (17) 
{"free_energy": -7.88, "intermolecular_energy": -9.96, "internal_energy": -2.39, "cluster_size": 7, "cluster_id": 3, "rank_in_cluster": 6}

>  <energy>  (17) 
-7.81

>  <cluster_rmsd>  (17) 
1.31

>  <cluster>  (17) 
4

$$$$

     RDKit          3D

 51 54  0  0  0  0  0  0  0  0999 V2000
  141.2910   71.8600  221.5230 O   0  0  0  0  0  0  0  0  0  0  0  0
  140.3570   72.1900  222.3160 C   0  0  0  0  0  0  0  0  0  0  0  0
  139.4650   73.2640  222.0480 N   0  0  0  0  0  0  0  0  0  0  0  0
  139.5620   74.0560  220.8510 C   0  0  0  0  0  0  0  0  0  0  0  0
  140.8710   74.7660  220.8410 C   0  0  0  0  0  0  0  0  0  0  0  0
  141.4350   74.8880  221.9770 O   0  0  0  0  0  0  0  0  0  0  0  0
  141.4460   75.2720  219.6450 N   0  0  0  0  0  0  0  0  0  0  0  0
  140.7830   76.2850  218.8090 C   0  0  0  0  0  0  0  0  0  0  0  0
  141.6490   76.3550  217.5520 C   0  0  0  0  0  0  0  0  0  0  0  0
  143.0220   76.1060  218.1900 C   0  0  0  0  0  0  0  0  0  0  0  0
  142.7060   74.9080  219.0630 C   0  0  1  0  0  0  0  0  0  0  0  0
  143.8120   74.6680  220.0490 C   0  0  0  0  0  0  0  0  0  0  0  0
  143.5170   73.3910  220.7160 N   0  0  0  0  0  0  0  0  0  0  0  0
  144.1050   72.1840  220.2390 C   0  0  0  0  0  0  0  0  0  0  0  0
  143.4350   71.0240  220.1830 N   0  0  0  0  0  0  0  0  0  0  0  0
  143.9510   69.8640  219.7400 C   0  0  0  0  0  0  0  0  0  0  0  0
  145.2560   69.8410  219.3090 C   0  0  0  0  0  0  0  0  0  0  0  0
  145.9440   68.3460  218.7300 Cl  0  0  0  0  0  0  0  0  0  0  0  0
  145.9670   71.0300  219.3570 C   0  0  0  0  0  0  0  0  0  0  0  0
  145.3960   72.1590  219.8110 N   0  0  0  0  0  0  0  0  0  0  0  0
  140.1870   71.4260  223.5700 C   0  0  0  0  0  0  0  0  0  0  0  0
  139.5190   70.2210  223.5570 C   0  0  0  0  0  0  0  0  0  0  0  0
  139.3830   69.5340  224.7660 C   0  0  0  0  0  0  0  0  0  0  0  0
  139.9090   70.0600  225.9430 C   0  0  0  0  0  0  0  0  0  0  0  0
  139.7800   69.3880  227.1460 C   0  0  0  0  0  0  0  0  0  0  0  0
  140.3160   69.9400  228.2940 C   0  0  0  0  0  0  0  0  0  0  0  0
  140.9770   71.1520  228.2530 C   0  0  0  0  0  0  0  0  0  0  0  0
  141.1080   71.8310  227.0410 C   0  0  0  0  0  0  0  0  0  0  0  0
  140.5610   71.2530  225.9060 C   0  0  0  0  0  0  0  0  0  0  0  0
  140.6870   71.9050  224.7390 N   0  0  0  0  0  0  0  0  0  0  0  0
  138.7220   73.4630  222.7620 H   0  0  0  0  0  0  0  0  0  0  0  0
  139.4912   73.4016  219.9696 H   0  0  0  0  0  0  0  0  0  0  0  0
  138.7425   74.7893  220.8245 H   0  0  0  0  0  0  0  0  0  0  0  0
  139.7573   75.9754  218.5599 H   0  0  0  0  0  0  0  0  0  0  0  0
  140.6937   77.2576  219.3151 H   0  0  0  0  0  0  0  0  0  0  0  0
  141.3844   75.5730  216.8251 H   0  0  0  0  0  0  0  0  0  0  0  0
  141.5606   77.2833  216.9686 H   0  0  0  0  0  0  0  0  0  0  0  0
  143.7844   75.8678  217.4336 H   0  0  0  0  0  0  0  0  0  0  0  0
  143.4410   76.9687  218.7287 H   0  0  0  0  0  0  0  0  0  0  0  0
  142.6329   73.9464  218.5339 H   0  0  0  0  0  0  0  0  0  0  0  0
  144.7784   74.6081  219.5269 H   0  0  0  0  0  0  0  0  0  0  0  0
  143.8754   75.4889  220.7785 H   0  0  0  0  0  0  0  0  0  0  0  0
  142.8890   73.3180  221.5360 H   0  0  0  0  0  0  0  0  0  0  0  0
  143.3396   68.9497  219.7228 H   0  0  0  0  0  0  0  0  0  0  0  0
  147.0135   71.0499  219.0187 H   0  0  0  0  0  0  0  0  0  0  0  0
  139.1054   69.8123  222.6233 H   0  0  0  0  0  0  0  0  0  0  0  0
  138.8556   68.5689  224.7882 H   0  0  0  0  0  0  0  0  0  0  0  0
  139.2550   68.4223  227.1881 H   0  0  0  0  0  0  0  0  0  0  0  0
  140.2150   69.4079  229.2515 H   0  0  0  0  0  0  0  0  0  0  0  0
  141.3992   71.5811  229.1737 H   0  0  0  0  0  0  0  0  0  0  0  0
  141.6305   72.7975  226.9878 H   0  0  0  0  0  0  0  0  0  0  0  0
  1  2  2  0
  2  3  1  0
  3  4  1  0
  4  5  1  0
  5  6  2  0
  5  7  1  0
  7  8  1  0
  8  9  1  0
  9 10  1  0
 10 11  1  0
 11 12  1  0
 12 13  1  0
 13 14  1  0
 14 15  2  0
 15 16  1  0
 16 17  2  0
 17 18  1  0
 17 19  1  0
 19 20  2  0
  2 21  1  0
 21 22  2  0
 22 23  1  0
 23 24  2  0
 24 25  1  0
 25 26  2  0
 26 27  1  0
 27 28  2  0
 28 29  1  0
 29 30  2  0
 11  7  1  0
 20 14  1  0
 30 21  1  0
 29 24  1  0
  3 31  1  0
  4 32  1  0
  4 33  1  0
  8 34  1  0
  8 35  1  0
  9 36  1  0
  9 37  1  0
 10 38  1  0
 10 39  1  0
 11 40  1  6
 12 41  1  0
 12 42  1  0
 13 43  1  0
 16 44  1  0
 19 45  1  0
 22 46  1  0
 23 47  1  0
 25 48  1  0
 26 49  1  0
 27 50  1  0
 28 51  1  0
M  END
>  <smiles>  (18) 
O=C(NCC(=O)N1CCC[C@H]1CNc1ncc(Cl)cn1)c1ccc2ccccc2n1

>  <score_type>  (18) 
oracle

>  <origin>  (18) 
autodockgpu

>  <m_score__min__energy>  (18) 
-8.8699999999999992

>  <m_primary>  (18) 
energy

>  <rmsd>  (18) 
2.509616246360197

>  <m_score__min__rmsd>  (18) 
2.509616246360197

>  <meeko>  (18) 
{"free_energy": -7.51, "intermolecular_energy": -9.6, "internal_energy": -2.75, "cluster_size": 6, "cluster_id": 1, "rank_in_cluster": 5}

>  <energy>  (18) 
-7.8

>  <cluster_rmsd>  (18) 
1.82

>  <cluster>  (18) 
4

$$$$

     RDKit          3D

 51 54  0  0  0  0  0  0  0  0999 V2000
  138.6460   75.4360  221.8070 O   0  0  0  0  0  0  0  0  0  0  0  0
  139.8350   75.8300  222.0100 C   0  0  0  0  0  0  0  0  0  0  0  0
  140.9640   74.9810  221.8450 N   0  0  0  0  0  0  0  0  0  0  0  0
  140.8340   73.6090  221.4350 C   0  0  0  0  0  0  0  0  0  0  0  0
  141.8060   73.3320  220.3410 C   0  0  0  0  0  0  0  0  0  0  0  0
  141.2940   72.9770  219.2310 O   0  0  0  0  0  0  0  0  0  0  0  0
  143.2090   73.4570  220.5290 N   0  0  0  0  0  0  0  0  0  0  0  0
  144.0800   72.3060  220.8130 C   0  0  0  0  0  0  0  0  0  0  0  0
  145.4320   72.9350  221.1450 C   0  0  0  0  0  0  0  0  0  0  0  0
  145.3820   74.1350  220.1910 C   0  0  0  0  0  0  0  0  0  0  0  0
  143.9900   74.6600  220.4810 C   0  0  1  0  0  0  0  0  0  0  0  0
  143.5690   75.6460  219.4310 C   0  0  0  0  0  0  0  0  0  0  0  0
  142.7710   76.6770  220.1120 N   0  0  0  0  0  0  0  0  0  0  0  0
  142.2530   77.7800  219.3740 C   0  0  0  0  0  0  0  0  0  0  0  0
  141.0510   78.3190  219.6250 N   0  0  0  0  0  0  0  0  0  0  0  0
  140.5240   79.3590  218.9540 C   0  0  0  0  0  0  0  0  0  0  0  0
  141.2520   79.9270  217.9360 C   0  0  0  0  0  0  0  0  0  0  0  0
  140.5880   81.2770  217.0530 Cl  0  0  0  0  0  0  0  0  0  0  0  0
  142.4980   79.3860  217.6600 C   0  0  0  0  0  0  0  0  0  0  0  0
  142.9710   78.3440  218.3660 N   0  0  0  0  0  0  0  0  0  0  0  0
  140.0590   77.2280  222.4330 C   0  0  0  0  0  0  0  0  0  0  0  0
  138.9840   78.0440  222.7110 C   0  0  0  0  0  0  0  0  0  0  0  0
  139.2440   79.3580  223.1080 C   0  0  0  0  0  0  0  0  0  0  0  0
  140.5530   79.8200  223.2160 C   0  0  0  0  0  0  0  0  0  0  0  0
  140.8220   81.1200  223.6090 C   0  0  0  0  0  0  0  0  0  0  0  0
  142.1340   81.5430  223.7060 C   0  0  0  0  0  0  0  0  0  0  0  0
  143.1760   80.6840  223.4160 C   0  0  0  0  0  0  0  0  0  0  0  0
  142.9070   79.3740  223.0200 C   0  0  0  0  0  0  0  0  0  0  0  0
  141.5820   78.9770  222.9320 C   0  0  0  0  0  0  0  0  0  0  0  0
  141.3220   77.7160  222.5510 N   0  0  0  0  0  0  0  0  0  0  0  0
  141.9100   75.3940  222.0350 H   0  0  0  0  0  0  0  0  0  0  0  0
  141.0429   72.9481  222.2892 H   0  0  0  0  0  0  0  0  0  0  0  0
  139.8105   73.4253  221.0761 H   0  0  0  0  0  0  0  0  0  0  0  0
  143.6976   71.7284  221.6675 H   0  0  0  0  0  0  0  0  0  0  0  0
  144.1375   71.6018  219.9699 H   0  0  0  0  0  0  0  0  0  0  0  0
  145.4935   73.2478  222.1978 H   0  0  0  0  0  0  0  0  0  0  0  0
  146.3026   72.2732  221.0260 H   0  0  0  0  0  0  0  0  0  0  0  0
  146.1553   74.8789  220.4331 H   0  0  0  0  0  0  0  0  0  0  0  0
  145.5688   73.8895  219.1351 H   0  0  0  0  0  0  0  0  0  0  0  0
  143.8882   75.2339  221.4139 H   0  0  0  0  0  0  0  0  0  0  0  0
  144.4540   76.1006  218.9618 H   0  0  0  0  0  0  0  0  0  0  0  0
  142.9853   75.1541  218.6390 H   0  0  0  0  0  0  0  0  0  0  0  0
  142.5590   76.6440  221.1240 H   0  0  0  0  0  0  0  0  0  0  0  0
  139.5287   79.7477  219.2153 H   0  0  0  0  0  0  0  0  0  0  0  0
  143.1085   79.8152  216.8519 H   0  0  0  0  0  0  0  0  0  0  0  0
  137.9525   77.6721  222.6230 H   0  0  0  0  0  0  0  0  0  0  0  0
  138.4069   80.0338  223.3374 H   0  0  0  0  0  0  0  0  0  0  0  0
  139.9981   81.8105  223.8421 H   0  0  0  0  0  0  0  0  0  0  0  0
  142.3509   82.5754  224.0176 H   0  0  0  0  0  0  0  0  0  0  0  0
  144.2162   81.0324  223.4972 H   0  0  0  0  0  0  0  0  0  0  0  0
  143.7234   78.6756  222.7842 H   0  0  0  0  0  0  0  0  0  0  0  0
  1  2  2  0
  2  3  1  0
  3  4  1  0
  4  5  1  0
  5  6  2  0
  5  7  1  0
  7  8  1  0
  8  9  1  0
  9 10  1  0
 10 11  1  0
 11 12  1  0
 12 13  1  0
 13 14  1  0
 14 15  2  0
 15 16  1  0
 16 17  2  0
 17 18  1  0
 17 19  1  0
 19 20  2  0
  2 21  1  0
 21 22  2  0
 22 23  1  0
 23 24  2  0
 24 25  1  0
 25 26  2  0
 26 27  1  0
 27 28  2  0
 28 29  1  0
 29 30  2  0
 11  7  1  0
 20 14  1  0
 30 21  1  0
 29 24  1  0
  3 31  1  0
  4 32  1  0
  4 33  1  0
  8 34  1  0
  8 35  1  0
  9 36  1  0
  9 37  1  0
 10 38  1  0
 10 39  1  0
 11 40  1  1
 12 41  1  0
 12 42  1  0
 13 43  1  0
 16 44  1  0
 19 45  1  0
 22 46  1  0
 23 47  1  0
 25 48  1  0
 26 49  1  0
 27 50  1  0
 28 51  1  0
M  END
>  <smiles>  (19) 
O=C(NCC(=O)N1CCC[C@H]1CNc1ncc(Cl)cn1)c1ccc2ccccc2n1

>  <score_type>  (19) 
oracle

>  <origin>  (19) 
autodockgpu

>  <m_score__min__energy>  (19) 
-8.8699999999999992

>  <m_primary>  (19) 
energy

>  <rmsd>  (19) 
7.557905595179676

>  <m_score__min__rmsd>  (19) 
7.557905595179676

>  <meeko>  (19) 
{"free_energy": -7.04, "intermolecular_energy": -9.13, "internal_energy": -3.29, "cluster_size": 9, "cluster_id": 10, "rank_in_cluster": 1}

>  <energy>  (19) 
-7.76

>  <cluster_rmsd>  (19) 
1.33

>  <cluster>  (19) 
4

$$$$

     RDKit          3D

 51 54  0  0  0  0  0  0  0  0999 V2000
  138.8010   70.8970  221.4500 O   0  0  0  0  0  0  0  0  0  0  0  0
  139.2200   71.5460  222.4560 C   0  0  0  0  0  0  0  0  0  0  0  0
  139.4400   72.9510  222.4270 N   0  0  0  0  0  0  0  0  0  0  0  0
  139.2000   73.7360  221.2470 C   0  0  0  0  0  0  0  0  0  0  0  0
  139.9770   75.0040  221.3380 C   0  0  0  0  0  0  0  0  0  0  0  0
  140.8050   75.0690  222.3040 O   0  0  0  0  0  0  0  0  0  0  0  0
  139.8020   76.0650  220.4100 N   0  0  0  0  0  0  0  0  0  0  0  0
  140.4100   76.0590  219.0700 C   0  0  0  0  0  0  0  0  0  0  0  0
  140.1360   77.4620  218.5310 C   0  0  0  0  0  0  0  0  0  0  0  0
  138.7640   77.7050  219.1740 C   0  0  0  0  0  0  0  0  0  0  0  0
  139.0460   77.2700  220.5980 C   0  0  1  0  0  0  0  0  0  0  0  0
  137.7660   77.1010  221.3620 C   0  0  0  0  0  0  0  0  0  0  0  0
  137.8590   77.9670  222.5460 N   0  0  0  0  0  0  0  0  0  0  0  0
  139.0830   78.6280  222.8520 C   0  0  0  0  0  0  0  0  0  0  0  0
  139.1850   79.9620  222.9360 N   0  0  0  0  0  0  0  0  0  0  0  0
  140.3190   80.6260  223.2220 C   0  0  0  0  0  0  0  0  0  0  0  0
  141.4680   79.9070  223.4480 C   0  0  0  0  0  0  0  0  0  0  0  0
  142.9500   80.7480  223.8210 Cl  0  0  0  0  0  0  0  0  0  0  0  0
  141.3850   78.5250  223.3680 C   0  0  0  0  0  0  0  0  0  0  0  0
  140.2210   77.9180  223.0770 N   0  0  0  0  0  0  0  0  0  0  0  0
  139.4910   70.8150  223.7110 C   0  0  0  0  0  0  0  0  0  0  0  0
  139.2120   69.4680  223.7980 C   0  0  0  0  0  0  0  0  0  0  0  0
  139.4850   68.8190  225.0040 C   0  0  0  0  0  0  0  0  0  0  0  0
  140.0220   69.5190  226.0810 C   0  0  0  0  0  0  0  0  0  0  0  0
  140.2970   68.8860  227.2810 C   0  0  0  0  0  0  0  0  0  0  0  0
  140.8300   69.6130  228.3270 C   0  0  0  0  0  0  0  0  0  0  0  0
  141.0920   70.9620  228.1880 C   0  0  0  0  0  0  0  0  0  0  0  0
  140.8160   71.6020  226.9800 C   0  0  0  0  0  0  0  0  0  0  0  0
  140.2820   70.8480  225.9480 C   0  0  0  0  0  0  0  0  0  0  0  0
  140.0160   71.4630  224.7840 N   0  0  0  0  0  0  0  0  0  0  0  0
  139.7870   73.4030  223.3080 H   0  0  0  0  0  0  0  0  0  0  0  0
  139.5188   73.1717  220.3582 H   0  0  0  0  0  0  0  0  0  0  0  0
  138.1270   73.9642  221.1659 H   0  0  0  0  0  0  0  0  0  0  0  0
  141.4917   75.8690  219.1327 H   0  0  0  0  0  0  0  0  0  0  0  0
  139.9988   75.2701  218.4230 H   0  0  0  0  0  0  0  0  0  0  0  0
  140.8866   78.1892  218.8743 H   0  0  0  0  0  0  0  0  0  0  0  0
  140.1687   77.5619  217.4360 H   0  0  0  0  0  0  0  0  0  0  0  0
  138.4735   78.7647  219.1230 H   0  0  0  0  0  0  0  0  0  0  0  0
  137.9303   77.1758  218.6894 H   0  0  0  0  0  0  0  0  0  0  0  0
  139.6040   77.9945  221.2093 H   0  0  0  0  0  0  0  0  0  0  0  0
  136.9109   77.4022  220.7391 H   0  0  0  0  0  0  0  0  0  0  0  0
  137.6163   76.0507  221.6527 H   0  0  0  0  0  0  0  0  0  0  0  0
  137.0620   78.1280  223.1870 H   0  0  0  0  0  0  0  0  0  0  0  0
  140.3266   81.7247  223.2741 H   0  0  0  0  0  0  0  0  0  0  0  0
  142.2842   77.9167  223.5451 H   0  0  0  0  0  0  0  0  0  0  0  0
  138.7872   68.9209  222.9435 H   0  0  0  0  0  0  0  0  0  0  0  0
  139.2737   67.7441  225.1040 H   0  0  0  0  0  0  0  0  0  0  0  0
  140.0924   67.8118  227.4004 H   0  0  0  0  0  0  0  0  0  0  0  0
  141.0484   69.1122  229.2817 H   0  0  0  0  0  0  0  0  0  0  0  0
  141.5174   71.5303  229.0283 H   0  0  0  0  0  0  0  0  0  0  0  0
  141.0168   72.6757  226.8503 H   0  0  0  0  0  0  0  0  0  0  0  0
  1  2  2  0
  2  3  1  0
  3  4  1  0
  4  5  1  0
  5  6  2  0
  5  7  1  0
  7  8  1  0
  8  9  1  0
  9 10  1  0
 10 11  1  0
 11 12  1  0
 12 13  1  0
 13 14  1  0
 14 15  2  0
 15 16  1  0
 16 17  2  0
 17 18  1  0
 17 19  1  0
 19 20  2  0
  2 21  1  0
 21 22  2  0
 22 23  1  0
 23 24  2  0
 24 25  1  0
 25 26  2  0
 26 27  1  0
 27 28  2  0
 28 29  1  0
 29 30  2  0
 11  7  1  0
 20 14  1  0
 30 21  1  0
 29 24  1  0
  3 31  1  0
  4 32  1  0
  4 33  1  0
  8 34  1  0
  8 35  1  0
  9 36  1  0
  9 37  1  0
 10 38  1  0
 10 39  1  0
 11 40  1  1
 12 41  1  0
 12 42  1  0
 13 43  1  0
 16 44  1  0
 19 45  1  0
 22 46  1  0
 23 47  1  0
 25 48  1  0
 26 49  1  0
 27 50  1  0
 28 51  1  0
M  END
>  <smiles>  (20) 
O=C(NCC(=O)N1CCC[C@H]1CNc1ncc(Cl)cn1)c1ccc2ccccc2n1

>  <score_type>  (20) 
oracle

>  <origin>  (20) 
autodockgpu

>  <m_score__min__energy>  (20) 
-8.8699999999999992

>  <m_primary>  (20) 
energy

>  <rmsd>  (20) 
1.880018938113125

>  <m_score__min__rmsd>  (20) 
1.880018938113125

>  <meeko>  (20) 
{"free_energy": -7.54, "intermolecular_energy": -9.63, "internal_energy": -2.29, "cluster_size": 4, "cluster_id": 5, "rank_in_cluster": 4}

>  <energy>  (20) 
-7.75

>  <cluster_rmsd>  (20) 
1.32

>  <cluster>  (20) 
4

$$$$

     RDKit          3D

 51 54  0  0  0  0  0  0  0  0999 V2000
  136.9290   71.1790  223.1770 O   0  0  0  0  0  0  0  0  0  0  0  0
  138.1810   71.2250  223.3790 C   0  0  0  0  0  0  0  0  0  0  0  0
  139.0360   72.1340  222.6980 N   0  0  0  0  0  0  0  0  0  0  0  0
  138.5370   73.0700  221.7270 C   0  0  0  0  0  0  0  0  0  0  0  0
  139.1630   74.4000  221.9640 C   0  0  0  0  0  0  0  0  0  0  0  0
  140.3960   74.3740  222.2830 O   0  0  0  0  0  0  0  0  0  0  0  0
  138.4320   75.6110  221.8430 N   0  0  0  0  0  0  0  0  0  0  0  0
  138.9720   76.8060  221.1750 C   0  0  0  0  0  0  0  0  0  0  0  0
  137.9470   77.8970  221.4750 C   0  0  0  0  0  0  0  0  0  0  0  0
  136.6720   77.0430  221.4550 C   0  0  0  0  0  0  0  0  0  0  0  0
  137.1070   75.8800  222.3240 C   0  0  1  0  0  0  0  0  0  0  0  0
  136.1430   74.7360  222.1960 C   0  0  0  0  0  0  0  0  0  0  0  0
  136.2020   73.9860  223.4590 N   0  0  0  0  0  0  0  0  0  0  0  0
  135.2110   74.1970  224.4610 C   0  0  0  0  0  0  0  0  0  0  0  0
  134.3270   73.2540  224.8160 N   0  0  0  0  0  0  0  0  0  0  0  0
  133.3770   73.4100  225.7550 C   0  0  0  0  0  0  0  0  0  0  0  0
  133.2860   74.6150  226.4100 C   0  0  0  0  0  0  0  0  0  0  0  0
  132.0620   74.8390  227.6310 Cl  0  0  0  0  0  0  0  0  0  0  0  0
  134.1910   75.6050  226.0590 C   0  0  0  0  0  0  0  0  0  0  0  0
  135.1200   75.3890  225.1110 N   0  0  0  0  0  0  0  0  0  0  0  0
  138.7760   70.2970  224.3630 C   0  0  0  0  0  0  0  0  0  0  0  0
  138.6290   68.9370  224.2050 C   0  0  0  0  0  0  0  0  0  0  0  0
  139.2100   68.0990  225.1600 C   0  0  0  0  0  0  0  0  0  0  0  0
  139.9140   68.6320  226.2370 C   0  0  0  0  0  0  0  0  0  0  0  0
  140.4940   67.8120  227.1890 C   0  0  0  0  0  0  0  0  0  0  0  0
  141.1860   68.3770  228.2430 C   0  0  0  0  0  0  0  0  0  0  0  0
  141.3050   69.7480  228.3550 C   0  0  0  0  0  0  0  0  0  0  0  0
  140.7210   70.5770  227.3970 C   0  0  0  0  0  0  0  0  0  0  0  0
  140.0340   69.9820  226.3510 C   0  0  0  0  0  0  0  0  0  0  0  0
  139.4720   70.7790  225.4270 N   0  0  0  0  0  0  0  0  0  0  0  0
  140.0590   72.1000  222.9300 H   0  0  0  0  0  0  0  0  0  0  0  0
  138.7885   72.7198  220.7150 H   0  0  0  0  0  0  0  0  0  0  0  0
  137.4442   73.1533  221.8209 H   0  0  0  0  0  0  0  0  0  0  0  0
  139.9568   77.0718  221.5868 H   0  0  0  0  0  0  0  0  0  0  0  0
  139.1226   76.6541  220.0960 H   0  0  0  0  0  0  0  0  0  0  0  0
  138.1160   78.3625  222.4572 H   0  0  0  0  0  0  0  0  0  0  0  0
  137.9529   78.7534  220.7847 H   0  0  0  0  0  0  0  0  0  0  0  0
  135.8168   77.5793  221.8921 H   0  0  0  0  0  0  0  0  0  0  0  0
  136.3244   76.7605  220.4503 H   0  0  0  0  0  0  0  0  0  0  0  0
  137.1132   76.0781  223.4060 H   0  0  0  0  0  0  0  0  0  0  0  0
  135.1244   75.1163  222.0288 H   0  0  0  0  0  0  0  0  0  0  0  0
  136.4054   74.0929  221.3430 H   0  0  0  0  0  0  0  0  0  0  0  0
  136.9440   73.2950  223.6670 H   0  0  0  0  0  0  0  0  0  0  0  0
  132.6857   72.5886  225.9944 H   0  0  0  0  0  0  0  0  0  0  0  0
  134.1485   76.5816  226.5635 H   0  0  0  0  0  0  0  0  0  0  0  0
  138.0708   68.5228  223.3524 H   0  0  0  0  0  0  0  0  0  0  0  0
  139.1105   67.0081  225.0604 H   0  0  0  0  0  0  0  0  0  0  0  0
  140.4048   66.7187  227.1072 H   0  0  0  0  0  0  0  0  0  0  0  0
  141.6473   67.7273  229.0014 H   0  0  0  0  0  0  0  0  0  0  0  0
  141.8593   70.1858  229.1982 H   0  0  0  0  0  0  0  0  0  0  0  0
  140.8035   71.6715  227.4699 H   0  0  0  0  0  0  0  0  0  0  0  0
  1  2  2  0
  2  3  1  0
  3  4  1  0
  4  5  1  0
  5  6  2  0
  5  7  1  0
  7  8  1  0
  8  9  1  0
  9 10  1  0
 10 11  1  0
 11 12  1  0
 12 13  1  0
 13 14  1  0
 14 15  2  0
 15 16  1  0
 16 17  2  0
 17 18  1  0
 17 19  1  0
 19 20  2  0
  2 21  1  0
 21 22  2  0
 22 23  1  0
 23 24  2  0
 24 25  1  0
 25 26  2  0
 26 27  1  0
 27 28  2  0
 28 29  1  0
 29 30  2  0
 11  7  1  0
 20 14  1  0
 30 21  1  0
 29 24  1  0
  3 31  1  0
  4 32  1  0
  4 33  1  0
  8 34  1  0
  8 35  1  0
  9 36  1  0
  9 37  1  0
 10 38  1  0
 10 39  1  0
 11 40  1  1
 12 41  1  0
 12 42  1  0
 13 43  1  0
 16 44  1  0
 19 45  1  0
 22 46  1  0
 23 47  1  0
 25 48  1  0
 26 49  1  0
 27 50  1  0
 28 51  1  0
M  END
>  <smiles>  (21) 
O=C(NCC(=O)N1CCC[C@H]1CNc1ncc(Cl)cn1)c1ccc2ccccc2n1

>  <score_type>  (21) 
oracle

>  <origin>  (21) 
autodockgpu

>  <m_score__min__energy>  (21) 
-8.8699999999999992

>  <m_primary>  (21) 
energy

>  <rmsd>  (21) 
3.5659522097761767

>  <m_score__min__rmsd>  (21) 
3.5659522097761767

>  <meeko>  (21) 
{"free_energy": -7.48, "intermolecular_energy": -9.56, "internal_energy": -2.3, "cluster_size": 2, "cluster_id": 6, "rank_in_cluster": 1}

>  <energy>  (21) 
-7.72

>  <cluster_rmsd>  (21) 
1.4

>  <cluster>  (21) 
4

$$$$

     RDKit          3D

 51 54  0  0  0  0  0  0  0  0999 V2000
  138.0950   69.7570  221.9390 O   0  0  0  0  0  0  0  0  0  0  0  0
  138.5810   70.4970  222.8490 C   0  0  0  0  0  0  0  0  0  0  0  0
  138.7020   71.9070  222.7090 N   0  0  0  0  0  0  0  0  0  0  0  0
  138.2800   72.5950  221.5190 C   0  0  0  0  0  0  0  0  0  0  0  0
  139.1190   73.8120  221.3360 C   0  0  0  0  0  0  0  0  0  0  0  0
  139.8880   74.0980  222.3100 O   0  0  0  0  0  0  0  0  0  0  0  0
  139.0600   74.5980  220.1540 N   0  0  0  0  0  0  0  0  0  0  0  0
  139.0840   74.0110  218.8050 C   0  0  0  0  0  0  0  0  0  0  0  0
  139.2200   75.2170  217.8770 C   0  0  0  0  0  0  0  0  0  0  0  0
  138.3950   76.2330  218.6780 C   0  0  0  0  0  0  0  0  0  0  0  0
  138.9740   76.0280  220.0630 C   0  0  1  0  0  0  0  0  0  0  0  0
  138.1050   76.6760  221.1000 C   0  0  0  0  0  0  0  0  0  0  0  0
  138.8570   76.6480  222.3630 N   0  0  0  0  0  0  0  0  0  0  0  0
  139.6960   77.7440  222.7190 C   0  0  0  0  0  0  0  0  0  0  0  0
  139.2110   78.9250  223.1280 N   0  0  0  0  0  0  0  0  0  0  0  0
  139.9650   79.9840  223.4730 C   0  0  0  0  0  0  0  0  0  0  0  0
  141.3330   79.8710  223.4090 C   0  0  0  0  0  0  0  0  0  0  0  0
  142.3310   81.2310  223.8510 Cl  0  0  0  0  0  0  0  0  0  0  0  0
  141.8560   78.6570  222.9880 C   0  0  0  0  0  0  0  0  0  0  0  0
  141.0500   77.6340  222.6570 N   0  0  0  0  0  0  0  0  0  0  0  0
  139.0380   69.8690  224.1060 C   0  0  0  0  0  0  0  0  0  0  0  0
  138.8480   68.5200  224.3120 C   0  0  0  0  0  0  0  0  0  0  0  0
  139.2980   67.9710  225.5150 C   0  0  0  0  0  0  0  0  0  0  0  0
  139.9180   68.7720  226.4720 C   0  0  0  0  0  0  0  0  0  0  0  0
  140.3670   68.2380  227.6670 C   0  0  0  0  0  0  0  0  0  0  0  0
  140.9780   69.0630  228.5930 C   0  0  0  0  0  0  0  0  0  0  0  0
  141.1440   70.4100  228.3370 C   0  0  0  0  0  0  0  0  0  0  0  0
  140.6920   70.9490  227.1330 C   0  0  0  0  0  0  0  0  0  0  0  0
  140.0840   70.0990  226.2240 C   0  0  0  0  0  0  0  0  0  0  0  0
  139.6480   70.6170  225.0630 N   0  0  0  0  0  0  0  0  0  0  0  0
  139.1150   72.4370  223.5150 H   0  0  0  0  0  0  0  0  0  0  0  0
  138.3977   71.9322  220.6490 H   0  0  0  0  0  0  0  0  0  0  0  0
  137.2230   72.8845  221.6135 H   0  0  0  0  0  0  0  0  0  0  0  0
  139.9410   73.3311  218.6901 H   0  0  0  0  0  0  0  0  0  0  0  0
  138.1876   73.4110  218.5894 H   0  0  0  0  0  0  0  0  0  0  0  0
  140.2672   75.5340  217.7640 H   0  0  0  0  0  0  0  0  0  0  0  0
  138.8913   75.0544  216.8399 H   0  0  0  0  0  0  0  0  0  0  0  0
  138.5557   77.2601  218.3186 H   0  0  0  0  0  0  0  0  0  0  0  0
  137.3059   76.0937  218.6112 H   0  0  0  0  0  0  0  0  0  0  0  0
  139.9549   76.4947  220.2365 H   0  0  0  0  0  0  0  0  0  0  0  0
  137.8845   77.7149  220.8137 H   0  0  0  0  0  0  0  0  0  0  0  0
  137.1469   76.1449  221.1996 H   0  0  0  0  0  0  0  0  0  0  0  0
  138.8090   75.8550  223.0270 H   0  0  0  0  0  0  0  0  0  0  0  0
  139.4952   80.9232  223.8004 H   0  0  0  0  0  0  0  0  0  0  0  0
  142.9468   78.5299  222.9242 H   0  0  0  0  0  0  0  0  0  0  0  0
  138.3569   67.8943  223.5522 H   0  0  0  0  0  0  0  0  0  0  0  0
  139.1618   66.8968  225.7087 H   0  0  0  0  0  0  0  0  0  0  0  0
  140.2389   67.1661  227.8784 H   0  0  0  0  0  0  0  0  0  0  0  0
  141.3359   68.6419  229.5441 H   0  0  0  0  0  0  0  0  0  0  0  0
  141.6318   71.0564  229.0815 H   0  0  0  0  0  0  0  0  0  0  0  0
  140.8149   72.0194  226.9113 H   0  0  0  0  0  0  0  0  0  0  0  0
  1  2  2  0
  2  3  1  0
  3  4  1  0
  4  5  1  0
  5  6  2  0
  5  7  1  0
  7  8  1  0
  8  9  1  0
  9 10  1  0
 10 11  1  0
 11 12  1  0
 12 13  1  0
 13 14  1  0
 14 15  2  0
 15 16  1  0
 16 17  2  0
 17 18  1  0
 17 19  1  0
 19 20  2  0
  2 21  1  0
 21 22  2  0
 22 23  1  0
 23 24  2  0
 24 25  1  0
 25 26  2  0
 26 27  1  0
 27 28  2  0
 28 29  1  0
 29 30  2  0
 11  7  1  0
 20 14  1  0
 30 21  1  0
 29 24  1  0
  3 31  1  0
  4 32  1  0
  4 33  1  0
  8 34  1  0
  8 35  1  0
  9 36  1  0
  9 37  1  0
 10 38  1  0
 10 39  1  0
 11 40  1  6
 12 41  1  0
 12 42  1  0
 13 43  1  0
 16 44  1  0
 19 45  1  0
 22 46  1  0
 23 47  1  0
 25 48  1  0
 26 49  1  0
 27 50  1  0
 28 51  1  0
M  END
>  <smiles>  (22) 
O=C(NCC(=O)N1CCC[C@H]1CNc1ncc(Cl)cn1)c1ccc2ccccc2n1

>  <score_type>  (22) 
oracle

>  <origin>  (22) 
autodockgpu

>  <m_score__min__energy>  (22) 
-8.8699999999999992

>  <m_primary>  (22) 
energy

>  <rmsd>  (22) 
1.7657547997867393

>  <m_score__min__rmsd>  (22) 
1.7657547997867393

>  <meeko>  (22) 
{"free_energy": -7.73, "intermolecular_energy": -9.82, "internal_energy": -2.71, "cluster_size": 4, "cluster_id": 5, "rank_in_cluster": 3}

>  <energy>  (22) 
-7.65

>  <cluster_rmsd>  (22) 
1.41

>  <cluster>  (22) 
4

$$$$

     RDKit          3D

 51 54  0  0  0  0  0  0  0  0999 V2000
  139.5920   74.4430  222.1260 O   0  0  0  0  0  0  0  0  0  0  0  0
  140.5430   75.2620  221.9360 C   0  0  0  0  0  0  0  0  0  0  0  0
  141.7720   74.8850  221.3290 N   0  0  0  0  0  0  0  0  0  0  0  0
  142.0230   73.5390  220.8860 C   0  0  0  0  0  0  0  0  0  0  0  0
  143.2220   73.5330  220.0020 C   0  0  0  0  0  0  0  0  0  0  0  0
  144.1930   74.2590  220.3920 O   0  0  0  0  0  0  0  0  0  0  0  0
  143.2740   72.7690  218.8060 N   0  0  0  0  0  0  0  0  0  0  0  0
  142.9730   71.3290  218.7670 C   0  0  0  0  0  0  0  0  0  0  0  0
  143.3620   70.9050  217.3520 C   0  0  0  0  0  0  0  0  0  0  0  0
  142.9720   72.1850  216.6000 C   0  0  0  0  0  0  0  0  0  0  0  0
  143.6110   73.2320  217.4900 C   0  0  1  0  0  0  0  0  0  0  0  0
  143.0940   74.6000  217.1500 C   0  0  0  0  0  0  0  0  0  0  0  0
  143.7370   75.5400  218.0800 N   0  0  0  0  0  0  0  0  0  0  0  0
  143.1180   76.7910  218.3710 C   0  0  0  0  0  0  0  0  0  0  0  0
  142.5520   77.0610  219.5560 N   0  0  0  0  0  0  0  0  0  0  0  0
  141.9590   78.2250  219.8720 C   0  0  0  0  0  0  0  0  0  0  0  0
  141.9170   79.2250  218.9290 C   0  0  0  0  0  0  0  0  0  0  0  0
  141.1520   80.7430  219.3190 Cl  0  0  0  0  0  0  0  0  0  0  0  0
  142.4980   78.9670  217.6970 C   0  0  0  0  0  0  0  0  0  0  0  0
  143.0770   77.7810  217.4390 N   0  0  0  0  0  0  0  0  0  0  0  0
  140.3660   76.6660  222.3600 C   0  0  0  0  0  0  0  0  0  0  0  0
  139.1000   77.1990  222.4710 C   0  0  0  0  0  0  0  0  0  0  0  0
  138.9820   78.5300  222.8770 C   0  0  0  0  0  0  0  0  0  0  0  0
  140.1160   79.2890  223.1570 C   0  0  0  0  0  0  0  0  0  0  0  0
  140.0110   80.6090  223.5590 C   0  0  0  0  0  0  0  0  0  0  0  0
  141.1580   81.3310  223.8290 C   0  0  0  0  0  0  0  0  0  0  0  0
  142.4040   80.7490  223.7030 C   0  0  0  0  0  0  0  0  0  0  0  0
  142.5120   79.4200  223.2970 C   0  0  0  0  0  0  0  0  0  0  0  0
  141.3450   78.7200  223.0330 C   0  0  0  0  0  0  0  0  0  0  0  0
  141.4480   77.4380  222.6430 N   0  0  0  0  0  0  0  0  0  0  0  0
  142.5010   75.6310  221.2110 H   0  0  0  0  0  0  0  0  0  0  0  0
  142.2042   72.8922  221.7571 H   0  0  0  0  0  0  0  0  0  0  0  0
  141.1511   73.1626  220.3309 H   0  0  0  0  0  0  0  0  0  0  0  0
  143.5685   70.7852  219.5151 H   0  0  0  0  0  0  0  0  0  0  0  0
  141.9198   71.1115  218.9983 H   0  0  0  0  0  0  0  0  0  0  0  0
  144.4372   70.6887  217.2675 H   0  0  0  0  0  0  0  0  0  0  0  0
  142.8885   69.9809  216.9888 H   0  0  0  0  0  0  0  0  0  0  0  0
  143.3930   72.2036  215.5839 H   0  0  0  0  0  0  0  0  0  0  0  0
  141.8909   72.3138  216.4432 H   0  0  0  0  0  0  0  0  0  0  0  0
  144.6996   73.3433  217.3777 H   0  0  0  0  0  0  0  0  0  0  0  0
  143.3542   74.8561  216.1124 H   0  0  0  0  0  0  0  0  0  0  0  0
  141.9985   74.6419  217.2407 H   0  0  0  0  0  0  0  0  0  0  0  0
  144.6380   75.3390  218.5470 H   0  0  0  0  0  0  0  0  0  0  0  0
  141.5152   78.3751  220.8672 H   0  0  0  0  0  0  0  0  0  0  0  0
  142.4852   79.7442  216.9187 H   0  0  0  0  0  0  0  0  0  0  0  0
  138.2091   76.5941  222.2465 H   0  0  0  0  0  0  0  0  0  0  0  0
  137.9846   78.9831  222.9766 H   0  0  0  0  0  0  0  0  0  0  0  0
  139.0223   81.0799  223.6628 H   0  0  0  0  0  0  0  0  0  0  0  0
  141.0776   82.3807  224.1477 H   0  0  0  0  0  0  0  0  0  0  0  0
  143.3097   81.3333  223.9227 H   0  0  0  0  0  0  0  0  0  0  0  0
  143.4958   78.9400  223.1891 H   0  0  0  0  0  0  0  0  0  0  0  0
  1  2  2  0
  2  3  1  0
  3  4  1  0
  4  5  1  0
  5  6  2  0
  5  7  1  0
  7  8  1  0
  8  9  1  0
  9 10  1  0
 10 11  1  0
 11 12  1  0
 12 13  1  0
 13 14  1  0
 14 15  2  0
 15 16  1  0
 16 17  2  0
 17 18  1  0
 17 19  1  0
 19 20  2  0
  2 21  1  0
 21 22  2  0
 22 23  1  0
 23 24  2  0
 24 25  1  0
 25 26  2  0
 26 27  1  0
 27 28  2  0
 28 29  1  0
 29 30  2  0
 11  7  1  0
 20 14  1  0
 30 21  1  0
 29 24  1  0
  3 31  1  0
  4 32  1  0
  4 33  1  0
  8 34  1  0
  8 35  1  0
  9 36  1  0
  9 37  1  0
 10 38  1  0
 10 39  1  0
 11 40  1  1
 12 41  1  0
 12 42  1  0
 13 43  1  0
 16 44  1  0
 19 45  1  0
 22 46  1  0
 23 47  1  0
 25 48  1  0
 26 49  1  0
 27 50  1  0
 28 51  1  0
M  END
>  <smiles>  (23) 
O=C(NCC(=O)N1CCC[C@H]1CNc1ncc(Cl)cn1)c1ccc2ccccc2n1

>  <score_type>  (23) 
oracle

>  <origin>  (23) 
autodockgpu

>  <m_score__min__energy>  (23) 
-8.8699999999999992

>  <m_primary>  (23) 
energy

>  <rmsd>  (23) 
7.417692391576847

>  <m_score__min__rmsd>  (23) 
7.417692391576847

>  <meeko>  (23) 
{"free_energy": -6.42, "intermolecular_energy": -8.51, "internal_energy": -4.01, "cluster_size": 9, "cluster_id": 10, "rank_in_cluster": 8}

>  <energy>  (23) 
-7.6

>  <cluster_rmsd>  (23) 
1.74

>  <cluster>  (23) 
4

$$$$

     RDKit          3D

 51 54  0  0  0  0  0  0  0  0999 V2000
  137.7960   70.7610  221.9830 O   0  0  0  0  0  0  0  0  0  0  0  0
  138.6140   71.2350  222.8300 C   0  0  0  0  0  0  0  0  0  0  0  0
  139.1460   72.5490  222.7310 N   0  0  0  0  0  0  0  0  0  0  0  0
  138.7920   73.4370  221.6560 C   0  0  0  0  0  0  0  0  0  0  0  0
  139.4580   74.7530  221.8720 C   0  0  0  0  0  0  0  0  0  0  0  0
  140.6500   74.6960  222.3160 O   0  0  0  0  0  0  0  0  0  0  0  0
  138.8020   75.9830  221.6000 N   0  0  0  0  0  0  0  0  0  0  0  0
  137.8880   76.6270  222.5560 C   0  0  0  0  0  0  0  0  0  0  0  0
  137.2720   77.7790  221.7640 C   0  0  0  0  0  0  0  0  0  0  0  0
  138.4820   78.1510  220.8980 C   0  0  0  0  0  0  0  0  0  0  0  0
  138.9040   76.7790  220.4110 C   0  0  1  0  0  0  0  0  0  0  0  0
  140.2740   76.8340  219.8010 C   0  0  0  0  0  0  0  0  0  0  0  0
  141.2360   76.7860  220.9120 N   0  0  0  0  0  0  0  0  0  0  0  0
  141.4720   77.9470  221.7020 C   0  0  0  0  0  0  0  0  0  0  0  0
  141.3590   77.9500  223.0380 N   0  0  0  0  0  0  0  0  0  0  0  0
  141.5730   79.0220  223.8210 C   0  0  0  0  0  0  0  0  0  0  0  0
  141.9330   80.2110  223.2330 C   0  0  0  0  0  0  0  0  0  0  0  0
  142.2150   81.6140  224.2300 Cl  0  0  0  0  0  0  0  0  0  0  0  0
  142.0560   80.2300  221.8520 C   0  0  0  0  0  0  0  0  0  0  0  0
  141.8290   79.1250  221.1220 N   0  0  0  0  0  0  0  0  0  0  0  0
  139.0290   70.3880  223.9680 C   0  0  0  0  0  0  0  0  0  0  0  0
  138.7890   69.0310  223.9410 C   0  0  0  0  0  0  0  0  0  0  0  0
  139.2000   68.2710  225.0380 C   0  0  0  0  0  0  0  0  0  0  0  0
  139.8320   68.8750  226.1220 C   0  0  0  0  0  0  0  0  0  0  0  0
  140.2430   68.1320  227.2150 C   0  0  0  0  0  0  0  0  0  0  0  0
  140.8680   68.7650  228.2720 C   0  0  0  0  0  0  0  0  0  0  0  0
  141.0850   70.1290  228.2490 C   0  0  0  0  0  0  0  0  0  0  0  0
  140.6710   70.8800  227.1500 C   0  0  0  0  0  0  0  0  0  0  0  0
  140.0480   70.2180  226.1040 C   0  0  0  0  0  0  0  0  0  0  0  0
  139.6490   70.9400  225.0430 N   0  0  0  0  0  0  0  0  0  0  0  0
  139.8160   72.8560  223.4790 H   0  0  0  0  0  0  0  0  0  0  0  0
  139.1247   73.0083  220.6992 H   0  0  0  0  0  0  0  0  0  0  0  0
  137.7007   73.5732  221.6315 H   0  0  0  0  0  0  0  0  0  0  0  0
  137.1114   75.9227  222.8889 H   0  0  0  0  0  0  0  0  0  0  0  0
  138.4015   76.9680  223.4671 H   0  0  0  0  0  0  0  0  0  0  0  0
  136.4159   77.4502  221.1566 H   0  0  0  0  0  0  0  0  0  0  0  0
  136.8540   78.5975  222.3684 H   0  0  0  0  0  0  0  0  0  0  0  0
  138.1975   78.8086  220.0634 H   0  0  0  0  0  0  0  0  0  0  0  0
  139.2677   78.7127  221.4245 H   0  0  0  0  0  0  0  0  0  0  0  0
  138.2904   76.3576  219.6011 H   0  0  0  0  0  0  0  0  0  0  0  0
  140.4253   75.9743  219.1317 H   0  0  0  0  0  0  0  0  0  0  0  0
  140.4044   77.7495  219.2053 H   0  0  0  0  0  0  0  0  0  0  0  0
  141.7660   75.9310  221.1580 H   0  0  0  0  0  0  0  0  0  0  0  0
  141.4619   78.9487  224.9129 H   0  0  0  0  0  0  0  0  0  0  0  0
  142.3437   81.1636  221.3465 H   0  0  0  0  0  0  0  0  0  0  0  0
  138.2889   68.5610  223.0814 H   0  0  0  0  0  0  0  0  0  0  0  0
  139.0229   67.1854  225.0460 H   0  0  0  0  0  0  0  0  0  0  0  0
  140.0733   67.0455  227.2419 H   0  0  0  0  0  0  0  0  0  0  0  0
  141.1964   68.1765  229.1414 H   0  0  0  0  0  0  0  0  0  0  0  0
  141.5837   70.6218  229.0966 H   0  0  0  0  0  0  0  0  0  0  0  0
  140.8342   71.9672  227.1141 H   0  0  0  0  0  0  0  0  0  0  0  0
  1  2  2  0
  2  3  1  0
  3  4  1  0
  4  5  1  0
  5  6  2  0
  5  7  1  0
  7  8  1  0
  8  9  1  0
  9 10  1  0
 10 11  1  0
 11 12  1  0
 12 13  1  0
 13 14  1  0
 14 15  2  0
 15 16  1  0
 16 17  2  0
 17 18  1  0
 17 19  1  0
 19 20  2  0
  2 21  1  0
 21 22  2  0
 22 23  1  0
 23 24  2  0
 24 25  1  0
 25 26  2  0
 26 27  1  0
 27 28  2  0
 28 29  1  0
 29 30  2  0
 11  7  1  0
 20 14  1  0
 30 21  1  0
 29 24  1  0
  3 31  1  0
  4 32  1  0
  4 33  1  0
  8 34  1  0
  8 35  1  0
  9 36  1  0
  9 37  1  0
 10 38  1  0
 10 39  1  0
 11 40  1  6
 12 41  1  0
 12 42  1  0
 13 43  1  0
 16 44  1  0
 19 45  1  0
 22 46  1  0
 23 47  1  0
 25 48  1  0
 26 49  1  0
 27 50  1  0
 28 51  1  0
M  END
>  <smiles>  (24) 
O=C(NCC(=O)N1CCC[C@H]1CNc1ncc(Cl)cn1)c1ccc2ccccc2n1

>  <score_type>  (24) 
oracle

>  <origin>  (24) 
autodockgpu

>  <m_score__min__energy>  (24) 
-8.8699999999999992

>  <m_primary>  (24) 
energy

>  <rmsd>  (24) 
2.4375546530597227

>  <m_score__min__rmsd>  (24) 
2.4375546530597227

>  <meeko>  (24) 
{"free_energy": -8.04, "intermolecular_energy": -10.13, "internal_energy": -2.69, "cluster_size": 4, "cluster_id": 5, "rank_in_cluster": 1}

>  <energy>  (24) 
-7.51

>  <cluster_rmsd>  (24) 
1.42

>  <cluster>  (24) 
4

$$$$

     RDKit          3D

 51 54  0  0  0  0  0  0  0  0999 V2000
  134.9600   68.4920  224.9360 O   0  0  0  0  0  0  0  0  0  0  0  0
  135.4830   69.6440  225.0380 C   0  0  0  0  0  0  0  0  0  0  0  0
  136.8080   69.9260  224.6050 N   0  0  0  0  0  0  0  0  0  0  0  0
  137.6510   68.9190  224.0200 C   0  0  0  0  0  0  0  0  0  0  0  0
  138.8350   68.7030  224.8970 C   0  0  0  0  0  0  0  0  0  0  0  0
  139.2300   67.4960  224.9950 O   0  0  0  0  0  0  0  0  0  0  0  0
  139.4750   69.7730  225.5770 N   0  0  0  0  0  0  0  0  0  0  0  0
  139.9130   69.6780  226.9790 C   0  0  0  0  0  0  0  0  0  0  0  0
  140.3360   71.1020  227.3350 C   0  0  0  0  0  0  0  0  0  0  0  0
  140.9050   71.5320  225.9760 C   0  0  0  0  0  0  0  0  0  0  0  0
  139.7940   71.0710  225.0540 C   0  0  1  0  0  0  0  0  0  0  0  0
  140.2550   71.0810  223.6260 C   0  0  0  0  0  0  0  0  0  0  0  0
  139.7300   72.3120  223.0180 N   0  0  0  0  0  0  0  0  0  0  0  0
  140.5700   73.1160  222.1940 C   0  0  0  0  0  0  0  0  0  0  0  0
  141.6160   72.6160  221.5200 N   0  0  0  0  0  0  0  0  0  0  0  0
  142.4340   73.3370  220.7330 C   0  0  0  0  0  0  0  0  0  0  0  0
  142.2010   74.6840  220.5940 C   0  0  0  0  0  0  0  0  0  0  0  0
  143.2480   75.6380  219.5770 Cl  0  0  0  0  0  0  0  0  0  0  0  0
  141.1230   75.2220  221.2820 C   0  0  0  0  0  0  0  0  0  0  0  0
  140.3410   74.4490  222.0550 N   0  0  0  0  0  0  0  0  0  0  0  0
  134.6840   70.7380  225.6280 C   0  0  0  0  0  0  0  0  0  0  0  0
  133.6450   70.4470  226.4850 C   0  0  0  0  0  0  0  0  0  0  0  0
  132.9190   71.5140  227.0190 C   0  0  0  0  0  0  0  0  0  0  0  0
  133.2410   72.8280  226.6880 C   0  0  0  0  0  0  0  0  0  0  0  0
  132.5280   73.8930  227.2120 C   0  0  0  0  0  0  0  0  0  0  0  0
  132.8770   75.1830  226.8610 C   0  0  0  0  0  0  0  0  0  0  0  0
  133.9280   75.4200  225.9970 C   0  0  0  0  0  0  0  0  0  0  0  0
  134.6480   74.3480  225.4690 C   0  0  0  0  0  0  0  0  0  0  0  0
  134.2760   73.0650  225.8380 C   0  0  0  0  0  0  0  0  0  0  0  0
  134.9690   72.0330  225.3300 N   0  0  0  0  0  0  0  0  0  0  0  0
  137.1560   70.9090  224.7290 H   0  0  0  0  0  0  0  0  0  0  0  0
  137.0883   67.9788  223.9231 H   0  0  0  0  0  0  0  0  0  0  0  0
  137.9832   69.2474  223.0241 H   0  0  0  0  0  0  0  0  0  0  0  0
  139.0873   69.3432  227.6241 H   0  0  0  0  0  0  0  0  0  0  0  0
  140.7249   68.9491  227.1190 H   0  0  0  0  0  0  0  0  0  0  0  0
  139.4800   71.7226  227.6385 H   0  0  0  0  0  0  0  0  0  0  0  0
  141.0272   71.1907  228.1861 H   0  0  0  0  0  0  0  0  0  0  0  0
  141.0513   72.6209  225.9230 H   0  0  0  0  0  0  0  0  0  0  0  0
  141.8968   71.1176  225.7421 H   0  0  0  0  0  0  0  0  0  0  0  0
  138.9039   71.7168  225.0310 H   0  0  0  0  0  0  0  0  0  0  0  0
  141.3542   71.0765  223.5830 H   0  0  0  0  0  0  0  0  0  0  0  0
  139.8946   70.1912  223.0890 H   0  0  0  0  0  0  0  0  0  0  0  0
  138.7570   72.6370  223.1600 H   0  0  0  0  0  0  0  0  0  0  0  0
  143.2744   72.8572  220.2100 H   0  0  0  0  0  0  0  0  0  0  0  0
  140.9052   76.2966  221.1936 H   0  0  0  0  0  0  0  0  0  0  0  0
  133.3951   69.4067  226.7406 H   0  0  0  0  0  0  0  0  0  0  0  0
  132.0848   71.3146  227.7077 H   0  0  0  0  0  0  0  0  0  0  0  0
  131.6905   73.7135  227.9022 H   0  0  0  0  0  0  0  0  0  0  0  0
  132.3112   76.0309  227.2745 H   0  0  0  0  0  0  0  0  0  0  0  0
  134.1968   76.4516  225.7258 H   0  0  0  0  0  0  0  0  0  0  0  0
  135.4878   74.5165  224.7788 H   0  0  0  0  0  0  0  0  0  0  0  0
  1  2  2  0
  2  3  1  0
  3  4  1  0
  4  5  1  0
  5  6  2  0
  5  7  1  0
  7  8  1  0
  8  9  1  0
  9 10  1  0
 10 11  1  0
 11 12  1  0
 12 13  1  0
 13 14  1  0
 14 15  2  0
 15 16  1  0
 16 17  2  0
 17 18  1  0
 17 19  1  0
 19 20  2  0
  2 21  1  0
 21 22  2  0
 22 23  1  0
 23 24  2  0
 24 25  1  0
 25 26  2  0
 26 27  1  0
 27 28  2  0
 28 29  1  0
 29 30  2  0
 11  7  1  0
 20 14  1  0
 30 21  1  0
 29 24  1  0
  3 31  1  0
  4 32  1  0
  4 33  1  0
  8 34  1  0
  8 35  1  0
  9 36  1  0
  9 37  1  0
 10 38  1  0
 10 39  1  0
 11 40  1  6
 12 41  1  0
 12 42  1  0
 13 43  1  0
 16 44  1  0
 19 45  1  0
 22 46  1  0
 23 47  1  0
 25 48  1  0
 26 49  1  0
 27 50  1  0
 28 51  1  0
M  END
>  <smiles>  (25) 
O=C(NCC(=O)N1CCC[C@H]1CNc1ncc(Cl)cn1)c1ccc2ccccc2n1

>  <score_type>  (25) 
oracle

>  <origin>  (25) 
autodockgpu

>  <m_score__min__energy>  (25) 
-8.8699999999999992

>  <m_primary>  (25) 
energy

>  <rmsd>  (25) 
7.857142478132061

>  <m_score__min__rmsd>  (25) 
7.857142478132061

>  <meeko>  (25) 
{"free_energy": -8.68, "intermolecular_energy": -10.77, "internal_energy": -1.53, "cluster_size": 2, "cluster_id": 2, "rank_in_cluster": 2}

>  <energy>  (25) 
-7.21

>  <cluster_rmsd>  (25) 
1.78

>  <cluster>  (25) 
4

$$$$

     RDKit          3D

 51 54  0  0  0  0  0  0  0  0999 V2000
  141.7410   75.8460  218.6520 O   0  0  0  0  0  0  0  0  0  0  0  0
  141.4910   76.1290  219.8640 C   0  0  0  0  0  0  0  0  0  0  0  0
  141.1350   75.1430  220.8240 N   0  0  0  0  0  0  0  0  0  0  0  0
  141.0310   73.7490  220.4850 C   0  0  0  0  0  0  0  0  0  0  0  0
  140.1380   73.0730  221.4680 C   0  0  0  0  0  0  0  0  0  0  0  0
  139.6270   73.8320  222.3540 O   0  0  0  0  0  0  0  0  0  0  0  0
  139.8800   71.6770  221.4180 N   0  0  0  0  0  0  0  0  0  0  0  0
  140.7570   70.7300  220.7120 C   0  0  0  0  0  0  0  0  0  0  0  0
  139.9830   69.4130  220.7420 C   0  0  0  0  0  0  0  0  0  0  0  0
  139.3110   69.5590  222.1140 C   0  0  0  0  0  0  0  0  0  0  0  0
  138.7780   70.9740  222.0100 C   0  0  1  0  0  0  0  0  0  0  0  0
  138.3570   71.4800  223.3590 C   0  0  0  0  0  0  0  0  0  0  0  0
  139.5880   71.7440  224.1180 N   0  0  0  0  0  0  0  0  0  0  0  0
  139.9480   70.9030  225.2100 C   0  0  0  0  0  0  0  0  0  0  0  0
  139.6560   69.5950  225.2440 N   0  0  0  0  0  0  0  0  0  0  0  0
  139.9760   68.7660  226.2530 C   0  0  0  0  0  0  0  0  0  0  0  0
  140.6500   69.2740  227.3390 C   0  0  0  0  0  0  0  0  0  0  0  0
  141.0750   68.2160  228.6590 Cl  0  0  0  0  0  0  0  0  0  0  0  0
  140.9620   70.6250  227.3240 C   0  0  0  0  0  0  0  0  0  0  0  0
  140.6140   71.4040  226.2850 N   0  0  0  0  0  0  0  0  0  0  0  0
  141.5770   77.5390  220.2970 C   0  0  0  0  0  0  0  0  0  0  0  0
  141.6780   78.5430  219.3590 C   0  0  0  0  0  0  0  0  0  0  0  0
  141.7560   79.8610  219.8150 C   0  0  0  0  0  0  0  0  0  0  0  0
  141.7310   80.1410  221.1790 C   0  0  0  0  0  0  0  0  0  0  0  0
  141.8070   81.4430  221.6430 C   0  0  0  0  0  0  0  0  0  0  0  0
  141.7780   81.6840  223.0030 C   0  0  0  0  0  0  0  0  0  0  0  0
  141.6750   80.6410  223.9020 C   0  0  0  0  0  0  0  0  0  0  0  0
  141.5980   79.3280  223.4370 C   0  0  0  0  0  0  0  0  0  0  0  0
  141.6290   79.1170  222.0680 C   0  0  0  0  0  0  0  0  0  0  0  0
  141.5540   77.8530  221.6190 N   0  0  0  0  0  0  0  0  0  0  0  0
  140.9470   75.4700  221.8040 H   0  0  0  0  0  0  0  0  0  0  0  0
  140.6103   73.6463  219.4738 H   0  0  0  0  0  0  0  0  0  0  0  0
  142.0285   73.2860  220.5112 H   0  0  0  0  0  0  0  0  0  0  0  0
  140.9316   71.0570  219.6763 H   0  0  0  0  0  0  0  0  0  0  0  0
  141.7504   70.6469  221.1771 H   0  0  0  0  0  0  0  0  0  0  0  0
  139.2469   69.3488  219.9272 H   0  0  0  0  0  0  0  0  0  0  0  0
  140.5895   68.5053  220.6071 H   0  0  0  0  0  0  0  0  0  0  0  0
  138.5000   68.8282  222.2490 H   0  0  0  0  0  0  0  0  0  0  0  0
  139.9761   69.3811  222.9719 H   0  0  0  0  0  0  0  0  0  0  0  0
  137.8655   71.0899  221.4067 H   0  0  0  0  0  0  0  0  0  0  0  0
  137.7732   72.4060  223.2506 H   0  0  0  0  0  0  0  0  0  0  0  0
  137.7250   70.7434  223.8767 H   0  0  0  0  0  0  0  0  0  0  0  0
  140.2250   72.5300  223.8960 H   0  0  0  0  0  0  0  0  0  0  0  0
  139.7038   67.7011  226.2107 H   0  0  0  0  0  0  0  0  0  0  0  0
  141.5022   71.0659  228.1748 H   0  0  0  0  0  0  0  0  0  0  0  0
  141.6966   78.3136  218.2833 H   0  0  0  0  0  0  0  0  0  0  0  0
  141.8379   80.6847  219.0906 H   0  0  0  0  0  0  0  0  0  0  0  0
  141.8899   82.2798  220.9338 H   0  0  0  0  0  0  0  0  0  0  0  0
  141.8376   82.7179  223.3737 H   0  0  0  0  0  0  0  0  0  0  0  0
  141.6537   80.8450  224.9827 H   0  0  0  0  0  0  0  0  0  0  0  0
  141.5150   78.4840  224.1375 H   0  0  0  0  0  0  0  0  0  0  0  0
  1  2  2  0
  2  3  1  0
  3  4  1  0
  4  5  1  0
  5  6  2  0
  5  7  1  0
  7  8  1  0
  8  9  1  0
  9 10  1  0
 10 11  1  0
 11 12  1  0
 12 13  1  0
 13 14  1  0
 14 15  2  0
 15 16  1  0
 16 17  2  0
 17 18  1  0
 17 19  1  0
 19 20  2  0
  2 21  1  0
 21 22  2  0
 22 23  1  0
 23 24  2  0
 24 25  1  0
 25 26  2  0
 26 27  1  0
 27 28  2  0
 28 29  1  0
 29 30  2  0
 11  7  1  0
 20 14  1  0
 30 21  1  0
 29 24  1  0
  3 31  1  0
  4 32  1  0
  4 33  1  0
  8 34  1  0
  8 35  1  0
  9 36  1  0
  9 37  1  0
 10 38  1  0
 10 39  1  0
 11 40  1  6
 12 41  1  0
 12 42  1  0
 13 43  1  0
 16 44  1  0
 19 45  1  0
 22 46  1  0
 23 47  1  0
 25 48  1  0
 26 49  1  0
 27 50  1  0
 28 51  1  0
M  END
>  <smiles>  (26) 
O=C(NCC(=O)N1CCC[C@H]1CNc1ncc(Cl)cn1)c1ccc2ccccc2n1

>  <score_type>  (26) 
oracle

>  <origin>  (26) 
autodockgpu

>  <m_score__min__energy>  (26) 
-8.8699999999999992

>  <m_primary>  (26) 
energy

>  <rmsd>  (26) 
8.527982028930527

>  <m_score__min__rmsd>  (26) 
8.527982028930527

>  <meeko>  (26) 
{"free_energy": -7.21, "intermolecular_energy": -9.3, "internal_energy": -2.73, "cluster_size": 10, "cluster_id": 4, "rank_in_cluster": 10}

>  <energy>  (26) 
-8.04

>  <cluster_rmsd>  (26) 
0.0

>  <cluster>  (26) 
5

$$$$

     RDKit          3D

 51 54  0  0  0  0  0  0  0  0999 V2000
  140.1090   71.0060  221.2260 O   0  0  0  0  0  0  0  0  0  0  0  0
  139.9390   71.6550  222.3030 C   0  0  0  0  0  0  0  0  0  0  0  0
  139.7730   73.0670  222.3320 N   0  0  0  0  0  0  0  0  0  0  0  0
  139.7860   73.8610  221.1330 C   0  0  0  0  0  0  0  0  0  0  0  0
  140.5650   75.1060  221.3820 C   0  0  0  0  0  0  0  0  0  0  0  0
  140.2540   75.7440  222.4390 O   0  0  0  0  0  0  0  0  0  0  0  0
  141.5840   75.5480  220.4960 N   0  0  0  0  0  0  0  0  0  0  0  0
  142.8260   74.7910  220.2690 C   0  0  0  0  0  0  0  0  0  0  0  0
  143.6890   75.7350  219.4330 C   0  0  0  0  0  0  0  0  0  0  0  0
  142.5840   76.4100  218.6110 C   0  0  0  0  0  0  0  0  0  0  0  0
  141.5920   76.7460  219.7060 C   0  0  1  0  0  0  0  0  0  0  0  0
  140.2640   77.1240  219.1180 C   0  0  0  0  0  0  0  0  0  0  0  0
  139.9870   78.5030  219.5440 N   0  0  0  0  0  0  0  0  0  0  0  0
  140.6860   79.0620  220.6530 C   0  0  0  0  0  0  0  0  0  0  0  0
  141.5220   80.1030  220.5320 N   0  0  0  0  0  0  0  0  0  0  0  0
  142.2010   80.6610  221.5500 C   0  0  0  0  0  0  0  0  0  0  0  0
  142.0430   80.1430  222.8130 C   0  0  0  0  0  0  0  0  0  0  0  0
  142.9140   80.8510  224.1480 Cl  0  0  0  0  0  0  0  0  0  0  0  0
  141.1830   79.0660  222.9610 C   0  0  0  0  0  0  0  0  0  0  0  0
  140.5310   78.5510  221.9040 N   0  0  0  0  0  0  0  0  0  0  0  0
  139.9110   70.9140  223.5820 C   0  0  0  0  0  0  0  0  0  0  0  0
  139.4240   69.6260  223.6210 C   0  0  0  0  0  0  0  0  0  0  0  0
  139.4180   68.9650  224.8520 C   0  0  0  0  0  0  0  0  0  0  0  0
  139.8910   69.5980  225.9990 C   0  0  0  0  0  0  0  0  0  0  0  0
  139.8900   68.9520  227.2230 C   0  0  0  0  0  0  0  0  0  0  0  0
  140.3680   69.6120  228.3400 C   0  0  0  0  0  0  0  0  0  0  0  0
  140.8460   70.9040  228.2460 C   0  0  0  0  0  0  0  0  0  0  0  0
  140.8480   71.5560  227.0130 C   0  0  0  0  0  0  0  0  0  0  0  0
  140.3630   70.8710  225.9100 C   0  0  0  0  0  0  0  0  0  0  0  0
  140.3650   71.4970  224.7220 N   0  0  0  0  0  0  0  0  0  0  0  0
  139.6370   73.5170  223.2700 H   0  0  0  0  0  0  0  0  0  0  0  0
  140.2546   73.2899  220.3180 H   0  0  0  0  0  0  0  0  0  0  0  0
  138.7554   74.1192  220.8480 H   0  0  0  0  0  0  0  0  0  0  0  0
  143.3187   74.5534  221.2234 H   0  0  0  0  0  0  0  0  0  0  0  0
  142.6482   73.8272  219.7695 H   0  0  0  0  0  0  0  0  0  0  0  0
  144.2359   76.4559  220.0585 H   0  0  0  0  0  0  0  0  0  0  0  0
  144.4852   75.2524  218.8472 H   0  0  0  0  0  0  0  0  0  0  0  0
  142.9504   77.3145  218.1033 H   0  0  0  0  0  0  0  0  0  0  0  0
  142.1765   75.7930  217.7966 H   0  0  0  0  0  0  0  0  0  0  0  0
  141.8487   77.6219  220.3199 H   0  0  0  0  0  0  0  0  0  0  0  0
  140.3065   77.0683  218.0202 H   0  0  0  0  0  0  0  0  0  0  0  0
  139.4729   76.4397  219.4584 H   0  0  0  0  0  0  0  0  0  0  0  0
  139.2920   79.1080  219.0700 H   0  0  0  0  0  0  0  0  0  0  0  0
  142.8704   81.5161  221.3749 H   0  0  0  0  0  0  0  0  0  0  0  0
  141.0318   78.6263  223.9579 H   0  0  0  0  0  0  0  0  0  0  0  0
  139.0513   69.1330  222.7110 H   0  0  0  0  0  0  0  0  0  0  0  0
  139.0362   67.9353  224.9159 H   0  0  0  0  0  0  0  0  0  0  0  0
  139.5122   67.9223  227.3065 H   0  0  0  0  0  0  0  0  0  0  0  0
  140.3675   69.1020  229.3146 H   0  0  0  0  0  0  0  0  0  0  0  0
  141.2245   71.4181  229.1418 H   0  0  0  0  0  0  0  0  0  0  0  0
  141.2241   72.5854  226.9186 H   0  0  0  0  0  0  0  0  0  0  0  0
  1  2  2  0
  2  3  1  0
  3  4  1  0
  4  5  1  0
  5  6  2  0
  5  7  1  0
  7  8  1  0
  8  9  1  0
  9 10  1  0
 10 11  1  0
 11 12  1  0
 12 13  1  0
 13 14  1  0
 14 15  2  0
 15 16  1  0
 16 17  2  0
 17 18  1  0
 17 19  1  0
 19 20  2  0
  2 21  1  0
 21 22  2  0
 22 23  1  0
 23 24  2  0
 24 25  1  0
 25 26  2  0
 26 27  1  0
 27 28  2  0
 28 29  1  0
 29 30  2  0
 11  7  1  0
 20 14  1  0
 30 21  1  0
 29 24  1  0
  3 31  1  0
  4 32  1  0
  4 33  1  0
  8 34  1  0
  8 35  1  0
  9 36  1  0
  9 37  1  0
 10 38  1  0
 10 39  1  0
 11 40  1  1
 12 41  1  0
 12 42  1  0
 13 43  1  0
 16 44  1  0
 19 45  1  0
 22 46  1  0
 23 47  1  0
 25 48  1  0
 26 49  1  0
 27 50  1  0
 28 51  1  0
M  END
>  <smiles>  (27) 
O=C(NCC(=O)N1CCC[C@H]1CNc1ncc(Cl)cn1)c1ccc2ccccc2n1

>  <score_type>  (27) 
oracle

>  <origin>  (27) 
autodockgpu

>  <m_score__min__energy>  (27) 
-8.8699999999999992

>  <m_primary>  (27) 
energy

>  <rmsd>  (27) 
2.119998094656685

>  <m_score__min__rmsd>  (27) 
2.119998094656685

>  <meeko>  (27) 
{"free_energy": -8.2, "intermolecular_energy": -10.29, "internal_energy": -2.0, "cluster_size": 7, "cluster_id": 3, "rank_in_cluster": 4}

>  <energy>  (27) 
-8.03

>  <cluster_rmsd>  (27) 
1.7

>  <cluster>  (27) 
5

$$$$

     RDKit          3D

 51 54  0  0  0  0  0  0  0  0999 V2000
  137.2140   76.4260  222.2420 O   0  0  0  0  0  0  0  0  0  0  0  0
  138.4810   76.4780  222.2610 C   0  0  0  0  0  0  0  0  0  0  0  0
  139.3010   75.3750  221.8950 N   0  0  0  0  0  0  0  0  0  0  0  0
  138.7450   74.1170  221.4760 C   0  0  0  0  0  0  0  0  0  0  0  0
  139.6770   73.0200  221.8610 C   0  0  0  0  0  0  0  0  0  0  0  0
  140.7920   73.3960  222.3480 O   0  0  0  0  0  0  0  0  0  0  0  0
  139.3410   71.6500  221.6920 N   0  0  0  0  0  0  0  0  0  0  0  0
  140.0130   70.7790  220.7150 C   0  0  0  0  0  0  0  0  0  0  0  0
  139.1920   69.4910  220.7380 C   0  0  0  0  0  0  0  0  0  0  0  0
  138.8080   69.4750  222.2230 C   0  0  0  0  0  0  0  0  0  0  0  0
  138.3400   70.9060  222.4020 C   0  0  1  0  0  0  0  0  0  0  0  0
  138.2170   71.2430  223.8590 C   0  0  0  0  0  0  0  0  0  0  0  0
  139.5830   71.3990  224.3780 N   0  0  0  0  0  0  0  0  0  0  0  0
  140.0240   70.6070  225.4780 C   0  0  0  0  0  0  0  0  0  0  0  0
  140.4940   71.1430  226.6140 N   0  0  0  0  0  0  0  0  0  0  0  0
  140.9190   70.4340  227.6740 C   0  0  0  0  0  0  0  0  0  0  0  0
  140.8790   69.0620  227.6130 C   0  0  0  0  0  0  0  0  0  0  0  0
  141.4260   68.1230  228.9770 Cl  0  0  0  0  0  0  0  0  0  0  0  0
  140.3960   68.4870  226.4470 C   0  0  0  0  0  0  0  0  0  0  0  0
  139.9840   69.2490  225.4190 N   0  0  0  0  0  0  0  0  0  0  0  0
  139.1340   77.7360  222.6780 C   0  0  0  0  0  0  0  0  0  0  0  0
  138.3740   78.7870  223.1430 C   0  0  0  0  0  0  0  0  0  0  0  0
  139.0350   79.9560  223.5270 C   0  0  0  0  0  0  0  0  0  0  0  0
  140.4210   80.0470  223.4380 C   0  0  0  0  0  0  0  0  0  0  0  0
  141.0870   81.2010  223.8150 C   0  0  0  0  0  0  0  0  0  0  0  0
  142.4640   81.2560  223.7130 C   0  0  0  0  0  0  0  0  0  0  0  0
  143.1810   80.1740  223.2410 C   0  0  0  0  0  0  0  0  0  0  0  0
  142.5120   79.0110  222.8600 C   0  0  0  0  0  0  0  0  0  0  0  0
  141.1310   78.9840  222.9730 C   0  0  0  0  0  0  0  0  0  0  0  0
  140.4850   77.8640  222.6070 N   0  0  0  0  0  0  0  0  0  0  0  0
  140.3410   75.5110  221.9410 H   0  0  0  0  0  0  0  0  0  0  0  0
  137.7722   73.9628  221.9657 H   0  0  0  0  0  0  0  0  0  0  0  0
  138.6049   74.1186  220.3850 H   0  0  0  0  0  0  0  0  0  0  0  0
  139.9996   71.2328  219.7131 H   0  0  0  0  0  0  0  0  0  0  0  0
  141.0721   70.6091  220.9589 H   0  0  0  0  0  0  0  0  0  0  0  0
  138.3092   69.5533  220.0847 H   0  0  0  0  0  0  0  0  0  0  0  0
  139.7127   68.5925  220.3752 H   0  0  0  0  0  0  0  0  0  0  0  0
  138.0013   68.7553  222.4263 H   0  0  0  0  0  0  0  0  0  0  0  0
  139.6168   69.1685  222.9026 H   0  0  0  0  0  0  0  0  0  0  0  0
  137.3348   71.1244  222.0124 H   0  0  0  0  0  0  0  0  0  0  0  0
  137.6554   72.1805  223.9843 H   0  0  0  0  0  0  0  0  0  0  0  0
  137.6775   70.4527  224.4017 H   0  0  0  0  0  0  0  0  0  0  0  0
  140.2620   72.0700  223.9770 H   0  0  0  0  0  0  0  0  0  0  0  0
  141.2923   70.9434  228.5746 H   0  0  0  0  0  0  0  0  0  0  0  0
  140.3493   67.3913  226.3621 H   0  0  0  0  0  0  0  0  0  0  0  0
  137.2789   78.7078  223.2099 H   0  0  0  0  0  0  0  0  0  0  0  0
  138.4553   80.8119  223.9029 H   0  0  0  0  0  0  0  0  0  0  0  0
  140.5242   82.0673  224.1928 H   0  0  0  0  0  0  0  0  0  0  0  0
  142.9951   82.1720  224.0111 H   0  0  0  0  0  0  0  0  0  0  0  0
  144.2770   80.2294  223.1657 H   0  0  0  0  0  0  0  0  0  0  0  0
  143.0652   78.1393  222.4803 H   0  0  0  0  0  0  0  0  0  0  0  0
  1  2  2  0
  2  3  1  0
  3  4  1  0
  4  5  1  0
  5  6  2  0
  5  7  1  0
  7  8  1  0
  8  9  1  0
  9 10  1  0
 10 11  1  0
 11 12  1  0
 12 13  1  0
 13 14  1  0
 14 15  2  0
 15 16  1  0
 16 17  2  0
 17 18  1  0
 17 19  1  0
 19 20  2  0
  2 21  1  0
 21 22  2  0
 22 23  1  0
 23 24  2  0
 24 25  1  0
 25 26  2  0
 26 27  1  0
 27 28  2  0
 28 29  1  0
 29 30  2  0
 11  7  1  0
 20 14  1  0
 30 21  1  0
 29 24  1  0
  3 31  1  0
  4 32  1  0
  4 33  1  0
  8 34  1  0
  8 35  1  0
  9 36  1  0
  9 37  1  0
 10 38  1  0
 10 39  1  0
 11 40  1  6
 12 41  1  0
 12 42  1  0
 13 43  1  0
 16 44  1  0
 19 45  1  0
 22 46  1  0
 23 47  1  0
 25 48  1  0
 26 49  1  0
 27 50  1  0
 28 51  1  0
M  END
>  <smiles>  (28) 
O=C(NCC(=O)N1CCC[C@H]1CNc1ncc(Cl)cn1)c1ccc2ccccc2n1

>  <score_type>  (28) 
oracle

>  <origin>  (28) 
autodockgpu

>  <m_score__min__energy>  (28) 
-8.8699999999999992

>  <m_primary>  (28) 
energy

>  <rmsd>  (28) 
8.231564133610195

>  <m_score__min__rmsd>  (28) 
8.231564133610195

>  <meeko>  (28) 
{"free_energy": -7.65, "intermolecular_energy": -9.74, "internal_energy": -2.82, "cluster_size": 10, "cluster_id": 4, "rank_in_cluster": 7}

>  <energy>  (28) 
-7.73

>  <cluster_rmsd>  (28) 
1.36

>  <cluster>  (28) 
5

$$$$

     RDKit          3D

 51 54  0  0  0  0  0  0  0  0999 V2000
  139.6180   74.3630  222.0310 O   0  0  0  0  0  0  0  0  0  0  0  0
  140.5700   75.1890  221.8850 C   0  0  0  0  0  0  0  0  0  0  0  0
  141.8240   74.8240  221.3220 N   0  0  0  0  0  0  0  0  0  0  0  0
  142.1000   73.4840  220.8780 C   0  0  0  0  0  0  0  0  0  0  0  0
  143.4450   73.4500  220.2380 C   0  0  0  0  0  0  0  0  0  0  0  0
  144.2860   74.2940  220.6870 O   0  0  0  0  0  0  0  0  0  0  0  0
  143.7620   72.5360  219.1970 N   0  0  0  0  0  0  0  0  0  0  0  0
  143.8000   71.0790  219.4000 C   0  0  0  0  0  0  0  0  0  0  0  0
  144.3850   70.5370  218.0970 C   0  0  0  0  0  0  0  0  0  0  0  0
  143.7750   71.5490  217.1180 C   0  0  0  0  0  0  0  0  0  0  0  0
  144.0870   72.8480  217.8350 C   0  0  1  0  0  0  0  0  0  0  0  0
  143.3030   73.9810  217.2410 C   0  0  0  0  0  0  0  0  0  0  0  0
  144.0540   75.2120  217.5220 N   0  0  0  0  0  0  0  0  0  0  0  0
  143.3740   76.3700  217.9990 C   0  0  0  0  0  0  0  0  0  0  0  0
  143.1500   77.4470  217.2310 N   0  0  0  0  0  0  0  0  0  0  0  0
  142.5140   78.5580  217.6400 C   0  0  0  0  0  0  0  0  0  0  0  0
  142.0510   78.6190  218.9320 C   0  0  0  0  0  0  0  0  0  0  0  0
  141.2220   80.0510  219.4830 Cl  0  0  0  0  0  0  0  0  0  0  0  0
  142.2710   77.5160  219.7430 C   0  0  0  0  0  0  0  0  0  0  0  0
  142.9150   76.4320  219.2770 N   0  0  0  0  0  0  0  0  0  0  0  0
  140.3690   76.5890  222.3140 C   0  0  0  0  0  0  0  0  0  0  0  0
  139.0940   77.0960  222.4380 C   0  0  0  0  0  0  0  0  0  0  0  0
  138.9530   78.4240  222.8470 C   0  0  0  0  0  0  0  0  0  0  0  0
  140.0740   79.2040  223.1190 C   0  0  0  0  0  0  0  0  0  0  0  0
  139.9460   80.5210  223.5250 C   0  0  0  0  0  0  0  0  0  0  0  0
  141.0810   81.2650  223.7860 C   0  0  0  0  0  0  0  0  0  0  0  0
  142.3380   80.7090  223.6470 C   0  0  0  0  0  0  0  0  0  0  0  0
  142.4680   79.3830  223.2370 C   0  0  0  0  0  0  0  0  0  0  0  0
  141.3130   78.6600  222.9830 C   0  0  0  0  0  0  0  0  0  0  0  0
  141.4380   77.3820  222.5890 N   0  0  0  0  0  0  0  0  0  0  0  0
  142.5520   75.5750  221.2390 H   0  0  0  0  0  0  0  0  0  0  0  0
  142.0845   72.8000  221.7393 H   0  0  0  0  0  0  0  0  0  0  0  0
  141.3360   73.1693  220.1519 H   0  0  0  0  0  0  0  0  0  0  0  0
  144.4430   70.8203  220.2542 H   0  0  0  0  0  0  0  0  0  0  0  0
  142.8091   70.6579  219.6255 H   0  0  0  0  0  0  0  0  0  0  0  0
  145.4845   70.5712  218.0932 H   0  0  0  0  0  0  0  0  0  0  0  0
  144.1637   69.4809  217.8833 H   0  0  0  0  0  0  0  0  0  0  0  0
  144.2596   71.5029  216.1316 H   0  0  0  0  0  0  0  0  0  0  0  0
  142.7087   71.3903  216.8992 H   0  0  0  0  0  0  0  0  0  0  0  0
  145.1270   73.1955  217.7472 H   0  0  0  0  0  0  0  0  0  0  0  0
  143.1990   73.8408  216.1549 H   0  0  0  0  0  0  0  0  0  0  0  0
  142.2920   74.0291  217.6718 H   0  0  0  0  0  0  0  0  0  0  0  0
  145.0780   75.2870  217.3890 H   0  0  0  0  0  0  0  0  0  0  0  0
  142.3667   79.4038  216.9523 H   0  0  0  0  0  0  0  0  0  0  0  0
  141.9132   77.5282  220.7831 H   0  0  0  0  0  0  0  0  0  0  0  0
  138.2133   76.4735  222.2214 H   0  0  0  0  0  0  0  0  0  0  0  0
  137.9478   78.8575  222.9552 H   0  0  0  0  0  0  0  0  0  0  0  0
  138.9491   80.9718  223.6390 H   0  0  0  0  0  0  0  0  0  0  0  0
  140.9824   82.3121  224.1082 H   0  0  0  0  0  0  0  0  0  0  0  0
  143.2339   81.3110  223.8593 H   0  0  0  0  0  0  0  0  0  0  0  0
  143.4601   78.9230  223.1183 H   0  0  0  0  0  0  0  0  0  0  0  0
  1  2  2  0
  2  3  1  0
  3  4  1  0
  4  5  1  0
  5  6  2  0
  5  7  1  0
  7  8  1  0
  8  9  1  0
  9 10  1  0
 10 11  1  0
 11 12  1  0
 12 13  1  0
 13 14  1  0
 14 15  2  0
 15 16  1  0
 16 17  2  0
 17 18  1  0
 17 19  1  0
 19 20  2  0
  2 21  1  0
 21 22  2  0
 22 23  1  0
 23 24  2  0
 24 25  1  0
 25 26  2  0
 26 27  1  0
 27 28  2  0
 28 29  1  0
 29 30  2  0
 11  7  1  0
 20 14  1  0
 30 21  1  0
 29 24  1  0
  3 31  1  0
  4 32  1  0
  4 33  1  0
  8 34  1  0
  8 35  1  0
  9 36  1  0
  9 37  1  0
 10 38  1  0
 10 39  1  0
 11 40  1  1
 12 41  1  0
 12 42  1  0
 13 43  1  0
 16 44  1  0
 19 45  1  0
 22 46  1  0
 23 47  1  0
 25 48  1  0
 26 49  1  0
 27 50  1  0
 28 51  1  0
M  END
>  <smiles>  (29) 
O=C(NCC(=O)N1CCC[C@H]1CNc1ncc(Cl)cn1)c1ccc2ccccc2n1

>  <score_type>  (29) 
oracle

>  <origin>  (29) 
autodockgpu

>  <m_score__min__energy>  (29) 
-8.8699999999999992

>  <m_primary>  (29) 
energy

>  <rmsd>  (29) 
7.6022531690085495

>  <m_score__min__rmsd>  (29) 
7.6022531690085495

>  <meeko>  (29) 
{"free_energy": -6.85, "intermolecular_energy": -8.94, "internal_energy": -3.69, "cluster_size": 9, "cluster_id": 10, "rank_in_cluster": 2}

>  <energy>  (29) 
-7.54

>  <cluster_rmsd>  (29) 
1.55

>  <cluster>  (29) 
5

$$$$

     RDKit          3D

 51 54  0  0  0  0  0  0  0  0999 V2000
  138.9140   75.1020  222.3710 O   0  0  0  0  0  0  0  0  0  0  0  0
  140.0210   75.6860  222.1650 C   0  0  0  0  0  0  0  0  0  0  0  0
  141.1580   75.0130  221.6400 N   0  0  0  0  0  0  0  0  0  0  0  0
  141.1300   73.6140  221.3050 C   0  0  0  0  0  0  0  0  0  0  0  0
  141.7360   73.4230  219.9570 C   0  0  0  0  0  0  0  0  0  0  0  0
  141.0190   73.8060  218.9770 O   0  0  0  0  0  0  0  0  0  0  0  0
  143.0250   72.8520  219.7840 N   0  0  0  0  0  0  0  0  0  0  0  0
  143.2410   71.5660  219.1020 C   0  0  0  0  0  0  0  0  0  0  0  0
  144.7180   71.2610  219.3430 C   0  0  0  0  0  0  0  0  0  0  0  0
  145.2700   72.6920  219.3060 C   0  0  0  0  0  0  0  0  0  0  0  0
  144.2810   73.3910  220.2180 C   0  0  1  0  0  0  0  0  0  0  0  0
  144.4080   74.8810  220.0900 C   0  0  0  0  0  0  0  0  0  0  0  0
  143.4180   75.3080  219.0900 N   0  0  0  0  0  0  0  0  0  0  0  0
  142.9880   76.6660  219.0470 C   0  0  0  0  0  0  0  0  0  0  0  0
  142.2580   77.2270  220.0220 N   0  0  0  0  0  0  0  0  0  0  0  0
  141.8320   78.5020  220.0220 C   0  0  0  0  0  0  0  0  0  0  0  0
  142.1550   79.3080  218.9560 C   0  0  0  0  0  0  0  0  0  0  0  0
  141.6120   80.9650  218.9350 Cl  0  0  0  0  0  0  0  0  0  0  0  0
  142.9100   78.7480  217.9370 C   0  0  0  0  0  0  0  0  0  0  0  0
  143.3070   77.4650  217.9940 N   0  0  0  0  0  0  0  0  0  0  0  0
  140.1360   77.1250  222.4810 C   0  0  0  0  0  0  0  0  0  0  0  0
  139.0150   77.9260  222.4660 C   0  0  0  0  0  0  0  0  0  0  0  0
  139.1720   79.2790  222.7720 C   0  0  0  0  0  0  0  0  0  0  0  0
  140.4280   79.7950  223.0820 C   0  0  0  0  0  0  0  0  0  0  0  0
  140.5950   81.1350  223.3870 C   0  0  0  0  0  0  0  0  0  0  0  0
  141.8570   81.6110  223.6900 C   0  0  0  0  0  0  0  0  0  0  0  0
  142.9490   80.7650  223.6930 C   0  0  0  0  0  0  0  0  0  0  0  0
  142.7820   79.4150  223.3850 C   0  0  0  0  0  0  0  0  0  0  0  0
  141.5060   78.9650  223.0850 C   0  0  0  0  0  0  0  0  0  0  0  0
  141.3440   77.6650  222.7900 N   0  0  0  0  0  0  0  0  0  0  0  0
  142.0320   75.5770  221.5020 H   0  0  0  0  0  0  0  0  0  0  0  0
  141.7043   73.0451  222.0510 H   0  0  0  0  0  0  0  0  0  0  0  0
  140.0901   73.2554  221.2979 H   0  0  0  0  0  0  0  0  0  0  0  0
  142.6041   70.7815  219.5367 H   0  0  0  0  0  0  0  0  0  0  0  0
  142.9871   71.6070  218.0325 H   0  0  0  0  0  0  0  0  0  0  0  0
  144.8857   70.7797  220.3178 H   0  0  0  0  0  0  0  0  0  0  0  0
  145.1775   70.5591  218.6316 H   0  0  0  0  0  0  0  0  0  0  0  0
  146.2947   72.7427  219.7027 H   0  0  0  0  0  0  0  0  0  0  0  0
  145.3523   73.1265  218.2988 H   0  0  0  0  0  0  0  0  0  0  0  0
  144.4321   73.2215  221.2943 H   0  0  0  0  0  0  0  0  0  0  0  0
  144.2015   75.3630  221.0570 H   0  0  0  0  0  0  0  0  0  0  0  0
  145.4256   75.1653  219.7840 H   0  0  0  0  0  0  0  0  0  0  0  0
  143.0040   74.6590  218.3980 H   0  0  0  0  0  0  0  0  0  0  0  0
  141.2359   78.8933  220.8596 H   0  0  0  0  0  0  0  0  0  0  0  0
  143.1885   79.3630  217.0685 H   0  0  0  0  0  0  0  0  0  0  0  0
  138.0260   77.5118  222.2203 H   0  0  0  0  0  0  0  0  0  0  0  0
  138.2956   79.9438  222.7683 H   0  0  0  0  0  0  0  0  0  0  0  0
  139.7306   81.8154  223.3882 H   0  0  0  0  0  0  0  0  0  0  0  0
  141.9932   82.6755  223.9315 H   0  0  0  0  0  0  0  0  0  0  0  0
  143.9480   81.1551  223.9377 H   0  0  0  0  0  0  0  0  0  0  0  0
  143.6397   78.7262  223.3803 H   0  0  0  0  0  0  0  0  0  0  0  0
  1  2  2  0
  2  3  1  0
  3  4  1  0
  4  5  1  0
  5  6  2  0
  5  7  1  0
  7  8  1  0
  8  9  1  0
  9 10  1  0
 10 11  1  0
 11 12  1  0
 12 13  1  0
 13 14  1  0
 14 15  2  0
 15 16  1  0
 16 17  2  0
 17 18  1  0
 17 19  1  0
 19 20  2  0
  2 21  1  0
 21 22  2  0
 22 23  1  0
 23 24  2  0
 24 25  1  0
 25 26  2  0
 26 27  1  0
 27 28  2  0
 28 29  1  0
 29 30  2  0
 11  7  1  0
 20 14  1  0
 30 21  1  0
 29 24  1  0
  3 31  1  0
  4 32  1  0
  4 33  1  0
  8 34  1  0
  8 35  1  0
  9 36  1  0
  9 37  1  0
 10 38  1  0
 10 39  1  0
 11 40  1  1
 12 41  1  0
 12 42  1  0
 13 43  1  0
 16 44  1  0
 19 45  1  0
 22 46  1  0
 23 47  1  0
 25 48  1  0
 26 49  1  0
 27 50  1  0
 28 51  1  0
M  END
>  <smiles>  (30) 
O=C(NCC(=O)N1CCC[C@H]1CNc1ncc(Cl)cn1)c1ccc2ccccc2n1

>  <score_type>  (30) 
oracle

>  <origin>  (30) 
autodockgpu

>  <m_score__min__energy>  (30) 
-8.8699999999999992

>  <m_primary>  (30) 
energy

>  <rmsd>  (30) 
7.632314923742645

>  <m_score__min__rmsd>  (30) 
7.632314923742645

>  <meeko>  (30) 
{"free_energy": -6.57, "intermolecular_energy": -8.66, "internal_energy": -3.45, "cluster_size": 9, "cluster_id": 10, "rank_in_cluster": 5}

>  <energy>  (30) 
-7.48

>  <cluster_rmsd>  (30) 
0.0

>  <cluster>  (30) 
6

$$$$

     RDKit          3D

 51 54  0  0  0  0  0  0  0  0999 V2000
  139.3650   74.6900  222.1130 O   0  0  0  0  0  0  0  0  0  0  0  0
  140.3950   75.4180  221.9670 C   0  0  0  0  0  0  0  0  0  0  0  0
  141.6210   74.9190  221.4490 N   0  0  0  0  0  0  0  0  0  0  0  0
  141.7790   73.5450  221.0520 C   0  0  0  0  0  0  0  0  0  0  0  0
  143.1310   73.3630  220.4540 C   0  0  0  0  0  0  0  0  0  0  0  0
  144.0270   74.1650  220.8750 O   0  0  0  0  0  0  0  0  0  0  0  0
  143.3980   72.3630  219.4810 N   0  0  0  0  0  0  0  0  0  0  0  0
  143.0340   70.9500  219.6710 C   0  0  0  0  0  0  0  0  0  0  0  0
  143.6960   70.2340  218.4950 C   0  0  0  0  0  0  0  0  0  0  0  0
  143.5480   71.3290  217.4310 C   0  0  0  0  0  0  0  0  0  0  0  0
  144.0360   72.5360  218.2080 C   0  0  1  0  0  0  0  0  0  0  0  0
  143.6820   73.8050  217.4900 C   0  0  0  0  0  0  0  0  0  0  0  0
  144.0620   74.9150  218.3750 N   0  0  0  0  0  0  0  0  0  0  0  0
  143.2650   76.0960  218.4220 C   0  0  0  0  0  0  0  0  0  0  0  0
  142.7250   76.6490  217.3260 N   0  0  0  0  0  0  0  0  0  0  0  0
  141.9690   77.7600  217.3240 C   0  0  0  0  0  0  0  0  0  0  0  0
  141.7170   78.3920  218.5180 C   0  0  0  0  0  0  0  0  0  0  0  0
  140.7380   79.8350  218.5390 Cl  0  0  0  0  0  0  0  0  0  0  0  0
  142.2650   77.8360  219.6640 C   0  0  0  0  0  0  0  0  0  0  0  0
  143.0140   76.7220  219.6030 N   0  0  0  0  0  0  0  0  0  0  0  0
  140.3170   76.8430  222.3500 C   0  0  0  0  0  0  0  0  0  0  0  0
  139.0900   77.4490  222.5060 C   0  0  0  0  0  0  0  0  0  0  0  0
  139.0660   78.7980  222.8690 C   0  0  0  0  0  0  0  0  0  0  0  0
  140.2530   79.5000  223.0660 C   0  0  0  0  0  0  0  0  0  0  0  0
  140.2410   80.8360  223.4260 C   0  0  0  0  0  0  0  0  0  0  0  0
  141.4380   81.5010  223.6130 C   0  0  0  0  0  0  0  0  0  0  0  0
  142.6430   80.8460  223.4440 C   0  0  0  0  0  0  0  0  0  0  0  0
  142.6560   79.4990  223.0810 C   0  0  0  0  0  0  0  0  0  0  0  0
  141.4410   78.8590  222.9010 C   0  0  0  0  0  0  0  0  0  0  0  0
  141.4530   77.5610  222.5520 N   0  0  0  0  0  0  0  0  0  0  0  0
  142.4190   75.5950  221.3640 H   0  0  0  0  0  0  0  0  0  0  0  0
  141.6745   72.8930  221.9318 H   0  0  0  0  0  0  0  0  0  0  0  0
  141.0082   73.2818  220.3127 H   0  0  0  0  0  0  0  0  0  0  0  0
  143.4231   70.5717  220.6278 H   0  0  0  0  0  0  0  0  0  0  0  0
  141.9455   70.7946  219.7016 H   0  0  0  0  0  0  0  0  0  0  0  0
  144.7507   69.9963  218.6979 H   0  0  0  0  0  0  0  0  0  0  0  0
  143.2627   69.2578  218.2317 H   0  0  0  0  0  0  0  0  0  0  0  0
  144.1788   71.1294  216.5522 H   0  0  0  0  0  0  0  0  0  0  0  0
  142.5348   71.4303  217.0150 H   0  0  0  0  0  0  0  0  0  0  0  0
  145.1275   72.6132  218.3207 H   0  0  0  0  0  0  0  0  0  0  0  0
  144.2356   73.8704  216.5417 H   0  0  0  0  0  0  0  0  0  0  0  0
  142.6080   73.8384  217.2546 H   0  0  0  0  0  0  0  0  0  0  0  0
  144.8990   74.8860  218.9840 H   0  0  0  0  0  0  0  0  0  0  0  0
  141.5591   78.1565  216.3834 H   0  0  0  0  0  0  0  0  0  0  0  0
  142.0838   78.3141  220.6379 H   0  0  0  0  0  0  0  0  0  0  0  0
  138.1570   76.8878  222.3495 H   0  0  0  0  0  0  0  0  0  0  0  0
  138.1014   79.3102  223.0004 H   0  0  0  0  0  0  0  0  0  0  0  0
  139.2861   81.3647  223.5623 H   0  0  0  0  0  0  0  0  0  0  0  0
  141.4315   82.5630  223.8994 H   0  0  0  0  0  0  0  0  0  0  0  0
  143.5897   81.3854  223.5953 H   0  0  0  0  0  0  0  0  0  0  0  0
  143.6048   78.9602  222.9416 H   0  0  0  0  0  0  0  0  0  0  0  0
  1  2  2  0
  2  3  1  0
  3  4  1  0
  4  5  1  0
  5  6  2  0
  5  7  1  0
  7  8  1  0
  8  9  1  0
  9 10  1  0
 10 11  1  0
 11 12  1  0
 12 13  1  0
 13 14  1  0
 14 15  2  0
 15 16  1  0
 16 17  2  0
 17 18  1  0
 17 19  1  0
 19 20  2  0
  2 21  1  0
 21 22  2  0
 22 23  1  0
 23 24  2  0
 24 25  1  0
 25 26  2  0
 26 27  1  0
 27 28  2  0
 28 29  1  0
 29 30  2  0
 11  7  1  0
 20 14  1  0
 30 21  1  0
 29 24  1  0
  3 31  1  0
  4 32  1  0
  4 33  1  0
  8 34  1  0
  8 35  1  0
  9 36  1  0
  9 37  1  0
 10 38  1  0
 10 39  1  0
 11 40  1  1
 12 41  1  0
 12 42  1  0
 13 43  1  0
 16 44  1  0
 19 45  1  0
 22 46  1  0
 23 47  1  0
 25 48  1  0
 26 49  1  0
 27 50  1  0
 28 51  1  0
M  END
>  <smiles>  (31) 
O=C(NCC(=O)N1CCC[C@H]1CNc1ncc(Cl)cn1)c1ccc2ccccc2n1

>  <score_type>  (31) 
oracle

>  <origin>  (31) 
autodockgpu

>  <m_score__min__energy>  (31) 
-8.8699999999999992

>  <m_primary>  (31) 
energy

>  <rmsd>  (31) 
7.6857618715863785

>  <m_score__min__rmsd>  (31) 
7.6857618715863785

>  <meeko>  (31) 
{"free_energy": -6.23, "intermolecular_energy": -8.32, "internal_energy": -4.09, "cluster_size": 9, "cluster_id": 10, "rank_in_cluster": 9}

>  <energy>  (31) 
-6.48

>  <cluster_rmsd>  (31) 
1.67

>  <cluster>  (31) 
6

$$$$

     RDKit          3D

 51 54  0  0  0  0  0  0  0  0999 V2000
  141.6500   72.4070  221.6090 O   0  0  0  0  0  0  0  0  0  0  0  0
  140.6750   72.6270  222.3910 C   0  0  0  0  0  0  0  0  0  0  0  0
  139.9070   73.8230  222.3440 N   0  0  0  0  0  0  0  0  0  0  0  0
  140.1860   74.8720  221.4010 C   0  0  0  0  0  0  0  0  0  0  0  0
  139.7080   76.1680  221.9580 C   0  0  0  0  0  0  0  0  0  0  0  0
  138.5560   76.1390  222.4980 O   0  0  0  0  0  0  0  0  0  0  0  0
  140.4890   77.3530  221.8880 N   0  0  0  0  0  0  0  0  0  0  0  0
  140.9750   78.0590  223.0850 C   0  0  0  0  0  0  0  0  0  0  0  0
  141.5620   79.3580  222.5370 C   0  0  0  0  0  0  0  0  0  0  0  0
  142.1150   78.8320  221.2060 C   0  0  0  0  0  0  0  0  0  0  0  0
  140.9220   78.0420  220.7060 C   0  0  1  0  0  0  0  0  0  0  0  0
  141.3180   77.1520  219.5650 C   0  0  0  0  0  0  0  0  0  0  0  0
  142.7610   76.9020  219.7020 N   0  0  0  0  0  0  0  0  0  0  0  0
  143.2560   75.5660  219.7090 C   0  0  0  0  0  0  0  0  0  0  0  0
  142.6360   74.5600  219.0760 N   0  0  0  0  0  0  0  0  0  0  0  0
  143.0680   73.2870  219.0570 C   0  0  0  0  0  0  0  0  0  0  0  0
  144.2250   72.9700  219.7290 C   0  0  0  0  0  0  0  0  0  0  0  0
  144.8030   71.3250  219.7180 Cl  0  0  0  0  0  0  0  0  0  0  0  0
  144.8820   73.9960  220.3900 C   0  0  0  0  0  0  0  0  0  0  0  0
  144.4010   75.2510  220.3730 N   0  0  0  0  0  0  0  0  0  0  0  0
  140.3210   71.5980  223.3910 C   0  0  0  0  0  0  0  0  0  0  0  0
  139.6320   70.4690  223.0040 C   0  0  0  0  0  0  0  0  0  0  0  0
  139.3200   69.5240  223.9840 C   0  0  0  0  0  0  0  0  0  0  0  0
  139.6960   69.7260  225.3090 C   0  0  0  0  0  0  0  0  0  0  0  0
  139.3920   68.7960  226.2890 C   0  0  0  0  0  0  0  0  0  0  0  0
  139.7830   69.0300  227.5930 C   0  0  0  0  0  0  0  0  0  0  0  0
  140.4720   70.1790  227.9290 C   0  0  0  0  0  0  0  0  0  0  0  0
  140.7790   71.1170  226.9440 C   0  0  0  0  0  0  0  0  0  0  0  0
  140.3760   70.8560  225.6440 C   0  0  0  0  0  0  0  0  0  0  0  0
  140.6720   71.7590  224.6940 N   0  0  0  0  0  0  0  0  0  0  0  0
  139.1190   73.9170  223.0300 H   0  0  0  0  0  0  0  0  0  0  0  0
  141.2697   74.9261  221.2202 H   0  0  0  0  0  0  0  0  0  0  0  0
  139.6704   74.6639  220.4519 H   0  0  0  0  0  0  0  0  0  0  0  0
  140.1473   78.2665  223.7792 H   0  0  0  0  0  0  0  0  0  0  0  0
  141.7095   77.4702  223.6540 H   0  0  0  0  0  0  0  0  0  0  0  0
  140.7906   80.1278  222.3873 H   0  0  0  0  0  0  0  0  0  0  0  0
  142.2947   79.8567  223.1885 H   0  0  0  0  0  0  0  0  0  0  0  0
  142.3748   79.6527  220.5212 H   0  0  0  0  0  0  0  0  0  0  0  0
  143.0458   78.2522  221.2927 H   0  0  0  0  0  0  0  0  0  0  0  0
  140.1062   78.6431  220.2781 H   0  0  0  0  0  0  0  0  0  0  0  0
  140.7630   76.2036  219.6143 H   0  0  0  0  0  0  0  0  0  0  0  0
  141.0893   77.6243  218.5983 H   0  0  0  0  0  0  0  0  0  0  0  0
  143.4550   77.6640  219.7950 H   0  0  0  0  0  0  0  0  0  0  0  0
  142.5060   72.5130  218.5137 H   0  0  0  0  0  0  0  0  0  0  0  0
  145.8115   73.7798  220.9370 H   0  0  0  0  0  0  0  0  0  0  0  0
  139.3368   70.3167  221.9553 H   0  0  0  0  0  0  0  0  0  0  0  0
  138.7720   68.6116  223.7062 H   0  0  0  0  0  0  0  0  0  0  0  0
  138.8434   67.8781  226.0310 H   0  0  0  0  0  0  0  0  0  0  0  0
  139.5428   68.2926  228.3731 H   0  0  0  0  0  0  0  0  0  0  0  0
  140.7778   70.3537  228.9711 H   0  0  0  0  0  0  0  0  0  0  0  0
  141.3259   72.0386  227.1920 H   0  0  0  0  0  0  0  0  0  0  0  0
  1  2  2  0
  2  3  1  0
  3  4  1  0
  4  5  1  0
  5  6  2  0
  5  7  1  0
  7  8  1  0
  8  9  1  0
  9 10  1  0
 10 11  1  0
 11 12  1  0
 12 13  1  0
 13 14  1  0
 14 15  2  0
 15 16  1  0
 16 17  2  0
 17 18  1  0
 17 19  1  0
 19 20  2  0
  2 21  1  0
 21 22  2  0
 22 23  1  0
 23 24  2  0
 24 25  1  0
 25 26  2  0
 26 27  1  0
 27 28  2  0
 28 29  1  0
 29 30  2  0
 11  7  1  0
 20 14  1  0
 30 21  1  0
 29 24  1  0
  3 31  1  0
  4 32  1  0
  4 33  1  0
  8 34  1  0
  8 35  1  0
  9 36  1  0
  9 37  1  0
 10 38  1  0
 10 39  1  0
 11 40  1  6
 12 41  1  0
 12 42  1  0
 13 43  1  0
 16 44  1  0
 19 45  1  0
 22 46  1  0
 23 47  1  0
 25 48  1  0
 26 49  1  0
 27 50  1  0
 28 51  1  0
M  END
>  <smiles>  (32) 
O=C(NCC(=O)N1CCC[C@H]1CNc1ncc(Cl)cn1)c1ccc2ccccc2n1

>  <score_type>  (32) 
oracle

>  <origin>  (32) 
autodockgpu

>  <m_score__min__energy>  (32) 
-8.8699999999999992

>  <m_primary>  (32) 
energy

>  <rmsd>  (32) 
3.1049733289907127

>  <m_score__min__rmsd>  (32) 
3.1049733289907127

>  <meeko>  (32) 
{"free_energy": -8.15, "intermolecular_energy": -10.24, "internal_energy": -2.09, "cluster_size": 6, "cluster_id": 1, "rank_in_cluster": 2}

>  <energy>  (32) 
-7.42

>  <cluster_rmsd>  (32) 
0.0

>  <cluster>  (32) 
7

$$$$

     RDKit          3D

 51 54  0  0  0  0  0  0  0  0999 V2000
  138.8990   75.1040  222.3350 O   0  0  0  0  0  0  0  0  0  0  0  0
  140.0060   75.6870  222.1220 C   0  0  0  0  0  0  0  0  0  0  0  0
  141.1250   75.0240  221.5480 N   0  0  0  0  0  0  0  0  0  0  0  0
  141.0780   73.6380  221.1680 C   0  0  0  0  0  0  0  0  0  0  0  0
  141.8430   73.4530  219.9030 C   0  0  0  0  0  0  0  0  0  0  0  0
  141.2390   73.8120  218.8410 O   0  0  0  0  0  0  0  0  0  0  0  0
  143.1570   72.9130  219.8870 N   0  0  0  0  0  0  0  0  0  0  0  0
  143.4750   71.6100  219.2810 C   0  0  0  0  0  0  0  0  0  0  0  0
  144.9250   71.3550  219.6880 C   0  0  0  0  0  0  0  0  0  0  0  0
  145.4440   72.7980  219.6540 C   0  0  0  0  0  0  0  0  0  0  0  0
  144.3480   73.5020  220.4290 C   0  0  1  0  0  0  0  0  0  0  0  0
  144.4510   74.9890  220.2570 C   0  0  0  0  0  0  0  0  0  0  0  0
  143.5550   75.3540  219.1500 N   0  0  0  0  0  0  0  0  0  0  0  0
  143.0570   76.6840  219.0440 C   0  0  0  0  0  0  0  0  0  0  0  0
  142.3220   77.2620  220.0050 N   0  0  0  0  0  0  0  0  0  0  0  0
  141.8330   78.5130  219.9460 C   0  0  0  0  0  0  0  0  0  0  0  0
  142.0910   79.2730  218.8300 C   0  0  0  0  0  0  0  0  0  0  0  0
  141.4660   80.8980  218.7320 Cl  0  0  0  0  0  0  0  0  0  0  0  0
  142.8490   78.6950  217.8230 C   0  0  0  0  0  0  0  0  0  0  0  0
  143.3110   77.4380  217.9400 N   0  0  0  0  0  0  0  0  0  0  0  0
  140.1380   77.1140  222.4830 C   0  0  0  0  0  0  0  0  0  0  0  0
  139.0130   77.8960  222.6270 C   0  0  0  0  0  0  0  0  0  0  0  0
  139.1870   79.2380  222.9690 C   0  0  0  0  0  0  0  0  0  0  0  0
  140.4640   79.7620  223.1570 C   0  0  0  0  0  0  0  0  0  0  0  0
  140.6480   81.0910  223.4970 C   0  0  0  0  0  0  0  0  0  0  0  0
  141.9300   81.5750  223.6760 C   0  0  0  0  0  0  0  0  0  0  0  0
  143.0250   80.7490  223.5210 C   0  0  0  0  0  0  0  0  0  0  0  0
  142.8420   79.4090  223.1780 C   0  0  0  0  0  0  0  0  0  0  0  0
  141.5450   78.9510  223.0050 C   0  0  0  0  0  0  0  0  0  0  0  0
  141.3670   77.6610  222.6760 N   0  0  0  0  0  0  0  0  0  0  0  0
  141.9990   75.5870  221.4080 H   0  0  0  0  0  0  0  0  0  0  0  0
  141.5257   73.0229  221.9625 H   0  0  0  0  0  0  0  0  0  0  0  0
  140.0327   73.3304  221.0173 H   0  0  0  0  0  0  0  0  0  0  0  0
  142.8144   70.8239  219.6757 H   0  0  0  0  0  0  0  0  0  0  0  0
  143.3354   71.6060  218.1899 H   0  0  0  0  0  0  0  0  0  0  0  0
  144.9994   70.9140  220.6930 H   0  0  0  0  0  0  0  0  0  0  0  0
  145.4739   70.6409  219.0565 H   0  0  0  0  0  0  0  0  0  0  0  0
  146.4194   72.8910  220.1540 H   0  0  0  0  0  0  0  0  0  0  0  0
  145.6225   73.1981  218.6450 H   0  0  0  0  0  0  0  0  0  0  0  0
  144.3896   73.3757  221.5209 H   0  0  0  0  0  0  0  0  0  0  0  0
  144.1388   75.4991  221.1802 H   0  0  0  0  0  0  0  0  0  0  0  0
  145.4868   75.2895  220.0406 H   0  0  0  0  0  0  0  0  0  0  0  0
  143.2580   74.6780  218.4240 H   0  0  0  0  0  0  0  0  0  0  0  0
  141.2372   78.9210  220.7758 H   0  0  0  0  0  0  0  0  0  0  0  0
  143.0756   79.2734  216.9152 H   0  0  0  0  0  0  0  0  0  0  0  0
  138.0077   77.4754  222.4769 H   0  0  0  0  0  0  0  0  0  0  0  0
  138.3078   79.8877  223.0912 H   0  0  0  0  0  0  0  0  0  0  0  0
  139.7812   81.7563  223.6236 H   0  0  0  0  0  0  0  0  0  0  0  0
  142.0796   82.6310  223.9452 H   0  0  0  0  0  0  0  0  0  0  0  0
  144.0401   81.1465  223.6676 H   0  0  0  0  0  0  0  0  0  0  0  0
  143.7020   78.7354  223.0486 H   0  0  0  0  0  0  0  0  0  0  0  0
  1  2  2  0
  2  3  1  0
  3  4  1  0
  4  5  1  0
  5  6  2  0
  5  7  1  0
  7  8  1  0
  8  9  1  0
  9 10  1  0
 10 11  1  0
 11 12  1  0
 12 13  1  0
 13 14  1  0
 14 15  2  0
 15 16  1  0
 16 17  2  0
 17 18  1  0
 17 19  1  0
 19 20  2  0
  2 21  1  0
 21 22  2  0
 22 23  1  0
 23 24  2  0
 24 25  1  0
 25 26  2  0
 26 27  1  0
 27 28  2  0
 28 29  1  0
 29 30  2  0
 11  7  1  0
 20 14  1  0
 30 21  1  0
 29 24  1  0
  3 31  1  0
  4 32  1  0
  4 33  1  0
  8 34  1  0
  8 35  1  0
  9 36  1  0
  9 37  1  0
 10 38  1  0
 10 39  1  0
 11 40  1  1
 12 41  1  0
 12 42  1  0
 13 43  1  0
 16 44  1  0
 19 45  1  0
 22 46  1  0
 23 47  1  0
 25 48  1  0
 26 49  1  0
 27 50  1  0
 28 51  1  0
M  END
>  <smiles>  (33) 
O=C(NCC(=O)N1CCC[C@H]1CNc1ncc(Cl)cn1)c1ccc2ccccc2n1

>  <score_type>  (33) 
oracle

>  <origin>  (33) 
autodockgpu

>  <m_score__min__energy>  (33) 
-8.8699999999999992

>  <m_primary>  (33) 
energy

>  <rmsd>  (33) 
7.653118276623722

>  <m_score__min__rmsd>  (33) 
7.653118276623722

>  <meeko>  (33) 
{"free_energy": -6.64, "intermolecular_energy": -8.72, "internal_energy": -3.46, "cluster_size": 9, "cluster_id": 10, "rank_in_cluster": 4}

>  <energy>  (33) 
-7.08

>  <cluster_rmsd>  (33) 
0.65

>  <cluster>  (33) 
7

$$$$

     RDKit          3D

 51 54  0  0  0  0  0  0  0  0999 V2000
  140.3960   77.2610  218.5700 O   0  0  0  0  0  0  0  0  0  0  0  0
  141.5890   77.2270  219.0010 C   0  0  0  0  0  0  0  0  0  0  0  0
  142.3190   78.4010  219.3340 N   0  0  0  0  0  0  0  0  0  0  0  0
  141.7500   79.7160  219.2030 C   0  0  0  0  0  0  0  0  0  0  0  0
  140.9470   80.0230  220.4190 C   0  0  0  0  0  0  0  0  0  0  0  0
  139.7490   80.3990  220.2030 O   0  0  0  0  0  0  0  0  0  0  0  0
  141.4840   79.9040  221.7290 N   0  0  0  0  0  0  0  0  0  0  0  0
  141.9470   81.0630  222.5080 C   0  0  0  0  0  0  0  0  0  0  0  0
  142.6250   80.4440  223.7290 C   0  0  0  0  0  0  0  0  0  0  0  0
  141.7210   79.2180  223.9130 C   0  0  0  0  0  0  0  0  0  0  0  0
  141.6660   78.7010  222.4890 C   0  0  1  0  0  0  0  0  0  0  0  0
  140.5700   77.6860  222.3390 C   0  0  0  0  0  0  0  0  0  0  0  0
  141.2070   76.4330  221.9080 N   0  0  0  0  0  0  0  0  0  0  0  0
  140.4700   75.2140  221.9300 C   0  0  0  0  0  0  0  0  0  0  0  0
  141.0600   74.0100  221.9620 N   0  0  0  0  0  0  0  0  0  0  0  0
  140.4040   72.8370  221.9830 C   0  0  0  0  0  0  0  0  0  0  0  0
  139.0300   72.8470  221.9710 C   0  0  0  0  0  0  0  0  0  0  0  0
  138.1580   71.3360  221.9980 Cl  0  0  0  0  0  0  0  0  0  0  0  0
  138.3990   74.0810  221.9380 C   0  0  0  0  0  0  0  0  0  0  0  0
  139.1100   75.2210  221.9180 N   0  0  0  0  0  0  0  0  0  0  0  0
  142.2480   75.9150  219.1670 C   0  0  0  0  0  0  0  0  0  0  0  0
  141.6890   74.7870  218.6070 C   0  0  0  0  0  0  0  0  0  0  0  0
  142.3480   73.5690  218.7890 C   0  0  0  0  0  0  0  0  0  0  0  0
  143.5340   73.5070  219.5170 C   0  0  0  0  0  0  0  0  0  0  0  0
  144.1960   72.3050  219.7030 C   0  0  0  0  0  0  0  0  0  0  0  0
  145.3710   72.2820  220.4300 C   0  0  0  0  0  0  0  0  0  0  0  0
  145.8900   73.4420  220.9700 C   0  0  0  0  0  0  0  0  0  0  0  0
  145.2250   74.6530  220.7830 C   0  0  0  0  0  0  0  0  0  0  0  0
  144.0490   74.6470  220.0500 C   0  0  0  0  0  0  0  0  0  0  0  0
  143.4080   75.8140  219.8690 N   0  0  0  0  0  0  0  0  0  0  0  0
  143.3000   78.2760  219.6840 H   0  0  0  0  0  0  0  0  0  0  0  0
  142.5559   80.4571  219.0970 H   0  0  0  0  0  0  0  0  0  0  0  0
  141.1042   79.7533  218.3133 H   0  0  0  0  0  0  0  0  0  0  0  0
  142.6621   81.6637  221.9268 H   0  0  0  0  0  0  0  0  0  0  0  0
  141.1270   81.7438  222.7801 H   0  0  0  0  0  0  0  0  0  0  0  0
  143.6673   80.1600  223.5218 H   0  0  0  0  0  0  0  0  0  0  0  0
  142.7113   81.1028  224.6057 H   0  0  0  0  0  0  0  0  0  0  0  0
  142.1694   78.4813  224.5957 H   0  0  0  0  0  0  0  0  0  0  0  0
  140.7399   79.4343  224.3610 H   0  0  0  0  0  0  0  0  0  0  0  0
  142.5585   78.1533  222.1522 H   0  0  0  0  0  0  0  0  0  0  0  0
  140.0564   77.5384  223.3005 H   0  0  0  0  0  0  0  0  0  0  0  0
  139.8206   78.0200  221.6063 H   0  0  0  0  0  0  0  0  0  0  0  0
  142.1890   76.3860  221.5820 H   0  0  0  0  0  0  0  0  0  0  0  0
  140.9570   71.8864  222.0093 H   0  0  0  0  0  0  0  0  0  0  0  0
  137.3000   74.1276  221.9281 H   0  0  0  0  0  0  0  0  0  0  0  0
  140.7519   74.8440  218.0338 H   0  0  0  0  0  0  0  0  0  0  0  0
  141.9268   72.6508  218.3537 H   0  0  0  0  0  0  0  0  0  0  0  0
  143.7900   71.3763  219.2757 H   0  0  0  0  0  0  0  0  0  0  0  0
  145.8989   71.3287  220.5802 H   0  0  0  0  0  0  0  0  0  0  0  0
  146.8263   73.4107  221.5466 H   0  0  0  0  0  0  0  0  0  0  0  0
  145.6228   75.5874  221.2056 H   0  0  0  0  0  0  0  0  0  0  0  0
  1  2  2  0
  2  3  1  0
  3  4  1  0
  4  5  1  0
  5  6  2  0
  5  7  1  0
  7  8  1  0
  8  9  1  0
  9 10  1  0
 10 11  1  0
 11 12  1  0
 12 13  1  0
 13 14  1  0
 14 15  2  0
 15 16  1  0
 16 17  2  0
 17 18  1  0
 17 19  1  0
 19 20  2  0
  2 21  1  0
 21 22  2  0
 22 23  1  0
 23 24  2  0
 24 25  1  0
 25 26  2  0
 26 27  1  0
 27 28  2  0
 28 29  1  0
 29 30  2  0
 11  7  1  0
 20 14  1  0
 30 21  1  0
 29 24  1  0
  3 31  1  0
  4 32  1  0
  4 33  1  0
  8 34  1  0
  8 35  1  0
  9 36  1  0
  9 37  1  0
 10 38  1  0
 10 39  1  0
 11 40  1  6
 12 41  1  0
 12 42  1  0
 13 43  1  0
 16 44  1  0
 19 45  1  0
 22 46  1  0
 23 47  1  0
 25 48  1  0
 26 49  1  0
 27 50  1  0
 28 51  1  0
M  END
>  <smiles>  (34) 
O=C(NCC(=O)N1CCC[C@H]1CNc1ncc(Cl)cn1)c1ccc2ccccc2n1

>  <score_type>  (34) 
oracle

>  <origin>  (34) 
autodockgpu

>  <m_score__min__energy>  (34) 
-8.8699999999999992

>  <m_primary>  (34) 
energy

>  <rmsd>  (34) 
7.253503420268651

>  <m_score__min__rmsd>  (34) 
7.253503420268651

>  <meeko>  (34) 
{"free_energy": -7.18, "intermolecular_energy": -9.26, "internal_energy": -3.4, "cluster_size": 2, "cluster_id": 9, "rank_in_cluster": 1}

>  <energy>  (34) 
-7.25

>  <cluster_rmsd>  (34) 
0.0

>  <cluster>  (34) 
8

$$$$

     RDKit          3D

 51 54  0  0  0  0  0  0  0  0999 V2000
  138.0740   70.1350  221.8720 O   0  0  0  0  0  0  0  0  0  0  0  0
  138.6520   70.7960  222.7870 C   0  0  0  0  0  0  0  0  0  0  0  0
  138.9280   72.1860  222.6740 N   0  0  0  0  0  0  0  0  0  0  0  0
  138.5670   72.9430  221.5060 C   0  0  0  0  0  0  0  0  0  0  0  0
  139.7190   73.7980  221.1030 C   0  0  0  0  0  0  0  0  0  0  0  0
  140.5540   74.0600  222.0280 O   0  0  0  0  0  0  0  0  0  0  0  0
  139.8700   74.2850  219.7780 N   0  0  0  0  0  0  0  0  0  0  0  0
  139.4250   73.5300  218.5960 C   0  0  0  0  0  0  0  0  0  0  0  0
  139.9780   74.3270  217.4160 C   0  0  0  0  0  0  0  0  0  0  0  0
  139.8470   75.7410  217.9960 C   0  0  0  0  0  0  0  0  0  0  0  0
  140.4520   75.5320  219.3700 C   0  0  1  0  0  0  0  0  0  0  0  0
  140.1440   76.6960  220.2650 C   0  0  0  0  0  0  0  0  0  0  0  0
  141.1260   76.6640  221.3580 N   0  0  0  0  0  0  0  0  0  0  0  0
  141.4700   77.8650  222.0440 C   0  0  0  0  0  0  0  0  0  0  0  0
  141.4610   77.9630  223.3820 N   0  0  0  0  0  0  0  0  0  0  0  0
  141.7770   79.0750  224.0680 C   0  0  0  0  0  0  0  0  0  0  0  0
  142.1400   80.2030  223.3720 C   0  0  0  0  0  0  0  0  0  0  0  0
  142.5550   81.6560  224.2430 Cl  0  0  0  0  0  0  0  0  0  0  0  0
  142.1570   80.1230  221.9880 C   0  0  0  0  0  0  0  0  0  0  0  0
  141.8290   78.9820  221.3570 N   0  0  0  0  0  0  0  0  0  0  0  0
  139.0560   70.0940  224.0240 C   0  0  0  0  0  0  0  0  0  0  0  0
  138.8050   68.7470  224.1640 C   0  0  0  0  0  0  0  0  0  0  0  0
  139.2060   68.1260  225.3500 C   0  0  0  0  0  0  0  0  0  0  0  0
  139.8370   68.8550  226.3540 C   0  0  0  0  0  0  0  0  0  0  0  0
  140.2380   68.2500  227.5330 C   0  0  0  0  0  0  0  0  0  0  0  0
  140.8630   69.0060  228.5070 C   0  0  0  0  0  0  0  0  0  0  0  0
  141.0910   70.3550  228.3150 C   0  0  0  0  0  0  0  0  0  0  0  0
  140.6880   70.9660  227.1290 C   0  0  0  0  0  0  0  0  0  0  0  0
  140.0640   70.1840  226.1700 C   0  0  0  0  0  0  0  0  0  0  0  0
  139.6760   70.7710  225.0260 N   0  0  0  0  0  0  0  0  0  0  0  0
  139.4090   72.6500  223.4830 H   0  0  0  0  0  0  0  0  0  0  0  0
  138.3138   72.2556  220.6854 H   0  0  0  0  0  0  0  0  0  0  0  0
  137.6961   73.5766  221.7299 H   0  0  0  0  0  0  0  0  0  0  0  0
  139.8371   72.5102  218.6060 H   0  0  0  0  0  0  0  0  0  0  0  0
  138.3317   73.4166  218.5540 H   0  0  0  0  0  0  0  0  0  0  0  0
  141.0241   74.0667  217.1970 H   0  0  0  0  0  0  0  0  0  0  0  0
  139.4693   74.1619  216.4548 H   0  0  0  0  0  0  0  0  0  0  0  0
  140.4173   76.4756  217.4085 H   0  0  0  0  0  0  0  0  0  0  0  0
  138.8225   76.1413  218.0019 H   0  0  0  0  0  0  0  0  0  0  0  0
  141.5506   75.4831  219.3979 H   0  0  0  0  0  0  0  0  0  0  0  0
  140.2322   77.6383  219.7044 H   0  0  0  0  0  0  0  0  0  0  0  0
  139.1175   76.6325  220.6552 H   0  0  0  0  0  0  0  0  0  0  0  0
  141.5950   75.7940  221.6660 H   0  0  0  0  0  0  0  0  0  0  0  0
  141.7456   79.0819  225.1675 H   0  0  0  0  0  0  0  0  0  0  0  0
  142.4430   81.0059  221.3976 H   0  0  0  0  0  0  0  0  0  0  0  0
  138.3044   68.1776  223.3670 H   0  0  0  0  0  0  0  0  0  0  0  0
  139.0212   67.0509  225.4915 H   0  0  0  0  0  0  0  0  0  0  0  0
  140.0607   67.1763  227.6934 H   0  0  0  0  0  0  0  0  0  0  0  0
  141.1823   68.5284  229.4450 H   0  0  0  0  0  0  0  0  0  0  0  0
  141.5899   70.9460  229.0971 H   0  0  0  0  0  0  0  0  0  0  0  0
  140.8604   72.0390  226.9588 H   0  0  0  0  0  0  0  0  0  0  0  0
  1  2  2  0
  2  3  1  0
  3  4  1  0
  4  5  1  0
  5  6  2  0
  5  7  1  0
  7  8  1  0
  8  9  1  0
  9 10  1  0
 10 11  1  0
 11 12  1  0
 12 13  1  0
 13 14  1  0
 14 15  2  0
 15 16  1  0
 16 17  2  0
 17 18  1  0
 17 19  1  0
 19 20  2  0
  2 21  1  0
 21 22  2  0
 22 23  1  0
 23 24  2  0
 24 25  1  0
 25 26  2  0
 26 27  1  0
 27 28  2  0
 28 29  1  0
 29 30  2  0
 11  7  1  0
 20 14  1  0
 30 21  1  0
 29 24  1  0
  3 31  1  0
  4 32  1  0
  4 33  1  0
  8 34  1  0
  8 35  1  0
  9 36  1  0
  9 37  1  0
 10 38  1  0
 10 39  1  0
 11 40  1  6
 12 41  1  0
 12 42  1  0
 13 43  1  0
 16 44  1  0
 19 45  1  0
 22 46  1  0
 23 47  1  0
 25 48  1  0
 26 49  1  0
 27 50  1  0
 28 51  1  0
M  END
>  <smiles>  (35) 
O=C(NCC(=O)N1CCC[C@H]1CNc1ncc(Cl)cn1)c1ccc2ccccc2n1

>  <score_type>  (35) 
oracle

>  <origin>  (35) 
autodockgpu

>  <m_score__min__energy>  (35) 
-8.8699999999999992

>  <m_primary>  (35) 
energy

>  <rmsd>  (35) 
1.3455572871682961

>  <m_score__min__rmsd>  (35) 
1.3455572871682961

>  <meeko>  (35) 
{"free_energy": -7.74, "intermolecular_energy": -9.82, "internal_energy": -2.5, "cluster_size": 7, "cluster_id": 3, "rank_in_cluster": 7}

>  <energy>  (35) 
-7.18

>  <cluster_rmsd>  (35) 
0.0

>  <cluster>  (35) 
9

$$$$

     RDKit          3D

 51 54  0  0  0  0  0  0  0  0999 V2000
  140.3470   70.9380  221.1430 O   0  0  0  0  0  0  0  0  0  0  0  0
  140.1650   71.6760  222.1590 C   0  0  0  0  0  0  0  0  0  0  0  0
  140.0420   73.0890  222.0700 N   0  0  0  0  0  0  0  0  0  0  0  0
  140.1170   73.7840  220.8130 C   0  0  0  0  0  0  0  0  0  0  0  0
  140.7120   75.1320  221.0360 C   0  0  0  0  0  0  0  0  0  0  0  0
  140.7080   75.5390  222.2420 O   0  0  0  0  0  0  0  0  0  0  0  0
  141.2450   75.9060  219.9710 N   0  0  0  0  0  0  0  0  0  0  0  0
  140.5670   77.0970  219.4350 C   0  0  0  0  0  0  0  0  0  0  0  0
  141.3800   77.4600  218.1940 C   0  0  0  0  0  0  0  0  0  0  0  0
  142.7740   77.0530  218.6890 C   0  0  0  0  0  0  0  0  0  0  0  0
  142.4720   75.6830  219.2620 C   0  0  1  0  0  0  0  0  0  0  0  0
  143.6140   75.2020  220.1090 C   0  0  0  0  0  0  0  0  0  0  0  0
  144.4900   74.4100  219.2340 N   0  0  0  0  0  0  0  0  0  0  0  0
  144.5060   72.9890  219.3380 C   0  0  0  0  0  0  0  0  0  0  0  0
  145.5160   72.2400  218.8730 N   0  0  0  0  0  0  0  0  0  0  0  0
  145.5720   70.8980  218.9500 C   0  0  0  0  0  0  0  0  0  0  0  0
  144.5310   70.2250  219.5440 C   0  0  0  0  0  0  0  0  0  0  0  0
  144.5820   68.4860  219.6550 Cl  0  0  0  0  0  0  0  0  0  0  0  0
  143.4760   70.9810  220.0330 C   0  0  0  0  0  0  0  0  0  0  0  0
  143.4770   72.3210  219.9260 N   0  0  0  0  0  0  0  0  0  0  0  0
  140.0750   71.0410  223.4910 C   0  0  0  0  0  0  0  0  0  0  0  0
  139.4910   69.8000  223.6250 C   0  0  0  0  0  0  0  0  0  0  0  0
  139.4300   69.2390  224.9020 C   0  0  0  0  0  0  0  0  0  0  0  0
  139.9450   69.9220  226.0020 C   0  0  0  0  0  0  0  0  0  0  0  0
  139.8890   69.3760  227.2720 C   0  0  0  0  0  0  0  0  0  0  0  0
  140.4110   70.0820  228.3390 C   0  0  0  0  0  0  0  0  0  0  0  0
  140.9870   71.3230  228.1510 C   0  0  0  0  0  0  0  0  0  0  0  0
  141.0440   71.8750  226.8710 C   0  0  0  0  0  0  0  0  0  0  0  0
  140.5130   71.1440  225.8200 C   0  0  0  0  0  0  0  0  0  0  0  0
  140.5670   71.6750  224.5870 N   0  0  0  0  0  0  0  0  0  0  0  0
  139.8930   73.6180  222.9650 H   0  0  0  0  0  0  0  0  0  0  0  0
  140.7470   73.2143  220.1141 H   0  0  0  0  0  0  0  0  0  0  0  0
  139.1083   73.8899  220.3873 H   0  0  0  0  0  0  0  0  0  0  0  0
  139.5257   76.8659  219.1661 H   0  0  0  0  0  0  0  0  0  0  0  0
  140.5182   77.9195  220.1638 H   0  0  0  0  0  0  0  0  0  0  0  0
  141.0695   76.8785  217.3134 H   0  0  0  0  0  0  0  0  0  0  0  0
  141.2850   78.5024  217.8559 H   0  0  0  0  0  0  0  0  0  0  0  0
  143.4984   76.9975  217.8631 H   0  0  0  0  0  0  0  0  0  0  0  0
  143.2328   77.7568  219.3990 H   0  0  0  0  0  0  0  0  0  0  0  0
  142.3579   74.8781  218.5210 H   0  0  0  0  0  0  0  0  0  0  0  0
  144.1663   76.0592  220.5216 H   0  0  0  0  0  0  0  0  0  0  0  0
  143.2509   74.5982  220.9537 H   0  0  0  0  0  0  0  0  0  0  0  0
  145.1130   74.8390  218.5270 H   0  0  0  0  0  0  0  0  0  0  0  0
  146.4351   70.3493  218.5450 H   0  0  0  0  0  0  0  0  0  0  0  0
  142.6259   70.4766  220.5155 H   0  0  0  0  0  0  0  0  0  0  0  0
  139.0852   69.2675  222.7522 H   0  0  0  0  0  0  0  0  0  0  0  0
  138.9713   68.2489  225.0410 H   0  0  0  0  0  0  0  0  0  0  0  0
  139.4326   68.3879  227.4311 H   0  0  0  0  0  0  0  0  0  0  0  0
  140.3672   69.6505  229.3499 H   0  0  0  0  0  0  0  0  0  0  0  0
  141.3998   71.8749  229.0083 H   0  0  0  0  0  0  0  0  0  0  0  0
  141.4976   72.8625  226.7007 H   0  0  0  0  0  0  0  0  0  0  0  0
  1  2  2  0
  2  3  1  0
  3  4  1  0
  4  5  1  0
  5  6  2  0
  5  7  1  0
  7  8  1  0
  8  9  1  0
  9 10  1  0
 10 11  1  0
 11 12  1  0
 12 13  1  0
 13 14  1  0
 14 15  2  0
 15 16  1  0
 16 17  2  0
 17 18  1  0
 17 19  1  0
 19 20  2  0
  2 21  1  0
 21 22  2  0
 22 23  1  0
 23 24  2  0
 24 25  1  0
 25 26  2  0
 26 27  1  0
 27 28  2  0
 28 29  1  0
 29 30  2  0
 11  7  1  0
 20 14  1  0
 30 21  1  0
 29 24  1  0
  3 31  1  0
  4 32  1  0
  4 33  1  0
  8 34  1  0
  8 35  1  0
  9 36  1  0
  9 37  1  0
 10 38  1  0
 10 39  1  0
 11 40  1  6
 12 41  1  0
 12 42  1  0
 13 43  1  0
 16 44  1  0
 19 45  1  0
 22 46  1  0
 23 47  1  0
 25 48  1  0
 26 49  1  0
 27 50  1  0
 28 51  1  0
M  END
>  <smiles>  (36) 
O=C(NCC(=O)N1CCC[C@H]1CNc1ncc(Cl)cn1)c1ccc2ccccc2n1

>  <score_type>  (36) 
oracle

>  <origin>  (36) 
autodockgpu

>  <m_score__min__energy>  (36) 
-8.8699999999999992

>  <m_primary>  (36) 
energy

>  <rmsd>  (36) 
2.4770452561538328

>  <m_score__min__rmsd>  (36) 
2.4770452561538328

>  <meeko>  (36) 
{"free_energy": -8.15, "intermolecular_energy": -10.24, "internal_energy": -2.24, "cluster_size": 6, "cluster_id": 1, "rank_in_cluster": 3}

>  <energy>  (36) 
-7.01

>  <cluster_rmsd>  (36) 
0.26

>  <cluster>  (36) 
9

$$$$

     RDKit          3D

 51 54  0  0  0  0  0  0  0  0999 V2000
  139.6600   73.0780  222.7050 O   0  0  0  0  0  0  0  0  0  0  0  0
  139.3440   71.8660  222.9100 C   0  0  0  0  0  0  0  0  0  0  0  0
  138.5520   71.1140  222.0000 N   0  0  0  0  0  0  0  0  0  0  0  0
  138.0500   71.6810  220.7770 C   0  0  0  0  0  0  0  0  0  0  0  0
  137.0090   72.6960  221.1010 C   0  0  0  0  0  0  0  0  0  0  0  0
  136.5660   72.6630  222.2940 O   0  0  0  0  0  0  0  0  0  0  0  0
  136.5450   73.6340  220.1400 N   0  0  0  0  0  0  0  0  0  0  0  0
  135.8320   73.2340  218.9160 C   0  0  0  0  0  0  0  0  0  0  0  0
  135.7280   74.5260  218.1080 C   0  0  0  0  0  0  0  0  0  0  0  0
  135.5650   75.5230  219.2630 C   0  0  0  0  0  0  0  0  0  0  0  0
  136.6780   75.0620  220.1830 C   0  0  1  0  0  0  0  0  0  0  0  0
  136.5230   75.6710  221.5460 C   0  0  0  0  0  0  0  0  0  0  0  0
  137.7300   75.3210  222.3080 N   0  0  0  0  0  0  0  0  0  0  0  0
  138.7620   76.2860  222.4930 C   0  0  0  0  0  0  0  0  0  0  0  0
  140.0620   75.9950  222.3380 N   0  0  0  0  0  0  0  0  0  0  0  0
  141.0660   76.8730  222.5030 C   0  0  0  0  0  0  0  0  0  0  0  0
  140.7640   78.1670  222.8540 C   0  0  0  0  0  0  0  0  0  0  0  0
  142.0520   79.3230  223.0720 Cl  0  0  0  0  0  0  0  0  0  0  0  0
  139.4260   78.4900  223.0180 C   0  0  0  0  0  0  0  0  0  0  0  0
  138.4650   77.5670  222.8400 N   0  0  0  0  0  0  0  0  0  0  0  0
  139.8210   71.2060  224.1440 C   0  0  0  0  0  0  0  0  0  0  0  0
  140.6370   71.8890  225.0190 C   0  0  0  0  0  0  0  0  0  0  0  0
  141.0620   71.2250  226.1720 C   0  0  0  0  0  0  0  0  0  0  0  0
  140.6670   69.9130  226.4210 C   0  0  0  0  0  0  0  0  0  0  0  0
  141.0820   69.2450  227.5600 C   0  0  0  0  0  0  0  0  0  0  0  0
  140.6690   67.9430  227.7740 C   0  0  0  0  0  0  0  0  0  0  0  0
  139.8500   67.3040  226.8640 C   0  0  0  0  0  0  0  0  0  0  0  0
  139.4310   67.9750  225.7160 C   0  0  0  0  0  0  0  0  0  0  0  0
  139.8590   69.2800  225.5280 C   0  0  0  0  0  0  0  0  0  0  0  0
  139.4560   69.9270  224.4220 N   0  0  0  0  0  0  0  0  0  0  0  0
  138.3420   70.1180  222.2520 H   0  0  0  0  0  0  0  0  0  0  0  0
  138.8738   72.1607  220.2281 H   0  0  0  0  0  0  0  0  0  0  0  0
  137.6123   70.8877  220.1532 H   0  0  0  0  0  0  0  0  0  0  0  0
  136.4015   72.4723  218.3633 H   0  0  0  0  0  0  0  0  0  0  0  0
  134.8493   72.7867  219.1263 H   0  0  0  0  0  0  0  0  0  0  0  0
  136.6385   74.7198  217.5220 H   0  0  0  0  0  0  0  0  0  0  0  0
  134.9300   74.5462  217.3511 H   0  0  0  0  0  0  0  0  0  0  0  0
  135.7171   76.5600  218.9292 H   0  0  0  0  0  0  0  0  0  0  0  0
  134.5653   75.5344  219.7219 H   0  0  0  0  0  0  0  0  0  0  0  0
  137.6910   75.3727  219.8876 H   0  0  0  0  0  0  0  0  0  0  0  0
  136.4308   76.7641  221.4640 H   0  0  0  0  0  0  0  0  0  0  0  0
  135.6182   75.2945  222.0456 H   0  0  0  0  0  0  0  0  0  0  0  0
  137.8750   74.3870  222.7300 H   0  0  0  0  0  0  0  0  0  0  0  0
  142.1112   76.5614  222.3596 H   0  0  0  0  0  0  0  0  0  0  0  0
  139.1465   79.5164  223.2979 H   0  0  0  0  0  0  0  0  0  0  0  0
  140.9444   72.9255  224.8158 H   0  0  0  0  0  0  0  0  0  0  0  0
  141.7147   71.7432  226.8900 H   0  0  0  0  0  0  0  0  0  0  0  0
  141.7354   69.7462  228.2893 H   0  0  0  0  0  0  0  0  0  0  0  0
  140.9964   67.4103  228.6790 H   0  0  0  0  0  0  0  0  0  0  0  0
  139.5289   66.2675  227.0446 H   0  0  0  0  0  0  0  0  0  0  0  0
  138.7788   67.4825  224.9798 H   0  0  0  0  0  0  0  0  0  0  0  0
  1  2  2  0
  2  3  1  0
  3  4  1  0
  4  5  1  0
  5  6  2  0
  5  7  1  0
  7  8  1  0
  8  9  1  0
  9 10  1  0
 10 11  1  0
 11 12  1  0
 12 13  1  0
 13 14  1  0
 14 15  2  0
 15 16  1  0
 16 17  2  0
 17 18  1  0
 17 19  1  0
 19 20  2  0
  2 21  1  0
 21 22  2  0
 22 23  1  0
 23 24  2  0
 24 25  1  0
 25 26  2  0
 26 27  1  0
 27 28  2  0
 28 29  1  0
 29 30  2  0
 11  7  1  0
 20 14  1  0
 30 21  1  0
 29 24  1  0
  3 31  1  0
  4 32  1  0
  4 33  1  0
  8 34  1  0
  8 35  1  0
  9 36  1  0
  9 37  1  0
 10 38  1  0
 10 39  1  0
 11 40  1  6
 12 41  1  0
 12 42  1  0
 13 43  1  0
 16 44  1  0
 19 45  1  0
 22 46  1  0
 23 47  1  0
 25 48  1  0
 26 49  1  0
 27 50  1  0
 28 51  1  0
M  END
>  <smiles>  (37) 
O=C(NCC(=O)N1CCC[C@H]1CNc1ncc(Cl)cn1)c1ccc2ccccc2n1

>  <score_type>  (37) 
oracle

>  <origin>  (37) 
autodockgpu

>  <m_score__min__energy>  (37) 
-8.8699999999999992

>  <m_primary>  (37) 
energy

>  <rmsd>  (37) 
3.915573906693833

>  <m_score__min__rmsd>  (37) 
3.915573906693833

>  <meeko>  (37) 
{"free_energy": -6.87, "intermolecular_energy": -8.96, "internal_energy": -3.06, "cluster_size": 1, "cluster_id": 12, "rank_in_cluster": 1}

>  <energy>  (37) 
-7.04

>  <cluster_rmsd>  (37) 
0.0

>  <cluster>  (37) 
10

$$$$

     RDKit          3D

 51 54  0  0  0  0  0  0  0  0999 V2000
  137.1840   76.6230  222.3460 O   0  0  0  0  0  0  0  0  0  0  0  0
  138.4530   76.6380  222.3520 C   0  0  0  0  0  0  0  0  0  0  0  0
  139.2360   75.5090  221.9870 N   0  0  0  0  0  0  0  0  0  0  0  0
  138.6390   74.2640  221.5840 C   0  0  0  0  0  0  0  0  0  0  0  0
  139.6210   73.1630  221.7900 C   0  0  0  0  0  0  0  0  0  0  0  0
  140.7320   73.5110  222.3060 O   0  0  0  0  0  0  0  0  0  0  0  0
  139.3330   71.8190  221.4330 N   0  0  0  0  0  0  0  0  0  0  0  0
  140.0940   71.0860  220.4090 C   0  0  0  0  0  0  0  0  0  0  0  0
  139.3080   69.7910  220.2160 C   0  0  0  0  0  0  0  0  0  0  0  0
  138.8220   69.5860  221.6570 C   0  0  0  0  0  0  0  0  0  0  0  0
  138.3060   70.9750  221.9730 C   0  0  1  0  0  0  0  0  0  0  0  0
  138.0720   71.1290  223.4470 C   0  0  0  0  0  0  0  0  0  0  0  0
  139.3840   71.3770  224.0630 N   0  0  0  0  0  0  0  0  0  0  0  0
  139.8010   70.6070  225.1870 C   0  0  0  0  0  0  0  0  0  0  0  0
  139.6240   69.2800  225.2620 N   0  0  0  0  0  0  0  0  0  0  0  0
  140.0020   68.5160  226.3020 C   0  0  0  0  0  0  0  0  0  0  0  0
  140.6170   69.1150  227.3750 C   0  0  0  0  0  0  0  0  0  0  0  0
  141.1160   68.1430  228.7350 Cl  0  0  0  0  0  0  0  0  0  0  0  0
  140.8110   70.4870  227.3180 C   0  0  0  0  0  0  0  0  0  0  0  0
  140.4100   71.1980  226.2500 N   0  0  0  0  0  0  0  0  0  0  0  0
  139.1460   77.8800  222.7530 C   0  0  0  0  0  0  0  0  0  0  0  0
  138.4180   78.9750  223.1610 C   0  0  0  0  0  0  0  0  0  0  0  0
  139.1170   80.1260  223.5320 C   0  0  0  0  0  0  0  0  0  0  0  0
  140.5080   80.1560  223.4860 C   0  0  0  0  0  0  0  0  0  0  0  0
  141.2120   81.2910  223.8510 C   0  0  0  0  0  0  0  0  0  0  0  0
  142.5920   81.2840  223.7940 C   0  0  0  0  0  0  0  0  0  0  0  0
  143.2750   80.1580  223.3780 C   0  0  0  0  0  0  0  0  0  0  0  0
  142.5690   79.0130  223.0090 C   0  0  0  0  0  0  0  0  0  0  0  0
  141.1850   79.0490  223.0770 C   0  0  0  0  0  0  0  0  0  0  0  0
  140.5030   77.9470  222.7230 N   0  0  0  0  0  0  0  0  0  0  0  0
  140.2800   75.6150  222.0220 H   0  0  0  0  0  0  0  0  0  0  0  0
  137.7401   74.0737  222.1888 H   0  0  0  0  0  0  0  0  0  0  0  0
  138.3570   74.3150  220.5220 H   0  0  0  0  0  0  0  0  0  0  0  0
  140.1387   71.6590  219.4711 H   0  0  0  0  0  0  0  0  0  0  0  0
  141.1374   70.9059  220.7070 H   0  0  0  0  0  0  0  0  0  0  0  0
  138.4715   69.9174  219.5130 H   0  0  0  0  0  0  0  0  0  0  0  0
  139.8761   68.9533  219.7854 H   0  0  0  0  0  0  0  0  0  0  0  0
  138.0221   68.8329  221.7128 H   0  0  0  0  0  0  0  0  0  0  0  0
  139.5891   69.2124  222.3513 H   0  0  0  0  0  0  0  0  0  0  0  0
  137.3252   71.2211  221.5400 H   0  0  0  0  0  0  0  0  0  0  0  0
  137.3984   71.9777  223.6366 H   0  0  0  0  0  0  0  0  0  0  0  0
  137.6029   70.2275  223.8680 H   0  0  0  0  0  0  0  0  0  0  0  0
  140.0380   72.1000  223.7160 H   0  0  0  0  0  0  0  0  0  0  0  0
  139.8221   67.4308  226.2940 H   0  0  0  0  0  0  0  0  0  0  0  0
  141.3000   71.0008  228.1588 H   0  0  0  0  0  0  0  0  0  0  0  0
  137.3189   78.9444  223.1938 H   0  0  0  0  0  0  0  0  0  0  0  0
  138.5633   81.0168  223.8635 H   0  0  0  0  0  0  0  0  0  0  0  0
  140.6760   82.1920  224.1840 H   0  0  0  0  0  0  0  0  0  0  0  0
  143.1531   82.1849  224.0831 H   0  0  0  0  0  0  0  0  0  0  0  0
  144.3742   80.1641  223.3377 H   0  0  0  0  0  0  0  0  0  0  0  0
  143.0955   78.1073  222.6736 H   0  0  0  0  0  0  0  0  0  0  0  0
  1  2  2  0
  2  3  1  0
  3  4  1  0
  4  5  1  0
  5  6  2  0
  5  7  1  0
  7  8  1  0
  8  9  1  0
  9 10  1  0
 10 11  1  0
 11 12  1  0
 12 13  1  0
 13 14  1  0
 14 15  2  0
 15 16  1  0
 16 17  2  0
 17 18  1  0
 17 19  1  0
 19 20  2  0
  2 21  1  0
 21 22  2  0
 22 23  1  0
 23 24  2  0
 24 25  1  0
 25 26  2  0
 26 27  1  0
 27 28  2  0
 28 29  1  0
 29 30  2  0
 11  7  1  0
 20 14  1  0
 30 21  1  0
 29 24  1  0
  3 31  1  0
  4 32  1  0
  4 33  1  0
  8 34  1  0
  8 35  1  0
  9 36  1  0
  9 37  1  0
 10 38  1  0
 10 39  1  0
 11 40  1  6
 12 41  1  0
 12 42  1  0
 13 43  1  0
 16 44  1  0
 19 45  1  0
 22 46  1  0
 23 47  1  0
 25 48  1  0
 26 49  1  0
 27 50  1  0
 28 51  1  0
M  END
>  <smiles>  (38) 
O=C(NCC(=O)N1CCC[C@H]1CNc1ncc(Cl)cn1)c1ccc2ccccc2n1

>  <score_type>  (38) 
oracle

>  <origin>  (38) 
autodockgpu

>  <m_score__min__energy>  (38) 
-8.8699999999999992

>  <m_primary>  (38) 
energy

>  <rmsd>  (38) 
8.19360309844562

>  <m_score__min__rmsd>  (38) 
8.19360309844562

>  <meeko>  (38) 
{"free_energy": -7.72, "intermolecular_energy": -9.8, "internal_energy": -2.76, "cluster_size": 10, "cluster_id": 4, "rank_in_cluster": 6}

>  <energy>  (38) 
-6.85

>  <cluster_rmsd>  (38) 
1.99

>  <cluster>  (38) 
10

$$$$

     RDKit          3D

 51 54  0  0  0  0  0  0  0  0999 V2000
  140.0750   74.5910  222.2290 O   0  0  0  0  0  0  0  0  0  0  0  0
  140.1690   75.5960  221.4600 C   0  0  0  0  0  0  0  0  0  0  0  0
  140.2080   75.4790  220.0440 N   0  0  0  0  0  0  0  0  0  0  0  0
  140.1430   74.2030  219.3820 C   0  0  0  0  0  0  0  0  0  0  0  0
  141.4820   73.8800  218.8140 C   0  0  0  0  0  0  0  0  0  0  0  0
  141.6580   74.2220  217.6000 O   0  0  0  0  0  0  0  0  0  0  0  0
  142.4900   73.2340  219.5780 N   0  0  0  0  0  0  0  0  0  0  0  0
  142.6430   71.7710  219.6200 C   0  0  0  0  0  0  0  0  0  0  0  0
  143.6850   71.5360  220.7110 C   0  0  0  0  0  0  0  0  0  0  0  0
  144.5550   72.7800  220.4870 C   0  0  0  0  0  0  0  0  0  0  0  0
  143.4860   73.8520  220.4050 C   0  0  1  0  0  0  0  0  0  0  0  0
  144.0590   75.1270  219.8590 C   0  0  0  0  0  0  0  0  0  0  0  0
  143.0670   76.1820  220.1130 N   0  0  0  0  0  0  0  0  0  0  0  0
  142.6840   77.0690  219.0650 C   0  0  0  0  0  0  0  0  0  0  0  0
  143.2560   77.0480  217.8530 N   0  0  0  0  0  0  0  0  0  0  0  0
  142.9260   77.8650  216.8380 C   0  0  0  0  0  0  0  0  0  0  0  0
  141.9340   78.7970  217.0330 C   0  0  0  0  0  0  0  0  0  0  0  0
  141.4900   79.8660  215.7290 Cl  0  0  0  0  0  0  0  0  0  0  0  0
  141.3280   78.8350  218.2790 C   0  0  0  0  0  0  0  0  0  0  0  0
  141.7020   77.9910  219.2560 N   0  0  0  0  0  0  0  0  0  0  0  0
  140.2400   76.9450  222.0600 C   0  0  0  0  0  0  0  0  0  0  0  0
  139.0910   77.5610  222.5060 C   0  0  0  0  0  0  0  0  0  0  0  0
  139.2070   78.8360  223.0660 C   0  0  0  0  0  0  0  0  0  0  0  0
  140.4500   79.4560  223.1650 C   0  0  0  0  0  0  0  0  0  0  0  0
  140.5760   80.7190  223.7190 C   0  0  0  0  0  0  0  0  0  0  0  0
  141.8250   81.3030  223.8010 C   0  0  0  0  0  0  0  0  0  0  0  0
  142.9460   80.6410  223.3390 C   0  0  0  0  0  0  0  0  0  0  0  0
  142.8210   79.3700  222.7810 C   0  0  0  0  0  0  0  0  0  0  0  0
  141.5560   78.8080  222.7120 C   0  0  0  0  0  0  0  0  0  0  0  0
  141.4340   77.5820  222.1750 N   0  0  0  0  0  0  0  0  0  0  0  0
  140.2860   76.3650  219.4880 H   0  0  0  0  0  0  0  0  0  0  0  0
  139.8528   73.4269  220.1056 H   0  0  0  0  0  0  0  0  0  0  0  0
  139.3973   74.2420  218.5743 H   0  0  0  0  0  0  0  0  0  0  0  0
  141.6903   71.2861  219.8792 H   0  0  0  0  0  0  0  0  0  0  0  0
  142.9458   71.3504  218.6497 H   0  0  0  0  0  0  0  0  0  0  0  0
  143.2351   71.5231  221.7147 H   0  0  0  0  0  0  0  0  0  0  0  0
  144.2149   70.5735  220.6586 H   0  0  0  0  0  0  0  0  0  0  0  0
  145.2406   72.9534  221.3296 H   0  0  0  0  0  0  0  0  0  0  0  0
  145.2177   72.7248  219.6108 H   0  0  0  0  0  0  0  0  0  0  0  0
  143.0589   74.1655  221.3690 H   0  0  0  0  0  0  0  0  0  0  0  0
  145.0044   75.3658  220.3681 H   0  0  0  0  0  0  0  0  0  0  0  0
  144.2711   75.0355  218.7835 H   0  0  0  0  0  0  0  0  0  0  0  0
  142.6190   76.3200  221.0360 H   0  0  0  0  0  0  0  0  0  0  0  0
  143.4403   77.7894  215.8686 H   0  0  0  0  0  0  0  0  0  0  0  0
  140.5293   79.5666  218.4711 H   0  0  0  0  0  0  0  0  0  0  0  0
  138.1129   77.0645  222.4238 H   0  0  0  0  0  0  0  0  0  0  0  0
  138.3085   79.3545  223.4319 H   0  0  0  0  0  0  0  0  0  0  0  0
  139.6888   81.2526  224.0906 H   0  0  0  0  0  0  0  0  0  0  0  0
  141.9282   82.3067  224.2392 H   0  0  0  0  0  0  0  0  0  0  0  0
  143.9355   81.1161  223.4114 H   0  0  0  0  0  0  0  0  0  0  0  0
  143.7017   78.8281  222.4059 H   0  0  0  0  0  0  0  0  0  0  0  0
  1  2  2  0
  2  3  1  0
  3  4  1  0
  4  5  1  0
  5  6  2  0
  5  7  1  0
  7  8  1  0
  8  9  1  0
  9 10  1  0
 10 11  1  0
 11 12  1  0
 12 13  1  0
 13 14  1  0
 14 15  2  0
 15 16  1  0
 16 17  2  0
 17 18  1  0
 17 19  1  0
 19 20  2  0
  2 21  1  0
 21 22  2  0
 22 23  1  0
 23 24  2  0
 24 25  1  0
 25 26  2  0
 26 27  1  0
 27 28  2  0
 28 29  1  0
 29 30  2  0
 11  7  1  0
 20 14  1  0
 30 21  1  0
 29 24  1  0
  3 31  1  0
  4 32  1  0
  4 33  1  0
  8 34  1  0
  8 35  1  0
  9 36  1  0
  9 37  1  0
 10 38  1  0
 10 39  1  0
 11 40  1  1
 12 41  1  0
 12 42  1  0
 13 43  1  0
 16 44  1  0
 19 45  1  0
 22 46  1  0
 23 47  1  0
 25 48  1  0
 26 49  1  0
 27 50  1  0
 28 51  1  0
M  END
>  <smiles>  (39) 
O=C(NCC(=O)N1CCC[C@H]1CNc1ncc(Cl)cn1)c1ccc2ccccc2n1

>  <score_type>  (39) 
oracle

>  <origin>  (39) 
autodockgpu

>  <m_score__min__energy>  (39) 
-8.8699999999999992

>  <m_primary>  (39) 
energy

>  <rmsd>  (39) 
7.375484520097053

>  <m_score__min__rmsd>  (39) 
7.375484520097053

>  <meeko>  (39) 
{"free_energy": -6.53, "intermolecular_energy": -8.62, "internal_energy": -3.78, "cluster_size": 9, "cluster_id": 10, "rank_in_cluster": 7}

>  <energy>  (39) 
-6.65

>  <cluster_rmsd>  (39) 
1.16

>  <cluster>  (39) 
10

$$$$

     RDKit          3D

 51 54  0  0  0  0  0  0  0  0999 V2000
  140.7730   71.4140  221.2920 O   0  0  0  0  0  0  0  0  0  0  0  0
  140.2700   72.0120  222.2920 C   0  0  0  0  0  0  0  0  0  0  0  0
  139.8070   73.3550  222.2310 N   0  0  0  0  0  0  0  0  0  0  0  0
  139.8770   74.1320  221.0230 C   0  0  0  0  0  0  0  0  0  0  0  0
  140.5030   75.4490  221.3270 C   0  0  0  0  0  0  0  0  0  0  0  0
  140.2020   75.9490  222.4590 O   0  0  0  0  0  0  0  0  0  0  0  0
  141.3750   76.0990  220.4130 N   0  0  0  0  0  0  0  0  0  0  0  0
  141.2500   77.5250  220.0700 C   0  0  0  0  0  0  0  0  0  0  0  0
  142.2340   77.7180  218.9180 C   0  0  0  0  0  0  0  0  0  0  0  0
  143.3220   76.7300  219.3600 C   0  0  0  0  0  0  0  0  0  0  0  0
  142.4730   75.5200  219.6950 C   0  0  1  0  0  0  0  0  0  0  0  0
  143.2730   74.5120  220.4690 C   0  0  0  0  0  0  0  0  0  0  0  0
  144.2850   73.9740  219.5480 N   0  0  0  0  0  0  0  0  0  0  0  0
  144.5070   72.5690  219.4730 C   0  0  0  0  0  0  0  0  0  0  0  0
  143.6570   71.6730  219.9950 N   0  0  0  0  0  0  0  0  0  0  0  0
  143.8270   70.3400  219.9470 C   0  0  0  0  0  0  0  0  0  0  0  0
  144.9430   69.8360  219.3240 C   0  0  0  0  0  0  0  0  0  0  0  0
  145.1830   68.1100  219.2500 Cl  0  0  0  0  0  0  0  0  0  0  0  0
  145.8350   70.7460  218.7760 C   0  0  0  0  0  0  0  0  0  0  0  0
  145.6110   72.0690  218.8560 N   0  0  0  0  0  0  0  0  0  0  0  0
  140.1590   71.2840  223.5730 C   0  0  0  0  0  0  0  0  0  0  0  0
  139.5740   70.0370  223.6090 C   0  0  0  0  0  0  0  0  0  0  0  0
  139.4920   69.3860  224.8430 C   0  0  0  0  0  0  0  0  0  0  0  0
  139.9890   69.9880  225.9960 C   0  0  0  0  0  0  0  0  0  0  0  0
  139.9130   69.3530  227.2230 C   0  0  0  0  0  0  0  0  0  0  0  0
  140.4180   69.9810  228.3460 C   0  0  0  0  0  0  0  0  0  0  0  0
  140.9950   71.2320  228.2560 C   0  0  0  0  0  0  0  0  0  0  0  0
  141.0720   71.8740  227.0200 C   0  0  0  0  0  0  0  0  0  0  0  0
  140.5590   71.2210  225.9110 C   0  0  0  0  0  0  0  0  0  0  0  0
  140.6330   71.8370  224.7200 N   0  0  0  0  0  0  0  0  0  0  0  0
  139.4050   73.7670  223.1090 H   0  0  0  0  0  0  0  0  0  0  0  0
  140.4842   73.5989  220.2766 H   0  0  0  0  0  0  0  0  0  0  0  0
  138.8643   74.2864  220.6221 H   0  0  0  0  0  0  0  0  0  0  0  0
  140.2241   77.7616  219.7512 H   0  0  0  0  0  0  0  0  0  0  0  0
  141.4641   78.1851  220.9235 H   0  0  0  0  0  0  0  0  0  0  0  0
  141.7938   77.4398  217.9491 H   0  0  0  0  0  0  0  0  0  0  0  0
  142.5730   78.7517  218.7549 H   0  0  0  0  0  0  0  0  0  0  0  0
  144.0316   76.5163  218.5471 H   0  0  0  0  0  0  0  0  0  0  0  0
  143.9591   77.0862  220.1829 H   0  0  0  0  0  0  0  0  0  0  0  0
  142.1168   74.9421  218.8295 H   0  0  0  0  0  0  0  0  0  0  0  0
  143.7616   74.9953  221.3279 H   0  0  0  0  0  0  0  0  0  0  0  0
  142.6275   73.7105  220.8575 H   0  0  0  0  0  0  0  0  0  0  0  0
  144.8620   74.5770  218.9340 H   0  0  0  0  0  0  0  0  0  0  0  0
  143.0854   69.6647  220.3987 H   0  0  0  0  0  0  0  0  0  0  0  0
  146.7394   70.3795  218.2683 H   0  0  0  0  0  0  0  0  0  0  0  0
  139.1833   69.5679  222.6940 H   0  0  0  0  0  0  0  0  0  0  0  0
  139.0308   68.3892  224.9039 H   0  0  0  0  0  0  0  0  0  0  0  0
  139.4544   68.3565  227.3041 H   0  0  0  0  0  0  0  0  0  0  0  0
  140.3595   69.4783  229.3226 H   0  0  0  0  0  0  0  0  0  0  0  0
  141.3931   71.7214  229.1571 H   0  0  0  0  0  0  0  0  0  0  0  0
  141.5274   72.8711  226.9284 H   0  0  0  0  0  0  0  0  0  0  0  0
  1  2  2  0
  2  3  1  0
  3  4  1  0
  4  5  1  0
  5  6  2  0
  5  7  1  0
  7  8  1  0
  8  9  1  0
  9 10  1  0
 10 11  1  0
 11 12  1  0
 12 13  1  0
 13 14  1  0
 14 15  2  0
 15 16  1  0
 16 17  2  0
 17 18  1  0
 17 19  1  0
 19 20  2  0
  2 21  1  0
 21 22  2  0
 22 23  1  0
 23 24  2  0
 24 25  1  0
 25 26  2  0
 26 27  1  0
 27 28  2  0
 28 29  1  0
 29 30  2  0
 11  7  1  0
 20 14  1  0
 30 21  1  0
 29 24  1  0
  3 31  1  0
  4 32  1  0
  4 33  1  0
  8 34  1  0
  8 35  1  0
  9 36  1  0
  9 37  1  0
 10 38  1  0
 10 39  1  0
 11 40  1  6
 12 41  1  0
 12 42  1  0
 13 43  1  0
 16 44  1  0
 19 45  1  0
 22 46  1  0
 23 47  1  0
 25 48  1  0
 26 49  1  0
 27 50  1  0
 28 51  1  0
M  END
>  <smiles>  (40) 
O=C(NCC(=O)N1CCC[C@H]1CNc1ncc(Cl)cn1)c1ccc2ccccc2n1

>  <score_type>  (40) 
oracle

>  <origin>  (40) 
autodockgpu

>  <m_score__min__energy>  (40) 
-8.8699999999999992

>  <m_primary>  (40) 
energy

>  <rmsd>  (40) 
2.736293484523195

>  <m_score__min__rmsd>  (40) 
2.736293484523195

>  <meeko>  (40) 
{"free_energy": -8.87, "intermolecular_energy": -10.96, "internal_energy": -1.8, "cluster_size": 6, "cluster_id": 1, "rank_in_cluster": 1}

>  <energy>  (40) 
-6.64

>  <cluster_rmsd>  (40) 
1.13

>  <cluster>  (40) 
10

$$$$

     RDKit          3D

 51 54  0  0  0  0  0  0  0  0999 V2000
  138.9410   75.1030  222.3310 O   0  0  0  0  0  0  0  0  0  0  0  0
  140.0450   75.6960  222.1340 C   0  0  0  0  0  0  0  0  0  0  0  0
  141.1840   75.0390  221.5930 N   0  0  0  0  0  0  0  0  0  0  0  0
  141.1620   73.6480  221.2310 C   0  0  0  0  0  0  0  0  0  0  0  0
  141.8080   73.4800  219.8990 C   0  0  0  0  0  0  0  0  0  0  0  0
  141.1120   73.8580  218.9020 O   0  0  0  0  0  0  0  0  0  0  0  0
  143.1120   72.9360  219.7560 N   0  0  0  0  0  0  0  0  0  0  0  0
  143.3710   71.6550  219.0790 C   0  0  0  0  0  0  0  0  0  0  0  0
  144.8480   71.3790  219.3550 C   0  0  0  0  0  0  0  0  0  0  0  0
  145.3720   72.8210  219.3330 C   0  0  0  0  0  0  0  0  0  0  0  0
  144.3470   73.4990  220.2210 C   0  0  1  0  0  0  0  0  0  0  0  0
  144.4470   74.9920  220.0970 C   0  0  0  0  0  0  0  0  0  0  0  0
  143.4810   75.3990  219.0660 N   0  0  0  0  0  0  0  0  0  0  0  0
  143.0260   76.7480  219.0070 C   0  0  0  0  0  0  0  0  0  0  0  0
  143.3020   77.5610  217.9770 N   0  0  0  0  0  0  0  0  0  0  0  0
  142.8930   78.8390  217.8820 C   0  0  0  0  0  0  0  0  0  0  0  0
  142.1380   79.3710  218.8990 C   0  0  0  0  0  0  0  0  0  0  0  0
  141.5980   81.0260  218.7960 Cl  0  0  0  0  0  0  0  0  0  0  0  0
  141.8410   78.5470  219.9740 C   0  0  0  0  0  0  0  0  0  0  0  0
  142.2780   77.2760  220.0130 N   0  0  0  0  0  0  0  0  0  0  0  0
  140.1530   77.1290  222.4780 C   0  0  0  0  0  0  0  0  0  0  0  0
  139.0170   77.9030  222.5720 C   0  0  0  0  0  0  0  0  0  0  0  0
  139.1680   79.2520  222.9010 C   0  0  0  0  0  0  0  0  0  0  0  0
  140.4330   79.7900  223.1250 C   0  0  0  0  0  0  0  0  0  0  0  0
  140.5950   81.1250  223.4510 C   0  0  0  0  0  0  0  0  0  0  0  0
  141.8660   81.6240  223.6670 C   0  0  0  0  0  0  0  0  0  0  0  0
  142.9720   80.8040  223.5620 C   0  0  0  0  0  0  0  0  0  0  0  0
  142.8120   79.4590  223.2330 C   0  0  0  0  0  0  0  0  0  0  0  0
  141.5260   78.9860  223.0220 C   0  0  0  0  0  0  0  0  0  0  0  0
  141.3700   77.6900  222.7050 N   0  0  0  0  0  0  0  0  0  0  0  0
  142.0550   75.6110  221.4640 H   0  0  0  0  0  0  0  0  0  0  0  0
  141.7115   73.0630  221.9832 H   0  0  0  0  0  0  0  0  0  0  0  0
  140.1216   73.2936  221.1854 H   0  0  0  0  0  0  0  0  0  0  0  0
  142.7399   70.8574  219.4980 H   0  0  0  0  0  0  0  0  0  0  0  0
  143.1425   71.6923  218.0036 H   0  0  0  0  0  0  0  0  0  0  0  0
  145.0019   70.8995  220.3329 H   0  0  0  0  0  0  0  0  0  0  0  0
  145.3383   70.6876  218.6539 H   0  0  0  0  0  0  0  0  0  0  0  0
  146.3854   72.8916  219.7549 H   0  0  0  0  0  0  0  0  0  0  0  0
  145.4703   73.2585  218.3285 H   0  0  0  0  0  0  0  0  0  0  0  0
  144.4755   73.3307  221.3004 H   0  0  0  0  0  0  0  0  0  0  0  0
  144.1997   75.4690  221.0569 H   0  0  0  0  0  0  0  0  0  0  0  0
  145.4678   75.2976  219.8237 H   0  0  0  0  0  0  0  0  0  0  0  0
  143.1020   74.7410  218.3620 H   0  0  0  0  0  0  0  0  0  0  0  0
  143.1585   79.4476  217.0050 H   0  0  0  0  0  0  0  0  0  0  0  0
  141.2390   78.9389  220.8071 H   0  0  0  0  0  0  0  0  0  0  0  0
  138.0211   77.4715  222.3933 H   0  0  0  0  0  0  0  0  0  0  0  0
  138.2797   79.8954  222.9840 H   0  0  0  0  0  0  0  0  0  0  0  0
  139.7188   81.7844  223.5377 H   0  0  0  0  0  0  0  0  0  0  0  0
  141.9976   82.6851  223.9252 H   0  0  0  0  0  0  0  0  0  0  0  0
  143.9784   81.2118  223.7378 H   0  0  0  0  0  0  0  0  0  0  0  0
  143.6817   78.7915  223.1433 H   0  0  0  0  0  0  0  0  0  0  0  0
  1  2  2  0
  2  3  1  0
  3  4  1  0
  4  5  1  0
  5  6  2  0
  5  7  1  0
  7  8  1  0
  8  9  1  0
  9 10  1  0
 10 11  1  0
 11 12  1  0
 12 13  1  0
 13 14  1  0
 14 15  2  0
 15 16  1  0
 16 17  2  0
 17 18  1  0
 17 19  1  0
 19 20  2  0
  2 21  1  0
 21 22  2  0
 22 23  1  0
 23 24  2  0
 24 25  1  0
 25 26  2  0
 26 27  1  0
 27 28  2  0
 28 29  1  0
 29 30  2  0
 11  7  1  0
 20 14  1  0
 30 21  1  0
 29 24  1  0
  3 31  1  0
  4 32  1  0
  4 33  1  0
  8 34  1  0
  8 35  1  0
  9 36  1  0
  9 37  1  0
 10 38  1  0
 10 39  1  0
 11 40  1  1
 12 41  1  0
 12 42  1  0
 13 43  1  0
 16 44  1  0
 19 45  1  0
 22 46  1  0
 23 47  1  0
 25 48  1  0
 26 49  1  0
 27 50  1  0
 28 51  1  0
M  END
>  <smiles>  (41) 
O=C(NCC(=O)N1CCC[C@H]1CNc1ncc(Cl)cn1)c1ccc2ccccc2n1

>  <score_type>  (41) 
oracle

>  <origin>  (41) 
autodockgpu

>  <m_score__min__energy>  (41) 
-8.8699999999999992

>  <m_primary>  (41) 
energy

>  <rmsd>  (41) 
7.642705452929594

>  <m_score__min__rmsd>  (41) 
7.642705452929594

>  <meeko>  (41) 
{"free_energy": -6.65, "intermolecular_energy": -8.74, "internal_energy": -3.46, "cluster_size": 9, "cluster_id": 10, "rank_in_cluster": 3}

>  <energy>  (41) 
-6.57

>  <cluster_rmsd>  (41) 
1.19

>  <cluster>  (41) 
10

$$$$

     RDKit          3D

 51 54  0  0  0  0  0  0  0  0999 V2000
  138.5820   72.0070  221.5720 O   0  0  0  0  0  0  0  0  0  0  0  0
  139.5670   72.1460  222.3600 C   0  0  0  0  0  0  0  0  0  0  0  0
  140.6870   72.9670  222.0520 N   0  0  0  0  0  0  0  0  0  0  0  0
  140.7790   73.7010  220.8180 C   0  0  0  0  0  0  0  0  0  0  0  0
  139.6740   74.6980  220.7600 C   0  0  0  0  0  0  0  0  0  0  0  0
  138.7380   74.4310  219.9390 O   0  0  0  0  0  0  0  0  0  0  0  0
  139.6700   75.8680  221.5670 N   0  0  0  0  0  0  0  0  0  0  0  0
  140.7650   76.8510  221.5500 C   0  0  0  0  0  0  0  0  0  0  0  0
  140.4350   77.7950  222.7050 C   0  0  0  0  0  0  0  0  0  0  0  0
  138.9040   77.7730  222.6060 C   0  0  0  0  0  0  0  0  0  0  0  0
  138.6570   76.2810  222.4950 C   0  0  1  0  0  0  0  0  0  0  0  0
  137.2480   76.0110  222.0550 C   0  0  0  0  0  0  0  0  0  0  0  0
  137.0260   74.5650  222.2020 N   0  0  0  0  0  0  0  0  0  0  0  0
  136.1740   74.0740  223.2330 C   0  0  0  0  0  0  0  0  0  0  0  0
  135.5090   74.8840  224.0690 N   0  0  0  0  0  0  0  0  0  0  0  0
  134.6960   74.4640  225.0550 C   0  0  0  0  0  0  0  0  0  0  0  0
  134.5190   73.1130  225.2370 C   0  0  0  0  0  0  0  0  0  0  0  0
  133.4690   72.5470  226.5090 Cl  0  0  0  0  0  0  0  0  0  0  0  0
  135.1970   72.2580  224.3820 C   0  0  0  0  0  0  0  0  0  0  0  0
  135.9980   72.7380  223.4140 N   0  0  0  0  0  0  0  0  0  0  0  0
  139.5520   71.4280  223.6510 C   0  0  0  0  0  0  0  0  0  0  0  0
  138.7890   70.2900  223.7980 C   0  0  0  0  0  0  0  0  0  0  0  0
  138.8070   69.6440  225.0370 C   0  0  0  0  0  0  0  0  0  0  0  0
  139.5750   70.1440  226.0860 C   0  0  0  0  0  0  0  0  0  0  0  0
  139.6000   69.5120  227.3170 C   0  0  0  0  0  0  0  0  0  0  0  0
  140.3740   70.0360  228.3350 C   0  0  0  0  0  0  0  0  0  0  0  0
  141.1210   71.1810  228.1350 C   0  0  0  0  0  0  0  0  0  0  0  0
  141.0970   71.8190  226.8950 C   0  0  0  0  0  0  0  0  0  0  0  0
  140.3120   71.2700  225.8930 C   0  0  0  0  0  0  0  0  0  0  0  0
  140.2890   71.8840  224.6980 N   0  0  0  0  0  0  0  0  0  0  0  0
  141.4550   73.0230  222.7650 H   0  0  0  0  0  0  0  0  0  0  0  0
  141.7471   74.2210  220.7701 H   0  0  0  0  0  0  0  0  0  0  0  0
  140.6976   73.0079  219.9677 H   0  0  0  0  0  0  0  0  0  0  0  0
  141.7349   76.3583  221.7131 H   0  0  0  0  0  0  0  0  0  0  0  0
  140.8475   77.3750  220.5864 H   0  0  0  0  0  0  0  0  0  0  0  0
  140.7912   77.4056  223.6701 H   0  0  0  0  0  0  0  0  0  0  0  0
  140.8977   78.7913  222.6476 H   0  0  0  0  0  0  0  0  0  0  0  0
  138.4326   78.1971  223.5048 H   0  0  0  0  0  0  0  0  0  0  0  0
  138.4889   78.3695  221.7803 H   0  0  0  0  0  0  0  0  0  0  0  0
  138.7330   75.7196  223.4379 H   0  0  0  0  0  0  0  0  0  0  0  0
  136.5408   76.5687  222.6865 H   0  0  0  0  0  0  0  0  0  0  0  0
  137.0919   76.3302  221.0139 H   0  0  0  0  0  0  0  0  0  0  0  0
  137.4670   73.8640  221.5800 H   0  0  0  0  0  0  0  0  0  0  0  0
  134.1821   75.1885  225.7039 H   0  0  0  0  0  0  0  0  0  0  0  0
  135.0781   71.1705  224.4970 H   0  0  0  0  0  0  0  0  0  0  0  0
  138.1841   69.9018  222.9653 H   0  0  0  0  0  0  0  0  0  0  0  0
  138.2094   68.7325  225.1852 H   0  0  0  0  0  0  0  0  0  0  0  0
  139.0085   68.5997  227.4838 H   0  0  0  0  0  0  0  0  0  0  0  0
  140.3955   69.5363  229.3147 H   0  0  0  0  0  0  0  0  0  0  0  0
  141.7337   71.5888  228.9525 H   0  0  0  0  0  0  0  0  0  0  0  0
  141.6843   72.7319  226.7172 H   0  0  0  0  0  0  0  0  0  0  0  0
  1  2  2  0
  2  3  1  0
  3  4  1  0
  4  5  1  0
  5  6  2  0
  5  7  1  0
  7  8  1  0
  8  9  1  0
  9 10  1  0
 10 11  1  0
 11 12  1  0
 12 13  1  0
 13 14  1  0
 14 15  2  0
 15 16  1  0
 16 17  2  0
 17 18  1  0
 17 19  1  0
 19 20  2  0
  2 21  1  0
 21 22  2  0
 22 23  1  0
 23 24  2  0
 24 25  1  0
 25 26  2  0
 26 27  1  0
 27 28  2  0
 28 29  1  0
 29 30  2  0
 11  7  1  0
 20 14  1  0
 30 21  1  0
 29 24  1  0
  3 31  1  0
  4 32  1  0
  4 33  1  0
  8 34  1  0
  8 35  1  0
  9 36  1  0
  9 37  1  0
 10 38  1  0
 10 39  1  0
 11 40  1  1
 12 41  1  0
 12 42  1  0
 13 43  1  0
 16 44  1  0
 19 45  1  0
 22 46  1  0
 23 47  1  0
 25 48  1  0
 26 49  1  0
 27 50  1  0
 28 51  1  0
M  END
>  <smiles>  (42) 
O=C(NCC(=O)N1CCC[C@H]1CNc1ncc(Cl)cn1)c1ccc2ccccc2n1

>  <score_type>  (42) 
oracle

>  <origin>  (42) 
autodockgpu

>  <m_score__min__energy>  (42) 
-8.8699999999999992

>  <m_primary>  (42) 
energy

>  <rmsd>  (42) 
3.4466154658388413

>  <m_score__min__rmsd>  (42) 
3.4466154658388413

>  <meeko>  (42) 
{"free_energy": -6.48, "intermolecular_energy": -8.57, "internal_energy": -3.48, "cluster_size": 2, "cluster_id": 6, "rank_in_cluster": 2}

>  <energy>  (42) 
-6.54

>  <cluster_rmsd>  (42) 
1.26

>  <cluster>  (42) 
10

$$$$

     RDKit          3D

 51 54  0  0  0  0  0  0  0  0999 V2000
  140.0510   74.5660  222.2700 O   0  0  0  0  0  0  0  0  0  0  0  0
  140.1550   75.5690  221.4990 C   0  0  0  0  0  0  0  0  0  0  0  0
  140.1990   75.4470  220.0830 N   0  0  0  0  0  0  0  0  0  0  0  0
  140.1270   74.1710  219.4240 C   0  0  0  0  0  0  0  0  0  0  0  0
  141.4450   73.8720  218.7950 C   0  0  0  0  0  0  0  0  0  0  0  0
  141.5820   74.2750  217.5950 O   0  0  0  0  0  0  0  0  0  0  0  0
  142.4740   73.1830  219.4920 N   0  0  0  0  0  0  0  0  0  0  0  0
  142.6180   71.7190  219.4560 C   0  0  0  0  0  0  0  0  0  0  0  0
  143.6960   71.4260  220.4970 C   0  0  0  0  0  0  0  0  0  0  0  0
  144.5660   72.6750  220.3040 C   0  0  0  0  0  0  0  0  0  0  0  0
  143.5030   73.7550  220.3120 C   0  0  1  0  0  0  0  0  0  0  0  0
  144.0650   75.0530  219.8100 C   0  0  0  0  0  0  0  0  0  0  0  0
  143.0640   76.0900  220.1000 N   0  0  0  0  0  0  0  0  0  0  0  0
  142.6880   77.0210  219.0890 C   0  0  0  0  0  0  0  0  0  0  0  0
  143.2540   77.0400  217.8740 N   0  0  0  0  0  0  0  0  0  0  0  0
  142.9300   77.9000  216.8930 C   0  0  0  0  0  0  0  0  0  0  0  0
  141.9500   78.8350  217.1280 C   0  0  0  0  0  0  0  0  0  0  0  0
  141.5130   79.9590  215.8680 Cl  0  0  0  0  0  0  0  0  0  0  0  0
  141.3500   78.8320  218.3780 C   0  0  0  0  0  0  0  0  0  0  0  0
  141.7180   77.9470  219.3200 N   0  0  0  0  0  0  0  0  0  0  0  0
  140.2330   76.9180  222.0950 C   0  0  0  0  0  0  0  0  0  0  0  0
  139.0900   77.5370  222.5520 C   0  0  0  0  0  0  0  0  0  0  0  0
  139.2130   78.8120  223.1090 C   0  0  0  0  0  0  0  0  0  0  0  0
  140.4570   79.4320  223.1940 C   0  0  0  0  0  0  0  0  0  0  0  0
  140.5900   80.6960  223.7430 C   0  0  0  0  0  0  0  0  0  0  0  0
  141.8410   81.2790  223.8110 C   0  0  0  0  0  0  0  0  0  0  0  0
  142.9560   80.6160  223.3380 C   0  0  0  0  0  0  0  0  0  0  0  0
  142.8240   79.3430  222.7840 C   0  0  0  0  0  0  0  0  0  0  0  0
  141.5580   78.7820  222.7290 C   0  0  0  0  0  0  0  0  0  0  0  0
  141.4290   77.5560  222.1960 N   0  0  0  0  0  0  0  0  0  0  0  0
  140.2860   76.3320  219.5250 H   0  0  0  0  0  0  0  0  0  0  0  0
  139.8841   73.3898  220.1593 H   0  0  0  0  0  0  0  0  0  0  0  0
  139.3447   74.1966  218.6511 H   0  0  0  0  0  0  0  0  0  0  0  0
  141.6717   71.2267  219.7244 H   0  0  0  0  0  0  0  0  0  0  0  0
  142.8834   71.3450  218.4561 H   0  0  0  0  0  0  0  0  0  0  0  0
  143.2812   71.3660  221.5140 H   0  0  0  0  0  0  0  0  0  0  0  0
  144.2175   70.4647  220.3787 H   0  0  0  0  0  0  0  0  0  0  0  0
  145.2815   72.8032  221.1296 H   0  0  0  0  0  0  0  0  0  0  0  0
  145.1973   72.6595  219.4034 H   0  0  0  0  0  0  0  0  0  0  0  0
  143.1123   74.0235  221.3046 H   0  0  0  0  0  0  0  0  0  0  0  0
  145.0085   75.2823  220.3270 H   0  0  0  0  0  0  0  0  0  0  0  0
  144.2777   75.0003  218.7320 H   0  0  0  0  0  0  0  0  0  0  0  0
  142.6060   76.1850  221.0240 H   0  0  0  0  0  0  0  0  0  0  0  0
  143.4400   77.8564  215.9194 H   0  0  0  0  0  0  0  0  0  0  0  0
  140.5610   79.5650  218.6020 H   0  0  0  0  0  0  0  0  0  0  0  0
  138.1103   77.0421  222.4804 H   0  0  0  0  0  0  0  0  0  0  0  0
  138.3187   79.3313  223.4840 H   0  0  0  0  0  0  0  0  0  0  0  0
  139.7072   81.2317  224.1219 H   0  0  0  0  0  0  0  0  0  0  0  0
  141.9498   82.2830  224.2471 H   0  0  0  0  0  0  0  0  0  0  0  0
  143.9464   81.0909  223.3980 H   0  0  0  0  0  0  0  0  0  0  0  0
  143.7004   78.7994  222.4013 H   0  0  0  0  0  0  0  0  0  0  0  0
  1  2  2  0
  2  3  1  0
  3  4  1  0
  4  5  1  0
  5  6  2  0
  5  7  1  0
  7  8  1  0
  8  9  1  0
  9 10  1  0
 10 11  1  0
 11 12  1  0
 12 13  1  0
 13 14  1  0
 14 15  2  0
 15 16  1  0
 16 17  2  0
 17 18  1  0
 17 19  1  0
 19 20  2  0
  2 21  1  0
 21 22  2  0
 22 23  1  0
 23 24  2  0
 24 25  1  0
 25 26  2  0
 26 27  1  0
 27 28  2  0
 28 29  1  0
 29 30  2  0
 11  7  1  0
 20 14  1  0
 30 21  1  0
 29 24  1  0
  3 31  1  0
  4 32  1  0
  4 33  1  0
  8 34  1  0
  8 35  1  0
  9 36  1  0
  9 37  1  0
 10 38  1  0
 10 39  1  0
 11 40  1  1
 12 41  1  0
 12 42  1  0
 13 43  1  0
 16 44  1  0
 19 45  1  0
 22 46  1  0
 23 47  1  0
 25 48  1  0
 26 49  1  0
 27 50  1  0
 28 51  1  0
M  END
>  <smiles>  (43) 
O=C(NCC(=O)N1CCC[C@H]1CNc1ncc(Cl)cn1)c1ccc2ccccc2n1

>  <score_type>  (43) 
oracle

>  <origin>  (43) 
autodockgpu

>  <m_score__min__energy>  (43) 
-8.8699999999999992

>  <m_primary>  (43) 
energy

>  <rmsd>  (43) 
7.362368706933809

>  <m_score__min__rmsd>  (43) 
7.362368706933809

>  <meeko>  (43) 
{"free_energy": -6.54, "intermolecular_energy": -8.63, "internal_energy": -3.76, "cluster_size": 9, "cluster_id": 10, "rank_in_cluster": 6}

>  <energy>  (43) 
-6.53

>  <cluster_rmsd>  (43) 
1.26

>  <cluster>  (43) 
10

$$$$

     RDKit          3D

 51 54  0  0  0  0  0  0  0  0999 V2000
  140.9980   71.3150  221.3810 O   0  0  0  0  0  0  0  0  0  0  0  0
  140.4320   71.9000  222.3540 C   0  0  0  0  0  0  0  0  0  0  0  0
  140.0050   73.2550  222.2910 N   0  0  0  0  0  0  0  0  0  0  0  0
  140.1860   74.0590  221.1120 C   0  0  0  0  0  0  0  0  0  0  0  0
  140.1000   75.4980  221.4860 C   0  0  0  0  0  0  0  0  0  0  0  0
  139.8200   75.7310  222.7060 O   0  0  0  0  0  0  0  0  0  0  0  0
  140.3150   76.5370  220.5420 N   0  0  0  0  0  0  0  0  0  0  0  0
  139.8910   76.4370  219.1360 C   0  0  0  0  0  0  0  0  0  0  0  0
  140.5130   77.6640  218.4720 C   0  0  0  0  0  0  0  0  0  0  0  0
  140.4050   78.6530  219.6400 C   0  0  0  0  0  0  0  0  0  0  0  0
  140.9510   77.8030  220.7700 C   0  0  1  0  0  0  0  0  0  0  0  0
  140.6470   78.4330  222.0980 C   0  0  0  0  0  0  0  0  0  0  0  0
  139.2110   78.2360  222.3440 N   0  0  0  0  0  0  0  0  0  0  0  0
  138.4780   79.1960  223.1000 C   0  0  0  0  0  0  0  0  0  0  0  0
  139.0730   80.1450  223.8360 N   0  0  0  0  0  0  0  0  0  0  0  0
  138.4210   81.0690  224.5640 C   0  0  0  0  0  0  0  0  0  0  0  0
  137.0470   81.0600  224.5680 C   0  0  0  0  0  0  0  0  0  0  0  0
  136.1810   82.2500  225.5040 Cl  0  0  0  0  0  0  0  0  0  0  0  0
  136.4110   80.0870  223.8110 C   0  0  0  0  0  0  0  0  0  0  0  0
  137.1180   79.1890  223.1040 N   0  0  0  0  0  0  0  0  0  0  0  0
  140.2060   71.1450  223.6040 C   0  0  0  0  0  0  0  0  0  0  0  0
  139.5480   69.9350  223.5680 C   0  0  0  0  0  0  0  0  0  0  0  0
  139.3590   69.2570  224.7750 C   0  0  0  0  0  0  0  0  0  0  0  0
  139.8230   69.7960  225.9720 C   0  0  0  0  0  0  0  0  0  0  0  0
  139.6410   69.1320  227.1730 C   0  0  0  0  0  0  0  0  0  0  0  0
  140.1160   69.6970  228.3410 C   0  0  0  0  0  0  0  0  0  0  0  0
  140.7700   70.9140  228.3220 C   0  0  0  0  0  0  0  0  0  0  0  0
  140.9550   71.5840  227.1130 C   0  0  0  0  0  0  0  0  0  0  0  0
  140.4680   70.9930  225.9570 C   0  0  0  0  0  0  0  0  0  0  0  0
  140.6460   71.6370  224.7920 N   0  0  0  0  0  0  0  0  0  0  0  0
  139.5450   73.6560  223.1450 H   0  0  0  0  0  0  0  0  0  0  0  0
  141.1725   73.8510  220.6721 H   0  0  0  0  0  0  0  0  0  0  0  0
  139.4039   73.8197  220.3764 H   0  0  0  0  0  0  0  0  0  0  0  0
  140.2699   75.5111  218.6786 H   0  0  0  0  0  0  0  0  0  0  0  0
  138.7970   76.4060  219.0258 H   0  0  0  0  0  0  0  0  0  0  0  0
  141.5579   77.4875  218.1768 H   0  0  0  0  0  0  0  0  0  0  0  0
  140.0358   77.9864  217.5348 H   0  0  0  0  0  0  0  0  0  0  0  0
  141.0200   79.5494  219.4718 H   0  0  0  0  0  0  0  0  0  0  0  0
  139.3944   79.0517  219.8122 H   0  0  0  0  0  0  0  0  0  0  0  0
  142.0456   77.6961  220.7914 H   0  0  0  0  0  0  0  0  0  0  0  0
  141.2367   77.9489  222.8904 H   0  0  0  0  0  0  0  0  0  0  0  0
  140.9034   79.5027  222.0948 H   0  0  0  0  0  0  0  0  0  0  0  0
  138.6890   77.4150  221.9890 H   0  0  0  0  0  0  0  0  0  0  0  0
  138.9777   81.8184  225.1457 H   0  0  0  0  0  0  0  0  0  0  0  0
  135.3118   80.0499  223.7891 H   0  0  0  0  0  0  0  0  0  0  0  0
  139.1829   69.5159  222.6188 H   0  0  0  0  0  0  0  0  0  0  0  0
  138.8385   68.2879  224.7796 H   0  0  0  0  0  0  0  0  0  0  0  0
  139.1223   68.1623  227.1973 H   0  0  0  0  0  0  0  0  0  0  0  0
  139.9719   69.1720  229.2968 H   0  0  0  0  0  0  0  0  0  0  0  0
  141.1439   71.3534  229.2585 H   0  0  0  0  0  0  0  0  0  0  0  0
  141.4726   72.5539  227.0774 H   0  0  0  0  0  0  0  0  0  0  0  0
  1  2  2  0
  2  3  1  0
  3  4  1  0
  4  5  1  0
  5  6  2  0
  5  7  1  0
  7  8  1  0
  8  9  1  0
  9 10  1  0
 10 11  1  0
 11 12  1  0
 12 13  1  0
 13 14  1  0
 14 15  2  0
 15 16  1  0
 16 17  2  0
 17 18  1  0
 17 19  1  0
 19 20  2  0
  2 21  1  0
 21 22  2  0
 22 23  1  0
 23 24  2  0
 24 25  1  0
 25 26  2  0
 26 27  1  0
 27 28  2  0
 28 29  1  0
 29 30  2  0
 11  7  1  0
 20 14  1  0
 30 21  1  0
 29 24  1  0
  3 31  1  0
  4 32  1  0
  4 33  1  0
  8 34  1  0
  8 35  1  0
  9 36  1  0
  9 37  1  0
 10 38  1  0
 10 39  1  0
 11 40  1  6
 12 41  1  0
 12 42  1  0
 13 43  1  0
 16 44  1  0
 19 45  1  0
 22 46  1  0
 23 47  1  0
 25 48  1  0
 26 49  1  0
 27 50  1  0
 28 51  1  0
M  END
>  <smiles>  (44) 
O=C(NCC(=O)N1CCC[C@H]1CNc1ncc(Cl)cn1)c1ccc2ccccc2n1

>  <score_type>  (44) 
oracle

>  <origin>  (44) 
autodockgpu

>  <m_score__min__energy>  (44) 
-8.8699999999999992

>  <m_primary>  (44) 
energy

>  <rmsd>  (44) 
1.749201060418808

>  <m_score__min__rmsd>  (44) 
1.749201060418808

>  <meeko>  (44) 
{"free_energy": -7.25, "intermolecular_energy": -9.34, "internal_energy": -2.37, "cluster_size": 1, "cluster_id": 8, "rank_in_cluster": 1}

>  <energy>  (44) 
-6.42

>  <cluster_rmsd>  (44) 
1.89

>  <cluster>  (44) 
10

$$$$

     RDKit          3D

 51 54  0  0  0  0  0  0  0  0999 V2000
  137.8900   69.8550  221.8330 O   0  0  0  0  0  0  0  0  0  0  0  0
  138.2490   70.7500  222.6580 C   0  0  0  0  0  0  0  0  0  0  0  0
  138.1250   72.1400  222.3840 N   0  0  0  0  0  0  0  0  0  0  0  0
  137.5820   72.6280  221.1450 C   0  0  0  0  0  0  0  0  0  0  0  0
  136.2080   73.1500  221.3870 C   0  0  0  0  0  0  0  0  0  0  0  0
  135.3380   72.8220  220.5170 O   0  0  0  0  0  0  0  0  0  0  0  0
  135.8950   73.9590  222.5120 N   0  0  0  0  0  0  0  0  0  0  0  0
  135.4370   73.3990  223.7930 C   0  0  0  0  0  0  0  0  0  0  0  0
  135.0260   74.6240  224.6090 C   0  0  0  0  0  0  0  0  0  0  0  0
  136.0730   75.6200  224.0950 C   0  0  0  0  0  0  0  0  0  0  0  0
  135.9630   75.3900  222.6010 C   0  0  1  0  0  0  0  0  0  0  0  0
  137.1240   76.0140  221.8840 C   0  0  0  0  0  0  0  0  0  0  0  0
  138.3180   75.7550  222.7010 N   0  0  0  0  0  0  0  0  0  0  0  0
  139.5280   75.3270  222.0810 C   0  0  0  0  0  0  0  0  0  0  0  0
  139.9790   74.0670  222.1660 N   0  0  0  0  0  0  0  0  0  0  0  0
  141.1130   73.6210  221.5980 C   0  0  0  0  0  0  0  0  0  0  0  0
  141.8810   74.5000  220.8730 C   0  0  0  0  0  0  0  0  0  0  0  0
  143.3550   73.9420  220.1270 Cl  0  0  0  0  0  0  0  0  0  0  0  0
  141.4320   75.8080  220.7700 C   0  0  0  0  0  0  0  0  0  0  0  0
  140.2880   76.1950  221.3620 N   0  0  0  0  0  0  0  0  0  0  0  0
  138.8160   70.3340  223.9570 C   0  0  0  0  0  0  0  0  0  0  0  0
  138.6750   69.0320  224.3860 C   0  0  0  0  0  0  0  0  0  0  0  0
  139.2290   68.6840  225.6200 C   0  0  0  0  0  0  0  0  0  0  0  0
  139.9010   69.6320  226.3870 C   0  0  0  0  0  0  0  0  0  0  0  0
  140.4540   69.2990  227.6120 C   0  0  0  0  0  0  0  0  0  0  0  0
  141.1150   70.2660  228.3450 C   0  0  0  0  0  0  0  0  0  0  0  0
  141.2290   71.5570  227.8700 C   0  0  0  0  0  0  0  0  0  0  0  0
  140.6730   71.8950  226.6360 C   0  0  0  0  0  0  0  0  0  0  0  0
  140.0160   70.9050  225.9220 C   0  0  0  0  0  0  0  0  0  0  0  0
  139.4810   71.2290  224.7340 N   0  0  0  0  0  0  0  0  0  0  0  0
  138.4470   72.8080  223.1260 H   0  0  0  0  0  0  0  0  0  0  0  0
  138.2196   73.4356  220.7561 H   0  0  0  0  0  0  0  0  0  0  0  0
  137.5438   71.8107  220.4097 H   0  0  0  0  0  0  0  0  0  0  0  0
  134.5805   72.7257  223.6410 H   0  0  0  0  0  0  0  0  0  0  0  0
  136.2117   72.7990  224.2928 H   0  0  0  0  0  0  0  0  0  0  0  0
  134.0006   74.9481  224.3778 H   0  0  0  0  0  0  0  0  0  0  0  0
  135.0064   74.4802  225.6994 H   0  0  0  0  0  0  0  0  0  0  0  0
  135.8169   76.6547  224.3665 H   0  0  0  0  0  0  0  0  0  0  0  0
  137.0827   75.4774  224.5076 H   0  0  0  0  0  0  0  0  0  0  0  0
  135.0934   75.8573  222.1157 H   0  0  0  0  0  0  0  0  0  0  0  0
  137.2413   75.5616  220.8882 H   0  0  0  0  0  0  0  0  0  0  0  0
  136.9676   77.0940  221.7457 H   0  0  0  0  0  0  0  0  0  0  0  0
  138.3290   75.8700  223.7290 H   0  0  0  0  0  0  0  0  0  0  0  0
  141.4206   72.5710  221.7117 H   0  0  0  0  0  0  0  0  0  0  0  0
  142.0198   76.5394  220.1960 H   0  0  0  0  0  0  0  0  0  0  0  0
  138.1420   68.2889  223.7747 H   0  0  0  0  0  0  0  0  0  0  0  0
  139.1336   67.6522  225.9890 H   0  0  0  0  0  0  0  0  0  0  0  0
  140.3678   68.2728  227.9986 H   0  0  0  0  0  0  0  0  0  0  0  0
  141.5555   70.0040  229.3183 H   0  0  0  0  0  0  0  0  0  0  0  0
  141.7573   72.3178  228.4633 H   0  0  0  0  0  0  0  0  0  0  0  0
  140.7537   72.9183  226.2407 H   0  0  0  0  0  0  0  0  0  0  0  0
  1  2  2  0
  2  3  1  0
  3  4  1  0
  4  5  1  0
  5  6  2  0
  5  7  1  0
  7  8  1  0
  8  9  1  0
  9 10  1  0
 10 11  1  0
 11 12  1  0
 12 13  1  0
 13 14  1  0
 14 15  2  0
 15 16  1  0
 16 17  2  0
 17 18  1  0
 17 19  1  0
 19 20  2  0
  2 21  1  0
 21 22  2  0
 22 23  1  0
 23 24  2  0
 24 25  1  0
 25 26  2  0
 26 27  1  0
 27 28  2  0
 28 29  1  0
 29 30  2  0
 11  7  1  0
 20 14  1  0
 30 21  1  0
 29 24  1  0
  3 31  1  0
  4 32  1  0
  4 33  1  0
  8 34  1  0
  8 35  1  0
  9 36  1  0
  9 37  1  0
 10 38  1  0
 10 39  1  0
 11 40  1  6
 12 41  1  0
 12 42  1  0
 13 43  1  0
 16 44  1  0
 19 45  1  0
 22 46  1  0
 23 47  1  0
 25 48  1  0
 26 49  1  0
 27 50  1  0
 28 51  1  0
M  END
>  <smiles>  (45) 
O=C(NCC(=O)N1CCC[C@H]1CNc1ncc(Cl)cn1)c1ccc2ccccc2n1

>  <score_type>  (45) 
oracle

>  <origin>  (45) 
autodockgpu

>  <m_score__min__energy>  (45) 
-8.8699999999999992

>  <m_primary>  (45) 
energy

>  <rmsd>  (45) 
4.4125579850296415

>  <m_score__min__rmsd>  (45) 
4.4125579850296415

>  <meeko>  (45) 
{"free_energy": -7.42, "intermolecular_energy": -9.5, "internal_energy": -2.74, "cluster_size": 2, "cluster_id": 7, "rank_in_cluster": 1}

>  <energy>  (45) 
-6.23

>  <cluster_rmsd>  (45) 
1.81

>  <cluster>  (45) 
10

$$$$

     RDKit          3D

 51 54  0  0  0  0  0  0  0  0999 V2000
  137.3020   76.3850  222.0380 O   0  0  0  0  0  0  0  0  0  0  0  0
  138.5640   76.4360  222.1650 C   0  0  0  0  0  0  0  0  0  0  0  0
  139.4090   75.3270  221.8880 N   0  0  0  0  0  0  0  0  0  0  0  0
  138.8870   74.0620  221.4430 C   0  0  0  0  0  0  0  0  0  0  0  0
  139.8410   72.9810  221.8190 C   0  0  0  0  0  0  0  0  0  0  0  0
  140.9200   73.3720  222.3700 O   0  0  0  0  0  0  0  0  0  0  0  0
  139.5610   71.6100  221.5760 N   0  0  0  0  0  0  0  0  0  0  0  0
  140.4250   70.7560  220.7460 C   0  0  0  0  0  0  0  0  0  0  0  0
  139.6310   69.4590  220.5950 C   0  0  0  0  0  0  0  0  0  0  0  0
  138.9600   69.4240  221.9740 C   0  0  0  0  0  0  0  0  0  0  0  0
  138.4490   70.8480  222.0670 C   0  0  1  0  0  0  0  0  0  0  0  0
  138.0340   71.1690  223.4730 C   0  0  0  0  0  0  0  0  0  0  0  0
  139.2570   71.5240  224.2080 N   0  0  0  0  0  0  0  0  0  0  0  0
  139.6980   70.7130  225.2930 C   0  0  0  0  0  0  0  0  0  0  0  0
  140.3290   71.2160  226.3640 N   0  0  0  0  0  0  0  0  0  0  0  0
  140.7610   70.4890  227.4090 C   0  0  0  0  0  0  0  0  0  0  0  0
  140.5520   69.1300  227.4010 C   0  0  0  0  0  0  0  0  0  0  0  0
  141.1040   68.1670  228.7460 Cl  0  0  0  0  0  0  0  0  0  0  0  0
  139.9010   68.5890  226.3030 C   0  0  0  0  0  0  0  0  0  0  0  0
  139.4920   69.3690  225.2870 N   0  0  0  0  0  0  0  0  0  0  0  0
  139.1820   77.7000  222.6160 C   0  0  0  0  0  0  0  0  0  0  0  0
  138.3920   78.7230  223.0920 C   0  0  0  0  0  0  0  0  0  0  0  0
  139.0210   79.8980  223.5080 C   0  0  0  0  0  0  0  0  0  0  0  0
  140.4060   80.0230  223.4410 C   0  0  0  0  0  0  0  0  0  0  0  0
  141.0400   81.1830  223.8510 C   0  0  0  0  0  0  0  0  0  0  0  0
  142.4170   81.2710  223.7700 C   0  0  0  0  0  0  0  0  0  0  0  0
  143.1640   80.2150  223.2860 C   0  0  0  0  0  0  0  0  0  0  0  0
  142.5270   79.0450  222.8720 C   0  0  0  0  0  0  0  0  0  0  0  0
  141.1460   78.9850  222.9650 C   0  0  0  0  0  0  0  0  0  0  0  0
  140.5310   77.8590  222.5670 N   0  0  0  0  0  0  0  0  0  0  0  0
  140.4410   75.4610  222.0200 H   0  0  0  0  0  0  0  0  0  0  0  0
  137.9136   73.8767  221.9207 H   0  0  0  0  0  0  0  0  0  0  0  0
  138.7574   74.0783  220.3508 H   0  0  0  0  0  0  0  0  0  0  0  0
  140.6061   71.2196  219.7651 H   0  0  0  0  0  0  0  0  0  0  0  0
  141.4163   70.5948  221.1947 H   0  0  0  0  0  0  0  0  0  0  0  0
  138.8948   69.5190  219.7799 H   0  0  0  0  0  0  0  0  0  0  0  0
  140.2241   68.5696  220.3356 H   0  0  0  0  0  0  0  0  0  0  0  0
  138.1377   68.6942  222.0074 H   0  0  0  0  0  0  0  0  0  0  0  0
  139.6211   69.1188  222.7985 H   0  0  0  0  0  0  0  0  0  0  0  0
  137.5391   71.0597  221.4863 H   0  0  0  0  0  0  0  0  0  0  0  0
  137.3314   72.0154  223.4763 H   0  0  0  0  0  0  0  0  0  0  0  0
  137.5285   70.3110  223.9403 H   0  0  0  0  0  0  0  0  0  0  0  0
  139.8310   72.3530  223.9730 H   0  0  0  0  0  0  0  0  0  0  0  0
  141.2721   70.9723  228.2547 H   0  0  0  0  0  0  0  0  0  0  0  0
  139.7163   67.5054  226.2624 H   0  0  0  0  0  0  0  0  0  0  0  0
  137.2983   78.6174  223.1429 H   0  0  0  0  0  0  0  0  0  0  0  0
  138.4166   80.7329  223.8923 H   0  0  0  0  0  0  0  0  0  0  0  0
  140.4525   82.0284  224.2384 H   0  0  0  0  0  0  0  0  0  0  0  0
  142.9234   82.1920  224.0945 H   0  0  0  0  0  0  0  0  0  0  0  0
  144.2594   80.2963  223.2270 H   0  0  0  0  0  0  0  0  0  0  0  0
  143.1050   78.1939  222.4826 H   0  0  0  0  0  0  0  0  0  0  0  0
  1  2  2  0
  2  3  1  0
  3  4  1  0
  4  5  1  0
  5  6  2  0
  5  7  1  0
  7  8  1  0
  8  9  1  0
  9 10  1  0
 10 11  1  0
 11 12  1  0
 12 13  1  0
 13 14  1  0
 14 15  2  0
 15 16  1  0
 16 17  2  0
 17 18  1  0
 17 19  1  0
 19 20  2  0
  2 21  1  0
 21 22  2  0
 22 23  1  0
 23 24  2  0
 24 25  1  0
 25 26  2  0
 26 27  1  0
 27 28  2  0
 28 29  1  0
 29 30  2  0
 11  7  1  0
 20 14  1  0
 30 21  1  0
 29 24  1  0
  3 31  1  0
  4 32  1  0
  4 33  1  0
  8 34  1  0
  8 35  1  0
  9 36  1  0
  9 37  1  0
 10 38  1  0
 10 39  1  0
 11 40  1  6
 12 41  1  0
 12 42  1  0
 13 43  1  0
 16 44  1  0
 19 45  1  0
 22 46  1  0
 23 47  1  0
 25 48  1  0
 26 49  1  0
 27 50  1  0
 28 51  1  0
M  END
>  <smiles>  (46) 
O=C(NCC(=O)N1CCC[C@H]1CNc1ncc(Cl)cn1)c1ccc2ccccc2n1

>  <score_type>  (46) 
oracle

>  <origin>  (46) 
autodockgpu

>  <m_score__min__energy>  (46) 
-8.8699999999999992

>  <m_primary>  (46) 
energy

>  <rmsd>  (46) 
8.196393072886986

>  <m_score__min__rmsd>  (46) 
8.196393072886986

>  <meeko>  (46) 
{"free_energy": -7.76, "intermolecular_energy": -9.85, "internal_energy": -2.77, "cluster_size": 10, "cluster_id": 4, "rank_in_cluster": 4}

>  <energy>  (46) 
-6.98

>  <cluster_rmsd>  (46) 
0.0

>  <cluster>  (46) 
11

$$$$

     RDKit          3D

 51 54  0  0  0  0  0  0  0  0999 V2000
  141.5950   72.4370  221.5990 O   0  0  0  0  0  0  0  0  0  0  0  0
  140.6130   72.6430  222.3750 C   0  0  0  0  0  0  0  0  0  0  0  0
  139.8440   73.8380  222.3410 N   0  0  0  0  0  0  0  0  0  0  0  0
  140.1290   74.9030  221.4170 C   0  0  0  0  0  0  0  0  0  0  0  0
  139.6030   76.1820  221.9700 C   0  0  0  0  0  0  0  0  0  0  0  0
  138.4960   76.0940  222.5940 O   0  0  0  0  0  0  0  0  0  0  0  0
  140.2920   77.4140  221.8100 N   0  0  0  0  0  0  0  0  0  0  0  0
  140.6800   78.2650  222.9460 C   0  0  0  0  0  0  0  0  0  0  0  0
  141.1850   79.5500  222.2940 C   0  0  0  0  0  0  0  0  0  0  0  0
  141.8230   78.9480  221.0350 C   0  0  0  0  0  0  0  0  0  0  0  0
  140.7130   78.0230  220.5800 C   0  0  1  0  0  0  0  0  0  0  0  0
  141.2180   77.0640  219.5410 C   0  0  0  0  0  0  0  0  0  0  0  0
  142.6360   76.8200  219.8400 N   0  0  0  0  0  0  0  0  0  0  0  0
  143.1600   75.4960  219.7850 C   0  0  0  0  0  0  0  0  0  0  0  0
  144.2770   75.1310  220.4300 N   0  0  0  0  0  0  0  0  0  0  0  0
  144.8050   73.8950  220.4050 C   0  0  0  0  0  0  0  0  0  0  0  0
  144.1720   72.9190  219.6730 C   0  0  0  0  0  0  0  0  0  0  0  0
  144.8390   71.3080  219.6270 Cl  0  0  0  0  0  0  0  0  0  0  0  0
  143.0140   73.2750  218.9980 C   0  0  0  0  0  0  0  0  0  0  0  0
  142.5340   74.5290  219.0610 N   0  0  0  0  0  0  0  0  0  0  0  0
  140.2500   71.5980  223.3550 C   0  0  0  0  0  0  0  0  0  0  0  0
  139.5440   70.4870  222.9480 C   0  0  0  0  0  0  0  0  0  0  0  0
  139.2250   69.5250  223.9100 C   0  0  0  0  0  0  0  0  0  0  0  0
  139.6130   69.6930  225.2370 C   0  0  0  0  0  0  0  0  0  0  0  0
  139.3020   68.7460  226.1980 C   0  0  0  0  0  0  0  0  0  0  0  0
  139.7040   68.9460  227.5050 C   0  0  0  0  0  0  0  0  0  0  0  0
  140.4110   70.0780  227.8600 C   0  0  0  0  0  0  0  0  0  0  0  0
  140.7250   71.0330  226.8940 C   0  0  0  0  0  0  0  0  0  0  0  0
  140.3090   70.8060  225.5910 C   0  0  0  0  0  0  0  0  0  0  0  0
  140.6120   71.7250  224.6590 N   0  0  0  0  0  0  0  0  0  0  0  0
  139.0480   73.9200  223.0210 H   0  0  0  0  0  0  0  0  0  0  0  0
  141.2164   74.9839  221.2723 H   0  0  0  0  0  0  0  0  0  0  0  0
  139.6494   74.6925  220.4497 H   0  0  0  0  0  0  0  0  0  0  0  0
  139.8148   78.4698  223.5938 H   0  0  0  0  0  0  0  0  0  0  0  0
  141.4373   77.7919  223.5883 H   0  0  0  0  0  0  0  0  0  0  0  0
  140.3630   80.2391  222.0503 H   0  0  0  0  0  0  0  0  0  0  0  0
  141.8539   80.1636  222.9153 H   0  0  0  0  0  0  0  0  0  0  0  0
  142.0431   79.7195  220.2824 H   0  0  0  0  0  0  0  0  0  0  0  0
  142.7918   78.4546  221.2025 H   0  0  0  0  0  0  0  0  0  0  0  0
  139.8692   78.5150  220.0741 H   0  0  0  0  0  0  0  0  0  0  0  0
  140.6533   76.1213  219.5898 H   0  0  0  0  0  0  0  0  0  0  0  0
  141.0940   77.4777  218.5293 H   0  0  0  0  0  0  0  0  0  0  0  0
  143.2940   77.5780  220.0960 H   0  0  0  0  0  0  0  0  0  0  0  0
  145.7271   73.6688  220.9604 H   0  0  0  0  0  0  0  0  0  0  0  0
  142.4804   72.5199  218.4021 H   0  0  0  0  0  0  0  0  0  0  0  0
  139.2408   70.3612  221.8981 H   0  0  0  0  0  0  0  0  0  0  0  0
  138.6622   68.6266  223.6165 H   0  0  0  0  0  0  0  0  0  0  0  0
  138.7394   67.8416  225.9233 H   0  0  0  0  0  0  0  0  0  0  0  0
  139.4582   68.1955  228.2708 H   0  0  0  0  0  0  0  0  0  0  0  0
  140.7259   70.2260  228.9035 H   0  0  0  0  0  0  0  0  0  0  0  0
  141.2870   71.9410  227.1581 H   0  0  0  0  0  0  0  0  0  0  0  0
  1  2  2  0
  2  3  1  0
  3  4  1  0
  4  5  1  0
  5  6  2  0
  5  7  1  0
  7  8  1  0
  8  9  1  0
  9 10  1  0
 10 11  1  0
 11 12  1  0
 12 13  1  0
 13 14  1  0
 14 15  2  0
 15 16  1  0
 16 17  2  0
 17 18  1  0
 17 19  1  0
 19 20  2  0
  2 21  1  0
 21 22  2  0
 22 23  1  0
 23 24  2  0
 24 25  1  0
 25 26  2  0
 26 27  1  0
 27 28  2  0
 28 29  1  0
 29 30  2  0
 11  7  1  0
 20 14  1  0
 30 21  1  0
 29 24  1  0
  3 31  1  0
  4 32  1  0
  4 33  1  0
  8 34  1  0
  8 35  1  0
  9 36  1  0
  9 37  1  0
 10 38  1  0
 10 39  1  0
 11 40  1  6
 12 41  1  0
 12 42  1  0
 13 43  1  0
 16 44  1  0
 19 45  1  0
 22 46  1  0
 23 47  1  0
 25 48  1  0
 26 49  1  0
 27 50  1  0
 28 51  1  0
M  END
>  <smiles>  (47) 
O=C(NCC(=O)N1CCC[C@H]1CNc1ncc(Cl)cn1)c1ccc2ccccc2n1

>  <score_type>  (47) 
oracle

>  <origin>  (47) 
autodockgpu

>  <m_score__min__energy>  (47) 
-8.8699999999999992

>  <m_primary>  (47) 
energy

>  <rmsd>  (47) 
3.0496454404204774

>  <m_score__min__rmsd>  (47) 
3.0496454404204774

>  <meeko>  (47) 
{"free_energy": -8.13, "intermolecular_energy": -10.22, "internal_energy": -2.1, "cluster_size": 6, "cluster_id": 1, "rank_in_cluster": 4}

>  <energy>  (47) 
-6.96

>  <cluster_rmsd>  (47) 
0.31

>  <cluster>  (47) 
11

$$$$

     RDKit          3D

 51 54  0  0  0  0  0  0  0  0999 V2000
  135.0070   68.4990  224.8840 O   0  0  0  0  0  0  0  0  0  0  0  0
  135.5160   69.6510  225.0470 C   0  0  0  0  0  0  0  0  0  0  0  0
  136.8570   69.9560  224.6860 N   0  0  0  0  0  0  0  0  0  0  0  0
  137.7340   68.9730  224.1090 C   0  0  0  0  0  0  0  0  0  0  0  0
  138.8700   68.7260  225.0400 C   0  0  0  0  0  0  0  0  0  0  0  0
  139.1830   67.5030  225.2090 O   0  0  0  0  0  0  0  0  0  0  0  0
  139.5530   69.7860  225.6950 N   0  0  0  0  0  0  0  0  0  0  0  0
  140.0280   69.6900  227.0840 C   0  0  0  0  0  0  0  0  0  0  0  0
  140.4930   71.1060  227.4170 C   0  0  0  0  0  0  0  0  0  0  0  0
  141.0330   71.5140  226.0410 C   0  0  0  0  0  0  0  0  0  0  0  0
  139.8870   71.0720  225.1530 C   0  0  1  0  0  0  0  0  0  0  0  0
  140.3080   71.0620  223.7130 C   0  0  0  0  0  0  0  0  0  0  0  0
  139.7610   72.2820  223.1010 N   0  0  0  0  0  0  0  0  0  0  0  0
  140.5710   73.0700  222.2340 C   0  0  0  0  0  0  0  0  0  0  0  0
  141.6220   72.5690  221.5690 N   0  0  0  0  0  0  0  0  0  0  0  0
  142.4120   73.2760  220.7420 C   0  0  0  0  0  0  0  0  0  0  0  0
  142.1430   74.6100  220.5490 C   0  0  0  0  0  0  0  0  0  0  0  0
  143.1540   75.5460  219.4800 Cl  0  0  0  0  0  0  0  0  0  0  0  0
  141.0600   75.1490  221.2260 C   0  0  0  0  0  0  0  0  0  0  0  0
  140.3060   74.3900  222.0410 N   0  0  0  0  0  0  0  0  0  0  0  0
  134.6810   70.7200  225.6330 C   0  0  0  0  0  0  0  0  0  0  0  0
  133.6480   70.3990  226.4860 C   0  0  0  0  0  0  0  0  0  0  0  0
  132.8870   71.4430  227.0160 C   0  0  0  0  0  0  0  0  0  0  0  0
  133.1710   72.7660  226.6860 C   0  0  0  0  0  0  0  0  0  0  0  0
  132.4240   73.8090  227.2050 C   0  0  0  0  0  0  0  0  0  0  0  0
  132.7350   75.1090  226.8560 C   0  0  0  0  0  0  0  0  0  0  0  0
  133.7820   75.3770  225.9960 C   0  0  0  0  0  0  0  0  0  0  0  0
  134.5360   74.3280  225.4710 C   0  0  0  0  0  0  0  0  0  0  0  0
  134.2020   73.0340  225.8400 C   0  0  0  0  0  0  0  0  0  0  0  0
  134.9280   72.0230  225.3350 N   0  0  0  0  0  0  0  0  0  0  0  0
  137.1910   70.9360  224.8560 H   0  0  0  0  0  0  0  0  0  0  0  0
  137.1808   68.0362  223.9464 H   0  0  0  0  0  0  0  0  0  0  0  0
  138.1178   69.3393  223.1454 H   0  0  0  0  0  0  0  0  0  0  0  0
  139.2136   69.3785  227.7546 H   0  0  0  0  0  0  0  0  0  0  0  0
  140.8266   68.9435  227.2066 H   0  0  0  0  0  0  0  0  0  0  0  0
  139.6601   71.7480  227.7396 H   0  0  0  0  0  0  0  0  0  0  0  0
  141.2099   71.1843  228.2476 H   0  0  0  0  0  0  0  0  0  0  0  0
  141.2018   72.5990  225.9763 H   0  0  0  0  0  0  0  0  0  0  0  0
  142.0085   71.0760  225.7829 H   0  0  0  0  0  0  0  0  0  0  0  0
  139.0113   71.7377  225.1489 H   0  0  0  0  0  0  0  0  0  0  0  0
  141.4055   71.0610  223.6395 H   0  0  0  0  0  0  0  0  0  0  0  0
  139.9365   70.1628  223.1998 H   0  0  0  0  0  0  0  0  0  0  0  0
  138.7930   72.6090  223.2700 H   0  0  0  0  0  0  0  0  0  0  0  0
  143.2583   72.7955  220.2292 H   0  0  0  0  0  0  0  0  0  0  0  0
  140.8137   76.2130  221.0947 H   0  0  0  0  0  0  0  0  0  0  0  0
  133.4292   69.3518  226.7419 H   0  0  0  0  0  0  0  0  0  0  0  0
  132.0556   71.2185  227.7004 H   0  0  0  0  0  0  0  0  0  0  0  0
  131.5885   73.6043  227.8906 H   0  0  0  0  0  0  0  0  0  0  0  0
  132.1425   75.9395  227.2674 H   0  0  0  0  0  0  0  0  0  0  0  0
  134.0207   76.4162  225.7257 H   0  0  0  0  0  0  0  0  0  0  0  0
  135.3724   74.5218  224.7833 H   0  0  0  0  0  0  0  0  0  0  0  0
  1  2  2  0
  2  3  1  0
  3  4  1  0
  4  5  1  0
  5  6  2  0
  5  7  1  0
  7  8  1  0
  8  9  1  0
  9 10  1  0
 10 11  1  0
 11 12  1  0
 12 13  1  0
 13 14  1  0
 14 15  2  0
 15 16  1  0
 16 17  2  0
 17 18  1  0
 17 19  1  0
 19 20  2  0
  2 21  1  0
 21 22  2  0
 22 23  1  0
 23 24  2  0
 24 25  1  0
 25 26  2  0
 26 27  1  0
 27 28  2  0
 28 29  1  0
 29 30  2  0
 11  7  1  0
 20 14  1  0
 30 21  1  0
 29 24  1  0
  3 31  1  0
  4 32  1  0
  4 33  1  0
  8 34  1  0
  8 35  1  0
  9 36  1  0
  9 37  1  0
 10 38  1  0
 10 39  1  0
 11 40  1  6
 12 41  1  0
 12 42  1  0
 13 43  1  0
 16 44  1  0
 19 45  1  0
 22 46  1  0
 23 47  1  0
 25 48  1  0
 26 49  1  0
 27 50  1  0
 28 51  1  0
M  END
>  <smiles>  (48) 
O=C(NCC(=O)N1CCC[C@H]1CNc1ncc(Cl)cn1)c1ccc2ccccc2n1

>  <score_type>  (48) 
oracle

>  <origin>  (48) 
autodockgpu

>  <m_score__min__energy>  (48) 
-8.8699999999999992

>  <m_primary>  (48) 
energy

>  <rmsd>  (48) 
7.901637037448268

>  <m_score__min__rmsd>  (48) 
7.901637037448268

>  <meeko>  (48) 
{"free_energy": -8.77, "intermolecular_energy": -10.86, "internal_energy": -1.47, "cluster_size": 2, "cluster_id": 2, "rank_in_cluster": 1}

>  <energy>  (48) 
-6.91

>  <cluster_rmsd>  (48) 
0.1

>  <cluster>  (48) 
11

$$$$

     RDKit          3D

 51 54  0  0  0  0  0  0  0  0999 V2000
  140.2410   73.4430  222.3320 O   0  0  0  0  0  0  0  0  0  0  0  0
  140.3300   72.1770  222.3120 C   0  0  0  0  0  0  0  0  0  0  0  0
  140.5820   71.4440  221.1200 N   0  0  0  0  0  0  0  0  0  0  0  0
  140.7540   72.0920  219.8470 C   0  0  0  0  0  0  0  0  0  0  0  0
  142.1920   72.0400  219.4640 C   0  0  0  0  0  0  0  0  0  0  0  0
  142.5290   71.0510  218.7360 O   0  0  0  0  0  0  0  0  0  0  0  0
  143.1220   73.0280  219.8850 N   0  0  0  0  0  0  0  0  0  0  0  0
  144.5760   72.8030  219.8930 C   0  0  0  0  0  0  0  0  0  0  0  0
  145.1390   74.0280  220.6110 C   0  0  0  0  0  0  0  0  0  0  0  0
  144.1390   75.0800  220.1140 C   0  0  0  0  0  0  0  0  0  0  0  0
  142.8310   74.3520  220.3550 C   0  0  1  0  0  0  0  0  0  0  0  0
  141.7040   75.0430  219.6450 C   0  0  0  0  0  0  0  0  0  0  0  0
  140.8210   75.5950  220.6820 N   0  0  0  0  0  0  0  0  0  0  0  0
  141.1390   76.8380  221.3020 C   0  0  0  0  0  0  0  0  0  0  0  0
  141.1000   77.0160  222.6310 N   0  0  0  0  0  0  0  0  0  0  0  0
  141.3920   78.1700  223.2560 C   0  0  0  0  0  0  0  0  0  0  0  0
  141.7580   79.2580  222.5010 C   0  0  0  0  0  0  0  0  0  0  0  0
  142.1410   80.7650  223.2920 Cl  0  0  0  0  0  0  0  0  0  0  0  0
  141.8060   79.0960  221.1250 C   0  0  0  0  0  0  0  0  0  0  0  0
  141.5030   77.9160  220.5570 N   0  0  0  0  0  0  0  0  0  0  0  0
  140.1680   71.4330  223.5780 C   0  0  0  0  0  0  0  0  0  0  0  0
  139.5020   70.2270  223.5880 C   0  0  0  0  0  0  0  0  0  0  0  0
  139.3740   69.5590  224.8090 C   0  0  0  0  0  0  0  0  0  0  0  0
  139.9060   70.1040  225.9740 C   0  0  0  0  0  0  0  0  0  0  0  0
  139.7850   69.4510  227.1890 C   0  0  0  0  0  0  0  0  0  0  0  0
  140.3270   70.0220  228.3250 C   0  0  0  0  0  0  0  0  0  0  0  0
  140.9860   71.2340  228.2600 C   0  0  0  0  0  0  0  0  0  0  0  0
  141.1080   71.8940  227.0380 C   0  0  0  0  0  0  0  0  0  0  0  0
  140.5560   71.2980  225.9150 C   0  0  0  0  0  0  0  0  0  0  0  0
  140.6740   71.9310  224.7360 N   0  0  0  0  0  0  0  0  0  0  0  0
  140.6410   70.3990  221.2000 H   0  0  0  0  0  0  0  0  0  0  0  0
  140.1512   71.5748  219.0860 H   0  0  0  0  0  0  0  0  0  0  0  0
  140.4270   73.1399  219.9175 H   0  0  0  0  0  0  0  0  0  0  0  0
  144.8255   71.8814  220.4393 H   0  0  0  0  0  0  0  0  0  0  0  0
  144.9896   72.6798  218.8812 H   0  0  0  0  0  0  0  0  0  0  0  0
  145.1088   73.9148  221.7047 H   0  0  0  0  0  0  0  0  0  0  0  0
  146.1973   74.2494  220.4087 H   0  0  0  0  0  0  0  0  0  0  0  0
  144.2012   76.0086  220.7004 H   0  0  0  0  0  0  0  0  0  0  0  0
  144.2967   75.4086  219.0761 H   0  0  0  0  0  0  0  0  0  0  0  0
  142.4885   74.3326  221.4002 H   0  0  0  0  0  0  0  0  0  0  0  0
  142.0957   75.8525  219.0115 H   0  0  0  0  0  0  0  0  0  0  0  0
  141.1588   74.3420  218.9958 H   0  0  0  0  0  0  0  0  0  0  0  0
  139.9580   75.1170  220.9960 H   0  0  0  0  0  0  0  0  0  0  0  0
  141.3388   78.2418  224.3524 H   0  0  0  0  0  0  0  0  0  0  0  0
  142.0962   79.9452  220.4889 H   0  0  0  0  0  0  0  0  0  0  0  0
  139.0838   69.8028  222.6633 H   0  0  0  0  0  0  0  0  0  0  0  0
  138.8480   68.5938  224.8496 H   0  0  0  0  0  0  0  0  0  0  0  0
  139.2616   68.4854  227.2496 H   0  0  0  0  0  0  0  0  0  0  0  0
  140.2324   69.5054  229.2915 H   0  0  0  0  0  0  0  0  0  0  0  0
  141.4139   71.6779  229.1709 H   0  0  0  0  0  0  0  0  0  0  0  0
  141.6279   72.8608  226.9671 H   0  0  0  0  0  0  0  0  0  0  0  0
  1  2  2  0
  2  3  1  0
  3  4  1  0
  4  5  1  0
  5  6  2  0
  5  7  1  0
  7  8  1  0
  8  9  1  0
  9 10  1  0
 10 11  1  0
 11 12  1  0
 12 13  1  0
 13 14  1  0
 14 15  2  0
 15 16  1  0
 16 17  2  0
 17 18  1  0
 17 19  1  0
 19 20  2  0
  2 21  1  0
 21 22  2  0
 22 23  1  0
 23 24  2  0
 24 25  1  0
 25 26  2  0
 26 27  1  0
 27 28  2  0
 28 29  1  0
 29 30  2  0
 11  7  1  0
 20 14  1  0
 30 21  1  0
 29 24  1  0
  3 31  1  0
  4 32  1  0
  4 33  1  0
  8 34  1  0
  8 35  1  0
  9 36  1  0
  9 37  1  0
 10 38  1  0
 10 39  1  0
 11 40  1  1
 12 41  1  0
 12 42  1  0
 13 43  1  0
 16 44  1  0
 19 45  1  0
 22 46  1  0
 23 47  1  0
 25 48  1  0
 26 49  1  0
 27 50  1  0
 28 51  1  0
M  END
>  <smiles>  (49) 
O=C(NCC(=O)N1CCC[C@H]1CNc1ncc(Cl)cn1)c1ccc2ccccc2n1

>  <score_type>  (49) 
oracle

>  <origin>  (49) 
autodockgpu

>  <m_score__min__energy>  (49) 
-8.8699999999999992

>  <m_primary>  (49) 
energy

>  <rmsd>  (49) 
3.465133717504073

>  <m_score__min__rmsd>  (49) 
3.465133717504073

>  <meeko>  (49) 
{"free_energy": -8.41, "intermolecular_energy": -10.5, "internal_energy": -2.09, "cluster_size": 7, "cluster_id": 3, "rank_in_cluster": 1}

>  <energy>  (49) 
-6.87

>  <cluster_rmsd>  (49) 
0.0

>  <cluster>  (49) 
12

$$$$

     RDKit          3D

 51 54  0  0  0  0  0  0  0  0999 V2000
  137.7220   69.6390  222.1310 O   0  0  0  0  0  0  0  0  0  0  0  0
  138.2730   70.5820  222.7770 C   0  0  0  0  0  0  0  0  0  0  0  0
  138.3170   71.9200  222.2960 N   0  0  0  0  0  0  0  0  0  0  0  0
  137.7350   72.2970  221.0360 C   0  0  0  0  0  0  0  0  0  0  0  0
  137.1880   73.6780  221.1450 C   0  0  0  0  0  0  0  0  0  0  0  0
  137.4410   74.4460  220.1610 O   0  0  0  0  0  0  0  0  0  0  0  0
  136.4360   74.1050  222.2720 N   0  0  0  0  0  0  0  0  0  0  0  0
  135.8870   73.1670  223.2650 C   0  0  0  0  0  0  0  0  0  0  0  0
  134.9950   74.0400  224.1470 C   0  0  0  0  0  0  0  0  0  0  0  0
  135.8170   75.3350  224.1160 C   0  0  0  0  0  0  0  0  0  0  0  0
  136.0920   75.4510  222.6300 C   0  0  1  0  0  0  0  0  0  0  0  0
  137.1640   76.4680  222.3700 C   0  0  0  0  0  0  0  0  0  0  0  0
  138.3670   76.0100  223.0800 N   0  0  0  0  0  0  0  0  0  0  0  0
  139.5240   75.6200  222.3450 C   0  0  0  0  0  0  0  0  0  0  0  0
  139.9460   74.3490  222.2800 N   0  0  0  0  0  0  0  0  0  0  0  0
  141.0300   73.9380  221.5990 C   0  0  0  0  0  0  0  0  0  0  0  0
  141.7750   74.8690  220.9150 C   0  0  0  0  0  0  0  0  0  0  0  0
  143.1860   74.3570  220.0260 Cl  0  0  0  0  0  0  0  0  0  0  0  0
  141.3560   76.1890  220.9690 C   0  0  0  0  0  0  0  0  0  0  0  0
  140.2620   76.5400  221.6670 N   0  0  0  0  0  0  0  0  0  0  0  0
  138.8940   70.2810  224.0840 C   0  0  0  0  0  0  0  0  0  0  0  0
  138.7860   69.0180  224.6230 C   0  0  0  0  0  0  0  0  0  0  0  0
  139.3900   68.7800  225.8600 C   0  0  0  0  0  0  0  0  0  0  0  0
  140.0780   69.7940  226.5200 C   0  0  0  0  0  0  0  0  0  0  0  0
  140.6810   69.5690  227.7460 C   0  0  0  0  0  0  0  0  0  0  0  0
  141.3560   70.6000  228.3710 C   0  0  0  0  0  0  0  0  0  0  0  0
  141.4350   71.8490  227.7870 C   0  0  0  0  0  0  0  0  0  0  0  0
  140.8290   72.0780  226.5520 C   0  0  0  0  0  0  0  0  0  0  0  0
  140.1590   71.0260  225.9480 C   0  0  0  0  0  0  0  0  0  0  0  0
  139.5750   71.2440  224.7580 N   0  0  0  0  0  0  0  0  0  0  0  0
  138.7940   72.6340  222.8990 H   0  0  0  0  0  0  0  0  0  0  0  0
  138.5050   72.2668  220.2510 H   0  0  0  0  0  0  0  0  0  0  0  0
  136.9262   71.5976  220.7776 H   0  0  0  0  0  0  0  0  0  0  0  0
  135.2986   72.3781  222.7737 H   0  0  0  0  0  0  0  0  0  0  0  0
  136.6715   72.6503  223.8373 H   0  0  0  0  0  0  0  0  0  0  0  0
  133.9936   74.1770  223.7128 H   0  0  0  0  0  0  0  0  0  0  0  0
  134.7837   73.6386  225.1491 H   0  0  0  0  0  0  0  0  0  0  0  0
  135.2385   76.1925  224.4902 H   0  0  0  0  0  0  0  0  0  0  0  0
  136.7163   75.3228  224.7494 H   0  0  0  0  0  0  0  0  0  0  0  0
  135.2509   75.8176  222.0232 H   0  0  0  0  0  0  0  0  0  0  0  0
  137.3652   76.5383  221.2908 H   0  0  0  0  0  0  0  0  0  0  0  0
  136.8553   77.4642  222.7196 H   0  0  0  0  0  0  0  0  0  0  0  0
  138.4210   75.9540  224.1120 H   0  0  0  0  0  0  0  0  0  0  0  0
  141.3156   72.8758  221.5894 H   0  0  0  0  0  0  0  0  0  0  0  0
  141.9272   76.9611  220.4327 H   0  0  0  0  0  0  0  0  0  0  0  0
  138.2409   68.2213  224.0956 H   0  0  0  0  0  0  0  0  0  0  0  0
  139.3212   67.7817  226.3167 H   0  0  0  0  0  0  0  0  0  0  0  0
  140.6231   68.5774  228.2186 H   0  0  0  0  0  0  0  0  0  0  0  0
  141.8360   70.4239  229.3450 H   0  0  0  0  0  0  0  0  0  0  0  0
  141.9749   72.6617  228.2950 H   0  0  0  0  0  0  0  0  0  0  0  0
  140.8814   73.0658  226.0709 H   0  0  0  0  0  0  0  0  0  0  0  0
  1  2  2  0
  2  3  1  0
  3  4  1  0
  4  5  1  0
  5  6  2  0
  5  7  1  0
  7  8  1  0
  8  9  1  0
  9 10  1  0
 10 11  1  0
 11 12  1  0
 12 13  1  0
 13 14  1  0
 14 15  2  0
 15 16  1  0
 16 17  2  0
 17 18  1  0
 17 19  1  0
 19 20  2  0
  2 21  1  0
 21 22  2  0
 22 23  1  0
 23 24  2  0
 24 25  1  0
 25 26  2  0
 26 27  1  0
 27 28  2  0
 28 29  1  0
 29 30  2  0
 11  7  1  0
 20 14  1  0
 30 21  1  0
 29 24  1  0
  3 31  1  0
  4 32  1  0
  4 33  1  0
  8 34  1  0
  8 35  1  0
  9 36  1  0
  9 37  1  0
 10 38  1  0
 10 39  1  0
 11 40  1  6
 12 41  1  0
 12 42  1  0
 13 43  1  0
 16 44  1  0
 19 45  1  0
 22 46  1  0
 23 47  1  0
 25 48  1  0
 26 49  1  0
 27 50  1  0
 28 51  1  0
M  END
>  <smiles>  (50) 
O=C(NCC(=O)N1CCC[C@H]1CNc1ncc(Cl)cn1)c1ccc2ccccc2n1

>  <score_type>  (50) 
oracle

>  <origin>  (50) 
autodockgpu

>  <m_score__min__energy>  (50) 
-8.8699999999999992

>  <m_primary>  (50) 
energy

>  <rmsd>  (50) 
4.286825438065873

>  <m_score__min__rmsd>  (50) 
4.286825438065873

>  <meeko>  (50) 
{"free_energy": -7.08, "intermolecular_energy": -9.17, "internal_energy": -2.96, "cluster_size": 2, "cluster_id": 7, "rank_in_cluster": 2}

>  <energy>  (50) 
-6.49

>  <cluster_rmsd>  (50) 
0.0

>  <cluster>  (50) 
13

$$$$
