
     RDKit          3D

 64 67  0  0  0  0  0  0  0  0999 V2000
  143.3020   83.6970  217.1170 C   0  0  0  0  0  0  0  0  0  0  0  0
  143.6970   82.2510  217.1480 C   0  0  0  0  0  0  0  0  0  0  0  0
  142.5240   81.3800  216.8970 C   0  0  0  0  0  0  0  0  0  0  0  0
  142.1170   81.2320  215.6890 O   0  0  0  0  0  0  0  0  0  0  0  0
  141.8170   80.6930  217.9260 N   0  0  0  0  0  0  0  0  0  0  0  0
  142.1890   79.3210  218.1170 C   0  0  0  0  0  0  0  0  0  0  0  0
  142.5870   78.5120  217.0630 C   0  0  0  0  0  0  0  0  0  0  0  0
  142.9410   77.1930  217.3200 C   0  0  0  0  0  0  0  0  0  0  0  0
  142.9070   76.6660  218.5920 C   0  0  0  0  0  0  0  0  0  0  0  0
  142.5170   77.4600  219.6250 C   0  0  0  0  0  0  0  0  0  0  0  0
  142.1540   78.7930  219.4000 C   0  0  0  0  0  0  0  0  0  0  0  0
  140.8080   81.3720  218.6760 C   0  0  0  0  0  0  0  0  0  0  0  0
  141.3420   82.0940  219.9160 C   0  0  0  0  0  0  0  0  0  0  0  0
  140.1400   82.9820  220.3300 C   0  0  0  0  0  0  0  0  0  0  0  0
  139.1730   82.0800  221.0000 N   0  0  0  0  0  0  0  0  0  0  0  0
  138.4000   82.6450  222.0210 C   0  0  0  0  0  0  0  0  0  0  0  0
  138.6330   83.8980  222.2380 O   0  0  0  0  0  0  0  0  0  0  0  0
  137.3840   81.9560  222.8410 C   0  0  2  0  0  0  0  0  0  0  0  0
  136.3540   82.8060  223.3900 N   0  0  0  0  0  0  0  0  0  0  0  0
  137.9270   81.0950  223.9200 C   0  0  0  0  0  0  0  0  0  0  0  0
  138.7440   79.9470  223.4820 C   0  0  0  0  0  0  0  0  0  0  0  0
  138.1810   78.7370  223.0980 C   0  0  0  0  0  0  0  0  0  0  0  0
  138.9330   77.6570  222.6910 C   0  0  0  0  0  0  0  0  0  0  0  0
  140.2930   77.7540  222.6550 C   0  0  0  0  0  0  0  0  0  0  0  0
  141.0710   76.6840  222.2490 O   0  0  0  0  0  0  0  0  0  0  0  0
  140.8830   78.9440  223.0320 C   0  0  0  0  0  0  0  0  0  0  0  0
  142.2800   78.9890  222.9860 C   0  0  0  0  0  0  0  0  0  0  0  0
  142.9320   80.1630  223.3680 C   0  0  0  0  0  0  0  0  0  0  0  0
  142.1990   81.2670  223.7840 C   0  0  0  0  0  0  0  0  0  0  0  0
  140.8160   81.1740  223.8100 C   0  0  0  0  0  0  0  0  0  0  0  0
  140.1410   80.0250  223.4380 C   0  0  0  0  0  0  0  0  0  0  0  0
  139.1710   80.7320  220.5150 C   0  0  0  0  0  0  0  0  0  0  0  0
  139.6210   80.5890  219.0770 C   0  0  0  0  0  0  0  0  0  0  0  0
  143.1998   84.0713  218.1463 H   0  0  0  0  0  0  0  0  0  0  0  0
  144.0746   84.2770  216.5910 H   0  0  0  0  0  0  0  0  0  0  0  0
  142.3418   83.8036  216.5910 H   0  0  0  0  0  0  0  0  0  0  0  0
  144.4552   82.0674  216.3724 H   0  0  0  0  0  0  0  0  0  0  0  0
  144.1034   82.0175  218.1431 H   0  0  0  0  0  0  0  0  0  0  0  0
  142.6220   78.9090  216.0378 H   0  0  0  0  0  0  0  0  0  0  0  0
  143.2572   76.5518  216.4840 H   0  0  0  0  0  0  0  0  0  0  0  0
  143.1911   75.6183  218.7698 H   0  0  0  0  0  0  0  0  0  0  0  0
  142.4866   77.0513  220.6458 H   0  0  0  0  0  0  0  0  0  0  0  0
  141.8396   79.4248  220.2438 H   0  0  0  0  0  0  0  0  0  0  0  0
  140.4668   82.0958  217.9212 H   0  0  0  0  0  0  0  0  0  0  0  0
  141.6012   81.3796  220.7113 H   0  0  0  0  0  0  0  0  0  0  0  0
  142.2644   82.6634  219.7290 H   0  0  0  0  0  0  0  0  0  0  0  0
  140.4690   83.7709  221.0224 H   0  0  0  0  0  0  0  0  0  0  0  0
  139.6885   83.4785  219.4584 H   0  0  0  0  0  0  0  0  0  0  0  0
  136.9177   81.3063  222.0857 H   0  0  0  0  0  0  0  0  0  0  0  0
  135.5510   82.8420  222.6900 H   0  0  0  0  0  0  0  0  0  0  0  0
  136.7500   83.7910  223.3070 H   0  0  0  0  0  0  0  0  0  0  0  0
  138.5522   81.7244  224.5703 H   0  0  0  0  0  0  0  0  0  0  0  0
  137.0501   80.6605  224.4223 H   0  0  0  0  0  0  0  0  0  0  0  0
  137.0858   78.6365  223.1198 H   0  0  0  0  0  0  0  0  0  0  0  0
  138.4385   76.7197  222.3961 H   0  0  0  0  0  0  0  0  0  0  0  0
  142.0680   76.8450  222.1930 H   0  0  0  0  0  0  0  0  0  0  0  0
  142.8563   78.1129  222.6539 H   0  0  0  0  0  0  0  0  0  0  0  0
  144.0305   80.2138  223.3394 H   0  0  0  0  0  0  0  0  0  0  0  0
  142.7052   82.1956  224.0865 H   0  0  0  0  0  0  0  0  0  0  0  0
  140.2331   82.0470  224.1389 H   0  0  0  0  0  0  0  0  0  0  0  0
  139.8452   80.1366  221.1482 H   0  0  0  0  0  0  0  0  0  0  0  0
  138.1286   80.3830  220.5560 H   0  0  0  0  0  0  0  0  0  0  0  0
  139.8467   79.5268  218.9017 H   0  0  0  0  0  0  0  0  0  0  0  0
  138.7926   80.9864  218.4722 H   0  0  0  0  0  0  0  0  0  0  0  0
  1  2  1  0
  2  3  1  0
  3  4  2  0
  3  5  1  0
  5  6  1  0
  6  7  2  0
  7  8  1  0
  8  9  2  0
  9 10  1  0
 10 11  2  0
  5 12  1  0
 12 13  1  0
 13 14  1  0
 14 15  1  0
 15 16  1  0
 16 17  2  0
 16 18  1  0
 18 19  1  0
 18 20  1  0
 20 21  1  0
 21 22  2  0
 22 23  1  0
 23 24  2  0
 24 25  1  0
 24 26  1  0
 26 27  2  0
 27 28  1  0
 28 29  2  0
 29 30  1  0
 30 31  2  0
 15 32  1  0
 32 33  1  0
 11  6  1  0
 33 12  1  0
 31 21  1  0
 31 26  1  0
  1 34  1  0
  1 35  1  0
  1 36  1  0
  2 37  1  0
  2 38  1  0
  7 39  1  0
  8 40  1  0
  9 41  1  0
 10 42  1  0
 11 43  1  0
 12 44  1  0
 13 45  1  0
 13 46  1  0
 14 47  1  0
 14 48  1  0
 18 49  1  6
 19 50  1  0
 19 51  1  0
 20 52  1  0
 20 53  1  0
 22 54  1  0
 23 55  1  0
 25 56  1  0
 27 57  1  0
 28 58  1  0
 29 59  1  0
 30 60  1  0
 32 61  1  0
 32 62  1  0
 33 63  1  0
 33 64  1  0
M  END
>  <smiles>  (1) 
CCC(=O)N(c1ccccc1)C1CCN(C(=O)[C@H](N)Cc2ccc(O)c3ccccc23)CC1

>  <score_type>  (1) 
oracle

>  <origin>  (1) 
autodockgpu

>  <m_score__min__energy>  (1) 
-10.050000000000001

>  <m_primary>  (1) 
energy

>  <rmsd>  (1) 
5.807143582558991

>  <m_score__min__rmsd>  (1) 
5.807143582558991

>  <meeko>  (1) 
{"free_energy": -6.4, "intermolecular_energy": -9.08, "internal_energy": -3.63, "cluster_size": 11, "cluster_id": 11, "rank_in_cluster": 6}

>  <energy>  (1) 
-10.05

>  <cluster_rmsd>  (1) 
0.0

>  <cluster>  (1) 
1

$$$$

     RDKit          3D

 64 67  0  0  0  0  0  0  0  0999 V2000
  142.5410   79.3320  218.1650 C   0  0  0  0  0  0  0  0  0  0  0  0
  141.8340   78.0170  218.2980 C   0  0  0  0  0  0  0  0  0  0  0  0
  142.1860   77.3580  219.5790 C   0  0  0  0  0  0  0  0  0  0  0  0
  143.3530   76.8420  219.7030 O   0  0  0  0  0  0  0  0  0  0  0  0
  141.2950   77.2650  220.6880 N   0  0  0  0  0  0  0  0  0  0  0  0
  141.4780   78.2580  221.7080 C   0  0  0  0  0  0  0  0  0  0  0  0
  141.4420   77.9430  223.0580 C   0  0  0  0  0  0  0  0  0  0  0  0
  141.6340   78.9530  223.9930 C   0  0  0  0  0  0  0  0  0  0  0  0
  141.8600   80.2590  223.6160 C   0  0  0  0  0  0  0  0  0  0  0  0
  141.8950   80.5670  222.2920 C   0  0  0  0  0  0  0  0  0  0  0  0
  141.7050   79.5720  221.3240 C   0  0  0  0  0  0  0  0  0  0  0  0
  140.3170   76.2250  220.7340 C   0  0  0  0  0  0  0  0  0  0  0  0
  139.3040   76.3820  221.8700 C   0  0  0  0  0  0  0  0  0  0  0  0
  138.2130   75.3470  221.4910 C   0  0  0  0  0  0  0  0  0  0  0  0
  138.7570   74.0190  221.8630 N   0  0  0  0  0  0  0  0  0  0  0  0
  137.8260   73.0580  222.2740 C   0  0  0  0  0  0  0  0  0  0  0  0
  136.5990   73.4640  222.2660 O   0  0  0  0  0  0  0  0  0  0  0  0
  138.1170   71.6760  222.7040 C   0  0  2  0  0  0  0  0  0  0  0  0
  137.0800   71.0400  223.4820 N   0  0  0  0  0  0  0  0  0  0  0  0
  139.4190   71.4940  223.3920 C   0  0  0  0  0  0  0  0  0  0  0  0
  139.5170   70.3310  224.2930 C   0  0  0  0  0  0  0  0  0  0  0  0
  139.1060   69.0590  223.9140 C   0  0  0  0  0  0  0  0  0  0  0  0
  139.1890   67.9650  224.7480 C   0  0  0  0  0  0  0  0  0  0  0  0
  139.6910   68.1120  226.0070 C   0  0  0  0  0  0  0  0  0  0  0  0
  139.7850   67.0290  226.8640 O   0  0  0  0  0  0  0  0  0  0  0  0
  140.1070   69.3630  226.4140 C   0  0  0  0  0  0  0  0  0  0  0  0
  140.6050   69.4610  227.7180 C   0  0  0  0  0  0  0  0  0  0  0  0
  141.0290   70.7050  228.1890 C   0  0  0  0  0  0  0  0  0  0  0  0
  140.9560   71.8260  227.3700 C   0  0  0  0  0  0  0  0  0  0  0  0
  140.4570   71.6770  226.0850 C   0  0  0  0  0  0  0  0  0  0  0  0
  140.0290   70.4580  225.5900 C   0  0  0  0  0  0  0  0  0  0  0  0
  140.1820   73.9020  221.7630 C   0  0  0  0  0  0  0  0  0  0  0  0
  140.8110   74.8330  220.7480 C   0  0  0  0  0  0  0  0  0  0  0  0
  142.7575   79.7347  219.1655 H   0  0  0  0  0  0  0  0  0  0  0  0
  143.4832   79.1878  217.6160 H   0  0  0  0  0  0  0  0  0  0  0  0
  141.9011   80.0385  217.6160 H   0  0  0  0  0  0  0  0  0  0  0  0
  140.7476   78.1866  218.2661 H   0  0  0  0  0  0  0  0  0  0  0  0
  142.1437   77.3643  217.4685 H   0  0  0  0  0  0  0  0  0  0  0  0
  141.2639   76.9077  223.3843 H   0  0  0  0  0  0  0  0  0  0  0  0
  141.6048   78.7030  225.0638 H   0  0  0  0  0  0  0  0  0  0  0  0
  142.0099   81.0410  224.3750 H   0  0  0  0  0  0  0  0  0  0  0  0
  142.0740   81.6060  221.9783 H   0  0  0  0  0  0  0  0  0  0  0  0
  141.7359   79.8334  220.2560 H   0  0  0  0  0  0  0  0  0  0  0  0
  139.8327   76.3764  219.7580 H   0  0  0  0  0  0  0  0  0  0  0  0
  139.7577   76.1433  222.8432 H   0  0  0  0  0  0  0  0  0  0  0  0
  138.9188   77.4069  221.9760 H   0  0  0  0  0  0  0  0  0  0  0  0
  137.2858   75.5489  222.0474 H   0  0  0  0  0  0  0  0  0  0  0  0
  137.9694   75.3950  220.4194 H   0  0  0  0  0  0  0  0  0  0  0  0
  138.1687   71.1656  221.7309 H   0  0  0  0  0  0  0  0  0  0  0  0
  136.5150   70.4170  222.8270 H   0  0  0  0  0  0  0  0  0  0  0  0
  136.3840   71.8200  223.6830 H   0  0  0  0  0  0  0  0  0  0  0  0
  140.1956   71.3881  222.6202 H   0  0  0  0  0  0  0  0  0  0  0  0
  139.5408   72.3782  224.0349 H   0  0  0  0  0  0  0  0  0  0  0  0
  138.6960   68.9189  222.9029 H   0  0  0  0  0  0  0  0  0  0  0  0
  138.8517   66.9777  224.3995 H   0  0  0  0  0  0  0  0  0  0  0  0
  140.7080   66.8060  227.2120 H   0  0  0  0  0  0  0  0  0  0  0  0
  140.6616   68.5713  228.3623 H   0  0  0  0  0  0  0  0  0  0  0  0
  141.4223   70.7985  229.2120 H   0  0  0  0  0  0  0  0  0  0  0  0
  141.2870   72.8100  227.7336 H   0  0  0  0  0  0  0  0  0  0  0  0
  140.3992   72.5619  225.4342 H   0  0  0  0  0  0  0  0  0  0  0  0
  140.6164   74.1226  222.7492 H   0  0  0  0  0  0  0  0  0  0  0  0
  140.3922   72.8767  221.4246 H   0  0  0  0  0  0  0  0  0  0  0  0
  141.8921   74.8643  220.9484 H   0  0  0  0  0  0  0  0  0  0  0  0
  140.5396   74.4184  219.7659 H   0  0  0  0  0  0  0  0  0  0  0  0
  1  2  1  0
  2  3  1  0
  3  4  2  0
  3  5  1  0
  5  6  1  0
  6  7  2  0
  7  8  1  0
  8  9  2  0
  9 10  1  0
 10 11  2  0
  5 12  1  0
 12 13  1  0
 13 14  1  0
 14 15  1  0
 15 16  1  0
 16 17  2  0
 16 18  1  0
 18 19  1  0
 18 20  1  0
 20 21  1  0
 21 22  2  0
 22 23  1  0
 23 24  2  0
 24 25  1  0
 24 26  1  0
 26 27  2  0
 27 28  1  0
 28 29  2  0
 29 30  1  0
 30 31  2  0
 15 32  1  0
 32 33  1  0
 11  6  1  0
 33 12  1  0
 31 21  1  0
 31 26  1  0
  1 34  1  0
  1 35  1  0
  1 36  1  0
  2 37  1  0
  2 38  1  0
  7 39  1  0
  8 40  1  0
  9 41  1  0
 10 42  1  0
 11 43  1  0
 12 44  1  0
 13 45  1  0
 13 46  1  0
 14 47  1  0
 14 48  1  0
 18 49  1  6
 19 50  1  0
 19 51  1  0
 20 52  1  0
 20 53  1  0
 22 54  1  0
 23 55  1  0
 25 56  1  0
 27 57  1  0
 28 58  1  0
 29 59  1  0
 30 60  1  0
 32 61  1  0
 32 62  1  0
 33 63  1  0
 33 64  1  0
M  END
>  <smiles>  (2) 
CCC(=O)N(c1ccccc1)C1CCN(C(=O)[C@H](N)Cc2ccc(O)c3ccccc23)CC1

>  <score_type>  (2) 
oracle

>  <origin>  (2) 
autodockgpu

>  <m_score__min__energy>  (2) 
-10.050000000000001

>  <m_primary>  (2) 
energy

>  <rmsd>  (2) 
6.772793506857954

>  <m_score__min__rmsd>  (2) 
6.772793506857954

>  <meeko>  (2) 
{"free_energy": -8.78, "intermolecular_energy": -11.47, "internal_energy": -1.81, "cluster_size": 18, "cluster_id": 1, "rank_in_cluster": 9}

>  <energy>  (2) 
-10.0

>  <cluster_rmsd>  (2) 
0.33

>  <cluster>  (2) 
1

$$$$

     RDKit          3D

 64 67  0  0  0  0  0  0  0  0999 V2000
  142.8120   77.5260  218.1730 C   0  0  0  0  0  0  0  0  0  0  0  0
  143.3360   76.2070  218.6550 C   0  0  0  0  0  0  0  0  0  0  0  0
  142.4710   75.6570  219.7260 C   0  0  0  0  0  0  0  0  0  0  0  0
  141.6720   76.4530  220.3390 O   0  0  0  0  0  0  0  0  0  0  0  0
  142.4750   74.2870  220.1170 N   0  0  0  0  0  0  0  0  0  0  0  0
  143.7550   73.6410  220.0810 C   0  0  0  0  0  0  0  0  0  0  0  0
  144.0040   72.5430  219.2730 C   0  0  0  0  0  0  0  0  0  0  0  0
  145.2700   71.9700  219.2810 C   0  0  0  0  0  0  0  0  0  0  0  0
  146.2860   72.4640  220.0710 C   0  0  0  0  0  0  0  0  0  0  0  0
  146.0410   73.5410  220.8630 C   0  0  0  0  0  0  0  0  0  0  0  0
  144.7760   74.1410  220.8780 C   0  0  0  0  0  0  0  0  0  0  0  0
  141.2540   73.6480  220.4960 C   0  0  0  0  0  0  0  0  0  0  0  0
  140.7130   74.1080  221.8510 C   0  0  0  0  0  0  0  0  0  0  0  0
  139.2750   73.5270  221.8520 C   0  0  0  0  0  0  0  0  0  0  0  0
  139.4140   72.0810  222.1500 N   0  0  0  0  0  0  0  0  0  0  0  0
  138.3650   71.4890  222.8610 C   0  0  0  0  0  0  0  0  0  0  0  0
  137.3980   72.2940  223.1590 O   0  0  0  0  0  0  0  0  0  0  0  0
  138.2740   70.0780  223.2860 C   0  0  2  0  0  0  0  0  0  0  0  0
  137.3280   69.8120  224.3430 N   0  0  0  0  0  0  0  0  0  0  0  0
  139.5700   69.4400  223.6250 C   0  0  0  0  0  0  0  0  0  0  0  0
  139.7730   69.1030  225.0460 C   0  0  0  0  0  0  0  0  0  0  0  0
  139.4540   67.8560  225.5670 C   0  0  0  0  0  0  0  0  0  0  0  0
  139.6350   67.5290  226.8940 C   0  0  0  0  0  0  0  0  0  0  0  0
  140.1480   68.4550  227.7540 C   0  0  0  0  0  0  0  0  0  0  0  0
  140.3400   68.1520  229.0900 O   0  0  0  0  0  0  0  0  0  0  0  0
  140.4740   69.7040  227.2670 C   0  0  0  0  0  0  0  0  0  0  0  0
  140.9870   70.6190  228.1910 C   0  0  0  0  0  0  0  0  0  0  0  0
  141.3230   71.9030  227.7580 C   0  0  0  0  0  0  0  0  0  0  0  0
  141.1500   72.2600  226.4260 C   0  0  0  0  0  0  0  0  0  0  0  0
  140.6400   71.3170  225.5470 C   0  0  0  0  0  0  0  0  0  0  0  0
  140.2970   70.0370  225.9470 C   0  0  0  0  0  0  0  0  0  0  0  0
  140.6260   71.4830  221.6740 C   0  0  0  0  0  0  0  0  0  0  0  0
  141.2260   72.1710  220.4670 C   0  0  0  0  0  0  0  0  0  0  0  0
  142.5607   78.1586  219.0371 H   0  0  0  0  0  0  0  0  0  0  0  0
  143.5801   78.0253  217.5641 H   0  0  0  0  0  0  0  0  0  0  0  0
  141.9107   77.3621  217.5641 H   0  0  0  0  0  0  0  0  0  0  0  0
  143.3616   75.4996  217.8130 H   0  0  0  0  0  0  0  0  0  0  0  0
  144.3477   76.3561  219.0603 H   0  0  0  0  0  0  0  0  0  0  0  0
  143.2098   72.1303  218.6335 H   0  0  0  0  0  0  0  0  0  0  0  0
  145.4668   71.0984  218.6394 H   0  0  0  0  0  0  0  0  0  0  0  0
  147.2802   71.9935  220.0605 H   0  0  0  0  0  0  0  0  0  0  0  0
  146.8435   73.9448  221.4978 H   0  0  0  0  0  0  0  0  0  0  0  0
  144.5904   75.0119  221.5238 H   0  0  0  0  0  0  0  0  0  0  0  0
  140.6001   73.9899  219.6802 H   0  0  0  0  0  0  0  0  0  0  0  0
  141.3092   73.6953  222.6781 H   0  0  0  0  0  0  0  0  0  0  0  0
  140.7457   75.1988  221.9892 H   0  0  0  0  0  0  0  0  0  0  0  0
  138.6654   74.0188  222.6244 H   0  0  0  0  0  0  0  0  0  0  0  0
  138.7753   73.6913  220.8859 H   0  0  0  0  0  0  0  0  0  0  0  0
  137.8918   69.6114  222.3661 H   0  0  0  0  0  0  0  0  0  0  0  0
  136.5520   70.5410  224.2800 H   0  0  0  0  0  0  0  0  0  0  0  0
  137.8300   70.1140  225.2320 H   0  0  0  0  0  0  0  0  0  0  0  0
  139.6491   68.5094  223.0439 H   0  0  0  0  0  0  0  0  0  0  0  0
  140.3402   70.1878  223.3849 H   0  0  0  0  0  0  0  0  0  0  0  0
  139.0382   67.0948  224.8905 H   0  0  0  0  0  0  0  0  0  0  0  0
  139.3669   66.5260  227.2575 H   0  0  0  0  0  0  0  0  0  0  0  0
  141.2790   67.8980  229.3670 H   0  0  0  0  0  0  0  0  0  0  0  0
  141.1239   70.3315  229.2439 H   0  0  0  0  0  0  0  0  0  0  0  0
  141.7261   72.6347  228.4736 H   0  0  0  0  0  0  0  0  0  0  0  0
  141.4122   73.2695  226.0766 H   0  0  0  0  0  0  0  0  0  0  0  0
  140.5028   71.5965  224.4920 H   0  0  0  0  0  0  0  0  0  0  0  0
  141.3655   71.5077  222.4880 H   0  0  0  0  0  0  0  0  0  0  0  0
  140.3711   70.4601  221.3600 H   0  0  0  0  0  0  0  0  0  0  0  0
  142.2630   71.8191  220.3629 H   0  0  0  0  0  0  0  0  0  0  0  0
  140.5678   71.9089  219.6255 H   0  0  0  0  0  0  0  0  0  0  0  0
  1  2  1  0
  2  3  1  0
  3  4  2  0
  3  5  1  0
  5  6  1  0
  6  7  2  0
  7  8  1  0
  8  9  2  0
  9 10  1  0
 10 11  2  0
  5 12  1  0
 12 13  1  0
 13 14  1  0
 14 15  1  0
 15 16  1  0
 16 17  2  0
 16 18  1  0
 18 19  1  0
 18 20  1  0
 20 21  1  0
 21 22  2  0
 22 23  1  0
 23 24  2  0
 24 25  1  0
 24 26  1  0
 26 27  2  0
 27 28  1  0
 28 29  2  0
 29 30  1  0
 30 31  2  0
 15 32  1  0
 32 33  1  0
 11  6  1  0
 33 12  1  0
 31 21  1  0
 31 26  1  0
  1 34  1  0
  1 35  1  0
  1 36  1  0
  2 37  1  0
  2 38  1  0
  7 39  1  0
  8 40  1  0
  9 41  1  0
 10 42  1  0
 11 43  1  0
 12 44  1  0
 13 45  1  0
 13 46  1  0
 14 47  1  0
 14 48  1  0
 18 49  1  6
 19 50  1  0
 19 51  1  0
 20 52  1  0
 20 53  1  0
 22 54  1  0
 23 55  1  0
 25 56  1  0
 27 57  1  0
 28 58  1  0
 29 59  1  0
 30 60  1  0
 32 61  1  0
 32 62  1  0
 33 63  1  0
 33 64  1  0
M  END
>  <smiles>  (3) 
CCC(=O)N(c1ccccc1)C1CCN(C(=O)[C@H](N)Cc2ccc(O)c3ccccc23)CC1

>  <score_type>  (3) 
oracle

>  <origin>  (3) 
autodockgpu

>  <m_score__min__energy>  (3) 
-10.050000000000001

>  <m_primary>  (3) 
energy

>  <rmsd>  (3) 
8.561645553393749

>  <m_score__min__rmsd>  (3) 
8.561645553393749

>  <meeko>  (3) 
{"free_energy": -7.86, "intermolecular_energy": -10.54, "internal_energy": -2.27, "cluster_size": 3, "cluster_id": 4, "rank_in_cluster": 1}

>  <energy>  (3) 
-9.69

>  <cluster_rmsd>  (3) 
0.48

>  <cluster>  (3) 
1

$$$$

     RDKit          3D

 64 67  0  0  0  0  0  0  0  0999 V2000
  146.4250   73.7600  221.1980 C   0  0  0  0  0  0  0  0  0  0  0  0
  145.1170   73.2040  220.7210 C   0  0  0  0  0  0  0  0  0  0  0  0
  144.9620   73.4030  219.2600 C   0  0  0  0  0  0  0  0  0  0  0  0
  145.9400   73.0900  218.4910 O   0  0  0  0  0  0  0  0  0  0  0  0
  143.7810   73.9260  218.6570 N   0  0  0  0  0  0  0  0  0  0  0  0
  143.9970   74.8060  217.5450 C   0  0  0  0  0  0  0  0  0  0  0  0
  144.6690   74.3980  216.4030 C   0  0  0  0  0  0  0  0  0  0  0  0
  144.8360   75.3000  215.3590 C   0  0  0  0  0  0  0  0  0  0  0  0
  144.3520   76.5880  215.4260 C   0  0  0  0  0  0  0  0  0  0  0  0
  143.6930   76.9870  216.5460 C   0  0  0  0  0  0  0  0  0  0  0  0
  143.5070   76.1030  217.6170 C   0  0  0  0  0  0  0  0  0  0  0  0
  142.4980   73.5750  219.1780 C   0  0  0  0  0  0  0  0  0  0  0  0
  142.0240   74.4830  220.3150 C   0  0  0  0  0  0  0  0  0  0  0  0
  140.5290   74.0960  220.4520 C   0  0  0  0  0  0  0  0  0  0  0  0
  140.5020   72.8030  221.1770 N   0  0  0  0  0  0  0  0  0  0  0  0
  139.3970   72.5770  222.0050 C   0  0  0  0  0  0  0  0  0  0  0  0
  138.5320   73.5390  222.0190 O   0  0  0  0  0  0  0  0  0  0  0  0
  139.1470   71.3820  222.8360 C   0  0  2  0  0  0  0  0  0  0  0  0
  138.1550   71.5470  223.8720 N   0  0  0  0  0  0  0  0  0  0  0  0
  140.3610   70.7610  223.4220 C   0  0  0  0  0  0  0  0  0  0  0  0
  140.1700   70.0520  224.7010 C   0  0  0  0  0  0  0  0  0  0  0  0
  139.5870   68.7940  224.7740 C   0  0  0  0  0  0  0  0  0  0  0  0
  139.4000   68.1230  225.9640 C   0  0  0  0  0  0  0  0  0  0  0  0
  139.7960   68.6990  227.1350 C   0  0  0  0  0  0  0  0  0  0  0  0
  139.6200   68.0460  228.3420 O   0  0  0  0  0  0  0  0  0  0  0  0
  140.3790   69.9500  227.0950 C   0  0  0  0  0  0  0  0  0  0  0  0
  140.7580   70.5000  228.3230 C   0  0  0  0  0  0  0  0  0  0  0  0
  141.3410   71.7680  228.3460 C   0  0  0  0  0  0  0  0  0  0  0  0
  141.5400   72.4680  227.1620 C   0  0  0  0  0  0  0  0  0  0  0  0
  141.1490   71.8790  225.9690 C   0  0  0  0  0  0  0  0  0  0  0  0
  140.5690   70.6250  225.9150 C   0  0  0  0  0  0  0  0  0  0  0  0
  141.6330   71.9560  220.9400 C   0  0  0  0  0  0  0  0  0  0  0  0
  142.2990   72.1720  219.5980 C   0  0  0  0  0  0  0  0  0  0  0  0
  146.4412   73.7669  222.2979 H   0  0  0  0  0  0  0  0  0  0  0  0
  147.2481   73.1340  220.8231 H   0  0  0  0  0  0  0  0  0  0  0  0
  146.5454   74.7871  220.8231 H   0  0  0  0  0  0  0  0  0  0  0  0
  145.0797   72.1276  220.9443 H   0  0  0  0  0  0  0  0  0  0  0  0
  144.3007   73.7305  221.2372 H   0  0  0  0  0  0  0  0  0  0  0  0
  145.0645   73.3746  216.3244 H   0  0  0  0  0  0  0  0  0  0  0  0
  145.3699   74.9762  214.4534 H   0  0  0  0  0  0  0  0  0  0  0  0
  144.4966   77.2831  214.5858 H   0  0  0  0  0  0  0  0  0  0  0  0
  143.3022   78.0131  216.6121 H   0  0  0  0  0  0  0  0  0  0  0  0
  142.9712   76.4376  218.5175 H   0  0  0  0  0  0  0  0  0  0  0  0
  141.8822   73.7246  218.2789 H   0  0  0  0  0  0  0  0  0  0  0  0
  142.5749   74.2767  221.2445 H   0  0  0  0  0  0  0  0  0  0  0  0
  142.1837   75.5532  220.1173 H   0  0  0  0  0  0  0  0  0  0  0  0
  139.9867   74.8645  221.0224 H   0  0  0  0  0  0  0  0  0  0  0  0
  140.0440   74.0144  219.4681 H   0  0  0  0  0  0  0  0  0  0  0  0
  138.7366   70.6915  222.0844 H   0  0  0  0  0  0  0  0  0  0  0  0
  137.2450   71.1120  223.5260 H   0  0  0  0  0  0  0  0  0  0  0  0
  137.9150   72.5840  223.8470 H   0  0  0  0  0  0  0  0  0  0  0  0
  140.7555   70.0387  222.6922 H   0  0  0  0  0  0  0  0  0  0  0  0
  141.0437   71.5946  223.6435 H   0  0  0  0  0  0  0  0  0  0  0  0
  139.2599   68.3113  223.8413 H   0  0  0  0  0  0  0  0  0  0  0  0
  138.9332   67.1270  225.9688 H   0  0  0  0  0  0  0  0  0  0  0  0
  139.4160   67.0570  228.2960 H   0  0  0  0  0  0  0  0  0  0  0  0
  140.5991   69.9417  229.2574 H   0  0  0  0  0  0  0  0  0  0  0  0
  141.6440   72.2147  229.3045 H   0  0  0  0  0  0  0  0  0  0  0  0
  141.9979   73.4681  227.1710 H   0  0  0  0  0  0  0  0  0  0  0  0
  141.3062   72.4302  225.0302 H   0  0  0  0  0  0  0  0  0  0  0  0
  142.3765   72.1445  221.7285 H   0  0  0  0  0  0  0  0  0  0  0  0
  141.2598   70.9213  220.9450 H   0  0  0  0  0  0  0  0  0  0  0  0
  143.2875   71.6908  219.6343 H   0  0  0  0  0  0  0  0  0  0  0  0
  141.6080   71.7421  218.8579 H   0  0  0  0  0  0  0  0  0  0  0  0
  1  2  1  0
  2  3  1  0
  3  4  2  0
  3  5  1  0
  5  6  1  0
  6  7  2  0
  7  8  1  0
  8  9  2  0
  9 10  1  0
 10 11  2  0
  5 12  1  0
 12 13  1  0
 13 14  1  0
 14 15  1  0
 15 16  1  0
 16 17  2  0
 16 18  1  0
 18 19  1  0
 18 20  1  0
 20 21  1  0
 21 22  2  0
 22 23  1  0
 23 24  2  0
 24 25  1  0
 24 26  1  0
 26 27  2  0
 27 28  1  0
 28 29  2  0
 29 30  1  0
 30 31  2  0
 15 32  1  0
 32 33  1  0
 11  6  1  0
 33 12  1  0
 31 21  1  0
 31 26  1  0
  1 34  1  0
  1 35  1  0
  1 36  1  0
  2 37  1  0
  2 38  1  0
  7 39  1  0
  8 40  1  0
  9 41  1  0
 10 42  1  0
 11 43  1  0
 12 44  1  0
 13 45  1  0
 13 46  1  0
 14 47  1  0
 14 48  1  0
 18 49  1  6
 19 50  1  0
 19 51  1  0
 20 52  1  0
 20 53  1  0
 22 54  1  0
 23 55  1  0
 25 56  1  0
 27 57  1  0
 28 58  1  0
 29 59  1  0
 30 60  1  0
 32 61  1  0
 32 62  1  0
 33 63  1  0
 33 64  1  0
M  END
>  <smiles>  (4) 
CCC(=O)N(c1ccccc1)C1CCN(C(=O)[C@H](N)Cc2ccc(O)c3ccccc23)CC1

>  <score_type>  (4) 
oracle

>  <origin>  (4) 
autodockgpu

>  <m_score__min__energy>  (4) 
-10.050000000000001

>  <m_primary>  (4) 
energy

>  <rmsd>  (4) 
7.7393529546519115

>  <m_score__min__rmsd>  (4) 
7.7393529546519115

>  <meeko>  (4) 
{"free_energy": -8.65, "intermolecular_energy": -11.34, "internal_energy": -2.07, "cluster_size": 5, "cluster_id": 3, "rank_in_cluster": 1}

>  <energy>  (4) 
-9.33

>  <cluster_rmsd>  (4) 
0.69

>  <cluster>  (4) 
1

$$$$

     RDKit          3D

 64 67  0  0  0  0  0  0  0  0999 V2000
  143.3380   83.7150  217.0970 C   0  0  0  0  0  0  0  0  0  0  0  0
  143.6770   82.2560  217.1090 C   0  0  0  0  0  0  0  0  0  0  0  0
  142.4650   81.4320  216.8830 C   0  0  0  0  0  0  0  0  0  0  0  0
  142.0020   81.3380  215.6900 O   0  0  0  0  0  0  0  0  0  0  0  0
  141.7810   80.7350  217.9210 N   0  0  0  0  0  0  0  0  0  0  0  0
  142.1740   79.3670  218.1050 C   0  0  0  0  0  0  0  0  0  0  0  0
  142.1560   78.7570  219.3500 C   0  0  0  0  0  0  0  0  0  0  0  0
  142.5430   77.4270  219.4550 C   0  0  0  0  0  0  0  0  0  0  0  0
  142.9430   76.6960  218.3580 C   0  0  0  0  0  0  0  0  0  0  0  0
  142.9590   77.2950  217.1370 C   0  0  0  0  0  0  0  0  0  0  0  0
  142.5760   78.6350  216.9970 C   0  0  0  0  0  0  0  0  0  0  0  0
  140.7720   81.3990  218.6830 C   0  0  0  0  0  0  0  0  0  0  0  0
  141.3070   82.1050  219.9310 C   0  0  0  0  0  0  0  0  0  0  0  0
  140.1040   82.9830  220.3620 C   0  0  0  0  0  0  0  0  0  0  0  0
  139.1420   82.0670  221.0230 N   0  0  0  0  0  0  0  0  0  0  0  0
  138.3700   82.6150  222.0540 C   0  0  0  0  0  0  0  0  0  0  0  0
  138.6000   83.8660  222.2880 O   0  0  0  0  0  0  0  0  0  0  0  0
  137.3590   81.9110  222.8670 C   0  0  2  0  0  0  0  0  0  0  0  0
  136.3300   82.7500  223.4340 N   0  0  0  0  0  0  0  0  0  0  0  0
  137.9100   81.0340  223.9300 C   0  0  0  0  0  0  0  0  0  0  0  0
  138.7400   79.9050  223.4720 C   0  0  0  0  0  0  0  0  0  0  0  0
  138.1930   78.6890  223.0830 C   0  0  0  0  0  0  0  0  0  0  0  0
  138.9590   77.6250  222.6560 C   0  0  0  0  0  0  0  0  0  0  0  0
  140.3160   77.7460  222.6050 C   0  0  0  0  0  0  0  0  0  0  0  0
  141.1070   76.6940  222.1800 O   0  0  0  0  0  0  0  0  0  0  0  0
  140.8900   78.9420  222.9860 C   0  0  0  0  0  0  0  0  0  0  0  0
  142.2860   79.0110  222.9250 C   0  0  0  0  0  0  0  0  0  0  0  0
  142.9230   80.1920  223.3100 C   0  0  0  0  0  0  0  0  0  0  0  0
  142.1760   81.2800  223.7460 C   0  0  0  0  0  0  0  0  0  0  0  0
  140.7950   81.1630  223.7870 C   0  0  0  0  0  0  0  0  0  0  0  0
  140.1350   80.0070  223.4120 C   0  0  0  0  0  0  0  0  0  0  0  0
  139.1430   80.7260  220.5180 C   0  0  0  0  0  0  0  0  0  0  0  0
  139.5890   80.6060  219.0760 C   0  0  0  0  0  0  0  0  0  0  0  0
  143.2531   84.0802  218.1311 H   0  0  0  0  0  0  0  0  0  0  0  0
  144.1308   84.2714  216.5755 H   0  0  0  0  0  0  0  0  0  0  0  0
  142.3811   83.8648  216.5755 H   0  0  0  0  0  0  0  0  0  0  0  0
  144.4075   82.0489  216.3130 H   0  0  0  0  0  0  0  0  0  0  0  0
  144.0991   82.0001  218.0920 H   0  0  0  0  0  0  0  0  0  0  0  0
  141.8398   79.3181  220.2417 H   0  0  0  0  0  0  0  0  0  0  0  0
  142.5297   76.9434  220.4429 H   0  0  0  0  0  0  0  0  0  0  0  0
  143.2448   75.6439  218.4679 H   0  0  0  0  0  0  0  0  0  0  0  0
  143.2752   76.7226  216.2525 H   0  0  0  0  0  0  0  0  0  0  0  0
  142.5940   79.1090  216.0045 H   0  0  0  0  0  0  0  0  0  0  0  0
  140.4256   82.1321  217.9397 H   0  0  0  0  0  0  0  0  0  0  0  0
  141.5712   81.3802  220.7151 H   0  0  0  0  0  0  0  0  0  0  0  0
  142.2266   82.6804  219.7488 H   0  0  0  0  0  0  0  0  0  0  0  0
  140.4329   83.7629  221.0645 H   0  0  0  0  0  0  0  0  0  0  0  0
  139.6477   83.4908  219.4995 H   0  0  0  0  0  0  0  0  0  0  0  0
  136.8896   81.2725  222.1041 H   0  0  0  0  0  0  0  0  0  0  0  0
  135.5390   82.8230  222.7230 H   0  0  0  0  0  0  0  0  0  0  0  0
  136.7380   83.7320  223.3970 H   0  0  0  0  0  0  0  0  0  0  0  0
  138.5269   81.6573  224.5941 H   0  0  0  0  0  0  0  0  0  0  0  0
  137.0369   80.5795  224.4210 H   0  0  0  0  0  0  0  0  0  0  0  0
  137.1000   78.5695  223.1171 H   0  0  0  0  0  0  0  0  0  0  0  0
  138.4771   76.6822  222.3577 H   0  0  0  0  0  0  0  0  0  0  0  0
  142.0880   76.8940  222.0340 H   0  0  0  0  0  0  0  0  0  0  0  0
  142.8729   78.1475  222.5788 H   0  0  0  0  0  0  0  0  0  0  0  0
  144.0200   80.2618  223.2682 H   0  0  0  0  0  0  0  0  0  0  0  0
  142.6699   82.2140  224.0520 H   0  0  0  0  0  0  0  0  0  0  0  0
  140.2015   82.0228  224.1311 H   0  0  0  0  0  0  0  0  0  0  0  0
  139.8213   80.1236  221.1401 H   0  0  0  0  0  0  0  0  0  0  0  0
  138.1020   80.3727  220.5573 H   0  0  0  0  0  0  0  0  0  0  0  0
  139.8177   79.5473  218.8841 H   0  0  0  0  0  0  0  0  0  0  0  0
  138.7573   81.0095  218.4798 H   0  0  0  0  0  0  0  0  0  0  0  0
  1  2  1  0
  2  3  1  0
  3  4  2  0
  3  5  1  0
  5  6  1  0
  6  7  2  0
  7  8  1  0
  8  9  2  0
  9 10  1  0
 10 11  2  0
  5 12  1  0
 12 13  1  0
 13 14  1  0
 14 15  1  0
 15 16  1  0
 16 17  2  0
 16 18  1  0
 18 19  1  0
 18 20  1  0
 20 21  1  0
 21 22  2  0
 22 23  1  0
 23 24  2  0
 24 25  1  0
 24 26  1  0
 26 27  2  0
 27 28  1  0
 28 29  2  0
 29 30  1  0
 30 31  2  0
 15 32  1  0
 32 33  1  0
 11  6  1  0
 33 12  1  0
 31 21  1  0
 31 26  1  0
  1 34  1  0
  1 35  1  0
  1 36  1  0
  2 37  1  0
  2 38  1  0
  7 39  1  0
  8 40  1  0
  9 41  1  0
 10 42  1  0
 11 43  1  0
 12 44  1  0
 13 45  1  0
 13 46  1  0
 14 47  1  0
 14 48  1  0
 18 49  1  6
 19 50  1  0
 19 51  1  0
 20 52  1  0
 20 53  1  0
 22 54  1  0
 23 55  1  0
 25 56  1  0
 27 57  1  0
 28 58  1  0
 29 59  1  0
 30 60  1  0
 32 61  1  0
 32 62  1  0
 33 63  1  0
 33 64  1  0
M  END
>  <smiles>  (5) 
CCC(=O)N(c1ccccc1)C1CCN(C(=O)[C@H](N)Cc2ccc(O)c3ccccc23)CC1

>  <score_type>  (5) 
oracle

>  <origin>  (5) 
autodockgpu

>  <m_score__min__energy>  (5) 
-10.050000000000001

>  <m_primary>  (5) 
energy

>  <rmsd>  (5) 
5.791563515235424

>  <m_score__min__rmsd>  (5) 
5.791563515235424

>  <meeko>  (5) 
{"free_energy": -6.39, "intermolecular_energy": -9.07, "internal_energy": -3.63, "cluster_size": 11, "cluster_id": 11, "rank_in_cluster": 8}

>  <energy>  (5) 
-9.24

>  <cluster_rmsd>  (5) 
0.74

>  <cluster>  (5) 
1

$$$$

     RDKit          3D

 64 67  0  0  0  0  0  0  0  0999 V2000
  142.5650   79.5970  218.3000 C   0  0  0  0  0  0  0  0  0  0  0  0
  141.9380   78.2350  218.2920 C   0  0  0  0  0  0  0  0  0  0  0  0
  142.1960   77.5300  219.5700 C   0  0  0  0  0  0  0  0  0  0  0  0
  143.3120   76.9150  219.7180 O   0  0  0  0  0  0  0  0  0  0  0  0
  141.2680   77.4960  220.6520 N   0  0  0  0  0  0  0  0  0  0  0  0
  141.3770   78.5760  221.5890 C   0  0  0  0  0  0  0  0  0  0  0  0
  141.0890   79.8870  221.2400 C   0  0  0  0  0  0  0  0  0  0  0  0
  141.2090   80.8840  222.2000 C   0  0  0  0  0  0  0  0  0  0  0  0
  141.6040   80.6070  223.4900 C   0  0  0  0  0  0  0  0  0  0  0  0
  141.8860   79.3220  223.8330 C   0  0  0  0  0  0  0  0  0  0  0  0
  141.7760   78.2930  222.8880 C   0  0  0  0  0  0  0  0  0  0  0  0
  140.3270   76.4260  220.7520 C   0  0  0  0  0  0  0  0  0  0  0  0
  139.5560   76.4040  222.0740 C   0  0  0  0  0  0  0  0  0  0  0  0
  138.4210   75.3890  221.7840 C   0  0  0  0  0  0  0  0  0  0  0  0
  139.0390   74.0440  221.8680 N   0  0  0  0  0  0  0  0  0  0  0  0
  138.2160   73.0090  222.3250 C   0  0  0  0  0  0  0  0  0  0  0  0
  137.0070   73.3710  222.6080 O   0  0  0  0  0  0  0  0  0  0  0  0
  138.5970   71.5950  222.5070 C   0  0  2  0  0  0  0  0  0  0  0  0
  137.5640   70.7410  223.0440 N   0  0  0  0  0  0  0  0  0  0  0  0
  139.8510   71.3760  223.2700 C   0  0  0  0  0  0  0  0  0  0  0  0
  139.7900   70.3600  224.3370 C   0  0  0  0  0  0  0  0  0  0  0  0
  139.3060   69.0770  224.1150 C   0  0  0  0  0  0  0  0  0  0  0  0
  139.2400   68.1190  225.1030 C   0  0  0  0  0  0  0  0  0  0  0  0
  139.6620   68.4200  226.3650 C   0  0  0  0  0  0  0  0  0  0  0  0
  139.6070   67.4760  227.3750 O   0  0  0  0  0  0  0  0  0  0  0  0
  140.1470   69.6870  226.6180 C   0  0  0  0  0  0  0  0  0  0  0  0
  140.5570   69.9470  227.9290 C   0  0  0  0  0  0  0  0  0  0  0  0
  141.0460   71.2160  228.2470 C   0  0  0  0  0  0  0  0  0  0  0  0
  141.1220   72.2010  227.2700 C   0  0  0  0  0  0  0  0  0  0  0  0
  140.7050   71.8940  225.9840 C   0  0  0  0  0  0  0  0  0  0  0  0
  140.2170   70.6460  225.6390 C   0  0  0  0  0  0  0  0  0  0  0  0
  140.4170   73.9890  221.4780 C   0  0  0  0  0  0  0  0  0  0  0  0
  140.8250   75.0600  220.4890 C   0  0  0  0  0  0  0  0  0  0  0  0
  142.7160   79.9250  219.3390 H   0  0  0  0  0  0  0  0  0  0  0  0
  143.5353   79.5570  217.7834 H   0  0  0  0  0  0  0  0  0  0  0  0
  141.9036   80.3082  217.7834 H   0  0  0  0  0  0  0  0  0  0  0  0
  140.8521   78.3386  218.1500 H   0  0  0  0  0  0  0  0  0  0  0  0
  142.3771   77.6492  217.4710 H   0  0  0  0  0  0  0  0  0  0  0  0
  140.7698   80.1341  220.2167 H   0  0  0  0  0  0  0  0  0  0  0  0
  140.9822   81.9238  221.9220 H   0  0  0  0  0  0  0  0  0  0  0  0
  141.6901   81.4141  224.2324 H   0  0  0  0  0  0  0  0  0  0  0  0
  142.2029   79.0882  224.8601 H   0  0  0  0  0  0  0  0  0  0  0  0
  142.0068   77.2570  223.1768 H   0  0  0  0  0  0  0  0  0  0  0  0
  139.6593   76.6835  219.9166 H   0  0  0  0  0  0  0  0  0  0  0  0
  140.1948   76.0604  222.9010 H   0  0  0  0  0  0  0  0  0  0  0  0
  139.1902   77.3938  222.3846 H   0  0  0  0  0  0  0  0  0  0  0  0
  137.6202   75.4883  222.5316 H   0  0  0  0  0  0  0  0  0  0  0  0
  137.9703   75.5625  220.7957 H   0  0  0  0  0  0  0  0  0  0  0  0
  138.7731   71.2951  221.4634 H   0  0  0  0  0  0  0  0  0  0  0  0
  136.9580   70.4080  222.2320 H   0  0  0  0  0  0  0  0  0  0  0  0
  136.9000   71.4080  223.5420 H   0  0  0  0  0  0  0  0  0  0  0  0
  140.6296   71.0682  222.5565 H   0  0  0  0  0  0  0  0  0  0  0  0
  140.0581   72.3287  223.7795 H   0  0  0  0  0  0  0  0  0  0  0  0
  138.9597   68.8140  223.1046 H   0  0  0  0  0  0  0  0  0  0  0  0
  138.8490   67.1164  224.8754 H   0  0  0  0  0  0  0  0  0  0  0  0
  140.1260   66.6210  227.2260 H   0  0  0  0  0  0  0  0  0  0  0  0
  140.4954   69.1636  228.6988 H   0  0  0  0  0  0  0  0  0  0  0  0
  141.3720   71.4364  229.2742 H   0  0  0  0  0  0  0  0  0  0  0  0
  141.5050   73.2034  227.5118 H   0  0  0  0  0  0  0  0  0  0  0  0
  140.7643   72.6719  225.2085 H   0  0  0  0  0  0  0  0  0  0  0  0
  141.0357   74.0993  222.3808 H   0  0  0  0  0  0  0  0  0  0  0  0
  140.5651   73.0217  220.9756 H   0  0  0  0  0  0  0  0  0  0  0  0
  141.9241   75.1019  220.4766 H   0  0  0  0  0  0  0  0  0  0  0  0
  140.3676   74.7629  219.5338 H   0  0  0  0  0  0  0  0  0  0  0  0
  1  2  1  0
  2  3  1  0
  3  4  2  0
  3  5  1  0
  5  6  1  0
  6  7  2  0
  7  8  1  0
  8  9  2  0
  9 10  1  0
 10 11  2  0
  5 12  1  0
 12 13  1  0
 13 14  1  0
 14 15  1  0
 15 16  1  0
 16 17  2  0
 16 18  1  0
 18 19  1  0
 18 20  1  0
 20 21  1  0
 21 22  2  0
 22 23  1  0
 23 24  2  0
 24 25  1  0
 24 26  1  0
 26 27  2  0
 27 28  1  0
 28 29  2  0
 29 30  1  0
 30 31  2  0
 15 32  1  0
 32 33  1  0
 11  6  1  0
 33 12  1  0
 31 21  1  0
 31 26  1  0
  1 34  1  0
  1 35  1  0
  1 36  1  0
  2 37  1  0
  2 38  1  0
  7 39  1  0
  8 40  1  0
  9 41  1  0
 10 42  1  0
 11 43  1  0
 12 44  1  0
 13 45  1  0
 13 46  1  0
 14 47  1  0
 14 48  1  0
 18 49  1  6
 19 50  1  0
 19 51  1  0
 20 52  1  0
 20 53  1  0
 22 54  1  0
 23 55  1  0
 25 56  1  0
 27 57  1  0
 28 58  1  0
 29 59  1  0
 30 60  1  0
 32 61  1  0
 32 62  1  0
 33 63  1  0
 33 64  1  0
M  END
>  <smiles>  (6) 
CCC(=O)N(c1ccccc1)C1CCN(C(=O)[C@H](N)Cc2ccc(O)c3ccccc23)CC1

>  <score_type>  (6) 
oracle

>  <origin>  (6) 
autodockgpu

>  <m_score__min__energy>  (6) 
-10.050000000000001

>  <m_primary>  (6) 
energy

>  <rmsd>  (6) 
6.708310487742329

>  <m_score__min__rmsd>  (6) 
6.708310487742329

>  <meeko>  (6) 
{"free_energy": -8.79, "intermolecular_energy": -11.48, "internal_energy": -1.82, "cluster_size": 18, "cluster_id": 1, "rank_in_cluster": 8}

>  <energy>  (6) 
-9.17

>  <cluster_rmsd>  (6) 
0.84

>  <cluster>  (6) 
1

$$$$

     RDKit          3D

 64 67  0  0  0  0  0  0  0  0999 V2000
  146.9230   73.3800  222.1340 C   0  0  0  0  0  0  0  0  0  0  0  0
  145.5720   73.0310  221.5870 C   0  0  0  0  0  0  0  0  0  0  0  0
  145.6080   72.9560  220.1060 C   0  0  0  0  0  0  0  0  0  0  0  0
  146.6810   73.3110  219.4990 O   0  0  0  0  0  0  0  0  0  0  0  0
  144.5110   72.5090  219.3130 N   0  0  0  0  0  0  0  0  0  0  0  0
  144.3630   71.0850  219.2150 C   0  0  0  0  0  0  0  0  0  0  0  0
  145.4380   70.2490  218.9540 C   0  0  0  0  0  0  0  0  0  0  0  0
  145.2250   68.8780  218.8800 C   0  0  0  0  0  0  0  0  0  0  0  0
  143.9760   68.3260  219.0590 C   0  0  0  0  0  0  0  0  0  0  0  0
  142.9220   69.1460  219.3160 C   0  0  0  0  0  0  0  0  0  0  0  0
  143.1030   70.5320  219.3970 C   0  0  0  0  0  0  0  0  0  0  0  0
  143.6590   73.4590  218.6720 C   0  0  0  0  0  0  0  0  0  0  0  0
  144.2880   74.1220  217.4440 C   0  0  0  0  0  0  0  0  0  0  0  0
  143.0730   74.8240  216.7830 C   0  0  0  0  0  0  0  0  0  0  0  0
  142.8170   76.0450  217.5850 N   0  0  0  0  0  0  0  0  0  0  0  0
  142.3050   77.1470  216.8910 C   0  0  0  0  0  0  0  0  0  0  0  0
  142.1160   76.9450  215.6280 O   0  0  0  0  0  0  0  0  0  0  0  0
  141.9800   78.4710  217.4570 C   0  0  2  0  0  0  0  0  0  0  0  0
  143.0130   79.0630  218.2750 N   0  0  0  0  0  0  0  0  0  0  0  0
  140.6880   78.5430  218.1820 C   0  0  0  0  0  0  0  0  0  0  0  0
  140.4990   77.5630  219.2680 C   0  0  0  0  0  0  0  0  0  0  0  0
  139.9230   76.3170  219.0530 C   0  0  0  0  0  0  0  0  0  0  0  0
  139.7380   75.3940  220.0590 C   0  0  0  0  0  0  0  0  0  0  0  0
  140.1290   75.6920  221.3310 C   0  0  0  0  0  0  0  0  0  0  0  0
  139.9550   74.7830  222.3590 O   0  0  0  0  0  0  0  0  0  0  0  0
  140.7040   76.9230  221.5770 C   0  0  0  0  0  0  0  0  0  0  0  0
  141.0770   77.1830  222.8990 C   0  0  0  0  0  0  0  0  0  0  0  0
  141.6530   78.4170  223.2100 C   0  0  0  0  0  0  0  0  0  0  0  0
  141.8500   79.3680  222.2160 C   0  0  0  0  0  0  0  0  0  0  0  0
  141.4640   79.0610  220.9190 C   0  0  0  0  0  0  0  0  0  0  0  0
  140.8920   77.8480  220.5810 C   0  0  0  0  0  0  0  0  0  0  0  0
  143.1440   75.9320  218.9750 C   0  0  0  0  0  0  0  0  0  0  0  0
  143.0740   74.5210  219.5170 C   0  0  0  0  0  0  0  0  0  0  0  0
  146.8870   73.3707  223.2334 H   0  0  0  0  0  0  0  0  0  0  0  0
  147.6614   72.6431  221.7851 H   0  0  0  0  0  0  0  0  0  0  0  0
  147.2121   74.3823  221.7851 H   0  0  0  0  0  0  0  0  0  0  0  0
  145.2603   72.0562  221.9902 H   0  0  0  0  0  0  0  0  0  0  0  0
  144.8580   73.8134  221.8837 H   0  0  0  0  0  0  0  0  0  0  0  0
  146.4455   70.6655  218.8075 H   0  0  0  0  0  0  0  0  0  0  0  0
  146.0778   68.2149  218.6727 H   0  0  0  0  0  0  0  0  0  0  0  0
  143.8330   67.2372  218.9950 H   0  0  0  0  0  0  0  0  0  0  0  0
  141.9195   68.7171  219.4613 H   0  0  0  0  0  0  0  0  0  0  0  0
  142.2430   71.1854  219.6058 H   0  0  0  0  0  0  0  0  0  0  0  0
  142.8298   72.7996  218.3759 H   0  0  0  0  0  0  0  0  0  0  0  0
  145.0579   74.8512  217.7364 H   0  0  0  0  0  0  0  0  0  0  0  0
  144.8013   73.4134  216.7774 H   0  0  0  0  0  0  0  0  0  0  0  0
  143.3071   75.0929  215.7424 H   0  0  0  0  0  0  0  0  0  0  0  0
  142.1919   74.1658  216.7606 H   0  0  0  0  0  0  0  0  0  0  0  0
  141.8922   79.0705  216.5389 H   0  0  0  0  0  0  0  0  0  0  0  0
  143.8310   79.3140  217.6390 H   0  0  0  0  0  0  0  0  0  0  0  0
  143.4170   78.2470  218.8250 H   0  0  0  0  0  0  0  0  0  0  0  0
  140.6029   79.5491  218.6184 H   0  0  0  0  0  0  0  0  0  0  0  0
  139.9157   78.3089  217.4345 H   0  0  0  0  0  0  0  0  0  0  0  0
  139.6004   76.0559  218.0343 H   0  0  0  0  0  0  0  0  0  0  0  0
  139.2767   74.4204  219.8370 H   0  0  0  0  0  0  0  0  0  0  0  0
  139.0480   74.7720  222.8060 H   0  0  0  0  0  0  0  0  0  0  0  0
  140.9193   76.4272  223.6825 H   0  0  0  0  0  0  0  0  0  0  0  0
  141.9518   78.6368  224.2456 H   0  0  0  0  0  0  0  0  0  0  0  0
  142.3020   80.3426  222.4522 H   0  0  0  0  0  0  0  0  0  0  0  0
  141.6189   79.8111  220.1295 H   0  0  0  0  0  0  0  0  0  0  0  0
  144.1681   76.3066  219.1198 H   0  0  0  0  0  0  0  0  0  0  0  0
  142.3933   76.5188  219.5246 H   0  0  0  0  0  0  0  0  0  0  0  0
  143.6008   74.5076  220.4826 H   0  0  0  0  0  0  0  0  0  0  0  0
  142.0011   74.2860  219.5778 H   0  0  0  0  0  0  0  0  0  0  0  0
  1  2  1  0
  2  3  1  0
  3  4  2  0
  3  5  1  0
  5  6  1  0
  6  7  2  0
  7  8  1  0
  8  9  2  0
  9 10  1  0
 10 11  2  0
  5 12  1  0
 12 13  1  0
 13 14  1  0
 14 15  1  0
 15 16  1  0
 16 17  2  0
 16 18  1  0
 18 19  1  0
 18 20  1  0
 20 21  1  0
 21 22  2  0
 22 23  1  0
 23 24  2  0
 24 25  1  0
 24 26  1  0
 26 27  2  0
 27 28  1  0
 28 29  2  0
 29 30  1  0
 30 31  2  0
 15 32  1  0
 32 33  1  0
 11  6  1  0
 33 12  1  0
 31 21  1  0
 31 26  1  0
  1 34  1  0
  1 35  1  0
  1 36  1  0
  2 37  1  0
  2 38  1  0
  7 39  1  0
  8 40  1  0
  9 41  1  0
 10 42  1  0
 11 43  1  0
 12 44  1  0
 13 45  1  0
 13 46  1  0
 14 47  1  0
 14 48  1  0
 18 49  1  6
 19 50  1  0
 19 51  1  0
 20 52  1  0
 20 53  1  0
 22 54  1  0
 23 55  1  0
 25 56  1  0
 27 57  1  0
 28 58  1  0
 29 59  1  0
 30 60  1  0
 32 61  1  0
 32 62  1  0
 33 63  1  0
 33 64  1  0
M  END
>  <smiles>  (7) 
CCC(=O)N(c1ccccc1)C1CCN(C(=O)[C@H](N)Cc2ccc(O)c3ccccc23)CC1

>  <score_type>  (7) 
oracle

>  <origin>  (7) 
autodockgpu

>  <m_score__min__energy>  (7) 
-10.050000000000001

>  <m_primary>  (7) 
energy

>  <rmsd>  (7) 
5.800251589371063

>  <m_score__min__rmsd>  (7) 
5.800251589371063

>  <meeko>  (7) 
{"free_energy": -7.48, "intermolecular_energy": -10.17, "internal_energy": -2.3, "cluster_size": 2, "cluster_id": 6, "rank_in_cluster": 2}

>  <energy>  (7) 
-8.91

>  <cluster_rmsd>  (7) 
1.39

>  <cluster>  (7) 
1

$$$$

     RDKit          3D

 64 67  0  0  0  0  0  0  0  0999 V2000
  142.7290   80.6010  222.9350 C   0  0  0  0  0  0  0  0  0  0  0  0
  142.2000   81.1050  221.6270 C   0  0  0  0  0  0  0  0  0  0  0  0
  141.5330   80.0160  220.8740 C   0  0  0  0  0  0  0  0  0  0  0  0
  141.7650   79.9080  219.6170 O   0  0  0  0  0  0  0  0  0  0  0  0
  140.6440   79.0750  221.4700 N   0  0  0  0  0  0  0  0  0  0  0  0
  139.4680   79.6350  222.0710 C   0  0  0  0  0  0  0  0  0  0  0  0
  139.4240   79.9980  223.4080 C   0  0  0  0  0  0  0  0  0  0  0  0
  138.2540   80.5420  223.9230 C   0  0  0  0  0  0  0  0  0  0  0  0
  137.1360   80.7330  223.1410 C   0  0  0  0  0  0  0  0  0  0  0  0
  137.1790   80.3780  221.8290 C   0  0  0  0  0  0  0  0  0  0  0  0
  138.3430   79.8260  221.2800 C   0  0  0  0  0  0  0  0  0  0  0  0
  140.9620   77.6820  221.4540 C   0  0  0  0  0  0  0  0  0  0  0  0
  140.4800   76.9550  220.1960 C   0  0  0  0  0  0  0  0  0  0  0  0
  141.2220   75.5970  220.2890 C   0  0  0  0  0  0  0  0  0  0  0  0
  140.4890   74.7960  221.3000 N   0  0  0  0  0  0  0  0  0  0  0  0
  140.4750   73.4110  221.1040 C   0  0  0  0  0  0  0  0  0  0  0  0
  141.1190   73.0110  220.0560 O   0  0  0  0  0  0  0  0  0  0  0  0
  139.8090   72.4070  221.9570 C   0  0  2  0  0  0  0  0  0  0  0  0
  138.3810   72.5630  222.0950 N   0  0  0  0  0  0  0  0  0  0  0  0
  140.4090   72.2300  223.3030 C   0  0  0  0  0  0  0  0  0  0  0  0
  140.0810   70.9710  223.9970 C   0  0  0  0  0  0  0  0  0  0  0  0
  139.5150   69.8850  223.3400 C   0  0  0  0  0  0  0  0  0  0  0  0
  139.2010   68.7040  223.9780 C   0  0  0  0  0  0  0  0  0  0  0  0
  139.4450   68.5710  225.3130 C   0  0  0  0  0  0  0  0  0  0  0  0
  139.1390   67.3960  225.9760 O   0  0  0  0  0  0  0  0  0  0  0  0
  140.0060   69.6320  225.9940 C   0  0  0  0  0  0  0  0  0  0  0  0
  140.2270   69.4480  227.3620 C   0  0  0  0  0  0  0  0  0  0  0  0
  140.7810   70.4920  228.1060 C   0  0  0  0  0  0  0  0  0  0  0  0
  141.1070   71.6940  227.4890 C   0  0  0  0  0  0  0  0  0  0  0  0
  140.8700   71.8280  226.1290 C   0  0  0  0  0  0  0  0  0  0  0  0
  140.3230   70.8120  225.3660 C   0  0  0  0  0  0  0  0  0  0  0  0
  139.8770   75.5610  222.3450 C   0  0  0  0  0  0  0  0  0  0  0  0
  140.5580   76.8820  222.6290 C   0  0  0  0  0  0  0  0  0  0  0  0
  142.2029   81.1022  223.7609 H   0  0  0  0  0  0  0  0  0  0  0  0
  142.5667   79.5151  223.0022 H   0  0  0  0  0  0  0  0  0  0  0  0
  143.8058   80.8156  223.0022 H   0  0  0  0  0  0  0  0  0  0  0  0
  141.4738   81.9090  221.8174 H   0  0  0  0  0  0  0  0  0  0  0  0
  143.0418   81.4832  221.0284 H   0  0  0  0  0  0  0  0  0  0  0  0
  140.3040   79.8572  224.0528 H   0  0  0  0  0  0  0  0  0  0  0  0
  138.2193   80.8281  224.9846 H   0  0  0  0  0  0  0  0  0  0  0  0
  136.2214   81.1666  223.5718 H   0  0  0  0  0  0  0  0  0  0  0  0
  136.2928   80.5255  221.1942 H   0  0  0  0  0  0  0  0  0  0  0  0
  138.3662   79.5425  220.2174 H   0  0  0  0  0  0  0  0  0  0  0  0
  142.0604   77.7381  221.4749 H   0  0  0  0  0  0  0  0  0  0  0  0
  139.3892   76.8140  220.2116 H   0  0  0  0  0  0  0  0  0  0  0  0
  140.6858   77.5046  219.2656 H   0  0  0  0  0  0  0  0  0  0  0  0
  141.2081   75.0869  219.3145 H   0  0  0  0  0  0  0  0  0  0  0  0
  142.2762   75.7336  220.5719 H   0  0  0  0  0  0  0  0  0  0  0  0
  139.9926   71.4913  221.3758 H   0  0  0  0  0  0  0  0  0  0  0  0
  138.0110   73.0020  221.1960 H   0  0  0  0  0  0  0  0  0  0  0  0
  138.2670   73.3670  222.7830 H   0  0  0  0  0  0  0  0  0  0  0  0
  141.5024   72.2785  223.1930 H   0  0  0  0  0  0  0  0  0  0  0  0
  139.9829   73.0309  223.9250 H   0  0  0  0  0  0  0  0  0  0  0  0
  139.3084   69.9716  222.2631 H   0  0  0  0  0  0  0  0  0  0  0  0
  138.7554   67.8723  223.4125 H   0  0  0  0  0  0  0  0  0  0  0  0
  139.8030   67.0830  226.6720 H   0  0  0  0  0  0  0  0  0  0  0  0
  139.9682   68.4945  227.8456 H   0  0  0  0  0  0  0  0  0  0  0  0
  140.9599   70.3626  229.1836 H   0  0  0  0  0  0  0  0  0  0  0  0
  141.5438   72.5216  228.0671 H   0  0  0  0  0  0  0  0  0  0  0  0
  141.1268   72.7785  225.6384 H   0  0  0  0  0  0  0  0  0  0  0  0
  138.8350   75.7651  222.0578 H   0  0  0  0  0  0  0  0  0  0  0  0
  139.9570   74.9610  223.2635 H   0  0  0  0  0  0  0  0  0  0  0  0
  139.8659   77.4929  223.2272 H   0  0  0  0  0  0  0  0  0  0  0  0
  141.4965   76.6215  223.1403 H   0  0  0  0  0  0  0  0  0  0  0  0
  1  2  1  0
  2  3  1  0
  3  4  2  0
  3  5  1  0
  5  6  1  0
  6  7  2  0
  7  8  1  0
  8  9  2  0
  9 10  1  0
 10 11  2  0
  5 12  1  0
 12 13  1  0
 13 14  1  0
 14 15  1  0
 15 16  1  0
 16 17  2  0
 16 18  1  0
 18 19  1  0
 18 20  1  0
 20 21  1  0
 21 22  2  0
 22 23  1  0
 23 24  2  0
 24 25  1  0
 24 26  1  0
 26 27  2  0
 27 28  1  0
 28 29  2  0
 29 30  1  0
 30 31  2  0
 15 32  1  0
 32 33  1  0
 11  6  1  0
 33 12  1  0
 31 21  1  0
 31 26  1  0
  1 34  1  0
  1 35  1  0
  1 36  1  0
  2 37  1  0
  2 38  1  0
  7 39  1  0
  8 40  1  0
  9 41  1  0
 10 42  1  0
 11 43  1  0
 12 44  1  0
 13 45  1  0
 13 46  1  0
 14 47  1  0
 14 48  1  0
 18 49  1  6
 19 50  1  0
 19 51  1  0
 20 52  1  0
 20 53  1  0
 22 54  1  0
 23 55  1  0
 25 56  1  0
 27 57  1  0
 28 58  1  0
 29 59  1  0
 30 60  1  0
 32 61  1  0
 32 62  1  0
 33 63  1  0
 33 64  1  0
M  END
>  <smiles>  (8) 
CCC(=O)N(c1ccccc1)C1CCN(C(=O)[C@H](N)Cc2ccc(O)c3ccccc23)CC1

>  <score_type>  (8) 
oracle

>  <origin>  (8) 
autodockgpu

>  <m_score__min__energy>  (8) 
-10.050000000000001

>  <m_primary>  (8) 
energy

>  <rmsd>  (8) 
5.8249026865802405

>  <m_score__min__rmsd>  (8) 
5.8249026865802405

>  <meeko>  (8) 
{"free_energy": -8.35, "intermolecular_energy": -11.04, "internal_energy": -1.61, "cluster_size": 18, "cluster_id": 1, "rank_in_cluster": 15}

>  <energy>  (8) 
-8.79

>  <cluster_rmsd>  (8) 
1.57

>  <cluster>  (8) 
1

$$$$

     RDKit          3D

 64 67  0  0  0  0  0  0  0  0999 V2000
  146.3880   73.1730  221.8670 C   0  0  0  0  0  0  0  0  0  0  0  0
  145.8240   74.1300  220.8610 C   0  0  0  0  0  0  0  0  0  0  0  0
  145.4140   73.4160  219.6280 C   0  0  0  0  0  0  0  0  0  0  0  0
  146.3210   73.0720  218.7880 O   0  0  0  0  0  0  0  0  0  0  0  0
  144.0610   73.0870  219.3210 N   0  0  0  0  0  0  0  0  0  0  0  0
  143.7210   71.7000  219.4540 C   0  0  0  0  0  0  0  0  0  0  0  0
  142.4120   71.2750  219.6270 C   0  0  0  0  0  0  0  0  0  0  0  0
  142.1520   69.9150  219.7430 C   0  0  0  0  0  0  0  0  0  0  0  0
  143.1590   68.9760  219.6890 C   0  0  0  0  0  0  0  0  0  0  0  0
  144.4420   69.3920  219.5190 C   0  0  0  0  0  0  0  0  0  0  0  0
  144.7370   70.7560  219.4000 C   0  0  0  0  0  0  0  0  0  0  0  0
  143.1560   74.1080  218.9000 C   0  0  0  0  0  0  0  0  0  0  0  0
  143.3270   74.5180  217.4360 C   0  0  0  0  0  0  0  0  0  0  0  0
  142.0520   75.3610  217.1730 C   0  0  0  0  0  0  0  0  0  0  0  0
  142.2950   76.6830  217.8010 N   0  0  0  0  0  0  0  0  0  0  0  0
  141.6980   77.7850  217.1800 C   0  0  0  0  0  0  0  0  0  0  0  0
  140.9990   77.4960  216.1310 O   0  0  0  0  0  0  0  0  0  0  0  0
  141.7990   79.1960  217.6020 C   0  0  2  0  0  0  0  0  0  0  0  0
  143.1320   79.6520  217.9190 N   0  0  0  0  0  0  0  0  0  0  0  0
  140.8790   79.5900  218.6980 C   0  0  0  0  0  0  0  0  0  0  0  0
  140.6440   78.5740  219.7410 C   0  0  0  0  0  0  0  0  0  0  0  0
  139.8940   77.4280  219.5080 C   0  0  0  0  0  0  0  0  0  0  0  0
  139.6640   76.4740  220.4740 C   0  0  0  0  0  0  0  0  0  0  0  0
  140.1830   76.6380  221.7250 C   0  0  0  0  0  0  0  0  0  0  0  0
  139.9670   75.6950  222.7130 O   0  0  0  0  0  0  0  0  0  0  0  0
  140.9320   77.7680  221.9890 C   0  0  0  0  0  0  0  0  0  0  0  0
  141.4320   77.8930  223.2880 C   0  0  0  0  0  0  0  0  0  0  0  0
  142.1870   79.0210  223.6170 C   0  0  0  0  0  0  0  0  0  0  0  0
  142.4340   80.0010  222.6620 C   0  0  0  0  0  0  0  0  0  0  0  0
  141.9170   79.8290  221.3870 C   0  0  0  0  0  0  0  0  0  0  0  0
  141.1660   78.7230  221.0310 C   0  0  0  0  0  0  0  0  0  0  0  0
  143.1290   76.6520  218.9660 C   0  0  0  0  0  0  0  0  0  0  0  0
  143.0970   75.3380  219.7170 C   0  0  0  0  0  0  0  0  0  0  0  0
  146.1725   73.5386  222.8818 H   0  0  0  0  0  0  0  0  0  0  0  0
  145.9290   72.1830  221.7288 H   0  0  0  0  0  0  0  0  0  0  0  0
  147.4765   73.0950  221.7288 H   0  0  0  0  0  0  0  0  0  0  0  0
  144.9475   74.6339  221.2944 H   0  0  0  0  0  0  0  0  0  0  0  0
  146.5990   74.8661  220.6012 H   0  0  0  0  0  0  0  0  0  0  0  0
  141.5905   72.0051  219.6718 H   0  0  0  0  0  0  0  0  0  0  0  0
  141.1139   69.5787  219.8817 H   0  0  0  0  0  0  0  0  0  0  0  0
  142.9279   67.9046  219.7822 H   0  0  0  0  0  0  0  0  0  0  0  0
  145.2545   68.6518  219.4746 H   0  0  0  0  0  0  0  0  0  0  0  0
  145.7790   71.0807  219.2631 H   0  0  0  0  0  0  0  0  0  0  0  0
  142.1993   73.5857  219.0481 H   0  0  0  0  0  0  0  0  0  0  0  0
  144.2373   75.1193  217.2952 H   0  0  0  0  0  0  0  0  0  0  0  0
  143.4374   73.6642  216.7513 H   0  0  0  0  0  0  0  0  0  0  0  0
  141.8874   75.4767  216.0916 H   0  0  0  0  0  0  0  0  0  0  0  0
  141.1571   74.8765  217.5907 H   0  0  0  0  0  0  0  0  0  0  0  0
  141.4779   79.7082  216.6830 H   0  0  0  0  0  0  0  0  0  0  0  0
  143.3380   80.5060  217.3140 H   0  0  0  0  0  0  0  0  0  0  0  0
  143.7730   78.9250  217.4800 H   0  0  0  0  0  0  0  0  0  0  0  0
  141.2989   80.4821  219.1856 H   0  0  0  0  0  0  0  0  0  0  0  0
  139.9022   79.7562  218.2202 H   0  0  0  0  0  0  0  0  0  0  0  0
  139.4646   77.2759  218.5068 H   0  0  0  0  0  0  0  0  0  0  0  0
  139.0639   75.5828  220.2378 H   0  0  0  0  0  0  0  0  0  0  0  0
  139.0030   75.4970  222.9470 H   0  0  0  0  0  0  0  0  0  0  0  0
  141.2340   77.1149  224.0398 H   0  0  0  0  0  0  0  0  0  0  0  0
  142.5876   79.1345  224.6352 H   0  0  0  0  0  0  0  0  0  0  0  0
  143.0266   80.8932  222.9125 H   0  0  0  0  0  0  0  0  0  0  0  0
  142.1116   80.6020  220.6290 H   0  0  0  0  0  0  0  0  0  0  0  0
  144.1657   76.8456  218.6534 H   0  0  0  0  0  0  0  0  0  0  0  0
  142.7410   77.4184  219.6531 H   0  0  0  0  0  0  0  0  0  0  0  0
  143.9567   75.3246  220.4031 H   0  0  0  0  0  0  0  0  0  0  0  0
  142.1153   75.3106  220.2124 H   0  0  0  0  0  0  0  0  0  0  0  0
  1  2  1  0
  2  3  1  0
  3  4  2  0
  3  5  1  0
  5  6  1  0
  6  7  2  0
  7  8  1  0
  8  9  2  0
  9 10  1  0
 10 11  2  0
  5 12  1  0
 12 13  1  0
 13 14  1  0
 14 15  1  0
 15 16  1  0
 16 17  2  0
 16 18  1  0
 18 19  1  0
 18 20  1  0
 20 21  1  0
 21 22  2  0
 22 23  1  0
 23 24  2  0
 24 25  1  0
 24 26  1  0
 26 27  2  0
 27 28  1  0
 28 29  2  0
 29 30  1  0
 30 31  2  0
 15 32  1  0
 32 33  1  0
 11  6  1  0
 33 12  1  0
 31 21  1  0
 31 26  1  0
  1 34  1  0
  1 35  1  0
  1 36  1  0
  2 37  1  0
  2 38  1  0
  7 39  1  0
  8 40  1  0
  9 41  1  0
 10 42  1  0
 11 43  1  0
 12 44  1  0
 13 45  1  0
 13 46  1  0
 14 47  1  0
 14 48  1  0
 18 49  1  6
 19 50  1  0
 19 51  1  0
 20 52  1  0
 20 53  1  0
 22 54  1  0
 23 55  1  0
 25 56  1  0
 27 57  1  0
 28 58  1  0
 29 59  1  0
 30 60  1  0
 32 61  1  0
 32 62  1  0
 33 63  1  0
 33 64  1  0
M  END
>  <smiles>  (9) 
CCC(=O)N(c1ccccc1)C1CCN(C(=O)[C@H](N)Cc2ccc(O)c3ccccc23)CC1

>  <score_type>  (9) 
oracle

>  <origin>  (9) 
autodockgpu

>  <m_score__min__energy>  (9) 
-10.050000000000001

>  <m_primary>  (9) 
energy

>  <rmsd>  (9) 
5.594327866460952

>  <m_score__min__rmsd>  (9) 
5.594327866460952

>  <meeko>  (9) 
{"free_energy": -7.74, "intermolecular_energy": -10.42, "internal_energy": -2.17, "cluster_size": 2, "cluster_id": 6, "rank_in_cluster": 1}

>  <energy>  (9) 
-8.78

>  <cluster_rmsd>  (9) 
1.69

>  <cluster>  (9) 
1

$$$$

     RDKit          3D

 64 67  0  0  0  0  0  0  0  0999 V2000
  140.7920   81.1640  215.4400 C   0  0  0  0  0  0  0  0  0  0  0  0
  142.2300   81.5370  215.6380 C   0  0  0  0  0  0  0  0  0  0  0  0
  142.6040   81.4490  217.0700 C   0  0  0  0  0  0  0  0  0  0  0  0
  143.6600   82.0600  217.4670 O   0  0  0  0  0  0  0  0  0  0  0  0
  141.8520   80.7210  218.0380 N   0  0  0  0  0  0  0  0  0  0  0  0
  142.2140   79.3410  218.1860 C   0  0  0  0  0  0  0  0  0  0  0  0
  142.1970   78.7020  219.4170 C   0  0  0  0  0  0  0  0  0  0  0  0
  142.5530   77.3610  219.4870 C   0  0  0  0  0  0  0  0  0  0  0  0
  142.9220   76.6470  218.3680 C   0  0  0  0  0  0  0  0  0  0  0  0
  142.9380   77.2740  217.1610 C   0  0  0  0  0  0  0  0  0  0  0  0
  142.5850   78.6250  217.0560 C   0  0  0  0  0  0  0  0  0  0  0  0
  140.8110   81.3700  218.7700 C   0  0  0  0  0  0  0  0  0  0  0  0
  141.3060   82.1230  220.0080 C   0  0  0  0  0  0  0  0  0  0  0  0
  140.0680   82.9700  220.4010 C   0  0  0  0  0  0  0  0  0  0  0  0
  139.1270   82.0400  221.0710 N   0  0  0  0  0  0  0  0  0  0  0  0
  138.3230   82.5860  222.0780 C   0  0  0  0  0  0  0  0  0  0  0  0
  138.5090   83.8490  222.2850 O   0  0  0  0  0  0  0  0  0  0  0  0
  137.3240   81.8700  222.8940 C   0  0  2  0  0  0  0  0  0  0  0  0
  136.2840   82.6940  223.4620 N   0  0  0  0  0  0  0  0  0  0  0  0
  137.8890   81.0020  223.9580 C   0  0  0  0  0  0  0  0  0  0  0  0
  138.7250   79.8770  223.4980 C   0  0  0  0  0  0  0  0  0  0  0  0
  138.1820   78.6640  223.0940 C   0  0  0  0  0  0  0  0  0  0  0  0
  138.9520   77.6040  222.6660 C   0  0  0  0  0  0  0  0  0  0  0  0
  140.3100   77.7260  222.6310 C   0  0  0  0  0  0  0  0  0  0  0  0
  141.1060   76.6770  222.2050 O   0  0  0  0  0  0  0  0  0  0  0  0
  140.8800   78.9190  223.0280 C   0  0  0  0  0  0  0  0  0  0  0  0
  142.2760   78.9890  222.9820 C   0  0  0  0  0  0  0  0  0  0  0  0
  142.9090   80.1670  223.3830 C   0  0  0  0  0  0  0  0  0  0  0  0
  142.1570   81.2510  223.8200 C   0  0  0  0  0  0  0  0  0  0  0  0
  140.7750   81.1330  223.8460 C   0  0  0  0  0  0  0  0  0  0  0  0
  140.1200   79.9800  223.4540 C   0  0  0  0  0  0  0  0  0  0  0  0
  139.1790   80.6880  220.5990 C   0  0  0  0  0  0  0  0  0  0  0  0
  139.6490   80.5480  219.1670 C   0  0  0  0  0  0  0  0  0  0  0  0
  140.3076   81.0383  216.4196 H   0  0  0  0  0  0  0  0  0  0  0  0
  140.2810   81.9593  214.8776 H   0  0  0  0  0  0  0  0  0  0  0  0
  140.7320   80.2206  214.8776 H   0  0  0  0  0  0  0  0  0  0  0  0
  142.8639   80.8511  215.0568 H   0  0  0  0  0  0  0  0  0  0  0  0
  142.3756   82.5731  215.2984 H   0  0  0  0  0  0  0  0  0  0  0  0
  141.9056   79.2496  220.3254 H   0  0  0  0  0  0  0  0  0  0  0  0
  142.5399   76.8549  220.4636 H   0  0  0  0  0  0  0  0  0  0  0  0
  143.1995   75.5857  218.4494 H   0  0  0  0  0  0  0  0  0  0  0  0
  143.2307   76.7151  216.2599 H   0  0  0  0  0  0  0  0  0  0  0  0
  142.6017   79.1209  216.0743 H   0  0  0  0  0  0  0  0  0  0  0  0
  140.4510   82.0732  218.0046 H   0  0  0  0  0  0  0  0  0  0  0  0
  141.5831   81.4264  220.8129 H   0  0  0  0  0  0  0  0  0  0  0  0
  142.2089   82.7239  219.8246 H   0  0  0  0  0  0  0  0  0  0  0  0
  140.3608   83.7773  221.0885 H   0  0  0  0  0  0  0  0  0  0  0  0
  139.6077   83.4404  219.5196 H   0  0  0  0  0  0  0  0  0  0  0  0
  136.8628   81.2247  222.1319 H   0  0  0  0  0  0  0  0  0  0  0  0
  135.4650   82.7060  222.7790 H   0  0  0  0  0  0  0  0  0  0  0  0
  136.6520   83.6890  223.3660 H   0  0  0  0  0  0  0  0  0  0  0  0
  138.5056   81.6329  224.6151 H   0  0  0  0  0  0  0  0  0  0  0  0
  137.0231   80.5433  224.4578 H   0  0  0  0  0  0  0  0  0  0  0  0
  137.0888   78.5441  223.1166 H   0  0  0  0  0  0  0  0  0  0  0  0
  138.4735   76.6639  222.3541 H   0  0  0  0  0  0  0  0  0  0  0  0
  142.0960   76.8660  222.1180 H   0  0  0  0  0  0  0  0  0  0  0  0
  142.8667   78.1284  222.6349 H   0  0  0  0  0  0  0  0  0  0  0  0
  144.0063   80.2374  223.3530 H   0  0  0  0  0  0  0  0  0  0  0  0
  142.6472   82.1828  224.1385 H   0  0  0  0  0  0  0  0  0  0  0  0
  140.1774   81.9894  224.1916 H   0  0  0  0  0  0  0  0  0  0  0  0
  139.8677   80.1235  221.2448 H   0  0  0  0  0  0  0  0  0  0  0  0
  138.1496   80.3018  220.6328 H   0  0  0  0  0  0  0  0  0  0  0  0
  139.9150   79.4931  219.0044 H   0  0  0  0  0  0  0  0  0  0  0  0
  138.8130   80.9094  218.5501 H   0  0  0  0  0  0  0  0  0  0  0  0
  1  2  1  0
  2  3  1  0
  3  4  2  0
  3  5  1  0
  5  6  1  0
  6  7  2  0
  7  8  1  0
  8  9  2  0
  9 10  1  0
 10 11  2  0
  5 12  1  0
 12 13  1  0
 13 14  1  0
 14 15  1  0
 15 16  1  0
 16 17  2  0
 16 18  1  0
 18 19  1  0
 18 20  1  0
 20 21  1  0
 21 22  2  0
 22 23  1  0
 23 24  2  0
 24 25  1  0
 24 26  1  0
 26 27  2  0
 27 28  1  0
 28 29  2  0
 29 30  1  0
 30 31  2  0
 15 32  1  0
 32 33  1  0
 11  6  1  0
 33 12  1  0
 31 21  1  0
 31 26  1  0
  1 34  1  0
  1 35  1  0
  1 36  1  0
  2 37  1  0
  2 38  1  0
  7 39  1  0
  8 40  1  0
  9 41  1  0
 10 42  1  0
 11 43  1  0
 12 44  1  0
 13 45  1  0
 13 46  1  0
 14 47  1  0
 14 48  1  0
 18 49  1  6
 19 50  1  0
 19 51  1  0
 20 52  1  0
 20 53  1  0
 22 54  1  0
 23 55  1  0
 25 56  1  0
 27 57  1  0
 28 58  1  0
 29 59  1  0
 30 60  1  0
 32 61  1  0
 32 62  1  0
 33 63  1  0
 33 64  1  0
M  END
>  <smiles>  (10) 
CCC(=O)N(c1ccccc1)C1CCN(C(=O)[C@H](N)Cc2ccc(O)c3ccccc23)CC1

>  <score_type>  (10) 
oracle

>  <origin>  (10) 
autodockgpu

>  <m_score__min__energy>  (10) 
-10.050000000000001

>  <m_primary>  (10) 
energy

>  <rmsd>  (10) 
5.782867069266935

>  <m_score__min__rmsd>  (10) 
5.782867069266935

>  <meeko>  (10) 
{"free_energy": -6.2, "intermolecular_energy": -8.88, "internal_energy": -3.57, "cluster_size": 11, "cluster_id": 11, "rank_in_cluster": 11}

>  <energy>  (10) 
-8.74

>  <cluster_rmsd>  (10) 
1.54

>  <cluster>  (10) 
1

$$$$

     RDKit          3D

 64 67  0  0  0  0  0  0  0  0999 V2000
  141.9700   78.9790  218.2110 C   0  0  0  0  0  0  0  0  0  0  0  0
  140.6960   79.6880  218.5580 C   0  0  0  0  0  0  0  0  0  0  0  0
  139.9710   78.9710  219.6350 C   0  0  0  0  0  0  0  0  0  0  0  0
  138.6960   79.0950  219.7040 O   0  0  0  0  0  0  0  0  0  0  0  0
  140.6140   78.1450  220.6030 N   0  0  0  0  0  0  0  0  0  0  0  0
  141.1640   78.8370  221.7330 C   0  0  0  0  0  0  0  0  0  0  0  0
  140.7250   78.6010  223.0260 C   0  0  0  0  0  0  0  0  0  0  0  0
  141.3080   79.3020  224.0760 C   0  0  0  0  0  0  0  0  0  0  0  0
  142.3100   80.2240  223.8660 C   0  0  0  0  0  0  0  0  0  0  0  0
  142.7400   80.4550  222.5970 C   0  0  0  0  0  0  0  0  0  0  0  0
  142.1730   79.7650  221.5180 C   0  0  0  0  0  0  0  0  0  0  0  0
  140.6860   76.7320  220.4020 C   0  0  0  0  0  0  0  0  0  0  0  0
  139.3210   76.0660  220.2140 C   0  0  0  0  0  0  0  0  0  0  0  0
  139.7060   74.6530  219.7040 C   0  0  0  0  0  0  0  0  0  0  0  0
  140.1600   73.8940  220.8940 N   0  0  0  0  0  0  0  0  0  0  0  0
  139.9110   72.5170  220.8860 C   0  0  0  0  0  0  0  0  0  0  0  0
  139.3160   72.0870  219.8210 O   0  0  0  0  0  0  0  0  0  0  0  0
  140.2520   71.5530  221.9500 C   0  0  2  0  0  0  0  0  0  0  0  0
  140.3050   70.1700  221.5370 N   0  0  0  0  0  0  0  0  0  0  0  0
  139.4290   71.6600  223.1810 C   0  0  0  0  0  0  0  0  0  0  0  0
  139.3970   70.4640  224.0430 C   0  0  0  0  0  0  0  0  0  0  0  0
  138.8020   69.2740  223.6420 C   0  0  0  0  0  0  0  0  0  0  0  0
  138.7630   68.1510  224.4390 C   0  0  0  0  0  0  0  0  0  0  0  0
  139.3230   68.1830  225.6820 C   0  0  0  0  0  0  0  0  0  0  0  0
  139.2970   67.0690  226.5020 O   0  0  0  0  0  0  0  0  0  0  0  0
  139.9210   69.3510  226.1100 C   0  0  0  0  0  0  0  0  0  0  0  0
  140.4720   69.3350  227.3950 C   0  0  0  0  0  0  0  0  0  0  0  0
  141.0790   70.4930  227.8860 C   0  0  0  0  0  0  0  0  0  0  0  0
  141.1330   71.6400  227.1040 C   0  0  0  0  0  0  0  0  0  0  0  0
  140.5740   71.6060  225.8350 C   0  0  0  0  0  0  0  0  0  0  0  0
  139.9660   70.4750  225.3220 C   0  0  0  0  0  0  0  0  0  0  0  0
  140.7880   74.6860  221.9100 C   0  0  0  0  0  0  0  0  0  0  0  0
  141.4490   75.9460  221.3940 C   0  0  0  0  0  0  0  0  0  0  0  0
  142.4915   78.6888  219.1350 H   0  0  0  0  0  0  0  0  0  0  0  0
  141.7400   78.0791  217.6216 H   0  0  0  0  0  0  0  0  0  0  0  0
  142.6135   79.6487  217.6216 H   0  0  0  0  0  0  0  0  0  0  0  0
  140.9316   80.7071  218.8984 H   0  0  0  0  0  0  0  0  0  0  0  0
  140.0562   79.7214  217.6639 H   0  0  0  0  0  0  0  0  0  0  0  0
  139.9266   77.8694  223.2191 H   0  0  0  0  0  0  0  0  0  0  0  0
  140.9596   79.1152  225.1025 H   0  0  0  0  0  0  0  0  0  0  0  0
  142.7559   80.7657  224.7132 H   0  0  0  0  0  0  0  0  0  0  0  0
  143.5390   81.1891  222.4164 H   0  0  0  0  0  0  0  0  0  0  0  0
  142.5292   79.9596  220.4956 H   0  0  0  0  0  0  0  0  0  0  0  0
  141.2643   76.7025  219.4667 H   0  0  0  0  0  0  0  0  0  0  0  0
  138.7716   76.0095  221.1653 H   0  0  0  0  0  0  0  0  0  0  0  0
  138.6558   76.6135  219.5301 H   0  0  0  0  0  0  0  0  0  0  0  0
  138.8340   74.1614  219.2479 H   0  0  0  0  0  0  0  0  0  0  0  0
  140.4925   74.7040  218.9367 H   0  0  0  0  0  0  0  0  0  0  0  0
  141.2766   71.8708  222.1933 H   0  0  0  0  0  0  0  0  0  0  0  0
  140.4710   70.1490  220.4840 H   0  0  0  0  0  0  0  0  0  0  0  0
  139.2950   69.8370  221.5970 H   0  0  0  0  0  0  0  0  0  0  0  0
  139.8239   72.4950  223.7784 H   0  0  0  0  0  0  0  0  0  0  0  0
  138.3949   71.8039  222.8348 H   0  0  0  0  0  0  0  0  0  0  0  0
  138.3418   69.2266  222.6440 H   0  0  0  0  0  0  0  0  0  0  0  0
  138.2818   67.2316  224.0740 H   0  0  0  0  0  0  0  0  0  0  0  0
  140.0070   67.0180  227.2200 H   0  0  0  0  0  0  0  0  0  0  0  0
  140.4280   68.4240  228.0100 H   0  0  0  0  0  0  0  0  0  0  0  0
  141.5159   70.4969  228.8955 H   0  0  0  0  0  0  0  0  0  0  0  0
  141.6092   72.5562  227.4833 H   0  0  0  0  0  0  0  0  0  0  0  0
  140.6159   72.5126  225.2135 H   0  0  0  0  0  0  0  0  0  0  0  0
  140.0223   74.9743  222.6452 H   0  0  0  0  0  0  0  0  0  0  0  0
  141.5854   74.0664  222.3461 H   0  0  0  0  0  0  0  0  0  0  0  0
  141.6452   76.5982  222.2577 H   0  0  0  0  0  0  0  0  0  0  0  0
  142.3510   75.6056  220.8643 H   0  0  0  0  0  0  0  0  0  0  0  0
  1  2  1  0
  2  3  1  0
  3  4  2  0
  3  5  1  0
  5  6  1  0
  6  7  2  0
  7  8  1  0
  8  9  2  0
  9 10  1  0
 10 11  2  0
  5 12  1  0
 12 13  1  0
 13 14  1  0
 14 15  1  0
 15 16  1  0
 16 17  2  0
 16 18  1  0
 18 19  1  0
 18 20  1  0
 20 21  1  0
 21 22  2  0
 22 23  1  0
 23 24  2  0
 24 25  1  0
 24 26  1  0
 26 27  2  0
 27 28  1  0
 28 29  2  0
 29 30  1  0
 30 31  2  0
 15 32  1  0
 32 33  1  0
 11  6  1  0
 33 12  1  0
 31 21  1  0
 31 26  1  0
  1 34  1  0
  1 35  1  0
  1 36  1  0
  2 37  1  0
  2 38  1  0
  7 39  1  0
  8 40  1  0
  9 41  1  0
 10 42  1  0
 11 43  1  0
 12 44  1  0
 13 45  1  0
 13 46  1  0
 14 47  1  0
 14 48  1  0
 18 49  1  1
 19 50  1  0
 19 51  1  0
 20 52  1  0
 20 53  1  0
 22 54  1  0
 23 55  1  0
 25 56  1  0
 27 57  1  0
 28 58  1  0
 29 59  1  0
 30 60  1  0
 32 61  1  0
 32 62  1  0
 33 63  1  0
 33 64  1  0
M  END
>  <smiles>  (11) 
CCC(=O)N(c1ccccc1)C1CCN(C(=O)[C@H](N)Cc2ccc(O)c3ccccc23)CC1

>  <score_type>  (11) 
oracle

>  <origin>  (11) 
autodockgpu

>  <m_score__min__energy>  (11) 
-10.050000000000001

>  <m_primary>  (11) 
energy

>  <rmsd>  (11) 
6.428363345108641

>  <m_score__min__rmsd>  (11) 
6.428363345108641

>  <meeko>  (11) 
{"free_energy": -7.86, "intermolecular_energy": -10.54, "internal_energy": -1.79, "cluster_size": 18, "cluster_id": 1, "rank_in_cluster": 18}

>  <energy>  (11) 
-8.71

>  <cluster_rmsd>  (11) 
1.05

>  <cluster>  (11) 
1

$$$$

     RDKit          3D

 64 67  0  0  0  0  0  0  0  0999 V2000
  141.0700   68.1660  228.7030 C   0  0  0  0  0  0  0  0  0  0  0  0
  141.1750   67.6880  227.2860 C   0  0  0  0  0  0  0  0  0  0  0  0
  139.9320   67.9880  226.5360 C   0  0  0  0  0  0  0  0  0  0  0  0
  139.0160   67.0920  226.4820 O   0  0  0  0  0  0  0  0  0  0  0  0
  139.6940   69.2250  225.8680 N   0  0  0  0  0  0  0  0  0  0  0  0
  140.3130   70.3740  226.4620 C   0  0  0  0  0  0  0  0  0  0  0  0
  141.3200   71.0820  225.8240 C   0  0  0  0  0  0  0  0  0  0  0  0
  141.8710   72.1910  226.4550 C   0  0  0  0  0  0  0  0  0  0  0  0
  141.4440   72.6070  227.6970 C   0  0  0  0  0  0  0  0  0  0  0  0
  140.4570   71.9120  228.3230 C   0  0  0  0  0  0  0  0  0  0  0  0
  139.8810   70.7900  227.7140 C   0  0  0  0  0  0  0  0  0  0  0  0
  138.8750   69.2580  224.6970 C   0  0  0  0  0  0  0  0  0  0  0  0
  139.1970   70.4190  223.7530 C   0  0  0  0  0  0  0  0  0  0  0  0
  138.4210   70.0300  222.4680 C   0  0  0  0  0  0  0  0  0  0  0  0
  136.9970   70.3500  222.7340 N   0  0  0  0  0  0  0  0  0  0  0  0
  136.2340   70.7500  221.6310 C   0  0  0  0  0  0  0  0  0  0  0  0
  136.8830   70.7790  220.5130 O   0  0  0  0  0  0  0  0  0  0  0  0
  134.8080   71.1310  221.6380 C   0  0  2  0  0  0  0  0  0  0  0  0
  134.1000   70.8930  220.4030 N   0  0  0  0  0  0  0  0  0  0  0  0
  134.5310   72.5150  222.0960 C   0  0  0  0  0  0  0  0  0  0  0  0
  134.2060   72.6700  223.5260 C   0  0  0  0  0  0  0  0  0  0  0  0
  133.7340   71.6170  224.3000 C   0  0  0  0  0  0  0  0  0  0  0  0
  133.4240   71.7490  225.6360 C   0  0  0  0  0  0  0  0  0  0  0  0
  133.5770   72.9580  226.2490 C   0  0  0  0  0  0  0  0  0  0  0  0
  133.2730   73.1170  227.5900 O   0  0  0  0  0  0  0  0  0  0  0  0
  134.0430   74.0240  225.5070 C   0  0  0  0  0  0  0  0  0  0  0  0
  134.1730   75.2430  226.1800 C   0  0  0  0  0  0  0  0  0  0  0  0
  134.6280   76.3600  225.4770 C   0  0  0  0  0  0  0  0  0  0  0  0
  134.9470   76.2560  224.1290 C   0  0  0  0  0  0  0  0  0  0  0  0
  134.8040   75.0250  223.5060 C   0  0  0  0  0  0  0  0  0  0  0  0
  134.3550   73.9010  224.1760 C   0  0  0  0  0  0  0  0  0  0  0  0
  136.5950   70.2180  224.1020 C   0  0  0  0  0  0  0  0  0  0  0  0
  137.4110   69.2190  224.8950 C   0  0  0  0  0  0  0  0  0  0  0  0
  141.2546   67.3255  229.3881 H   0  0  0  0  0  0  0  0  0  0  0  0
  141.8164   68.9543  228.8803 H   0  0  0  0  0  0  0  0  0  0  0  0
  140.0619   68.5689  228.8803 H   0  0  0  0  0  0  0  0  0  0  0  0
  142.0218   68.1920  226.7971 H   0  0  0  0  0  0  0  0  0  0  0  0
  141.3293   66.5989  227.2917 H   0  0  0  0  0  0  0  0  0  0  0  0
  141.6780   70.7702  224.8317 H   0  0  0  0  0  0  0  0  0  0  0  0
  142.6702   72.7522  225.9487 H   0  0  0  0  0  0  0  0  0  0  0  0
  141.8951   73.4888  228.1755 H   0  0  0  0  0  0  0  0  0  0  0  0
  140.1082   72.2335  229.3155 H   0  0  0  0  0  0  0  0  0  0  0  0
  139.0829   70.2361  228.2299 H   0  0  0  0  0  0  0  0  0  0  0  0
  139.1559   68.2972  224.2411 H   0  0  0  0  0  0  0  0  0  0  0  0
  138.8370   71.3750  224.1610 H   0  0  0  0  0  0  0  0  0  0  0  0
  140.2747   70.5647  223.5879 H   0  0  0  0  0  0  0  0  0  0  0  0
  138.7888   70.6110  221.6094 H   0  0  0  0  0  0  0  0  0  0  0  0
  138.5548   68.9656  222.2247 H   0  0  0  0  0  0  0  0  0  0  0  0
  134.4131   70.4344  222.3922 H   0  0  0  0  0  0  0  0  0  0  0  0
  133.7190   69.8970  220.4300 H   0  0  0  0  0  0  0  0  0  0  0  0
  134.8660   70.8060  219.6690 H   0  0  0  0  0  0  0  0  0  0  0  0
  135.4226   73.1239  221.8856 H   0  0  0  0  0  0  0  0  0  0  0  0
  133.6299   72.8329  221.5510 H   0  0  0  0  0  0  0  0  0  0  0  0
  133.6019   70.6338  223.8248 H   0  0  0  0  0  0  0  0  0  0  0  0
  133.0548   70.8835  226.2057 H   0  0  0  0  0  0  0  0  0  0  0  0
  132.6000   72.4720  227.9810 H   0  0  0  0  0  0  0  0  0  0  0  0
  133.9204   75.3206  227.2478 H   0  0  0  0  0  0  0  0  0  0  0  0
  134.7343   77.3260  225.9924 H   0  0  0  0  0  0  0  0  0  0  0  0
  135.3054   77.1314  223.5675 H   0  0  0  0  0  0  0  0  0  0  0  0
  135.0572   74.9393  222.4390 H   0  0  0  0  0  0  0  0  0  0  0  0
  136.6890   71.2015  224.5856 H   0  0  0  0  0  0  0  0  0  0  0  0
  135.5603   69.8447  224.0928 H   0  0  0  0  0  0  0  0  0  0  0  0
  137.2132   69.3981  225.9622 H   0  0  0  0  0  0  0  0  0  0  0  0
  137.0943   68.2304  224.5312 H   0  0  0  0  0  0  0  0  0  0  0  0
  1  2  1  0
  2  3  1  0
  3  4  2  0
  3  5  1  0
  5  6  1  0
  6  7  2  0
  7  8  1  0
  8  9  2  0
  9 10  1  0
 10 11  2  0
  5 12  1  0
 12 13  1  0
 13 14  1  0
 14 15  1  0
 15 16  1  0
 16 17  2  0
 16 18  1  0
 18 19  1  0
 18 20  1  0
 20 21  1  0
 21 22  2  0
 22 23  1  0
 23 24  2  0
 24 25  1  0
 24 26  1  0
 26 27  2  0
 27 28  1  0
 28 29  2  0
 29 30  1  0
 30 31  2  0
 15 32  1  0
 32 33  1  0
 11  6  1  0
 33 12  1  0
 31 21  1  0
 31 26  1  0
  1 34  1  0
  1 35  1  0
  1 36  1  0
  2 37  1  0
  2 38  1  0
  7 39  1  0
  8 40  1  0
  9 41  1  0
 10 42  1  0
 11 43  1  0
 12 44  1  0
 13 45  1  0
 13 46  1  0
 14 47  1  0
 14 48  1  0
 18 49  1  1
 19 50  1  0
 19 51  1  0
 20 52  1  0
 20 53  1  0
 22 54  1  0
 23 55  1  0
 25 56  1  0
 27 57  1  0
 28 58  1  0
 29 59  1  0
 30 60  1  0
 32 61  1  0
 32 62  1  0
 33 63  1  0
 33 64  1  0
M  END
>  <smiles>  (12) 
CCC(=O)N(c1ccccc1)C1CCN(C(=O)[C@H](N)Cc2ccc(O)c3ccccc23)CC1

>  <score_type>  (12) 
oracle

>  <origin>  (12) 
autodockgpu

>  <m_score__min__energy>  (12) 
-10.050000000000001

>  <m_primary>  (12) 
energy

>  <rmsd>  (12) 
10.12736251894531

>  <m_score__min__rmsd>  (12) 
10.12736251894531

>  <meeko>  (12) 
{"free_energy": -7.46, "intermolecular_energy": -10.14, "internal_energy": -2.27, "cluster_size": 1, "cluster_id": 8, "rank_in_cluster": 1}

>  <energy>  (12) 
-8.67

>  <cluster_rmsd>  (12) 
1.66

>  <cluster>  (12) 
1

$$$$

     RDKit          3D

 64 67  0  0  0  0  0  0  0  0999 V2000
  142.5220   80.6940  218.1460 C   0  0  0  0  0  0  0  0  0  0  0  0
  142.3300   79.2070  218.1530 C   0  0  0  0  0  0  0  0  0  0  0  0
  141.2640   78.8190  219.1070 C   0  0  0  0  0  0  0  0  0  0  0  0
  140.0450   78.8470  218.7100 O   0  0  0  0  0  0  0  0  0  0  0  0
  141.5180   78.4120  220.4500 N   0  0  0  0  0  0  0  0  0  0  0  0
  141.6510   79.4780  221.4000 C   0  0  0  0  0  0  0  0  0  0  0  0
  142.5670   79.4290  222.4400 C   0  0  0  0  0  0  0  0  0  0  0  0
  142.6480   80.5000  223.3210 C   0  0  0  0  0  0  0  0  0  0  0  0
  141.8440   81.6110  223.1900 C   0  0  0  0  0  0  0  0  0  0  0  0
  140.9460   81.6590  222.1700 C   0  0  0  0  0  0  0  0  0  0  0  0
  140.8390   80.5960  221.2650 C   0  0  0  0  0  0  0  0  0  0  0  0
  141.6360   77.0240  220.7650 C   0  0  0  0  0  0  0  0  0  0  0  0
  141.1540   76.0950  219.6480 C   0  0  0  0  0  0  0  0  0  0  0  0
  141.6870   74.7130  220.1080 C   0  0  0  0  0  0  0  0  0  0  0  0
  140.7740   74.2560  221.1840 N   0  0  0  0  0  0  0  0  0  0  0  0
  140.5790   72.8750  221.2890 C   0  0  0  0  0  0  0  0  0  0  0  0
  141.2380   72.1740  220.4250 O   0  0  0  0  0  0  0  0  0  0  0  0
  139.7150   72.1780  222.2620 C   0  0  2  0  0  0  0  0  0  0  0  0
  138.3900   72.7300  222.4180 N   0  0  0  0  0  0  0  0  0  0  0  0
  140.3160   71.9770  223.6040 C   0  0  0  0  0  0  0  0  0  0  0  0
  140.0100   70.6930  224.2630 C   0  0  0  0  0  0  0  0  0  0  0  0
  139.4340   69.6270  223.5850 C   0  0  0  0  0  0  0  0  0  0  0  0
  139.1400   68.4250  224.1900 C   0  0  0  0  0  0  0  0  0  0  0  0
  139.4160   68.2490  225.5140 C   0  0  0  0  0  0  0  0  0  0  0  0
  139.1310   67.0510  226.1460 O   0  0  0  0  0  0  0  0  0  0  0  0
  139.9890   69.2900  226.2170 C   0  0  0  0  0  0  0  0  0  0  0  0
  140.2430   69.0620  227.5730 C   0  0  0  0  0  0  0  0  0  0  0  0
  140.8100   70.0840  228.3370 C   0  0  0  0  0  0  0  0  0  0  0  0
  141.1150   71.3070  227.7520 C   0  0  0  0  0  0  0  0  0  0  0  0
  140.8460   71.4840  226.4030 C   0  0  0  0  0  0  0  0  0  0  0  0
  140.2850   70.4910  225.6210 C   0  0  0  0  0  0  0  0  0  0  0  0
  140.1970   75.3060  221.9710 C   0  0  0  0  0  0  0  0  0  0  0  0
  141.0350   76.5650  222.0350 C   0  0  0  0  0  0  0  0  0  0  0  0
  142.5696   81.0624  219.1814 H   0  0  0  0  0  0  0  0  0  0  0  0
  143.4594   80.9402  217.6257 H   0  0  0  0  0  0  0  0  0  0  0  0
  141.6779   81.1703  217.6257 H   0  0  0  0  0  0  0  0  0  0  0  0
  142.0485   78.8749  217.1428 H   0  0  0  0  0  0  0  0  0  0  0  0
  143.2718   78.7311  218.4636 H   0  0  0  0  0  0  0  0  0  0  0  0
  143.2209   78.5535  222.5657 H   0  0  0  0  0  0  0  0  0  0  0  0
  143.3743   80.4599  224.1462 H   0  0  0  0  0  0  0  0  0  0  0  0
  141.9272   82.4470  223.9001 H   0  0  0  0  0  0  0  0  0  0  0  0
  140.2981   82.5405  222.0549 H   0  0  0  0  0  0  0  0  0  0  0  0
  140.1088   80.6469  220.4439 H   0  0  0  0  0  0  0  0  0  0  0  0
  142.7265   76.9502  220.8885 H   0  0  0  0  0  0  0  0  0  0  0  0
  140.0563   76.0943  219.5774 H   0  0  0  0  0  0  0  0  0  0  0  0
  141.5065   76.3907  218.6488 H   0  0  0  0  0  0  0  0  0  0  0  0
  141.6750   74.0011  219.2695 H   0  0  0  0  0  0  0  0  0  0  0  0
  142.7252   74.7818  220.4649 H   0  0  0  0  0  0  0  0  0  0  0  0
  139.6158   71.1947  221.7790 H   0  0  0  0  0  0  0  0  0  0  0  0
  138.4930   73.7600  222.6760 H   0  0  0  0  0  0  0  0  0  0  0  0
  138.0360   72.3180  223.3330 H   0  0  0  0  0  0  0  0  0  0  0  0
  141.4085   72.0491  223.4979 H   0  0  0  0  0  0  0  0  0  0  0  0
  139.8744   72.7531  224.2464 H   0  0  0  0  0  0  0  0  0  0  0  0
  139.2020   69.7478  222.5166 H   0  0  0  0  0  0  0  0  0  0  0  0
  138.6845   67.6104  223.6077 H   0  0  0  0  0  0  0  0  0  0  0  0
  139.7860   66.7460  226.8540 H   0  0  0  0  0  0  0  0  0  0  0  0
  139.9997   68.0919  228.0310 H   0  0  0  0  0  0  0  0  0  0  0  0
  141.0158   69.9205  229.4051 H   0  0  0  0  0  0  0  0  0  0  0  0
  141.5607   72.1181  228.3466 H   0  0  0  0  0  0  0  0  0  0  0  0
  141.0880   72.4508  225.9375 H   0  0  0  0  0  0  0  0  0  0  0  0
  139.2191   75.5640  221.5383 H   0  0  0  0  0  0  0  0  0  0  0  0
  140.1203   74.9245  222.9999 H   0  0  0  0  0  0  0  0  0  0  0  0
  140.3931   77.3746  222.4125 H   0  0  0  0  0  0  0  0  0  0  0  0
  141.8861   76.3148  222.6854 H   0  0  0  0  0  0  0  0  0  0  0  0
  1  2  1  0
  2  3  1  0
  3  4  2  0
  3  5  1  0
  5  6  1  0
  6  7  2  0
  7  8  1  0
  8  9  2  0
  9 10  1  0
 10 11  2  0
  5 12  1  0
 12 13  1  0
 13 14  1  0
 14 15  1  0
 15 16  1  0
 16 17  2  0
 16 18  1  0
 18 19  1  0
 18 20  1  0
 20 21  1  0
 21 22  2  0
 22 23  1  0
 23 24  2  0
 24 25  1  0
 24 26  1  0
 26 27  2  0
 27 28  1  0
 28 29  2  0
 29 30  1  0
 30 31  2  0
 15 32  1  0
 32 33  1  0
 11  6  1  0
 33 12  1  0
 31 21  1  0
 31 26  1  0
  1 34  1  0
  1 35  1  0
  1 36  1  0
  2 37  1  0
  2 38  1  0
  7 39  1  0
  8 40  1  0
  9 41  1  0
 10 42  1  0
 11 43  1  0
 12 44  1  0
 13 45  1  0
 13 46  1  0
 14 47  1  0
 14 48  1  0
 18 49  1  6
 19 50  1  0
 19 51  1  0
 20 52  1  0
 20 53  1  0
 22 54  1  0
 23 55  1  0
 25 56  1  0
 27 57  1  0
 28 58  1  0
 29 59  1  0
 30 60  1  0
 32 61  1  0
 32 62  1  0
 33 63  1  0
 33 64  1  0
M  END
>  <smiles>  (13) 
CCC(=O)N(c1ccccc1)C1CCN(C(=O)[C@H](N)Cc2ccc(O)c3ccccc23)CC1

>  <score_type>  (13) 
oracle

>  <origin>  (13) 
autodockgpu

>  <m_score__min__energy>  (13) 
-10.050000000000001

>  <m_primary>  (13) 
energy

>  <rmsd>  (13) 
6.282330428239682

>  <m_score__min__rmsd>  (13) 
6.282330428239682

>  <meeko>  (13) 
{"free_energy": -10.05, "intermolecular_energy": -12.73, "internal_energy": -1.47, "cluster_size": 18, "cluster_id": 1, "rank_in_cluster": 1}

>  <energy>  (13) 
-8.6

>  <cluster_rmsd>  (13) 
1.45

>  <cluster>  (13) 
1

$$$$

     RDKit          3D

 64 67  0  0  0  0  0  0  0  0999 V2000
  136.4020   70.4640  224.0130 C   0  0  0  0  0  0  0  0  0  0  0  0
  136.6790   69.2870  223.1290 C   0  0  0  0  0  0  0  0  0  0  0  0
  138.1250   69.1970  222.8110 C   0  0  0  0  0  0  0  0  0  0  0  0
  138.5440   68.1860  222.1420 O   0  0  0  0  0  0  0  0  0  0  0  0
  139.0810   70.1760  223.2080 N   0  0  0  0  0  0  0  0  0  0  0  0
  139.5640   70.0530  224.5530 C   0  0  0  0  0  0  0  0  0  0  0  0
  139.9950   71.1490  225.2840 C   0  0  0  0  0  0  0  0  0  0  0  0
  140.4450   70.9600  226.5850 C   0  0  0  0  0  0  0  0  0  0  0  0
  140.4730   69.7120  227.1700 C   0  0  0  0  0  0  0  0  0  0  0  0
  140.0500   68.6380  226.4520 C   0  0  0  0  0  0  0  0  0  0  0  0
  139.5920   68.7950  225.1380 C   0  0  0  0  0  0  0  0  0  0  0  0
  139.4830   71.1950  222.2910 C   0  0  0  0  0  0  0  0  0  0  0  0
  140.9840   71.4970  222.3240 C   0  0  0  0  0  0  0  0  0  0  0  0
  141.1790   72.3600  221.0510 C   0  0  0  0  0  0  0  0  0  0  0  0
  140.6750   73.7140  221.3890 N   0  0  0  0  0  0  0  0  0  0  0  0
  141.3130   74.7890  220.7610 C   0  0  0  0  0  0  0  0  0  0  0  0
  142.2640   74.4510  219.9530 O   0  0  0  0  0  0  0  0  0  0  0  0
  141.0050   76.2220  220.9390 C   0  0  2  0  0  0  0  0  0  0  0  0
  141.9050   77.1340  220.2740 N   0  0  0  0  0  0  0  0  0  0  0  0
  140.8320   76.6550  222.3480 C   0  0  0  0  0  0  0  0  0  0  0  0
  140.1610   77.9540  222.5470 C   0  0  0  0  0  0  0  0  0  0  0  0
  138.7940   78.1210  222.3650 C   0  0  0  0  0  0  0  0  0  0  0  0
  138.1560   79.3290  222.5440 C   0  0  0  0  0  0  0  0  0  0  0  0
  138.8770   80.4260  222.9150 C   0  0  0  0  0  0  0  0  0  0  0  0
  138.2610   81.6500  223.1010 O   0  0  0  0  0  0  0  0  0  0  0  0
  140.2380   80.2930  223.1020 C   0  0  0  0  0  0  0  0  0  0  0  0
  140.9320   81.4490  223.4710 C   0  0  0  0  0  0  0  0  0  0  0  0
  142.3140   81.3780  223.6630 C   0  0  0  0  0  0  0  0  0  0  0  0
  142.9830   80.1730  223.4880 C   0  0  0  0  0  0  0  0  0  0  0  0
  142.2500   79.0530  223.1230 C   0  0  0  0  0  0  0  0  0  0  0  0
  140.8810   79.0930  222.9260 C   0  0  0  0  0  0  0  0  0  0  0  0
  139.6000   73.7360  222.3350 C   0  0  0  0  0  0  0  0  0  0  0  0
  138.7550   72.4800  222.3450 C   0  0  0  0  0  0  0  0  0  0  0  0
  136.4744   70.1563  225.0666 H   0  0  0  0  0  0  0  0  0  0  0  0
  137.1383   71.2558  223.8108 H   0  0  0  0  0  0  0  0  0  0  0  0
  135.3898   70.8443  223.8108 H   0  0  0  0  0  0  0  0  0  0  0  0
  136.3649   68.3671  223.6440 H   0  0  0  0  0  0  0  0  0  0  0  0
  136.1183   69.4105  222.1907 H   0  0  0  0  0  0  0  0  0  0  0  0
  139.9810   72.1553  224.8400 H   0  0  0  0  0  0  0  0  0  0  0  0
  140.7883   71.8300  227.1640 H   0  0  0  0  0  0  0  0  0  0  0  0
  140.8322   69.5871  228.2022 H   0  0  0  0  0  0  0  0  0  0  0  0
  140.0676   67.6368  226.9072 H   0  0  0  0  0  0  0  0  0  0  0  0
  139.2531   67.9177  224.5674 H   0  0  0  0  0  0  0  0  0  0  0  0
  139.2033   70.7155  221.3413 H   0  0  0  0  0  0  0  0  0  0  0  0
  141.2572   72.0575  223.2302 H   0  0  0  0  0  0  0  0  0  0  0  0
  141.6131   70.5949  222.3436 H   0  0  0  0  0  0  0  0  0  0  0  0
  142.2443   72.4059  220.7807 H   0  0  0  0  0  0  0  0  0  0  0  0
  140.6407   71.9344  220.1913 H   0  0  0  0  0  0  0  0  0  0  0  0
  140.0286   76.2862  220.4366 H   0  0  0  0  0  0  0  0  0  0  0  0
  142.4600   76.5780  219.5520 H   0  0  0  0  0  0  0  0  0  0  0  0
  142.6550   77.3450  220.9990 H   0  0  0  0  0  0  0  0  0  0  0  0
  140.2389   75.8869  222.8659 H   0  0  0  0  0  0  0  0  0  0  0  0
  141.8493   76.7822  222.7466 H   0  0  0  0  0  0  0  0  0  0  0  0
  138.1938   77.2495  222.0644 H   0  0  0  0  0  0  0  0  0  0  0  0
  137.0700   79.4085  222.3884 H   0  0  0  0  0  0  0  0  0  0  0  0
  137.7410   82.0200  222.3160 H   0  0  0  0  0  0  0  0  0  0  0  0
  140.3978   82.4007  223.6082 H   0  0  0  0  0  0  0  0  0  0  0  0
  142.8742   82.2790  223.9536 H   0  0  0  0  0  0  0  0  0  0  0  0
  144.0711   80.1083  223.6358 H   0  0  0  0  0  0  0  0  0  0  0  0
  142.7770   78.0973  222.9850 H   0  0  0  0  0  0  0  0  0  0  0  0
  140.0274   73.8720  223.3394 H   0  0  0  0  0  0  0  0  0  0  0  0
  138.9356   74.5610  222.0386 H   0  0  0  0  0  0  0  0  0  0  0  0
  138.1571   72.4868  223.2683 H   0  0  0  0  0  0  0  0  0  0  0  0
  138.1644   72.5191  221.4179 H   0  0  0  0  0  0  0  0  0  0  0  0
  1  2  1  0
  2  3  1  0
  3  4  2  0
  3  5  1  0
  5  6  1  0
  6  7  2  0
  7  8  1  0
  8  9  2  0
  9 10  1  0
 10 11  2  0
  5 12  1  0
 12 13  1  0
 13 14  1  0
 14 15  1  0
 15 16  1  0
 16 17  2  0
 16 18  1  0
 18 19  1  0
 18 20  1  0
 20 21  1  0
 21 22  2  0
 22 23  1  0
 23 24  2  0
 24 25  1  0
 24 26  1  0
 26 27  2  0
 27 28  1  0
 28 29  2  0
 29 30  1  0
 30 31  2  0
 15 32  1  0
 32 33  1  0
 11  6  1  0
 33 12  1  0
 31 21  1  0
 31 26  1  0
  1 34  1  0
  1 35  1  0
  1 36  1  0
  2 37  1  0
  2 38  1  0
  7 39  1  0
  8 40  1  0
  9 41  1  0
 10 42  1  0
 11 43  1  0
 12 44  1  0
 13 45  1  0
 13 46  1  0
 14 47  1  0
 14 48  1  0
 18 49  1  6
 19 50  1  0
 19 51  1  0
 20 52  1  0
 20 53  1  0
 22 54  1  0
 23 55  1  0
 25 56  1  0
 27 57  1  0
 28 58  1  0
 29 59  1  0
 30 60  1  0
 32 61  1  0
 32 62  1  0
 33 63  1  0
 33 64  1  0
M  END
>  <smiles>  (14) 
CCC(=O)N(c1ccccc1)C1CCN(C(=O)[C@H](N)Cc2ccc(O)c3ccccc23)CC1

>  <score_type>  (14) 
oracle

>  <origin>  (14) 
autodockgpu

>  <m_score__min__energy>  (14) 
-10.050000000000001

>  <m_primary>  (14) 
energy

>  <rmsd>  (14) 
6.8234310071714495

>  <m_score__min__rmsd>  (14) 
6.8234310071714495

>  <meeko>  (14) 
{"free_energy": -7.53, "intermolecular_energy": -10.22, "internal_energy": -2.23, "cluster_size": 1, "cluster_id": 7, "rank_in_cluster": 1}

>  <energy>  (14) 
-8.44

>  <cluster_rmsd>  (14) 
1.69

>  <cluster>  (14) 
1

$$$$

     RDKit          3D

 64 67  0  0  0  0  0  0  0  0999 V2000
  146.5140   74.2620  215.9500 C   0  0  0  0  0  0  0  0  0  0  0  0
  145.2690   73.9570  216.7260 C   0  0  0  0  0  0  0  0  0  0  0  0
  145.5810   73.1360  217.9210 C   0  0  0  0  0  0  0  0  0  0  0  0
  146.6550   73.3900  218.5750 O   0  0  0  0  0  0  0  0  0  0  0  0
  144.7520   72.0750  218.3870 N   0  0  0  0  0  0  0  0  0  0  0  0
  145.2880   70.7550  218.2160 C   0  0  0  0  0  0  0  0  0  0  0  0
  145.5300   69.9130  219.2910 C   0  0  0  0  0  0  0  0  0  0  0  0
  146.0440   68.6440  219.0530 C   0  0  0  0  0  0  0  0  0  0  0  0
  146.3200   68.1990  217.7780 C   0  0  0  0  0  0  0  0  0  0  0  0
  146.0820   69.0250  216.7250 C   0  0  0  0  0  0  0  0  0  0  0  0
  145.5650   70.3100  216.9310 C   0  0  0  0  0  0  0  0  0  0  0  0
  143.4770   72.3650  218.9630 C   0  0  0  0  0  0  0  0  0  0  0  0
  143.5330   73.3860  220.1020 C   0  0  0  0  0  0  0  0  0  0  0  0
  142.0380   73.7450  220.3040 C   0  0  0  0  0  0  0  0  0  0  0  0
  141.4400   72.6130  221.0530 N   0  0  0  0  0  0  0  0  0  0  0  0
  140.3950   72.9290  221.9270 C   0  0  0  0  0  0  0  0  0  0  0  0
  140.0830   74.1840  221.9570 O   0  0  0  0  0  0  0  0  0  0  0  0
  139.6500   71.9890  222.7880 C   0  0  2  0  0  0  0  0  0  0  0  0
  138.2460   72.2830  222.9530 N   0  0  0  0  0  0  0  0  0  0  0  0
  140.2540   71.7460  224.1210 C   0  0  0  0  0  0  0  0  0  0  0  0
  139.9070   70.4650  224.7640 C   0  0  0  0  0  0  0  0  0  0  0  0
  139.1880   69.4740  224.1080 C   0  0  0  0  0  0  0  0  0  0  0  0
  138.8540   68.2750  224.6990 C   0  0  0  0  0  0  0  0  0  0  0  0
  139.2340   68.0260  225.9850 C   0  0  0  0  0  0  0  0  0  0  0  0
  138.9120   66.8300  226.6010 O   0  0  0  0  0  0  0  0  0  0  0  0
  139.9490   68.9920  226.6650 C   0  0  0  0  0  0  0  0  0  0  0  0
  140.3050   68.6910  227.9830 C   0  0  0  0  0  0  0  0  0  0  0  0
  141.0190   69.6350  228.7240 C   0  0  0  0  0  0  0  0  0  0  0  0
  141.3680   70.8530  228.1540 C   0  0  0  0  0  0  0  0  0  0  0  0
  140.9930   71.1040  226.8420 C   0  0  0  0  0  0  0  0  0  0  0  0
  140.2860   70.1890  226.0830 C   0  0  0  0  0  0  0  0  0  0  0  0
  142.0310   71.3350  220.7860 C   0  0  0  0  0  0  0  0  0  0  0  0
  142.6630   71.2170  219.4150 C   0  0  0  0  0  0  0  0  0  0  0  0
  147.3403   74.4644  216.6473 H   0  0  0  0  0  0  0  0  0  0  0  0
  146.7715   73.4004  215.3165 H   0  0  0  0  0  0  0  0  0  0  0  0
  146.3441   75.1451  215.3165 H   0  0  0  0  0  0  0  0  0  0  0  0
  144.8045   74.9007  217.0481 H   0  0  0  0  0  0  0  0  0  0  0  0
  144.5806   73.3922  216.0802 H   0  0  0  0  0  0  0  0  0  0  0  0
  145.3180   70.2451  220.3180 H   0  0  0  0  0  0  0  0  0  0  0  0
  146.2359   67.9762  219.9057 H   0  0  0  0  0  0  0  0  0  0  0  0
  146.7269   67.1901  217.6150 H   0  0  0  0  0  0  0  0  0  0  0  0
  146.2973   68.6812  215.7025 H   0  0  0  0  0  0  0  0  0  0  0  0
  145.3777   70.9694  216.0707 H   0  0  0  0  0  0  0  0  0  0  0  0
  142.9645   72.7885  218.0866 H   0  0  0  0  0  0  0  0  0  0  0  0
  143.9620   72.9426  221.0127 H   0  0  0  0  0  0  0  0  0  0  0  0
  144.1672   74.2569  219.8797 H   0  0  0  0  0  0  0  0  0  0  0  0
  141.9438   74.6767  220.8812 H   0  0  0  0  0  0  0  0  0  0  0  0
  141.5294   73.9031  219.3416 H   0  0  0  0  0  0  0  0  0  0  0  0
  139.7330   71.0631  222.1999 H   0  0  0  0  0  0  0  0  0  0  0  0
  138.1030   73.3210  222.7530 H   0  0  0  0  0  0  0  0  0  0  0  0
  138.0900   72.2480  224.0050 H   0  0  0  0  0  0  0  0  0  0  0  0
  141.3475   71.7797  224.0062 H   0  0  0  0  0  0  0  0  0  0  0  0
  139.8462   72.5280  224.7784 H   0  0  0  0  0  0  0  0  0  0  0  0
  138.8711   69.6545  223.0702 H   0  0  0  0  0  0  0  0  0  0  0  0
  138.2833   67.5218  224.1360 H   0  0  0  0  0  0  0  0  0  0  0  0
  139.6640   66.3470  227.0750 H   0  0  0  0  0  0  0  0  0  0  0  0
  140.0268   67.7250  228.4297 H   0  0  0  0  0  0  0  0  0  0  0  0
  141.3061   69.4135  229.7625 H   0  0  0  0  0  0  0  0  0  0  0  0
  141.9298   71.6025  228.7307 H   0  0  0  0  0  0  0  0  0  0  0  0
  141.2684   72.0674  226.3881 H   0  0  0  0  0  0  0  0  0  0  0  0
  142.8090   71.1502  221.5414 H   0  0  0  0  0  0  0  0  0  0  0  0
  141.2166   70.5965  220.8230 H   0  0  0  0  0  0  0  0  0  0  0  0
  143.3121   70.3290  219.4215 H   0  0  0  0  0  0  0  0  0  0  0  0
  141.8205   71.1619  218.7099 H   0  0  0  0  0  0  0  0  0  0  0  0
  1  2  1  0
  2  3  1  0
  3  4  2  0
  3  5  1  0
  5  6  1  0
  6  7  2  0
  7  8  1  0
  8  9  2  0
  9 10  1  0
 10 11  2  0
  5 12  1  0
 12 13  1  0
 13 14  1  0
 14 15  1  0
 15 16  1  0
 16 17  2  0
 16 18  1  0
 18 19  1  0
 18 20  1  0
 20 21  1  0
 21 22  2  0
 22 23  1  0
 23 24  2  0
 24 25  1  0
 24 26  1  0
 26 27  2  0
 27 28  1  0
 28 29  2  0
 29 30  1  0
 30 31  2  0
 15 32  1  0
 32 33  1  0
 11  6  1  0
 33 12  1  0
 31 21  1  0
 31 26  1  0
  1 34  1  0
  1 35  1  0
  1 36  1  0
  2 37  1  0
  2 38  1  0
  7 39  1  0
  8 40  1  0
  9 41  1  0
 10 42  1  0
 11 43  1  0
 12 44  1  0
 13 45  1  0
 13 46  1  0
 14 47  1  0
 14 48  1  0
 18 49  1  6
 19 50  1  0
 19 51  1  0
 20 52  1  0
 20 53  1  0
 22 54  1  0
 23 55  1  0
 25 56  1  0
 27 57  1  0
 28 58  1  0
 29 59  1  0
 30 60  1  0
 32 61  1  0
 32 62  1  0
 33 63  1  0
 33 64  1  0
M  END
>  <smiles>  (15) 
CCC(=O)N(c1ccccc1)C1CCN(C(=O)[C@H](N)Cc2ccc(O)c3ccccc23)CC1

>  <score_type>  (15) 
oracle

>  <origin>  (15) 
autodockgpu

>  <m_score__min__energy>  (15) 
-10.050000000000001

>  <m_primary>  (15) 
energy

>  <rmsd>  (15) 
7.992406690406898

>  <m_score__min__rmsd>  (15) 
7.992406690406898

>  <meeko>  (15) 
{"free_energy": -9.11, "intermolecular_energy": -11.79, "internal_energy": -1.95, "cluster_size": 3, "cluster_id": 2, "rank_in_cluster": 1}

>  <energy>  (15) 
-8.35

>  <cluster_rmsd>  (15) 
1.77

>  <cluster>  (15) 
1

$$$$

     RDKit          3D

 64 67  0  0  0  0  0  0  0  0999 V2000
  144.1220   82.8590  215.8370 C   0  0  0  0  0  0  0  0  0  0  0  0
  143.5710   82.3450  217.1330 C   0  0  0  0  0  0  0  0  0  0  0  0
  142.4000   81.4660  216.8950 C   0  0  0  0  0  0  0  0  0  0  0  0
  141.9600   81.3420  215.6970 O   0  0  0  0  0  0  0  0  0  0  0  0
  141.7320   80.7470  217.9290 N   0  0  0  0  0  0  0  0  0  0  0  0
  142.1540   79.3860  218.1020 C   0  0  0  0  0  0  0  0  0  0  0  0
  142.1540   78.7670  219.3420 C   0  0  0  0  0  0  0  0  0  0  0  0
  142.5680   77.4440  219.4370 C   0  0  0  0  0  0  0  0  0  0  0  0
  142.9790   76.7300  218.3320 C   0  0  0  0  0  0  0  0  0  0  0  0
  142.9780   77.3380  217.1160 C   0  0  0  0  0  0  0  0  0  0  0  0
  142.5670   78.6700  216.9860 C   0  0  0  0  0  0  0  0  0  0  0  0
  140.7110   81.3840  218.6980 C   0  0  0  0  0  0  0  0  0  0  0  0
  141.2350   82.1010  219.9440 C   0  0  0  0  0  0  0  0  0  0  0  0
  140.0120   82.9470  220.3830 C   0  0  0  0  0  0  0  0  0  0  0  0
  139.0770   82.0060  221.0470 N   0  0  0  0  0  0  0  0  0  0  0  0
  138.2970   82.5320  222.0830 C   0  0  0  0  0  0  0  0  0  0  0  0
  138.4960   83.7870  222.3190 O   0  0  0  0  0  0  0  0  0  0  0  0
  137.3090   81.8010  222.9000 C   0  0  2  0  0  0  0  0  0  0  0  0
  136.2630   82.6130  223.4760 N   0  0  0  0  0  0  0  0  0  0  0  0
  137.8870   80.9350  223.9580 C   0  0  0  0  0  0  0  0  0  0  0  0
  138.7370   79.8240  223.4900 C   0  0  0  0  0  0  0  0  0  0  0  0
  138.2110   78.6020  223.0920 C   0  0  0  0  0  0  0  0  0  0  0  0
  138.9950   77.5550  222.6570 C   0  0  0  0  0  0  0  0  0  0  0  0
  140.3500   77.7000  222.6070 C   0  0  0  0  0  0  0  0  0  0  0  0
  141.1590   76.6650  222.1740 O   0  0  0  0  0  0  0  0  0  0  0  0
  140.9030   78.9030  222.9980 C   0  0  0  0  0  0  0  0  0  0  0  0
  142.2970   78.9970  222.9380 C   0  0  0  0  0  0  0  0  0  0  0  0
  142.9140   80.1860  223.3320 C   0  0  0  0  0  0  0  0  0  0  0  0
  142.1480   81.2570  223.7760 C   0  0  0  0  0  0  0  0  0  0  0  0
  140.7690   81.1160  223.8160 C   0  0  0  0  0  0  0  0  0  0  0  0
  140.1300   79.9500  223.4320 C   0  0  0  0  0  0  0  0  0  0  0  0
  139.1090   80.6660  220.5400 C   0  0  0  0  0  0  0  0  0  0  0  0
  139.5500   80.5600  219.0950 C   0  0  0  0  0  0  0  0  0  0  0  0
  144.9124   83.5963  216.0413 H   0  0  0  0  0  0  0  0  0  0  0  0
  144.5416   82.0222  215.2594 H   0  0  0  0  0  0  0  0  0  0  0  0
  143.3163   83.3357  215.2594 H   0  0  0  0  0  0  0  0  0  0  0  0
  144.3517   81.7724  217.6551 H   0  0  0  0  0  0  0  0  0  0  0  0
  143.2509   83.2013  217.7448 H   0  0  0  0  0  0  0  0  0  0  0  0
  141.8306   79.3156  220.2389 H   0  0  0  0  0  0  0  0  0  0  0  0
  142.5677   76.9529  220.4213 H   0  0  0  0  0  0  0  0  0  0  0  0
  143.3031   75.6836  218.4325 H   0  0  0  0  0  0  0  0  0  0  0  0
  143.3030   76.7784  216.2264 H   0  0  0  0  0  0  0  0  0  0  0  0
  142.5712   79.1510  215.9967 H   0  0  0  0  0  0  0  0  0  0  0  0
  140.3419   82.1102  217.9588 H   0  0  0  0  0  0  0  0  0  0  0  0
  141.5221   81.3819  220.7253 H   0  0  0  0  0  0  0  0  0  0  0  0
  142.1387   82.6999  219.7580 H   0  0  0  0  0  0  0  0  0  0  0  0
  140.3245   83.7338  221.0854 H   0  0  0  0  0  0  0  0  0  0  0  0
  139.5384   83.4443  219.5237 H   0  0  0  0  0  0  0  0  0  0  0  0
  136.8520   81.1531  222.1375 H   0  0  0  0  0  0  0  0  0  0  0  0
  135.4580   82.6530  222.7780 H   0  0  0  0  0  0  0  0  0  0  0  0
  136.6380   83.6070  223.4220 H   0  0  0  0  0  0  0  0  0  0  0  0
  138.4962   81.5703  224.6177 H   0  0  0  0  0  0  0  0  0  0  0  0
  137.0282   80.4622  224.4569 H   0  0  0  0  0  0  0  0  0  0  0  0
  137.1203   78.4634  223.1253 H   0  0  0  0  0  0  0  0  0  0  0  0
  138.5295   76.6064  222.3514 H   0  0  0  0  0  0  0  0  0  0  0  0
  142.1390   76.8800  222.0440 H   0  0  0  0  0  0  0  0  0  0  0  0
  142.8988   78.1464  222.5855 H   0  0  0  0  0  0  0  0  0  0  0  0
  144.0096   80.2751  223.2908 H   0  0  0  0  0  0  0  0  0  0  0  0
  142.6255   82.1971  224.0892 H   0  0  0  0  0  0  0  0  0  0  0  0
  140.1602   81.9627  224.1660 H   0  0  0  0  0  0  0  0  0  0  0  0
  139.8058   80.0800  221.1573 H   0  0  0  0  0  0  0  0  0  0  0  0
  138.0776   80.2861  220.5847 H   0  0  0  0  0  0  0  0  0  0  0  0
  139.8044   79.5078  218.8995 H   0  0  0  0  0  0  0  0  0  0  0  0
  138.7052   80.9431  218.5038 H   0  0  0  0  0  0  0  0  0  0  0  0
  1  2  1  0
  2  3  1  0
  3  4  2  0
  3  5  1  0
  5  6  1  0
  6  7  2  0
  7  8  1  0
  8  9  2  0
  9 10  1  0
 10 11  2  0
  5 12  1  0
 12 13  1  0
 13 14  1  0
 14 15  1  0
 15 16  1  0
 16 17  2  0
 16 18  1  0
 18 19  1  0
 18 20  1  0
 20 21  1  0
 21 22  2  0
 22 23  1  0
 23 24  2  0
 24 25  1  0
 24 26  1  0
 26 27  2  0
 27 28  1  0
 28 29  2  0
 29 30  1  0
 30 31  2  0
 15 32  1  0
 32 33  1  0
 11  6  1  0
 33 12  1  0
 31 21  1  0
 31 26  1  0
  1 34  1  0
  1 35  1  0
  1 36  1  0
  2 37  1  0
  2 38  1  0
  7 39  1  0
  8 40  1  0
  9 41  1  0
 10 42  1  0
 11 43  1  0
 12 44  1  0
 13 45  1  0
 13 46  1  0
 14 47  1  0
 14 48  1  0
 18 49  1  6
 19 50  1  0
 19 51  1  0
 20 52  1  0
 20 53  1  0
 22 54  1  0
 23 55  1  0
 25 56  1  0
 27 57  1  0
 28 58  1  0
 29 59  1  0
 30 60  1  0
 32 61  1  0
 32 62  1  0
 33 63  1  0
 33 64  1  0
M  END
>  <smiles>  (16) 
CCC(=O)N(c1ccccc1)C1CCN(C(=O)[C@H](N)Cc2ccc(O)c3ccccc23)CC1

>  <score_type>  (16) 
oracle

>  <origin>  (16) 
autodockgpu

>  <m_score__min__energy>  (16) 
-10.050000000000001

>  <m_primary>  (16) 
energy

>  <rmsd>  (16) 
5.7599134492436255

>  <m_score__min__rmsd>  (16) 
5.7599134492436255

>  <meeko>  (16) 
{"free_energy": -6.41, "intermolecular_energy": -9.09, "internal_energy": -3.56, "cluster_size": 11, "cluster_id": 11, "rank_in_cluster": 3}

>  <energy>  (16) 
-8.31

>  <cluster_rmsd>  (16) 
1.53

>  <cluster>  (16) 
1

$$$$

     RDKit          3D

 64 67  0  0  0  0  0  0  0  0999 V2000
  137.8890   79.4730  221.4020 C   0  0  0  0  0  0  0  0  0  0  0  0
  138.7120   79.9610  220.2480 C   0  0  0  0  0  0  0  0  0  0  0  0
  139.7700   78.9800  219.9050 C   0  0  0  0  0  0  0  0  0  0  0  0
  140.0790   78.8190  218.6710 O   0  0  0  0  0  0  0  0  0  0  0  0
  140.4680   78.2020  220.8740 N   0  0  0  0  0  0  0  0  0  0  0  0
  141.2080   78.9520  221.8480 C   0  0  0  0  0  0  0  0  0  0  0  0
  142.1850   79.8670  221.4860 C   0  0  0  0  0  0  0  0  0  0  0  0
  142.8590   80.5650  222.4810 C   0  0  0  0  0  0  0  0  0  0  0  0
  142.5830   80.3740  223.8170 C   0  0  0  0  0  0  0  0  0  0  0  0
  141.6250   79.4760  224.1710 C   0  0  0  0  0  0  0  0  0  0  0  0
  140.9270   78.7560  223.1930 C   0  0  0  0  0  0  0  0  0  0  0  0
  140.4090   76.7760  220.8220 C   0  0  0  0  0  0  0  0  0  0  0  0
  139.1940   76.2370  220.0620 C   0  0  0  0  0  0  0  0  0  0  0  0
  139.5500   74.7380  219.8830 C   0  0  0  0  0  0  0  0  0  0  0  0
  139.2930   74.0940  221.1940 N   0  0  0  0  0  0  0  0  0  0  0  0
  138.8690   72.7600  221.1590 C   0  0  0  0  0  0  0  0  0  0  0  0
  138.7650   72.2630  219.9700 O   0  0  0  0  0  0  0  0  0  0  0  0
  138.5400   71.9100  222.3190 C   0  0  2  0  0  0  0  0  0  0  0  0
  137.3830   72.3220  223.0790 N   0  0  0  0  0  0  0  0  0  0  0  0
  139.6660   71.6570  223.2520 C   0  0  0  0  0  0  0  0  0  0  0  0
  139.5530   70.4490  224.0900 C   0  0  0  0  0  0  0  0  0  0  0  0
  138.9840   69.2700  223.6230 C   0  0  0  0  0  0  0  0  0  0  0  0
  138.8690   68.1360  224.3980 C   0  0  0  0  0  0  0  0  0  0  0  0
  139.3240   68.1460  225.6830 C   0  0  0  0  0  0  0  0  0  0  0  0
  139.2210   67.0200  226.4810 O   0  0  0  0  0  0  0  0  0  0  0  0
  139.8930   69.3020  226.1770 C   0  0  0  0  0  0  0  0  0  0  0  0
  140.3350   69.2630  227.5030 C   0  0  0  0  0  0  0  0  0  0  0  0
  140.9090   70.4070  228.0600 C   0  0  0  0  0  0  0  0  0  0  0  0
  141.0360   71.5660  227.3030 C   0  0  0  0  0  0  0  0  0  0  0  0
  140.5850   71.5540  225.9910 C   0  0  0  0  0  0  0  0  0  0  0  0
  140.0130   70.4360  225.4120 C   0  0  0  0  0  0  0  0  0  0  0  0
  139.5040   74.9380  222.3320 C   0  0  0  0  0  0  0  0  0  0  0  0
  140.5090   76.0470  222.1040 C   0  0  0  0  0  0  0  0  0  0  0  0
  138.3744   79.7608  222.3462 H   0  0  0  0  0  0  0  0  0  0  0  0
  136.8863   79.9226  221.3533 H   0  0  0  0  0  0  0  0  0  0  0  0
  137.8024   78.3775  221.3533 H   0  0  0  0  0  0  0  0  0  0  0  0
  138.0587   80.1071  219.3752 H   0  0  0  0  0  0  0  0  0  0  0  0
  139.1895   80.9106  220.5314 H   0  0  0  0  0  0  0  0  0  0  0  0
  142.4233   80.0380  220.4258 H   0  0  0  0  0  0  0  0  0  0  0  0
  143.6345   81.2903  222.1937 H   0  0  0  0  0  0  0  0  0  0  0  0
  143.1294   80.9395  224.5862 H   0  0  0  0  0  0  0  0  0  0  0  0
  141.3963   79.3136  225.2346 H   0  0  0  0  0  0  0  0  0  0  0  0
  140.1538   78.0330  223.4919 H   0  0  0  0  0  0  0  0  0  0  0  0
  141.3373   76.5682  220.2697 H   0  0  0  0  0  0  0  0  0  0  0  0
  138.2715   76.3595  220.6485 H   0  0  0  0  0  0  0  0  0  0  0  0
  139.0026   76.7592  219.1130 H   0  0  0  0  0  0  0  0  0  0  0  0
  138.9173   74.2858  219.1051 H   0  0  0  0  0  0  0  0  0  0  0  0
  140.5966   74.6084  219.5703 H   0  0  0  0  0  0  0  0  0  0  0  0
  138.2927   70.9643  221.8145 H   0  0  0  0  0  0  0  0  0  0  0  0
  137.3440   73.3880  223.0640 H   0  0  0  0  0  0  0  0  0  0  0  0
  137.6510   72.1360  224.0920 H   0  0  0  0  0  0  0  0  0  0  0  0
  140.5847   71.5668  222.6538 H   0  0  0  0  0  0  0  0  0  0  0  0
  139.6662   72.5048  223.9529 H   0  0  0  0  0  0  0  0  0  0  0  0
  138.6089   69.2406  222.5893 H   0  0  0  0  0  0  0  0  0  0  0  0
  138.4119   67.2264  223.9812 H   0  0  0  0  0  0  0  0  0  0  0  0
  139.8950   66.9320  227.2300 H   0  0  0  0  0  0  0  0  0  0  0  0
  140.2319   68.3440  228.0987 H   0  0  0  0  0  0  0  0  0  0  0  0
  141.2621   70.3914  229.1017 H   0  0  0  0  0  0  0  0  0  0  0  0
  141.4843   72.4729  227.7348 H   0  0  0  0  0  0  0  0  0  0  0  0
  140.6863   72.4686  225.3884 H   0  0  0  0  0  0  0  0  0  0  0  0
  138.5417   75.3953  222.6055 H   0  0  0  0  0  0  0  0  0  0  0  0
  139.9136   74.2989  223.1281 H   0  0  0  0  0  0  0  0  0  0  0  0
  140.3874   76.7798  222.9153 H   0  0  0  0  0  0  0  0  0  0  0  0
  141.4899   75.5497  222.0797 H   0  0  0  0  0  0  0  0  0  0  0  0
  1  2  1  0
  2  3  1  0
  3  4  2  0
  3  5  1  0
  5  6  1  0
  6  7  2  0
  7  8  1  0
  8  9  2  0
  9 10  1  0
 10 11  2  0
  5 12  1  0
 12 13  1  0
 13 14  1  0
 14 15  1  0
 15 16  1  0
 16 17  2  0
 16 18  1  0
 18 19  1  0
 18 20  1  0
 20 21  1  0
 21 22  2  0
 22 23  1  0
 23 24  2  0
 24 25  1  0
 24 26  1  0
 26 27  2  0
 27 28  1  0
 28 29  2  0
 29 30  1  0
 30 31  2  0
 15 32  1  0
 32 33  1  0
 11  6  1  0
 33 12  1  0
 31 21  1  0
 31 26  1  0
  1 34  1  0
  1 35  1  0
  1 36  1  0
  2 37  1  0
  2 38  1  0
  7 39  1  0
  8 40  1  0
  9 41  1  0
 10 42  1  0
 11 43  1  0
 12 44  1  0
 13 45  1  0
 13 46  1  0
 14 47  1  0
 14 48  1  0
 18 49  1  6
 19 50  1  0
 19 51  1  0
 20 52  1  0
 20 53  1  0
 22 54  1  0
 23 55  1  0
 25 56  1  0
 27 57  1  0
 28 58  1  0
 29 59  1  0
 30 60  1  0
 32 61  1  0
 32 62  1  0
 33 63  1  0
 33 64  1  0
M  END
>  <smiles>  (17) 
CCC(=O)N(c1ccccc1)C1CCN(C(=O)[C@H](N)Cc2ccc(O)c3ccccc23)CC1

>  <score_type>  (17) 
oracle

>  <origin>  (17) 
autodockgpu

>  <m_score__min__energy>  (17) 
-10.050000000000001

>  <m_primary>  (17) 
energy

>  <rmsd>  (17) 
6.453481222700859

>  <m_score__min__rmsd>  (17) 
6.453481222700859

>  <meeko>  (17) 
{"free_energy": -8.91, "intermolecular_energy": -11.59, "internal_energy": -1.45, "cluster_size": 18, "cluster_id": 1, "rank_in_cluster": 7}

>  <energy>  (17) 
-8.24

>  <cluster_rmsd>  (17) 
1.53

>  <cluster>  (17) 
1

$$$$

     RDKit          3D

 64 67  0  0  0  0  0  0  0  0999 V2000
  140.8230   79.4790  218.6540 C   0  0  0  0  0  0  0  0  0  0  0  0
  142.2010   78.9240  218.8530 C   0  0  0  0  0  0  0  0  0  0  0  0
  142.1910   77.8420  219.8670 C   0  0  0  0  0  0  0  0  0  0  0  0
  143.0800   76.9210  219.7900 O   0  0  0  0  0  0  0  0  0  0  0  0
  141.2430   77.7670  220.9290 N   0  0  0  0  0  0  0  0  0  0  0  0
  141.3350   78.8100  221.9100 C   0  0  0  0  0  0  0  0  0  0  0  0
  140.2320   79.5540  222.2990 C   0  0  0  0  0  0  0  0  0  0  0  0
  140.3910   80.5450  223.2600 C   0  0  0  0  0  0  0  0  0  0  0  0
  141.6130   80.8080  223.8380 C   0  0  0  0  0  0  0  0  0  0  0  0
  142.6950   80.0780  223.4560 C   0  0  0  0  0  0  0  0  0  0  0  0
  142.5680   79.0720  222.4900 C   0  0  0  0  0  0  0  0  0  0  0  0
  140.3000   76.6950  220.9700 C   0  0  0  0  0  0  0  0  0  0  0  0
  139.7650   76.3970  222.3730 C   0  0  0  0  0  0  0  0  0  0  0  0
  138.5650   75.4590  222.0820 C   0  0  0  0  0  0  0  0  0  0  0  0
  139.1470   74.1280  221.7810 N   0  0  0  0  0  0  0  0  0  0  0  0
  138.3810   73.0170  222.1520 C   0  0  0  0  0  0  0  0  0  0  0  0
  137.2500   73.3070  222.7080 O   0  0  0  0  0  0  0  0  0  0  0  0
  138.7430   71.5970  221.9730 C   0  0  2  0  0  0  0  0  0  0  0  0
  137.6790   70.6530  222.2150 N   0  0  0  0  0  0  0  0  0  0  0  0
  139.9540   71.1610  222.7120 C   0  0  0  0  0  0  0  0  0  0  0  0
  139.7500   70.1060  223.7230 C   0  0  0  0  0  0  0  0  0  0  0  0
  139.2520   68.8510  223.3980 C   0  0  0  0  0  0  0  0  0  0  0  0
  139.0530   67.8590  224.3330 C   0  0  0  0  0  0  0  0  0  0  0  0
  139.3490   68.0950  225.6430 C   0  0  0  0  0  0  0  0  0  0  0  0
  139.1590   67.1150  226.6010 O   0  0  0  0  0  0  0  0  0  0  0  0
  139.8460   69.3330  225.9980 C   0  0  0  0  0  0  0  0  0  0  0  0
  140.1240   69.5270  227.3550 C   0  0  0  0  0  0  0  0  0  0  0  0
  140.6170   70.7640  227.7750 C   0  0  0  0  0  0  0  0  0  0  0  0
  140.8260   71.7830  226.8540 C   0  0  0  0  0  0  0  0  0  0  0  0
  140.5360   71.5410  225.5190 C   0  0  0  0  0  0  0  0  0  0  0  0
  140.0470   70.3270  225.0730 C   0  0  0  0  0  0  0  0  0  0  0  0
  140.4360   74.1610  221.1570 C   0  0  0  0  0  0  0  0  0  0  0  0
  140.7030   75.4150  220.3520 C   0  0  0  0  0  0  0  0  0  0  0  0
  140.3582   79.6662  219.6332 H   0  0  0  0  0  0  0  0  0  0  0  0
  140.8853   80.4222  218.0914 H   0  0  0  0  0  0  0  0  0  0  0  0
  140.2142   78.7559  218.0914 H   0  0  0  0  0  0  0  0  0  0  0  0
  142.5686   78.5201  217.8981 H   0  0  0  0  0  0  0  0  0  0  0  0
  142.8592   79.7318  219.2055 H   0  0  0  0  0  0  0  0  0  0  0  0
  139.2447   79.3626  221.8532 H   0  0  0  0  0  0  0  0  0  0  0  0
  139.5160   81.1362  223.5678 H   0  0  0  0  0  0  0  0  0  0  0  0
  141.7125   81.5972  224.5978 H   0  0  0  0  0  0  0  0  0  0  0  0
  143.6770   80.2792  223.9090 H   0  0  0  0  0  0  0  0  0  0  0  0
  143.4497   78.4869  222.1897 H   0  0  0  0  0  0  0  0  0  0  0  0
  139.5083   77.1163  220.3330 H   0  0  0  0  0  0  0  0  0  0  0  0
  140.5239   75.8923  222.9890 H   0  0  0  0  0  0  0  0  0  0  0  0
  139.4893   77.2995  222.9382 H   0  0  0  0  0  0  0  0  0  0  0  0
  137.9064   75.3978  222.9609 H   0  0  0  0  0  0  0  0  0  0  0  0
  137.9580   75.8312  221.2435 H   0  0  0  0  0  0  0  0  0  0  0  0
  138.9709   71.5781  220.8970 H   0  0  0  0  0  0  0  0  0  0  0  0
  137.0910   70.5870  221.3270 H   0  0  0  0  0  0  0  0  0  0  0  0
  137.0130   71.1640  222.8700 H   0  0  0  0  0  0  0  0  0  0  0  0
  140.6805   70.7859  221.9761 H   0  0  0  0  0  0  0  0  0  0  0  0
  140.2948   72.0452  223.2707 H   0  0  0  0  0  0  0  0  0  0  0  0
  139.0054   68.6396  222.3470 H   0  0  0  0  0  0  0  0  0  0  0  0
  138.6569   66.8804  224.0240 H   0  0  0  0  0  0  0  0  0  0  0  0
  139.9340   66.9370  227.2270 H   0  0  0  0  0  0  0  0  0  0  0  0
  139.9567   68.7172  228.0804 H   0  0  0  0  0  0  0  0  0  0  0  0
  140.8407   70.9323  228.8388 H   0  0  0  0  0  0  0  0  0  0  0  0
  141.2132   72.7608  227.1764 H   0  0  0  0  0  0  0  0  0  0  0  0
  140.7014   72.3456  224.7874 H   0  0  0  0  0  0  0  0  0  0  0  0
  141.2019   74.0858  221.9429 H   0  0  0  0  0  0  0  0  0  0  0  0
  140.4671   73.3187  220.4502 H   0  0  0  0  0  0  0  0  0  0  0  0
  141.7848   75.4636  220.1585 H   0  0  0  0  0  0  0  0  0  0  0  0
  140.0806   75.3192  219.4501 H   0  0  0  0  0  0  0  0  0  0  0  0
  1  2  1  0
  2  3  1  0
  3  4  2  0
  3  5  1  0
  5  6  1  0
  6  7  2  0
  7  8  1  0
  8  9  2  0
  9 10  1  0
 10 11  2  0
  5 12  1  0
 12 13  1  0
 13 14  1  0
 14 15  1  0
 15 16  1  0
 16 17  2  0
 16 18  1  0
 18 19  1  0
 18 20  1  0
 20 21  1  0
 21 22  2  0
 22 23  1  0
 23 24  2  0
 24 25  1  0
 24 26  1  0
 26 27  2  0
 27 28  1  0
 28 29  2  0
 29 30  1  0
 30 31  2  0
 15 32  1  0
 32 33  1  0
 11  6  1  0
 33 12  1  0
 31 21  1  0
 31 26  1  0
  1 34  1  0
  1 35  1  0
  1 36  1  0
  2 37  1  0
  2 38  1  0
  7 39  1  0
  8 40  1  0
  9 41  1  0
 10 42  1  0
 11 43  1  0
 12 44  1  0
 13 45  1  0
 13 46  1  0
 14 47  1  0
 14 48  1  0
 18 49  1  6
 19 50  1  0
 19 51  1  0
 20 52  1  0
 20 53  1  0
 22 54  1  0
 23 55  1  0
 25 56  1  0
 27 57  1  0
 28 58  1  0
 29 59  1  0
 30 60  1  0
 32 61  1  0
 32 62  1  0
 33 63  1  0
 33 64  1  0
M  END
>  <smiles>  (18) 
CCC(=O)N(c1ccccc1)C1CCN(C(=O)[C@H](N)Cc2ccc(O)c3ccccc23)CC1

>  <score_type>  (18) 
oracle

>  <origin>  (18) 
autodockgpu

>  <m_score__min__energy>  (18) 
-10.050000000000001

>  <m_primary>  (18) 
energy

>  <rmsd>  (18) 
6.537368597971401

>  <m_score__min__rmsd>  (18) 
6.537368597971401

>  <meeko>  (18) 
{"free_energy": -8.31, "intermolecular_energy": -10.99, "internal_energy": -2.02, "cluster_size": 18, "cluster_id": 1, "rank_in_cluster": 16}

>  <energy>  (18) 
-7.86

>  <cluster_rmsd>  (18) 
1.48

>  <cluster>  (18) 
1

$$$$

     RDKit          3D

 64 67  0  0  0  0  0  0  0  0999 V2000
  138.5230   78.8990  219.9110 C   0  0  0  0  0  0  0  0  0  0  0  0
  139.5840   78.6450  218.8840 C   0  0  0  0  0  0  0  0  0  0  0  0
  140.9340   78.8710  219.4550 C   0  0  0  0  0  0  0  0  0  0  0  0
  141.8070   79.4820  218.7410 O   0  0  0  0  0  0  0  0  0  0  0  0
  141.3180   78.4470  220.7610 N   0  0  0  0  0  0  0  0  0  0  0  0
  141.5340   79.5010  221.7110 C   0  0  0  0  0  0  0  0  0  0  0  0
  142.5890   79.4790  222.6090 C   0  0  0  0  0  0  0  0  0  0  0  0
  142.7430   80.5360  223.4970 C   0  0  0  0  0  0  0  0  0  0  0  0
  141.8750   81.6070  223.5100 C   0  0  0  0  0  0  0  0  0  0  0  0
  140.8400   81.6280  222.6290 C   0  0  0  0  0  0  0  0  0  0  0  0
  140.6570   80.5770  221.7200 C   0  0  0  0  0  0  0  0  0  0  0  0
  141.4770   77.0560  221.0420 C   0  0  0  0  0  0  0  0  0  0  0  0
  141.1430   76.1460  219.8580 C   0  0  0  0  0  0  0  0  0  0  0  0
  141.7020   74.7750  220.3210 C   0  0  0  0  0  0  0  0  0  0  0  0
  140.7200   74.2380  221.2950 N   0  0  0  0  0  0  0  0  0  0  0  0
  140.5860   72.8460  221.3380 C   0  0  0  0  0  0  0  0  0  0  0  0
  141.3540   72.2080  220.5160 O   0  0  0  0  0  0  0  0  0  0  0  0
  139.6750   72.0750  222.2070 C   0  0  2  0  0  0  0  0  0  0  0  0
  138.2850   72.4570  222.1370 N   0  0  0  0  0  0  0  0  0  0  0  0
  140.0840   71.9950  223.6310 C   0  0  0  0  0  0  0  0  0  0  0  0
  139.8370   70.7050  224.3030 C   0  0  0  0  0  0  0  0  0  0  0  0
  139.2640   69.6230  223.6480 C   0  0  0  0  0  0  0  0  0  0  0  0
  139.0240   68.4140  224.2650 C   0  0  0  0  0  0  0  0  0  0  0  0
  139.3530   68.2490  225.5790 C   0  0  0  0  0  0  0  0  0  0  0  0
  139.1220   67.0460  226.2220 O   0  0  0  0  0  0  0  0  0  0  0  0
  139.9220   69.3070  226.2580 C   0  0  0  0  0  0  0  0  0  0  0  0
  140.2310   69.0890  227.6050 C   0  0  0  0  0  0  0  0  0  0  0  0
  140.7980   70.1280  228.3460 C   0  0  0  0  0  0  0  0  0  0  0  0
  141.0500   71.3570  227.7490 C   0  0  0  0  0  0  0  0  0  0  0  0
  140.7280   71.5240  226.4100 C   0  0  0  0  0  0  0  0  0  0  0  0
  140.1650   70.5140  225.6500 C   0  0  0  0  0  0  0  0  0  0  0  0
  140.0250   75.2310  222.0580 C   0  0  0  0  0  0  0  0  0  0  0  0
  140.7890   76.5250  222.2370 C   0  0  0  0  0  0  0  0  0  0  0  0
  138.9547   78.7957  220.9175 H   0  0  0  0  0  0  0  0  0  0  0  0
  138.1268   79.9174  219.7847 H   0  0  0  0  0  0  0  0  0  0  0  0
  137.7086   78.1704  219.7847 H   0  0  0  0  0  0  0  0  0  0  0  0
  139.5086   77.6037  218.5374 H   0  0  0  0  0  0  0  0  0  0  0  0
  139.4354   79.3396  218.0441 H   0  0  0  0  0  0  0  0  0  0  0  0
  143.2952   78.6357  222.6186 H   0  0  0  0  0  0  0  0  0  0  0  0
  143.5808   80.5180  224.2096 H   0  0  0  0  0  0  0  0  0  0  0  0
  142.0179   82.4325  224.2229 H   0  0  0  0  0  0  0  0  0  0  0  0
  140.1403   82.4768  222.6295 H   0  0  0  0  0  0  0  0  0  0  0  0
  139.8159   80.6049  221.0116 H   0  0  0  0  0  0  0  0  0  0  0  0
  142.5546   77.0288  221.2613 H   0  0  0  0  0  0  0  0  0  0  0  0
  140.0572   76.0961  219.6888 H   0  0  0  0  0  0  0  0  0  0  0  0
  141.5671   76.4933  218.9043 H   0  0  0  0  0  0  0  0  0  0  0  0
  141.8006   74.0935  219.4632 H   0  0  0  0  0  0  0  0  0  0  0  0
  142.6997   74.8795  220.7723 H   0  0  0  0  0  0  0  0  0  0  0  0
  139.7713   71.0721  221.7656 H   0  0  0  0  0  0  0  0  0  0  0  0
  138.1110   72.8860  221.1760 H   0  0  0  0  0  0  0  0  0  0  0  0
  138.2130   73.3140  222.7650 H   0  0  0  0  0  0  0  0  0  0  0  0
  141.1634   72.2006  223.6833 H   0  0  0  0  0  0  0  0  0  0  0  0
  139.4599   72.7298  224.1607 H   0  0  0  0  0  0  0  0  0  0  0  0
  138.9892   69.7358  222.5889 H   0  0  0  0  0  0  0  0  0  0  0  0
  138.5695   67.5862  223.7009 H   0  0  0  0  0  0  0  0  0  0  0  0
  139.7780   66.7870  226.9470 H   0  0  0  0  0  0  0  0  0  0  0  0
  140.0304   68.1140  228.0732 H   0  0  0  0  0  0  0  0  0  0  0  0
  141.0461   69.9728  229.4064 H   0  0  0  0  0  0  0  0  0  0  0  0
  141.4956   72.1806  228.3261 H   0  0  0  0  0  0  0  0  0  0  0  0
  140.9277   72.4957  225.9347 H   0  0  0  0  0  0  0  0  0  0  0  0
  139.0777   75.4579  221.5469 H   0  0  0  0  0  0  0  0  0  0  0  0
  139.8775   74.8101  223.0635 H   0  0  0  0  0  0  0  0  0  0  0  0
  140.0758   77.2894  222.5791 H   0  0  0  0  0  0  0  0  0  0  0  0
  141.5898   76.2930  222.9545 H   0  0  0  0  0  0  0  0  0  0  0  0
  1  2  1  0
  2  3  1  0
  3  4  2  0
  3  5  1  0
  5  6  1  0
  6  7  2  0
  7  8  1  0
  8  9  2  0
  9 10  1  0
 10 11  2  0
  5 12  1  0
 12 13  1  0
 13 14  1  0
 14 15  1  0
 15 16  1  0
 16 17  2  0
 16 18  1  0
 18 19  1  0
 18 20  1  0
 20 21  1  0
 21 22  2  0
 22 23  1  0
 23 24  2  0
 24 25  1  0
 24 26  1  0
 26 27  2  0
 27 28  1  0
 28 29  2  0
 29 30  1  0
 30 31  2  0
 15 32  1  0
 32 33  1  0
 11  6  1  0
 33 12  1  0
 31 21  1  0
 31 26  1  0
  1 34  1  0
  1 35  1  0
  1 36  1  0
  2 37  1  0
  2 38  1  0
  7 39  1  0
  8 40  1  0
  9 41  1  0
 10 42  1  0
 11 43  1  0
 12 44  1  0
 13 45  1  0
 13 46  1  0
 14 47  1  0
 14 48  1  0
 18 49  1  6
 19 50  1  0
 19 51  1  0
 20 52  1  0
 20 53  1  0
 22 54  1  0
 23 55  1  0
 25 56  1  0
 27 57  1  0
 28 58  1  0
 29 59  1  0
 30 60  1  0
 32 61  1  0
 32 62  1  0
 33 63  1  0
 33 64  1  0
M  END
>  <smiles>  (19) 
CCC(=O)N(c1ccccc1)C1CCN(C(=O)[C@H](N)Cc2ccc(O)c3ccccc23)CC1

>  <score_type>  (19) 
oracle

>  <origin>  (19) 
autodockgpu

>  <m_score__min__energy>  (19) 
-10.050000000000001

>  <m_primary>  (19) 
energy

>  <rmsd>  (19) 
6.304776939213887

>  <m_score__min__rmsd>  (19) 
6.304776939213887

>  <meeko>  (19) 
{"free_energy": -9.24, "intermolecular_energy": -11.92, "internal_energy": -1.49, "cluster_size": 18, "cluster_id": 1, "rank_in_cluster": 5}

>  <energy>  (19) 
-9.11

>  <cluster_rmsd>  (19) 
0.0

>  <cluster>  (19) 
2

$$$$

     RDKit          3D

 64 67  0  0  0  0  0  0  0  0999 V2000
  143.2620   83.7130  217.1520 C   0  0  0  0  0  0  0  0  0  0  0  0
  143.6660   82.2710  217.0840 C   0  0  0  0  0  0  0  0  0  0  0  0
  142.4870   81.4050  216.8470 C   0  0  0  0  0  0  0  0  0  0  0  0
  142.0570   81.2690  215.6450 O   0  0  0  0  0  0  0  0  0  0  0  0
  141.7980   80.7090  217.8830 N   0  0  0  0  0  0  0  0  0  0  0  0
  142.1910   79.3420  218.0700 C   0  0  0  0  0  0  0  0  0  0  0  0
  142.1850   78.7380  219.3180 C   0  0  0  0  0  0  0  0  0  0  0  0
  142.5710   77.4070  219.4270 C   0  0  0  0  0  0  0  0  0  0  0  0
  142.9580   76.6710  218.3290 C   0  0  0  0  0  0  0  0  0  0  0  0
  142.9630   77.2630  217.1050 C   0  0  0  0  0  0  0  0  0  0  0  0
  142.5800   78.6030  216.9620 C   0  0  0  0  0  0  0  0  0  0  0  0
  140.7860   81.3740  218.6400 C   0  0  0  0  0  0  0  0  0  0  0  0
  141.3170   82.0840  219.8880 C   0  0  0  0  0  0  0  0  0  0  0  0
  140.1110   82.9610  220.3120 C   0  0  0  0  0  0  0  0  0  0  0  0
  139.1490   82.0470  220.9730 N   0  0  0  0  0  0  0  0  0  0  0  0
  138.3740   82.5960  222.0000 C   0  0  0  0  0  0  0  0  0  0  0  0
  138.6010   83.8480  222.2310 O   0  0  0  0  0  0  0  0  0  0  0  0
  137.3620   81.8930  222.8130 C   0  0  2  0  0  0  0  0  0  0  0  0
  136.3180   82.7290  223.3580 N   0  0  0  0  0  0  0  0  0  0  0  0
  137.9100   81.0370  223.8940 C   0  0  0  0  0  0  0  0  0  0  0  0
  138.7460   79.9030  223.4580 C   0  0  0  0  0  0  0  0  0  0  0  0
  138.2040   78.6820  223.0770 C   0  0  0  0  0  0  0  0  0  0  0  0
  138.9750   77.6140  222.6710 C   0  0  0  0  0  0  0  0  0  0  0  0
  140.3330   77.7350  222.6360 C   0  0  0  0  0  0  0  0  0  0  0  0
  141.1290   76.6780  222.2330 O   0  0  0  0  0  0  0  0  0  0  0  0
  140.9020   78.9350  223.0110 C   0  0  0  0  0  0  0  0  0  0  0  0
  142.2980   79.0030  222.9660 C   0  0  0  0  0  0  0  0  0  0  0  0
  142.9300   80.1890  223.3450 C   0  0  0  0  0  0  0  0  0  0  0  0
  142.1780   81.2820  223.7600 C   0  0  0  0  0  0  0  0  0  0  0  0
  140.7960   81.1650  223.7850 C   0  0  0  0  0  0  0  0  0  0  0  0
  140.1420   80.0040  223.4150 C   0  0  0  0  0  0  0  0  0  0  0  0
  139.1530   80.7040  220.4730 C   0  0  0  0  0  0  0  0  0  0  0  0
  139.6040   80.5800  219.0330 C   0  0  0  0  0  0  0  0  0  0  0  0
  143.1759   84.0204  218.2046 H   0  0  0  0  0  0  0  0  0  0  0  0
  144.0217   84.3307  216.6506 H   0  0  0  0  0  0  0  0  0  0  0  0
  142.2920   83.8460  216.6506 H   0  0  0  0  0  0  0  0  0  0  0  0
  144.3839   82.1360  216.2615 H   0  0  0  0  0  0  0  0  0  0  0  0
  144.1247   81.9877  218.0428 H   0  0  0  0  0  0  0  0  0  0  0  0
  141.8789   79.3044  220.2099 H   0  0  0  0  0  0  0  0  0  0  0  0
  142.5673   76.9284  220.4174 H   0  0  0  0  0  0  0  0  0  0  0  0
  143.2588   75.6189  218.4408 H   0  0  0  0  0  0  0  0  0  0  0  0
  143.2700   76.6856  216.2205 H   0  0  0  0  0  0  0  0  0  0  0  0
  142.5877   79.0714  215.9667 H   0  0  0  0  0  0  0  0  0  0  0  0
  140.4403   82.1044  217.8936 H   0  0  0  0  0  0  0  0  0  0  0  0
  141.5798   81.3618  220.6750 H   0  0  0  0  0  0  0  0  0  0  0  0
  142.2367   82.6598  219.7077 H   0  0  0  0  0  0  0  0  0  0  0  0
  140.4363   83.7442  221.0126 H   0  0  0  0  0  0  0  0  0  0  0  0
  139.6564   83.4643  219.4459 H   0  0  0  0  0  0  0  0  0  0  0  0
  136.9080   81.2391  222.0538 H   0  0  0  0  0  0  0  0  0  0  0  0
  136.5790   83.7460  223.1660 H   0  0  0  0  0  0  0  0  0  0  0  0
  136.4560   82.6730  224.4120 H   0  0  0  0  0  0  0  0  0  0  0  0
  138.5216   81.6736  224.5503 H   0  0  0  0  0  0  0  0  0  0  0  0
  137.0363   80.5887  224.3897 H   0  0  0  0  0  0  0  0  0  0  0  0
  137.1108   78.5621  223.1003 H   0  0  0  0  0  0  0  0  0  0  0  0
  138.4970   76.6681  222.3765 H   0  0  0  0  0  0  0  0  0  0  0  0
  141.9640   76.9120  221.7120 H   0  0  0  0  0  0  0  0  0  0  0  0
  142.8891   78.1356  222.6371 H   0  0  0  0  0  0  0  0  0  0  0  0
  144.0274   80.2587  223.3151 H   0  0  0  0  0  0  0  0  0  0  0  0
  142.6682   82.2193  224.0620 H   0  0  0  0  0  0  0  0  0  0  0  0
  140.1977   82.0284  224.1115 H   0  0  0  0  0  0  0  0  0  0  0  0
  139.8299   80.1045  221.0995 H   0  0  0  0  0  0  0  0  0  0  0  0
  138.1124   80.3494  220.5103 H   0  0  0  0  0  0  0  0  0  0  0  0
  139.8358   79.5211  218.8458 H   0  0  0  0  0  0  0  0  0  0  0  0
  138.7732   80.9799  218.4331 H   0  0  0  0  0  0  0  0  0  0  0  0
  1  2  1  0
  2  3  1  0
  3  4  2  0
  3  5  1  0
  5  6  1  0
  6  7  2  0
  7  8  1  0
  8  9  2  0
  9 10  1  0
 10 11  2  0
  5 12  1  0
 12 13  1  0
 13 14  1  0
 14 15  1  0
 15 16  1  0
 16 17  2  0
 16 18  1  0
 18 19  1  0
 18 20  1  0
 20 21  1  0
 21 22  2  0
 22 23  1  0
 23 24  2  0
 24 25  1  0
 24 26  1  0
 26 27  2  0
 27 28  1  0
 28 29  2  0
 29 30  1  0
 30 31  2  0
 15 32  1  0
 32 33  1  0
 11  6  1  0
 33 12  1  0
 31 21  1  0
 31 26  1  0
  1 34  1  0
  1 35  1  0
  1 36  1  0
  2 37  1  0
  2 38  1  0
  7 39  1  0
  8 40  1  0
  9 41  1  0
 10 42  1  0
 11 43  1  0
 12 44  1  0
 13 45  1  0
 13 46  1  0
 14 47  1  0
 14 48  1  0
 18 49  1  6
 19 50  1  0
 19 51  1  0
 20 52  1  0
 20 53  1  0
 22 54  1  0
 23 55  1  0
 25 56  1  0
 27 57  1  0
 28 58  1  0
 29 59  1  0
 30 60  1  0
 32 61  1  0
 32 62  1  0
 33 63  1  0
 33 64  1  0
M  END
>  <smiles>  (20) 
CCC(=O)N(c1ccccc1)C1CCN(C(=O)[C@H](N)Cc2ccc(O)c3ccccc23)CC1

>  <score_type>  (20) 
oracle

>  <origin>  (20) 
autodockgpu

>  <m_score__min__energy>  (20) 
-10.050000000000001

>  <m_primary>  (20) 
energy

>  <rmsd>  (20) 
5.77538362954885

>  <m_score__min__rmsd>  (20) 
5.77538362954885

>  <meeko>  (20) 
{"free_energy": -6.3, "intermolecular_energy": -8.98, "internal_energy": -3.58, "cluster_size": 11, "cluster_id": 11, "rank_in_cluster": 10}

>  <energy>  (20) 
-8.73

>  <cluster_rmsd>  (20) 
1.46

>  <cluster>  (20) 
2

$$$$

     RDKit          3D

 64 67  0  0  0  0  0  0  0  0999 V2000
  146.1240   73.7840  216.2250 C   0  0  0  0  0  0  0  0  0  0  0  0
  144.9210   73.6490  217.1080 C   0  0  0  0  0  0  0  0  0  0  0  0
  145.2230   72.7980  218.2840 C   0  0  0  0  0  0  0  0  0  0  0  0
  146.3110   73.0090  218.9300 O   0  0  0  0  0  0  0  0  0  0  0  0
  144.3690   71.7520  218.7400 N   0  0  0  0  0  0  0  0  0  0  0  0
  144.8960   70.4250  218.6020 C   0  0  0  0  0  0  0  0  0  0  0  0
  145.5490   70.0070  217.4530 C   0  0  0  0  0  0  0  0  0  0  0  0
  146.0410   68.7090  217.3900 C   0  0  0  0  0  0  0  0  0  0  0  0
  145.8980   67.8250  218.4370 C   0  0  0  0  0  0  0  0  0  0  0  0
  145.2570   68.2360  219.5640 C   0  0  0  0  0  0  0  0  0  0  0  0
  144.7490   69.5380  219.6600 C   0  0  0  0  0  0  0  0  0  0  0  0
  143.0820   72.0640  219.2760 C   0  0  0  0  0  0  0  0  0  0  0  0
  143.1350   72.8150  220.6080 C   0  0  0  0  0  0  0  0  0  0  0  0
  141.6710   73.2960  220.7800 C   0  0  0  0  0  0  0  0  0  0  0  0
  140.8970   72.1120  221.2260 N   0  0  0  0  0  0  0  0  0  0  0  0
  139.8130   72.3610  222.0740 C   0  0  0  0  0  0  0  0  0  0  0  0
  139.6250   73.6100  222.3510 O   0  0  0  0  0  0  0  0  0  0  0  0
  138.9030   71.3570  222.6590 C   0  0  2  0  0  0  0  0  0  0  0  0
  137.8220   71.8920  223.4530 N   0  0  0  0  0  0  0  0  0  0  0  0
  139.5710   70.2720  223.4190 C   0  0  0  0  0  0  0  0  0  0  0  0
  140.0650   70.6330  224.7620 C   0  0  0  0  0  0  0  0  0  0  0  0
  140.6070   71.8800  225.0440 C   0  0  0  0  0  0  0  0  0  0  0  0
  141.0750   72.2280  226.2930 C   0  0  0  0  0  0  0  0  0  0  0  0
  141.0170   71.3250  227.3130 C   0  0  0  0  0  0  0  0  0  0  0  0
  141.4800   71.6490  228.5760 O   0  0  0  0  0  0  0  0  0  0  0  0
  140.4850   70.0760  227.0630 C   0  0  0  0  0  0  0  0  0  0  0  0
  140.4570   69.1840  228.1400 C   0  0  0  0  0  0  0  0  0  0  0  0
  139.9410   67.9010  227.9430 C   0  0  0  0  0  0  0  0  0  0  0  0
  139.4630   67.5230  226.6950 C   0  0  0  0  0  0  0  0  0  0  0  0
  139.5110   68.4440  225.6590 C   0  0  0  0  0  0  0  0  0  0  0  0
  140.0160   69.7210  225.8230 C   0  0  0  0  0  0  0  0  0  0  0  0
  141.3800   70.8560  220.7320 C   0  0  0  0  0  0  0  0  0  0  0  0
  142.1200   70.9510  219.4150 C   0  0  0  0  0  0  0  0  0  0  0  0
  147.0257   73.8852  216.8468 H   0  0  0  0  0  0  0  0  0  0  0  0
  146.2149   72.8904  215.5900 H   0  0  0  0  0  0  0  0  0  0  0  0
  146.0145   74.6755  215.5900 H   0  0  0  0  0  0  0  0  0  0  0  0
  144.6143   74.6470  217.4544 H   0  0  0  0  0  0  0  0  0  0  0  0
  144.1115   73.1781  216.5310 H   0  0  0  0  0  0  0  0  0  0  0  0
  145.6760   70.6933  216.6028 H   0  0  0  0  0  0  0  0  0  0  0  0
  146.5595   68.3778  216.4781 H   0  0  0  0  0  0  0  0  0  0  0  0
  146.2962   66.8023  218.3626 H   0  0  0  0  0  0  0  0  0  0  0  0
  145.1365   67.5401  220.4073 H   0  0  0  0  0  0  0  0  0  0  0  0
  144.2320   69.8586  220.5765 H   0  0  0  0  0  0  0  0  0  0  0  0
  142.6967   72.7152  218.4776 H   0  0  0  0  0  0  0  0  0  0  0  0
  143.4331   72.1470  221.4295 H   0  0  0  0  0  0  0  0  0  0  0  0
  143.8700   73.6333  220.6213 H   0  0  0  0  0  0  0  0  0  0  0  0
  141.6178   74.0934  221.5359 H   0  0  0  0  0  0  0  0  0  0  0  0
  141.2707   73.7066  219.8413 H   0  0  0  0  0  0  0  0  0  0  0  0
  138.4677   70.9200  221.7482 H   0  0  0  0  0  0  0  0  0  0  0  0
  137.7320   72.9300  223.2280 H   0  0  0  0  0  0  0  0  0  0  0  0
  138.2110   71.9250  224.4440 H   0  0  0  0  0  0  0  0  0  0  0  0
  138.8501   69.4493  223.5354 H   0  0  0  0  0  0  0  0  0  0  0  0
  140.4649   70.0075  222.8351 H   0  0  0  0  0  0  0  0  0  0  0  0
  140.6655   72.6230  224.2349 H   0  0  0  0  0  0  0  0  0  0  0  0
  141.4937   73.2304  226.4662 H   0  0  0  0  0  0  0  0  0  0  0  0
  140.9300   72.3140  229.1030 H   0  0  0  0  0  0  0  0  0  0  0  0
  140.8355   69.4882  229.1270 H   0  0  0  0  0  0  0  0  0  0  0  0
  139.9131   67.1873  228.7795 H   0  0  0  0  0  0  0  0  0  0  0  0
  139.0550   66.5146  226.5316 H   0  0  0  0  0  0  0  0  0  0  0  0
  139.1331   68.1475  224.6694 H   0  0  0  0  0  0  0  0  0  0  0  0
  142.0631   70.4300  221.4816 H   0  0  0  0  0  0  0  0  0  0  0  0
  140.4965   70.2254  220.5536 H   0  0  0  0  0  0  0  0  0  0  0  0
  142.6743   70.0112  219.2750 H   0  0  0  0  0  0  0  0  0  0  0  0
  141.3440   71.1420  218.6591 H   0  0  0  0  0  0  0  0  0  0  0  0
  1  2  1  0
  2  3  1  0
  3  4  2  0
  3  5  1  0
  5  6  1  0
  6  7  2  0
  7  8  1  0
  8  9  2  0
  9 10  1  0
 10 11  2  0
  5 12  1  0
 12 13  1  0
 13 14  1  0
 14 15  1  0
 15 16  1  0
 16 17  2  0
 16 18  1  0
 18 19  1  0
 18 20  1  0
 20 21  1  0
 21 22  2  0
 22 23  1  0
 23 24  2  0
 24 25  1  0
 24 26  1  0
 26 27  2  0
 27 28  1  0
 28 29  2  0
 29 30  1  0
 30 31  2  0
 15 32  1  0
 32 33  1  0
 11  6  1  0
 33 12  1  0
 31 21  1  0
 31 26  1  0
  1 34  1  0
  1 35  1  0
  1 36  1  0
  2 37  1  0
  2 38  1  0
  7 39  1  0
  8 40  1  0
  9 41  1  0
 10 42  1  0
 11 43  1  0
 12 44  1  0
 13 45  1  0
 13 46  1  0
 14 47  1  0
 14 48  1  0
 18 49  1  6
 19 50  1  0
 19 51  1  0
 20 52  1  0
 20 53  1  0
 22 54  1  0
 23 55  1  0
 25 56  1  0
 27 57  1  0
 28 58  1  0
 29 59  1  0
 30 60  1  0
 32 61  1  0
 32 62  1  0
 33 63  1  0
 33 64  1  0
M  END
>  <smiles>  (21) 
CCC(=O)N(c1ccccc1)C1CCN(C(=O)[C@H](N)Cc2ccc(O)c3ccccc23)CC1

>  <score_type>  (21) 
oracle

>  <origin>  (21) 
autodockgpu

>  <m_score__min__energy>  (21) 
-10.050000000000001

>  <m_primary>  (21) 
energy

>  <rmsd>  (21) 
8.35236622087805

>  <m_score__min__rmsd>  (21) 
8.35236622087805

>  <meeko>  (21) 
{"free_energy": -8.65, "intermolecular_energy": -11.34, "internal_energy": -2.16, "cluster_size": 3, "cluster_id": 2, "rank_in_cluster": 3}

>  <energy>  (21) 
-8.65

>  <cluster_rmsd>  (21) 
1.6

>  <cluster>  (21) 
2

$$$$

     RDKit          3D

 64 67  0  0  0  0  0  0  0  0999 V2000
  145.6410   74.0150  220.7570 C   0  0  0  0  0  0  0  0  0  0  0  0
  144.4840   73.0660  220.8300 C   0  0  0  0  0  0  0  0  0  0  0  0
  143.5820   73.2460  219.6670 C   0  0  0  0  0  0  0  0  0  0  0  0
  143.8860   72.6730  218.5600 O   0  0  0  0  0  0  0  0  0  0  0  0
  142.3870   74.0230  219.7090 N   0  0  0  0  0  0  0  0  0  0  0  0
  142.5210   75.3790  219.2600 C   0  0  0  0  0  0  0  0  0  0  0  0
  142.0620   76.4520  220.0090 C   0  0  0  0  0  0  0  0  0  0  0  0
  142.2300   77.7410  219.5180 C   0  0  0  0  0  0  0  0  0  0  0  0
  142.8420   77.9830  218.3080 C   0  0  0  0  0  0  0  0  0  0  0  0
  143.2920   76.9310  217.5740 C   0  0  0  0  0  0  0  0  0  0  0  0
  143.1380   75.6190  218.0400 C   0  0  0  0  0  0  0  0  0  0  0  0
  141.1730   73.4420  220.1870 C   0  0  0  0  0  0  0  0  0  0  0  0
  140.7830   73.9000  221.5940 C   0  0  0  0  0  0  0  0  0  0  0  0
  139.3220   73.3970  221.7170 C   0  0  0  0  0  0  0  0  0  0  0  0
  139.4090   71.9390  221.9770 N   0  0  0  0  0  0  0  0  0  0  0  0
  138.3970   71.3880  222.7720 C   0  0  0  0  0  0  0  0  0  0  0  0
  137.5070   72.2370  223.1710 O   0  0  0  0  0  0  0  0  0  0  0  0
  138.2690   69.9750  223.1800 C   0  0  2  0  0  0  0  0  0  0  0  0
  137.3040   69.7200  224.2230 N   0  0  0  0  0  0  0  0  0  0  0  0
  139.5460   69.3040  223.5260 C   0  0  0  0  0  0  0  0  0  0  0  0
  139.7500   69.0000  224.9550 C   0  0  0  0  0  0  0  0  0  0  0  0
  139.4510   67.7580  225.5010 C   0  0  0  0  0  0  0  0  0  0  0  0
  139.6340   67.4620  226.8350 C   0  0  0  0  0  0  0  0  0  0  0  0
  140.1270   68.4150  227.6770 C   0  0  0  0  0  0  0  0  0  0  0  0
  140.3190   68.1430  229.0200 O   0  0  0  0  0  0  0  0  0  0  0  0
  140.4320   69.6600  227.1650 C   0  0  0  0  0  0  0  0  0  0  0  0
  140.9250   70.6030  228.0720 C   0  0  0  0  0  0  0  0  0  0  0  0
  141.2390   71.8830  227.6130 C   0  0  0  0  0  0  0  0  0  0  0  0
  141.0640   72.2100  226.2740 C   0  0  0  0  0  0  0  0  0  0  0  0
  140.5750   71.2390  225.4130 C   0  0  0  0  0  0  0  0  0  0  0  0
  140.2540   69.9620  225.8380 C   0  0  0  0  0  0  0  0  0  0  0  0
  140.5380   71.2880  221.3830 C   0  0  0  0  0  0  0  0  0  0  0  0
  141.0630   71.9690  220.1370 C   0  0  0  0  0  0  0  0  0  0  0  0
  145.9632   74.2793  221.7750 H   0  0  0  0  0  0  0  0  0  0  0  0
  146.4742   73.5368  220.2212 H   0  0  0  0  0  0  0  0  0  0  0  0
  145.3351   74.9257  220.2212 H   0  0  0  0  0  0  0  0  0  0  0  0
  144.8639   72.0337  220.8355 H   0  0  0  0  0  0  0  0  0  0  0  0
  143.9177   73.2702  221.7507 H   0  0  0  0  0  0  0  0  0  0  0  0
  141.5713   76.2849  220.9792 H   0  0  0  0  0  0  0  0  0  0  0  0
  141.8642   78.5915  220.1120 H   0  0  0  0  0  0  0  0  0  0  0  0
  142.9648   79.0126  217.9409 H   0  0  0  0  0  0  0  0  0  0  0  0
  143.7814   77.1116  216.6056 H   0  0  0  0  0  0  0  0  0  0  0  0
  143.5072   74.7762  217.4372 H   0  0  0  0  0  0  0  0  0  0  0  0
  140.4675   73.8357  219.4405 H   0  0  0  0  0  0  0  0  0  0  0  0
  141.4281   73.4378  222.3557 H   0  0  0  0  0  0  0  0  0  0  0  0
  140.8881   74.9842  221.7474 H   0  0  0  0  0  0  0  0  0  0  0  0
  138.8128   73.9036  222.5501 H   0  0  0  0  0  0  0  0  0  0  0  0
  138.7461   73.6086  220.8040 H   0  0  0  0  0  0  0  0  0  0  0  0
  137.8874   69.5262  222.2510 H   0  0  0  0  0  0  0  0  0  0  0  0
  136.3830   69.4510  223.7590 H   0  0  0  0  0  0  0  0  0  0  0  0
  137.0710   70.6830  224.6120 H   0  0  0  0  0  0  0  0  0  0  0  0
  139.5891   68.3555  222.9706 H   0  0  0  0  0  0  0  0  0  0  0  0
  140.3385   70.0185  223.2586 H   0  0  0  0  0  0  0  0  0  0  0  0
  139.0504   66.9759  224.8394 H   0  0  0  0  0  0  0  0  0  0  0  0
  139.3836   66.4619  227.2185 H   0  0  0  0  0  0  0  0  0  0  0  0
  140.7270   67.2460  229.2470 H   0  0  0  0  0  0  0  0  0  0  0  0
  141.0632   70.3400  229.1311 H   0  0  0  0  0  0  0  0  0  0  0  0
  141.6268   72.6364  228.3145 H   0  0  0  0  0  0  0  0  0  0  0  0
  141.3080   73.2171  225.9049 H   0  0  0  0  0  0  0  0  0  0  0  0
  140.4371   71.4937  224.3518 H   0  0  0  0  0  0  0  0  0  0  0  0
  141.3483   71.2565  222.1262 H   0  0  0  0  0  0  0  0  0  0  0  0
  140.2005   70.2867  221.0773 H   0  0  0  0  0  0  0  0  0  0  0  0
  142.0659   71.5657  219.9332 H   0  0  0  0  0  0  0  0  0  0  0  0
  140.3184   71.7591  219.3550 H   0  0  0  0  0  0  0  0  0  0  0  0
  1  2  1  0
  2  3  1  0
  3  4  2  0
  3  5  1  0
  5  6  1  0
  6  7  2  0
  7  8  1  0
  8  9  2  0
  9 10  1  0
 10 11  2  0
  5 12  1  0
 12 13  1  0
 13 14  1  0
 14 15  1  0
 15 16  1  0
 16 17  2  0
 16 18  1  0
 18 19  1  0
 18 20  1  0
 20 21  1  0
 21 22  2  0
 22 23  1  0
 23 24  2  0
 24 25  1  0
 24 26  1  0
 26 27  2  0
 27 28  1  0
 28 29  2  0
 29 30  1  0
 30 31  2  0
 15 32  1  0
 32 33  1  0
 11  6  1  0
 33 12  1  0
 31 21  1  0
 31 26  1  0
  1 34  1  0
  1 35  1  0
  1 36  1  0
  2 37  1  0
  2 38  1  0
  7 39  1  0
  8 40  1  0
  9 41  1  0
 10 42  1  0
 11 43  1  0
 12 44  1  0
 13 45  1  0
 13 46  1  0
 14 47  1  0
 14 48  1  0
 18 49  1  6
 19 50  1  0
 19 51  1  0
 20 52  1  0
 20 53  1  0
 22 54  1  0
 23 55  1  0
 25 56  1  0
 27 57  1  0
 28 58  1  0
 29 59  1  0
 30 60  1  0
 32 61  1  0
 32 62  1  0
 33 63  1  0
 33 64  1  0
M  END
>  <smiles>  (22) 
CCC(=O)N(c1ccccc1)C1CCN(C(=O)[C@H](N)Cc2ccc(O)c3ccccc23)CC1

>  <score_type>  (22) 
oracle

>  <origin>  (22) 
autodockgpu

>  <m_score__min__energy>  (22) 
-10.050000000000001

>  <m_primary>  (22) 
energy

>  <rmsd>  (22) 
8.657747059278378

>  <m_score__min__rmsd>  (22) 
8.657747059278378

>  <meeko>  (22) 
{"free_energy": -7.43, "intermolecular_energy": -10.12, "internal_energy": -2.56, "cluster_size": 5, "cluster_id": 3, "rank_in_cluster": 5}

>  <energy>  (22) 
-8.65

>  <cluster_rmsd>  (22) 
0.0

>  <cluster>  (22) 
3

$$$$

     RDKit          3D

 64 67  0  0  0  0  0  0  0  0999 V2000
  142.2970   79.2100  218.4230 C   0  0  0  0  0  0  0  0  0  0  0  0
  141.4650   80.1730  219.2140 C   0  0  0  0  0  0  0  0  0  0  0  0
  141.6030   79.9160  220.6680 C   0  0  0  0  0  0  0  0  0  0  0  0
  142.5240   80.5320  221.3150 O   0  0  0  0  0  0  0  0  0  0  0  0
  140.7660   79.0180  221.3930 N   0  0  0  0  0  0  0  0  0  0  0  0
  139.7180   79.6350  222.1540 C   0  0  0  0  0  0  0  0  0  0  0  0
  139.9370   80.1620  223.4170 C   0  0  0  0  0  0  0  0  0  0  0  0
  138.8780   80.7520  224.0970 C   0  0  0  0  0  0  0  0  0  0  0  0
  137.6160   80.8280  223.5500 C   0  0  0  0  0  0  0  0  0  0  0  0
  137.4010   80.3110  222.3110 C   0  0  0  0  0  0  0  0  0  0  0  0
  138.4480   79.7090  221.6000 C   0  0  0  0  0  0  0  0  0  0  0  0
  141.0100   77.6120  221.3380 C   0  0  0  0  0  0  0  0  0  0  0  0
  140.3560   76.9200  220.1390 C   0  0  0  0  0  0  0  0  0  0  0  0
  141.0350   75.5250  220.1470 C   0  0  0  0  0  0  0  0  0  0  0  0
  140.3800   74.7540  221.2310 N   0  0  0  0  0  0  0  0  0  0  0  0
  140.2750   73.3720  221.0350 C   0  0  0  0  0  0  0  0  0  0  0  0
  140.7790   72.9500  219.9210 O   0  0  0  0  0  0  0  0  0  0  0  0
  139.6590   72.3960  221.9540 C   0  0  2  0  0  0  0  0  0  0  0  0
  138.2830   72.6590  222.3020 N   0  0  0  0  0  0  0  0  0  0  0  0
  140.4290   72.1280  223.1940 C   0  0  0  0  0  0  0  0  0  0  0  0
  140.0580   70.9080  223.9350 C   0  0  0  0  0  0  0  0  0  0  0  0
  139.4720   69.8120  223.3160 C   0  0  0  0  0  0  0  0  0  0  0  0
  139.1170   68.6680  223.9980 C   0  0  0  0  0  0  0  0  0  0  0  0
  139.3410   68.5840  225.3410 C   0  0  0  0  0  0  0  0  0  0  0  0
  138.9950   67.4460  226.0480 O   0  0  0  0  0  0  0  0  0  0  0  0
  139.9210   69.6580  225.9850 C   0  0  0  0  0  0  0  0  0  0  0  0
  140.1200   69.5250  227.3630 C   0  0  0  0  0  0  0  0  0  0  0  0
  140.6920   70.5840  228.0700 C   0  0  0  0  0  0  0  0  0  0  0  0
  141.0580   71.7500  227.4080 C   0  0  0  0  0  0  0  0  0  0  0  0
  140.8430   71.8330  226.0410 C   0  0  0  0  0  0  0  0  0  0  0  0
  140.2780   70.8010  225.3130 C   0  0  0  0  0  0  0  0  0  0  0  0
  139.9260   75.5400  222.3400 C   0  0  0  0  0  0  0  0  0  0  0  0
  140.6990   76.8240  222.5490 C   0  0  0  0  0  0  0  0  0  0  0  0
  142.8585   78.5601  219.1103 H   0  0  0  0  0  0  0  0  0  0  0  0
  141.6420   78.5943  217.7890 H   0  0  0  0  0  0  0  0  0  0  0  0
  143.0013   79.7687  217.7890 H   0  0  0  0  0  0  0  0  0  0  0  0
  141.7957   81.1992  218.9960 H   0  0  0  0  0  0  0  0  0  0  0  0
  140.4100   80.0430  218.9312 H   0  0  0  0  0  0  0  0  0  0  0  0
  140.9358   80.1140  223.8753 H   0  0  0  0  0  0  0  0  0  0  0  0
  139.0525   81.1697  225.0995 H   0  0  0  0  0  0  0  0  0  0  0  0
  136.7939   81.3003  224.1077 H   0  0  0  0  0  0  0  0  0  0  0  0
  136.3977   80.3656  221.8633 H   0  0  0  0  0  0  0  0  0  0  0  0
  138.2622   79.2934  220.5986 H   0  0  0  0  0  0  0  0  0  0  0  0
  142.1053   77.6128  221.2366 H   0  0  0  0  0  0  0  0  0  0  0  0
  139.2678   76.8335  220.2745 H   0  0  0  0  0  0  0  0  0  0  0  0
  140.4852   77.4658  219.1928 H   0  0  0  0  0  0  0  0  0  0  0  0
  140.8877   75.0233  219.1792 H   0  0  0  0  0  0  0  0  0  0  0  0
  142.1195   75.6073  220.3117 H   0  0  0  0  0  0  0  0  0  0  0  0
  139.6821   71.4884  221.3330 H   0  0  0  0  0  0  0  0  0  0  0  0
  137.8230   73.1500  221.4740 H   0  0  0  0  0  0  0  0  0  0  0  0
  138.3350   73.4510  223.0130 H   0  0  0  0  0  0  0  0  0  0  0  0
  141.4909   72.0450  222.9193 H   0  0  0  0  0  0  0  0  0  0  0  0
  140.2028   72.9657  223.8701 H   0  0  0  0  0  0  0  0  0  0  0  0
  139.2827   69.8587  222.2334 H   0  0  0  0  0  0  0  0  0  0  0  0
  138.6549   67.8262  223.4615 H   0  0  0  0  0  0  0  0  0  0  0  0
  139.6560   67.1260  226.7430 H   0  0  0  0  0  0  0  0  0  0  0  0
  139.8300   68.5995  227.8820 H   0  0  0  0  0  0  0  0  0  0  0  0
  140.8536   70.4954  229.1545 H   0  0  0  0  0  0  0  0  0  0  0  0
  141.5089   72.5896  227.9574 H   0  0  0  0  0  0  0  0  0  0  0  0
  141.1327   72.7546  225.5150 H   0  0  0  0  0  0  0  0  0  0  0  0
  138.8698   75.7970  222.1711 H   0  0  0  0  0  0  0  0  0  0  0  0
  140.0775   74.9298  223.2426 H   0  0  0  0  0  0  0  0  0  0  0  0
  140.1085   77.4638  223.2213 H   0  0  0  0  0  0  0  0  0  0  0  0
  141.6742   76.5138  222.9524 H   0  0  0  0  0  0  0  0  0  0  0  0
  1  2  1  0
  2  3  1  0
  3  4  2  0
  3  5  1  0
  5  6  1  0
  6  7  2  0
  7  8  1  0
  8  9  2  0
  9 10  1  0
 10 11  2  0
  5 12  1  0
 12 13  1  0
 13 14  1  0
 14 15  1  0
 15 16  1  0
 16 17  2  0
 16 18  1  0
 18 19  1  0
 18 20  1  0
 20 21  1  0
 21 22  2  0
 22 23  1  0
 23 24  2  0
 24 25  1  0
 24 26  1  0
 26 27  2  0
 27 28  1  0
 28 29  2  0
 29 30  1  0
 30 31  2  0
 15 32  1  0
 32 33  1  0
 11  6  1  0
 33 12  1  0
 31 21  1  0
 31 26  1  0
  1 34  1  0
  1 35  1  0
  1 36  1  0
  2 37  1  0
  2 38  1  0
  7 39  1  0
  8 40  1  0
  9 41  1  0
 10 42  1  0
 11 43  1  0
 12 44  1  0
 13 45  1  0
 13 46  1  0
 14 47  1  0
 14 48  1  0
 18 49  1  6
 19 50  1  0
 19 51  1  0
 20 52  1  0
 20 53  1  0
 22 54  1  0
 23 55  1  0
 25 56  1  0
 27 57  1  0
 28 58  1  0
 29 59  1  0
 30 60  1  0
 32 61  1  0
 32 62  1  0
 33 63  1  0
 33 64  1  0
M  END
>  <smiles>  (23) 
CCC(=O)N(c1ccccc1)C1CCN(C(=O)[C@H](N)Cc2ccc(O)c3ccccc23)CC1

>  <score_type>  (23) 
oracle

>  <origin>  (23) 
autodockgpu

>  <m_score__min__energy>  (23) 
-10.050000000000001

>  <m_primary>  (23) 
energy

>  <rmsd>  (23) 
5.839750615800718

>  <m_score__min__rmsd>  (23) 
5.839750615800718

>  <meeko>  (23) 
{"free_energy": -8.24, "intermolecular_energy": -10.92, "internal_energy": -1.6, "cluster_size": 18, "cluster_id": 1, "rank_in_cluster": 17}

>  <energy>  (23) 
-8.55

>  <cluster_rmsd>  (23) 
0.4

>  <cluster>  (23) 
3

$$$$

     RDKit          3D

 64 67  0  0  0  0  0  0  0  0999 V2000
  142.5940   78.8000  218.2850 C   0  0  0  0  0  0  0  0  0  0  0  0
  141.3070   79.4770  218.6490 C   0  0  0  0  0  0  0  0  0  0  0  0
  140.5990   78.7250  219.7120 C   0  0  0  0  0  0  0  0  0  0  0  0
  139.3840   78.3670  219.5040 O   0  0  0  0  0  0  0  0  0  0  0  0
  141.1930   78.3730  220.9590 N   0  0  0  0  0  0  0  0  0  0  0  0
  141.4900   79.4740  221.8290 C   0  0  0  0  0  0  0  0  0  0  0  0
  140.7260   80.6310  221.8420 C   0  0  0  0  0  0  0  0  0  0  0  0
  141.0660   81.6560  222.7170 C   0  0  0  0  0  0  0  0  0  0  0  0
  142.1410   81.5540  223.5720 C   0  0  0  0  0  0  0  0  0  0  0  0
  142.8900   80.4200  223.5600 C   0  0  0  0  0  0  0  0  0  0  0  0
  142.5740   79.3680  222.6900 C   0  0  0  0  0  0  0  0  0  0  0  0
  141.4650   77.0040  221.2600 C   0  0  0  0  0  0  0  0  0  0  0  0
  141.4740   76.0920  220.0310 C   0  0  0  0  0  0  0  0  0  0  0  0
  142.0980   74.7860  220.5870 C   0  0  0  0  0  0  0  0  0  0  0  0
  141.0230   74.1100  221.3530 N   0  0  0  0  0  0  0  0  0  0  0  0
  141.0540   72.7110  221.3660 C   0  0  0  0  0  0  0  0  0  0  0  0
  142.0350   72.1910  220.7030 O   0  0  0  0  0  0  0  0  0  0  0  0
  140.0960   71.8140  222.0420 C   0  0  2  0  0  0  0  0  0  0  0  0
  138.7510   71.8380  221.5160 N   0  0  0  0  0  0  0  0  0  0  0  0
  140.0400   71.9540  223.5180 C   0  0  0  0  0  0  0  0  0  0  0  0
  139.8070   70.7100  224.2770 C   0  0  0  0  0  0  0  0  0  0  0  0
  139.2060   69.5940  223.7090 C   0  0  0  0  0  0  0  0  0  0  0  0
  138.9790   68.4280  224.4070 C   0  0  0  0  0  0  0  0  0  0  0  0
  139.3500   68.3420  225.7170 C   0  0  0  0  0  0  0  0  0  0  0  0
  139.1340   67.1830  226.4400 O   0  0  0  0  0  0  0  0  0  0  0  0
  139.9490   69.4350  226.3100 C   0  0  0  0  0  0  0  0  0  0  0  0
  140.3010   69.2970  227.6570 C   0  0  0  0  0  0  0  0  0  0  0  0
  140.8990   70.3740  228.3130 C   0  0  0  0  0  0  0  0  0  0  0  0
  141.1390   71.5620  227.6340 C   0  0  0  0  0  0  0  0  0  0  0  0
  140.7730   71.6490  226.2990 C   0  0  0  0  0  0  0  0  0  0  0  0
  140.1790   70.5990  225.6210 C   0  0  0  0  0  0  0  0  0  0  0  0
  140.0800   74.9920  221.9740 C   0  0  0  0  0  0  0  0  0  0  0  0
  140.6330   76.3630  222.3000 C   0  0  0  0  0  0  0  0  0  0  0  0
  143.1317   78.5172  219.2020 H   0  0  0  0  0  0  0  0  0  0  0  0
  142.3792   77.8982  217.6929 H   0  0  0  0  0  0  0  0  0  0  0  0
  143.2155   79.4879  217.6929 H   0  0  0  0  0  0  0  0  0  0  0  0
  141.5236   80.4934  219.0095 H   0  0  0  0  0  0  0  0  0  0  0  0
  140.6645   79.5159  217.7570 H   0  0  0  0  0  0  0  0  0  0  0  0
  139.8624   80.7363  221.1689 H   0  0  0  0  0  0  0  0  0  0  0  0
  140.4599   82.5739  222.7269 H   0  0  0  0  0  0  0  0  0  0  0  0
  142.3900   82.3793  224.2554 H   0  0  0  0  0  0  0  0  0  0  0  0
  143.7509   80.3273  224.2384 H   0  0  0  0  0  0  0  0  0  0  0  0
  143.1871   78.4547  222.6892 H   0  0  0  0  0  0  0  0  0  0  0  0
  142.4771   77.0998  221.6800 H   0  0  0  0  0  0  0  0  0  0  0  0
  140.4540   75.9177  219.6578 H   0  0  0  0  0  0  0  0  0  0  0  0
  142.0252   76.5124  219.1769 H   0  0  0  0  0  0  0  0  0  0  0  0
  142.4397   74.1445  219.7613 H   0  0  0  0  0  0  0  0  0  0  0  0
  142.9718   74.9965  221.2212 H   0  0  0  0  0  0  0  0  0  0  0  0
  140.5331   70.8325  221.8061 H   0  0  0  0  0  0  0  0  0  0  0  0
  138.7510   72.4530  220.6450 H   0  0  0  0  0  0  0  0  0  0  0  0
  138.2080   72.4440  222.2020 H   0  0  0  0  0  0  0  0  0  0  0  0
  140.9983   72.3780  223.8525 H   0  0  0  0  0  0  0  0  0  0  0  0
  139.1690   72.5940  223.7226 H   0  0  0  0  0  0  0  0  0  0  0  0
  138.8973   69.6433  222.6543 H   0  0  0  0  0  0  0  0  0  0  0  0
  138.5010   67.5707  223.9105 H   0  0  0  0  0  0  0  0  0  0  0  0
  139.7850   66.9880  227.1890 H   0  0  0  0  0  0  0  0  0  0  0  0
  140.1094   68.3544  228.1907 H   0  0  0  0  0  0  0  0  0  0  0  0
  141.1815   70.2818  229.3721 H   0  0  0  0  0  0  0  0  0  0  0  0
  141.6093   72.4155  228.1443 H   0  0  0  0  0  0  0  0  0  0  0  0
  140.9621   72.5883  225.7587 H   0  0  0  0  0  0  0  0  0  0  0  0
  139.2254   75.1179  221.2930 H   0  0  0  0  0  0  0  0  0  0  0  0
  139.7981   74.5294  222.9314 H   0  0  0  0  0  0  0  0  0  0  0  0
  139.7802   77.0277  222.5021 H   0  0  0  0  0  0  0  0  0  0  0  0
  141.3059   76.2089  223.1564 H   0  0  0  0  0  0  0  0  0  0  0  0
  1  2  1  0
  2  3  1  0
  3  4  2  0
  3  5  1  0
  5  6  1  0
  6  7  2  0
  7  8  1  0
  8  9  2  0
  9 10  1  0
 10 11  2  0
  5 12  1  0
 12 13  1  0
 13 14  1  0
 14 15  1  0
 15 16  1  0
 16 17  2  0
 16 18  1  0
 18 19  1  0
 18 20  1  0
 20 21  1  0
 21 22  2  0
 22 23  1  0
 23 24  2  0
 24 25  1  0
 24 26  1  0
 26 27  2  0
 27 28  1  0
 28 29  2  0
 29 30  1  0
 30 31  2  0
 15 32  1  0
 32 33  1  0
 11  6  1  0
 33 12  1  0
 31 21  1  0
 31 26  1  0
  1 34  1  0
  1 35  1  0
  1 36  1  0
  2 37  1  0
  2 38  1  0
  7 39  1  0
  8 40  1  0
  9 41  1  0
 10 42  1  0
 11 43  1  0
 12 44  1  0
 13 45  1  0
 13 46  1  0
 14 47  1  0
 14 48  1  0
 18 49  1  1
 19 50  1  0
 19 51  1  0
 20 52  1  0
 20 53  1  0
 22 54  1  0
 23 55  1  0
 25 56  1  0
 27 57  1  0
 28 58  1  0
 29 59  1  0
 30 60  1  0
 32 61  1  0
 32 62  1  0
 33 63  1  0
 33 64  1  0
M  END
>  <smiles>  (24) 
CCC(=O)N(c1ccccc1)C1CCN(C(=O)[C@H](N)Cc2ccc(O)c3ccccc23)CC1

>  <score_type>  (24) 
oracle

>  <origin>  (24) 
autodockgpu

>  <m_score__min__energy>  (24) 
-10.050000000000001

>  <m_primary>  (24) 
energy

>  <rmsd>  (24) 
6.369547554146181

>  <m_score__min__rmsd>  (24) 
6.369547554146181

>  <meeko>  (24) 
{"free_energy": -9.33, "intermolecular_energy": -12.02, "internal_energy": -1.57, "cluster_size": 18, "cluster_id": 1, "rank_in_cluster": 4}

>  <energy>  (24) 
-8.13

>  <cluster_rmsd>  (24) 
1.99

>  <cluster>  (24) 
3

$$$$

     RDKit          3D

 64 67  0  0  0  0  0  0  0  0999 V2000
  141.1830   78.2690  218.0340 C   0  0  0  0  0  0  0  0  0  0  0  0
  142.5810   77.9590  218.4760 C   0  0  0  0  0  0  0  0  0  0  0  0
  142.5740   77.2170  219.7600 C   0  0  0  0  0  0  0  0  0  0  0  0
  143.5440   76.4150  220.0110 O   0  0  0  0  0  0  0  0  0  0  0  0
  141.5450   77.3440  220.7390 N   0  0  0  0  0  0  0  0  0  0  0  0
  141.6740   78.4660  221.6230 C   0  0  0  0  0  0  0  0  0  0  0  0
  141.7850   78.3130  222.9970 C   0  0  0  0  0  0  0  0  0  0  0  0
  141.9140   79.4430  223.7950 C   0  0  0  0  0  0  0  0  0  0  0  0
  141.9360   80.7120  223.2590 C   0  0  0  0  0  0  0  0  0  0  0  0
  141.8280   80.8620  221.9120 C   0  0  0  0  0  0  0  0  0  0  0  0
  141.6960   79.7430  221.0800 C   0  0  0  0  0  0  0  0  0  0  0  0
  140.4900   76.3830  220.7960 C   0  0  0  0  0  0  0  0  0  0  0  0
  139.5740   76.5440  222.0110 C   0  0  0  0  0  0  0  0  0  0  0  0
  138.3780   75.6240  221.6530 C   0  0  0  0  0  0  0  0  0  0  0  0
  138.8370   74.2360  221.9070 N   0  0  0  0  0  0  0  0  0  0  0  0
  137.8610   73.3260  222.3290 C   0  0  0  0  0  0  0  0  0  0  0  0
  136.6730   73.8260  222.4350 O   0  0  0  0  0  0  0  0  0  0  0  0
  138.0660   71.9020  222.6550 C   0  0  2  0  0  0  0  0  0  0  0  0
  137.0140   71.2880  223.4290 N   0  0  0  0  0  0  0  0  0  0  0  0
  139.3750   71.5830  223.2770 C   0  0  0  0  0  0  0  0  0  0  0  0
  139.3980   70.4080  224.1690 C   0  0  0  0  0  0  0  0  0  0  0  0
  138.8730   69.1780  223.7930 C   0  0  0  0  0  0  0  0  0  0  0  0
  138.8850   68.0750  224.6180 C   0  0  0  0  0  0  0  0  0  0  0  0
  139.4290   68.1680  225.8650 C   0  0  0  0  0  0  0  0  0  0  0  0
  139.4540   67.0750  226.7120 O   0  0  0  0  0  0  0  0  0  0  0  0
  139.9580   69.3780  226.2690 C   0  0  0  0  0  0  0  0  0  0  0  0
  140.4950   69.4230  227.5590 C   0  0  0  0  0  0  0  0  0  0  0  0
  141.0330   70.6240  228.0270 C   0  0  0  0  0  0  0  0  0  0  0  0
  141.0330   71.7530  227.2170 C   0  0  0  0  0  0  0  0  0  0  0  0
  140.4910   71.6570  225.9440 C   0  0  0  0  0  0  0  0  0  0  0  0
  139.9510   70.4820  225.4530 C   0  0  0  0  0  0  0  0  0  0  0  0
  140.2370   74.0160  221.6950 C   0  0  0  0  0  0  0  0  0  0  0  0
  140.8680   74.9580  220.6920 C   0  0  0  0  0  0  0  0  0  0  0  0
  140.5423   78.4111  218.9168 H   0  0  0  0  0  0  0  0  0  0  0  0
  141.1847   79.1886  217.4304 H   0  0  0  0  0  0  0  0  0  0  0  0
  140.7958   77.4349  217.4304 H   0  0  0  0  0  0  0  0  0  0  0  0
  143.0747   77.3459  217.7077 H   0  0  0  0  0  0  0  0  0  0  0  0
  143.1243   78.9049  218.6179 H   0  0  0  0  0  0  0  0  0  0  0  0
  141.7711   77.3102  223.4490 H   0  0  0  0  0  0  0  0  0  0  0  0
  142.0010   79.3211  224.8848 H   0  0  0  0  0  0  0  0  0  0  0  0
  142.0395   81.5914  223.9116 H   0  0  0  0  0  0  0  0  0  0  0  0
  141.8444   81.8701  221.4722 H   0  0  0  0  0  0  0  0  0  0  0  0
  141.6094   79.8769  219.9916 H   0  0  0  0  0  0  0  0  0  0  0  0
  139.9536   76.6352  219.8693 H   0  0  0  0  0  0  0  0  0  0  0  0
  140.0725   76.2078  222.9321 H   0  0  0  0  0  0  0  0  0  0  0  0
  139.2826   77.5867  222.2057 H   0  0  0  0  0  0  0  0  0  0  0  0
  137.5106   75.8613  222.2865 H   0  0  0  0  0  0  0  0  0  0  0  0
  138.0656   75.7592  220.6070 H   0  0  0  0  0  0  0  0  0  0  0  0
  138.0466   71.4571  221.6492 H   0  0  0  0  0  0  0  0  0  0  0  0
  136.1010   71.7860  223.1950 H   0  0  0  0  0  0  0  0  0  0  0  0
  137.1870   71.6220  224.4250 H   0  0  0  0  0  0  0  0  0  0  0  0
  140.0979   71.4050  222.4672 H   0  0  0  0  0  0  0  0  0  0  0  0
  139.6178   72.4450  223.9157 H   0  0  0  0  0  0  0  0  0  0  0  0
  138.4279   69.0806  222.7918 H   0  0  0  0  0  0  0  0  0  0  0  0
  138.4572   67.1224  224.2721 H   0  0  0  0  0  0  0  0  0  0  0  0
  140.3550   66.6430  226.8680 H   0  0  0  0  0  0  0  0  0  0  0  0
  140.4938   68.5261  228.1958 H   0  0  0  0  0  0  0  0  0  0  0  0
  141.4581   70.6763  229.0402 H   0  0  0  0  0  0  0  0  0  0  0  0
  141.4541   72.7030  227.5779 H   0  0  0  0  0  0  0  0  0  0  0  0
  140.4905   72.5491  225.3004 H   0  0  0  0  0  0  0  0  0  0  0  0
  140.7552   74.1392  222.6574 H   0  0  0  0  0  0  0  0  0  0  0  0
  140.3388   73.0011  221.2831 H   0  0  0  0  0  0  0  0  0  0  0  0
  141.9594   74.8923  220.8127 H   0  0  0  0  0  0  0  0  0  0  0  0
  140.4958   74.6294  219.7104 H   0  0  0  0  0  0  0  0  0  0  0  0
  1  2  1  0
  2  3  1  0
  3  4  2  0
  3  5  1  0
  5  6  1  0
  6  7  2  0
  7  8  1  0
  8  9  2  0
  9 10  1  0
 10 11  2  0
  5 12  1  0
 12 13  1  0
 13 14  1  0
 14 15  1  0
 15 16  1  0
 16 17  2  0
 16 18  1  0
 18 19  1  0
 18 20  1  0
 20 21  1  0
 21 22  2  0
 22 23  1  0
 23 24  2  0
 24 25  1  0
 24 26  1  0
 26 27  2  0
 27 28  1  0
 28 29  2  0
 29 30  1  0
 30 31  2  0
 15 32  1  0
 32 33  1  0
 11  6  1  0
 33 12  1  0
 31 21  1  0
 31 26  1  0
  1 34  1  0
  1 35  1  0
  1 36  1  0
  2 37  1  0
  2 38  1  0
  7 39  1  0
  8 40  1  0
  9 41  1  0
 10 42  1  0
 11 43  1  0
 12 44  1  0
 13 45  1  0
 13 46  1  0
 14 47  1  0
 14 48  1  0
 18 49  1  6
 19 50  1  0
 19 51  1  0
 20 52  1  0
 20 53  1  0
 22 54  1  0
 23 55  1  0
 25 56  1  0
 27 57  1  0
 28 58  1  0
 29 59  1  0
 30 60  1  0
 32 61  1  0
 32 62  1  0
 33 63  1  0
 33 64  1  0
M  END
>  <smiles>  (25) 
CCC(=O)N(c1ccccc1)C1CCN(C(=O)[C@H](N)Cc2ccc(O)c3ccccc23)CC1

>  <score_type>  (25) 
oracle

>  <origin>  (25) 
autodockgpu

>  <m_score__min__energy>  (25) 
-10.050000000000001

>  <m_primary>  (25) 
energy

>  <rmsd>  (25) 
6.6221606789327705

>  <m_score__min__rmsd>  (25) 
6.6221606789327705

>  <meeko>  (25) 
{"free_energy": -8.67, "intermolecular_energy": -11.36, "internal_energy": -1.89, "cluster_size": 18, "cluster_id": 1, "rank_in_cluster": 12}

>  <energy>  (25) 
-7.76

>  <cluster_rmsd>  (25) 
1.96

>  <cluster>  (25) 
3

$$$$

     RDKit          3D

 64 67  0  0  0  0  0  0  0  0999 V2000
  143.4000   83.7200  217.0740 C   0  0  0  0  0  0  0  0  0  0  0  0
  143.7050   82.2530  217.1300 C   0  0  0  0  0  0  0  0  0  0  0  0
  142.4800   81.4520  216.8920 C   0  0  0  0  0  0  0  0  0  0  0  0
  142.0110   81.3880  215.6990 O   0  0  0  0  0  0  0  0  0  0  0  0
  141.7900   80.7430  217.9180 N   0  0  0  0  0  0  0  0  0  0  0  0
  142.1840   79.3740  218.0900 C   0  0  0  0  0  0  0  0  0  0  0  0
  142.5850   78.5830  217.0250 C   0  0  0  0  0  0  0  0  0  0  0  0
  142.9610   77.2660  217.2650 C   0  0  0  0  0  0  0  0  0  0  0  0
  142.9450   76.7260  218.5320 C   0  0  0  0  0  0  0  0  0  0  0  0
  142.5510   77.5020  219.5760 C   0  0  0  0  0  0  0  0  0  0  0  0
  142.1670   78.8330  219.3680 C   0  0  0  0  0  0  0  0  0  0  0  0
  140.7760   81.3980  218.6800 C   0  0  0  0  0  0  0  0  0  0  0  0
  141.3040   82.1050  219.9310 C   0  0  0  0  0  0  0  0  0  0  0  0
  140.0940   82.9720  220.3630 C   0  0  0  0  0  0  0  0  0  0  0  0
  139.1380   82.0480  221.0200 N   0  0  0  0  0  0  0  0  0  0  0  0
  138.3610   82.5880  222.0510 C   0  0  0  0  0  0  0  0  0  0  0  0
  138.5810   83.8400  222.2890 O   0  0  0  0  0  0  0  0  0  0  0  0
  137.3540   81.8750  222.8620 C   0  0  2  0  0  0  0  0  0  0  0  0
  136.3160   82.7040  223.4270 N   0  0  0  0  0  0  0  0  0  0  0  0
  137.9100   81.0020  223.9260 C   0  0  0  0  0  0  0  0  0  0  0  0
  138.7470   79.8770  223.4680 C   0  0  0  0  0  0  0  0  0  0  0  0
  138.2070   78.6610  223.0700 C   0  0  0  0  0  0  0  0  0  0  0  0
  138.9790   77.6020  222.6440 C   0  0  0  0  0  0  0  0  0  0  0  0
  140.3360   77.7280  222.6040 C   0  0  0  0  0  0  0  0  0  0  0  0
  141.1330   76.6800  222.1790 O   0  0  0  0  0  0  0  0  0  0  0  0
  140.9040   78.9240  222.9940 C   0  0  0  0  0  0  0  0  0  0  0  0
  142.2990   78.9970  222.9430 C   0  0  0  0  0  0  0  0  0  0  0  0
  142.9300   80.1790  223.3370 C   0  0  0  0  0  0  0  0  0  0  0  0
  142.1760   81.2630  223.7720 C   0  0  0  0  0  0  0  0  0  0  0  0
  140.7950   81.1410  223.8030 C   0  0  0  0  0  0  0  0  0  0  0  0
  140.1420   79.9840  223.4190 C   0  0  0  0  0  0  0  0  0  0  0  0
  139.1490   80.7090  220.5120 C   0  0  0  0  0  0  0  0  0  0  0  0
  139.5980   80.5950  219.0700 C   0  0  0  0  0  0  0  0  0  0  0  0
  143.3175   84.1167  218.0967 H   0  0  0  0  0  0  0  0  0  0  0  0
  144.2087   84.2426  216.5421 H   0  0  0  0  0  0  0  0  0  0  0  0
  142.4500   83.8770  216.5421 H   0  0  0  0  0  0  0  0  0  0  0  0
  144.4506   82.0098  216.3587 H   0  0  0  0  0  0  0  0  0  0  0  0
  144.0960   82.0116  218.1295 H   0  0  0  0  0  0  0  0  0  0  0  0
  142.6056   78.9914  216.0038 H   0  0  0  0  0  0  0  0  0  0  0  0
  143.2799   76.6382  216.4199 H   0  0  0  0  0  0  0  0  0  0  0  0
  143.2469   75.6811  218.6967 H   0  0  0  0  0  0  0  0  0  0  0  0
  142.5335   77.0815  220.5923 H   0  0  0  0  0  0  0  0  0  0  0  0
  141.8508   79.4517  220.2208 H   0  0  0  0  0  0  0  0  0  0  0  0
  140.4259   82.1306  217.9379 H   0  0  0  0  0  0  0  0  0  0  0  0
  141.5730   81.3801  220.7134 H   0  0  0  0  0  0  0  0  0  0  0  0
  142.2192   82.6882  219.7514 H   0  0  0  0  0  0  0  0  0  0  0  0
  140.4162   83.7524  221.0681 H   0  0  0  0  0  0  0  0  0  0  0  0
  139.6349   83.4782  219.5011 H   0  0  0  0  0  0  0  0  0  0  0  0
  136.8922   81.2332  222.0972 H   0  0  0  0  0  0  0  0  0  0  0  0
  135.5210   82.7620  222.7180 H   0  0  0  0  0  0  0  0  0  0  0  0
  136.7110   83.6920  223.3800 H   0  0  0  0  0  0  0  0  0  0  0  0
  138.5232   81.6293  224.5897 H   0  0  0  0  0  0  0  0  0  0  0  0
  137.0397   80.5430  224.4177 H   0  0  0  0  0  0  0  0  0  0  0  0
  137.1142   78.5377  223.0960 H   0  0  0  0  0  0  0  0  0  0  0  0
  138.5025   76.6591  222.3375 H   0  0  0  0  0  0  0  0  0  0  0  0
  142.1310   76.7920  222.3000 H   0  0  0  0  0  0  0  0  0  0  0  0
  142.8908   78.1365  222.5977 H   0  0  0  0  0  0  0  0  0  0  0  0
  144.0270   80.2525  223.3030 H   0  0  0  0  0  0  0  0  0  0  0  0
  142.6645   82.1976  224.0849 H   0  0  0  0  0  0  0  0  0  0  0  0
  140.1960   81.9974  224.1462 H   0  0  0  0  0  0  0  0  0  0  0  0
  139.8305   80.1099  221.1338 H   0  0  0  0  0  0  0  0  0  0  0  0
  138.1103   80.3488  220.5487 H   0  0  0  0  0  0  0  0  0  0  0  0
  139.8350   79.5384  218.8765 H   0  0  0  0  0  0  0  0  0  0  0  0
  138.7641   80.9933  218.4734 H   0  0  0  0  0  0  0  0  0  0  0  0
  1  2  1  0
  2  3  1  0
  3  4  2  0
  3  5  1  0
  5  6  1  0
  6  7  2  0
  7  8  1  0
  8  9  2  0
  9 10  1  0
 10 11  2  0
  5 12  1  0
 12 13  1  0
 13 14  1  0
 14 15  1  0
 15 16  1  0
 16 17  2  0
 16 18  1  0
 18 19  1  0
 18 20  1  0
 20 21  1  0
 21 22  2  0
 22 23  1  0
 23 24  2  0
 24 25  1  0
 24 26  1  0
 26 27  2  0
 27 28  1  0
 28 29  2  0
 29 30  1  0
 30 31  2  0
 15 32  1  0
 32 33  1  0
 11  6  1  0
 33 12  1  0
 31 21  1  0
 31 26  1  0
  1 34  1  0
  1 35  1  0
  1 36  1  0
  2 37  1  0
  2 38  1  0
  7 39  1  0
  8 40  1  0
  9 41  1  0
 10 42  1  0
 11 43  1  0
 12 44  1  0
 13 45  1  0
 13 46  1  0
 14 47  1  0
 14 48  1  0
 18 49  1  6
 19 50  1  0
 19 51  1  0
 20 52  1  0
 20 53  1  0
 22 54  1  0
 23 55  1  0
 25 56  1  0
 27 57  1  0
 28 58  1  0
 29 59  1  0
 30 60  1  0
 32 61  1  0
 32 62  1  0
 33 63  1  0
 33 64  1  0
M  END
>  <smiles>  (26) 
CCC(=O)N(c1ccccc1)C1CCN(C(=O)[C@H](N)Cc2ccc(O)c3ccccc23)CC1

>  <score_type>  (26) 
oracle

>  <origin>  (26) 
autodockgpu

>  <m_score__min__energy>  (26) 
-10.050000000000001

>  <m_primary>  (26) 
energy

>  <rmsd>  (26) 
5.773414637667177

>  <m_score__min__rmsd>  (26) 
5.773414637667177

>  <meeko>  (26) 
{"free_energy": -6.39, "intermolecular_energy": -9.08, "internal_energy": -3.64, "cluster_size": 11, "cluster_id": 11, "rank_in_cluster": 7}

>  <energy>  (26) 
-7.43

>  <cluster_rmsd>  (26) 
1.41

>  <cluster>  (26) 
3

$$$$

     RDKit          3D

 64 67  0  0  0  0  0  0  0  0999 V2000
  144.1450   82.8280  215.8440 C   0  0  0  0  0  0  0  0  0  0  0  0
  143.5600   82.3710  217.1460 C   0  0  0  0  0  0  0  0  0  0  0  0
  142.3640   81.5240  216.9170 C   0  0  0  0  0  0  0  0  0  0  0  0
  141.8940   81.4350  215.7270 O   0  0  0  0  0  0  0  0  0  0  0  0
  141.7040   80.7980  217.9510 N   0  0  0  0  0  0  0  0  0  0  0  0
  142.1350   79.4400  218.1200 C   0  0  0  0  0  0  0  0  0  0  0  0
  142.1400   78.8180  219.3590 C   0  0  0  0  0  0  0  0  0  0  0  0
  142.5640   77.4980  219.4500 C   0  0  0  0  0  0  0  0  0  0  0  0
  142.9780   76.7890  218.3430 C   0  0  0  0  0  0  0  0  0  0  0  0
  142.9730   77.4000  217.1280 C   0  0  0  0  0  0  0  0  0  0  0  0
  142.5520   78.7300  217.0030 C   0  0  0  0  0  0  0  0  0  0  0  0
  140.6800   81.4270  218.7230 C   0  0  0  0  0  0  0  0  0  0  0  0
  141.2050   82.1670  219.9560 C   0  0  0  0  0  0  0  0  0  0  0  0
  139.9720   82.9970  220.3980 C   0  0  0  0  0  0  0  0  0  0  0  0
  139.0610   82.0490  221.0830 N   0  0  0  0  0  0  0  0  0  0  0  0
  138.2830   82.5730  222.1220 C   0  0  0  0  0  0  0  0  0  0  0  0
  138.4630   83.8350  222.3400 O   0  0  0  0  0  0  0  0  0  0  0  0
  137.3170   81.8360  222.9580 C   0  0  2  0  0  0  0  0  0  0  0  0
  136.2810   82.6410  223.5620 N   0  0  0  0  0  0  0  0  0  0  0  0
  137.9220   80.9670  223.9980 C   0  0  0  0  0  0  0  0  0  0  0  0
  138.7560   79.8540  223.5050 C   0  0  0  0  0  0  0  0  0  0  0  0
  138.2140   78.6410  223.1000 C   0  0  0  0  0  0  0  0  0  0  0  0
  138.9820   77.5930  222.6420 C   0  0  0  0  0  0  0  0  0  0  0  0
  140.3370   77.7270  222.5750 C   0  0  0  0  0  0  0  0  0  0  0  0
  141.1310   76.6900  222.1180 O   0  0  0  0  0  0  0  0  0  0  0  0
  140.9060   78.9200  222.9710 C   0  0  0  0  0  0  0  0  0  0  0  0
  142.3000   79.0020  222.8920 C   0  0  0  0  0  0  0  0  0  0  0  0
  142.9330   80.1810  223.2920 C   0  0  0  0  0  0  0  0  0  0  0  0
  142.1830   81.2540  223.7600 C   0  0  0  0  0  0  0  0  0  0  0  0
  140.8030   81.1240  223.8170 C   0  0  0  0  0  0  0  0  0  0  0  0
  140.1480   79.9690  223.4290 C   0  0  0  0  0  0  0  0  0  0  0  0
  139.1110   80.7040  220.5910 C   0  0  0  0  0  0  0  0  0  0  0  0
  139.5380   80.5880  219.1440 C   0  0  0  0  0  0  0  0  0  0  0  0
  144.9981   83.4944  216.0391 H   0  0  0  0  0  0  0  0  0  0  0  0
  144.4860   81.9547  215.2686 H   0  0  0  0  0  0  0  0  0  0  0  0
  143.3802   83.3703  215.2686 H   0  0  0  0  0  0  0  0  0  0  0  0
  144.3143   81.7890  217.6959 H   0  0  0  0  0  0  0  0  0  0  0  0
  143.2601   83.2551  217.7277 H   0  0  0  0  0  0  0  0  0  0  0  0
  141.8129   79.3619  220.2574 H   0  0  0  0  0  0  0  0  0  0  0  0
  142.5694   77.0049  220.4333 H   0  0  0  0  0  0  0  0  0  0  0  0
  143.3077   75.7441  218.4408 H   0  0  0  0  0  0  0  0  0  0  0  0
  143.3021   76.8455  216.2368 H   0  0  0  0  0  0  0  0  0  0  0  0
  142.5519   79.2138  216.0151 H   0  0  0  0  0  0  0  0  0  0  0  0
  140.2909   82.1373  217.9786 H   0  0  0  0  0  0  0  0  0  0  0  0
  141.5123   81.4617  220.7422 H   0  0  0  0  0  0  0  0  0  0  0  0
  142.0966   82.7788  219.7542 H   0  0  0  0  0  0  0  0  0  0  0  0
  140.2782   83.7976  221.0874 H   0  0  0  0  0  0  0  0  0  0  0  0
  139.4808   83.4753  219.5378 H   0  0  0  0  0  0  0  0  0  0  0  0
  136.8445   81.1908  222.2026 H   0  0  0  0  0  0  0  0  0  0  0  0
  135.4970   82.7550  222.8490 H   0  0  0  0  0  0  0  0  0  0  0  0
  136.6890   83.6240  223.5840 H   0  0  0  0  0  0  0  0  0  0  0  0
  138.5511   81.5998  224.6413 H   0  0  0  0  0  0  0  0  0  0  0  0
  137.0761   80.4956  224.5198 H   0  0  0  0  0  0  0  0  0  0  0  0
  137.1227   78.5113  223.1471 H   0  0  0  0  0  0  0  0  0  0  0  0
  138.5039   76.6522  222.3317 H   0  0  0  0  0  0  0  0  0  0  0  0
  142.1290   76.8530  222.1090 H   0  0  0  0  0  0  0  0  0  0  0  0
  142.8891   78.1506  222.5204 H   0  0  0  0  0  0  0  0  0  0  0  0
  144.0287   80.2609  223.2366 H   0  0  0  0  0  0  0  0  0  0  0  0
  142.6732   82.1859  224.0782 H   0  0  0  0  0  0  0  0  0  0  0  0
  140.2067   81.9720  224.1849 H   0  0  0  0  0  0  0  0  0  0  0  0
  139.8243   80.1375  221.2076 H   0  0  0  0  0  0  0  0  0  0  0  0
  138.0867   80.3074  220.6509 H   0  0  0  0  0  0  0  0  0  0  0  0
  139.8087   79.5380  218.9588 H   0  0  0  0  0  0  0  0  0  0  0  0
  138.6802   80.9494  218.5579 H   0  0  0  0  0  0  0  0  0  0  0  0
  1  2  1  0
  2  3  1  0
  3  4  2  0
  3  5  1  0
  5  6  1  0
  6  7  2  0
  7  8  1  0
  8  9  2  0
  9 10  1  0
 10 11  2  0
  5 12  1  0
 12 13  1  0
 13 14  1  0
 14 15  1  0
 15 16  1  0
 16 17  2  0
 16 18  1  0
 18 19  1  0
 18 20  1  0
 20 21  1  0
 21 22  2  0
 22 23  1  0
 23 24  2  0
 24 25  1  0
 24 26  1  0
 26 27  2  0
 27 28  1  0
 28 29  2  0
 29 30  1  0
 30 31  2  0
 15 32  1  0
 32 33  1  0
 11  6  1  0
 33 12  1  0
 31 21  1  0
 31 26  1  0
  1 34  1  0
  1 35  1  0
  1 36  1  0
  2 37  1  0
  2 38  1  0
  7 39  1  0
  8 40  1  0
  9 41  1  0
 10 42  1  0
 11 43  1  0
 12 44  1  0
 13 45  1  0
 13 46  1  0
 14 47  1  0
 14 48  1  0
 18 49  1  6
 19 50  1  0
 19 51  1  0
 20 52  1  0
 20 53  1  0
 22 54  1  0
 23 55  1  0
 25 56  1  0
 27 57  1  0
 28 58  1  0
 29 59  1  0
 30 60  1  0
 32 61  1  0
 32 62  1  0
 33 63  1  0
 33 64  1  0
M  END
>  <smiles>  (27) 
CCC(=O)N(c1ccccc1)C1CCN(C(=O)[C@H](N)Cc2ccc(O)c3ccccc23)CC1

>  <score_type>  (27) 
oracle

>  <origin>  (27) 
autodockgpu

>  <m_score__min__energy>  (27) 
-10.050000000000001

>  <m_primary>  (27) 
energy

>  <rmsd>  (27) 
5.784825005447066

>  <m_score__min__rmsd>  (27) 
5.784825005447066

>  <meeko>  (27) 
{"free_energy": -6.42, "intermolecular_energy": -9.11, "internal_energy": -3.55, "cluster_size": 11, "cluster_id": 11, "rank_in_cluster": 2}

>  <energy>  (27) 
-7.86

>  <cluster_rmsd>  (27) 
0.0

>  <cluster>  (27) 
4

$$$$

     RDKit          3D

 64 67  0  0  0  0  0  0  0  0999 V2000
  143.4720   83.7210  217.0200 C   0  0  0  0  0  0  0  0  0  0  0  0
  143.7080   82.2440  217.1220 C   0  0  0  0  0  0  0  0  0  0  0  0
  142.4510   81.4930  216.8880 C   0  0  0  0  0  0  0  0  0  0  0  0
  141.9460   81.4940  215.7090 O   0  0  0  0  0  0  0  0  0  0  0  0
  141.7670   80.7660  217.9060 N   0  0  0  0  0  0  0  0  0  0  0  0
  142.1770   79.4010  218.0670 C   0  0  0  0  0  0  0  0  0  0  0  0
  142.5840   78.6220  216.9950 C   0  0  0  0  0  0  0  0  0  0  0  0
  142.9750   77.3090  217.2230 C   0  0  0  0  0  0  0  0  0  0  0  0
  142.9710   76.7590  218.4870 C   0  0  0  0  0  0  0  0  0  0  0  0
  142.5710   77.5230  219.5380 C   0  0  0  0  0  0  0  0  0  0  0  0
  142.1700   78.8500  219.3410 C   0  0  0  0  0  0  0  0  0  0  0  0
  140.7420   81.4020  218.6710 C   0  0  0  0  0  0  0  0  0  0  0  0
  141.2620   82.1280  219.9140 C   0  0  0  0  0  0  0  0  0  0  0  0
  140.0330   82.9700  220.3480 C   0  0  0  0  0  0  0  0  0  0  0  0
  139.1040   82.0270  221.0170 N   0  0  0  0  0  0  0  0  0  0  0  0
  138.3210   82.5540  222.0510 C   0  0  0  0  0  0  0  0  0  0  0  0
  138.5130   83.8120  222.2790 O   0  0  0  0  0  0  0  0  0  0  0  0
  137.3370   81.8220  222.8720 C   0  0  2  0  0  0  0  0  0  0  0  0
  136.2880   82.6310  223.4450 N   0  0  0  0  0  0  0  0  0  0  0  0
  137.9200   80.9630  223.9320 C   0  0  0  0  0  0  0  0  0  0  0  0
  138.7660   79.8470  223.4680 C   0  0  0  0  0  0  0  0  0  0  0  0
  138.2370   78.6210  223.0870 C   0  0  0  0  0  0  0  0  0  0  0  0
  139.0170   77.5700  222.6550 C   0  0  0  0  0  0  0  0  0  0  0  0
  140.3710   77.7150  222.5920 C   0  0  0  0  0  0  0  0  0  0  0  0
  141.1760   76.6750  222.1610 O   0  0  0  0  0  0  0  0  0  0  0  0
  140.9280   78.9210  222.9650 C   0  0  0  0  0  0  0  0  0  0  0  0
  142.3210   79.0140  222.8910 C   0  0  0  0  0  0  0  0  0  0  0  0
  142.9410   80.2070  223.2680 C   0  0  0  0  0  0  0  0  0  0  0  0
  142.1800   81.2820  223.7090 C   0  0  0  0  0  0  0  0  0  0  0  0
  140.8010   81.1420  223.7630 C   0  0  0  0  0  0  0  0  0  0  0  0
  140.1580   79.9730  223.3960 C   0  0  0  0  0  0  0  0  0  0  0  0
  139.1440   80.6850  220.5170 C   0  0  0  0  0  0  0  0  0  0  0  0
  139.5860   80.5730  219.0740 C   0  0  0  0  0  0  0  0  0  0  0  0
  143.4032   84.1519  218.0297 H   0  0  0  0  0  0  0  0  0  0  0  0
  144.3067   84.1891  216.4777 H   0  0  0  0  0  0  0  0  0  0  0  0
  142.5330   83.9057  216.4777 H   0  0  0  0  0  0  0  0  0  0  0  0
  144.4524   81.9448  216.3694 H   0  0  0  0  0  0  0  0  0  0  0  0
  144.0731   82.0141  218.1338 H   0  0  0  0  0  0  0  0  0  0  0  0
  142.5971   79.0384  215.9769 H   0  0  0  0  0  0  0  0  0  0  0  0
  143.2967   76.6911  216.3717 H   0  0  0  0  0  0  0  0  0  0  0  0
  143.2869   75.7170  218.6430 H   0  0  0  0  0  0  0  0  0  0  0  0
  142.5623   77.0952  220.5514 H   0  0  0  0  0  0  0  0  0  0  0  0
  141.8482   79.4582  220.1992 H   0  0  0  0  0  0  0  0  0  0  0  0
  140.3690   82.1218  217.9275 H   0  0  0  0  0  0  0  0  0  0  0  0
  141.5525   81.4144  220.6991 H   0  0  0  0  0  0  0  0  0  0  0  0
  142.1628   82.7306  219.7258 H   0  0  0  0  0  0  0  0  0  0  0  0
  140.3405   83.7627  221.0459 H   0  0  0  0  0  0  0  0  0  0  0  0
  139.5567   83.4598  219.4859 H   0  0  0  0  0  0  0  0  0  0  0  0
  136.8818   81.1690  222.1128 H   0  0  0  0  0  0  0  0  0  0  0  0
  135.4770   82.6550  222.7530 H   0  0  0  0  0  0  0  0  0  0  0  0
  136.6530   83.6280  223.3760 H   0  0  0  0  0  0  0  0  0  0  0  0
  138.5339   81.6023  224.5834 H   0  0  0  0  0  0  0  0  0  0  0  0
  137.0632   80.4947  224.4386 H   0  0  0  0  0  0  0  0  0  0  0  0
  137.1467   78.4824  223.1320 H   0  0  0  0  0  0  0  0  0  0  0  0
  138.5490   76.6185  222.3624 H   0  0  0  0  0  0  0  0  0  0  0  0
  142.1590   76.8830  222.0390 H   0  0  0  0  0  0  0  0  0  0  0  0
  142.9197   78.1601  222.5410 H   0  0  0  0  0  0  0  0  0  0  0  0
  144.0361   80.2958  223.2156 H   0  0  0  0  0  0  0  0  0  0  0  0
  142.6608   82.2247  224.0092 H   0  0  0  0  0  0  0  0  0  0  0  0
  140.1958   81.9923  224.1106 H   0  0  0  0  0  0  0  0  0  0  0  0
  139.8437   80.1063  221.1379 H   0  0  0  0  0  0  0  0  0  0  0  0
  138.1146   80.3001  220.5628 H   0  0  0  0  0  0  0  0  0  0  0  0
  139.8473   79.5213  218.8854 H   0  0  0  0  0  0  0  0  0  0  0  0
  138.7388   80.9474  218.4806 H   0  0  0  0  0  0  0  0  0  0  0  0
  1  2  1  0
  2  3  1  0
  3  4  2  0
  3  5  1  0
  5  6  1  0
  6  7  2  0
  7  8  1  0
  8  9  2  0
  9 10  1  0
 10 11  2  0
  5 12  1  0
 12 13  1  0
 13 14  1  0
 14 15  1  0
 15 16  1  0
 16 17  2  0
 16 18  1  0
 18 19  1  0
 18 20  1  0
 20 21  1  0
 21 22  2  0
 22 23  1  0
 23 24  2  0
 24 25  1  0
 24 26  1  0
 26 27  2  0
 27 28  1  0
 28 29  2  0
 29 30  1  0
 30 31  2  0
 15 32  1  0
 32 33  1  0
 11  6  1  0
 33 12  1  0
 31 21  1  0
 31 26  1  0
  1 34  1  0
  1 35  1  0
  1 36  1  0
  2 37  1  0
  2 38  1  0
  7 39  1  0
  8 40  1  0
  9 41  1  0
 10 42  1  0
 11 43  1  0
 12 44  1  0
 13 45  1  0
 13 46  1  0
 14 47  1  0
 14 48  1  0
 18 49  1  6
 19 50  1  0
 19 51  1  0
 20 52  1  0
 20 53  1  0
 22 54  1  0
 23 55  1  0
 25 56  1  0
 27 57  1  0
 28 58  1  0
 29 59  1  0
 30 60  1  0
 32 61  1  0
 32 62  1  0
 33 63  1  0
 33 64  1  0
M  END
>  <smiles>  (28) 
CCC(=O)N(c1ccccc1)C1CCN(C(=O)[C@H](N)Cc2ccc(O)c3ccccc23)CC1

>  <score_type>  (28) 
oracle

>  <origin>  (28) 
autodockgpu

>  <m_score__min__energy>  (28) 
-10.050000000000001

>  <m_primary>  (28) 
energy

>  <rmsd>  (28) 
5.754869839808714

>  <m_score__min__rmsd>  (28) 
5.754869839808714

>  <meeko>  (28) 
{"free_energy": -6.41, "intermolecular_energy": -9.09, "internal_energy": -3.62, "cluster_size": 11, "cluster_id": 11, "rank_in_cluster": 4}

>  <energy>  (28) 
-7.66

>  <cluster_rmsd>  (28) 
0.73

>  <cluster>  (28) 
4

$$$$

     RDKit          3D

 64 67  0  0  0  0  0  0  0  0999 V2000
  142.5580   78.2420  218.5780 C   0  0  0  0  0  0  0  0  0  0  0  0
  141.2420   78.9330  218.7660 C   0  0  0  0  0  0  0  0  0  0  0  0
  140.4480   78.2730  219.8300 C   0  0  0  0  0  0  0  0  0  0  0  0
  139.2370   77.9360  219.5740 O   0  0  0  0  0  0  0  0  0  0  0  0
  140.9570   77.9890  221.1310 N   0  0  0  0  0  0  0  0  0  0  0  0
  141.3100   79.1360  221.9170 C   0  0  0  0  0  0  0  0  0  0  0  0
  140.5700   80.3080  221.8840 C   0  0  0  0  0  0  0  0  0  0  0  0
  140.9640   81.3790  222.6760 C   0  0  0  0  0  0  0  0  0  0  0  0
  142.0700   81.3090  223.4960 C   0  0  0  0  0  0  0  0  0  0  0  0
  142.7950   80.1590  223.5280 C   0  0  0  0  0  0  0  0  0  0  0  0
  142.4240   79.0610  222.7410 C   0  0  0  0  0  0  0  0  0  0  0  0
  141.0980   76.6350  221.5630 C   0  0  0  0  0  0  0  0  0  0  0  0
  141.4650   75.6640  220.4390 C   0  0  0  0  0  0  0  0  0  0  0  0
  141.8640   74.3840  221.2180 C   0  0  0  0  0  0  0  0  0  0  0  0
  140.5940   73.7510  221.6490 N   0  0  0  0  0  0  0  0  0  0  0  0
  140.5930   72.3540  221.7350 C   0  0  0  0  0  0  0  0  0  0  0  0
  141.7200   71.7980  221.4280 O   0  0  0  0  0  0  0  0  0  0  0  0
  139.4580   71.4960  222.1250 C   0  0  2  0  0  0  0  0  0  0  0  0
  138.2550   71.6700  221.3460 N   0  0  0  0  0  0  0  0  0  0  0  0
  139.1100   71.5330  223.5670 C   0  0  0  0  0  0  0  0  0  0  0  0
  139.3580   70.2920  224.3250 C   0  0  0  0  0  0  0  0  0  0  0  0
  138.9980   69.0410  223.8410 C   0  0  0  0  0  0  0  0  0  0  0  0
  139.2210   67.8740  224.5400 C   0  0  0  0  0  0  0  0  0  0  0  0
  139.8190   67.9240  225.7650 C   0  0  0  0  0  0  0  0  0  0  0  0
  140.0540   66.7680  226.4870 O   0  0  0  0  0  0  0  0  0  0  0  0
  140.1870   69.1530  226.2740 C   0  0  0  0  0  0  0  0  0  0  0  0
  140.7870   69.1500  227.5370 C   0  0  0  0  0  0  0  0  0  0  0  0
  141.1700   70.3650  228.1080 C   0  0  0  0  0  0  0  0  0  0  0  0
  140.9560   71.5570  227.4260 C   0  0  0  0  0  0  0  0  0  0  0  0
  140.3590   71.5080  226.1750 C   0  0  0  0  0  0  0  0  0  0  0  0
  139.9690   70.3190  225.5840 C   0  0  0  0  0  0  0  0  0  0  0  0
  139.5230   74.6660  221.9110 C   0  0  0  0  0  0  0  0  0  0  0  0
  139.9760   76.0490  222.3280 C   0  0  0  0  0  0  0  0  0  0  0  0
  142.9953   78.0124  219.5609 H   0  0  0  0  0  0  0  0  0  0  0  0
  142.4049   77.3079  218.0175 H   0  0  0  0  0  0  0  0  0  0  0  0
  143.2400   78.8983  218.0175 H   0  0  0  0  0  0  0  0  0  0  0  0
  141.4220   79.9809  219.0478 H   0  0  0  0  0  0  0  0  0  0  0  0
  140.6788   78.8815  217.8225 H   0  0  0  0  0  0  0  0  0  0  0  0
  139.6825   80.3887  221.2391 H   0  0  0  0  0  0  0  0  0  0  0  0
  140.3771   82.3089  222.6481 H   0  0  0  0  0  0  0  0  0  0  0  0
  142.3616   82.1703  224.1150 H   0  0  0  0  0  0  0  0  0  0  0  0
  143.6802   80.0903  224.1773 H   0  0  0  0  0  0  0  0  0  0  0  0
  143.0180   78.1359  222.7764 H   0  0  0  0  0  0  0  0  0  0  0  0
  141.9351   76.7473  222.2678 H   0  0  0  0  0  0  0  0  0  0  0  0
  140.6049   75.4761  219.7795 H   0  0  0  0  0  0  0  0  0  0  0  0
  142.2590   76.0397  219.7769 H   0  0  0  0  0  0  0  0  0  0  0  0
  142.4288   73.7011  220.5663 H   0  0  0  0  0  0  0  0  0  0  0  0
  142.5064   74.6217  222.0787 H   0  0  0  0  0  0  0  0  0  0  0  0
  139.8665   70.5008  221.8952 H   0  0  0  0  0  0  0  0  0  0  0  0
  137.7660   70.7250  221.2810 H   0  0  0  0  0  0  0  0  0  0  0  0
  138.6010   71.7970  220.3470 H   0  0  0  0  0  0  0  0  0  0  0  0
  139.6986   72.3361  224.0346 H   0  0  0  0  0  0  0  0  0  0  0  0
  138.0221   71.6909  223.6052 H   0  0  0  0  0  0  0  0  0  0  0  0
  138.5131   68.9786  222.8556 H   0  0  0  0  0  0  0  0  0  0  0  0
  138.9181   66.9070  224.1120 H   0  0  0  0  0  0  0  0  0  0  0  0
  139.8080   66.7880  227.4670 H   0  0  0  0  0  0  0  0  0  0  0  0
  140.9548   68.2041  228.0728 H   0  0  0  0  0  0  0  0  0  0  0  0
  141.6428   70.3790  229.1011 H   0  0  0  0  0  0  0  0  0  0  0  0
  141.2538   72.5188  227.8690 H   0  0  0  0  0  0  0  0  0  0  0  0
  140.1892   72.4496  225.6323 H   0  0  0  0  0  0  0  0  0  0  0  0
  138.9197   74.7619  220.9962 H   0  0  0  0  0  0  0  0  0  0  0  0
  138.9533   74.2520  222.7560 H   0  0  0  0  0  0  0  0  0  0  0  0
  139.1149   76.7264  222.2298 H   0  0  0  0  0  0  0  0  0  0  0  0
  140.3527   75.9343  223.3551 H   0  0  0  0  0  0  0  0  0  0  0  0
  1  2  1  0
  2  3  1  0
  3  4  2  0
  3  5  1  0
  5  6  1  0
  6  7  2  0
  7  8  1  0
  8  9  2  0
  9 10  1  0
 10 11  2  0
  5 12  1  0
 12 13  1  0
 13 14  1  0
 14 15  1  0
 15 16  1  0
 16 17  2  0
 16 18  1  0
 18 19  1  0
 18 20  1  0
 20 21  1  0
 21 22  2  0
 22 23  1  0
 23 24  2  0
 24 25  1  0
 24 26  1  0
 26 27  2  0
 27 28  1  0
 28 29  2  0
 29 30  1  0
 30 31  2  0
 15 32  1  0
 32 33  1  0
 11  6  1  0
 33 12  1  0
 31 21  1  0
 31 26  1  0
  1 34  1  0
  1 35  1  0
  1 36  1  0
  2 37  1  0
  2 38  1  0
  7 39  1  0
  8 40  1  0
  9 41  1  0
 10 42  1  0
 11 43  1  0
 12 44  1  0
 13 45  1  0
 13 46  1  0
 14 47  1  0
 14 48  1  0
 18 49  1  6
 19 50  1  0
 19 51  1  0
 20 52  1  0
 20 53  1  0
 22 54  1  0
 23 55  1  0
 25 56  1  0
 27 57  1  0
 28 58  1  0
 29 59  1  0
 30 60  1  0
 32 61  1  0
 32 62  1  0
 33 63  1  0
 33 64  1  0
M  END
>  <smiles>  (29) 
CCC(=O)N(c1ccccc1)C1CCN(C(=O)[C@H](N)Cc2ccc(O)c3ccccc23)CC1

>  <score_type>  (29) 
oracle

>  <origin>  (29) 
autodockgpu

>  <m_score__min__energy>  (29) 
-10.050000000000001

>  <m_primary>  (29) 
energy

>  <rmsd>  (29) 
6.7698557936028445

>  <m_score__min__rmsd>  (29) 
6.7698557936028445

>  <meeko>  (29) 
{"free_energy": -8.71, "intermolecular_energy": -11.4, "internal_energy": -1.66, "cluster_size": 18, "cluster_id": 1, "rank_in_cluster": 11}

>  <energy>  (29) 
-7.63

>  <cluster_rmsd>  (29) 
0.76

>  <cluster>  (29) 
4

$$$$

     RDKit          3D

 64 67  0  0  0  0  0  0  0  0999 V2000
  147.1240   69.6000  215.8140 C   0  0  0  0  0  0  0  0  0  0  0  0
  145.8030   70.3040  215.7460 C   0  0  0  0  0  0  0  0  0  0  0  0
  145.4970   70.9740  217.0340 C   0  0  0  0  0  0  0  0  0  0  0  0
  145.9920   72.1370  217.2530 O   0  0  0  0  0  0  0  0  0  0  0  0
  144.6810   70.3950  218.0490 N   0  0  0  0  0  0  0  0  0  0  0  0
  145.0100   69.0460  218.4070 C   0  0  0  0  0  0  0  0  0  0  0  0
  146.0160   68.7490  219.3130 C   0  0  0  0  0  0  0  0  0  0  0  0
  146.2770   67.4190  219.6210 C   0  0  0  0  0  0  0  0  0  0  0  0
  145.5640   66.3870  219.0510 C   0  0  0  0  0  0  0  0  0  0  0  0
  144.5770   66.6790  218.1630 C   0  0  0  0  0  0  0  0  0  0  0  0
  144.2890   68.0090  217.8310 C   0  0  0  0  0  0  0  0  0  0  0  0
  143.6130   71.1510  218.6230 C   0  0  0  0  0  0  0  0  0  0  0  0
  144.0500   72.0590  219.7750 C   0  0  0  0  0  0  0  0  0  0  0  0
  142.8090   72.9670  219.9750 C   0  0  0  0  0  0  0  0  0  0  0  0
  141.8130   72.1470  220.7070 N   0  0  0  0  0  0  0  0  0  0  0  0
  140.9640   72.8360  221.5810 C   0  0  0  0  0  0  0  0  0  0  0  0
  141.1620   74.1130  221.6260 O   0  0  0  0  0  0  0  0  0  0  0  0
  139.9060   72.2490  222.4260 C   0  0  2  0  0  0  0  0  0  0  0  0
  138.6160   72.8920  222.3360 N   0  0  0  0  0  0  0  0  0  0  0  0
  140.2650   72.0830  223.8560 C   0  0  0  0  0  0  0  0  0  0  0  0
  139.9800   70.7610  224.4450 C   0  0  0  0  0  0  0  0  0  0  0  0
  139.4030   69.7300  223.7150 C   0  0  0  0  0  0  0  0  0  0  0  0
  139.1280   68.4920  224.2540 C   0  0  0  0  0  0  0  0  0  0  0  0
  139.4260   68.2430  225.5610 C   0  0  0  0  0  0  0  0  0  0  0  0
  139.1600   67.0080  226.1270 O   0  0  0  0  0  0  0  0  0  0  0  0
  139.9990   69.2470  226.3140 C   0  0  0  0  0  0  0  0  0  0  0  0
  140.2750   68.9440  227.6510 C   0  0  0  0  0  0  0  0  0  0  0  0
  140.8440   69.9260  228.4640 C   0  0  0  0  0  0  0  0  0  0  0  0
  141.1310   71.1830  227.9480 C   0  0  0  0  0  0  0  0  0  0  0  0
  140.8400   71.4350  226.6150 C   0  0  0  0  0  0  0  0  0  0  0  0
  140.2760   70.4830  225.7850 C   0  0  0  0  0  0  0  0  0  0  0  0
  141.8650   70.7430  220.4260 C   0  0  0  0  0  0  0  0  0  0  0  0
  142.4140   70.4040  219.0570 C   0  0  0  0  0  0  0  0  0  0  0  0
  147.4057   69.4499  216.8667 H   0  0  0  0  0  0  0  0  0  0  0  0
  147.0456   68.6240  215.3126 H   0  0  0  0  0  0  0  0  0  0  0  0
  147.8904   70.2093  215.3126 H   0  0  0  0  0  0  0  0  0  0  0  0
  145.8369   71.0583  214.9461 H   0  0  0  0  0  0  0  0  0  0  0  0
  145.0179   69.5619  215.5389 H   0  0  0  0  0  0  0  0  0  0  0  0
  146.5998   69.5548  219.7818 H   0  0  0  0  0  0  0  0  0  0  0  0
  147.0754   67.1837  220.3402 H   0  0  0  0  0  0  0  0  0  0  0  0
  145.7901   65.3423  219.3106 H   0  0  0  0  0  0  0  0  0  0  0  0
  143.9998   65.8642  217.7014 H   0  0  0  0  0  0  0  0  0  0  0  0
  143.4882   68.2327  217.1108 H   0  0  0  0  0  0  0  0  0  0  0  0
  143.3128   71.7488  217.7498 H   0  0  0  0  0  0  0  0  0  0  0  0
  144.2657   71.4749  220.6818 H   0  0  0  0  0  0  0  0  0  0  0  0
  144.9739   72.6184  219.5666 H   0  0  0  0  0  0  0  0  0  0  0  0
  143.0777   73.8566  220.5636 H   0  0  0  0  0  0  0  0  0  0  0  0
  142.4098   73.3197  219.0126 H   0  0  0  0  0  0  0  0  0  0  0  0
  139.8163   71.2492  221.9762 H   0  0  0  0  0  0  0  0  0  0  0  0
  138.4400   73.1310  221.3120 H   0  0  0  0  0  0  0  0  0  0  0  0
  138.7710   73.8580  222.7540 H   0  0  0  0  0  0  0  0  0  0  0  0
  141.3443   72.2704  223.9560 H   0  0  0  0  0  0  0  0  0  0  0  0
  139.6317   72.7952  224.4053 H   0  0  0  0  0  0  0  0  0  0  0  0
  139.1542   69.9098  222.6587 H   0  0  0  0  0  0  0  0  0  0  0  0
  138.6702   67.7082  223.6327 H   0  0  0  0  0  0  0  0  0  0  0  0
  139.7710   66.7130  226.8770 H   0  0  0  0  0  0  0  0  0  0  0  0
  140.0472   67.9470  228.0560 H   0  0  0  0  0  0  0  0  0  0  0  0
  141.0660   69.7031  229.5181 H   0  0  0  0  0  0  0  0  0  0  0  0
  141.5793   71.9619  228.5823 H   0  0  0  0  0  0  0  0  0  0  0  0
  141.0663   72.4294  226.2027 H   0  0  0  0  0  0  0  0  0  0  0  0
  142.5037   70.2633  221.1822 H   0  0  0  0  0  0  0  0  0  0  0  0
  140.8278   70.3773  220.4499 H   0  0  0  0  0  0  0  0  0  0  0  0
  142.6682   69.3338  219.0547 H   0  0  0  0  0  0  0  0  0  0  0  0
  141.6223   70.6876  218.3479 H   0  0  0  0  0  0  0  0  0  0  0  0
  1  2  1  0
  2  3  1  0
  3  4  2  0
  3  5  1  0
  5  6  1  0
  6  7  2  0
  7  8  1  0
  8  9  2  0
  9 10  1  0
 10 11  2  0
  5 12  1  0
 12 13  1  0
 13 14  1  0
 14 15  1  0
 15 16  1  0
 16 17  2  0
 16 18  1  0
 18 19  1  0
 18 20  1  0
 20 21  1  0
 21 22  2  0
 22 23  1  0
 23 24  2  0
 24 25  1  0
 24 26  1  0
 26 27  2  0
 27 28  1  0
 28 29  2  0
 29 30  1  0
 30 31  2  0
 15 32  1  0
 32 33  1  0
 11  6  1  0
 33 12  1  0
 31 21  1  0
 31 26  1  0
  1 34  1  0
  1 35  1  0
  1 36  1  0
  2 37  1  0
  2 38  1  0
  7 39  1  0
  8 40  1  0
  9 41  1  0
 10 42  1  0
 11 43  1  0
 12 44  1  0
 13 45  1  0
 13 46  1  0
 14 47  1  0
 14 48  1  0
 18 49  1  6
 19 50  1  0
 19 51  1  0
 20 52  1  0
 20 53  1  0
 22 54  1  0
 23 55  1  0
 25 56  1  0
 27 57  1  0
 28 58  1  0
 29 59  1  0
 30 60  1  0
 32 61  1  0
 32 62  1  0
 33 63  1  0
 33 64  1  0
M  END
>  <smiles>  (30) 
CCC(=O)N(c1ccccc1)C1CCN(C(=O)[C@H](N)Cc2ccc(O)c3ccccc23)CC1

>  <score_type>  (30) 
oracle

>  <origin>  (30) 
autodockgpu

>  <m_score__min__energy>  (30) 
-10.050000000000001

>  <m_primary>  (30) 
energy

>  <rmsd>  (30) 
8.328229917539767

>  <m_score__min__rmsd>  (30) 
8.328229917539767

>  <meeko>  (30) 
{"free_energy": -8.73, "intermolecular_energy": -11.42, "internal_energy": -1.82, "cluster_size": 3, "cluster_id": 2, "rank_in_cluster": 2}

>  <energy>  (30) 
-7.78

>  <cluster_rmsd>  (30) 
0.0

>  <cluster>  (30) 
5

$$$$

     RDKit          3D

 64 67  0  0  0  0  0  0  0  0999 V2000
  142.6720   80.8900  217.8570 C   0  0  0  0  0  0  0  0  0  0  0  0
  142.3330   79.6600  218.6430 C   0  0  0  0  0  0  0  0  0  0  0  0
  141.2520   79.9410  219.6190 C   0  0  0  0  0  0  0  0  0  0  0  0
  140.3870   80.8450  219.3330 O   0  0  0  0  0  0  0  0  0  0  0  0
  141.1180   79.2610  220.8640 N   0  0  0  0  0  0  0  0  0  0  0  0
  141.6280   79.9630  222.0060 C   0  0  0  0  0  0  0  0  0  0  0  0
  140.8440   80.8340  222.7460 C   0  0  0  0  0  0  0  0  0  0  0  0
  141.4010   81.4760  223.8460 C   0  0  0  0  0  0  0  0  0  0  0  0
  142.7100   81.2700  224.2220 C   0  0  0  0  0  0  0  0  0  0  0  0
  143.4790   80.4150  223.4960 C   0  0  0  0  0  0  0  0  0  0  0  0
  142.9480   79.7530  222.3820 C   0  0  0  0  0  0  0  0  0  0  0  0
  140.5210   77.9640  220.9090 C   0  0  0  0  0  0  0  0  0  0  0  0
  140.6390   77.2770  222.2710 C   0  0  0  0  0  0  0  0  0  0  0  0
  139.6560   76.0860  222.1320 C   0  0  0  0  0  0  0  0  0  0  0  0
  140.3560   75.0680  221.3120 N   0  0  0  0  0  0  0  0  0  0  0  0
  140.0530   73.7300  221.5890 C   0  0  0  0  0  0  0  0  0  0  0  0
  139.1850   73.5620  222.5320 O   0  0  0  0  0  0  0  0  0  0  0  0
  140.6220   72.5410  220.9240 C   0  0  2  0  0  0  0  0  0  0  0  0
  139.7010   71.4490  220.7180 N   0  0  0  0  0  0  0  0  0  0  0  0
  141.8670   72.0150  221.5370 C   0  0  0  0  0  0  0  0  0  0  0  0
  143.1250   72.3740  220.8550 C   0  0  0  0  0  0  0  0  0  0  0  0
  143.6190   73.6720  220.8390 C   0  0  0  0  0  0  0  0  0  0  0  0
  144.7900   74.0210  220.2030 C   0  0  0  0  0  0  0  0  0  0  0  0
  145.5140   73.0670  219.5500 C   0  0  0  0  0  0  0  0  0  0  0  0
  146.6940   73.3910  218.9030 O   0  0  0  0  0  0  0  0  0  0  0  0
  145.0490   71.7680  219.5460 C   0  0  0  0  0  0  0  0  0  0  0  0
  145.8230   70.8310  218.8540 C   0  0  0  0  0  0  0  0  0  0  0  0
  145.3960   69.5020  218.8060 C   0  0  0  0  0  0  0  0  0  0  0  0
  144.2180   69.1230  219.4380 C   0  0  0  0  0  0  0  0  0  0  0  0
  143.4860   70.0890  220.1120 C   0  0  0  0  0  0  0  0  0  0  0  0
  143.8840   71.4120  220.1780 C   0  0  0  0  0  0  0  0  0  0  0  0
  141.2700   75.5990  220.3440 C   0  0  0  0  0  0  0  0  0  0  0  0
  140.9290   76.9950  219.8700 C   0  0  0  0  0  0  0  0  0  0  0  0
  142.8995   81.7154  218.5477 H   0  0  0  0  0  0  0  0  0  0  0  0
  143.5485   80.6901  217.2232 H   0  0  0  0  0  0  0  0  0  0  0  0
  141.8168   81.1674  217.2232 H   0  0  0  0  0  0  0  0  0  0  0  0
  141.9997   78.8711  217.9526 H   0  0  0  0  0  0  0  0  0  0  0  0
  143.2286   79.3342  219.1923 H   0  0  0  0  0  0  0  0  0  0  0  0
  139.7955   81.0148  222.4668 H   0  0  0  0  0  0  0  0  0  0  0  0
  140.7789   82.1680  224.4326 H   0  0  0  0  0  0  0  0  0  0  0  0
  143.1274   81.7897  225.0971 H   0  0  0  0  0  0  0  0  0  0  0  0
  144.5259   80.2421  223.7860 H   0  0  0  0  0  0  0  0  0  0  0  0
  143.5794   79.0636  221.8023 H   0  0  0  0  0  0  0  0  0  0  0  0
  139.4750   78.2307  220.6977 H   0  0  0  0  0  0  0  0  0  0  0  0
  141.6658   76.9261  222.4516 H   0  0  0  0  0  0  0  0  0  0  0  0
  140.4081   77.9397  223.1180 H   0  0  0  0  0  0  0  0  0  0  0  0
  139.4112   75.6755  223.1228 H   0  0  0  0  0  0  0  0  0  0  0  0
  138.7106   76.3980  221.6641 H   0  0  0  0  0  0  0  0  0  0  0  0
  140.8744   72.9590  219.9383 H   0  0  0  0  0  0  0  0  0  0  0  0
  139.2150   71.6020  219.7810 H   0  0  0  0  0  0  0  0  0  0  0  0
  138.9060   71.6390  221.4000 H   0  0  0  0  0  0  0  0  0  0  0  0
  141.9220   72.3963  222.5673 H   0  0  0  0  0  0  0  0  0  0  0  0
  141.7930   70.9198  221.4659 H   0  0  0  0  0  0  0  0  0  0  0  0
  143.0492   74.4570  221.3578 H   0  0  0  0  0  0  0  0  0  0  0  0
  145.1395   75.0638  220.2216 H   0  0  0  0  0  0  0  0  0  0  0  0
  146.6470   74.1370  218.2220 H   0  0  0  0  0  0  0  0  0  0  0  0
  146.7545   71.1362  218.3548 H   0  0  0  0  0  0  0  0  0  0  0  0
  145.9941   68.7531  218.2662 H   0  0  0  0  0  0  0  0  0  0  0  0
  143.8734   68.0789  219.4044 H   0  0  0  0  0  0  0  0  0  0  0  0
  142.5531   69.7917  220.6133 H   0  0  0  0  0  0  0  0  0  0  0  0
  142.2736   75.6228  220.7937 H   0  0  0  0  0  0  0  0  0  0  0  0
  141.2136   74.9432  219.4627 H   0  0  0  0  0  0  0  0  0  0  0  0
  141.8167   77.4020  219.3638 H   0  0  0  0  0  0  0  0  0  0  0  0
  140.0480   76.8750  219.2224 H   0  0  0  0  0  0  0  0  0  0  0  0
  1  2  1  0
  2  3  1  0
  3  4  2  0
  3  5  1  0
  5  6  1  0
  6  7  2  0
  7  8  1  0
  8  9  2  0
  9 10  1  0
 10 11  2  0
  5 12  1  0
 12 13  1  0
 13 14  1  0
 14 15  1  0
 15 16  1  0
 16 17  2  0
 16 18  1  0
 18 19  1  0
 18 20  1  0
 20 21  1  0
 21 22  2  0
 22 23  1  0
 23 24  2  0
 24 25  1  0
 24 26  1  0
 26 27  2  0
 27 28  1  0
 28 29  2  0
 29 30  1  0
 30 31  2  0
 15 32  1  0
 32 33  1  0
 11  6  1  0
 33 12  1  0
 31 21  1  0
 31 26  1  0
  1 34  1  0
  1 35  1  0
  1 36  1  0
  2 37  1  0
  2 38  1  0
  7 39  1  0
  8 40  1  0
  9 41  1  0
 10 42  1  0
 11 43  1  0
 12 44  1  0
 13 45  1  0
 13 46  1  0
 14 47  1  0
 14 48  1  0
 18 49  1  6
 19 50  1  0
 19 51  1  0
 20 52  1  0
 20 53  1  0
 22 54  1  0
 23 55  1  0
 25 56  1  0
 27 57  1  0
 28 58  1  0
 29 59  1  0
 30 60  1  0
 32 61  1  0
 32 62  1  0
 33 63  1  0
 33 64  1  0
M  END
>  <smiles>  (31) 
CCC(=O)N(c1ccccc1)C1CCN(C(=O)[C@H](N)Cc2ccc(O)c3ccccc23)CC1

>  <score_type>  (31) 
oracle

>  <origin>  (31) 
autodockgpu

>  <m_score__min__energy>  (31) 
-10.050000000000001

>  <m_primary>  (31) 
energy

>  <rmsd>  (31) 
5.085987084943916

>  <m_score__min__rmsd>  (31) 
5.085987084943916

>  <meeko>  (31) 
{"free_energy": -7.78, "intermolecular_energy": -10.46, "internal_energy": -2.22, "cluster_size": 1, "cluster_id": 5, "rank_in_cluster": 1}

>  <energy>  (31) 
-7.74

>  <cluster_rmsd>  (31) 
0.0

>  <cluster>  (31) 
6

$$$$

     RDKit          3D

 64 67  0  0  0  0  0  0  0  0999 V2000
  144.3650   74.7480  216.4390 C   0  0  0  0  0  0  0  0  0  0  0  0
  144.7510   73.3030  216.3490 C   0  0  0  0  0  0  0  0  0  0  0  0
  145.5330   72.8920  217.5390 C   0  0  0  0  0  0  0  0  0  0  0  0
  146.6990   73.3990  217.7130 O   0  0  0  0  0  0  0  0  0  0  0  0
  145.0620   71.9590  218.5080 N   0  0  0  0  0  0  0  0  0  0  0  0
  145.4830   70.6020  218.3110 C   0  0  0  0  0  0  0  0  0  0  0  0
  145.4580   69.6660  219.3340 C   0  0  0  0  0  0  0  0  0  0  0  0
  145.8740   68.3660  219.0710 C   0  0  0  0  0  0  0  0  0  0  0  0
  146.3090   67.9810  217.8220 C   0  0  0  0  0  0  0  0  0  0  0  0
  146.3320   68.8990  216.8190 C   0  0  0  0  0  0  0  0  0  0  0  0
  145.9210   70.2170  217.0510 C   0  0  0  0  0  0  0  0  0  0  0  0
  144.2190   72.4000  219.5740 C   0  0  0  0  0  0  0  0  0  0  0  0
  142.8220   71.7740  219.5550 C   0  0  0  0  0  0  0  0  0  0  0  0
  142.2640   72.1570  220.9500 C   0  0  0  0  0  0  0  0  0  0  0  0
  141.8670   73.5830  220.8570 N   0  0  0  0  0  0  0  0  0  0  0  0
  140.7770   73.9770  221.6410 C   0  0  0  0  0  0  0  0  0  0  0  0
  140.2620   73.0310  222.3570 O   0  0  0  0  0  0  0  0  0  0  0  0
  140.1860   75.3280  221.7140 C   0  0  2  0  0  0  0  0  0  0  0  0
  139.1240   75.4860  222.6800 N   0  0  0  0  0  0  0  0  0  0  0  0
  139.7450   75.8910  220.4140 C   0  0  0  0  0  0  0  0  0  0  0  0
  140.5970   76.9540  219.8480 C   0  0  0  0  0  0  0  0  0  0  0  0
  141.0610   76.9170  218.5390 C   0  0  0  0  0  0  0  0  0  0  0  0
  141.8600   77.9020  218.0000 C   0  0  0  0  0  0  0  0  0  0  0  0
  142.2260   78.9710  218.7650 C   0  0  0  0  0  0  0  0  0  0  0  0
  143.0260   79.9730  218.2470 O   0  0  0  0  0  0  0  0  0  0  0  0
  141.7810   79.0350  220.0700 C   0  0  0  0  0  0  0  0  0  0  0  0
  142.1920   80.1460  220.8140 C   0  0  0  0  0  0  0  0  0  0  0  0
  141.7830   80.2590  222.1440 C   0  0  0  0  0  0  0  0  0  0  0  0
  140.9780   79.2790  222.7140 C   0  0  0  0  0  0  0  0  0  0  0  0
  140.5950   78.1980  221.9350 C   0  0  0  0  0  0  0  0  0  0  0  0
  140.9850   78.0590  220.6150 C   0  0  0  0  0  0  0  0  0  0  0  0
  142.6540   74.3700  219.9550 C   0  0  0  0  0  0  0  0  0  0  0  0
  144.0650   73.8590  219.7540 C   0  0  0  0  0  0  0  0  0  0  0  0
  144.2866   75.0414  217.4962 H   0  0  0  0  0  0  0  0  0  0  0  0
  145.1302   75.3635  215.9434 H   0  0  0  0  0  0  0  0  0  0  0  0
  143.3948   74.8999  215.9434 H   0  0  0  0  0  0  0  0  0  0  0  0
  143.8400   72.6896  216.2866 H   0  0  0  0  0  0  0  0  0  0  0  0
  145.3717   73.1591  215.4523 H   0  0  0  0  0  0  0  0  0  0  0  0
  145.1137   69.9485  220.3398 H   0  0  0  0  0  0  0  0  0  0  0  0
  145.8553   67.6240  219.8829 H   0  0  0  0  0  0  0  0  0  0  0  0
  146.6331   66.9460  217.6386 H   0  0  0  0  0  0  0  0  0  0  0  0
  146.6764   68.6035  215.8170 H   0  0  0  0  0  0  0  0  0  0  0  0
  145.9452   70.9506  216.2317 H   0  0  0  0  0  0  0  0  0  0  0  0
  144.7967   72.0351  220.4361 H   0  0  0  0  0  0  0  0  0  0  0  0
  142.2061   72.2006  218.7496 H   0  0  0  0  0  0  0  0  0  0  0  0
  142.8296   70.6900  219.3681 H   0  0  0  0  0  0  0  0  0  0  0  0
  141.3921   71.5333  221.1968 H   0  0  0  0  0  0  0  0  0  0  0  0
  143.0134   71.9992  221.7397 H   0  0  0  0  0  0  0  0  0  0  0  0
  141.0504   75.9107  222.0651 H   0  0  0  0  0  0  0  0  0  0  0  0
  139.5710   75.6050  223.6410 H   0  0  0  0  0  0  0  0  0  0  0  0
  138.6960   74.5150  222.7650 H   0  0  0  0  0  0  0  0  0  0  0  0
  139.7063   75.0672  219.6861 H   0  0  0  0  0  0  0  0  0  0  0  0
  138.7714   76.3639  220.6102 H   0  0  0  0  0  0  0  0  0  0  0  0
  140.7782   76.0639  217.9049 H   0  0  0  0  0  0  0  0  0  0  0  0
  142.2014   77.8268  216.9570 H   0  0  0  0  0  0  0  0  0  0  0  0
  143.5460   79.7500  217.4090 H   0  0  0  0  0  0  0  0  0  0  0  0
  142.8279   80.9190  220.3579 H   0  0  0  0  0  0  0  0  0  0  0  0
  142.0986   81.1260  222.7429 H   0  0  0  0  0  0  0  0  0  0  0  0
  140.6518   79.3597  223.7614 H   0  0  0  0  0  0  0  0  0  0  0  0
  139.9572   77.4219  222.3832 H   0  0  0  0  0  0  0  0  0  0  0  0
  142.1492   74.3826  218.9777 H   0  0  0  0  0  0  0  0  0  0  0  0
  142.7413   75.3710  220.4027 H   0  0  0  0  0  0  0  0  0  0  0  0
  144.4743   74.3511  218.8594 H   0  0  0  0  0  0  0  0  0  0  0  0
  144.5956   74.0945  220.6883 H   0  0  0  0  0  0  0  0  0  0  0  0
  1  2  1  0
  2  3  1  0
  3  4  2  0
  3  5  1  0
  5  6  1  0
  6  7  2  0
  7  8  1  0
  8  9  2  0
  9 10  1  0
 10 11  2  0
  5 12  1  0
 12 13  1  0
 13 14  1  0
 14 15  1  0
 15 16  1  0
 16 17  2  0
 16 18  1  0
 18 19  1  0
 18 20  1  0
 20 21  1  0
 21 22  2  0
 22 23  1  0
 23 24  2  0
 24 25  1  0
 24 26  1  0
 26 27  2  0
 27 28  1  0
 28 29  2  0
 29 30  1  0
 30 31  2  0
 15 32  1  0
 32 33  1  0
 11  6  1  0
 33 12  1  0
 31 21  1  0
 31 26  1  0
  1 34  1  0
  1 35  1  0
  1 36  1  0
  2 37  1  0
  2 38  1  0
  7 39  1  0
  8 40  1  0
  9 41  1  0
 10 42  1  0
 11 43  1  0
 12 44  1  0
 13 45  1  0
 13 46  1  0
 14 47  1  0
 14 48  1  0
 18 49  1  1
 19 50  1  0
 19 51  1  0
 20 52  1  0
 20 53  1  0
 22 54  1  0
 23 55  1  0
 25 56  1  0
 27 57  1  0
 28 58  1  0
 29 59  1  0
 30 60  1  0
 32 61  1  0
 32 62  1  0
 33 63  1  0
 33 64  1  0
M  END
>  <smiles>  (32) 
CCC(=O)N(c1ccccc1)C1CCN(C(=O)[C@H](N)Cc2ccc(O)c3ccccc23)CC1

>  <score_type>  (32) 
oracle

>  <origin>  (32) 
autodockgpu

>  <m_score__min__energy>  (32) 
-10.050000000000001

>  <m_primary>  (32) 
energy

>  <rmsd>  (32) 
6.28235862819185

>  <m_score__min__rmsd>  (32) 
6.28235862819185

>  <meeko>  (32) 
{"free_energy": -7.42, "intermolecular_energy": -10.1, "internal_energy": -2.39, "cluster_size": 2, "cluster_id": 9, "rank_in_cluster": 1}

>  <energy>  (32) 
-7.48

>  <cluster_rmsd>  (32) 
0.91

>  <cluster>  (32) 
6

$$$$

     RDKit          3D

 64 67  0  0  0  0  0  0  0  0999 V2000
  142.6040   78.3960  217.5320 C   0  0  0  0  0  0  0  0  0  0  0  0
  142.1580   79.5400  218.3920 C   0  0  0  0  0  0  0  0  0  0  0  0
  141.1620   79.0880  219.3930 C   0  0  0  0  0  0  0  0  0  0  0  0
  139.9200   79.1010  219.0720 O   0  0  0  0  0  0  0  0  0  0  0  0
  141.5080   78.6360  220.7000 N   0  0  0  0  0  0  0  0  0  0  0  0
  141.7200   79.6700  221.6720 C   0  0  0  0  0  0  0  0  0  0  0  0
  141.0420   80.8780  221.6220 C   0  0  0  0  0  0  0  0  0  0  0  0
  141.2910   81.8330  222.6000 C   0  0  0  0  0  0  0  0  0  0  0  0
  142.1920   81.6140  223.6180 C   0  0  0  0  0  0  0  0  0  0  0  0
  142.8570   80.4280  223.6670 C   0  0  0  0  0  0  0  0  0  0  0  0
  142.6290   79.4450  222.6960 C   0  0  0  0  0  0  0  0  0  0  0  0
  141.6350   77.2370  220.9620 C   0  0  0  0  0  0  0  0  0  0  0  0
  141.1580   76.3490  219.8110 C   0  0  0  0  0  0  0  0  0  0  0  0
  141.6990   74.9540  220.2180 C   0  0  0  0  0  0  0  0  0  0  0  0
  140.7890   74.4510  221.2760 N   0  0  0  0  0  0  0  0  0  0  0  0
  140.6020   73.0650  221.3280 C   0  0  0  0  0  0  0  0  0  0  0  0
  141.2650   72.4020  220.4380 O   0  0  0  0  0  0  0  0  0  0  0  0
  139.7420   72.3270  222.2740 C   0  0  2  0  0  0  0  0  0  0  0  0
  138.3930   72.8240  222.3980 N   0  0  0  0  0  0  0  0  0  0  0  0
  140.3170   72.1400  223.6290 C   0  0  0  0  0  0  0  0  0  0  0  0
  140.0250   70.8510  224.2830 C   0  0  0  0  0  0  0  0  0  0  0  0
  139.4550   69.7830  223.6020 C   0  0  0  0  0  0  0  0  0  0  0  0
  139.1750   68.5750  224.2020 C   0  0  0  0  0  0  0  0  0  0  0  0
  139.4590   68.3940  225.5230 C   0  0  0  0  0  0  0  0  0  0  0  0
  139.1870   67.1910  226.1490 O   0  0  0  0  0  0  0  0  0  0  0  0
  140.0250   69.4370  226.2280 C   0  0  0  0  0  0  0  0  0  0  0  0
  140.2880   69.2030  227.5820 C   0  0  0  0  0  0  0  0  0  0  0  0
  140.8490   70.2260  228.3490 C   0  0  0  0  0  0  0  0  0  0  0  0
  141.1410   71.4550  227.7700 C   0  0  0  0  0  0  0  0  0  0  0  0
  140.8640   71.6370  226.4240 C   0  0  0  0  0  0  0  0  0  0  0  0
  140.3080   70.6430  225.6380 C   0  0  0  0  0  0  0  0  0  0  0  0
  140.2060   75.4670  222.1020 C   0  0  0  0  0  0  0  0  0  0  0  0
  141.0370   76.7270  222.2140 C   0  0  0  0  0  0  0  0  0  0  0  0
  142.9292   77.5619  218.1711 H   0  0  0  0  0  0  0  0  0  0  0  0
  141.7682   78.0671  216.8969 H   0  0  0  0  0  0  0  0  0  0  0  0
  143.4418   78.7196  216.8969 H   0  0  0  0  0  0  0  0  0  0  0  0
  143.0301   79.9597  218.9148 H   0  0  0  0  0  0  0  0  0  0  0  0
  141.6927   80.3031  217.7508 H   0  0  0  0  0  0  0  0  0  0  0  0
  140.3170   81.0778  220.8192 H   0  0  0  0  0  0  0  0  0  0  0  0
  140.7529   82.7916  222.5599 H   0  0  0  0  0  0  0  0  0  0  0  0
  142.3715   82.3864  224.3803 H   0  0  0  0  0  0  0  0  0  0  0  0
  143.5790   80.2399  224.4753 H   0  0  0  0  0  0  0  0  0  0  0  0
  143.1730   78.4902  222.7453 H   0  0  0  0  0  0  0  0  0  0  0  0
  142.7260   77.1643  221.0822 H   0  0  0  0  0  0  0  0  0  0  0  0
  140.0603   76.3447  219.7406 H   0  0  0  0  0  0  0  0  0  0  0  0
  141.5082   76.6845  218.8237 H   0  0  0  0  0  0  0  0  0  0  0  0
  141.6909   74.2744  219.3531 H   0  0  0  0  0  0  0  0  0  0  0  0
  142.7369   75.0152  220.5772 H   0  0  0  0  0  0  0  0  0  0  0  0
  139.6938   71.3436  221.7835 H   0  0  0  0  0  0  0  0  0  0  0  0
  138.4460   73.8470  222.6940 H   0  0  0  0  0  0  0  0  0  0  0  0
  138.0220   72.3670  223.2860 H   0  0  0  0  0  0  0  0  0  0  0  0
  141.4097   72.2358  223.5470 H   0  0  0  0  0  0  0  0  0  0  0  0
  139.8439   72.9066  224.2602 H   0  0  0  0  0  0  0  0  0  0  0  0
  139.2164   69.9074  222.5354 H   0  0  0  0  0  0  0  0  0  0  0  0
  138.7240   67.7596  223.6174 H   0  0  0  0  0  0  0  0  0  0  0  0
  139.7330   66.9760  226.9730 H   0  0  0  0  0  0  0  0  0  0  0  0
  140.0563   68.2279  228.0354 H   0  0  0  0  0  0  0  0  0  0  0  0
  141.0606   70.0585  229.4154 H   0  0  0  0  0  0  0  0  0  0  0  0
  141.5827   72.2664  228.3672 H   0  0  0  0  0  0  0  0  0  0  0  0
  141.0950   72.6087  225.9631 H   0  0  0  0  0  0  0  0  0  0  0  0
  139.2268   75.7359  221.6790 H   0  0  0  0  0  0  0  0  0  0  0  0
  140.1310   75.0463  223.1156 H   0  0  0  0  0  0  0  0  0  0  0  0
  140.3908   77.5182  222.6221 H   0  0  0  0  0  0  0  0  0  0  0  0
  141.8895   76.4571  222.8546 H   0  0  0  0  0  0  0  0  0  0  0  0
  1  2  1  0
  2  3  1  0
  3  4  2  0
  3  5  1  0
  5  6  1  0
  6  7  2  0
  7  8  1  0
  8  9  2  0
  9 10  1  0
 10 11  2  0
  5 12  1  0
 12 13  1  0
 13 14  1  0
 14 15  1  0
 15 16  1  0
 16 17  2  0
 16 18  1  0
 18 19  1  0
 18 20  1  0
 20 21  1  0
 21 22  2  0
 22 23  1  0
 23 24  2  0
 24 25  1  0
 24 26  1  0
 26 27  2  0
 27 28  1  0
 28 29  2  0
 29 30  1  0
 30 31  2  0
 15 32  1  0
 32 33  1  0
 11  6  1  0
 33 12  1  0
 31 21  1  0
 31 26  1  0
  1 34  1  0
  1 35  1  0
  1 36  1  0
  2 37  1  0
  2 38  1  0
  7 39  1  0
  8 40  1  0
  9 41  1  0
 10 42  1  0
 11 43  1  0
 12 44  1  0
 13 45  1  0
 13 46  1  0
 14 47  1  0
 14 48  1  0
 18 49  1  6
 19 50  1  0
 19 51  1  0
 20 52  1  0
 20 53  1  0
 22 54  1  0
 23 55  1  0
 25 56  1  0
 27 57  1  0
 28 58  1  0
 29 59  1  0
 30 60  1  0
 32 61  1  0
 32 62  1  0
 33 63  1  0
 33 64  1  0
M  END
>  <smiles>  (33) 
CCC(=O)N(c1ccccc1)C1CCN(C(=O)[C@H](N)Cc2ccc(O)c3ccccc23)CC1

>  <score_type>  (33) 
oracle

>  <origin>  (33) 
autodockgpu

>  <m_score__min__energy>  (33) 
-10.050000000000001

>  <m_primary>  (33) 
energy

>  <rmsd>  (33) 
6.145031567400333

>  <m_score__min__rmsd>  (33) 
6.145031567400333

>  <meeko>  (33) 
{"free_energy": -10.0, "intermolecular_energy": -12.69, "internal_energy": -1.43, "cluster_size": 18, "cluster_id": 1, "rank_in_cluster": 2}

>  <energy>  (33) 
-7.53

>  <cluster_rmsd>  (33) 
0.0

>  <cluster>  (33) 
7

$$$$

     RDKit          3D

 64 67  0  0  0  0  0  0  0  0999 V2000
  142.2050   80.4990  219.0010 C   0  0  0  0  0  0  0  0  0  0  0  0
  141.5930   79.1950  218.5900 C   0  0  0  0  0  0  0  0  0  0  0  0
  141.8920   78.1360  219.5850 C   0  0  0  0  0  0  0  0  0  0  0  0
  142.9120   77.3820  219.3900 O   0  0  0  0  0  0  0  0  0  0  0  0
  141.1070   77.9070  220.7520 N   0  0  0  0  0  0  0  0  0  0  0  0
  141.2310   78.9000  221.7810 C   0  0  0  0  0  0  0  0  0  0  0  0
  140.1630   79.6910  222.1740 C   0  0  0  0  0  0  0  0  0  0  0  0
  140.3510   80.6280  223.1820 C   0  0  0  0  0  0  0  0  0  0  0  0
  141.5710   80.7930  223.8030 C   0  0  0  0  0  0  0  0  0  0  0  0
  142.6180   80.0170  223.4160 C   0  0  0  0  0  0  0  0  0  0  0  0
  142.4610   79.0630  222.4030 C   0  0  0  0  0  0  0  0  0  0  0  0
  140.2830   76.7440  220.8420 C   0  0  0  0  0  0  0  0  0  0  0  0
  139.6960   76.5100  222.2360 C   0  0  0  0  0  0  0  0  0  0  0  0
  138.6240   75.4220  221.9700 C   0  0  0  0  0  0  0  0  0  0  0  0
  139.3620   74.1430  221.8250 N   0  0  0  0  0  0  0  0  0  0  0  0
  138.6980   72.9900  222.2560 C   0  0  0  0  0  0  0  0  0  0  0  0
  137.5090   73.1990  222.7220 O   0  0  0  0  0  0  0  0  0  0  0  0
  139.2200   71.6100  222.2280 C   0  0  2  0  0  0  0  0  0  0  0  0
  138.2270   70.5710  222.3620 N   0  0  0  0  0  0  0  0  0  0  0  0
  140.3330   71.3410  223.1720 C   0  0  0  0  0  0  0  0  0  0  0  0
  140.0520   70.3620  224.2390 C   0  0  0  0  0  0  0  0  0  0  0  0
  139.5390   69.0990  223.9740 C   0  0  0  0  0  0  0  0  0  0  0  0
  139.2690   68.1760  224.9620 C   0  0  0  0  0  0  0  0  0  0  0  0
  139.5080   68.4940  226.2660 C   0  0  0  0  0  0  0  0  0  0  0  0
  139.2460   67.5860  227.2770 O   0  0  0  0  0  0  0  0  0  0  0  0
  140.0170   69.7420  226.5630 C   0  0  0  0  0  0  0  0  0  0  0  0
  140.2340   70.0210  227.9160 C   0  0  0  0  0  0  0  0  0  0  0  0
  140.7370   71.2730  228.2770 C   0  0  0  0  0  0  0  0  0  0  0  0
  141.0160   72.2220  227.3020 C   0  0  0  0  0  0  0  0  0  0  0  0
  140.7860   71.8970  225.9740 C   0  0  0  0  0  0  0  0  0  0  0  0
  140.2890   70.6660  225.5850 C   0  0  0  0  0  0  0  0  0  0  0  0
  140.6770   74.2670  221.2680 C   0  0  0  0  0  0  0  0  0  0  0  0
  140.8590   75.4690  220.3660 C   0  0  0  0  0  0  0  0  0  0  0  0
  142.2339   80.5606  220.0989 H   0  0  0  0  0  0  0  0  0  0  0  0
  143.2283   80.5654  218.6030 H   0  0  0  0  0  0  0  0  0  0  0  0
  141.6022   81.3286  218.6030 H   0  0  0  0  0  0  0  0  0  0  0  0
  140.5028   79.3175  218.5103 H   0  0  0  0  0  0  0  0  0  0  0  0
  142.0167   78.8969  217.6196 H   0  0  0  0  0  0  0  0  0  0  0  0
  139.1796   79.5783  221.6941 H   0  0  0  0  0  0  0  0  0  0  0  0
  139.5031   81.2558  223.4935 H   0  0  0  0  0  0  0  0  0  0  0  0
  141.6952   81.5413  224.5996 H   0  0  0  0  0  0  0  0  0  0  0  0
  143.5968   80.1395  223.9027 H   0  0  0  0  0  0  0  0  0  0  0  0
  143.3156   78.4406  222.0991 H   0  0  0  0  0  0  0  0  0  0  0  0
  139.4915   77.0172  220.1286 H   0  0  0  0  0  0  0  0  0  0  0  0
  140.4643   76.1486  222.9354 H   0  0  0  0  0  0  0  0  0  0  0  0
  139.2904   77.4213  222.6998 H   0  0  0  0  0  0  0  0  0  0  0  0
  137.9216   75.3637  222.8146 H   0  0  0  0  0  0  0  0  0  0  0  0
  138.0351   75.6502  221.0694 H   0  0  0  0  0  0  0  0  0  0  0  0
  139.6193   71.5633  221.2041 H   0  0  0  0  0  0  0  0  0  0  0  0
  137.8070   70.3920  221.3980 H   0  0  0  0  0  0  0  0  0  0  0  0
  137.4140   71.0430  222.8610 H   0  0  0  0  0  0  0  0  0  0  0  0
  141.1869   70.9670  222.5881 H   0  0  0  0  0  0  0  0  0  0  0  0
  140.5234   72.2945  223.6863 H   0  0  0  0  0  0  0  0  0  0  0  0
  139.3390   68.8224  222.9283 H   0  0  0  0  0  0  0  0  0  0  0  0
  138.8628   67.1880  224.6995 H   0  0  0  0  0  0  0  0  0  0  0  0
  139.9490   66.8780  227.4430 H   0  0  0  0  0  0  0  0  0  0  0  0
  140.0119   69.2658  228.6844 H   0  0  0  0  0  0  0  0  0  0  0  0
  140.9128   71.5082  229.3371 H   0  0  0  0  0  0  0  0  0  0  0  0
  141.4112   73.2108  227.5777 H   0  0  0  0  0  0  0  0  0  0  0  0
  141.0072   72.6467  225.2000 H   0  0  0  0  0  0  0  0  0  0  0  0
  141.3964   74.3455  222.0965 H   0  0  0  0  0  0  0  0  0  0  0  0
  140.8407   73.3762  220.6438 H   0  0  0  0  0  0  0  0  0  0  0  0
  141.9394   75.6218  220.2267 H   0  0  0  0  0  0  0  0  0  0  0  0
  140.3091   75.2273  219.4445 H   0  0  0  0  0  0  0  0  0  0  0  0
  1  2  1  0
  2  3  1  0
  3  4  2  0
  3  5  1  0
  5  6  1  0
  6  7  2  0
  7  8  1  0
  8  9  2  0
  9 10  1  0
 10 11  2  0
  5 12  1  0
 12 13  1  0
 13 14  1  0
 14 15  1  0
 15 16  1  0
 16 17  2  0
 16 18  1  0
 18 19  1  0
 18 20  1  0
 20 21  1  0
 21 22  2  0
 22 23  1  0
 23 24  2  0
 24 25  1  0
 24 26  1  0
 26 27  2  0
 27 28  1  0
 28 29  2  0
 29 30  1  0
 30 31  2  0
 15 32  1  0
 32 33  1  0
 11  6  1  0
 33 12  1  0
 31 21  1  0
 31 26  1  0
  1 34  1  0
  1 35  1  0
  1 36  1  0
  2 37  1  0
  2 38  1  0
  7 39  1  0
  8 40  1  0
  9 41  1  0
 10 42  1  0
 11 43  1  0
 12 44  1  0
 13 45  1  0
 13 46  1  0
 14 47  1  0
 14 48  1  0
 18 49  1  6
 19 50  1  0
 19 51  1  0
 20 52  1  0
 20 53  1  0
 22 54  1  0
 23 55  1  0
 25 56  1  0
 27 57  1  0
 28 58  1  0
 29 59  1  0
 30 60  1  0
 32 61  1  0
 32 62  1  0
 33 63  1  0
 33 64  1  0
M  END
>  <smiles>  (34) 
CCC(=O)N(c1ccccc1)C1CCN(C(=O)[C@H](N)Cc2ccc(O)c3ccccc23)CC1

>  <score_type>  (34) 
oracle

>  <origin>  (34) 
autodockgpu

>  <m_score__min__energy>  (34) 
-10.050000000000001

>  <m_primary>  (34) 
energy

>  <rmsd>  (34) 
6.5536109700692045

>  <m_score__min__rmsd>  (34) 
6.5536109700692045

>  <meeko>  (34) 
{"free_energy": -8.6, "intermolecular_energy": -11.28, "internal_energy": -1.73, "cluster_size": 18, "cluster_id": 1, "rank_in_cluster": 13}

>  <energy>  (34) 
-7.46

>  <cluster_rmsd>  (34) 
0.0

>  <cluster>  (34) 
8

$$$$

     RDKit          3D

 64 67  0  0  0  0  0  0  0  0999 V2000
  144.0820   83.1120  215.9630 C   0  0  0  0  0  0  0  0  0  0  0  0
  143.6900   82.3290  217.1790 C   0  0  0  0  0  0  0  0  0  0  0  0
  142.4750   81.5200  216.9160 C   0  0  0  0  0  0  0  0  0  0  0  0
  142.0230   81.4660  215.7160 O   0  0  0  0  0  0  0  0  0  0  0  0
  141.7770   80.7950  217.9250 N   0  0  0  0  0  0  0  0  0  0  0  0
  142.1780   79.4270  218.0870 C   0  0  0  0  0  0  0  0  0  0  0  0
  142.1790   78.8010  219.3240 C   0  0  0  0  0  0  0  0  0  0  0  0
  142.5730   77.4710  219.4080 C   0  0  0  0  0  0  0  0  0  0  0  0
  142.9630   76.7570  218.2970 C   0  0  0  0  0  0  0  0  0  0  0  0
  142.9620   77.3710  217.0840 C   0  0  0  0  0  0  0  0  0  0  0  0
  142.5710   78.7110  216.9650 C   0  0  0  0  0  0  0  0  0  0  0  0
  140.7480   81.4340  218.6810 C   0  0  0  0  0  0  0  0  0  0  0  0
  141.2680   82.2240  219.8850 C   0  0  0  0  0  0  0  0  0  0  0  0
  140.0250   83.0500  220.3060 C   0  0  0  0  0  0  0  0  0  0  0  0
  139.1320   82.1120  221.0280 N   0  0  0  0  0  0  0  0  0  0  0  0
  138.3520   82.6600  222.0530 C   0  0  0  0  0  0  0  0  0  0  0  0
  138.5140   83.9310  222.2270 O   0  0  0  0  0  0  0  0  0  0  0  0
  137.4020   81.9370  222.9200 C   0  0  2  0  0  0  0  0  0  0  0  0
  136.3770   82.7520  223.5270 N   0  0  0  0  0  0  0  0  0  0  0  0
  138.0270   81.0870  223.9640 C   0  0  0  0  0  0  0  0  0  0  0  0
  138.8310   79.9510  223.4760 C   0  0  0  0  0  0  0  0  0  0  0  0
  138.2570   78.7520  223.0730 C   0  0  0  0  0  0  0  0  0  0  0  0
  138.9980   77.6820  222.6190 C   0  0  0  0  0  0  0  0  0  0  0  0
  140.3570   77.7790  222.5550 C   0  0  0  0  0  0  0  0  0  0  0  0
  141.1230   76.7190  222.1030 O   0  0  0  0  0  0  0  0  0  0  0  0
  140.9570   78.9570  222.9500 C   0  0  0  0  0  0  0  0  0  0  0  0
  142.3530   79.0020  222.8740 C   0  0  0  0  0  0  0  0  0  0  0  0
  143.0160   80.1640  223.2720 C   0  0  0  0  0  0  0  0  0  0  0  0
  142.2950   81.2580  223.7350 C   0  0  0  0  0  0  0  0  0  0  0  0
  140.9120   81.1660  223.7890 C   0  0  0  0  0  0  0  0  0  0  0  0
  140.2270   80.0280  223.4030 C   0  0  0  0  0  0  0  0  0  0  0  0
  139.2000   80.7520  220.5820 C   0  0  0  0  0  0  0  0  0  0  0  0
  139.6220   80.5930  219.1370 C   0  0  0  0  0  0  0  0  0  0  0  0
  144.5547   84.0561  216.2715 H   0  0  0  0  0  0  0  0  0  0  0  0
  144.7927   82.5252  215.3624 H   0  0  0  0  0  0  0  0  0  0  0  0
  143.1864   83.3294  215.3624 H   0  0  0  0  0  0  0  0  0  0  0  0
  144.5162   81.6585  217.4579 H   0  0  0  0  0  0  0  0  0  0  0  0
  143.4747   83.0325  217.9968 H   0  0  0  0  0  0  0  0  0  0  0  0
  141.8721   79.3496  220.2267 H   0  0  0  0  0  0  0  0  0  0  0  0
  142.5733   76.9746  220.3896 H   0  0  0  0  0  0  0  0  0  0  0  0
  143.2709   75.7050  218.3896 H   0  0  0  0  0  0  0  0  0  0  0  0
  143.2707   76.8112  216.1888 H   0  0  0  0  0  0  0  0  0  0  0  0
  142.5755   79.1975  215.9784 H   0  0  0  0  0  0  0  0  0  0  0  0
  140.3441   82.1123  217.9150 H   0  0  0  0  0  0  0  0  0  0  0  0
  141.5904   81.5509  220.6930 H   0  0  0  0  0  0  0  0  0  0  0  0
  142.1488   82.8422  219.6568 H   0  0  0  0  0  0  0  0  0  0  0  0
  140.3227   83.8779  220.9662 H   0  0  0  0  0  0  0  0  0  0  0  0
  139.5220   83.4916  219.4331 H   0  0  0  0  0  0  0  0  0  0  0  0
  136.9163   81.2772  222.1859 H   0  0  0  0  0  0  0  0  0  0  0  0
  136.6040   83.7730  223.3180 H   0  0  0  0  0  0  0  0  0  0  0  0
  136.5810   82.7010  224.5710 H   0  0  0  0  0  0  0  0  0  0  0  0
  138.6833   81.7276  224.5714 H   0  0  0  0  0  0  0  0  0  0  0  0
  137.1913   80.6408  224.5231 H   0  0  0  0  0  0  0  0  0  0  0  0
  137.1625   78.6519  223.1182 H   0  0  0  0  0  0  0  0  0  0  0  0
  138.4954   76.7537  222.3096 H   0  0  0  0  0  0  0  0  0  0  0  0
  142.0680   76.6600  222.4590 H   0  0  0  0  0  0  0  0  0  0  0  0
  142.9200   78.1343  222.5059 H   0  0  0  0  0  0  0  0  0  0  0  0
  144.1136   80.2140  223.2190 H   0  0  0  0  0  0  0  0  0  0  0  0
  142.8098   82.1770  224.0518 H   0  0  0  0  0  0  0  0  0  0  0  0
  140.3381   82.0311  224.1527 H   0  0  0  0  0  0  0  0  0  0  0  0
  139.9248   80.2176  221.2138 H   0  0  0  0  0  0  0  0  0  0  0  0
  138.1822   80.3423  220.6609 H   0  0  0  0  0  0  0  0  0  0  0  0
  139.9082   79.5416  218.9865 H   0  0  0  0  0  0  0  0  0  0  0  0
  138.7557   80.9211  218.5437 H   0  0  0  0  0  0  0  0  0  0  0  0
  1  2  1  0
  2  3  1  0
  3  4  2  0
  3  5  1  0
  5  6  1  0
  6  7  2  0
  7  8  1  0
  8  9  2  0
  9 10  1  0
 10 11  2  0
  5 12  1  0
 12 13  1  0
 13 14  1  0
 14 15  1  0
 15 16  1  0
 16 17  2  0
 16 18  1  0
 18 19  1  0
 18 20  1  0
 20 21  1  0
 21 22  2  0
 22 23  1  0
 23 24  2  0
 24 25  1  0
 24 26  1  0
 26 27  2  0
 27 28  1  0
 28 29  2  0
 29 30  1  0
 30 31  2  0
 15 32  1  0
 32 33  1  0
 11  6  1  0
 33 12  1  0
 31 21  1  0
 31 26  1  0
  1 34  1  0
  1 35  1  0
  1 36  1  0
  2 37  1  0
  2 38  1  0
  7 39  1  0
  8 40  1  0
  9 41  1  0
 10 42  1  0
 11 43  1  0
 12 44  1  0
 13 45  1  0
 13 46  1  0
 14 47  1  0
 14 48  1  0
 18 49  1  6
 19 50  1  0
 19 51  1  0
 20 52  1  0
 20 53  1  0
 22 54  1  0
 23 55  1  0
 25 56  1  0
 27 57  1  0
 28 58  1  0
 29 59  1  0
 30 60  1  0
 32 61  1  0
 32 62  1  0
 33 63  1  0
 33 64  1  0
M  END
>  <smiles>  (35) 
CCC(=O)N(c1ccccc1)C1CCN(C(=O)[C@H](N)Cc2ccc(O)c3ccccc23)CC1

>  <score_type>  (35) 
oracle

>  <origin>  (35) 
autodockgpu

>  <m_score__min__energy>  (35) 
-10.050000000000001

>  <m_primary>  (35) 
energy

>  <rmsd>  (35) 
5.799747777848264

>  <m_score__min__rmsd>  (35) 
5.799747777848264

>  <meeko>  (35) 
{"free_energy": -6.4, "intermolecular_energy": -9.09, "internal_energy": -3.49, "cluster_size": 11, "cluster_id": 11, "rank_in_cluster": 5}

>  <energy>  (35) 
-7.42

>  <cluster_rmsd>  (35) 
0.0

>  <cluster>  (35) 
9

$$$$

     RDKit          3D

 64 67  0  0  0  0  0  0  0  0999 V2000
  142.1780   77.2470  220.0970 C   0  0  0  0  0  0  0  0  0  0  0  0
  142.8660   76.4650  219.0200 C   0  0  0  0  0  0  0  0  0  0  0  0
  142.1730   75.1760  218.7810 C   0  0  0  0  0  0  0  0  0  0  0  0
  141.4620   75.0490  217.7210 O   0  0  0  0  0  0  0  0  0  0  0  0
  142.2520   74.0630  219.6680 N   0  0  0  0  0  0  0  0  0  0  0  0
  143.5790   73.6070  219.9660 C   0  0  0  0  0  0  0  0  0  0  0  0
  144.4060   74.2750  220.8550 C   0  0  0  0  0  0  0  0  0  0  0  0
  145.6780   73.7730  221.1030 C   0  0  0  0  0  0  0  0  0  0  0  0
  146.1400   72.6300  220.4890 C   0  0  0  0  0  0  0  0  0  0  0  0
  145.3290   71.9750  219.6160 C   0  0  0  0  0  0  0  0  0  0  0  0
  144.0410   72.4540  219.3450 C   0  0  0  0  0  0  0  0  0  0  0  0
  141.0560   73.4740  220.1830 C   0  0  0  0  0  0  0  0  0  0  0  0
  140.6950   73.9470  221.5940 C   0  0  0  0  0  0  0  0  0  0  0  0
  139.2430   73.4280  221.7590 C   0  0  0  0  0  0  0  0  0  0  0  0
  139.3530   71.9750  222.0350 N   0  0  0  0  0  0  0  0  0  0  0  0
  138.3680   71.4220  222.8610 C   0  0  0  0  0  0  0  0  0  0  0  0
  137.4780   72.2660  223.2710 O   0  0  0  0  0  0  0  0  0  0  0  0
  138.2660   70.0140  223.2910 C   0  0  2  0  0  0  0  0  0  0  0  0
  137.3350   69.7620  224.3640 N   0  0  0  0  0  0  0  0  0  0  0  0
  139.5600   69.3600  223.6090 C   0  0  0  0  0  0  0  0  0  0  0  0
  139.7920   69.0430  225.0310 C   0  0  0  0  0  0  0  0  0  0  0  0
  139.5170   67.7930  225.5680 C   0  0  0  0  0  0  0  0  0  0  0  0
  139.7260   67.4850  226.8950 C   0  0  0  0  0  0  0  0  0  0  0  0
  140.2220   68.4350  227.7390 C   0  0  0  0  0  0  0  0  0  0  0  0
  140.4410   68.1520  229.0760 O   0  0  0  0  0  0  0  0  0  0  0  0
  140.5050   69.6880  227.2350 C   0  0  0  0  0  0  0  0  0  0  0  0
  141.0020   70.6280  228.1440 C   0  0  0  0  0  0  0  0  0  0  0  0
  141.2940   71.9160  227.6930 C   0  0  0  0  0  0  0  0  0  0  0  0
  141.0920   72.2540  226.3600 C   0  0  0  0  0  0  0  0  0  0  0  0
  140.5990   71.2870  225.4980 C   0  0  0  0  0  0  0  0  0  0  0  0
  140.3000   70.0020  225.9150 C   0  0  0  0  0  0  0  0  0  0  0  0
  140.4760   71.3290  221.4220 C   0  0  0  0  0  0  0  0  0  0  0  0
  140.9620   72.0000  220.1550 C   0  0  0  0  0  0  0  0  0  0  0  0
  142.5020   76.8787  221.0815 H   0  0  0  0  0  0  0  0  0  0  0  0
  142.4377   78.3115  220.0001 H   0  0  0  0  0  0  0  0  0  0  0  0
  141.0891   77.1250  220.0001 H   0  0  0  0  0  0  0  0  0  0  0  0
  142.8646   77.0530  218.0904 H   0  0  0  0  0  0  0  0  0  0  0  0
  143.8977   76.2568  219.3397 H   0  0  0  0  0  0  0  0  0  0  0  0
  144.0603   75.1903  221.3576 H   0  0  0  0  0  0  0  0  0  0  0  0
  146.3339   74.3032  221.8092 H   0  0  0  0  0  0  0  0  0  0  0  0
  147.1509   72.2523  220.7019 H   0  0  0  0  0  0  0  0  0  0  0  0
  145.6873   71.0616  219.1186 H   0  0  0  0  0  0  0  0  0  0  0  0
  143.3933   71.9151  218.6379 H   0  0  0  0  0  0  0  0  0  0  0  0
  140.3279   73.8489  219.4486 H   0  0  0  0  0  0  0  0  0  0  0  0
  141.3640   73.5028  222.3458 H   0  0  0  0  0  0  0  0  0  0  0  0
  140.7909   75.0343  221.7306 H   0  0  0  0  0  0  0  0  0  0  0  0
  138.7481   73.9393  222.5979 H   0  0  0  0  0  0  0  0  0  0  0  0
  138.6430   73.6209  220.8575 H   0  0  0  0  0  0  0  0  0  0  0  0
  137.8616   69.5504  222.3791 H   0  0  0  0  0  0  0  0  0  0  0  0
  136.4060   69.4670  223.9300 H   0  0  0  0  0  0  0  0  0  0  0  0
  137.0930   70.7280  224.7390 H   0  0  0  0  0  0  0  0  0  0  0  0
  139.6097   68.4188  223.0419 H   0  0  0  0  0  0  0  0  0  0  0  0
  140.3362   70.0906  223.3375 H   0  0  0  0  0  0  0  0  0  0  0  0
  139.1142   67.0133  224.9048 H   0  0  0  0  0  0  0  0  0  0  0  0
  139.4939   66.4779  227.2718 H   0  0  0  0  0  0  0  0  0  0  0  0
  139.9770   67.3330  229.4470 H   0  0  0  0  0  0  0  0  0  0  0  0
  141.1602   70.3561  229.1981 H   0  0  0  0  0  0  0  0  0  0  0  0
  141.6856   72.6667  228.3952 H   0  0  0  0  0  0  0  0  0  0  0  0
  141.3185   73.2673  225.9969 H   0  0  0  0  0  0  0  0  0  0  0  0
  140.4394   71.5512  224.4422 H   0  0  0  0  0  0  0  0  0  0  0  0
  141.3044   71.3169  222.1456 H   0  0  0  0  0  0  0  0  0  0  0  0
  140.1438   70.3196  221.1378 H   0  0  0  0  0  0  0  0  0  0  0  0
  141.9642   71.6056  219.9315 H   0  0  0  0  0  0  0  0  0  0  0  0
  140.2005   71.7717  219.3947 H   0  0  0  0  0  0  0  0  0  0  0  0
  1  2  1  0
  2  3  1  0
  3  4  2  0
  3  5  1  0
  5  6  1  0
  6  7  2  0
  7  8  1  0
  8  9  2  0
  9 10  1  0
 10 11  2  0
  5 12  1  0
 12 13  1  0
 13 14  1  0
 14 15  1  0
 15 16  1  0
 16 17  2  0
 16 18  1  0
 18 19  1  0
 18 20  1  0
 20 21  1  0
 21 22  2  0
 22 23  1  0
 23 24  2  0
 24 25  1  0
 24 26  1  0
 26 27  2  0
 27 28  1  0
 28 29  2  0
 29 30  1  0
 30 31  2  0
 15 32  1  0
 32 33  1  0
 11  6  1  0
 33 12  1  0
 31 21  1  0
 31 26  1  0
  1 34  1  0
  1 35  1  0
  1 36  1  0
  2 37  1  0
  2 38  1  0
  7 39  1  0
  8 40  1  0
  9 41  1  0
 10 42  1  0
 11 43  1  0
 12 44  1  0
 13 45  1  0
 13 46  1  0
 14 47  1  0
 14 48  1  0
 18 49  1  6
 19 50  1  0
 19 51  1  0
 20 52  1  0
 20 53  1  0
 22 54  1  0
 23 55  1  0
 25 56  1  0
 27 57  1  0
 28 58  1  0
 29 59  1  0
 30 60  1  0
 32 61  1  0
 32 62  1  0
 33 63  1  0
 33 64  1  0
M  END
>  <smiles>  (36) 
CCC(=O)N(c1ccccc1)C1CCN(C(=O)[C@H](N)Cc2ccc(O)c3ccccc23)CC1

>  <score_type>  (36) 
oracle

>  <origin>  (36) 
autodockgpu

>  <m_score__min__energy>  (36) 
-10.050000000000001

>  <m_primary>  (36) 
energy

>  <rmsd>  (36) 
8.649589872768535

>  <m_score__min__rmsd>  (36) 
8.649589872768535

>  <meeko>  (36) 
{"free_energy": -7.66, "intermolecular_energy": -10.34, "internal_energy": -2.56, "cluster_size": 3, "cluster_id": 4, "rank_in_cluster": 2}

>  <energy>  (36) 
-7.32

>  <cluster_rmsd>  (36) 
0.37

>  <cluster>  (36) 
9

$$$$

     RDKit          3D

 64 67  0  0  0  0  0  0  0  0999 V2000
  142.6570   78.7010  218.1360 C   0  0  0  0  0  0  0  0  0  0  0  0
  141.4540   79.5550  218.3950 C   0  0  0  0  0  0  0  0  0  0  0  0
  140.6430   78.9990  219.5050 C   0  0  0  0  0  0  0  0  0  0  0  0
  139.3760   78.8800  219.3400 O   0  0  0  0  0  0  0  0  0  0  0  0
  141.1940   78.5860  220.7530 N   0  0  0  0  0  0  0  0  0  0  0  0
  141.5160   79.6470  221.6640 C   0  0  0  0  0  0  0  0  0  0  0  0
  140.9500   80.9080  221.5570 C   0  0  0  0  0  0  0  0  0  0  0  0
  141.3010   81.8870  222.4780 C   0  0  0  0  0  0  0  0  0  0  0  0
  142.1970   81.6400  223.4950 C   0  0  0  0  0  0  0  0  0  0  0  0
  142.7520   80.4030  223.6000 C   0  0  0  0  0  0  0  0  0  0  0  0
  142.4190   79.3940  222.6880 C   0  0  0  0  0  0  0  0  0  0  0  0
  141.4020   77.1980  221.0180 C   0  0  0  0  0  0  0  0  0  0  0  0
  141.0720   76.2880  219.8320 C   0  0  0  0  0  0  0  0  0  0  0  0
  141.6820   74.9320  220.2710 C   0  0  0  0  0  0  0  0  0  0  0  0
  140.7380   74.3560  221.2590 N   0  0  0  0  0  0  0  0  0  0  0  0
  140.6480   72.9600  221.2920 C   0  0  0  0  0  0  0  0  0  0  0  0
  141.4180   72.3530  220.4480 O   0  0  0  0  0  0  0  0  0  0  0  0
  139.7790   72.1530  222.1710 C   0  0  2  0  0  0  0  0  0  0  0  0
  138.3810   72.5110  222.1540 N   0  0  0  0  0  0  0  0  0  0  0  0
  140.2350   72.0490  223.5800 C   0  0  0  0  0  0  0  0  0  0  0  0
  139.9510   70.7710  224.2580 C   0  0  0  0  0  0  0  0  0  0  0  0
  139.3490   69.7010  223.6080 C   0  0  0  0  0  0  0  0  0  0  0  0
  139.0760   68.5030  224.2310 C   0  0  0  0  0  0  0  0  0  0  0  0
  139.3990   68.3350  225.5460 C   0  0  0  0  0  0  0  0  0  0  0  0
  139.1350   67.1420  226.1950 O   0  0  0  0  0  0  0  0  0  0  0  0
  139.9970   69.3800  226.2200 C   0  0  0  0  0  0  0  0  0  0  0  0
  140.2990   69.1610  227.5680 C   0  0  0  0  0  0  0  0  0  0  0  0
  140.8950   70.1870  228.3040 C   0  0  0  0  0  0  0  0  0  0  0  0
  141.1810   71.4060  227.7010 C   0  0  0  0  0  0  0  0  0  0  0  0
  140.8640   71.5740  226.3620 C   0  0  0  0  0  0  0  0  0  0  0  0
  140.2740   70.5770  225.6060 C   0  0  0  0  0  0  0  0  0  0  0  0
  140.0270   75.3190  222.0460 C   0  0  0  0  0  0  0  0  0  0  0  0
  140.7550   76.6350  222.2220 C   0  0  0  0  0  0  0  0  0  0  0  0
  143.0977   78.3881  219.0941 H   0  0  0  0  0  0  0  0  0  0  0  0
  142.3585   77.8115  217.5619 H   0  0  0  0  0  0  0  0  0  0  0  0
  143.3983   79.2762  217.5619 H   0  0  0  0  0  0  0  0  0  0  0  0
  141.7830   80.5701  218.6620 H   0  0  0  0  0  0  0  0  0  0  0  0
  140.8365   79.5797  217.4850 H   0  0  0  0  0  0  0  0  0  0  0  0
  140.2325   81.1304  220.7535 H   0  0  0  0  0  0  0  0  0  0  0  0
  140.8511   82.8872  222.3929 H   0  0  0  0  0  0  0  0  0  0  0  0
  142.4597   82.4320  224.2117 H   0  0  0  0  0  0  0  0  0  0  0  0
  143.4684   80.1933  224.4080 H   0  0  0  0  0  0  0  0  0  0  0  0
  142.8745   78.3972  222.7831 H   0  0  0  0  0  0  0  0  0  0  0  0
  142.4841   77.2027  221.2155 H   0  0  0  0  0  0  0  0  0  0  0  0
  139.9851   76.2059  219.6841 H   0  0  0  0  0  0  0  0  0  0  0  0
  141.4656   76.6565  218.8732 H   0  0  0  0  0  0  0  0  0  0  0  0
  141.7843   74.2614  219.4051 H   0  0  0  0  0  0  0  0  0  0  0  0
  142.6848   75.0641  220.7035 H   0  0  0  0  0  0  0  0  0  0  0  0
  139.8786   71.1622  221.7037 H   0  0  0  0  0  0  0  0  0  0  0  0
  138.1480   72.8770  221.1800 H   0  0  0  0  0  0  0  0  0  0  0  0
  138.3280   73.4040  222.7320 H   0  0  0  0  0  0  0  0  0  0  0  0
  141.3241   72.2025  223.5936 H   0  0  0  0  0  0  0  0  0  0  0  0
  139.6664   72.8111  224.1330 H   0  0  0  0  0  0  0  0  0  0  0  0
  139.0781   69.8155  222.5481 H   0  0  0  0  0  0  0  0  0  0  0  0
  138.5995   67.6851  223.6706 H   0  0  0  0  0  0  0  0  0  0  0  0
  139.6130   66.9890  227.0730 H   0  0  0  0  0  0  0  0  0  0  0  0
  140.0703   68.1947  228.0413 H   0  0  0  0  0  0  0  0  0  0  0  0
  141.1391   70.0298  229.3650 H   0  0  0  0  0  0  0  0  0  0  0  0
  141.6489   72.2201  228.2740 H   0  0  0  0  0  0  0  0  0  0  0  0
  141.0904   72.5375  225.8820 H   0  0  0  0  0  0  0  0  0  0  0  0
  139.0629   75.5208  221.5563 H   0  0  0  0  0  0  0  0  0  0  0  0
  139.9120   74.8843  223.0499 H   0  0  0  0  0  0  0  0  0  0  0  0
  140.0260   77.3740  222.5859 H   0  0  0  0  0  0  0  0  0  0  0  0
  141.5772   76.4212  222.9208 H   0  0  0  0  0  0  0  0  0  0  0  0
  1  2  1  0
  2  3  1  0
  3  4  2  0
  3  5  1  0
  5  6  1  0
  6  7  2  0
  7  8  1  0
  8  9  2  0
  9 10  1  0
 10 11  2  0
  5 12  1  0
 12 13  1  0
 13 14  1  0
 14 15  1  0
 15 16  1  0
 16 17  2  0
 16 18  1  0
 18 19  1  0
 18 20  1  0
 20 21  1  0
 21 22  2  0
 22 23  1  0
 23 24  2  0
 24 25  1  0
 24 26  1  0
 26 27  2  0
 27 28  1  0
 28 29  2  0
 29 30  1  0
 30 31  2  0
 15 32  1  0
 32 33  1  0
 11  6  1  0
 33 12  1  0
 31 21  1  0
 31 26  1  0
  1 34  1  0
  1 35  1  0
  1 36  1  0
  2 37  1  0
  2 38  1  0
  7 39  1  0
  8 40  1  0
  9 41  1  0
 10 42  1  0
 11 43  1  0
 12 44  1  0
 13 45  1  0
 13 46  1  0
 14 47  1  0
 14 48  1  0
 18 49  1  6
 19 50  1  0
 19 51  1  0
 20 52  1  0
 20 53  1  0
 22 54  1  0
 23 55  1  0
 25 56  1  0
 27 57  1  0
 28 58  1  0
 29 59  1  0
 30 60  1  0
 32 61  1  0
 32 62  1  0
 33 63  1  0
 33 64  1  0
M  END
>  <smiles>  (37) 
CCC(=O)N(c1ccccc1)C1CCN(C(=O)[C@H](N)Cc2ccc(O)c3ccccc23)CC1

>  <score_type>  (37) 
oracle

>  <origin>  (37) 
autodockgpu

>  <m_score__min__energy>  (37) 
-10.050000000000001

>  <m_primary>  (37) 
energy

>  <rmsd>  (37) 
6.204521923278524

>  <m_score__min__rmsd>  (37) 
6.204521923278524

>  <meeko>  (37) 
{"free_energy": -9.69, "intermolecular_energy": -12.37, "internal_energy": -1.51, "cluster_size": 18, "cluster_id": 1, "rank_in_cluster": 3}

>  <energy>  (37) 
-7.34

>  <cluster_rmsd>  (37) 
0.0

>  <cluster>  (37) 
10

$$$$

     RDKit          3D

 64 67  0  0  0  0  0  0  0  0999 V2000
  144.0480   83.1470  215.9650 C   0  0  0  0  0  0  0  0  0  0  0  0
  143.6770   82.3310  217.1670 C   0  0  0  0  0  0  0  0  0  0  0  0
  142.4500   81.5410  216.9070 C   0  0  0  0  0  0  0  0  0  0  0  0
  141.9780   81.5140  215.7150 O   0  0  0  0  0  0  0  0  0  0  0  0
  141.7600   80.8040  217.9140 N   0  0  0  0  0  0  0  0  0  0  0  0
  142.1670   79.4370  218.0630 C   0  0  0  0  0  0  0  0  0  0  0  0
  142.1700   78.7990  219.2940 C   0  0  0  0  0  0  0  0  0  0  0  0
  142.5710   77.4700  219.3660 C   0  0  0  0  0  0  0  0  0  0  0  0
  142.9640   76.7680  218.2470 C   0  0  0  0  0  0  0  0  0  0  0  0
  142.9610   77.3940  217.0400 C   0  0  0  0  0  0  0  0  0  0  0  0
  142.5630   78.7330  216.9340 C   0  0  0  0  0  0  0  0  0  0  0  0
  140.7320   81.4330  218.6810 C   0  0  0  0  0  0  0  0  0  0  0  0
  141.2480   82.1620  219.9240 C   0  0  0  0  0  0  0  0  0  0  0  0
  140.0150   82.9950  220.3590 C   0  0  0  0  0  0  0  0  0  0  0  0
  139.0920   82.0470  221.0290 N   0  0  0  0  0  0  0  0  0  0  0  0
  138.3070   82.5680  222.0630 C   0  0  0  0  0  0  0  0  0  0  0  0
  138.4910   83.8280  222.2920 O   0  0  0  0  0  0  0  0  0  0  0  0
  137.3280   81.8300  222.8850 C   0  0  2  0  0  0  0  0  0  0  0  0
  136.2820   82.6340  223.4710 N   0  0  0  0  0  0  0  0  0  0  0  0
  137.9180   80.9620  223.9340 C   0  0  0  0  0  0  0  0  0  0  0  0
  138.7610   79.8510  223.4560 C   0  0  0  0  0  0  0  0  0  0  0  0
  138.2280   78.6330  223.0540 C   0  0  0  0  0  0  0  0  0  0  0  0
  139.0040   77.5850  222.6080 C   0  0  0  0  0  0  0  0  0  0  0  0
  140.3600   77.7250  222.5530 C   0  0  0  0  0  0  0  0  0  0  0  0
  141.1620   76.6880  222.1090 O   0  0  0  0  0  0  0  0  0  0  0  0
  140.9200   78.9230  222.9470 C   0  0  0  0  0  0  0  0  0  0  0  0
  142.3150   79.0110  222.8800 C   0  0  0  0  0  0  0  0  0  0  0  0
  142.9380   80.1950  223.2780 C   0  0  0  0  0  0  0  0  0  0  0  0
  142.1800   81.2670  223.7320 C   0  0  0  0  0  0  0  0  0  0  0  0
  140.8000   81.1310  223.7780 C   0  0  0  0  0  0  0  0  0  0  0  0
  140.1540   79.9710  223.3910 C   0  0  0  0  0  0  0  0  0  0  0  0
  139.1400   80.7050  220.5280 C   0  0  0  0  0  0  0  0  0  0  0  0
  139.5810   80.5970  219.0840 C   0  0  0  0  0  0  0  0  0  0  0  0
  144.4828   84.1034  216.2910 H   0  0  0  0  0  0  0  0  0  0  0  0
  144.7843   82.5964  215.3611 H   0  0  0  0  0  0  0  0  0  0  0  0
  143.1491   83.3399  215.3611 H   0  0  0  0  0  0  0  0  0  0  0  0
  144.5033   81.6457  217.4070 H   0  0  0  0  0  0  0  0  0  0  0  0
  143.4871   83.0110  218.0105 H   0  0  0  0  0  0  0  0  0  0  0  0
  141.8592   79.3373  220.2015 H   0  0  0  0  0  0  0  0  0  0  0  0
  142.5748   76.9647  220.3430 H   0  0  0  0  0  0  0  0  0  0  0  0
  143.2757   75.7163  218.3292 H   0  0  0  0  0  0  0  0  0  0  0  0
  143.2735   76.8447  216.1396 H   0  0  0  0  0  0  0  0  0  0  0  0
  142.5643   79.2286  215.9520 H   0  0  0  0  0  0  0  0  0  0  0  0
  140.3546   82.1511  217.9381 H   0  0  0  0  0  0  0  0  0  0  0  0
  141.5438   81.4500  220.7085 H   0  0  0  0  0  0  0  0  0  0  0  0
  142.1446   82.7707  219.7353 H   0  0  0  0  0  0  0  0  0  0  0  0
  140.3183   83.7896  221.0566 H   0  0  0  0  0  0  0  0  0  0  0  0
  139.5348   83.4811  219.4970 H   0  0  0  0  0  0  0  0  0  0  0  0
  136.8674   81.1835  222.1235 H   0  0  0  0  0  0  0  0  0  0  0  0
  135.4750   82.6780  222.7760 H   0  0  0  0  0  0  0  0  0  0  0  0
  136.6550   83.6300  223.4240 H   0  0  0  0  0  0  0  0  0  0  0  0
  138.5357   81.5960  224.5871 H   0  0  0  0  0  0  0  0  0  0  0  0
  137.0644   80.4889  224.4416 H   0  0  0  0  0  0  0  0  0  0  0  0
  137.1369   78.4988  223.0934 H   0  0  0  0  0  0  0  0  0  0  0  0
  138.5326   76.6407  222.2980 H   0  0  0  0  0  0  0  0  0  0  0  0
  142.1470   76.8930  221.9980 H   0  0  0  0  0  0  0  0  0  0  0  0
  142.9115   78.1601  222.5192 H   0  0  0  0  0  0  0  0  0  0  0  0
  144.0338   80.2796  223.2320 H   0  0  0  0  0  0  0  0  0  0  0  0
  142.6633   82.2032  224.0481 H   0  0  0  0  0  0  0  0  0  0  0  0
  140.1966   81.9782  224.1360 H   0  0  0  0  0  0  0  0  0  0  0  0
  139.8443   80.1305  221.1476 H   0  0  0  0  0  0  0  0  0  0  0  0
  138.1132   80.3132  220.5750 H   0  0  0  0  0  0  0  0  0  0  0  0
  139.8479   79.5470  218.8938 H   0  0  0  0  0  0  0  0  0  0  0  0
  138.7311   80.9671  218.4918 H   0  0  0  0  0  0  0  0  0  0  0  0
  1  2  1  0
  2  3  1  0
  3  4  2  0
  3  5  1  0
  5  6  1  0
  6  7  2  0
  7  8  1  0
  8  9  2  0
  9 10  1  0
 10 11  2  0
  5 12  1  0
 12 13  1  0
 13 14  1  0
 14 15  1  0
 15 16  1  0
 16 17  2  0
 16 18  1  0
 18 19  1  0
 18 20  1  0
 20 21  1  0
 21 22  2  0
 22 23  1  0
 23 24  2  0
 24 25  1  0
 24 26  1  0
 26 27  2  0
 27 28  1  0
 28 29  2  0
 29 30  1  0
 30 31  2  0
 15 32  1  0
 32 33  1  0
 11  6  1  0
 33 12  1  0
 31 21  1  0
 31 26  1  0
  1 34  1  0
  1 35  1  0
  1 36  1  0
  2 37  1  0
  2 38  1  0
  7 39  1  0
  8 40  1  0
  9 41  1  0
 10 42  1  0
 11 43  1  0
 12 44  1  0
 13 45  1  0
 13 46  1  0
 14 47  1  0
 14 48  1  0
 18 49  1  6
 19 50  1  0
 19 51  1  0
 20 52  1  0
 20 53  1  0
 22 54  1  0
 23 55  1  0
 25 56  1  0
 27 57  1  0
 28 58  1  0
 29 59  1  0
 30 60  1  0
 32 61  1  0
 32 62  1  0
 33 63  1  0
 33 64  1  0
M  END
>  <smiles>  (38) 
CCC(=O)N(c1ccccc1)C1CCN(C(=O)[C@H](N)Cc2ccc(O)c3ccccc23)CC1

>  <score_type>  (38) 
oracle

>  <origin>  (38) 
autodockgpu

>  <m_score__min__energy>  (38) 
-10.050000000000001

>  <m_primary>  (38) 
energy

>  <rmsd>  (38) 
5.758476410361921

>  <m_score__min__rmsd>  (38) 
5.758476410361921

>  <meeko>  (38) 
{"free_energy": -6.43, "intermolecular_energy": -9.11, "internal_energy": -3.55, "cluster_size": 11, "cluster_id": 11, "rank_in_cluster": 1}

>  <energy>  (38) 
-7.3

>  <cluster_rmsd>  (38) 
0.19

>  <cluster>  (38) 
10

$$$$

     RDKit          3D

 64 67  0  0  0  0  0  0  0  0999 V2000
  144.3800   74.8250  216.3690 C   0  0  0  0  0  0  0  0  0  0  0  0
  144.7000   73.3630  216.2820 C   0  0  0  0  0  0  0  0  0  0  0  0
  145.5060   72.9310  217.4490 C   0  0  0  0  0  0  0  0  0  0  0  0
  146.6940   73.3950  217.5800 O   0  0  0  0  0  0  0  0  0  0  0  0
  145.0330   72.0220  218.4400 N   0  0  0  0  0  0  0  0  0  0  0  0
  145.4240   70.6540  218.2570 C   0  0  0  0  0  0  0  0  0  0  0  0
  145.9280   70.1870  217.0530 C   0  0  0  0  0  0  0  0  0  0  0  0
  146.2940   68.8500  216.9460 C   0  0  0  0  0  0  0  0  0  0  0  0
  146.1720   67.9770  218.0050 C   0  0  0  0  0  0  0  0  0  0  0  0
  145.6780   68.4360  219.1860 C   0  0  0  0  0  0  0  0  0  0  0  0
  145.2990   69.7770  219.3250 C   0  0  0  0  0  0  0  0  0  0  0  0
  144.2170   72.4960  219.5120 C   0  0  0  0  0  0  0  0  0  0  0  0
  142.7950   71.9300  219.5010 C   0  0  0  0  0  0  0  0  0  0  0  0
  142.2630   72.3330  220.9010 C   0  0  0  0  0  0  0  0  0  0  0  0
  141.9260   73.7750  220.8140 N   0  0  0  0  0  0  0  0  0  0  0  0
  140.8600   74.2130  221.6070 C   0  0  0  0  0  0  0  0  0  0  0  0
  140.3090   73.2880  222.3230 O   0  0  0  0  0  0  0  0  0  0  0  0
  140.3280   75.5880  221.6870 C   0  0  2  0  0  0  0  0  0  0  0  0
  139.3150   75.8000  222.6940 N   0  0  0  0  0  0  0  0  0  0  0  0
  139.8560   76.1540  220.3990 C   0  0  0  0  0  0  0  0  0  0  0  0
  140.6910   77.2220  219.8180 C   0  0  0  0  0  0  0  0  0  0  0  0
  141.1800   77.1610  218.5190 C   0  0  0  0  0  0  0  0  0  0  0  0
  141.9650   78.1500  217.9660 C   0  0  0  0  0  0  0  0  0  0  0  0
  142.2910   79.2470  218.7070 C   0  0  0  0  0  0  0  0  0  0  0  0
  143.0760   80.2540  218.1750 O   0  0  0  0  0  0  0  0  0  0  0  0
  141.8210   79.3370  220.0020 C   0  0  0  0  0  0  0  0  0  0  0  0
  142.1920   80.4780  220.7210 C   0  0  0  0  0  0  0  0  0  0  0  0
  141.7560   80.6180  222.0400 C   0  0  0  0  0  0  0  0  0  0  0  0
  140.9650   79.6350  222.6240 C   0  0  0  0  0  0  0  0  0  0  0  0
  140.6220   78.5240  221.8690 C   0  0  0  0  0  0  0  0  0  0  0  0
  141.0390   78.3570  220.5600 C   0  0  0  0  0  0  0  0  0  0  0  0
  142.7410   74.5300  219.9090 C   0  0  0  0  0  0  0  0  0  0  0  0
  144.1270   73.9600  219.6970 C   0  0  0  0  0  0  0  0  0  0  0  0
  144.3146   75.1238  217.4256 H   0  0  0  0  0  0  0  0  0  0  0  0
  145.1727   75.4040  215.8726 H   0  0  0  0  0  0  0  0  0  0  0  0
  143.4179   75.0199  215.8726 H   0  0  0  0  0  0  0  0  0  0  0  0
  143.7619   72.7891  216.2591 H   0  0  0  0  0  0  0  0  0  0  0  0
  145.2811   73.1828  215.3655 H   0  0  0  0  0  0  0  0  0  0  0  0
  146.0369   70.8652  216.1938 H   0  0  0  0  0  0  0  0  0  0  0  0
  146.6918   68.4790  215.9899 H   0  0  0  0  0  0  0  0  0  0  0  0
  146.4700   66.9237  217.8967 H   0  0  0  0  0  0  0  0  0  0  0  0
  145.5753   67.7487  220.0387 H   0  0  0  0  0  0  0  0  0  0  0  0
  144.9004   70.1367  220.2851 H   0  0  0  0  0  0  0  0  0  0  0  0
  144.7843   72.1049  220.3694 H   0  0  0  0  0  0  0  0  0  0  0  0
  142.1924   72.3844  218.7008 H   0  0  0  0  0  0  0  0  0  0  0  0
  142.7553   70.8472  219.3116 H   0  0  0  0  0  0  0  0  0  0  0  0
  141.3672   71.7462  221.1524 H   0  0  0  0  0  0  0  0  0  0  0  0
  143.0104   72.1417  221.6851 H   0  0  0  0  0  0  0  0  0  0  0  0
  141.2292   76.1389  221.9942 H   0  0  0  0  0  0  0  0  0  0  0  0
  139.2090   74.8950  223.2480 H   0  0  0  0  0  0  0  0  0  0  0  0
  138.4000   75.8220  222.1500 H   0  0  0  0  0  0  0  0  0  0  0  0
  139.8041   75.3326  219.6692 H   0  0  0  0  0  0  0  0  0  0  0  0
  138.8853   76.6225  220.6187 H   0  0  0  0  0  0  0  0  0  0  0  0
  140.9294   76.2840  217.9041 H   0  0  0  0  0  0  0  0  0  0  0  0
  142.3267   78.0546  216.9316 H   0  0  0  0  0  0  0  0  0  0  0  0
  143.6330   80.0150  217.3650 H   0  0  0  0  0  0  0  0  0  0  0  0
  142.8177   81.2531  220.2544 H   0  0  0  0  0  0  0  0  0  0  0  0
  142.0393   81.5092  222.6192 H   0  0  0  0  0  0  0  0  0  0  0  0
  140.6187   79.7366  223.6631 H   0  0  0  0  0  0  0  0  0  0  0  0
  139.9946   77.7457  222.3278 H   0  0  0  0  0  0  0  0  0  0  0  0
  142.2310   74.5673  218.9351 H   0  0  0  0  0  0  0  0  0  0  0  0
  142.8745   75.5246  220.3595 H   0  0  0  0  0  0  0  0  0  0  0  0
  144.5510   74.4368  218.8009 H   0  0  0  0  0  0  0  0  0  0  0  0
  144.6736   74.1699  220.6282 H   0  0  0  0  0  0  0  0  0  0  0  0
  1  2  1  0
  2  3  1  0
  3  4  2  0
  3  5  1  0
  5  6  1  0
  6  7  2  0
  7  8  1  0
  8  9  2  0
  9 10  1  0
 10 11  2  0
  5 12  1  0
 12 13  1  0
 13 14  1  0
 14 15  1  0
 15 16  1  0
 16 17  2  0
 16 18  1  0
 18 19  1  0
 18 20  1  0
 20 21  1  0
 21 22  2  0
 22 23  1  0
 23 24  2  0
 24 25  1  0
 24 26  1  0
 26 27  2  0
 27 28  1  0
 28 29  2  0
 29 30  1  0
 30 31  2  0
 15 32  1  0
 32 33  1  0
 11  6  1  0
 33 12  1  0
 31 21  1  0
 31 26  1  0
  1 34  1  0
  1 35  1  0
  1 36  1  0
  2 37  1  0
  2 38  1  0
  7 39  1  0
  8 40  1  0
  9 41  1  0
 10 42  1  0
 11 43  1  0
 12 44  1  0
 13 45  1  0
 13 46  1  0
 14 47  1  0
 14 48  1  0
 18 49  1  1
 19 50  1  0
 19 51  1  0
 20 52  1  0
 20 53  1  0
 22 54  1  0
 23 55  1  0
 25 56  1  0
 27 57  1  0
 28 58  1  0
 29 59  1  0
 30 60  1  0
 32 61  1  0
 32 62  1  0
 33 63  1  0
 33 64  1  0
M  END
>  <smiles>  (39) 
CCC(=O)N(c1ccccc1)C1CCN(C(=O)[C@H](N)Cc2ccc(O)c3ccccc23)CC1

>  <score_type>  (39) 
oracle

>  <origin>  (39) 
autodockgpu

>  <m_score__min__energy>  (39) 
-10.050000000000001

>  <m_primary>  (39) 
energy

>  <rmsd>  (39) 
6.196767362987347

>  <m_score__min__rmsd>  (39) 
6.196767362987347

>  <meeko>  (39) 
{"free_energy": -7.32, "intermolecular_energy": -10.0, "internal_energy": -2.41, "cluster_size": 2, "cluster_id": 9, "rank_in_cluster": 2}

>  <energy>  (39) 
-6.43

>  <cluster_rmsd>  (39) 
0.0

>  <cluster>  (39) 
11

$$$$

     RDKit          3D

 64 67  0  0  0  0  0  0  0  0999 V2000
  141.8290   77.6230  220.4870 C   0  0  0  0  0  0  0  0  0  0  0  0
  141.3420   76.5400  219.5730 C   0  0  0  0  0  0  0  0  0  0  0  0
  142.4130   75.5470  219.3160 C   0  0  0  0  0  0  0  0  0  0  0  0
  143.3650   75.8640  218.5170 O   0  0  0  0  0  0  0  0  0  0  0  0
  142.4470   74.2520  219.9110 N   0  0  0  0  0  0  0  0  0  0  0  0
  143.7500   73.6640  220.0320 C   0  0  0  0  0  0  0  0  0  0  0  0
  144.1010   72.5070  219.3540 C   0  0  0  0  0  0  0  0  0  0  0  0
  145.3840   71.9950  219.5110 C   0  0  0  0  0  0  0  0  0  0  0  0
  146.3160   72.6070  220.3200 C   0  0  0  0  0  0  0  0  0  0  0  0
  145.9710   73.7420  220.9840 C   0  0  0  0  0  0  0  0  0  0  0  0
  144.6860   74.2830  220.8480 C   0  0  0  0  0  0  0  0  0  0  0  0
  141.2320   73.6260  220.3280 C   0  0  0  0  0  0  0  0  0  0  0  0
  140.6720   74.1780  221.6410 C   0  0  0  0  0  0  0  0  0  0  0  0
  139.2430   73.5780  221.6740 C   0  0  0  0  0  0  0  0  0  0  0  0
  139.4000   72.1610  222.0810 N   0  0  0  0  0  0  0  0  0  0  0  0
  138.3530   71.6080  222.8270 C   0  0  0  0  0  0  0  0  0  0  0  0
  137.3730   72.4190  223.0560 O   0  0  0  0  0  0  0  0  0  0  0  0
  138.2790   70.2320  223.3570 C   0  0  2  0  0  0  0  0  0  0  0  0
  137.3830   70.0490  224.4740 N   0  0  0  0  0  0  0  0  0  0  0  0
  139.5880   69.6120  223.6790 C   0  0  0  0  0  0  0  0  0  0  0  0
  139.7830   69.2050  225.0830 C   0  0  0  0  0  0  0  0  0  0  0  0
  139.4440   67.9390  225.5430 C   0  0  0  0  0  0  0  0  0  0  0  0
  139.6180   67.5470  226.8530 C   0  0  0  0  0  0  0  0  0  0  0  0
  140.1420   68.4230  227.7570 C   0  0  0  0  0  0  0  0  0  0  0  0
  140.3260   68.0540  229.0780 O   0  0  0  0  0  0  0  0  0  0  0  0
  140.4880   69.6890  227.3300 C   0  0  0  0  0  0  0  0  0  0  0  0
  141.0120   70.5520  228.2990 C   0  0  0  0  0  0  0  0  0  0  0  0
  141.3680   71.8500  227.9270 C   0  0  0  0  0  0  0  0  0  0  0  0
  141.2030   72.2720  226.6140 C   0  0  0  0  0  0  0  0  0  0  0  0
  140.6810   71.3790  225.6900 C   0  0  0  0  0  0  0  0  0  0  0  0
  140.3190   70.0870  226.0280 C   0  0  0  0  0  0  0  0  0  0  0  0
  140.6250   71.5460  221.6620 C   0  0  0  0  0  0  0  0  0  0  0  0
  141.2260   72.1510  220.4110 C   0  0  0  0  0  0  0  0  0  0  0  0
  141.6887   77.3111  221.5325 H   0  0  0  0  0  0  0  0  0  0  0  0
  142.8970   77.8081  220.2997 H   0  0  0  0  0  0  0  0  0  0  0  0
  141.2587   78.5448  220.2997 H   0  0  0  0  0  0  0  0  0  0  0  0
  140.4844   76.0330  220.0394 H   0  0  0  0  0  0  0  0  0  0  0  0
  141.0444   76.9935  218.6160 H   0  0  0  0  0  0  0  0  0  0  0  0
  143.3746   72.0011  218.7010 H   0  0  0  0  0  0  0  0  0  0  0  0
  145.6626   71.0760  218.9745 H   0  0  0  0  0  0  0  0  0  0  0  0
  147.3254   72.1832  220.4273 H   0  0  0  0  0  0  0  0  0  0  0  0
  146.7066   74.2395  221.6331 H   0  0  0  0  0  0  0  0  0  0  0  0
  144.4181   75.2019  221.3901 H   0  0  0  0  0  0  0  0  0  0  0  0
  140.5806   73.8968  219.4840 H   0  0  0  0  0  0  0  0  0  0  0  0
  141.2664   73.8369  222.5014 H   0  0  0  0  0  0  0  0  0  0  0  0
  140.6881   75.2764  221.6975 H   0  0  0  0  0  0  0  0  0  0  0  0
  138.6195   74.1173  222.4023 H   0  0  0  0  0  0  0  0  0  0  0  0
  138.7497   73.6619  220.6944 H   0  0  0  0  0  0  0  0  0  0  0  0
  137.8526   69.7020  222.4926 H   0  0  0  0  0  0  0  0  0  0  0  0
  136.5000   69.5740  224.1120 H   0  0  0  0  0  0  0  0  0  0  0  0
  137.0230   71.0270  224.6900 H   0  0  0  0  0  0  0  0  0  0  0  0
  139.6998   68.7163  223.0504 H   0  0  0  0  0  0  0  0  0  0  0  0
  140.3401   70.3920  223.4893 H   0  0  0  0  0  0  0  0  0  0  0  0
  139.0179   67.2174  224.8305 H   0  0  0  0  0  0  0  0  0  0  0  0
  139.3353   66.5316  227.1678 H   0  0  0  0  0  0  0  0  0  0  0  0
  140.4350   67.0650  229.2610 H   0  0  0  0  0  0  0  0  0  0  0  0
  141.1414   70.2132  229.3375 H   0  0  0  0  0  0  0  0  0  0  0  0
  141.7807   72.5410  228.6768 H   0  0  0  0  0  0  0  0  0  0  0  0
  141.4805   73.2931  226.3133 H   0  0  0  0  0  0  0  0  0  0  0  0
  140.5499   71.7104  224.6493 H   0  0  0  0  0  0  0  0  0  0  0  0
  141.3564   71.6427  222.4779 H   0  0  0  0  0  0  0  0  0  0  0  0
  140.3881   70.4984  221.4246 H   0  0  0  0  0  0  0  0  0  0  0  0
  142.2690   71.8084  220.3422 H   0  0  0  0  0  0  0  0  0  0  0  0
  140.5791   71.8162  219.5867 H   0  0  0  0  0  0  0  0  0  0  0  0
  1  2  1  0
  2  3  1  0
  3  4  2  0
  3  5  1  0
  5  6  1  0
  6  7  2  0
  7  8  1  0
  8  9  2  0
  9 10  1  0
 10 11  2  0
  5 12  1  0
 12 13  1  0
 13 14  1  0
 14 15  1  0
 15 16  1  0
 16 17  2  0
 16 18  1  0
 18 19  1  0
 18 20  1  0
 20 21  1  0
 21 22  2  0
 22 23  1  0
 23 24  2  0
 24 25  1  0
 24 26  1  0
 26 27  2  0
 27 28  1  0
 28 29  2  0
 29 30  1  0
 30 31  2  0
 15 32  1  0
 32 33  1  0
 11  6  1  0
 33 12  1  0
 31 21  1  0
 31 26  1  0
  1 34  1  0
  1 35  1  0
  1 36  1  0
  2 37  1  0
  2 38  1  0
  7 39  1  0
  8 40  1  0
  9 41  1  0
 10 42  1  0
 11 43  1  0
 12 44  1  0
 13 45  1  0
 13 46  1  0
 14 47  1  0
 14 48  1  0
 18 49  1  6
 19 50  1  0
 19 51  1  0
 20 52  1  0
 20 53  1  0
 22 54  1  0
 23 55  1  0
 25 56  1  0
 27 57  1  0
 28 58  1  0
 29 59  1  0
 30 60  1  0
 32 61  1  0
 32 62  1  0
 33 63  1  0
 33 64  1  0
M  END
>  <smiles>  (40) 
CCC(=O)N(c1ccccc1)C1CCN(C(=O)[C@H](N)Cc2ccc(O)c3ccccc23)CC1

>  <score_type>  (40) 
oracle

>  <origin>  (40) 
autodockgpu

>  <m_score__min__energy>  (40) 
-10.050000000000001

>  <m_primary>  (40) 
energy

>  <rmsd>  (40) 
8.486290483996413

>  <m_score__min__rmsd>  (40) 
8.486290483996413

>  <meeko>  (40) 
{"free_energy": -8.13, "intermolecular_energy": -10.82, "internal_energy": -2.32, "cluster_size": 5, "cluster_id": 3, "rank_in_cluster": 3}

>  <energy>  (40) 
-6.42

>  <cluster_rmsd>  (40) 
0.1

>  <cluster>  (40) 
11

$$$$

     RDKit          3D

 64 67  0  0  0  0  0  0  0  0999 V2000
  142.2020   80.1140  218.7510 C   0  0  0  0  0  0  0  0  0  0  0  0
  141.4880   78.8080  218.5750 C   0  0  0  0  0  0  0  0  0  0  0  0
  140.6500   78.5030  219.7600 C   0  0  0  0  0  0  0  0  0  0  0  0
  139.3740   78.5200  219.6290 O   0  0  0  0  0  0  0  0  0  0  0  0
  141.1840   78.1900  221.0430 N   0  0  0  0  0  0  0  0  0  0  0  0
  141.4500   79.3170  221.8900 C   0  0  0  0  0  0  0  0  0  0  0  0
  142.5560   79.3680  222.7230 C   0  0  0  0  0  0  0  0  0  0  0  0
  142.7570   80.4940  223.5130 C   0  0  0  0  0  0  0  0  0  0  0  0
  141.8860   81.5620  223.4900 C   0  0  0  0  0  0  0  0  0  0  0  0
  140.8010   81.5110  222.6720 C   0  0  0  0  0  0  0  0  0  0  0  0
  140.5700   80.3900  221.8640 C   0  0  0  0  0  0  0  0  0  0  0  0
  141.4300   76.8290  221.4020 C   0  0  0  0  0  0  0  0  0  0  0  0
  141.6510   75.9060  220.2010 C   0  0  0  0  0  0  0  0  0  0  0  0
  142.2040   74.6180  220.8660 C   0  0  0  0  0  0  0  0  0  0  0  0
  141.0350   73.9280  221.4630 N   0  0  0  0  0  0  0  0  0  0  0  0
  141.0910   72.5300  221.4980 C   0  0  0  0  0  0  0  0  0  0  0  0
  142.1740   72.0240  221.0050 O   0  0  0  0  0  0  0  0  0  0  0  0
  140.0550   71.6200  222.0270 C   0  0  2  0  0  0  0  0  0  0  0  0
  138.8190   71.5920  221.2810 N   0  0  0  0  0  0  0  0  0  0  0  0
  139.7470   71.7900  223.4680 C   0  0  0  0  0  0  0  0  0  0  0  0
  139.6020   70.5470  224.2490 C   0  0  0  0  0  0  0  0  0  0  0  0
  139.0130   69.4040  223.7250 C   0  0  0  0  0  0  0  0  0  0  0  0
  138.8680   68.2380  224.4450 C   0  0  0  0  0  0  0  0  0  0  0  0
  139.3130   68.1790  225.7330 C   0  0  0  0  0  0  0  0  0  0  0  0
  139.1790   67.0210  226.4770 O   0  0  0  0  0  0  0  0  0  0  0  0
  139.9020   69.3000  226.2830 C   0  0  0  0  0  0  0  0  0  0  0  0
  140.3310   69.1900  227.6100 C   0  0  0  0  0  0  0  0  0  0  0  0
  140.9230   70.2950  228.2230 C   0  0  0  0  0  0  0  0  0  0  0  0
  141.0810   71.4840  227.5210 C   0  0  0  0  0  0  0  0  0  0  0  0
  140.6410   71.5430  226.2070 C   0  0  0  0  0  0  0  0  0  0  0  0
  140.0500   70.4650  225.5730 C   0  0  0  0  0  0  0  0  0  0  0  0
  139.9890   74.7960  221.9150 C   0  0  0  0  0  0  0  0  0  0  0  0
  140.4580   76.1810  222.3060 C   0  0  0  0  0  0  0  0  0  0  0  0
  142.3182   80.3266  219.8240 H   0  0  0  0  0  0  0  0  0  0  0  0
  143.1939   80.0561  218.2791 H   0  0  0  0  0  0  0  0  0  0  0  0
  141.6178   80.9178  218.2791 H   0  0  0  0  0  0  0  0  0  0  0  0
  140.8456   78.8652  217.6839 H   0  0  0  0  0  0  0  0  0  0  0  0
  142.2359   78.0100  218.4568 H   0  0  0  0  0  0  0  0  0  0  0  0
  143.2658   78.5284  222.7587 H   0  0  0  0  0  0  0  0  0  0  0  0
  143.6350   80.5338  224.1744 H   0  0  0  0  0  0  0  0  0  0  0  0
  142.0660   82.4427  224.1241 H   0  0  0  0  0  0  0  0  0  0  0  0
  140.0986   82.3571  222.6444 H   0  0  0  0  0  0  0  0  0  0  0  0
  139.6884   80.3602  221.2069 H   0  0  0  0  0  0  0  0  0  0  0  0
  142.3601   76.9499  221.9768 H   0  0  0  0  0  0  0  0  0  0  0  0
  140.7066   75.7071  219.6732 H   0  0  0  0  0  0  0  0  0  0  0  0
  142.3223   76.3297  219.4395 H   0  0  0  0  0  0  0  0  0  0  0  0
  142.6829   73.9751  220.1128 H   0  0  0  0  0  0  0  0  0  0  0  0
  142.9631   74.8530  221.6266 H   0  0  0  0  0  0  0  0  0  0  0  0
  140.5504   70.6468  221.8948 H   0  0  0  0  0  0  0  0  0  0  0  0
  138.0310   71.8680  221.9440 H   0  0  0  0  0  0  0  0  0  0  0  0
  138.6200   70.5560  221.1370 H   0  0  0  0  0  0  0  0  0  0  0  0
  140.5600   72.3779  223.9189 H   0  0  0  0  0  0  0  0  0  0  0  0
  138.7630   72.2803  223.5053 H   0  0  0  0  0  0  0  0  0  0  0  0
  138.6456   69.4304  222.6885 H   0  0  0  0  0  0  0  0  0  0  0  0
  138.3954   67.3587  223.9830 H   0  0  0  0  0  0  0  0  0  0  0  0
  140.0250   66.6450  226.8870 H   0  0  0  0  0  0  0  0  0  0  0  0
  140.2036   68.2469  228.1617 H   0  0  0  0  0  0  0  0  0  0  0  0
  141.2659   70.2247  229.2658 H   0  0  0  0  0  0  0  0  0  0  0  0
  141.5453   72.3600  227.9975 H   0  0  0  0  0  0  0  0  0  0  0  0
  140.7667   72.4821  225.6482 H   0  0  0  0  0  0  0  0  0  0  0  0
  139.2509   74.8973  221.1057 H   0  0  0  0  0  0  0  0  0  0  0  0
  139.5671   74.3374  222.8214 H   0  0  0  0  0  0  0  0  0  0  0  0
  139.5716   76.8298  222.3636 H   0  0  0  0  0  0  0  0  0  0  0  0
  140.9912   76.0488  223.2590 H   0  0  0  0  0  0  0  0  0  0  0  0
  1  2  1  0
  2  3  1  0
  3  4  2  0
  3  5  1  0
  5  6  1  0
  6  7  2  0
  7  8  1  0
  8  9  2  0
  9 10  1  0
 10 11  2  0
  5 12  1  0
 12 13  1  0
 13 14  1  0
 14 15  1  0
 15 16  1  0
 16 17  2  0
 16 18  1  0
 18 19  1  0
 18 20  1  0
 20 21  1  0
 21 22  2  0
 22 23  1  0
 23 24  2  0
 24 25  1  0
 24 26  1  0
 26 27  2  0
 27 28  1  0
 28 29  2  0
 29 30  1  0
 30 31  2  0
 15 32  1  0
 32 33  1  0
 11  6  1  0
 33 12  1  0
 31 21  1  0
 31 26  1  0
  1 34  1  0
  1 35  1  0
  1 36  1  0
  2 37  1  0
  2 38  1  0
  7 39  1  0
  8 40  1  0
  9 41  1  0
 10 42  1  0
 11 43  1  0
 12 44  1  0
 13 45  1  0
 13 46  1  0
 14 47  1  0
 14 48  1  0
 18 49  1  1
 19 50  1  0
 19 51  1  0
 20 52  1  0
 20 53  1  0
 22 54  1  0
 23 55  1  0
 25 56  1  0
 27 57  1  0
 28 58  1  0
 29 59  1  0
 30 60  1  0
 32 61  1  0
 32 62  1  0
 33 63  1  0
 33 64  1  0
M  END
>  <smiles>  (41) 
CCC(=O)N(c1ccccc1)C1CCN(C(=O)[C@H](N)Cc2ccc(O)c3ccccc23)CC1

>  <score_type>  (41) 
oracle

>  <origin>  (41) 
autodockgpu

>  <m_score__min__energy>  (41) 
-10.050000000000001

>  <m_primary>  (41) 
energy

>  <rmsd>  (41) 
6.525556463902718

>  <m_score__min__rmsd>  (41) 
6.525556463902718

>  <meeko>  (41) 
{"free_energy": -9.17, "intermolecular_energy": -11.86, "internal_energy": -1.53, "cluster_size": 18, "cluster_id": 1, "rank_in_cluster": 6}

>  <energy>  (41) 
-6.41

>  <cluster_rmsd>  (41) 
0.09

>  <cluster>  (41) 
11

$$$$

     RDKit          3D

 64 67  0  0  0  0  0  0  0  0999 V2000
  142.5490   77.8750  218.6220 C   0  0  0  0  0  0  0  0  0  0  0  0
  143.1150   77.1530  217.4370 C   0  0  0  0  0  0  0  0  0  0  0  0
  142.5480   75.7870  217.3330 C   0  0  0  0  0  0  0  0  0  0  0  0
  142.0150   75.4270  216.2230 O   0  0  0  0  0  0  0  0  0  0  0  0
  142.5630   74.8450  218.4020 N   0  0  0  0  0  0  0  0  0  0  0  0
  143.8630   74.3900  218.8040 C   0  0  0  0  0  0  0  0  0  0  0  0
  144.7420   73.7930  217.9140 C   0  0  0  0  0  0  0  0  0  0  0  0
  145.9890   73.3830  218.3690 C   0  0  0  0  0  0  0  0  0  0  0  0
  146.3770   73.5530  219.6800 C   0  0  0  0  0  0  0  0  0  0  0  0
  145.5140   74.1390  220.5520 C   0  0  0  0  0  0  0  0  0  0  0  0
  144.2490   74.5630  220.1260 C   0  0  0  0  0  0  0  0  0  0  0  0
  141.3340   74.4080  218.9860 C   0  0  0  0  0  0  0  0  0  0  0  0
  140.8490   75.2940  220.1360 C   0  0  0  0  0  0  0  0  0  0  0  0
  139.3940   74.8020  220.3480 C   0  0  0  0  0  0  0  0  0  0  0  0
  139.4960   73.5190  221.0850 N   0  0  0  0  0  0  0  0  0  0  0  0
  138.4500   73.2240  221.9670 C   0  0  0  0  0  0  0  0  0  0  0  0
  137.5190   74.1210  222.0130 O   0  0  0  0  0  0  0  0  0  0  0  0
  138.3260   72.0250  222.8190 C   0  0  2  0  0  0  0  0  0  0  0  0
  137.2020   72.0240  223.7250 N   0  0  0  0  0  0  0  0  0  0  0  0
  139.5530   71.6600  223.5700 C   0  0  0  0  0  0  0  0  0  0  0  0
  139.4660   70.4430  224.3970 C   0  0  0  0  0  0  0  0  0  0  0  0
  138.8900   69.2670  223.9330 C   0  0  0  0  0  0  0  0  0  0  0  0
  138.7990   68.1240  224.6970 C   0  0  0  0  0  0  0  0  0  0  0  0
  139.2890   68.1210  225.9700 C   0  0  0  0  0  0  0  0  0  0  0  0
  139.2110   66.9870  226.7580 O   0  0  0  0  0  0  0  0  0  0  0  0
  139.8670   69.2750  226.4610 C   0  0  0  0  0  0  0  0  0  0  0  0
  140.3440   69.2220  227.7750 C   0  0  0  0  0  0  0  0  0  0  0  0
  140.9280   70.3630  228.3290 C   0  0  0  0  0  0  0  0  0  0  0  0
  141.0310   71.5300  227.5810 C   0  0  0  0  0  0  0  0  0  0  0  0
  140.5450   71.5310  226.2830 C   0  0  0  0  0  0  0  0  0  0  0  0
  139.9620   70.4170  225.7060 C   0  0  0  0  0  0  0  0  0  0  0  0
  140.6730   72.7530  220.8020 C   0  0  0  0  0  0  0  0  0  0  0  0
  141.2580   73.0000  219.4280 C   0  0  0  0  0  0  0  0  0  0  0  0
  142.9165   77.4063  219.5468 H   0  0  0  0  0  0  0  0  0  0  0  0
  142.8644   78.9285  218.5945 H   0  0  0  0  0  0  0  0  0  0  0  0
  141.4507   77.8202  218.5945 H   0  0  0  0  0  0  0  0  0  0  0  0
  142.8726   77.7147  216.5228 H   0  0  0  0  0  0  0  0  0  0  0  0
  144.2053   77.0739  217.5599 H   0  0  0  0  0  0  0  0  0  0  0  0
  144.4562   73.6459  216.8620 H   0  0  0  0  0  0  0  0  0  0  0  0
  146.6864   72.9092  217.6625 H   0  0  0  0  0  0  0  0  0  0  0  0
  147.3699   73.2197  220.0161 H   0  0  0  0  0  0  0  0  0  0  0  0
  145.8120   74.2813  221.6013 H   0  0  0  0  0  0  0  0  0  0  0  0
  143.5592   75.0346  220.8414 H   0  0  0  0  0  0  0  0  0  0  0  0
  140.6674   74.5005  218.1158 H   0  0  0  0  0  0  0  0  0  0  0  0
  141.4565   75.1399  221.0400 H   0  0  0  0  0  0  0  0  0  0  0  0
  140.9210   76.3703  219.9208 H   0  0  0  0  0  0  0  0  0  0  0  0
  138.8249   75.5363  220.9371 H   0  0  0  0  0  0  0  0  0  0  0  0
  138.8698   74.6738  219.3895 H   0  0  0  0  0  0  0  0  0  0  0  0
  138.1453   71.2514  222.0581 H   0  0  0  0  0  0  0  0  0  0  0  0
  136.7880   73.0070  223.7340 H   0  0  0  0  0  0  0  0  0  0  0  0
  137.6410   71.9720  224.6930 H   0  0  0  0  0  0  0  0  0  0  0  0
  140.3632   71.5140  222.8405 H   0  0  0  0  0  0  0  0  0  0  0  0
  139.7260   72.4862  224.2753 H   0  0  0  0  0  0  0  0  0  0  0  0
  138.4883   69.2475  222.9091 H   0  0  0  0  0  0  0  0  0  0  0  0
  138.3332   67.2179  224.2822 H   0  0  0  0  0  0  0  0  0  0  0  0
  140.0360   66.7490  227.2930 H   0  0  0  0  0  0  0  0  0  0  0  0
  140.2603   68.2959  228.3627 H   0  0  0  0  0  0  0  0  0  0  0  0
  141.3079   70.3382  229.3610 H   0  0  0  0  0  0  0  0  0  0  0  0
  141.4886   72.4336  228.0101 H   0  0  0  0  0  0  0  0  0  0  0  0
  140.6260   72.4531  225.6887 H   0  0  0  0  0  0  0  0  0  0  0  0
  141.4369   73.0042  221.5525 H   0  0  0  0  0  0  0  0  0  0  0  0
  140.3766   71.6942  220.8339 H   0  0  0  0  0  0  0  0  0  0  0  0
  142.2797   72.5924  219.4218 H   0  0  0  0  0  0  0  0  0  0  0  0
  140.5664   72.5118  218.7256 H   0  0  0  0  0  0  0  0  0  0  0  0
  1  2  1  0
  2  3  1  0
  3  4  2  0
  3  5  1  0
  5  6  1  0
  6  7  2  0
  7  8  1  0
  8  9  2  0
  9 10  1  0
 10 11  2  0
  5 12  1  0
 12 13  1  0
 13 14  1  0
 14 15  1  0
 15 16  1  0
 16 17  2  0
 16 18  1  0
 18 19  1  0
 18 20  1  0
 20 21  1  0
 21 22  2  0
 22 23  1  0
 23 24  2  0
 24 25  1  0
 24 26  1  0
 26 27  2  0
 27 28  1  0
 28 29  2  0
 29 30  1  0
 30 31  2  0
 15 32  1  0
 32 33  1  0
 11  6  1  0
 33 12  1  0
 31 21  1  0
 31 26  1  0
  1 34  1  0
  1 35  1  0
  1 36  1  0
  2 37  1  0
  2 38  1  0
  7 39  1  0
  8 40  1  0
  9 41  1  0
 10 42  1  0
 11 43  1  0
 12 44  1  0
 13 45  1  0
 13 46  1  0
 14 47  1  0
 14 48  1  0
 18 49  1  6
 19 50  1  0
 19 51  1  0
 20 52  1  0
 20 53  1  0
 22 54  1  0
 23 55  1  0
 25 56  1  0
 27 57  1  0
 28 58  1  0
 29 59  1  0
 30 60  1  0
 32 61  1  0
 32 62  1  0
 33 63  1  0
 33 64  1  0
M  END
>  <smiles>  (42) 
CCC(=O)N(c1ccccc1)C1CCN(C(=O)[C@H](N)Cc2ccc(O)c3ccccc23)CC1

>  <score_type>  (42) 
oracle

>  <origin>  (42) 
autodockgpu

>  <m_score__min__energy>  (42) 
-10.050000000000001

>  <m_primary>  (42) 
energy

>  <rmsd>  (42) 
7.125443213637677

>  <m_score__min__rmsd>  (42) 
7.125443213637677

>  <meeko>  (42) 
{"free_energy": -7.76, "intermolecular_energy": -10.44, "internal_energy": -2.22, "cluster_size": 5, "cluster_id": 3, "rank_in_cluster": 4}

>  <energy>  (42) 
-6.41

>  <cluster_rmsd>  (42) 
0.23

>  <cluster>  (42) 
11

$$$$

     RDKit          3D

 64 67  0  0  0  0  0  0  0  0999 V2000
  138.8230   66.6110  222.3640 C   0  0  0  0  0  0  0  0  0  0  0  0
  138.7890   68.0930  222.1400 C   0  0  0  0  0  0  0  0  0  0  0  0
  138.1470   68.7840  223.2840 C   0  0  0  0  0  0  0  0  0  0  0  0
  136.9210   68.5170  223.5530 O   0  0  0  0  0  0  0  0  0  0  0  0
  138.8190   69.7330  224.1090 N   0  0  0  0  0  0  0  0  0  0  0  0
  139.3410   69.2160  225.3410 C   0  0  0  0  0  0  0  0  0  0  0  0
  139.5640   70.0250  226.4440 C   0  0  0  0  0  0  0  0  0  0  0  0
  140.0650   69.4570  227.6090 C   0  0  0  0  0  0  0  0  0  0  0  0
  140.3460   68.1110  227.6990 C   0  0  0  0  0  0  0  0  0  0  0  0
  140.1270   67.3170  226.6170 C   0  0  0  0  0  0  0  0  0  0  0  0
  139.6230   67.8590  225.4280 C   0  0  0  0  0  0  0  0  0  0  0  0
  138.9220   71.0950  223.6920 C   0  0  0  0  0  0  0  0  0  0  0  0
  138.4740   71.3330  222.2480 C   0  0  0  0  0  0  0  0  0  0  0  0
  138.3790   72.8790  222.1770 C   0  0  0  0  0  0  0  0  0  0  0  0
  139.7720   73.3730  222.0590 N   0  0  0  0  0  0  0  0  0  0  0  0
  139.9550   74.5490  221.3240 C   0  0  0  0  0  0  0  0  0  0  0  0
  138.8660   75.0570  220.8470 O   0  0  0  0  0  0  0  0  0  0  0  0
  141.2360   75.2300  221.0540 C   0  0  2  0  0  0  0  0  0  0  0  0
  141.2220   76.6640  221.2250 N   0  0  0  0  0  0  0  0  0  0  0  0
  141.8570   74.9040  219.7460 C   0  0  0  0  0  0  0  0  0  0  0  0
  143.0410   74.0270  219.7930 C   0  0  0  0  0  0  0  0  0  0  0  0
  144.3340   74.5270  219.8800 C   0  0  0  0  0  0  0  0  0  0  0  0
  145.4490   73.7180  219.9210 C   0  0  0  0  0  0  0  0  0  0  0  0
  145.3040   72.3630  219.8730 C   0  0  0  0  0  0  0  0  0  0  0  0
  146.4070   71.5290  219.9130 O   0  0  0  0  0  0  0  0  0  0  0  0
  144.0310   71.8350  219.7860 C   0  0  0  0  0  0  0  0  0  0  0  0
  143.9380   70.4410  219.7300 C   0  0  0  0  0  0  0  0  0  0  0  0
  142.6770   69.8510  219.6290 C   0  0  0  0  0  0  0  0  0  0  0  0
  141.5350   70.6420  219.5840 C   0  0  0  0  0  0  0  0  0  0  0  0
  141.6800   72.0200  219.6440 C   0  0  0  0  0  0  0  0  0  0  0  0
  142.9160   72.6340  219.7450 C   0  0  0  0  0  0  0  0  0  0  0  0
  140.7560   72.5610  222.7120 C   0  0  0  0  0  0  0  0  0  0  0  0
  140.2250   71.7640  223.8840 C   0  0  0  0  0  0  0  0  0  0  0  0
  138.8278   66.4035  223.4442 H   0  0  0  0  0  0  0  0  0  0  0  0
  137.9352   66.1505  221.9061 H   0  0  0  0  0  0  0  0  0  0  0  0
  139.7310   66.1917  221.9061 H   0  0  0  0  0  0  0  0  0  0  0  0
  139.8182   68.4642  222.0260 H   0  0  0  0  0  0  0  0  0  0  0  0
  138.2048   68.2988  221.2310 H   0  0  0  0  0  0  0  0  0  0  0  0
  139.3472   71.1024  226.3978 H   0  0  0  0  0  0  0  0  0  0  0  0
  140.2423   70.0998  228.4838 H   0  0  0  0  0  0  0  0  0  0  0  0
  140.7418   67.6849  228.6327 H   0  0  0  0  0  0  0  0  0  0  0  0
  140.3474   66.2409  226.6760 H   0  0  0  0  0  0  0  0  0  0  0  0
  139.4498   67.2069  224.5592 H   0  0  0  0  0  0  0  0  0  0  0  0
  138.2210   71.5630  224.3988 H   0  0  0  0  0  0  0  0  0  0  0  0
  139.2154   70.9470  221.5330 H   0  0  0  0  0  0  0  0  0  0  0  0
  137.5337   70.8235  221.9908 H   0  0  0  0  0  0  0  0  0  0  0  0
  137.7901   73.1852  221.2998 H   0  0  0  0  0  0  0  0  0  0  0  0
  137.8809   73.2917  223.0667 H   0  0  0  0  0  0  0  0  0  0  0  0
  141.8654   74.8028  221.8486 H   0  0  0  0  0  0  0  0  0  0  0  0
  141.7920   76.8960  222.0960 H   0  0  0  0  0  0  0  0  0  0  0  0
  140.2340   76.8820  221.5550 H   0  0  0  0  0  0  0  0  0  0  0  0
  141.0954   74.4082  219.1262 H   0  0  0  0  0  0  0  0  0  0  0  0
  142.2138   75.8622  219.3403 H   0  0  0  0  0  0  0  0  0  0  0  0
  144.4743   75.6174  219.9179 H   0  0  0  0  0  0  0  0  0  0  0  0
  146.4521   74.1637  219.9922 H   0  0  0  0  0  0  0  0  0  0  0  0
  146.7380   71.2590  220.8300 H   0  0  0  0  0  0  0  0  0  0  0  0
  144.8445   69.8189  219.7650 H   0  0  0  0  0  0  0  0  0  0  0  0
  142.5867   68.7556  219.5848 H   0  0  0  0  0  0  0  0  0  0  0  0
  140.5378   70.1850  219.5026 H   0  0  0  0  0  0  0  0  0  0  0  0
  140.7781   72.6488  219.6100 H   0  0  0  0  0  0  0  0  0  0  0  0
  141.1669   71.8566  221.9738 H   0  0  0  0  0  0  0  0  0  0  0  0
  141.5151   73.2475  223.1150 H   0  0  0  0  0  0  0  0  0  0  0  0
  140.9668   70.9878  224.1234 H   0  0  0  0  0  0  0  0  0  0  0  0
  140.0583   72.5002  224.6841 H   0  0  0  0  0  0  0  0  0  0  0  0
  1  2  1  0
  2  3  1  0
  3  4  2  0
  3  5  1  0
  5  6  1  0
  6  7  2  0
  7  8  1  0
  8  9  2  0
  9 10  1  0
 10 11  2  0
  5 12  1  0
 12 13  1  0
 13 14  1  0
 14 15  1  0
 15 16  1  0
 16 17  2  0
 16 18  1  0
 18 19  1  0
 18 20  1  0
 20 21  1  0
 21 22  2  0
 22 23  1  0
 23 24  2  0
 24 25  1  0
 24 26  1  0
 26 27  2  0
 27 28  1  0
 28 29  2  0
 29 30  1  0
 30 31  2  0
 15 32  1  0
 32 33  1  0
 11  6  1  0
 33 12  1  0
 31 21  1  0
 31 26  1  0
  1 34  1  0
  1 35  1  0
  1 36  1  0
  2 37  1  0
  2 38  1  0
  7 39  1  0
  8 40  1  0
  9 41  1  0
 10 42  1  0
 11 43  1  0
 12 44  1  0
 13 45  1  0
 13 46  1  0
 14 47  1  0
 14 48  1  0
 18 49  1  1
 19 50  1  0
 19 51  1  0
 20 52  1  0
 20 53  1  0
 22 54  1  0
 23 55  1  0
 25 56  1  0
 27 57  1  0
 28 58  1  0
 29 59  1  0
 30 60  1  0
 32 61  1  0
 32 62  1  0
 33 63  1  0
 33 64  1  0
M  END
>  <smiles>  (43) 
CCC(=O)N(c1ccccc1)C1CCN(C(=O)[C@H](N)Cc2ccc(O)c3ccccc23)CC1

>  <score_type>  (43) 
oracle

>  <origin>  (43) 
autodockgpu

>  <m_score__min__energy>  (43) 
-10.050000000000001

>  <m_primary>  (43) 
energy

>  <rmsd>  (43) 
6.785986681701189

>  <m_score__min__rmsd>  (43) 
6.785986681701189

>  <meeko>  (43) 
{"free_energy": -7.34, "intermolecular_energy": -10.02, "internal_energy": -2.52, "cluster_size": 2, "cluster_id": 10, "rank_in_cluster": 1}

>  <energy>  (43) 
-6.4

>  <cluster_rmsd>  (43) 
0.28

>  <cluster>  (43) 
11

$$$$

     RDKit          3D

 64 67  0  0  0  0  0  0  0  0999 V2000
  138.7860   66.6430  222.3230 C   0  0  0  0  0  0  0  0  0  0  0  0
  138.7090   68.1210  222.0850 C   0  0  0  0  0  0  0  0  0  0  0  0
  138.0780   68.8080  223.2370 C   0  0  0  0  0  0  0  0  0  0  0  0
  136.8400   68.5770  223.4860 O   0  0  0  0  0  0  0  0  0  0  0  0
  138.7720   69.7140  224.0910 N   0  0  0  0  0  0  0  0  0  0  0  0
  139.3110   69.1390  225.2890 C   0  0  0  0  0  0  0  0  0  0  0  0
  139.5980   67.7870  225.3940 C   0  0  0  0  0  0  0  0  0  0  0  0
  140.1260   67.2980  226.5820 C   0  0  0  0  0  0  0  0  0  0  0  0
  140.3730   68.1200  227.6600 C   0  0  0  0  0  0  0  0  0  0  0  0
  140.0920   69.4460  227.5570 C   0  0  0  0  0  0  0  0  0  0  0  0
  139.5580   69.9700  226.3730 C   0  0  0  0  0  0  0  0  0  0  0  0
  138.8780   71.0930  223.7320 C   0  0  0  0  0  0  0  0  0  0  0  0
  138.3620   71.4060  222.3260 C   0  0  0  0  0  0  0  0  0  0  0  0
  138.2920   72.9550  222.3320 C   0  0  0  0  0  0  0  0  0  0  0  0
  139.6860   73.4310  222.1650 N   0  0  0  0  0  0  0  0  0  0  0  0
  139.8530   74.6380  221.4770 C   0  0  0  0  0  0  0  0  0  0  0  0
  138.7500   75.1850  221.0800 O   0  0  0  0  0  0  0  0  0  0  0  0
  141.1310   75.3100  221.1730 C   0  0  2  0  0  0  0  0  0  0  0  0
  141.1210   76.7480  221.3100 N   0  0  0  0  0  0  0  0  0  0  0  0
  141.7330   74.9530  219.8640 C   0  0  0  0  0  0  0  0  0  0  0  0
  142.9570   74.1330  219.9180 C   0  0  0  0  0  0  0  0  0  0  0  0
  144.2200   74.6910  220.0680 C   0  0  0  0  0  0  0  0  0  0  0  0
  145.3720   73.9360  220.1160 C   0  0  0  0  0  0  0  0  0  0  0  0
  145.2950   72.5780  220.0110 C   0  0  0  0  0  0  0  0  0  0  0  0
  146.4370   71.7970  220.0570 O   0  0  0  0  0  0  0  0  0  0  0  0
  144.0540   71.9940  219.8600 C   0  0  0  0  0  0  0  0  0  0  0  0
  144.0320   70.6000  219.7470 C   0  0  0  0  0  0  0  0  0  0  0  0
  142.8050   69.9540  219.5790 C   0  0  0  0  0  0  0  0  0  0  0  0
  141.6280   70.6900  219.5260 C   0  0  0  0  0  0  0  0  0  0  0  0
  141.7020   72.0700  219.6450 C   0  0  0  0  0  0  0  0  0  0  0  0
  142.9020   72.7380  219.8120 C   0  0  0  0  0  0  0  0  0  0  0  0
  140.6870   72.5740  222.7280 C   0  0  0  0  0  0  0  0  0  0  0  0
  140.2020   71.7320  223.8880 C   0  0  0  0  0  0  0  0  0  0  0  0
  138.7963   66.4459  223.4051 H   0  0  0  0  0  0  0  0  0  0  0  0
  137.9122   66.1525  221.8692 H   0  0  0  0  0  0  0  0  0  0  0  0
  139.7060   66.2460  221.8692 H   0  0  0  0  0  0  0  0  0  0  0  0
  139.7254   68.5166  221.9419 H   0  0  0  0  0  0  0  0  0  0  0  0
  138.0976   68.3022  221.1887 H   0  0  0  0  0  0  0  0  0  0  0  0
  139.4101   67.1102  224.5475 H   0  0  0  0  0  0  0  0  0  0  0  0
  140.3533   66.2249  226.6646 H   0  0  0  0  0  0  0  0  0  0  0  0
  140.7916   67.7091  228.5906 H   0  0  0  0  0  0  0  0  0  0  0  0
  140.2855   70.1127  228.4103 H   0  0  0  0  0  0  0  0  0  0  0  0
  139.3334   71.0445  226.3019 H   0  0  0  0  0  0  0  0  0  0  0  0
  138.2216   71.5381  224.4942 H   0  0  0  0  0  0  0  0  0  0  0  0
  139.0590   71.0424  221.5566 H   0  0  0  0  0  0  0  0  0  0  0  0
  137.4007   70.9243  222.0941 H   0  0  0  0  0  0  0  0  0  0  0  0
  137.6648   73.3119  221.5018 H   0  0  0  0  0  0  0  0  0  0  0  0
  137.8476   73.3332  223.2644 H   0  0  0  0  0  0  0  0  0  0  0  0
  141.7709   74.9000  221.9683 H   0  0  0  0  0  0  0  0  0  0  0  0
  141.7530   77.0030  222.1300 H   0  0  0  0  0  0  0  0  0  0  0  0
  140.1590   76.9700  221.7090 H   0  0  0  0  0  0  0  0  0  0  0  0
  140.9797   74.3958  219.2878 H   0  0  0  0  0  0  0  0  0  0  0  0
  142.0347   75.9066  219.4063 H   0  0  0  0  0  0  0  0  0  0  0  0
  144.3046   75.7845  220.1522 H   0  0  0  0  0  0  0  0  0  0  0  0
  146.3491   74.4262  220.2384 H   0  0  0  0  0  0  0  0  0  0  0  0
  146.3400   70.8760  220.4630 H   0  0  0  0  0  0  0  0  0  0  0  0
  144.9665   70.0214  219.7898 H   0  0  0  0  0  0  0  0  0  0  0  0
  142.7706   68.8583  219.4883 H   0  0  0  0  0  0  0  0  0  0  0  0
  140.6579   70.1890  219.3925 H   0  0  0  0  0  0  0  0  0  0  0  0
  140.7715   72.6553  219.6051 H   0  0  0  0  0  0  0  0  0  0  0  0
  141.0466   71.8983  221.9380 H   0  0  0  0  0  0  0  0  0  0  0  0
  141.4783   73.2287  223.1219 H   0  0  0  0  0  0  0  0  0  0  0  0
  140.9407   70.9339  224.0533 H   0  0  0  0  0  0  0  0  0  0  0  0
  140.0896   72.4324  224.7287 H   0  0  0  0  0  0  0  0  0  0  0  0
  1  2  1  0
  2  3  1  0
  3  4  2  0
  3  5  1  0
  5  6  1  0
  6  7  2  0
  7  8  1  0
  8  9  2  0
  9 10  1  0
 10 11  2  0
  5 12  1  0
 12 13  1  0
 13 14  1  0
 14 15  1  0
 15 16  1  0
 16 17  2  0
 16 18  1  0
 18 19  1  0
 18 20  1  0
 20 21  1  0
 21 22  2  0
 22 23  1  0
 23 24  2  0
 24 25  1  0
 24 26  1  0
 26 27  2  0
 27 28  1  0
 28 29  2  0
 29 30  1  0
 30 31  2  0
 15 32  1  0
 32 33  1  0
 11  6  1  0
 33 12  1  0
 31 21  1  0
 31 26  1  0
  1 34  1  0
  1 35  1  0
  1 36  1  0
  2 37  1  0
  2 38  1  0
  7 39  1  0
  8 40  1  0
  9 41  1  0
 10 42  1  0
 11 43  1  0
 12 44  1  0
 13 45  1  0
 13 46  1  0
 14 47  1  0
 14 48  1  0
 18 49  1  1
 19 50  1  0
 19 51  1  0
 20 52  1  0
 20 53  1  0
 22 54  1  0
 23 55  1  0
 25 56  1  0
 27 57  1  0
 28 58  1  0
 29 59  1  0
 30 60  1  0
 32 61  1  0
 32 62  1  0
 33 63  1  0
 33 64  1  0
M  END
>  <smiles>  (44) 
CCC(=O)N(c1ccccc1)C1CCN(C(=O)[C@H](N)Cc2ccc(O)c3ccccc23)CC1

>  <score_type>  (44) 
oracle

>  <origin>  (44) 
autodockgpu

>  <m_score__min__energy>  (44) 
-10.050000000000001

>  <m_primary>  (44) 
energy

>  <rmsd>  (44) 
6.772336479896274

>  <m_score__min__rmsd>  (44) 
6.772336479896274

>  <meeko>  (44) 
{"free_energy": -7.3, "intermolecular_energy": -9.99, "internal_energy": -2.5, "cluster_size": 2, "cluster_id": 10, "rank_in_cluster": 2}

>  <energy>  (44) 
-6.4

>  <cluster_rmsd>  (44) 
0.29

>  <cluster>  (44) 
11

$$$$

     RDKit          3D

 64 67  0  0  0  0  0  0  0  0999 V2000
  141.1460   68.1400  228.6400 C   0  0  0  0  0  0  0  0  0  0  0  0
  141.2060   67.7630  227.1910 C   0  0  0  0  0  0  0  0  0  0  0  0
  139.8750   67.9120  226.5530 C   0  0  0  0  0  0  0  0  0  0  0  0
  139.0910   66.8970  226.5260 O   0  0  0  0  0  0  0  0  0  0  0  0
  139.4150   69.1260  225.9660 N   0  0  0  0  0  0  0  0  0  0  0  0
  140.0470   70.3210  226.4470 C   0  0  0  0  0  0  0  0  0  0  0  0
  140.8860   71.0830  225.6490 C   0  0  0  0  0  0  0  0  0  0  0  0
  141.4610   72.2330  226.1780 C   0  0  0  0  0  0  0  0  0  0  0  0
  141.2190   72.6370  227.4720 C   0  0  0  0  0  0  0  0  0  0  0  0
  140.3960   71.8890  228.2550 C   0  0  0  0  0  0  0  0  0  0  0  0
  139.8010   70.7250  227.7520 C   0  0  0  0  0  0  0  0  0  0  0  0
  138.3820   69.0960  224.9800 C   0  0  0  0  0  0  0  0  0  0  0  0
  138.7700   68.3480  223.7030 C   0  0  0  0  0  0  0  0  0  0  0  0
  137.4080   68.1900  222.9790 C   0  0  0  0  0  0  0  0  0  0  0  0
  137.1060   69.5120  222.3770 N   0  0  0  0  0  0  0  0  0  0  0  0
  136.3840   69.4980  221.1780 C   0  0  0  0  0  0  0  0  0  0  0  0
  136.0670   68.3170  220.7570 O   0  0  0  0  0  0  0  0  0  0  0  0
  135.9730   70.6720  220.3840 C   0  0  2  0  0  0  0  0  0  0  0  0
  134.9080   70.4360  219.4380 N   0  0  0  0  0  0  0  0  0  0  0  0
  137.0800   71.3840  219.6980 C   0  0  0  0  0  0  0  0  0  0  0  0
  137.7430   72.4480  220.4750 C   0  0  0  0  0  0  0  0  0  0  0  0
  137.0800   73.6020  220.8730 C   0  0  0  0  0  0  0  0  0  0  0  0
  137.6890   74.6050  221.5960 C   0  0  0  0  0  0  0  0  0  0  0  0
  139.0010   74.4840  221.9470 C   0  0  0  0  0  0  0  0  0  0  0  0
  139.6360   75.4760  222.6730 O   0  0  0  0  0  0  0  0  0  0  0  0
  139.6880   73.3490  221.5660 C   0  0  0  0  0  0  0  0  0  0  0  0
  141.0330   73.2790  221.9420 C   0  0  0  0  0  0  0  0  0  0  0  0
  141.7820   72.1600  221.5740 C   0  0  0  0  0  0  0  0  0  0  0  0
  141.1940   71.1340  220.8430 C   0  0  0  0  0  0  0  0  0  0  0  0
  139.8560   71.2490  220.4950 C   0  0  0  0  0  0  0  0  0  0  0  0
  139.0890   72.3460  220.8460 C   0  0  0  0  0  0  0  0  0  0  0  0
  137.6130   70.6360  223.1060 C   0  0  0  0  0  0  0  0  0  0  0  0
  137.7810   70.3880  224.5900 C   0  0  0  0  0  0  0  0  0  0  0  0
  141.2889   67.2418  229.2588 H   0  0  0  0  0  0  0  0  0  0  0  0
  141.9395   68.8686  228.8625 H   0  0  0  0  0  0  0  0  0  0  0  0
  140.1655   68.5863  228.8625 H   0  0  0  0  0  0  0  0  0  0  0  0
  141.9272   68.4162  226.6779 H   0  0  0  0  0  0  0  0  0  0  0  0
  141.5191   66.7114  227.1127 H   0  0  0  0  0  0  0  0  0  0  0  0
  141.0940   70.7820  224.6116 H   0  0  0  0  0  0  0  0  0  0  0  0
  142.1279   72.8370  225.5452 H   0  0  0  0  0  0  0  0  0  0  0  0
  141.6848   73.5519  227.8669 H   0  0  0  0  0  0  0  0  0  0  0  0
  140.1962   72.2005  229.2909 H   0  0  0  0  0  0  0  0  0  0  0  0
  139.1360   70.1285  228.3938 H   0  0  0  0  0  0  0  0  0  0  0  0
  137.6085   68.5442  225.5341 H   0  0  0  0  0  0  0  0  0  0  0  0
  139.4762   68.9351  223.0975 H   0  0  0  0  0  0  0  0  0  0  0  0
  139.2790   67.3915  223.8928 H   0  0  0  0  0  0  0  0  0  0  0  0
  137.4791   67.4211  222.1956 H   0  0  0  0  0  0  0  0  0  0  0  0
  136.6168   67.8755  223.6755 H   0  0  0  0  0  0  0  0  0  0  0  0
  135.5810   71.3272  221.1759 H   0  0  0  0  0  0  0  0  0  0  0  0
  134.6550   69.4010  219.4820 H   0  0  0  0  0  0  0  0  0  0  0  0
  135.3810   70.4960  218.4850 H   0  0  0  0  0  0  0  0  0  0  0  0
  137.8430   70.6392  219.4277 H   0  0  0  0  0  0  0  0  0  0  0  0
  136.6193   71.8889  218.8361 H   0  0  0  0  0  0  0  0  0  0  0  0
  136.0214   73.7206  220.5988 H   0  0  0  0  0  0  0  0  0  0  0  0
  137.1191   75.4992  221.8886 H   0  0  0  0  0  0  0  0  0  0  0  0
  139.2360   75.7060  223.5730 H   0  0  0  0  0  0  0  0  0  0  0  0
  141.4941   74.0939  222.5194 H   0  0  0  0  0  0  0  0  0  0  0  0
  142.8409   72.0898  221.8634 H   0  0  0  0  0  0  0  0  0  0  0  0
  141.7773   70.2497  220.5468 H   0  0  0  0  0  0  0  0  0  0  0  0
  139.3873   70.4379  219.9185 H   0  0  0  0  0  0  0  0  0  0  0  0
  138.5944   70.9044  222.6877 H   0  0  0  0  0  0  0  0  0  0  0  0
  136.8710   71.4413  223.0019 H   0  0  0  0  0  0  0  0  0  0  0  0
  138.4197   71.1883  224.9921 H   0  0  0  0  0  0  0  0  0  0  0  0
  136.7599   70.3684  224.9986 H   0  0  0  0  0  0  0  0  0  0  0  0
  1  2  1  0
  2  3  1  0
  3  4  2  0
  3  5  1  0
  5  6  1  0
  6  7  2  0
  7  8  1  0
  8  9  2  0
  9 10  1  0
 10 11  2  0
  5 12  1  0
 12 13  1  0
 13 14  1  0
 14 15  1  0
 15 16  1  0
 16 17  2  0
 16 18  1  0
 18 19  1  0
 18 20  1  0
 20 21  1  0
 21 22  2  0
 22 23  1  0
 23 24  2  0
 24 25  1  0
 24 26  1  0
 26 27  2  0
 27 28  1  0
 28 29  2  0
 29 30  1  0
 30 31  2  0
 15 32  1  0
 32 33  1  0
 11  6  1  0
 33 12  1  0
 31 21  1  0
 31 26  1  0
  1 34  1  0
  1 35  1  0
  1 36  1  0
  2 37  1  0
  2 38  1  0
  7 39  1  0
  8 40  1  0
  9 41  1  0
 10 42  1  0
 11 43  1  0
 12 44  1  0
 13 45  1  0
 13 46  1  0
 14 47  1  0
 14 48  1  0
 18 49  1  1
 19 50  1  0
 19 51  1  0
 20 52  1  0
 20 53  1  0
 22 54  1  0
 23 55  1  0
 25 56  1  0
 27 57  1  0
 28 58  1  0
 29 59  1  0
 30 60  1  0
 32 61  1  0
 32 62  1  0
 33 63  1  0
 33 64  1  0
M  END
>  <smiles>  (45) 
CCC(=O)N(c1ccccc1)C1CCN(C(=O)[C@H](N)Cc2ccc(O)c3ccccc23)CC1

>  <score_type>  (45) 
oracle

>  <origin>  (45) 
autodockgpu

>  <m_score__min__energy>  (45) 
-10.050000000000001

>  <m_primary>  (45) 
energy

>  <rmsd>  (45) 
9.742510500093887

>  <m_score__min__rmsd>  (45) 
9.742510500093887

>  <meeko>  (45) 
{"free_energy": -6.34, "intermolecular_energy": -9.03, "internal_energy": -3.08, "cluster_size": 1, "cluster_id": 12, "rank_in_cluster": 1}

>  <energy>  (45) 
-6.39

>  <cluster_rmsd>  (45) 
0.26

>  <cluster>  (45) 
11

$$$$

     RDKit          3D

 64 67  0  0  0  0  0  0  0  0999 V2000
  142.5390   77.0700  219.7270 C   0  0  0  0  0  0  0  0  0  0  0  0
  143.0370   76.2270  218.5920 C   0  0  0  0  0  0  0  0  0  0  0  0
  142.2680   74.9630  218.5000 C   0  0  0  0  0  0  0  0  0  0  0  0
  141.4950   74.7870  217.4900 O   0  0  0  0  0  0  0  0  0  0  0  0
  142.3390   73.9240  219.4730 N   0  0  0  0  0  0  0  0  0  0  0  0
  143.6630   73.4990  219.8240 C   0  0  0  0  0  0  0  0  0  0  0  0
  144.2940   72.4460  219.1800 C   0  0  0  0  0  0  0  0  0  0  0  0
  145.5810   72.0910  219.5650 C   0  0  0  0  0  0  0  0  0  0  0  0
  146.2490   72.7580  220.5690 C   0  0  0  0  0  0  0  0  0  0  0  0
  145.6300   73.7910  221.2010 C   0  0  0  0  0  0  0  0  0  0  0  0
  144.3320   74.1730  220.8360 C   0  0  0  0  0  0  0  0  0  0  0  0
  141.1380   73.3720  220.0170 C   0  0  0  0  0  0  0  0  0  0  0  0
  140.8020   73.8890  221.4180 C   0  0  0  0  0  0  0  0  0  0  0  0
  139.3430   73.4030  221.6130 C   0  0  0  0  0  0  0  0  0  0  0  0
  139.4290   71.9560  221.9270 N   0  0  0  0  0  0  0  0  0  0  0  0
  138.4430   71.4450  222.7790 C   0  0  0  0  0  0  0  0  0  0  0  0
  137.5740   72.3160  223.1750 O   0  0  0  0  0  0  0  0  0  0  0  0
  138.3200   70.0510  223.2480 C   0  0  2  0  0  0  0  0  0  0  0  0
  137.3860   69.8440  224.3290 N   0  0  0  0  0  0  0  0  0  0  0  0
  139.6040   69.3860  223.5830 C   0  0  0  0  0  0  0  0  0  0  0  0
  139.8100   69.0570  225.0060 C   0  0  0  0  0  0  0  0  0  0  0  0
  139.5100   67.8060  225.5310 C   0  0  0  0  0  0  0  0  0  0  0  0
  139.6940   67.4870  226.8590 C   0  0  0  0  0  0  0  0  0  0  0  0
  140.1900   68.4250  227.7170 C   0  0  0  0  0  0  0  0  0  0  0  0
  140.3840   68.1300  229.0550 O   0  0  0  0  0  0  0  0  0  0  0  0
  140.4960   69.6780  227.2260 C   0  0  0  0  0  0  0  0  0  0  0  0
  140.9920   70.6040  228.1480 C   0  0  0  0  0  0  0  0  0  0  0  0
  141.3080   71.8920  227.7110 C   0  0  0  0  0  0  0  0  0  0  0  0
  141.1310   72.2420  226.3780 C   0  0  0  0  0  0  0  0  0  0  0  0
  140.6390   71.2860  225.5010 C   0  0  0  0  0  0  0  0  0  0  0  0
  140.3170   70.0030  225.9040 C   0  0  0  0  0  0  0  0  0  0  0  0
  140.5320   71.2720  221.3200 C   0  0  0  0  0  0  0  0  0  0  0  0
  141.0170   71.8990  220.0300 C   0  0  0  0  0  0  0  0  0  0  0  0
  142.8166   76.6001  220.6821 H   0  0  0  0  0  0  0  0  0  0  0  0
  142.9908   78.0711  219.6659 H   0  0  0  0  0  0  0  0  0  0  0  0
  141.4442   77.1574  219.6659 H   0  0  0  0  0  0  0  0  0  0  0  0
  142.9260   76.7863  217.6513 H   0  0  0  0  0  0  0  0  0  0  0  0
  144.0951   75.9845  218.7699 H   0  0  0  0  0  0  0  0  0  0  0  0
  143.7825   71.8986  218.3746 H   0  0  0  0  0  0  0  0  0  0  0  0
  146.0804   71.2545  219.0543 H   0  0  0  0  0  0  0  0  0  0  0  0
  147.2682   72.4592  220.8551 H   0  0  0  0  0  0  0  0  0  0  0  0
  146.1521   74.3308  222.0048 H   0  0  0  0  0  0  0  0  0  0  0  0
  143.8415   75.0104  221.3537 H   0  0  0  0  0  0  0  0  0  0  0  0
  140.4084   73.7412  219.2812 H   0  0  0  0  0  0  0  0  0  0  0  0
  141.4710   73.4523  222.1741 H   0  0  0  0  0  0  0  0  0  0  0  0
  140.9198   74.9775  221.5240 H   0  0  0  0  0  0  0  0  0  0  0  0
  138.8676   73.9460  222.4432 H   0  0  0  0  0  0  0  0  0  0  0  0
  138.7362   73.5832  220.7134 H   0  0  0  0  0  0  0  0  0  0  0  0
  137.9078   69.5681  222.3497 H   0  0  0  0  0  0  0  0  0  0  0  0
  136.4470   69.5730  223.9030 H   0  0  0  0  0  0  0  0  0  0  0  0
  137.1780   70.8220  224.6920 H   0  0  0  0  0  0  0  0  0  0  0  0
  139.6571   68.4487  223.0098 H   0  0  0  0  0  0  0  0  0  0  0  0
  140.3894   70.1134  223.3302 H   0  0  0  0  0  0  0  0  0  0  0  0
  139.1076   67.0358  224.8565 H   0  0  0  0  0  0  0  0  0  0  0  0
  139.4422   66.4809  227.2256 H   0  0  0  0  0  0  0  0  0  0  0  0
  140.7960   67.2300  229.2650 H   0  0  0  0  0  0  0  0  0  0  0  0
  141.1314   70.3223  229.2021 H   0  0  0  0  0  0  0  0  0  0  0  0
  141.6985   72.6324  228.4247 H   0  0  0  0  0  0  0  0  0  0  0  0
  141.3756   73.2549  226.0257 H   0  0  0  0  0  0  0  0  0  0  0  0
  140.4998   71.5592  224.4446 H   0  0  0  0  0  0  0  0  0  0  0  0
  141.3680   71.2631  222.0349 H   0  0  0  0  0  0  0  0  0  0  0  0
  140.1770   70.2621  221.0668 H   0  0  0  0  0  0  0  0  0  0  0  0
  142.0095   71.4802  219.8075 H   0  0  0  0  0  0  0  0  0  0  0  0
  140.2439   71.6640  219.2836 H   0  0  0  0  0  0  0  0  0  0  0  0
  1  2  1  0
  2  3  1  0
  3  4  2  0
  3  5  1  0
  5  6  1  0
  6  7  2  0
  7  8  1  0
  8  9  2  0
  9 10  1  0
 10 11  2  0
  5 12  1  0
 12 13  1  0
 13 14  1  0
 14 15  1  0
 15 16  1  0
 16 17  2  0
 16 18  1  0
 18 19  1  0
 18 20  1  0
 20 21  1  0
 21 22  2  0
 22 23  1  0
 23 24  2  0
 24 25  1  0
 24 26  1  0
 26 27  2  0
 27 28  1  0
 28 29  2  0
 29 30  1  0
 30 31  2  0
 15 32  1  0
 32 33  1  0
 11  6  1  0
 33 12  1  0
 31 21  1  0
 31 26  1  0
  1 34  1  0
  1 35  1  0
  1 36  1  0
  2 37  1  0
  2 38  1  0
  7 39  1  0
  8 40  1  0
  9 41  1  0
 10 42  1  0
 11 43  1  0
 12 44  1  0
 13 45  1  0
 13 46  1  0
 14 47  1  0
 14 48  1  0
 18 49  1  6
 19 50  1  0
 19 51  1  0
 20 52  1  0
 20 53  1  0
 22 54  1  0
 23 55  1  0
 25 56  1  0
 27 57  1  0
 28 58  1  0
 29 59  1  0
 30 60  1  0
 32 61  1  0
 32 62  1  0
 33 63  1  0
 33 64  1  0
M  END
>  <smiles>  (46) 
CCC(=O)N(c1ccccc1)C1CCN(C(=O)[C@H](N)Cc2ccc(O)c3ccccc23)CC1

>  <score_type>  (46) 
oracle

>  <origin>  (46) 
autodockgpu

>  <m_score__min__energy>  (46) 
-10.050000000000001

>  <m_primary>  (46) 
energy

>  <rmsd>  (46) 
8.644661082503584

>  <m_score__min__rmsd>  (46) 
8.644661082503584

>  <meeko>  (46) 
{"free_energy": -7.63, "intermolecular_energy": -10.32, "internal_energy": -2.59, "cluster_size": 3, "cluster_id": 4, "rank_in_cluster": 3}

>  <energy>  (46) 
-6.39

>  <cluster_rmsd>  (46) 
0.25

>  <cluster>  (46) 
11

$$$$

     RDKit          3D

 64 67  0  0  0  0  0  0  0  0999 V2000
  146.6250   73.3760  221.4530 C   0  0  0  0  0  0  0  0  0  0  0  0
  145.2270   73.7310  221.0470 C   0  0  0  0  0  0  0  0  0  0  0  0
  145.0130   73.4610  219.6040 C   0  0  0  0  0  0  0  0  0  0  0  0
  145.9040   72.7920  218.9670 O   0  0  0  0  0  0  0  0  0  0  0  0
  143.8690   73.9050  218.8800 N   0  0  0  0  0  0  0  0  0  0  0  0
  144.1470   74.6100  217.6630 C   0  0  0  0  0  0  0  0  0  0  0  0
  143.6780   75.8940  217.4310 C   0  0  0  0  0  0  0  0  0  0  0  0
  143.9910   76.5220  216.2320 C   0  0  0  0  0  0  0  0  0  0  0  0
  144.7570   75.9050  215.2670 C   0  0  0  0  0  0  0  0  0  0  0  0
  145.2170   74.6460  215.4940 C   0  0  0  0  0  0  0  0  0  0  0  0
  144.9190   73.9850  216.6930 C   0  0  0  0  0  0  0  0  0  0  0  0
  142.5590   73.6480  219.3880 C   0  0  0  0  0  0  0  0  0  0  0  0
  142.2270   74.4280  220.6620 C   0  0  0  0  0  0  0  0  0  0  0  0
  140.6960   74.2210  220.7930 C   0  0  0  0  0  0  0  0  0  0  0  0
  140.5100   72.8480  221.3220 N   0  0  0  0  0  0  0  0  0  0  0  0
  139.3970   72.6450  222.1460 C   0  0  0  0  0  0  0  0  0  0  0  0
  138.6680   73.6970  222.3300 O   0  0  0  0  0  0  0  0  0  0  0  0
  139.0040   71.3820  222.8000 C   0  0  2  0  0  0  0  0  0  0  0  0
  138.1050   71.5210  223.9220 N   0  0  0  0  0  0  0  0  0  0  0  0
  140.1320   70.5000  223.1900 C   0  0  0  0  0  0  0  0  0  0  0  0
  140.0010   69.8210  224.4930 C   0  0  0  0  0  0  0  0  0  0  0  0
  139.4270   68.5630  224.6220 C   0  0  0  0  0  0  0  0  0  0  0  0
  139.2960   67.9200  225.8340 C   0  0  0  0  0  0  0  0  0  0  0  0
  139.7410   68.5260  226.9720 C   0  0  0  0  0  0  0  0  0  0  0  0
  139.6220   67.9020  228.2010 O   0  0  0  0  0  0  0  0  0  0  0  0
  140.3160   69.7770  226.8770 C   0  0  0  0  0  0  0  0  0  0  0  0
  140.7470   70.3580  228.0740 C   0  0  0  0  0  0  0  0  0  0  0  0
  141.3250   71.6280  228.0400 C   0  0  0  0  0  0  0  0  0  0  0  0
  141.4680   72.3000  226.8320 C   0  0  0  0  0  0  0  0  0  0  0  0
  141.0270   71.6810  225.6720 C   0  0  0  0  0  0  0  0  0  0  0  0
  140.4510   70.4240  225.6740 C   0  0  0  0  0  0  0  0  0  0  0  0
  141.5140   71.9080  220.9230 C   0  0  0  0  0  0  0  0  0  0  0  0
  142.1820   72.2350  219.6040 C   0  0  0  0  0  0  0  0  0  0  0  0
  146.6947   73.3583  222.5506 H   0  0  0  0  0  0  0  0  0  0  0  0
  146.8822   72.3840  221.0532 H   0  0  0  0  0  0  0  0  0  0  0  0
  147.3243   74.1251  221.0532 H   0  0  0  0  0  0  0  0  0  0  0  0
  144.5172   73.1310  221.6353 H   0  0  0  0  0  0  0  0  0  0  0  0
  145.0675   74.8034  221.2325 H   0  0  0  0  0  0  0  0  0  0  0  0
  143.0661   76.4087  218.1864 H   0  0  0  0  0  0  0  0  0  0  0  0
  143.6170   77.5400  216.0479 H   0  0  0  0  0  0  0  0  0  0  0  0
  144.9930   76.4238  214.3262 H   0  0  0  0  0  0  0  0  0  0  0  0
  145.8279   74.1423  214.7304 H   0  0  0  0  0  0  0  0  0  0  0  0
  145.2982   72.9671  216.8664 H   0  0  0  0  0  0  0  0  0  0  0  0
  141.9550   74.0092  218.5426 H   0  0  0  0  0  0  0  0  0  0  0  0
  142.7598   74.0149  221.5312 H   0  0  0  0  0  0  0  0  0  0  0  0
  142.5242   75.4862  220.6182 H   0  0  0  0  0  0  0  0  0  0  0  0
  140.2692   74.9590  221.4881 H   0  0  0  0  0  0  0  0  0  0  0  0
  140.1888   74.3509  219.8256 H   0  0  0  0  0  0  0  0  0  0  0  0
  138.4514   70.8926  221.9844 H   0  0  0  0  0  0  0  0  0  0  0  0
  137.1940   71.0260  223.6750 H   0  0  0  0  0  0  0  0  0  0  0  0
  137.8040   72.5420  223.8960 H   0  0  0  0  0  0  0  0  0  0  0  0
  140.2369   69.7255  222.4159 H   0  0  0  0  0  0  0  0  0  0  0  0
  141.0059   71.1611  223.2865 H   0  0  0  0  0  0  0  0  0  0  0  0
  139.0606   68.0572  223.7165 H   0  0  0  0  0  0  0  0  0  0  0  0
  138.8347   66.9226  225.8833 H   0  0  0  0  0  0  0  0  0  0  0  0
  140.3330   67.2210  228.4350 H   0  0  0  0  0  0  0  0  0  0  0  0
  140.6322   69.8222  229.0278 H   0  0  0  0  0  0  0  0  0  0  0  0
  141.6686   72.0988  228.9729 H   0  0  0  0  0  0  0  0  0  0  0  0
  141.9214   73.3016  226.7967 H   0  0  0  0  0  0  0  0  0  0  0  0
  141.1397   72.2100  224.7142 H   0  0  0  0  0  0  0  0  0  0  0  0
  142.2883   71.8783  221.7037 H   0  0  0  0  0  0  0  0  0  0  0  0
  141.0063   70.9414  220.7889 H   0  0  0  0  0  0  0  0  0  0  0  0
  143.0982   71.6303  219.5344 H   0  0  0  0  0  0  0  0  0  0  0  0
  141.4288   72.0136  218.8335 H   0  0  0  0  0  0  0  0  0  0  0  0
  1  2  1  0
  2  3  1  0
  3  4  2  0
  3  5  1  0
  5  6  1  0
  6  7  2  0
  7  8  1  0
  8  9  2  0
  9 10  1  0
 10 11  2  0
  5 12  1  0
 12 13  1  0
 13 14  1  0
 14 15  1  0
 15 16  1  0
 16 17  2  0
 16 18  1  0
 18 19  1  0
 18 20  1  0
 20 21  1  0
 21 22  2  0
 22 23  1  0
 23 24  2  0
 24 25  1  0
 24 26  1  0
 26 27  2  0
 27 28  1  0
 28 29  2  0
 29 30  1  0
 30 31  2  0
 15 32  1  0
 32 33  1  0
 11  6  1  0
 33 12  1  0
 31 21  1  0
 31 26  1  0
  1 34  1  0
  1 35  1  0
  1 36  1  0
  2 37  1  0
  2 38  1  0
  7 39  1  0
  8 40  1  0
  9 41  1  0
 10 42  1  0
 11 43  1  0
 12 44  1  0
 13 45  1  0
 13 46  1  0
 14 47  1  0
 14 48  1  0
 18 49  1  6
 19 50  1  0
 19 51  1  0
 20 52  1  0
 20 53  1  0
 22 54  1  0
 23 55  1  0
 25 56  1  0
 27 57  1  0
 28 58  1  0
 29 59  1  0
 30 60  1  0
 32 61  1  0
 32 62  1  0
 33 63  1  0
 33 64  1  0
M  END
>  <smiles>  (47) 
CCC(=O)N(c1ccccc1)C1CCN(C(=O)[C@H](N)Cc2ccc(O)c3ccccc23)CC1

>  <score_type>  (47) 
oracle

>  <origin>  (47) 
autodockgpu

>  <m_score__min__energy>  (47) 
-10.050000000000001

>  <m_primary>  (47) 
energy

>  <rmsd>  (47) 
7.762031255491565

>  <m_score__min__rmsd>  (47) 
7.762031255491565

>  <meeko>  (47) 
{"free_energy": -8.55, "intermolecular_energy": -11.24, "internal_energy": -2.05, "cluster_size": 5, "cluster_id": 3, "rank_in_cluster": 2}

>  <energy>  (47) 
-6.38

>  <cluster_rmsd>  (47) 
0.28

>  <cluster>  (47) 
11

$$$$

     RDKit          3D

 64 67  0  0  0  0  0  0  0  0999 V2000
  142.5760   79.5200  218.2440 C   0  0  0  0  0  0  0  0  0  0  0  0
  141.5550   78.4330  218.3980 C   0  0  0  0  0  0  0  0  0  0  0  0
  141.9680   77.4680  219.4450 C   0  0  0  0  0  0  0  0  0  0  0  0
  143.1410   76.9540  219.3770 O   0  0  0  0  0  0  0  0  0  0  0  0
  141.1310   77.0760  220.5300 N   0  0  0  0  0  0  0  0  0  0  0  0
  141.0910   77.9880  221.6360 C   0  0  0  0  0  0  0  0  0  0  0  0
  139.9750   78.1130  222.4490 C   0  0  0  0  0  0  0  0  0  0  0  0
  140.0060   79.0120  223.5080 C   0  0  0  0  0  0  0  0  0  0  0  0
  141.1170   79.7830  223.7740 C   0  0  0  0  0  0  0  0  0  0  0  0
  142.2120   79.6600  222.9770 C   0  0  0  0  0  0  0  0  0  0  0  0
  142.2120   78.7630  221.9010 C   0  0  0  0  0  0  0  0  0  0  0  0
  140.4160   75.8410  220.4700 C   0  0  0  0  0  0  0  0  0  0  0  0
  138.9300   75.9710  220.8150 C   0  0  0  0  0  0  0  0  0  0  0  0
  138.3600   74.6020  220.3620 C   0  0  0  0  0  0  0  0  0  0  0  0
  138.7440   73.6280  221.4120 N   0  0  0  0  0  0  0  0  0  0  0  0
  137.8540   72.5710  221.6360 C   0  0  0  0  0  0  0  0  0  0  0  0
  136.8060   72.5850  220.8780 O   0  0  0  0  0  0  0  0  0  0  0  0
  138.0040   71.4880  222.6270 C   0  0  2  0  0  0  0  0  0  0  0  0
  137.1360   71.5790  223.7770 N   0  0  0  0  0  0  0  0  0  0  0  0
  139.3940   71.2460  223.0860 C   0  0  0  0  0  0  0  0  0  0  0  0
  139.5550   70.2470  224.1600 C   0  0  0  0  0  0  0  0  0  0  0  0
  139.1590   68.9240  224.0110 C   0  0  0  0  0  0  0  0  0  0  0  0
  139.3000   67.9830  225.0080 C   0  0  0  0  0  0  0  0  0  0  0  0
  139.8500   68.3420  226.2030 C   0  0  0  0  0  0  0  0  0  0  0  0
  140.0040   67.4160  227.2200 O   0  0  0  0  0  0  0  0  0  0  0  0
  140.2530   69.6500  226.3830 C   0  0  0  0  0  0  0  0  0  0  0  0
  140.8010   69.9670  227.6290 C   0  0  0  0  0  0  0  0  0  0  0  0
  141.2150   71.2780  227.8720 C   0  0  0  0  0  0  0  0  0  0  0  0
  141.0830   72.2480  226.8860 C   0  0  0  0  0  0  0  0  0  0  0  0
  140.5360   71.8830  225.6650 C   0  0  0  0  0  0  0  0  0  0  0  0
  140.1160   70.5930  225.3950 C   0  0  0  0  0  0  0  0  0  0  0  0
  139.9830   73.9130  222.0740 C   0  0  0  0  0  0  0  0  0  0  0  0
  140.9660   74.7030  221.2360 C   0  0  0  0  0  0  0  0  0  0  0  0
  142.8986   79.8635  219.2379 H   0  0  0  0  0  0  0  0  0  0  0  0
  143.4439   79.1321  217.6905 H   0  0  0  0  0  0  0  0  0  0  0  0
  142.1346   80.3619  217.6905 H   0  0  0  0  0  0  0  0  0  0  0  0
  140.5909   78.8810  218.6804 H   0  0  0  0  0  0  0  0  0  0  0  0
  141.4626   77.8977  217.4415 H   0  0  0  0  0  0  0  0  0  0  0  0
  139.0763   77.5081  222.2581 H   0  0  0  0  0  0  0  0  0  0  0  0
  139.1195   79.1111  224.1517 H   0  0  0  0  0  0  0  0  0  0  0  0
  141.1180   80.4876  224.6187 H   0  0  0  0  0  0  0  0  0  0  0  0
  143.1050   80.2698  223.1789 H   0  0  0  0  0  0  0  0  0  0  0  0
  143.1038   78.6723  221.2635 H   0  0  0  0  0  0  0  0  0  0  0  0
  140.5486   75.5977  219.4055 H   0  0  0  0  0  0  0  0  0  0  0  0
  138.7844   76.1248  221.8944 H   0  0  0  0  0  0  0  0  0  0  0  0
  138.4413   76.8308  220.3334 H   0  0  0  0  0  0  0  0  0  0  0  0
  137.2649   74.6552  220.2729 H   0  0  0  0  0  0  0  0  0  0  0  0
  138.7549   74.3084  219.3782 H   0  0  0  0  0  0  0  0  0  0  0  0
  137.6836   70.6200  222.0322 H   0  0  0  0  0  0  0  0  0  0  0  0
  136.1450   71.7580  223.4270 H   0  0  0  0  0  0  0  0  0  0  0  0
  137.3770   72.5180  224.2170 H   0  0  0  0  0  0  0  0  0  0  0  0
  139.9804   70.9063  222.2195 H   0  0  0  0  0  0  0  0  0  0  0  0
  139.7357   72.1999  223.5141 H   0  0  0  0  0  0  0  0  0  0  0  0
  138.7130   68.6135  223.0546 H   0  0  0  0  0  0  0  0  0  0  0  0
  138.9704   66.9470  224.8405 H   0  0  0  0  0  0  0  0  0  0  0  0
  139.9400   66.4410  226.9580 H   0  0  0  0  0  0  0  0  0  0  0  0
  140.9045   69.1955  228.4062 H   0  0  0  0  0  0  0  0  0  0  0  0
  141.6474   71.5440  228.8478 H   0  0  0  0  0  0  0  0  0  0  0  0
  141.4055   73.2834  227.0700 H   0  0  0  0  0  0  0  0  0  0  0  0
  140.4322   72.6482  224.8816 H   0  0  0  0  0  0  0  0  0  0  0  0
  139.7632   74.4904  222.9841 H   0  0  0  0  0  0  0  0  0  0  0  0
  140.4573   72.9440  222.2888 H   0  0  0  0  0  0  0  0  0  0  0  0
  141.7391   75.0977  221.9116 H   0  0  0  0  0  0  0  0  0  0  0  0
  141.3370   73.9958  220.4795 H   0  0  0  0  0  0  0  0  0  0  0  0
  1  2  1  0
  2  3  1  0
  3  4  2  0
  3  5  1  0
  5  6  1  0
  6  7  2  0
  7  8  1  0
  8  9  2  0
  9 10  1  0
 10 11  2  0
  5 12  1  0
 12 13  1  0
 13 14  1  0
 14 15  1  0
 15 16  1  0
 16 17  2  0
 16 18  1  0
 18 19  1  0
 18 20  1  0
 20 21  1  0
 21 22  2  0
 22 23  1  0
 23 24  2  0
 24 25  1  0
 24 26  1  0
 26 27  2  0
 27 28  1  0
 28 29  2  0
 29 30  1  0
 30 31  2  0
 15 32  1  0
 32 33  1  0
 11  6  1  0
 33 12  1  0
 31 21  1  0
 31 26  1  0
  1 34  1  0
  1 35  1  0
  1 36  1  0
  2 37  1  0
  2 38  1  0
  7 39  1  0
  8 40  1  0
  9 41  1  0
 10 42  1  0
 11 43  1  0
 12 44  1  0
 13 45  1  0
 13 46  1  0
 14 47  1  0
 14 48  1  0
 18 49  1  6
 19 50  1  0
 19 51  1  0
 20 52  1  0
 20 53  1  0
 22 54  1  0
 23 55  1  0
 25 56  1  0
 27 57  1  0
 28 58  1  0
 29 59  1  0
 30 60  1  0
 32 61  1  0
 32 62  1  0
 33 63  1  0
 33 64  1  0
M  END
>  <smiles>  (48) 
CCC(=O)N(c1ccccc1)C1CCN(C(=O)[C@H](N)Cc2ccc(O)c3ccccc23)CC1

>  <score_type>  (48) 
oracle

>  <origin>  (48) 
autodockgpu

>  <m_score__min__energy>  (48) 
-10.050000000000001

>  <m_primary>  (48) 
energy

>  <rmsd>  (48) 
6.912991364795996

>  <m_score__min__rmsd>  (48) 
6.912991364795996

>  <meeko>  (48) 
{"free_energy": -8.44, "intermolecular_energy": -11.12, "internal_energy": -1.39, "cluster_size": 18, "cluster_id": 1, "rank_in_cluster": 14}

>  <energy>  (48) 
-6.3

>  <cluster_rmsd>  (48) 
0.36

>  <cluster>  (48) 
11

$$$$

     RDKit          3D

 64 67  0  0  0  0  0  0  0  0999 V2000
  142.1910   80.3760  218.7940 C   0  0  0  0  0  0  0  0  0  0  0  0
  141.4100   79.1350  218.4830 C   0  0  0  0  0  0  0  0  0  0  0  0
  141.9020   77.9890  219.2830 C   0  0  0  0  0  0  0  0  0  0  0  0
  143.0120   77.4380  218.9490 O   0  0  0  0  0  0  0  0  0  0  0  0
  141.2090   77.4590  220.4110 N   0  0  0  0  0  0  0  0  0  0  0  0
  141.1770   78.3080  221.5670 C   0  0  0  0  0  0  0  0  0  0  0  0
  142.2620   79.0860  221.9400 C   0  0  0  0  0  0  0  0  0  0  0  0
  142.1600   79.8910  223.0680 C   0  0  0  0  0  0  0  0  0  0  0  0
  141.0100   79.9400  223.8250 C   0  0  0  0  0  0  0  0  0  0  0  0
  139.9460   79.1770  223.4580 C   0  0  0  0  0  0  0  0  0  0  0  0
  140.0170   78.3540  222.3270 C   0  0  0  0  0  0  0  0  0  0  0  0
  140.6190   76.1600  220.3410 C   0  0  0  0  0  0  0  0  0  0  0  0
  139.0900   76.1810  220.2690 C   0  0  0  0  0  0  0  0  0  0  0  0
  138.7530   74.7190  219.8800 C   0  0  0  0  0  0  0  0  0  0  0  0
  138.9040   73.9170  221.1180 N   0  0  0  0  0  0  0  0  0  0  0  0
  138.0590   72.8100  221.2490 C   0  0  0  0  0  0  0  0  0  0  0  0
  137.2540   72.6300  220.2530 O   0  0  0  0  0  0  0  0  0  0  0  0
  138.0070   71.8700  222.3860 C   0  0  2  0  0  0  0  0  0  0  0  0
  137.0920   72.2290  223.4430 N   0  0  0  0  0  0  0  0  0  0  0  0
  139.3240   71.5310  222.9800 C   0  0  0  0  0  0  0  0  0  0  0  0
  139.3460   70.3620  223.8800 C   0  0  0  0  0  0  0  0  0  0  0  0
  138.8400   69.1250  223.5040 C   0  0  0  0  0  0  0  0  0  0  0  0
  138.8520   68.0260  224.3360 C   0  0  0  0  0  0  0  0  0  0  0  0
  139.3760   68.1340  225.5910 C   0  0  0  0  0  0  0  0  0  0  0  0
  139.4000   67.0460  226.4460 O   0  0  0  0  0  0  0  0  0  0  0  0
  139.8860   69.3520  225.9940 C   0  0  0  0  0  0  0  0  0  0  0  0
  140.4020   69.4110  227.2930 C   0  0  0  0  0  0  0  0  0  0  0  0
  140.9200   70.6200  227.7600 C   0  0  0  0  0  0  0  0  0  0  0  0
  140.9200   71.7440  226.9430 C   0  0  0  0  0  0  0  0  0  0  0  0
  140.3990   71.6340  225.6630 C   0  0  0  0  0  0  0  0  0  0  0  0
  139.8790   70.4500  225.1710 C   0  0  0  0  0  0  0  0  0  0  0  0
  139.8990   74.3990  222.0300 C   0  0  0  0  0  0  0  0  0  0  0  0
  141.0160   75.1800  221.3730 C   0  0  0  0  0  0  0  0  0  0  0  0
  142.2674   80.4975  219.8846 H   0  0  0  0  0  0  0  0  0  0  0  0
  143.1995   80.2923  218.3628 H   0  0  0  0  0  0  0  0  0  0  0  0
  141.6792   81.2490  218.3628 H   0  0  0  0  0  0  0  0  0  0  0  0
  140.3492   79.3086  218.7163 H   0  0  0  0  0  0  0  0  0  0  0  0
  141.5338   78.8988  217.4158 H   0  0  0  0  0  0  0  0  0  0  0  0
  143.1909   79.0664  221.3511 H   0  0  0  0  0  0  0  0  0  0  0  0
  143.0219   80.5066  223.3649 H   0  0  0  0  0  0  0  0  0  0  0  0
  140.9534   80.5867  224.7130 H   0  0  0  0  0  0  0  0  0  0  0  0
  139.0221   79.2064  224.0542 H   0  0  0  0  0  0  0  0  0  0  0  0
  139.1495   77.7415  222.0400 H   0  0  0  0  0  0  0  0  0  0  0  0
  141.0487   75.8078  219.3916 H   0  0  0  0  0  0  0  0  0  0  0  0
  138.6497   76.4452  221.2418 H   0  0  0  0  0  0  0  0  0  0  0  0
  138.6942   76.9254  219.5624 H   0  0  0  0  0  0  0  0  0  0  0  0
  137.7208   74.6521  219.5057 H   0  0  0  0  0  0  0  0  0  0  0  0
  139.4157   74.3533  219.0818 H   0  0  0  0  0  0  0  0  0  0  0  0
  137.6119   70.9710  221.8903 H   0  0  0  0  0  0  0  0  0  0  0  0
  136.9690   73.2880  223.4240 H   0  0  0  0  0  0  0  0  0  0  0  0
  137.6540   72.0990  224.3380 H   0  0  0  0  0  0  0  0  0  0  0  0
  140.0245   71.3339  222.1551 H   0  0  0  0  0  0  0  0  0  0  0  0
  139.5974   72.3928  223.6065 H   0  0  0  0  0  0  0  0  0  0  0  0
  138.4103   69.0171  222.4972 H   0  0  0  0  0  0  0  0  0  0  0  0
  138.4410   67.0663  223.9896 H   0  0  0  0  0  0  0  0  0  0  0  0
  140.0450   67.0950  227.2230 H   0  0  0  0  0  0  0  0  0  0  0  0
  140.3995   68.5187  227.9362 H   0  0  0  0  0  0  0  0  0  0  0  0
  141.3299   70.6833  228.7788 H   0  0  0  0  0  0  0  0  0  0  0  0
  141.3248   72.7009  227.3042 H   0  0  0  0  0  0  0  0  0  0  0  0
  140.3990   72.5219  225.0137 H   0  0  0  0  0  0  0  0  0  0  0  0
  139.4061   75.0532  222.7642 H   0  0  0  0  0  0  0  0  0  0  0  0
  140.3610   73.5135  222.4909 H   0  0  0  0  0  0  0  0  0  0  0  0
  141.5514   75.7261  222.1636 H   0  0  0  0  0  0  0  0  0  0  0  0
  141.6221   74.4302  220.8435 H   0  0  0  0  0  0  0  0  0  0  0  0
  1  2  1  0
  2  3  1  0
  3  4  2  0
  3  5  1  0
  5  6  1  0
  6  7  2  0
  7  8  1  0
  8  9  2  0
  9 10  1  0
 10 11  2  0
  5 12  1  0
 12 13  1  0
 13 14  1  0
 14 15  1  0
 15 16  1  0
 16 17  2  0
 16 18  1  0
 18 19  1  0
 18 20  1  0
 20 21  1  0
 21 22  2  0
 22 23  1  0
 23 24  2  0
 24 25  1  0
 24 26  1  0
 26 27  2  0
 27 28  1  0
 28 29  2  0
 29 30  1  0
 30 31  2  0
 15 32  1  0
 32 33  1  0
 11  6  1  0
 33 12  1  0
 31 21  1  0
 31 26  1  0
  1 34  1  0
  1 35  1  0
  1 36  1  0
  2 37  1  0
  2 38  1  0
  7 39  1  0
  8 40  1  0
  9 41  1  0
 10 42  1  0
 11 43  1  0
 12 44  1  0
 13 45  1  0
 13 46  1  0
 14 47  1  0
 14 48  1  0
 18 49  1  6
 19 50  1  0
 19 51  1  0
 20 52  1  0
 20 53  1  0
 22 54  1  0
 23 55  1  0
 25 56  1  0
 27 57  1  0
 28 58  1  0
 29 59  1  0
 30 60  1  0
 32 61  1  0
 32 62  1  0
 33 63  1  0
 33 64  1  0
M  END
>  <smiles>  (49) 
CCC(=O)N(c1ccccc1)C1CCN(C(=O)[C@H](N)Cc2ccc(O)c3ccccc23)CC1

>  <score_type>  (49) 
oracle

>  <origin>  (49) 
autodockgpu

>  <m_score__min__energy>  (49) 
-10.050000000000001

>  <m_primary>  (49) 
energy

>  <rmsd>  (49) 
6.594917558619741

>  <m_score__min__rmsd>  (49) 
6.594917558619741

>  <meeko>  (49) 
{"free_energy": -8.74, "intermolecular_energy": -11.42, "internal_energy": -1.52, "cluster_size": 18, "cluster_id": 1, "rank_in_cluster": 10}

>  <energy>  (49) 
-6.2

>  <cluster_rmsd>  (49) 
0.61

>  <cluster>  (49) 
11

$$$$

     RDKit          3D

 64 67  0  0  0  0  0  0  0  0999 V2000
  143.3010   83.7440  217.0870 C   0  0  0  0  0  0  0  0  0  0  0  0
  143.6860   82.2950  217.0980 C   0  0  0  0  0  0  0  0  0  0  0  0
  142.5030   81.4350  216.8560 C   0  0  0  0  0  0  0  0  0  0  0  0
  142.0750   81.3030  215.6540 O   0  0  0  0  0  0  0  0  0  0  0  0
  141.8080   80.7410  217.8900 N   0  0  0  0  0  0  0  0  0  0  0  0
  142.1850   79.3680  218.0680 C   0  0  0  0  0  0  0  0  0  0  0  0
  142.5810   78.5690  217.0070 C   0  0  0  0  0  0  0  0  0  0  0  0
  142.9390   77.2490  217.2520 C   0  0  0  0  0  0  0  0  0  0  0  0
  142.9120   76.7120  218.5210 C   0  0  0  0  0  0  0  0  0  0  0  0
  142.5240   77.4960  219.5610 C   0  0  0  0  0  0  0  0  0  0  0  0
  142.1560   78.8310  219.3480 C   0  0  0  0  0  0  0  0  0  0  0  0
  140.8070   81.4140  218.6540 C   0  0  0  0  0  0  0  0  0  0  0  0
  141.3470   82.0960  219.9130 C   0  0  0  0  0  0  0  0  0  0  0  0
  140.1550   82.9890  220.3470 C   0  0  0  0  0  0  0  0  0  0  0  0
  139.1740   82.0830  220.9920 N   0  0  0  0  0  0  0  0  0  0  0  0
  138.4060   82.6320  222.0240 C   0  0  0  0  0  0  0  0  0  0  0  0
  138.6550   83.8760  222.2740 O   0  0  0  0  0  0  0  0  0  0  0  0
  137.3790   81.9360  222.8240 C   0  0  2  0  0  0  0  0  0  0  0  0
  136.3410   82.7810  223.3660 N   0  0  0  0  0  0  0  0  0  0  0  0
  137.9070   81.0660  223.9030 C   0  0  0  0  0  0  0  0  0  0  0  0
  138.7370   79.9270  223.4680 C   0  0  0  0  0  0  0  0  0  0  0  0
  138.1880   78.7100  223.0850 C   0  0  0  0  0  0  0  0  0  0  0  0
  138.9520   77.6370  222.6800 C   0  0  0  0  0  0  0  0  0  0  0  0
  140.3110   77.7500  222.6450 C   0  0  0  0  0  0  0  0  0  0  0  0
  141.1010   76.6890  222.2410 O   0  0  0  0  0  0  0  0  0  0  0  0
  140.8870   78.9470  223.0200 C   0  0  0  0  0  0  0  0  0  0  0  0
  142.2840   79.0070  222.9760 C   0  0  0  0  0  0  0  0  0  0  0  0
  142.9220   80.1890  223.3570 C   0  0  0  0  0  0  0  0  0  0  0  0
  142.1770   81.2860  223.7710 C   0  0  0  0  0  0  0  0  0  0  0  0
  140.7940   81.1770  223.7960 C   0  0  0  0  0  0  0  0  0  0  0  0
  140.1330   80.0200  223.4250 C   0  0  0  0  0  0  0  0  0  0  0  0
  139.1550   80.7480  220.4710 C   0  0  0  0  0  0  0  0  0  0  0  0
  139.6080   80.6360  219.0310 C   0  0  0  0  0  0  0  0  0  0  0  0
  143.2049   84.1057  218.1214 H   0  0  0  0  0  0  0  0  0  0  0  0
  144.0758   84.3253  216.5658 H   0  0  0  0  0  0  0  0  0  0  0  0
  142.3398   83.8640  216.5658 H   0  0  0  0  0  0  0  0  0  0  0  0
  144.4312   82.1137  216.3095 H   0  0  0  0  0  0  0  0  0  0  0  0
  144.1055   82.0487  218.0846 H   0  0  0  0  0  0  0  0  0  0  0  0
  142.6114   78.9744  215.9849 H   0  0  0  0  0  0  0  0  0  0  0  0
  143.2527   76.6149  216.4097 H   0  0  0  0  0  0  0  0  0  0  0  0
  143.2004   75.6639  218.6896 H   0  0  0  0  0  0  0  0  0  0  0  0
  142.4986   77.0790  220.5786 H   0  0  0  0  0  0  0  0  0  0  0  0
  141.8431   79.4557  220.1976 H   0  0  0  0  0  0  0  0  0  0  0  0
  140.4778   82.1625  217.9182 H   0  0  0  0  0  0  0  0  0  0  0  0
  141.5946   81.3579  220.6901 H   0  0  0  0  0  0  0  0  0  0  0  0
  142.2774   82.6577  219.7433 H   0  0  0  0  0  0  0  0  0  0  0  0
  140.4924   83.7557  221.0600 H   0  0  0  0  0  0  0  0  0  0  0  0
  139.7123   83.5130  219.4871 H   0  0  0  0  0  0  0  0  0  0  0  0
  136.9236   81.2928  222.0566 H   0  0  0  0  0  0  0  0  0  0  0  0
  135.5480   82.8240  222.6540 H   0  0  0  0  0  0  0  0  0  0  0  0
  136.7380   83.7670  223.2970 H   0  0  0  0  0  0  0  0  0  0  0  0
  138.5175   81.6914  224.5710 H   0  0  0  0  0  0  0  0  0  0  0  0
  137.0234   80.6219  224.3846 H   0  0  0  0  0  0  0  0  0  0  0  0
  137.0940   78.5976  223.1059 H   0  0  0  0  0  0  0  0  0  0  0  0
  138.4682   76.6938  222.3863 H   0  0  0  0  0  0  0  0  0  0  0  0
  142.0740   76.8930  222.0550 H   0  0  0  0  0  0  0  0  0  0  0  0
  142.8705   78.1367  222.6464 H   0  0  0  0  0  0  0  0  0  0  0  0
  144.0198   80.2519  223.3292 H   0  0  0  0  0  0  0  0  0  0  0  0
  142.6727   82.2206  224.0724 H   0  0  0  0  0  0  0  0  0  0  0  0
  140.2008   82.0436  224.1233 H   0  0  0  0  0  0  0  0  0  0  0  0
  139.8186   80.1267  221.0904 H   0  0  0  0  0  0  0  0  0  0  0  0
  138.1076   80.4132  220.4992 H   0  0  0  0  0  0  0  0  0  0  0  0
  139.8205   79.5758  218.8291 H   0  0  0  0  0  0  0  0  0  0  0  0
  138.7869   81.0594  218.4339 H   0  0  0  0  0  0  0  0  0  0  0  0
  1  2  1  0
  2  3  1  0
  3  4  2  0
  3  5  1  0
  5  6  1  0
  6  7  2  0
  7  8  1  0
  8  9  2  0
  9 10  1  0
 10 11  2  0
  5 12  1  0
 12 13  1  0
 13 14  1  0
 14 15  1  0
 15 16  1  0
 16 17  2  0
 16 18  1  0
 18 19  1  0
 18 20  1  0
 20 21  1  0
 21 22  2  0
 22 23  1  0
 23 24  2  0
 24 25  1  0
 24 26  1  0
 26 27  2  0
 27 28  1  0
 28 29  2  0
 29 30  1  0
 30 31  2  0
 15 32  1  0
 32 33  1  0
 11  6  1  0
 33 12  1  0
 31 21  1  0
 31 26  1  0
  1 34  1  0
  1 35  1  0
  1 36  1  0
  2 37  1  0
  2 38  1  0
  7 39  1  0
  8 40  1  0
  9 41  1  0
 10 42  1  0
 11 43  1  0
 12 44  1  0
 13 45  1  0
 13 46  1  0
 14 47  1  0
 14 48  1  0
 18 49  1  6
 19 50  1  0
 19 51  1  0
 20 52  1  0
 20 53  1  0
 22 54  1  0
 23 55  1  0
 25 56  1  0
 27 57  1  0
 28 58  1  0
 29 59  1  0
 30 60  1  0
 32 61  1  0
 32 62  1  0
 33 63  1  0
 33 64  1  0
M  END
>  <smiles>  (50) 
CCC(=O)N(c1ccccc1)C1CCN(C(=O)[C@H](N)Cc2ccc(O)c3ccccc23)CC1

>  <score_type>  (50) 
oracle

>  <origin>  (50) 
autodockgpu

>  <m_score__min__energy>  (50) 
-10.050000000000001

>  <m_primary>  (50) 
energy

>  <rmsd>  (50) 
5.796385321158141

>  <m_score__min__rmsd>  (50) 
5.796385321158141

>  <meeko>  (50) 
{"free_energy": -6.38, "intermolecular_energy": -9.07, "internal_energy": -3.63, "cluster_size": 11, "cluster_id": 11, "rank_in_cluster": 9}

>  <energy>  (50) 
-6.34

>  <cluster_rmsd>  (50) 
0.0

>  <cluster>  (50) 
12

$$$$
